3B26_B2L_A_1
 OpenBabel03301717143D

 36 39  0  0  0  0  0  0  0  0999 V2000
   -3.2099   11.3165    1.5237 C   0  0  0  0  0  0  0  0  0  0  0  0
   -3.8549   10.1781    2.0920 O   0  0  0  0  0  0  0  0  0  0  0  0
   -3.8130    9.0345    1.2412 C   0  0  0  0  0  0  0  0  0  0  0  0
   -2.4107    8.6948    0.8210 C   0  0  0  0  0  0  0  0  0  0  0  0
   -2.0990    7.3825    0.4465 C   0  0  0  0  0  0  0  0  0  0  0  0
   -0.8166    7.0752    0.0243 C   0  0  0  0  0  0  0  0  0  0  0  0
    0.1585    8.0713   -0.0107 C   0  0  0  0  0  0  0  0  0  0  0  0
   -0.1257    9.4192    0.3288 C   0  0  0  0  0  0  0  0  0  0  0  0
   -1.4386    9.7093    0.7546 C   0  0  0  0  0  0  0  0  0  0  0  0
   -1.7981   11.0204    1.1174 C   0  0  0  0  0  0  0  0  0  0  0  0
   -0.8605   12.0490    1.0529 C   0  0  0  0  0  0  0  0  0  0  0  0
    0.4335   11.7795    0.6349 C   0  0  0  0  0  0  0  0  0  0  0  0
    0.8271   10.4805    0.2660 C   0  0  0  0  0  0  0  0  0  0  0  0
    2.2013   10.3091   -0.2226 C   0  0  0  0  0  0  0  0  0  0  0  0
    3.1791   10.7764    0.5828 N   0  0  0  0  0  0  0  0  0  0  0  0
    2.4586    9.7751   -1.4690 C   0  0  0  0  0  0  0  0  0  0  0  0
    3.7779    9.6888   -1.8377 C   0  0  0  0  0  0  0  0  0  0  0  0
    4.1450    9.0720   -3.1569 C   0  0  0  0  0  0  0  0  0  0  0  0
    4.7737   10.1399   -1.0439 N   0  0  0  0  0  0  0  0  0  0  0  0
    4.4296   10.6806    0.1346 C   0  0  0  0  0  0  0  0  0  0  0  0
    5.4213   11.1929    0.9174 N   0  0  0  0  0  0  0  0  0  0  0  0
   -3.1966   12.0936    2.2952 H   0  0  0  0  0  0  0  0  0  0  0  0
   -3.7774   11.6863    0.6629 H   0  0  0  0  0  0  0  0  0  0  0  0
   -4.4361    9.1955    0.3546 H   0  0  0  0  0  0  0  0  0  0  0  0
   -4.2250    8.1969    1.8139 H   0  0  0  0  0  0  0  0  0  0  0  0
   -2.8518    6.5993    0.4931 H   0  0  0  0  0  0  0  0  0  0  0  0
   -0.5649    6.0588   -0.2697 H   0  0  0  0  0  0  0  0  0  0  0  0
    1.1550    7.7768   -0.3165 H   0  0  0  0  0  0  0  0  0  0  0  0
   -1.1312   13.0654    1.3287 H   0  0  0  0  0  0  0  0  0  0  0  0
    1.1526   12.5949    0.5731 H   0  0  0  0  0  0  0  0  0  0  0  0
    1.6558    9.4407   -2.1134 H   0  0  0  0  0  0  0  0  0  0  0  0
    3.2544    8.7482   -3.7092 H   0  0  0  0  0  0  0  0  0  0  0  0
    4.7740    8.1923   -2.9979 H   0  0  0  0  0  0  0  0  0  0  0  0
    4.6799    9.7933   -3.7797 H   0  0  0  0  0  0  0  0  0  0  0  0
    6.3703   11.0764    0.6109 H   0  0  0  0  0  0  0  0  0  0  0  0
    5.1702   11.5642    1.8193 H   0  0  0  0  0  0  0  0  0  0  0  0
  1  2  1  0  0  0  0
  1 10  1  0  0  0  0
  1 22  1  0  0  0  0
  1 23  1  0  0  0  0
  2  3  1  0  0  0  0
  3  4  1  0  0  0  0
  3 24  1  0  0  0  0
  3 25  1  0  0  0  0
  4  5  2  0  0  0  0
  4  9  1  0  0  0  0
  5  6  1  0  0  0  0
  5 26  1  0  0  0  0
  6  7  2  0  0  0  0
  6 27  1  0  0  0  0
  7  8  1  0  0  0  0
  7 28  1  0  0  0  0
  8  9  2  0  0  0  0
  8 13  1  0  0  0  0
  9 10  1  0  0  0  0
 10 11  2  0  0  0  0
 11 12  1  0  0  0  0
 11 29  1  0  0  0  0
 12 13  2  0  0  0  0
 12 30  1  0  0  0  0
 13 14  1  0  0  0  0
 14 15  2  0  0  0  0
 14 16  1  0  0  0  0
 15 20  1  0  0  0  0
 16 17  2  0  0  0  0
 16 31  1  0  0  0  0
 17 18  1  0  0  0  0
 17 19  1  0  0  0  0
 18 32  1  0  0  0  0
 18 33  1  0  0  0  0
 18 34  1  0  0  0  0
 19 20  2  0  0  0  0
 20 21  1  0  0  0  0
 21 35  1  0  0  0  0
 21 36  1  0  0  0  0
M  END
$$$$
