3B24_B2J_A_237
 OpenBabel03301717143D

 21 21  0  0  0  0  0  0  0  0999 V2000
   33.1255   37.9266   51.7184 C   0  0  0  0  0  0  0  0  0  0  0  0
   32.5009   36.7729   52.4839 C   0  0  0  0  0  0  0  0  0  0  0  0
   33.5892   35.3149   52.4857 S   0  0  0  0  0  0  0  0  0  0  0  0
   33.1990   34.6143   50.8987 C   0  0  0  0  0  0  0  0  0  0  0  0
   34.2268   34.1649   50.1913 N   0  0  0  0  0  0  0  0  0  0  0  0
   31.9229   34.5290   50.5357 N   0  0  0  0  0  0  0  0  0  0  0  0
   31.7098   33.9391   49.3665 C   0  0  0  0  0  0  0  0  0  0  0  0
   30.2892   33.7986   48.8990 C   0  0  0  0  0  0  0  0  0  0  0  0
   32.6816   33.4617   48.5757 N   0  0  0  0  0  0  0  0  0  0  0  0
   33.9134   33.5959   49.0425 C   0  0  0  0  0  0  0  0  0  0  0  0
   34.9511   33.1077   48.2939 N   0  0  0  0  0  0  0  0  0  0  0  0
   32.4623   38.7980   51.7500 H   0  0  0  0  0  0  0  0  0  0  0  0
   33.2902   37.6733   50.6666 H   0  0  0  0  0  0  0  0  0  0  0  0
   34.0821   38.2284   52.1593 H   0  0  0  0  0  0  0  0  0  0  0  0
   31.5130   36.5290   52.0825 H   0  0  0  0  0  0  0  0  0  0  0  0
   32.3544   37.0743   53.5265 H   0  0  0  0  0  0  0  0  0  0  0  0
   29.5961   34.2525   49.6176 H   0  0  0  0  0  0  0  0  0  0  0  0
   30.0244   32.7427   48.7919 H   0  0  0  0  0  0  0  0  0  0  0  0
   30.1537   34.2978   47.9350 H   0  0  0  0  0  0  0  0  0  0  0  0
   34.7701   32.7906   47.3607 H   0  0  0  0  0  0  0  0  0  0  0  0
   35.8822   33.3238   48.6210 H   0  0  0  0  0  0  0  0  0  0  0  0
  1  2  1  0  0  0  0
  1 12  1  0  0  0  0
  1 13  1  0  0  0  0
  1 14  1  0  0  0  0
  2  3  1  0  0  0  0
  2 15  1  0  0  0  0
  2 16  1  0  0  0  0
  3  4  1  0  0  0  0
  4  5  2  0  0  0  0
  4  6  1  0  0  0  0
  5 10  1  0  0  0  0
  6  7  2  0  0  0  0
  7  8  1  0  0  0  0
  7  9  1  0  0  0  0
  8 17  1  0  0  0  0
  8 18  1  0  0  0  0
  8 19  1  0  0  0  0
  9 10  2  0  0  0  0
 10 11  1  0  0  0  0
 11 20  1  0  0  0  0
 11 21  1  0  0  0  0
M  END
$$$$
