4YKU_4ER_A_301
 OpenBabel03301717373D

 23 24  0  0  0  0  0  0  0  0999 V2000
   -0.6577  -13.1567  -25.6226 Cl  0  0  0  0  0  0  0  0  0  0  0  0
   -1.3784  -11.6307  -26.0059 C   0  0  0  0  0  0  0  0  0  0  0  0
   -2.6899  -11.6525  -26.4988 C   0  0  0  0  0  0  0  0  0  0  0  0
   -3.3388  -10.4652  -26.8322 C   0  0  0  0  0  0  0  0  0  0  0  0
   -2.6785   -9.2506  -26.6718 C   0  0  0  0  0  0  0  0  0  0  0  0
   -1.3784   -9.2246  -26.1584 C   0  0  0  0  0  0  0  0  0  0  0  0
   -0.7000  -10.4145  -25.8215 C   0  0  0  0  0  0  0  0  0  0  0  0
    0.6637  -10.3424  -25.2918 C   0  0  0  0  0  0  0  0  0  0  0  0
    1.6365  -10.8617  -26.0421 N   0  0  0  0  0  0  0  0  0  0  0  0
    2.8413  -10.7759  -25.5116 C   0  0  0  0  0  0  0  0  0  0  0  0
    3.8777  -11.3032  -26.2357 N   0  0  0  0  0  0  0  0  0  0  0  0
    3.1219  -10.2154  -24.3497 N   0  0  0  0  0  0  0  0  0  0  0  0
    0.8363   -9.7247  -24.1248 N   0  0  0  0  0  0  0  0  0  0  0  0
    2.0865   -9.7078  -23.6966 C   0  0  0  0  0  0  0  0  0  0  0  0
    2.3304   -9.1061  -22.4967 N   0  0  0  0  0  0  0  0  0  0  0  0
   -3.2116  -12.6001  -26.6209 H   0  0  0  0  0  0  0  0  0  0  0  0
   -4.3562  -10.4901  -27.2155 H   0  0  0  0  0  0  0  0  0  0  0  0
   -3.1744   -8.3232  -26.9451 H   0  0  0  0  0  0  0  0  0  0  0  0
   -0.8825   -8.2637  -26.0274 H   0  0  0  0  0  0  0  0  0  0  0  0
    4.8120  -11.1208  -25.9130 H   0  0  0  0  0  0  0  0  0  0  0  0
    3.6745  -11.6238  -27.1674 H   0  0  0  0  0  0  0  0  0  0  0  0
    1.5560   -8.6954  -22.0040 H   0  0  0  0  0  0  0  0  0  0  0  0
    3.2736   -9.0968  -22.1525 H   0  0  0  0  0  0  0  0  0  0  0  0
  1  2  1  0  0  0  0
  2  3  2  0  0  0  0
  2  7  1  0  0  0  0
  3  4  1  0  0  0  0
  3 16  1  0  0  0  0
  4  5  2  0  0  0  0
  4 17  1  0  0  0  0
  5  6  1  0  0  0  0
  5 18  1  0  0  0  0
  6  7  2  0  0  0  0
  6 19  1  0  0  0  0
  7  8  1  0  0  0  0
  8  9  2  0  0  0  0
  8 13  1  0  0  0  0
  9 10  1  0  0  0  0
 10 11  1  0  0  0  0
 10 12  2  0  0  0  0
 11 20  1  0  0  0  0
 11 21  1  0  0  0  0
 12 14  1  0  0  0  0
 13 14  2  0  0  0  0
 14 15  1  0  0  0  0
 15 22  1  0  0  0  0
 15 23  1  0  0  0  0
M  END
$$$$
