2YEB_2K4_A_1224
 OpenBabel03301717093D

 16 17  0  0  0  0  0  0  0  0999 V2000
   30.8743   11.8546   22.8245 C   0  0  0  0  0  0  0  0  0  0  0  0
   30.8141   11.3956   24.1445 C   0  0  0  0  0  0  0  0  0  0  0  0
   29.7566   11.0472   24.9272 N   0  3  0  0  0  0  0  0  0  0  0  0
   30.1526   10.6501   26.1653 N   0  0  0  0  0  0  0  0  0  0  0  0
   31.4887   10.7572   26.1418 C   0  0  0  0  0  0  0  0  0  0  0  0
   31.9365   11.2166   24.9056 C   0  0  0  0  0  0  0  0  0  0  0  0
   33.1990   11.4880   24.3893 C   0  0  0  0  0  0  0  0  0  0  0  0
   33.2865   11.9460   23.0807 C   0  0  0  0  0  0  0  0  0  0  0  0
   32.1353   12.1211   22.3232 C   0  0  0  0  0  0  0  0  0  0  0  0
   32.2078   12.5707   21.0352 O   0  0  0  0  0  0  0  0  0  0  0  0
   29.9758   11.9831   22.2580 H   0  0  0  0  0  0  0  0  0  0  0  0
   28.7763   11.0572   24.6858 H   0  0  0  0  0  0  0  0  0  0  0  0
   32.1020   10.5114   26.9849 H   0  0  0  0  0  0  0  0  0  0  0  0
   34.0831   11.3417   25.0015 H   0  0  0  0  0  0  0  0  0  0  0  0
   34.2613   12.1610   22.6699 H   0  0  0  0  0  0  0  0  0  0  0  0
   33.1280   12.7329   20.7661 H   0  0  0  0  0  0  0  0  0  0  0  0
  1  2  1  0  0  0  0
  1  9  2  0  0  0  0
  1 11  1  0  0  0  0
  2  3  2  0  0  0  0
  2  6  1  0  0  0  0
  3  4  1  0  0  0  0
  3 12  1  0  0  0  0
  4  5  1  0  0  0  0
  5  6  2  0  0  0  0
  5 13  1  0  0  0  0
  6  7  1  0  0  0  0
  7  8  2  0  0  0  0
  7 14  1  0  0  0  0
  8  9  1  0  0  0  0
  8 15  1  0  0  0  0
  9 10  1  0  0  0  0
 10 16  1  0  0  0  0
M  CHG  1   3   1
M  END
$$$$
