2YE3_VXX_A_1224
 OpenBabel03301717083D

 23 23  0  0  0  0  0  0  0  0999 V2000
   64.0062   34.1455   24.7538 C   0  0  0  0  0  0  0  0  0  0  0  0
   62.8670   33.7169   25.4450 C   0  0  0  0  0  0  0  0  0  0  0  0
   65.2605   33.8342   25.2617 C   0  0  0  0  0  0  0  0  0  0  0  0
   62.9854   32.9825   26.6280 C   0  0  0  0  0  0  0  0  0  0  0  0
   65.3942   33.1082   26.4561 C   0  0  0  0  0  0  0  0  0  0  0  0
   66.6125   32.7854   27.0059 O   0  0  0  0  0  0  0  0  0  0  0  0
   64.2439   32.6752   27.1273 C   0  0  0  0  0  0  0  0  0  0  0  0
   63.8311   34.9376   23.5148 C   0  0  0  0  0  0  0  0  0  0  0  0
   67.6911   33.5374   26.4394 C   0  0  0  0  0  0  0  0  0  0  0  0
   62.7443   34.9896   22.9488 O   0  0  0  0  0  0  0  0  0  0  0  0
   64.9340   35.6534   23.1546 O   0  0  0  0  0  0  0  0  0  0  0  0
   64.3036   31.9546   28.2833 O   0  0  0  0  0  0  0  0  0  0  0  0
   64.6163   36.6352   22.1571 C   0  0  0  0  0  0  0  0  0  0  0  0
   61.8830   33.9604   25.0633 H   0  0  0  0  0  0  0  0  0  0  0  0
   66.1135   34.1917   24.7041 H   0  0  0  0  0  0  0  0  0  0  0  0
   62.0947   32.6613   27.1595 H   0  0  0  0  0  0  0  0  0  0  0  0
   68.6330   33.2546   26.9108 H   0  0  0  0  0  0  0  0  0  0  0  0
   67.5226   34.6083   26.6083 H   0  0  0  0  0  0  0  0  0  0  0  0
   67.8026   33.3191   25.3708 H   0  0  0  0  0  0  0  0  0  0  0  0
   65.2473   31.8107   28.4858 H   0  0  0  0  0  0  0  0  0  0  0  0
   65.5284   37.1390   21.8233 H   0  0  0  0  0  0  0  0  0  0  0  0
   63.9561   37.3844   22.6053 H   0  0  0  0  0  0  0  0  0  0  0  0
   64.1360   36.1826   21.2819 H   0  0  0  0  0  0  0  0  0  0  0  0
  1  2  2  0  0  0  0
  1  3  1  0  0  0  0
  1  8  1  0  0  0  0
  2  4  1  0  0  0  0
  2 14  1  0  0  0  0
  3  5  2  0  0  0  0
  3 15  1  0  0  0  0
  4  7  2  0  0  0  0
  4 16  1  0  0  0  0
  5  6  1  0  0  0  0
  5  7  1  0  0  0  0
  6  9  1  0  0  0  0
  7 12  1  0  0  0  0
  8 10  2  0  0  0  0
  8 11  1  0  0  0  0
  9 17  1  0  0  0  0
  9 18  1  0  0  0  0
  9 19  1  0  0  0  0
 11 13  1  0  0  0  0
 12 20  1  0  0  0  0
 13 21  1  0  0  0  0
 13 22  1  0  0  0  0
 13 23  1  0  0  0  0
M  END
$$$$
