4EFT_EFT_A_301
 OpenBabel03301717283D

 39 41  0  0  1  0  0  0  0  0999 V2000
   65.1716   34.2210   24.1738 C   0  0  0  0  0  0  0  0  0  0  0  0
   64.0519   33.9667   24.9552 C   0  0  0  0  0  0  0  0  0  0  0  0
   64.1217   33.4011   26.2304 C   0  0  0  0  0  0  0  0  0  0  0  0
   66.4285   33.8943   24.6683 C   0  0  0  0  0  0  0  0  0  0  0  0
   65.8213   32.5100   27.8812 N   0  3  0  0  0  0  0  0  0  0  0  0
   67.1857   32.3847   27.9235 N   0  0  0  0  0  0  0  0  0  0  0  0
   67.6184   32.8474   26.7291 C   0  0  0  0  0  0  0  0  0  0  0  0
   66.5342   33.3041   25.9428 C   0  0  0  0  0  0  0  0  0  0  0  0
   65.3916   33.0725   26.7025 C   0  0  0  0  0  0  0  0  0  0  0  0
   69.1023   32.8970   26.3491 C   0  0  1  0  0  0  0  0  0  0  0  0
   69.4182   32.2288   25.0096 C   0  0  0  0  0  0  0  0  0  0  0  0
   69.5160   34.3003   26.3107 C   0  0  0  0  0  0  0  0  0  0  0  0
   69.8424   35.4328   26.2913 N   0  0  0  0  0  0  0  0  0  0  0  0
   62.8324   34.2657   24.4130 O   0  0  0  0  0  0  0  0  0  0  0  0
   70.6763   31.3428   25.0210 C   0  0  0  0  0  0  0  0  0  0  0  0
   70.7398   30.6587   23.6515 C   0  0  0  0  0  0  0  0  0  0  0  0
   71.9448   29.7476   23.5173 C   0  0  0  0  0  0  0  0  0  0  0  0
   73.2396   30.5006   23.7936 C   0  0  0  0  0  0  0  0  0  0  0  0
   73.1882   31.1931   25.1532 C   0  0  0  0  0  0  0  0  0  0  0  0
   71.9737   32.1186   25.2571 C   0  0  0  0  0  0  0  0  0  0  0  0
   65.0805   34.6600   23.1827 H   0  0  0  0  0  0  0  0  0  0  0  0
   63.2198   33.2280   26.8005 H   0  0  0  0  0  0  0  0  0  0  0  0
   67.3104   34.0983   24.0653 H   0  0  0  0  0  0  0  0  0  0  0  0
   65.2361   32.2012   28.6722 H   0  0  0  0  0  0  0  0  0  0  0  0
   69.6777   32.3609   27.1081 H   0  0  0  0  0  0  0  0  0  0  0  0
   69.5613   32.9934   24.2345 H   0  0  0  0  0  0  0  0  0  0  0  0
   68.5673   31.5994   24.7187 H   0  0  0  0  0  0  0  0  0  0  0  0
   62.1085   34.0169   25.0163 H   0  0  0  0  0  0  0  0  0  0  0  0
   70.5893   30.6099   25.8381 H   0  0  0  0  0  0  0  0  0  0  0  0
   70.7956   31.4382   22.8744 H   0  0  0  0  0  0  0  0  0  0  0  0
   69.8217   30.0832   23.4858 H   0  0  0  0  0  0  0  0  0  0  0  0
   71.9687   29.3240   22.5058 H   0  0  0  0  0  0  0  0  0  0  0  0
   71.8454   28.9224   24.2335 H   0  0  0  0  0  0  0  0  0  0  0  0
   73.3943   31.2550   23.0089 H   0  0  0  0  0  0  0  0  0  0  0  0
   74.0849   29.8010   23.7615 H   0  0  0  0  0  0  0  0  0  0  0  0
   74.1082   31.7704   25.3087 H   0  0  0  0  0  0  0  0  0  0  0  0
   73.1295   30.4291   25.9422 H   0  0  0  0  0  0  0  0  0  0  0  0
   71.9509   32.5846   26.2490 H   0  0  0  0  0  0  0  0  0  0  0  0
   72.0624   32.9144   24.5058 H   0  0  0  0  0  0  0  0  0  0  0  0
  1  2  1  0  0  0  0
  1  4  2  0  0  0  0
  1 21  1  0  0  0  0
  2  3  2  0  0  0  0
  2 14  1  0  0  0  0
  3  9  1  0  0  0  0
  3 22  1  0  0  0  0
  4  8  1  0  0  0  0
  4 23  1  0  0  0  0
  5  6  1  0  0  0  0
  5  9  2  0  0  0  0
  5 24  1  0  0  0  0
  6  7  1  0  0  0  0
  7  8  2  0  0  0  0
  7 10  1  0  0  0  0
  8  9  1  0  0  0  0
 10 11  1  0  0  0  0
 10 12  1  0  0  0  0
 10 25  1  1  0  0  0
 11 15  1  0  0  0  0
 11 26  1  0  0  0  0
 11 27  1  0  0  0  0
 12 13  3  0  0  0  0
 14 28  1  0  0  0  0
 15 16  1  0  0  0  0
 15 20  1  0  0  0  0
 15 29  1  0  0  0  0
 16 17  1  0  0  0  0
 16 30  1  0  0  0  0
 16 31  1  0  0  0  0
 17 18  1  0  0  0  0
 17 32  1  0  0  0  0
 17 33  1  0  0  0  0
 18 19  1  0  0  0  0
 18 34  1  0  0  0  0
 18 35  1  0  0  0  0
 19 20  1  0  0  0  0
 19 36  1  0  0  0  0
 19 37  1  0  0  0  0
 20 38  1  0  0  0  0
 20 39  1  0  0  0  0
M  CHG  1   5   1
M  END
$$$$
