2WI6_ZZ6_A_1224
 OpenBabel03301717053D

 35 37  0  0  0  0  0  0  0  0999 V2000
   32.9220   13.3289   24.5808 Cl  0  0  0  0  0  0  0  0  0  0  0  0
   33.8796   11.9123   24.2279 C   0  0  0  0  0  0  0  0  0  0  0  0
   35.2048   12.1189   23.7603 C   0  0  0  0  0  0  0  0  0  0  0  0
   36.0176   11.0146   23.4716 C   0  0  0  0  0  0  0  0  0  0  0  0
   37.6313   11.2426   22.8958 Cl  0  0  0  0  0  0  0  0  0  0  0  0
   35.5281    9.7222   23.6476 C   0  0  0  0  0  0  0  0  0  0  0  0
   34.2175    9.5069   24.1156 C   0  0  0  0  0  0  0  0  0  0  0  0
   33.3616   10.6011   24.4273 C   0  0  0  0  0  0  0  0  0  0  0  0
   32.0018   10.3286   24.9383 C   0  0  0  0  0  0  0  0  0  0  0  0
   30.9395   10.8730   24.2544 N   0  0  0  0  0  0  0  0  0  0  0  0
   29.6881   10.6811   24.6961 C   0  0  0  0  0  0  0  0  0  0  0  0
   28.6634   11.2726   23.9574 N   0  0  0  0  0  0  0  0  0  0  0  0
   29.3518    9.9694   25.7694 N   0  0  0  0  0  0  0  0  0  0  0  0
   30.4180    9.4268   26.4269 C   0  0  0  0  0  0  0  0  0  0  0  0
   30.1882    8.4814   27.8293 S   0  0  0  0  0  0  0  0  0  0  0  0
   31.7513    9.5465   26.0874 C   0  0  0  0  0  0  0  0  0  0  0  0
   32.6143    8.8231   27.0379 C   0  0  0  0  0  0  0  0  0  0  0  0
   31.8673    8.2023   28.0479 C   0  0  0  0  0  0  0  0  0  0  0  0
   32.3034    7.3775   29.1812 C   0  0  0  0  0  0  0  0  0  0  0  0
   33.4741    7.0018   29.3079 O   0  0  0  0  0  0  0  0  0  0  0  0
   31.3511    7.0208   30.0996 N   0  0  0  0  0  0  0  0  0  0  0  0
   31.6370    6.0815   31.1624 C   0  0  0  0  0  0  0  0  0  0  0  0
   31.6119    6.7475   32.5142 C   0  0  0  0  0  0  0  0  0  0  0  0
   35.6024   13.1221   23.6175 H   0  0  0  0  0  0  0  0  0  0  0  0
   36.1568    8.8618   23.4231 H   0  0  0  0  0  0  0  0  0  0  0  0
   33.8627    8.4764   24.2396 H   0  0  0  0  0  0  0  0  0  0  0  0
   27.7180   11.1436   24.2646 H   0  0  0  0  0  0  0  0  0  0  0  0
   28.8977   11.8154   23.1456 H   0  0  0  0  0  0  0  0  0  0  0  0
   33.7005    8.7912   26.9554 H   0  0  0  0  0  0  0  0  0  0  0  0
   30.4344    7.4295   30.0166 H   0  0  0  0  0  0  0  0  0  0  0  0
   32.6169    5.6270   31.0043 H   0  0  0  0  0  0  0  0  0  0  0  0
   30.8766    5.2946   31.1290 H   0  0  0  0  0  0  0  0  0  0  0  0
   32.3647    7.5403   32.5594 H   0  0  0  0  0  0  0  0  0  0  0  0
   31.8266    6.0106   33.2948 H   0  0  0  0  0  0  0  0  0  0  0  0
   30.6269    7.1851   32.7040 H   0  0  0  0  0  0  0  0  0  0  0  0
  1  2  1  0  0  0  0
  2  3  2  0  0  0  0
  2  8  1  0  0  0  0
  3  4  1  0  0  0  0
  3 24  1  0  0  0  0
  4  5  1  0  0  0  0
  4  6  2  0  0  0  0
  6  7  1  0  0  0  0
  6 25  1  0  0  0  0
  7  8  2  0  0  0  0
  7 26  1  0  0  0  0
  8  9  1  0  0  0  0
  9 10  2  0  0  0  0
  9 16  1  0  0  0  0
 10 11  1  0  0  0  0
 11 12  1  0  0  0  0
 11 13  2  0  0  0  0
 12 27  1  0  0  0  0
 12 28  1  0  0  0  0
 13 14  1  0  0  0  0
 14 15  1  0  0  0  0
 14 16  2  0  0  0  0
 15 18  1  0  0  0  0
 16 17  1  0  0  0  0
 17 18  2  0  0  0  0
 17 29  1  0  0  0  0
 18 19  1  0  0  0  0
 19 20  2  0  0  0  0
 19 21  1  0  0  0  0
 21 22  1  0  0  0  0
 21 30  1  0  0  0  0
 22 23  1  0  0  0  0
 22 31  1  0  0  0  0
 22 32  1  0  0  0  0
 23 33  1  0  0  0  0
 23 34  1  0  0  0  0
 23 35  1  0  0  0  0
M  END
$$$$
