2BYI_2DD_A_1226
 OpenBabel03301717003D

 43 45  0  0  0  0  0  0  0  0999 V2000
    7.1650    0.0645   10.6193 Cl  0  0  0  0  0  0  0  0  0  0  0  0
    7.1295    1.7311   11.0634 C   0  0  0  0  0  0  0  0  0  0  0  0
    8.2949    2.4943   11.1432 C   0  0  0  0  0  0  0  0  0  0  0  0
    8.2299    3.8431   11.4971 C   0  0  0  0  0  0  0  0  0  0  0  0
    6.9910    4.4329   11.7494 C   0  0  0  0  0  0  0  0  0  0  0  0
    7.0059    5.7629   12.0708 O   0  0  0  0  0  0  0  0  0  0  0  0
    9.4990    1.9097   10.8679 O   0  0  0  0  0  0  0  0  0  0  0  0
    5.8963    2.3254   11.3229 C   0  0  0  0  0  0  0  0  0  0  0  0
    5.8107    3.6883   11.6434 C   0  0  0  0  0  0  0  0  0  0  0  0
    4.4915    4.2932   11.7558 C   0  0  0  0  0  0  0  0  0  0  0  0
    4.0723    4.9828   12.8679 N   0  3  0  0  0  0  0  0  0  0  0  0
    2.8312    5.4711   12.7689 N   0  0  0  0  0  0  0  0  0  0  0  0
    2.4048    5.0092   11.5916 C   0  0  0  0  0  0  0  0  0  0  0  0
    3.4005    4.2839   10.8952 C   0  0  0  0  0  0  0  0  0  0  0  0
    3.2269    3.6991    9.5832 C   0  0  0  0  0  0  0  0  0  0  0  0
    2.1050    3.3999    9.1771 O   0  0  0  0  0  0  0  0  0  0  0  0
    4.3575    3.5359    8.8208 N   0  0  0  0  0  0  0  0  0  0  0  0
    4.2520    3.0759    7.4524 C   0  0  0  0  0  0  0  0  0  0  0  0
    4.3350    1.5830    7.2786 C   0  0  0  0  0  0  0  0  0  0  0  0
    4.1710    0.6631    8.3267 C   0  0  0  0  0  0  0  0  0  0  0  0
    4.2195   -0.7131    8.1039 C   0  0  0  0  0  0  0  0  0  0  0  0
    4.5116    1.0775    5.9818 C   0  0  0  0  0  0  0  0  0  0  0  0
    4.5506   -0.2924    5.7412 C   0  0  0  0  0  0  0  0  0  0  0  0
    4.3974   -1.1872    6.8043 C   0  0  0  0  0  0  0  0  0  0  0  0
    4.4378   -2.9122    6.4250 S   0  0  0  0  0  0  0  0  0  0  0  0
    5.7164   -3.2008    5.8168 O   0  0  0  0  0  0  0  0  0  0  0  0
    3.1873   -3.2671    5.8008 O   0  0  0  0  0  0  0  0  0  0  0  0
    4.4808   -3.6917    7.9171 N   0  0  0  0  0  0  0  0  0  0  0  0
    9.1266    4.4526   11.5601 H   0  0  0  0  0  0  0  0  0  0  0  0
    6.1048    6.1274   12.0619 H   0  0  0  0  0  0  0  0  0  0  0  0
   10.2102    2.5670   10.9337 H   0  0  0  0  0  0  0  0  0  0  0  0
    4.9903    1.7288   11.2452 H   0  0  0  0  0  0  0  0  0  0  0  0
    4.5997    5.1825   13.7134 H   0  0  0  0  0  0  0  0  0  0  0  0
    1.4009    5.2291   11.2586 H   0  0  0  0  0  0  0  0  0  0  0  0
    5.2730    3.7705    9.1695 H   0  0  0  0  0  0  0  0  0  0  0  0
    5.0716    3.5524    6.9028 H   0  0  0  0  0  0  0  0  0  0  0  0
    3.3068    3.4326    7.0284 H   0  0  0  0  0  0  0  0  0  0  0  0
    3.9879    1.0077    9.3437 H   0  0  0  0  0  0  0  0  0  0  0  0
    4.0932   -1.3915    8.9442 H   0  0  0  0  0  0  0  0  0  0  0  0
    4.5958    1.7645    5.1383 H   0  0  0  0  0  0  0  0  0  0  0  0
    4.6790   -0.6577    4.7246 H   0  0  0  0  0  0  0  0  0  0  0  0
    5.3408   -3.4666    8.4165 H   0  0  0  0  0  0  0  0  0  0  0  0
    4.4158   -4.6971    7.7458 H   0  0  0  0  0  0  0  0  0  0  0  0
  1  2  1  0  0  0  0
  2  3  2  0  0  0  0
  2  8  1  0  0  0  0
  3  4  1  0  0  0  0
  3  7  1  0  0  0  0
  4  5  2  0  0  0  0
  4 29  1  0  0  0  0
  5  6  1  0  0  0  0
  5  9  1  0  0  0  0
  6 30  1  0  0  0  0
  7 31  1  0  0  0  0
  8  9  2  0  0  0  0
  8 32  1  0  0  0  0
  9 10  1  0  0  0  0
 10 11  2  0  0  0  0
 10 14  1  0  0  0  0
 11 12  1  0  0  0  0
 11 33  1  0  0  0  0
 12 13  1  0  0  0  0
 13 14  2  0  0  0  0
 13 34  1  0  0  0  0
 14 15  1  0  0  0  0
 15 16  2  0  0  0  0
 15 17  1  0  0  0  0
 17 18  1  0  0  0  0
 17 35  1  0  0  0  0
 18 19  1  0  0  0  0
 18 36  1  0  0  0  0
 18 37  1  0  0  0  0
 19 20  2  0  0  0  0
 19 22  1  0  0  0  0
 20 21  1  0  0  0  0
 20 38  1  0  0  0  0
 21 24  2  0  0  0  0
 21 39  1  0  0  0  0
 22 23  2  0  0  0  0
 22 40  1  0  0  0  0
 23 24  1  0  0  0  0
 23 41  1  0  0  0  0
 24 25  1  0  0  0  0
 25 26  2  0  0  0  0
 25 27  2  0  0  0  0
 25 28  1  0  0  0  0
 28 42  1  0  0  0  0
 28 43  1  0  0  0  0
M  CHG  1  11   1
M  END
$$$$
