2YKC_YKC_A_1224
 OpenBabel03301717133D

 48 53  0  0  1  0  0  0  0  0999 V2000
    8.0120   10.2694   23.4807 C   0  0  0  0  0  0  0  0  0  0  0  0
    6.8426    9.7009   22.9617 C   0  0  0  0  0  0  0  0  0  0  0  0
    5.6177   10.3314   23.1499 C   0  0  0  0  0  0  0  0  0  0  0  0
    7.9702   11.4694   24.2083 C   0  0  0  0  0  0  0  0  0  0  0  0
    6.7573   12.1243   24.3919 C   0  0  0  0  0  0  0  0  0  0  0  0
    5.5871   11.5331   23.8541 C   0  0  0  0  0  0  0  0  0  0  0  0
    4.3929   12.4401   24.0634 C   0  0  2  0  0  0  0  0  0  0  0  0
    6.3884   13.3781   25.0640 C   0  0  0  0  0  0  0  0  0  0  0  0
    4.9863   13.5568   24.9058 C   0  0  0  0  0  0  0  0  0  0  0  0
    4.2910   14.6280   25.4642 C   0  0  0  0  0  0  0  0  0  0  0  0
    4.9958   15.5551   26.2204 C   0  0  0  0  0  0  0  0  0  0  0  0
    6.3739   15.4004   26.3924 C   0  0  0  0  0  0  0  0  0  0  0  0
    7.0919   14.3250   25.8127 C   0  0  0  0  0  0  0  0  0  0  0  0
    8.5181   14.2943   26.0967 C   0  0  0  0  0  0  0  0  0  0  0  0
    9.4979   14.1961   25.1388 N   0  3  0  0  0  0  0  0  0  0  0  0
    9.0538   14.5002   27.2854 N   0  0  0  0  0  0  0  0  0  0  0  0
   10.4121   14.4892   27.0973 C   0  0  0  0  0  0  0  0  0  0  0  0
   10.7174   14.2819   25.7581 C   0  0  0  0  0  0  0  0  0  0  0  0
   12.0233   14.2214   25.2879 C   0  0  0  0  0  0  0  0  0  0  0  0
   12.9883   14.4210   26.2670 C   0  0  0  0  0  0  0  0  0  0  0  0
   12.7436   14.6279   27.5843 N   0  0  0  0  0  0  0  0  0  0  0  0
   11.4531   14.6536   28.0109 C   0  0  0  0  0  0  0  0  0  0  0  0
    3.2752   11.8086   24.7277 N   0  0  0  0  0  0  0  0  0  0  0  0
    2.0998   11.6257   24.0334 C   0  0  0  0  0  0  0  0  0  0  0  0
    0.8911   11.2600   24.8071 C   0  0  0  0  0  0  0  0  0  0  0  0
    2.0018   11.8039   22.8230 O   0  0  0  0  0  0  0  0  0  0  0  0
   -0.3534   11.6241   24.2834 C   0  0  0  0  0  0  0  0  0  0  0  0
   -1.4870   11.2880   24.9925 C   0  0  0  0  0  0  0  0  0  0  0  0
    0.9521   10.5638   26.0047 C   0  0  0  0  0  0  0  0  0  0  0  0
   -1.4569   10.6140   26.1631 N   0  0  0  0  0  0  0  0  0  0  0  0
   -0.2439   10.2587   26.6383 C   0  0  0  0  0  0  0  0  0  0  0  0
    8.9646    9.7679   23.3202 H   0  0  0  0  0  0  0  0  0  0  0  0
    6.8954    8.7685   22.4028 H   0  0  0  0  0  0  0  0  0  0  0  0
    4.7063    9.9056   22.7352 H   0  0  0  0  0  0  0  0  0  0  0  0
    8.9030   11.8385   24.6094 H   0  0  0  0  0  0  0  0  0  0  0  0
    4.1034   12.8518   23.0896 H   0  0  0  0  0  0  0  0  0  0  0  0
    3.2180   14.7369   25.3273 H   0  0  0  0  0  0  0  0  0  0  0  0
    4.4839   16.3928   26.6879 H   0  0  0  0  0  0  0  0  0  0  0  0
    6.9064   16.1306   27.0026 H   0  0  0  0  0  0  0  0  0  0  0  0
    9.3355   14.0787   24.1491 H   0  0  0  0  0  0  0  0  0  0  0  0
   12.2755   14.0510   24.2507 H   0  0  0  0  0  0  0  0  0  0  0  0
   14.0429   14.4281   25.9993 H   0  0  0  0  0  0  0  0  0  0  0  0
   11.2808   14.8169   29.0678 H   0  0  0  0  0  0  0  0  0  0  0  0
    3.3000   11.7668   25.7356 H   0  0  0  0  0  0  0  0  0  0  0  0
   -0.4293   12.1640   23.3435 H   0  0  0  0  0  0  0  0  0  0  0  0
   -2.4752   11.5596   24.6353 H   0  0  0  0  0  0  0  0  0  0  0  0
    1.8859   10.2213   26.4395 H   0  0  0  0  0  0  0  0  0  0  0  0
   -0.2616    9.7045   27.5734 H   0  0  0  0  0  0  0  0  0  0  0  0
  1  2  2  0  0  0  0
  1  4  1  0  0  0  0
  1 32  1  0  0  0  0
  2  3  1  0  0  0  0
  2 33  1  0  0  0  0
  3  6  2  0  0  0  0
  3 34  1  0  0  0  0
  4  5  2  0  0  0  0
  4 35  1  0  0  0  0
  5  6  1  0  0  0  0
  5  8  1  0  0  0  0
  6  7  1  0  0  0  0
  7  9  1  0  0  0  0
  7 23  1  0  0  0  0
  7 36  1  6  0  0  0
  8  9  2  0  0  0  0
  8 13  1  0  0  0  0
  9 10  1  0  0  0  0
 10 11  2  0  0  0  0
 10 37  1  0  0  0  0
 11 12  1  0  0  0  0
 11 38  1  0  0  0  0
 12 13  2  0  0  0  0
 12 39  1  0  0  0  0
 13 14  1  0  0  0  0
 14 15  2  0  0  0  0
 14 16  1  0  0  0  0
 15 18  1  0  0  0  0
 15 40  1  0  0  0  0
 16 17  1  0  0  0  0
 17 18  2  0  0  0  0
 17 22  1  0  0  0  0
 18 19  1  0  0  0  0
 19 20  2  0  0  0  0
 19 41  1  0  0  0  0
 20 21  1  0  0  0  0
 20 42  1  0  0  0  0
 21 22  2  0  0  0  0
 22 43  1  0  0  0  0
 23 24  1  0  0  0  0
 23 44  1  0  0  0  0
 24 25  1  0  0  0  0
 24 26  2  0  0  0  0
 25 27  2  0  0  0  0
 25 29  1  0  0  0  0
 27 28  1  0  0  0  0
 27 45  1  0  0  0  0
 28 30  2  0  0  0  0
 28 46  1  0  0  0  0
 29 31  2  0  0  0  0
 29 47  1  0  0  0  0
 30 31  1  0  0  0  0
 31 48  1  0  0  0  0
M  CHG  1  15   1
M  END
$$$$
