2XDL_2DL_A_1225
 OpenBabel03301717053D

 33 33  0  0  0  0  0  0  0  0999 V2000
   64.9896   33.1434   27.7073 C   0  0  0  0  0  0  0  0  0  0  0  0
   66.0977   33.4588   26.9104 C   0  0  0  0  0  0  0  0  0  0  0  0
   65.8926   34.1536   25.7197 C   0  0  0  0  0  0  0  0  0  0  0  0
   64.6051   34.5578   25.3356 C   0  0  0  0  0  0  0  0  0  0  0  0
   63.5123   34.2625   26.1480 C   0  0  0  0  0  0  0  0  0  0  0  0
   63.7054   33.5503   27.3391 C   0  0  0  0  0  0  0  0  0  0  0  0
   65.2081   32.4605   28.8785 O   0  0  0  0  0  0  0  0  0  0  0  0
   65.1114   38.5462   25.2585 C   0  0  0  0  0  0  0  0  0  0  0  0
   65.7392   37.1907   25.0702 C   0  0  0  0  0  0  0  0  0  0  0  0
   65.2700   37.1424   22.6166 C   0  0  0  0  0  0  0  0  0  0  0  0
   66.7072   37.4126   22.2219 C   0  0  0  0  0  0  0  0  0  0  0  0
   64.4471   35.3253   24.0740 C   0  0  0  0  0  0  0  0  0  0  0  0
   63.6912   34.8636   23.2058 O   0  0  0  0  0  0  0  0  0  0  0  0
   67.3295   33.0251   27.3230 O   0  0  0  0  0  0  0  0  0  0  0  0
   65.1881   36.4800   23.9180 N   0  0  0  0  0  0  0  0  0  0  0  0
   68.4337   33.8578   26.9827 C   0  0  0  0  0  0  0  0  0  0  0  0
   66.7289   34.4113   25.0846 H   0  0  0  0  0  0  0  0  0  0  0  0
   62.5151   34.5829   25.8609 H   0  0  0  0  0  0  0  0  0  0  0  0
   62.8484   33.3178   27.9602 H   0  0  0  0  0  0  0  0  0  0  0  0
   64.3886   32.3096   29.3689 H   0  0  0  0  0  0  0  0  0  0  0  0
   65.5547   39.0422   26.1241 H   0  0  0  0  0  0  0  0  0  0  0  0
   64.0320   38.4506   25.4087 H   0  0  0  0  0  0  0  0  0  0  0  0
   65.2879   39.1756   24.3807 H   0  0  0  0  0  0  0  0  0  0  0  0
   65.5690   36.6227   25.9791 H   0  0  0  0  0  0  0  0  0  0  0  0
   66.8143   37.2907   24.9303 H   0  0  0  0  0  0  0  0  0  0  0  0
   64.7990   36.5281   21.8422 H   0  0  0  0  0  0  0  0  0  0  0  0
   64.7264   38.0895   22.6676 H   0  0  0  0  0  0  0  0  0  0  0  0
   67.2623   36.4714   22.1543 H   0  0  0  0  0  0  0  0  0  0  0  0
   67.1990   38.0514   22.9625 H   0  0  0  0  0  0  0  0  0  0  0  0
   66.7479   37.9223   21.2559 H   0  0  0  0  0  0  0  0  0  0  0  0
   69.3504   33.4095   27.3829 H   0  0  0  0  0  0  0  0  0  0  0  0
   68.3204   34.8539   27.4253 H   0  0  0  0  0  0  0  0  0  0  0  0
   68.5585   33.9434   25.8993 H   0  0  0  0  0  0  0  0  0  0  0  0
  1  2  2  0  0  0  0
  1  6  1  0  0  0  0
  1  7  1  0  0  0  0
  2  3  1  0  0  0  0
  2 14  1  0  0  0  0
  3  4  2  0  0  0  0
  3 17  1  0  0  0  0
  4  5  1  0  0  0  0
  4 12  1  0  0  0  0
  5  6  2  0  0  0  0
  5 18  1  0  0  0  0
  6 19  1  0  0  0  0
  7 20  1  0  0  0  0
  8  9  1  0  0  0  0
  8 21  1  0  0  0  0
  8 22  1  0  0  0  0
  8 23  1  0  0  0  0
  9 15  1  0  0  0  0
  9 24  1  0  0  0  0
  9 25  1  0  0  0  0
 10 11  1  0  0  0  0
 10 15  1  0  0  0  0
 10 26  1  0  0  0  0
 10 27  1  0  0  0  0
 11 28  1  0  0  0  0
 11 29  1  0  0  0  0
 11 30  1  0  0  0  0
 12 13  2  0  0  0  0
 12 15  1  0  0  0  0
 14 16  1  0  0  0  0
 16 31  1  0  0  0  0
 16 32  1  0  0  0  0
 16 33  1  0  0  0  0
M  END
$$$$
