017
 OpenBabel04161910573D

 73 76  0  0  1  0  0  0  0  0999 V2000
  -10.3083   -7.9585  -17.8792 N   0  0  0  0  0  0  0  0  0  0  0  0
   -9.6031   -6.9932  -17.1580 C   0  0  0  0  0  0  0  0  0  0  0  0
   -8.4778   -7.3574  -16.4473 C   0  0  0  0  0  0  0  0  0  0  0  0
   -7.7401   -6.3929  -15.7265 C   0  0  0  0  0  0  0  0  0  0  0  0
   -8.1163   -5.0585  -15.7432 C   0  0  0  0  0  0  0  0  0  0  0  0
   -9.2640   -4.6785  -16.4444 C   0  0  0  0  0  0  0  0  0  0  0  0
  -10.0013   -5.6517  -17.1577 C   0  0  0  0  0  0  0  0  0  0  0  0
   -7.1544   -3.9148  -14.7486 S   0  0  0  0  0  0  0  0  0  0  0  0
   -8.0165   -2.8265  -14.3471 O   0  0  0  0  0  0  0  0  0  0  0  0
   -6.4469   -4.7009  -13.7588 O   0  0  0  0  0  0  0  0  0  0  0  0
   -5.9836   -3.2975  -15.8144 N   0  0  0  0  0  0  0  0  0  0  0  0
   -5.1120   -4.2622  -16.5253 C   0  0  0  0  0  0  0  0  0  0  0  0
   -3.6216   -3.8929  -16.5113 C   0  0  0  0  0  0  0  0  0  0  0  0
   -3.0582   -3.9568  -15.0948 C   0  0  0  0  0  0  0  0  0  0  0  0
   -2.8566   -4.8811  -17.3939 C   0  0  0  0  0  0  0  0  0  0  0  0
   -6.2692   -2.0137  -16.4836 C   0  0  0  0  0  0  0  0  0  0  0  0
   -5.3763   -0.9024  -15.9180 C   0  0  1  0  0  0  0  0  0  0  0  0
   -5.2886    0.1823  -16.8616 O   0  0  0  0  0  0  0  0  0  0  0  0
   -5.8097   -0.3760  -14.5419 C   0  0  1  0  0  0  0  0  0  0  0  0
   -4.7627    0.5433  -14.0809 N   0  0  0  0  0  0  0  0  0  0  0  0
   -3.8818    0.2547  -13.1097 C   0  0  0  0  0  0  0  0  0  0  0  0
   -3.8847   -0.8083  -12.4873 O   0  0  0  0  0  0  0  0  0  0  0  0
   -3.0227    1.2703  -12.9172 O   0  0  0  0  0  0  0  0  0  0  0  0
   -2.1922    1.2241  -11.7486 C   0  0  1  0  0  0  0  0  0  0  0  0
   -0.8588    1.8468  -12.1307 C   0  0  0  0  0  0  0  0  0  0  0  0
   -1.0424    3.2638  -12.0376 O   0  0  0  0  0  0  0  0  0  0  0  0
   -2.0701    3.5019  -11.0601 C   0  0  1  0  0  0  0  0  0  0  0  0
   -3.1113    4.3397  -11.6247 O   0  0  0  0  0  0  0  0  0  0  0  0
   -4.2803    3.6308  -11.4116 C   0  0  0  0  0  0  0  0  0  0  0  0
   -4.1611    2.5210  -10.7025 C   0  0  0  0  0  0  0  0  0  0  0  0
   -2.6970    2.1882  -10.6560 C   0  0  1  0  0  0  0  0  0  0  0  0
   -7.1468    0.3733  -14.5440 C   0  0  0  0  0  0  0  0  0  0  0  0
   -7.4492    2.2041  -12.9024 C   0  0  0  0  0  0  0  0  0  0  0  0
   -7.6968    2.7097  -11.6346 C   0  0  0  0  0  0  0  0  0  0  0  0
   -7.9902    1.8459  -10.5857 C   0  0  0  0  0  0  0  0  0  0  0  0
   -8.0391    0.4703  -10.8096 C   0  0  0  0  0  0  0  0  0  0  0  0
   -7.7953   -0.0426  -12.0882 C   0  0  0  0  0  0  0  0  0  0  0  0
   -7.5027    0.8290  -13.1472 C   0  0  0  0  0  0  0  0  0  0  0  0
  -10.0206   -8.9278  -17.8455 H   0  0  0  0  0  0  0  0  0  0  0  0
  -11.1512   -7.7308  -18.3848 H   0  0  0  0  0  0  0  0  0  0  0  0
   -8.1474   -8.3917  -16.4278 H   0  0  0  0  0  0  0  0  0  0  0  0
   -6.8669   -6.7270  -15.1741 H   0  0  0  0  0  0  0  0  0  0  0  0
   -9.6012   -3.6443  -16.4472 H   0  0  0  0  0  0  0  0  0  0  0  0
  -10.8842   -5.3493  -17.7163 H   0  0  0  0  0  0  0  0  0  0  0  0
   -5.4588   -4.3678  -17.5595 H   0  0  0  0  0  0  0  0  0  0  0  0
   -5.2021   -5.2449  -16.0539 H   0  0  0  0  0  0  0  0  0  0  0  0
   -3.4627   -2.8896  -16.9199 H   0  0  0  0  0  0  0  0  0  0  0  0
   -1.9928   -3.7030  -15.0851 H   0  0  0  0  0  0  0  0  0  0  0  0
   -3.1681   -4.9659  -14.6817 H   0  0  0  0  0  0  0  0  0  0  0  0
   -3.5820   -3.2584  -14.4380 H   0  0  0  0  0  0  0  0  0  0  0  0
   -3.2288   -4.8442  -18.4226 H   0  0  0  0  0  0  0  0  0  0  0  0
   -2.9782   -5.9051  -17.0236 H   0  0  0  0  0  0  0  0  0  0  0  0
   -1.7864   -4.6500  -17.4100 H   0  0  0  0  0  0  0  0  0  0  0  0
   -7.3179   -1.7339  -16.3617 H   0  0  0  0  0  0  0  0  0  0  0  0
   -6.1281   -2.0909  -17.5677 H   0  0  0  0  0  0  0  0  0  0  0  0
   -4.3526   -1.2782  -15.8106 H   0  0  0  0  0  0  0  0  0  0  0  0
   -6.1800    0.5463  -16.9872 H   0  0  0  0  0  0  0  0  0  0  0  0
   -5.8775   -1.2205  -13.8412 H   0  0  0  0  0  0  0  0  0  0  0  0
   -4.7218    1.4647  -14.4900 H   0  0  0  0  0  0  0  0  0  0  0  0
   -2.0483    0.2090  -11.3649 H   0  0  0  0  0  0  0  0  0  0  0  0
   -0.5423    1.5726  -13.1429 H   0  0  0  0  0  0  0  0  0  0  0  0
   -0.0650    1.5757  -11.4281 H   0  0  0  0  0  0  0  0  0  0  0  0
   -1.6040    3.9484  -10.1686 H   0  0  0  0  0  0  0  0  0  0  0  0
   -5.1653    3.9974  -11.8812 H   0  0  0  0  0  0  0  0  0  0  0  0
   -4.9655    1.8895  -10.3692 H   0  0  0  0  0  0  0  0  0  0  0  0
   -2.3649    1.8958   -9.6623 H   0  0  0  0  0  0  0  0  0  0  0  0
   -7.9724   -0.2059  -14.9682 H   0  0  0  0  0  0  0  0  0  0  0  0
   -7.0613    1.2635  -15.1863 H   0  0  0  0  0  0  0  0  0  0  0  0
   -7.1817    2.8789  -13.7100 H   0  0  0  0  0  0  0  0  0  0  0  0
   -7.6386    3.7802  -11.4707 H   0  0  0  0  0  0  0  0  0  0  0  0
   -8.1757    2.2497   -9.5951 H   0  0  0  0  0  0  0  0  0  0  0  0
   -8.2706   -0.1987   -9.9838 H   0  0  0  0  0  0  0  0  0  0  0  0
   -7.8180   -1.1231  -12.2327 H   0  0  0  0  0  0  0  0  0  0  0  0
  1  2  1  0  0  0  0
  1 39  1  0  0  0  0
  1 40  1  0  0  0  0
  2  3  2  0  0  0  0
  2  7  1  0  0  0  0
  3  4  1  0  0  0  0
  3 41  1  0  0  0  0
  4  5  2  0  0  0  0
  4 42  1  0  0  0  0
  5  6  1  0  0  0  0
  5  8  1  0  0  0  0
  6  7  2  0  0  0  0
  6 43  1  0  0  0  0
  7 44  1  0  0  0  0
  8  9  2  0  0  0  0
  8 10  2  0  0  0  0
  8 11  1  0  0  0  0
 11 12  1  0  0  0  0
 11 16  1  0  0  0  0
 12 13  1  0  0  0  0
 12 45  1  0  0  0  0
 12 46  1  0  0  0  0
 13 14  1  0  0  0  0
 13 15  1  0  0  0  0
 13 47  1  0  0  0  0
 14 48  1  0  0  0  0
 14 49  1  0  0  0  0
 14 50  1  0  0  0  0
 15 51  1  0  0  0  0
 15 52  1  0  0  0  0
 15 53  1  0  0  0  0
 16 17  1  0  0  0  0
 16 54  1  0  0  0  0
 16 55  1  0  0  0  0
 17 18  1  0  0  0  0
 17 19  1  0  0  0  0
 17 56  1  1  0  0  0
 18 57  1  0  0  0  0
 19 20  1  0  0  0  0
 19 32  1  0  0  0  0
 19 58  1  1  0  0  0
 20 21  1  0  0  0  0
 20 59  1  0  0  0  0
 21 22  2  0  0  0  0
 21 23  1  0  0  0  0
 23 24  1  0  0  0  0
 24 25  1  0  0  0  0
 24 31  1  0  0  0  0
 24 60  1  1  0  0  0
 25 26  1  0  0  0  0
 25 61  1  0  0  0  0
 25 62  1  0  0  0  0
 26 27  1  0  0  0  0
 27 28  1  0  0  0  0
 27 31  1  0  0  0  0
 27 63  1  1  0  0  0
 28 29  1  0  0  0  0
 29 30  2  0  0  0  0
 29 64  1  0  0  0  0
 30 31  1  0  0  0  0
 30 65  1  0  0  0  0
 31 66  1  1  0  0  0
 32 38  1  0  0  0  0
 32 67  1  0  0  0  0
 32 68  1  0  0  0  0
 33 34  2  0  0  0  0
 33 38  1  0  0  0  0
 33 69  1  0  0  0  0
 34 35  1  0  0  0  0
 34 70  1  0  0  0  0
 35 36  2  0  0  0  0
 35 71  1  0  0  0  0
 36 37  1  0  0  0  0
 36 72  1  0  0  0  0
 37 38  2  0  0  0  0
 37 73  1  0  0  0  0
M  END
$$$$
