017
 OpenBabel04161910563D

 73 76  0  0  1  0  0  0  0  0999 V2000
  -14.3079    6.6610  -14.8129 N   0  0  0  0  0  0  0  0  0  0  0  0
  -14.6247    7.5653  -15.8097 C   0  0  0  0  0  0  0  0  0  0  0  0
  -15.3045    7.1405  -16.9512 C   0  0  0  0  0  0  0  0  0  0  0  0
  -15.6601    8.0487  -17.9514 C   0  0  0  0  0  0  0  0  0  0  0  0
  -15.3605    9.4081  -17.8072 C   0  0  0  0  0  0  0  0  0  0  0  0
  -14.6693    9.8501  -16.6778 C   0  0  0  0  0  0  0  0  0  0  0  0
  -14.3161    8.9247  -15.6806 C   0  0  0  0  0  0  0  0  0  0  0  0
  -15.7497   10.5134  -19.1556 S   0  0  0  0  0  0  0  0  0  0  0  0
  -14.7366   11.5502  -19.1785 O   0  0  0  0  0  0  0  0  0  0  0  0
  -15.9919    9.6879  -20.3188 O   0  0  0  0  0  0  0  0  0  0  0  0
  -17.2354   11.2211  -18.7290 N   0  0  0  0  0  0  0  0  0  0  0  0
  -18.3686   10.3174  -18.4286 C   0  0  0  0  0  0  0  0  0  0  0  0
  -19.6680   10.6394  -19.1821 C   0  0  0  0  0  0  0  0  0  0  0  0
  -19.4956   10.6211  -20.7008 C   0  0  0  0  0  0  0  0  0  0  0  0
  -20.7033    9.5737  -18.8028 C   0  0  0  0  0  0  0  0  0  0  0  0
  -17.2327   12.5347  -18.0529 C   0  0  0  0  0  0  0  0  0  0  0  0
  -17.7954   13.6121  -18.9971 C   0  0  1  0  0  0  0  0  0  0  0  0
  -18.2474   14.7400  -18.2268 O   0  0  0  0  0  0  0  0  0  0  0  0
  -16.8007   14.0819  -20.0777 C   0  0  1  0  0  0  0  0  0  0  0  0
  -17.5090   15.0165  -20.9502 N   0  0  0  0  0  0  0  0  0  0  0  0
  -17.9399   14.6937  -22.1977 C   0  0  0  0  0  0  0  0  0  0  0  0
  -17.7488   13.6383  -22.7566 O   0  0  0  0  0  0  0  0  0  0  0  0
  -18.6020   15.7445  -22.7247 O   0  0  0  0  0  0  0  0  0  0  0  0
  -18.8548   15.6897  -24.1456 C   0  0  1  0  0  0  0  0  0  0  0  0
  -20.2355   16.2643  -24.3678 C   0  0  0  0  0  0  0  0  0  0  0  0
  -20.0929   17.6882  -24.3522 O   0  0  0  0  0  0  0  0  0  0  0  0
  -18.7501   17.9852  -24.7537 C   0  0  1  0  0  0  0  0  0  0  0  0
  -18.0992   18.8020  -23.7579 O   0  0  0  0  0  0  0  0  0  0  0  0
  -16.9246   18.1399  -23.4847 C   0  0  0  0  0  0  0  0  0  0  0  0
  -16.6948   17.0322  -24.1910 C   0  0  0  0  0  0  0  0  0  0  0  0
  -17.9522   16.6850  -24.8803 C   0  0  1  0  0  0  0  0  0  0  0  0
  -15.5463   14.7636  -19.5074 C   0  0  0  0  0  0  0  0  0  0  0  0
  -14.5663   16.5874  -20.8932 C   0  0  0  0  0  0  0  0  0  0  0  0
  -13.8033   17.0640  -21.9512 C   0  0  0  0  0  0  0  0  0  0  0  0
  -13.0960   16.1744  -22.7544 C   0  0  0  0  0  0  0  0  0  0  0  0
  -13.1501   14.8047  -22.4951 C   0  0  0  0  0  0  0  0  0  0  0  0
  -13.9125   14.3227  -21.4274 C   0  0  0  0  0  0  0  0  0  0  0  0
  -14.6270   15.2179  -20.6179 C   0  0  0  0  0  0  0  0  0  0  0  0
  -14.4933    5.6743  -14.9380 H   0  0  0  0  0  0  0  0  0  0  0  0
  -13.7770    6.9425  -14.0010 H   0  0  0  0  0  0  0  0  0  0  0  0
  -15.5525    6.0900  -17.0813 H   0  0  0  0  0  0  0  0  0  0  0  0
  -16.1623    7.6832  -18.8444 H   0  0  0  0  0  0  0  0  0  0  0  0
  -14.3865   10.8937  -16.5673 H   0  0  0  0  0  0  0  0  0  0  0  0
  -13.7793    9.2723  -14.8010 H   0  0  0  0  0  0  0  0  0  0  0  0
  -18.5575   10.3306  -17.3495 H   0  0  0  0  0  0  0  0  0  0  0  0
  -18.0908    9.2892  -18.6833 H   0  0  0  0  0  0  0  0  0  0  0  0
  -20.0579   11.6189  -18.8777 H   0  0  0  0  0  0  0  0  0  0  0  0
  -20.4463   10.8458  -21.1990 H   0  0  0  0  0  0  0  0  0  0  0  0
  -19.1681    9.6334  -21.0418 H   0  0  0  0  0  0  0  0  0  0  0  0
  -18.7628   11.3592  -21.0354 H   0  0  0  0  0  0  0  0  0  0  0  0
  -20.8752    9.5643  -17.7220 H   0  0  0  0  0  0  0  0  0  0  0  0
  -20.3489    8.5783  -19.0960 H   0  0  0  0  0  0  0  0  0  0  0  0
  -21.6608    9.7496  -19.3025 H   0  0  0  0  0  0  0  0  0  0  0  0
  -16.2347   12.8140  -17.7055 H   0  0  0  0  0  0  0  0  0  0  0  0
  -17.8295   12.5000  -17.1350 H   0  0  0  0  0  0  0  0  0  0  0  0
  -18.6806   13.2297  -19.5173 H   0  0  0  0  0  0  0  0  0  0  0  0
  -18.9971   14.4353  -17.6855 H   0  0  0  0  0  0  0  0  0  0  0  0
  -16.4986   13.2148  -20.6767 H   0  0  0  0  0  0  0  0  0  0  0  0
  -17.6949   15.9536  -20.6189 H   0  0  0  0  0  0  0  0  0  0  0  0
  -18.7799   14.6694  -24.5439 H   0  0  0  0  0  0  0  0  0  0  0  0
  -20.9523   15.9716  -23.5887 H   0  0  0  0  0  0  0  0  0  0  0  0
  -20.6449   15.9949  -25.3469 H   0  0  0  0  0  0  0  0  0  0  0  0
  -18.7892   18.5065  -25.7214 H   0  0  0  0  0  0  0  0  0  0  0  0
  -16.3396   18.5431  -22.6782 H   0  0  0  0  0  0  0  0  0  0  0  0
  -15.8152   16.4025  -24.1055 H   0  0  0  0  0  0  0  0  0  0  0  0
  -17.8146   16.4147  -25.9347 H   0  0  0  0  0  0  0  0  0  0  0  0
  -14.9843   14.1250  -18.8207 H   0  0  0  0  0  0  0  0  0  0  0  0
  -15.8485   15.6373  -18.9135 H   0  0  0  0  0  0  0  0  0  0  0  0
  -15.1485   17.2824  -20.2941 H   0  0  0  0  0  0  0  0  0  0  0  0
  -13.7868   18.1292  -22.1577 H   0  0  0  0  0  0  0  0  0  0  0  0
  -12.5105   16.5519  -23.5873 H   0  0  0  0  0  0  0  0  0  0  0  0
  -12.6028   14.1130  -23.1307 H   0  0  0  0  0  0  0  0  0  0  0  0
  -13.9588   13.2478  -21.2533 H   0  0  0  0  0  0  0  0  0  0  0  0
  1  2  1  0  0  0  0
  1 39  1  0  0  0  0
  1 40  1  0  0  0  0
  2  3  2  0  0  0  0
  2  7  1  0  0  0  0
  3  4  1  0  0  0  0
  3 41  1  0  0  0  0
  4  5  2  0  0  0  0
  4 42  1  0  0  0  0
  5  6  1  0  0  0  0
  5  8  1  0  0  0  0
  6  7  2  0  0  0  0
  6 43  1  0  0  0  0
  7 44  1  0  0  0  0
  8  9  2  0  0  0  0
  8 10  2  0  0  0  0
  8 11  1  0  0  0  0
 11 12  1  0  0  0  0
 11 16  1  0  0  0  0
 12 13  1  0  0  0  0
 12 45  1  0  0  0  0
 12 46  1  0  0  0  0
 13 14  1  0  0  0  0
 13 15  1  0  0  0  0
 13 47  1  0  0  0  0
 14 48  1  0  0  0  0
 14 49  1  0  0  0  0
 14 50  1  0  0  0  0
 15 51  1  0  0  0  0
 15 52  1  0  0  0  0
 15 53  1  0  0  0  0
 16 17  1  0  0  0  0
 16 54  1  0  0  0  0
 16 55  1  0  0  0  0
 17 18  1  0  0  0  0
 17 19  1  0  0  0  0
 17 56  1  6  0  0  0
 18 57  1  0  0  0  0
 19 20  1  0  0  0  0
 19 32  1  0  0  0  0
 19 58  1  6  0  0  0
 20 21  1  0  0  0  0
 20 59  1  0  0  0  0
 21 22  2  0  0  0  0
 21 23  1  0  0  0  0
 23 24  1  0  0  0  0
 24 25  1  0  0  0  0
 24 31  1  0  0  0  0
 24 60  1  6  0  0  0
 25 26  1  0  0  0  0
 25 61  1  0  0  0  0
 25 62  1  0  0  0  0
 26 27  1  0  0  0  0
 27 28  1  0  0  0  0
 27 31  1  0  0  0  0
 27 63  1  6  0  0  0
 28 29  1  0  0  0  0
 29 30  2  0  0  0  0
 29 64  1  0  0  0  0
 30 31  1  0  0  0  0
 30 65  1  0  0  0  0
 31 66  1  6  0  0  0
 32 38  1  0  0  0  0
 32 67  1  0  0  0  0
 32 68  1  0  0  0  0
 33 34  2  0  0  0  0
 33 38  1  0  0  0  0
 33 69  1  0  0  0  0
 34 35  1  0  0  0  0
 34 70  1  0  0  0  0
 35 36  2  0  0  0  0
 35 71  1  0  0  0  0
 36 37  1  0  0  0  0
 36 72  1  0  0  0  0
 37 38  2  0  0  0  0
 37 73  1  0  0  0  0
M  END
$$$$
