0EK
 OpenBabel04161910063D

143146  0  0  1  0  0  0  0  0999 V2000
    1.9075   27.2215   19.9782 O   0  0  0  0  0  0  0  0  0  0  0  0
    2.6441   26.3916   19.4608 C   0  0  0  0  0  0  0  0  0  0  0  0
    2.5097   25.0386   19.5015 O   0  0  0  0  0  0  0  0  0  0  0  0
    1.4205   24.4901   20.2818 C   0  0  0  0  0  0  0  0  0  0  0  0
    1.5259   22.9569   20.2246 C   0  0  0  0  0  0  0  0  0  0  0  0
    0.0726   24.9048   19.6923 C   0  0  0  0  0  0  0  0  0  0  0  0
    1.5412   24.9140   21.7468 C   0  0  0  0  0  0  0  0  0  0  0  0
    3.7332   26.7289   18.7322 N   0  0  0  0  0  0  0  0  0  0  0  0
    4.0656   28.1219   18.4936 C   0  0  2  0  0  0  0  0  0  0  0  0
    3.3013   28.6881   17.3020 C   0  0  0  0  0  0  0  0  0  0  0  0
    2.9493   27.9943   16.3515 O   0  0  0  0  0  0  0  0  0  0  0  0
    5.5643   28.2583   18.2212 C   0  0  0  0  0  0  0  0  0  0  0  0
    6.3558   28.1159   19.4954 C   0  0  0  0  0  0  0  0  0  0  0  0
    6.0105   28.8658   20.6304 C   0  0  0  0  0  0  0  0  0  0  0  0
    7.4373   27.2329   19.5620 C   0  0  0  0  0  0  0  0  0  0  0  0
    6.7119   28.7186   21.8190 C   0  0  0  0  0  0  0  0  0  0  0  0
    8.1484   27.0972   20.7526 C   0  0  0  0  0  0  0  0  0  0  0  0
    7.7847   27.8381   21.8778 C   0  0  0  0  0  0  0  0  0  0  0  0
    3.1179   30.0600   17.3399 N   0  0  0  0  0  0  0  0  0  0  0  0
    2.3808   30.7171   16.2938 C   0  0  2  0  0  0  0  0  0  0  0  0
    3.0288   32.0599   16.0270 C   0  0  0  0  0  0  0  0  0  0  0  0
    2.7230   33.0827   16.6340 O   0  0  0  0  0  0  0  0  0  0  0  0
    0.9128   30.9527   16.6261 C   0  0  0  0  0  0  0  0  0  0  0  0
    0.1191   31.3564   15.4216 C   0  0  0  0  0  0  0  0  0  0  0  0
    0.4513   31.0735   14.1167 N   0  3  0  0  0  0  0  0  0  0  0  0
   -1.0438   32.0855   15.3235 C   0  0  0  0  0  0  0  0  0  0  0  0
   -0.5020   31.6211   13.3130 C   0  0  0  0  0  0  0  0  0  0  0  0
   -1.4233   32.2348   14.0157 N   0  0  0  0  0  0  0  0  0  0  0  0
    4.0941   31.9984   15.1586 N   0  0  0  0  0  0  0  0  0  0  0  0
    4.9226   33.1712   14.9438 C   0  0  1  0  0  0  0  0  0  0  0  0
    6.3911   32.7713   15.1242 C   0  0  0  0  0  0  0  0  0  0  0  0
    6.7300   32.3507   16.5586 C   0  0  0  0  0  0  0  0  0  0  0  0
    6.3206   33.3913   17.6073 C   0  0  0  0  0  0  0  0  0  0  0  0
    8.2280   32.0521   16.6940 C   0  0  0  0  0  0  0  0  0  0  0  0
    6.5922   32.8602   19.0054 C   0  0  0  0  0  0  0  0  0  0  0  0
    8.5462   31.5357   18.0942 C   0  0  0  0  0  0  0  0  0  0  0  0
    8.0575   32.4885   19.1809 C   0  0  0  0  0  0  0  0  0  0  0  0
    4.6622   33.8205   13.5796 C   0  0  1  0  0  0  0  0  0  0  0  0
    5.2200   33.0186   12.5280 O   0  0  0  0  0  0  0  0  0  0  0  0
    3.1619   34.0033   13.3061 C   0  0  0  0  0  0  0  0  0  0  0  0
    2.9530   35.1138   12.3695 N   0  0  0  0  0  0  0  0  0  0  0  0
    2.5692   34.8000   11.0040 C   0  0  0  0  0  0  0  0  0  0  0  0
    1.1076   34.3553   10.9436 C   0  0  0  0  0  0  0  0  0  0  0  0
    0.1600   35.5524   10.9219 C   0  0  0  0  0  0  0  0  0  0  0  0
    0.8862   33.4517    9.7413 C   0  0  0  0  0  0  0  0  0  0  0  0
    3.0867   36.3651   12.8977 C   0  0  0  0  0  0  0  0  0  0  0  0
    3.2769   36.5473   14.1175 O   0  0  0  0  0  0  0  0  0  0  0  0
    3.0714   37.4079   12.0389 N   0  0  0  0  0  0  0  0  0  0  0  0
    2.9591   38.7435   12.5655 C   0  0  2  0  0  0  0  0  0  0  0  0
    1.4734   39.1250   12.6019 C   0  0  0  0  0  0  0  0  0  0  0  0
    0.7784   39.0378   11.5897 O   0  0  0  0  0  0  0  0  0  0  0  0
    3.6972   39.7017   11.6445 C   0  0  0  0  0  0  0  0  0  0  0  0
    3.9025   41.0288   12.3518 C   0  0  0  0  0  0  0  0  0  0  0  0
    4.0788   42.1567   11.3544 C   0  0  0  0  0  0  0  0  0  0  0  0
    3.7500   43.4694   12.0365 C   0  0  0  0  0  0  0  0  0  0  0  0
    3.8857   44.5544   11.0421 N   0  3  0  0  0  0  0  0  0  0  0  0
    1.0259   39.6067   13.7998 N   0  0  0  0  0  0  0  0  0  0  0  0
   -0.3895   40.0024   13.9882 C   0  0  2  0  0  0  0  0  0  0  0  0
   -0.4840   41.3294   14.8032 C   0  0  0  0  0  0  0  0  0  0  0  0
   -0.1883   42.3634   14.1187 O   0  0  0  0  0  0  0  0  0  0  0  0
   -1.1715   38.8562   14.6416 C   0  0  0  0  0  0  0  0  0  0  0  0
   -2.3413   38.2950   13.8594 C   0  0  0  0  0  0  0  0  0  0  0  0
   -3.4988   37.9286   14.5595 C   0  0  0  0  0  0  0  0  0  0  0  0
   -2.3014   38.0686   12.4785 C   0  0  0  0  0  0  0  0  0  0  0  0
   -4.5936   37.3785   13.8926 C   0  0  0  0  0  0  0  0  0  0  0  0
   -3.3969   37.5211   11.8092 C   0  0  0  0  0  0  0  0  0  0  0  0
   -4.5441   37.1767   12.5161 C   0  0  0  0  0  0  0  0  0  0  0  0
   -0.7322   41.2301   16.0346 O   0  0  0  0  0  0  0  0  0  0  0  0
    0.7195   22.4867   20.8009 H   0  0  0  0  0  0  0  0  0  0  0  0
    2.4811   22.6085   20.6337 H   0  0  0  0  0  0  0  0  0  0  0  0
    1.4692   22.5877   19.1948 H   0  0  0  0  0  0  0  0  0  0  0  0
   -0.7546   24.5097   20.2888 H   0  0  0  0  0  0  0  0  0  0  0  0
   -0.0290   24.5517   18.6609 H   0  0  0  0  0  0  0  0  0  0  0  0
   -0.0390   25.9908   19.6619 H   0  0  0  0  0  0  0  0  0  0  0  0
    0.7105   24.5213   22.3390 H   0  0  0  0  0  0  0  0  0  0  0  0
    1.5305   25.9992   21.8618 H   0  0  0  0  0  0  0  0  0  0  0  0
    2.4874   24.5661   22.1741 H   0  0  0  0  0  0  0  0  0  0  0  0
    4.2243   25.9857   18.2629 H   0  0  0  0  0  0  0  0  0  0  0  0
    3.7506   28.7040   19.3669 H   0  0  0  0  0  0  0  0  0  0  0  0
    5.8090   29.2223   17.7625 H   0  0  0  0  0  0  0  0  0  0  0  0
    5.8666   27.4860   17.4997 H   0  0  0  0  0  0  0  0  0  0  0  0
    5.1756   29.5619   20.6133 H   0  0  0  0  0  0  0  0  0  0  0  0
    7.7254   26.6415   18.6959 H   0  0  0  0  0  0  0  0  0  0  0  0
    6.4165   29.2921   22.6925 H   0  0  0  0  0  0  0  0  0  0  0  0
    8.9885   26.4103   20.8059 H   0  0  0  0  0  0  0  0  0  0  0  0
    8.3387   27.7277   22.8049 H   0  0  0  0  0  0  0  0  0  0  0  0
    3.3730   30.5994   18.1610 H   0  0  0  0  0  0  0  0  0  0  0  0
    2.4587   30.0919   15.3834 H   0  0  0  0  0  0  0  0  0  0  0  0
    0.8312   31.7386   17.3907 H   0  0  0  0  0  0  0  0  0  0  0  0
    0.4692   30.0547   17.0680 H   0  0  0  0  0  0  0  0  0  0  0  0
    1.2580   30.5674   13.7818 H   0  0  0  0  0  0  0  0  0  0  0  0
   -1.6173   32.5098   16.1354 H   0  0  0  0  0  0  0  0  0  0  0  0
   -0.4719   31.5421   12.2345 H   0  0  0  0  0  0  0  0  0  0  0  0
    4.2304   31.1830   14.5719 H   0  0  0  0  0  0  0  0  0  0  0  0
    4.6587   33.9349   15.6814 H   0  0  0  0  0  0  0  0  0  0  0  0
    7.0379   33.5974   14.8095 H   0  0  0  0  0  0  0  0  0  0  0  0
    6.6105   31.9155   14.4693 H   0  0  0  0  0  0  0  0  0  0  0  0
    6.1831   31.4222   16.7688 H   0  0  0  0  0  0  0  0  0  0  0  0
    5.2547   33.6174   17.5524 H   0  0  0  0  0  0  0  0  0  0  0  0
    6.8603   34.3324   17.4408 H   0  0  0  0  0  0  0  0  0  0  0  0
    8.8127   32.9613   16.4998 H   0  0  0  0  0  0  0  0  0  0  0  0
    8.5341   31.3070   15.9509 H   0  0  0  0  0  0  0  0  0  0  0  0
    5.9633   31.9777   19.1783 H   0  0  0  0  0  0  0  0  0  0  0  0
    6.3018   33.6135   19.7446 H   0  0  0  0  0  0  0  0  0  0  0  0
    9.6259   31.3869   18.1956 H   0  0  0  0  0  0  0  0  0  0  0  0
    8.0703   30.5574   18.2298 H   0  0  0  0  0  0  0  0  0  0  0  0
    8.1978   32.0282   20.1640 H   0  0  0  0  0  0  0  0  0  0  0  0
    8.6621   33.4030   19.1573 H   0  0  0  0  0  0  0  0  0  0  0  0
    5.1767   34.7916   13.5681 H   0  0  0  0  0  0  0  0  0  0  0  0
    6.1811   32.9901   12.6782 H   0  0  0  0  0  0  0  0  0  0  0  0
    2.6182   34.2357   14.2286 H   0  0  0  0  0  0  0  0  0  0  0  0
    2.7408   33.0825   12.8887 H   0  0  0  0  0  0  0  0  0  0  0  0
    3.2581   34.0311   10.6366 H   0  0  0  0  0  0  0  0  0  0  0  0
    2.7069   35.6570   10.3430 H   0  0  0  0  0  0  0  0  0  0  0  0
    0.8700   33.7721   11.8384 H   0  0  0  0  0  0  0  0  0  0  0  0
   -0.8778   35.2150   10.8468 H   0  0  0  0  0  0  0  0  0  0  0  0
    0.3652   36.2200   10.0776 H   0  0  0  0  0  0  0  0  0  0  0  0
    0.2556   36.1333   11.8448 H   0  0  0  0  0  0  0  0  0  0  0  0
    1.5904   32.6125    9.7669 H   0  0  0  0  0  0  0  0  0  0  0  0
    1.0242   33.9883    8.7976 H   0  0  0  0  0  0  0  0  0  0  0  0
   -0.1255   33.0379    9.7657 H   0  0  0  0  0  0  0  0  0  0  0  0
    3.0407   37.2839   11.0446 H   0  0  0  0  0  0  0  0  0  0  0  0
    3.3924   38.7779   13.5703 H   0  0  0  0  0  0  0  0  0  0  0  0
    3.1291   39.8359   10.7148 H   0  0  0  0  0  0  0  0  0  0  0  0
    4.6701   39.2832   11.3606 H   0  0  0  0  0  0  0  0  0  0  0  0
    4.7783   40.9634   13.0085 H   0  0  0  0  0  0  0  0  0  0  0  0
    3.0453   41.2509   12.9967 H   0  0  0  0  0  0  0  0  0  0  0  0
    3.4123   42.0166   10.4938 H   0  0  0  0  0  0  0  0  0  0  0  0
    5.1067   42.1545   10.9726 H   0  0  0  0  0  0  0  0  0  0  0  0
    4.4474   43.6837   12.8514 H   0  0  0  0  0  0  0  0  0  0  0  0
    2.7192   43.4949   12.4033 H   0  0  0  0  0  0  0  0  0  0  0  0
    3.6584   45.4576   11.4733 H   0  0  0  0  0  0  0  0  0  0  0  0
    4.8369   44.5996   10.6616 H   0  0  0  0  0  0  0  0  0  0  0  0
    1.6151   39.6630   14.6225 H   0  0  0  0  0  0  0  0  0  0  0  0
   -0.7907   40.2208   12.9832 H   0  0  0  0  0  0  0  0  0  0  0  0
   -1.5759   39.1918   15.6014 H   0  0  0  0  0  0  0  0  0  0  0  0
   -0.4956   38.0255   14.8770 H   0  0  0  0  0  0  0  0  0  0  0  0
   -3.5497   38.0780   15.6358 H   0  0  0  0  0  0  0  0  0  0  0  0
   -1.4185   38.3189   11.9028 H   0  0  0  0  0  0  0  0  0  0  0  0
   -5.4830   37.1090   14.4533 H   0  0  0  0  0  0  0  0  0  0  0  0
   -3.3459   37.3655   10.7355 H   0  0  0  0  0  0  0  0  0  0  0  0
   -5.3968   36.7494   11.9973 H   0  0  0  0  0  0  0  0  0  0  0  0
    3.2264   44.4110   10.2656 H   0  0  0  0  0  0  0  0  0  0  0  0
  1  2  2  0  0  0  0
  2  3  1  0  0  0  0
  2  8  1  0  0  0  0
  3  4  1  0  0  0  0
  4  5  1  0  0  0  0
  4  6  1  0  0  0  0
  4  7  1  0  0  0  0
  5 69  1  0  0  0  0
  5 70  1  0  0  0  0
  5 71  1  0  0  0  0
  6 72  1  0  0  0  0
  6 73  1  0  0  0  0
  6 74  1  0  0  0  0
  7 75  1  0  0  0  0
  7 76  1  0  0  0  0
  7 77  1  0  0  0  0
  8  9  1  0  0  0  0
  8 78  1  0  0  0  0
  9 12  1  0  0  0  0
  9 10  1  0  0  0  0
  9 79  1  1  0  0  0
 10 11  2  0  0  0  0
 10 19  1  0  0  0  0
 12 13  1  0  0  0  0
 12 80  1  0  0  0  0
 12 81  1  0  0  0  0
 13 14  2  0  0  0  0
 13 15  1  0  0  0  0
 14 16  1  0  0  0  0
 14 82  1  0  0  0  0
 15 17  2  0  0  0  0
 15 83  1  0  0  0  0
 16 18  2  0  0  0  0
 16 84  1  0  0  0  0
 17 18  1  0  0  0  0
 17 85  1  0  0  0  0
 18 86  1  0  0  0  0
 19 20  1  0  0  0  0
 19 87  1  0  0  0  0
 20 23  1  0  0  0  0
 20 21  1  0  0  0  0
 20 88  1  6  0  0  0
 21 22  2  0  0  0  0
 21 29  1  0  0  0  0
 23 24  1  0  0  0  0
 23 89  1  0  0  0  0
 23 90  1  0  0  0  0
 24 25  1  0  0  0  0
 24 26  2  0  0  0  0
 25 27  2  0  0  0  0
 25 91  1  0  0  0  0
 26 28  1  0  0  0  0
 26 92  1  0  0  0  0
 27 28  1  0  0  0  0
 27 93  1  0  0  0  0
 29 30  1  0  0  0  0
 29 94  1  0  0  0  0
 30 31  1  0  0  0  0
 30 38  1  0  0  0  0
 30 95  1  1  0  0  0
 31 32  1  0  0  0  0
 31 96  1  0  0  0  0
 31 97  1  0  0  0  0
 32 33  1  0  0  0  0
 32 34  1  0  0  0  0
 32 98  1  0  0  0  0
 33 35  1  0  0  0  0
 33 99  1  0  0  0  0
 33100  1  0  0  0  0
 34 36  1  0  0  0  0
 34101  1  0  0  0  0
 34102  1  0  0  0  0
 35 37  1  0  0  0  0
 35103  1  0  0  0  0
 35104  1  0  0  0  0
 36 37  1  0  0  0  0
 36105  1  0  0  0  0
 36106  1  0  0  0  0
 37107  1  0  0  0  0
 37108  1  0  0  0  0
 38 39  1  0  0  0  0
 38 40  1  0  0  0  0
 38109  1  6  0  0  0
 39110  1  0  0  0  0
 40 41  1  0  0  0  0
 40111  1  0  0  0  0
 40112  1  0  0  0  0
 41 42  1  0  0  0  0
 41 46  1  0  0  0  0
 42 43  1  0  0  0  0
 42113  1  0  0  0  0
 42114  1  0  0  0  0
 43 44  1  0  0  0  0
 43 45  1  0  0  0  0
 43115  1  0  0  0  0
 44116  1  0  0  0  0
 44117  1  0  0  0  0
 44118  1  0  0  0  0
 45119  1  0  0  0  0
 45120  1  0  0  0  0
 45121  1  0  0  0  0
 46 47  2  0  0  0  0
 46 48  1  0  0  0  0
 48 49  1  0  0  0  0
 48122  1  0  0  0  0
 49 52  1  0  0  0  0
 49 50  1  0  0  0  0
 49123  1  1  0  0  0
 50 51  2  0  0  0  0
 50 57  1  0  0  0  0
 52 53  1  0  0  0  0
 52124  1  0  0  0  0
 52125  1  0  0  0  0
 53 54  1  0  0  0  0
 53126  1  0  0  0  0
 53127  1  0  0  0  0
 54 55  1  0  0  0  0
 54128  1  0  0  0  0
 54129  1  0  0  0  0
 55 56  1  0  0  0  0
 55130  1  0  0  0  0
 55131  1  0  0  0  0
 56132  1  0  0  0  0
 56133  1  0  0  0  0
 56143  1  0  0  0  0
 57 58  1  0  0  0  0
 57134  1  0  0  0  0
 58 61  1  0  0  0  0
 58 59  1  0  0  0  0
 58135  1  6  0  0  0
 59 60  2  0  0  0  0
 59 68  1  0  0  0  0
 61 62  1  0  0  0  0
 61136  1  0  0  0  0
 61137  1  0  0  0  0
 62 63  2  0  0  0  0
 62 64  1  0  0  0  0
 63 65  1  0  0  0  0
 63138  1  0  0  0  0
 64 66  2  0  0  0  0
 64139  1  0  0  0  0
 65 67  2  0  0  0  0
 65140  1  0  0  0  0
 66 67  1  0  0  0  0
 66141  1  0  0  0  0
 67142  1  0  0  0  0
M  CHG  2  25   1  56   1
M  END
$$$$
