0HT
 OpenBabel04161910063D

 87 87  0  0  1  0  0  0  0  0999 V2000
   36.8765   -4.6155    1.6266 C   0  0  0  0  0  0  0  0  0  0  0  0
   38.3836   -6.4974    2.0031 C   0  0  0  0  0  0  0  0  0  0  0  0
   36.9506   -6.1341    1.6387 C   0  0  0  0  0  0  0  0  0  0  0  0
   35.9279   -6.7392    2.5950 C   0  0  0  0  0  0  0  0  0  0  0  0
   34.9006   -8.9080    2.0779 N   0  3  0  0  0  0  0  0  0  0  0  0
   36.0713   -8.2512    2.7187 C   0  0  2  0  0  0  0  0  0  0  0  0
   36.0942   -8.6011    4.2012 C   0  0  1  0  0  0  0  0  0  0  0  0
   34.8177   -8.2712    4.7847 O   0  0  0  0  0  0  0  0  0  0  0  0
   36.4815  -10.0622    4.4549 C   0  0  0  0  0  0  0  0  0  0  0  0
   35.3111  -10.8284    4.8501 N   0  3  0  0  0  0  0  0  0  0  0  0
   35.5199  -12.1015    5.6424 C   0  0  2  0  0  0  0  0  0  0  0  0
   36.9958  -12.5103    5.6496 C   0  0  0  0  0  0  0  0  0  0  0  0
   37.5623  -12.8399    4.6480 O   0  0  0  0  0  0  0  0  0  0  0  0
   34.7848  -13.2354    4.9411 C   0  0  0  0  0  0  0  0  0  0  0  0
   35.0961  -14.5568    5.6078 C   0  0  0  0  0  0  0  0  0  0  0  0
   33.2806  -13.0790    4.9652 C   0  0  0  0  0  0  0  0  0  0  0  0
   37.5645  -12.3491    6.8650 N   0  0  0  0  0  0  0  0  0  0  0  0
   38.9259  -12.7882    7.1277 C   0  0  2  0  0  0  0  0  0  0  0  0
   39.0355  -14.3101    6.9057 C   0  0  0  0  0  0  0  0  0  0  0  0
   38.2963  -15.0976    7.4147 O   0  0  0  0  0  0  0  0  0  0  0  0
   39.3150  -12.4608    8.5724 C   0  0  2  0  0  0  0  0  0  0  0  0
   40.6744  -13.0436    8.9535 C   0  0  0  0  0  0  0  0  0  0  0  0
   38.2989  -13.0005    9.5780 C   0  0  0  0  0  0  0  0  0  0  0  0
   41.4852  -12.0901    9.8046 C   0  0  0  0  0  0  0  0  0  0  0  0
   40.0294  -14.6315    6.0192 N   0  0  0  0  0  0  0  0  0  0  0  0
   40.3289  -16.0182    5.6749 C   0  0  2  0  0  0  0  0  0  0  0  0
   41.6848  -16.4513    6.2604 C   0  0  0  0  0  0  0  0  0  0  0  0
   42.3996  -17.2540    5.6718 O   0  0  0  0  0  0  0  0  0  0  0  0
   40.3659  -16.1499    4.1331 C   0  0  0  0  0  0  0  0  0  0  0  0
   39.0351  -16.5058    3.5062 C   0  0  0  0  0  0  0  0  0  0  0  0
   37.8355  -16.1191    4.0968 C   0  0  0  0  0  0  0  0  0  0  0  0
   38.9794  -17.2209    2.3050 C   0  0  0  0  0  0  0  0  0  0  0  0
   36.6177  -16.4503    3.5196 C   0  0  0  0  0  0  0  0  0  0  0  0
   37.7478  -17.5472    1.7262 C   0  0  0  0  0  0  0  0  0  0  0  0
   36.5654  -17.1579    2.3331 C   0  0  0  0  0  0  0  0  0  0  0  0
   43.1439  -14.9802    7.2478 C   0  0  0  0  0  0  0  0  0  0  0  0
   42.0442  -15.8762    7.4246 O   0  0  0  0  0  0  0  0  0  0  0  0
   37.6250   -4.2180    0.9306 H   0  0  0  0  0  0  0  0  0  0  0  0
   37.0898   -4.2098    2.6236 H   0  0  0  0  0  0  0  0  0  0  0  0
   35.8889   -4.2767    1.3094 H   0  0  0  0  0  0  0  0  0  0  0  0
   38.5287   -7.5749    2.0355 H   0  0  0  0  0  0  0  0  0  0  0  0
   38.6506   -6.0810    2.9803 H   0  0  0  0  0  0  0  0  0  0  0  0
   39.0672   -6.0939    1.2507 H   0  0  0  0  0  0  0  0  0  0  0  0
   36.7251   -6.5132    0.6384 H   0  0  0  0  0  0  0  0  0  0  0  0
   34.9123   -6.4860    2.2659 H   0  0  0  0  0  0  0  0  0  0  0  0
   36.0749   -6.2958    3.5885 H   0  0  0  0  0  0  0  0  0  0  0  0
   34.9547   -9.9324    2.1046 H   0  0  0  0  0  0  0  0  0  0  0  0
   34.0159   -8.6118    2.5280 H   0  0  0  0  0  0  0  0  0  0  0  0
   36.9474   -8.6459    2.2149 H   0  0  0  0  0  0  0  0  0  0  0  0
   36.8692   -7.9955    4.6778 H   0  0  0  0  0  0  0  0  0  0  0  0
   34.6966   -7.2987    4.6974 H   0  0  0  0  0  0  0  0  0  0  0  0
   37.1879  -10.1032    5.2765 H   0  0  0  0  0  0  0  0  0  0  0  0
   36.8536  -10.5284    3.5429 H   0  0  0  0  0  0  0  0  0  0  0  0
   34.8375  -11.1003    3.9916 H   0  0  0  0  0  0  0  0  0  0  0  0
   35.1301  -11.8976    6.6451 H   0  0  0  0  0  0  0  0  0  0  0  0
   35.1295  -13.2623    3.8968 H   0  0  0  0  0  0  0  0  0  0  0  0
   34.5513  -15.3504    5.1023 H   0  0  0  0  0  0  0  0  0  0  0  0
   34.7987  -14.5669    6.6526 H   0  0  0  0  0  0  0  0  0  0  0  0
   36.1599  -14.7675    5.5713 H   0  0  0  0  0  0  0  0  0  0  0  0
   32.9756  -12.1371    4.5136 H   0  0  0  0  0  0  0  0  0  0  0  0
   32.9145  -13.1200    5.9962 H   0  0  0  0  0  0  0  0  0  0  0  0
   32.8257  -13.9028    4.4041 H   0  0  0  0  0  0  0  0  0  0  0  0
   37.0096  -12.0085    7.6317 H   0  0  0  0  0  0  0  0  0  0  0  0
   39.5825  -12.2569    6.4280 H   0  0  0  0  0  0  0  0  0  0  0  0
   39.3370  -11.3688    8.6477 H   0  0  0  0  0  0  0  0  0  0  0  0
   41.2401  -13.2753    8.0538 H   0  0  0  0  0  0  0  0  0  0  0  0
   40.5234  -13.9739    9.5154 H   0  0  0  0  0  0  0  0  0  0  0  0
   37.2941  -12.6365    9.3709 H   0  0  0  0  0  0  0  0  0  0  0  0
   38.5782  -12.6859   10.5835 H   0  0  0  0  0  0  0  0  0  0  0  0
   38.2786  -14.0952    9.5584 H   0  0  0  0  0  0  0  0  0  0  0  0
   42.4452  -12.5469   10.0644 H   0  0  0  0  0  0  0  0  0  0  0  0
   40.9522  -11.8465   10.7289 H   0  0  0  0  0  0  0  0  0  0  0  0
   41.6781  -11.1629    9.2552 H   0  0  0  0  0  0  0  0  0  0  0  0
   40.5855  -13.9010    5.6136 H   0  0  0  0  0  0  0  0  0  0  0  0
   39.5496  -16.6816    6.0695 H   0  0  0  0  0  0  0  0  0  0  0  0
   41.0834  -16.9268    3.8519 H   0  0  0  0  0  0  0  0  0  0  0  0
   40.7116  -15.2009    3.6974 H   0  0  0  0  0  0  0  0  0  0  0  0
   37.8531  -15.5706    5.0294 H   0  0  0  0  0  0  0  0  0  0  0  0
   39.9004  -17.5395    1.8188 H   0  0  0  0  0  0  0  0  0  0  0  0
   35.6969  -16.1711    3.9851 H   0  0  0  0  0  0  0  0  0  0  0  0
   37.7163  -18.1112    0.7961 H   0  0  0  0  0  0  0  0  0  0  0  0
   35.6048  -17.4098    1.8955 H   0  0  0  0  0  0  0  0  0  0  0  0
   43.4693  -14.5646    8.2118 H   0  0  0  0  0  0  0  0  0  0  0  0
   42.7956  -14.1521    6.6213 H   0  0  0  0  0  0  0  0  0  0  0  0
   43.9945  -15.4691    6.7670 H   0  0  0  0  0  0  0  0  0  0  0  0
   34.8352   -8.6449    1.0768 H   0  0  0  0  0  0  0  0  0  0  0  0
   34.7189  -10.1899    5.4132 H   0  0  0  0  0  0  0  0  0  0  0  0
  1  3  1  0  0  0  0
  1 38  1  0  0  0  0
  1 39  1  0  0  0  0
  1 40  1  0  0  0  0
  2  3  1  0  0  0  0
  2 41  1  0  0  0  0
  2 42  1  0  0  0  0
  2 43  1  0  0  0  0
  3  4  1  0  0  0  0
  3 44  1  0  0  0  0
  4  6  1  0  0  0  0
  4 45  1  0  0  0  0
  4 46  1  0  0  0  0
  5  6  1  0  0  0  0
  5 47  1  0  0  0  0
  5 48  1  0  0  0  0
  5 86  1  0  0  0  0
  6  7  1  0  0  0  0
  6 49  1  6  0  0  0
  7  8  1  0  0  0  0
  7  9  1  0  0  0  0
  7 50  1  1  0  0  0
  8 51  1  0  0  0  0
  9 10  1  0  0  0  0
  9 52  1  0  0  0  0
  9 53  1  0  0  0  0
 10 11  1  0  0  0  0
 10 54  1  0  0  0  0
 10 87  1  0  0  0  0
 11 12  1  0  0  0  0
 11 14  1  0  0  0  0
 11 55  1  1  0  0  0
 12 13  2  0  0  0  0
 12 17  1  0  0  0  0
 14 15  1  0  0  0  0
 14 16  1  0  0  0  0
 14 56  1  0  0  0  0
 15 57  1  0  0  0  0
 15 58  1  0  0  0  0
 15 59  1  0  0  0  0
 16 60  1  0  0  0  0
 16 61  1  0  0  0  0
 16 62  1  0  0  0  0
 17 18  1  0  0  0  0
 17 63  1  0  0  0  0
 18 19  1  0  0  0  0
 18 21  1  0  0  0  0
 18 64  1  6  0  0  0
 19 20  2  0  0  0  0
 19 25  1  0  0  0  0
 21 22  1  0  0  0  0
 21 23  1  0  0  0  0
 21 65  1  1  0  0  0
 22 24  1  0  0  0  0
 22 66  1  0  0  0  0
 22 67  1  0  0  0  0
 23 68  1  0  0  0  0
 23 69  1  0  0  0  0
 23 70  1  0  0  0  0
 24 71  1  0  0  0  0
 24 72  1  0  0  0  0
 24 73  1  0  0  0  0
 25 26  1  0  0  0  0
 25 74  1  0  0  0  0
 26 27  1  0  0  0  0
 26 29  1  0  0  0  0
 26 75  1  1  0  0  0
 27 28  2  0  0  0  0
 27 37  1  0  0  0  0
 29 30  1  0  0  0  0
 29 76  1  0  0  0  0
 29 77  1  0  0  0  0
 30 32  2  0  0  0  0
 30 31  1  0  0  0  0
 31 33  2  0  0  0  0
 31 78  1  0  0  0  0
 32 34  1  0  0  0  0
 32 79  1  0  0  0  0
 33 35  1  0  0  0  0
 33 80  1  0  0  0  0
 34 35  2  0  0  0  0
 34 81  1  0  0  0  0
 35 82  1  0  0  0  0
 36 37  1  0  0  0  0
 36 83  1  0  0  0  0
 36 84  1  0  0  0  0
 36 85  1  0  0  0  0
M  CHG  2   5   1  10   1
M  END
$$$$
