0L1
 OpenBabel04161911403D

 18 17  0  0  0  0  0  0  0  0999 V2000
   54.3238  355.7165   84.3801 O   0  0  0  0  0  0  0  0  0  0  0  0
   53.9026  356.8465   84.0138 C   0  0  0  0  0  0  0  0  0  0  0  0
   52.8809  357.1170   83.3090 O   0  0  0  0  0  0  0  0  0  0  0  0
   54.6886  358.0788   84.4821 C   0  0  0  0  0  0  0  0  0  0  0  0
   56.0736  357.7884   85.0708 C   0  0  0  0  0  0  0  0  0  0  0  0
   56.9118  359.0572   85.3109 C   0  0  0  0  0  0  0  0  0  0  0  0
   58.2984  358.7220   85.8654 C   0  0  0  0  0  0  0  0  0  0  0  0
   59.2256  359.9412   85.9423 C   0  0  0  0  0  0  0  0  0  0  0  0
   59.9661  360.1333   84.9304 O   0  0  0  0  0  0  0  0  0  0  0  0
   59.1870  360.5869   87.0316 O   0  0  0  0  0  0  0  0  0  0  0  0
   54.0768  358.5978   85.2311 H   0  0  0  0  0  0  0  0  0  0  0  0
   54.7929  358.7556   83.6243 H   0  0  0  0  0  0  0  0  0  0  0  0
   56.6201  357.1198   84.3913 H   0  0  0  0  0  0  0  0  0  0  0  0
   55.9529  357.2446   86.0181 H   0  0  0  0  0  0  0  0  0  0  0  0
   56.3862  359.7164   86.0128 H   0  0  0  0  0  0  0  0  0  0  0  0
   57.0128  359.6122   84.3717 H   0  0  0  0  0  0  0  0  0  0  0  0
   58.7822  357.9643   85.2360 H   0  0  0  0  0  0  0  0  0  0  0  0
   58.2044  358.2860   86.8667 H   0  0  0  0  0  0  0  0  0  0  0  0
  1  2  2  0  0  0  0
  2  3  1  0  0  0  0
  2  4  1  0  0  0  0
  4  5  1  0  0  0  0
  4 11  1  0  0  0  0
  4 12  1  0  0  0  0
  5  6  1  0  0  0  0
  5 13  1  0  0  0  0
  5 14  1  0  0  0  0
  6  7  1  0  0  0  0
  6 15  1  0  0  0  0
  6 16  1  0  0  0  0
  7  8  1  0  0  0  0
  7 17  1  0  0  0  0
  7 18  1  0  0  0  0
  8  9  2  0  0  0  0
  8 10  1  0  0  0  0
M  END
$$$$
