0PL
 OpenBabel04161910193D

 56 59  0  0  1  0  0  0  0  0999 V2000
   13.0936   63.9620   30.4521 C   0  0  0  0  0  0  0  0  0  0  0  0
   13.7372   64.8707   31.3998 N   0  0  0  0  0  0  0  0  0  0  0  0
   14.7111   65.7942   30.8077 C   0  0  0  0  0  0  0  0  0  0  0  0
   15.8934   65.0722   30.2209 C   0  0  0  0  0  0  0  0  0  0  0  0
   15.9447   64.8532   28.8360 C   0  0  0  0  0  0  0  0  0  0  0  0
   17.0091   64.1592   28.2471 C   0  0  0  0  0  0  0  0  0  0  0  0
   18.0334   63.6863   29.0680 C   0  0  0  0  0  0  0  0  0  0  0  0
   17.9899   63.8932   30.4474 C   0  0  0  0  0  0  0  0  0  0  0  0
   16.9198   64.5746   31.0188 C   0  0  0  0  0  0  0  0  0  0  0  0
   16.9196   64.8042   32.7294 Cl  0  0  0  0  0  0  0  0  0  0  0  0
   17.0629   63.9036   26.7343 C   0  0  2  0  0  0  0  0  0  0  0  0
   17.6802   65.1004   26.0060 C   0  0  0  0  0  0  0  0  0  0  0  0
   17.9798   64.8041   24.5235 C   0  0  0  0  0  0  0  0  0  0  0  0
   17.6426   65.7407   23.7317 O   0  0  0  0  0  0  0  0  0  0  0  0
   18.5093   63.6985   24.2713 O   0  0  0  0  0  0  0  0  0  0  0  0
   15.6975   63.4538   26.2117 C   0  0  0  0  0  0  0  0  0  0  0  0
   14.9362   64.2334   25.3392 C   0  0  0  0  0  0  0  0  0  0  0  0
   13.6885   63.8018   24.8593 C   0  0  0  0  0  0  0  0  0  0  0  0
   13.2178   62.5703   25.2929 C   0  0  0  0  0  0  0  0  0  0  0  0
   12.0718   61.8382   25.0423 N   0  3  0  0  0  0  0  0  0  0  0  0
   10.9574   62.1712   24.2021 C   0  0  0  0  0  0  0  0  0  0  0  0
   12.0865   60.6804   25.7258 N   0  0  0  0  0  0  0  0  0  0  0  0
   13.2274   60.6243   26.4213 N   0  0  0  0  0  0  0  0  0  0  0  0
   13.9356   61.7651   26.1711 C   0  0  0  0  0  0  0  0  0  0  0  0
   15.1869   62.2125   26.6412 C   0  0  0  0  0  0  0  0  0  0  0  0
   12.7727   65.4810   32.6131 S   0  0  0  0  0  0  0  0  0  0  0  0
   12.0714   64.3577   33.2166 O   0  0  0  0  0  0  0  0  0  0  0  0
   13.5483   66.3897   33.4206 O   0  0  0  0  0  0  0  0  0  0  0  0
   11.5609   66.4357   31.7362 C   0  0  0  0  0  0  0  0  0  0  0  0
   11.7494   67.8072   31.5764 C   0  0  0  0  0  0  0  0  0  0  0  0
   10.7886   68.5463   30.9001 C   0  0  0  0  0  0  0  0  0  0  0  0
    9.6532   67.9312   30.3966 C   0  0  0  0  0  0  0  0  0  0  0  0
    9.4664   66.5683   30.5672 C   0  0  0  0  0  0  0  0  0  0  0  0
   10.4121   65.8131   31.2461 C   0  0  0  0  0  0  0  0  0  0  0  0
   13.8133   63.6156   29.7157 H   0  0  0  0  0  0  0  0  0  0  0  0
   12.2844   64.4662   29.9256 H   0  0  0  0  0  0  0  0  0  0  0  0
   12.7068   63.0900   30.9812 H   0  0  0  0  0  0  0  0  0  0  0  0
   15.0872   66.4872   31.5656 H   0  0  0  0  0  0  0  0  0  0  0  0
   14.2231   66.3913   30.0315 H   0  0  0  0  0  0  0  0  0  0  0  0
   15.1320   65.2096   28.2076 H   0  0  0  0  0  0  0  0  0  0  0  0
   18.8732   63.1520   28.6309 H   0  0  0  0  0  0  0  0  0  0  0  0
   18.7964   63.5212   31.0672 H   0  0  0  0  0  0  0  0  0  0  0  0
   17.7437   63.0567   26.5889 H   0  0  0  0  0  0  0  0  0  0  0  0
   18.6253   65.3753   26.4941 H   0  0  0  0  0  0  0  0  0  0  0  0
   17.0080   65.9661   26.0787 H   0  0  0  0  0  0  0  0  0  0  0  0
   15.3053   65.1963   24.9900 H   0  0  0  0  0  0  0  0  0  0  0  0
   13.1280   64.4146   24.1685 H   0  0  0  0  0  0  0  0  0  0  0  0
   10.2105   61.3746   24.2276 H   0  0  0  0  0  0  0  0  0  0  0  0
   11.2981   62.3101   23.1663 H   0  0  0  0  0  0  0  0  0  0  0  0
   10.4923   63.1063   24.5500 H   0  0  0  0  0  0  0  0  0  0  0  0
   15.7681   61.6085   27.3285 H   0  0  0  0  0  0  0  0  0  0  0  0
   12.6374   68.2865   31.9695 H   0  0  0  0  0  0  0  0  0  0  0  0
   10.9310   69.6177   30.7668 H   0  0  0  0  0  0  0  0  0  0  0  0
    8.9061   68.5181   29.8698 H   0  0  0  0  0  0  0  0  0  0  0  0
    8.5752   66.0868   30.1713 H   0  0  0  0  0  0  0  0  0  0  0  0
   10.2691   64.7445   31.3720 H   0  0  0  0  0  0  0  0  0  0  0  0
  1  2  1  0  0  0  0
  1 35  1  0  0  0  0
  1 36  1  0  0  0  0
  1 37  1  0  0  0  0
  2  3  1  0  0  0  0
  2 26  1  0  0  0  0
  3  4  1  0  0  0  0
  3 38  1  0  0  0  0
  3 39  1  0  0  0  0
  4  5  2  0  0  0  0
  4  9  1  0  0  0  0
  5  6  1  0  0  0  0
  5 40  1  0  0  0  0
  6  7  2  0  0  0  0
  6 11  1  0  0  0  0
  7  8  1  0  0  0  0
  7 41  1  0  0  0  0
  8  9  2  0  0  0  0
  8 42  1  0  0  0  0
  9 10  1  0  0  0  0
 11 12  1  0  0  0  0
 11 16  1  0  0  0  0
 11 43  1  6  0  0  0
 12 13  1  0  0  0  0
 12 44  1  0  0  0  0
 12 45  1  0  0  0  0
 13 14  2  0  0  0  0
 13 15  1  0  0  0  0
 16 17  1  0  0  0  0
 16 25  2  0  0  0  0
 17 18  2  0  0  0  0
 17 46  1  0  0  0  0
 18 19  1  0  0  0  0
 18 47  1  0  0  0  0
 19 20  2  0  0  0  0
 19 24  1  0  0  0  0
 20 21  1  0  0  0  0
 20 22  1  0  0  0  0
 21 48  1  0  0  0  0
 21 49  1  0  0  0  0
 21 50  1  0  0  0  0
 22 23  1  0  0  0  0
 23 24  2  0  0  0  0
 24 25  1  0  0  0  0
 25 51  1  0  0  0  0
 26 27  2  0  0  0  0
 26 28  2  0  0  0  0
 26 29  1  0  0  0  0
 29 30  2  0  0  0  0
 29 34  1  0  0  0  0
 30 31  1  0  0  0  0
 30 52  1  0  0  0  0
 31 32  2  0  0  0  0
 31 53  1  0  0  0  0
 32 33  1  0  0  0  0
 32 54  1  0  0  0  0
 33 34  2  0  0  0  0
 33 55  1  0  0  0  0
 34 56  1  0  0  0  0
M  CHG  1  20   1
M  END
$$$$
