0S6
 OpenBabel04161912003D

 47 50  0  0  1  0  0  0  0  0999 V2000
   30.0869   10.0679  -14.3607 Cl  0  0  0  0  0  0  0  0  0  0  0  0
   28.5265   10.5513  -13.8291 C   0  0  0  0  0  0  0  0  0  0  0  0
   27.6307   11.1353  -14.7159 C   0  0  0  0  0  0  0  0  0  0  0  0
   26.3558   11.5263  -14.2901 C   0  0  0  0  0  0  0  0  0  0  0  0
   28.1554   10.3629  -12.5091 C   0  0  0  0  0  0  0  0  0  0  0  0
   26.8855   10.7483  -12.0827 C   0  0  0  0  0  0  0  0  0  0  0  0
   25.9791   11.3356  -12.9640 C   0  0  0  0  0  0  0  0  0  0  0  0
   24.6098   11.7272  -12.5019 C   0  0  0  0  0  0  0  0  0  0  0  0
   24.4205   12.1102  -11.0925 C   0  0  0  0  0  0  0  0  0  0  0  0
   25.2258   13.0238  -10.3308 C   0  0  0  0  0  0  0  0  0  0  0  0
   26.3907   13.7744  -10.8719 C   0  0  0  0  0  0  0  0  0  0  0  0
   24.7767   13.1447   -9.0315 C   0  0  0  0  0  0  0  0  0  0  0  0
   25.3469   13.9993   -7.9535 C   0  0  0  0  0  0  0  0  0  0  0  0
   23.4049   12.1654   -8.7339 S   0  0  0  0  0  0  0  0  0  0  0  0
   23.4223   11.5755  -10.3065 C   0  0  0  0  0  0  0  0  0  0  0  0
   22.4036   10.7438  -10.7717 N   0  3  0  0  0  0  0  0  0  0  0  0
   21.7524    9.6578  -10.2348 C   0  0  0  0  0  0  0  0  0  0  0  0
   22.0684    9.0392   -8.9401 C   0  0  0  0  0  0  0  0  0  0  0  0
   20.8312    9.2185  -11.0711 N   0  0  0  0  0  0  0  0  0  0  0  0
   20.8554   10.0127  -12.1800 N   0  0  0  0  0  0  0  0  0  0  0  0
   21.8115   10.8950  -12.0107 C   0  0  0  0  0  0  0  0  0  0  0  0
   23.6506   11.6683  -13.3333 N   0  0  0  0  0  0  0  0  0  0  0  0
   22.2592   11.9823  -12.9212 C   0  0  1  0  0  0  0  0  0  0  0  0
   21.3717   12.0551  -14.1531 C   0  0  0  0  0  0  0  0  0  0  0  0
   21.7217   13.2586  -14.9877 C   0  0  0  0  0  0  0  0  0  0  0  0
   22.4545   14.1800  -14.6412 O   0  0  0  0  0  0  0  0  0  0  0  0
   21.0824   13.1838  -16.1879 O   0  0  0  0  0  0  0  0  0  0  0  0
   21.4396   14.2337  -17.0869 C   0  0  0  0  0  0  0  0  0  0  0  0
   27.9167   11.2891  -15.7518 H   0  0  0  0  0  0  0  0  0  0  0  0
   25.6720   11.9818  -14.9998 H   0  0  0  0  0  0  0  0  0  0  0  0
   28.8433    9.9124  -11.8019 H   0  0  0  0  0  0  0  0  0  0  0  0
   26.6087   10.5901  -11.0460 H   0  0  0  0  0  0  0  0  0  0  0  0
   26.5588   13.5308  -11.9184 H   0  0  0  0  0  0  0  0  0  0  0  0
   27.2869   13.5181  -10.3042 H   0  0  0  0  0  0  0  0  0  0  0  0
   26.2016   14.8457  -10.8061 H   0  0  0  0  0  0  0  0  0  0  0  0
   24.7744   13.8874   -7.0316 H   0  0  0  0  0  0  0  0  0  0  0  0
   25.3263   15.0539   -8.2542 H   0  0  0  0  0  0  0  0  0  0  0  0
   26.3872   13.7126   -7.7573 H   0  0  0  0  0  0  0  0  0  0  0  0
   21.3962    8.1964   -8.7629 H   0  0  0  0  0  0  0  0  0  0  0  0
   21.9202    9.7678   -8.1436 H   0  0  0  0  0  0  0  0  0  0  0  0
   23.0993    8.6768   -8.9229 H   0  0  0  0  0  0  0  0  0  0  0  0
   22.2099   12.9472  -12.4004 H   0  0  0  0  0  0  0  0  0  0  0  0
   20.3176   12.1369  -13.8599 H   0  0  0  0  0  0  0  0  0  0  0  0
   21.5056   11.1560  -14.7684 H   0  0  0  0  0  0  0  0  0  0  0  0
   20.8870   14.0995  -18.0209 H   0  0  0  0  0  0  0  0  0  0  0  0
   22.5106   14.1862  -17.3004 H   0  0  0  0  0  0  0  0  0  0  0  0
   21.1799   15.2037  -16.6563 H   0  0  0  0  0  0  0  0  0  0  0  0
  1  2  1  0  0  0  0
  2  3  2  0  0  0  0
  2  5  1  0  0  0  0
  3  4  1  0  0  0  0
  3 29  1  0  0  0  0
  4  7  2  0  0  0  0
  4 30  1  0  0  0  0
  5  6  2  0  0  0  0
  5 31  1  0  0  0  0
  6  7  1  0  0  0  0
  6 32  1  0  0  0  0
  7  8  1  0  0  0  0
  8  9  1  0  0  0  0
  8 22  2  0  0  0  0
  9 10  1  0  0  0  0
  9 15  2  0  0  0  0
 10 11  1  0  0  0  0
 10 12  2  0  0  0  0
 11 33  1  0  0  0  0
 11 34  1  0  0  0  0
 11 35  1  0  0  0  0
 12 13  1  0  0  0  0
 12 14  1  0  0  0  0
 13 36  1  0  0  0  0
 13 37  1  0  0  0  0
 13 38  1  0  0  0  0
 14 15  1  0  0  0  0
 15 16  1  0  0  0  0
 16 17  2  0  0  0  0
 16 21  1  0  0  0  0
 17 18  1  0  0  0  0
 17 19  1  0  0  0  0
 18 39  1  0  0  0  0
 18 40  1  0  0  0  0
 18 41  1  0  0  0  0
 19 20  1  0  0  0  0
 20 21  2  0  0  0  0
 21 23  1  0  0  0  0
 22 23  1  0  0  0  0
 23 24  1  0  0  0  0
 23 42  1  1  0  0  0
 24 25  1  0  0  0  0
 24 43  1  0  0  0  0
 24 44  1  0  0  0  0
 25 26  2  0  0  0  0
 25 27  1  0  0  0  0
 27 28  1  0  0  0  0
 28 45  1  0  0  0  0
 28 46  1  0  0  0  0
 28 47  1  0  0  0  0
M  CHG  1  16   1
M  END
$$$$
