1N1
 OpenBabel04161912093D

 60 63  0  0  0  0  0  0  0  0999 V2000
   29.4472    4.9600   -1.5535 C   0  0  0  0  0  0  0  0  0  0  0  0
   28.6214    4.0408   -0.9434 C   0  0  0  0  0  0  0  0  0  0  0  0
   28.6004    2.5956   -0.9219 C   0  0  0  0  0  0  0  0  0  0  0  0
   24.1046   13.0917    3.4871 N   0  3  0  0  0  0  0  0  0  0  0  0
   30.0650   -2.1856   -1.7018 C   0  0  0  0  0  0  0  0  0  0  0  0
   30.7681   -1.4808   -0.7223 C   0  0  0  0  0  0  0  0  0  0  0  0
   30.6701   -0.0842   -0.6351 C   0  0  0  0  0  0  0  0  0  0  0  0
   31.4136    0.6506    0.4443 C   0  0  0  0  0  0  0  0  0  0  0  0
   26.4063    7.8604    0.5278 C   0  0  0  0  0  0  0  0  0  0  0  0
   26.0676    9.1492    0.8708 C   0  0  0  0  0  0  0  0  0  0  0  0
   24.9660    9.3351    1.6948 C   0  0  0  0  0  0  0  0  0  0  0  0
   24.6118    7.0656    1.7510 C   0  0  0  0  0  0  0  0  0  0  0  0
   23.8446    5.8799    2.2203 C   0  0  0  0  0  0  0  0  0  0  0  0
   23.9138   10.5790    3.4340 C   0  0  0  0  0  0  0  0  0  0  0  0
   25.3216   11.7789    1.7168 C   0  0  0  0  0  0  0  0  0  0  0  0
   25.1792   13.3555    4.5308 C   0  0  0  0  0  0  0  0  0  0  0  0
   24.8023   14.6862    5.1889 C   0  0  0  0  0  0  0  0  0  0  0  0
   27.5732    7.6160   -0.2125 N   0  0  0  0  0  0  0  0  0  0  0  0
   28.0692    6.4037   -0.5723 C   0  0  0  0  0  0  0  0  0  0  0  0
   29.1340    6.2980   -1.3416 N   0  0  0  0  0  0  0  0  0  0  0  0
   27.4279    4.8799   -0.0785 S   0  0  0  0  0  0  0  0  0  0  0  0
   29.7201    1.9914   -1.4728 N   0  0  0  0  0  0  0  0  0  0  0  0
   29.8278    0.5903   -1.5374 C   0  0  0  0  0  0  0  0  0  0  0  0
   29.1147   -0.1232   -2.5152 C   0  0  0  0  0  0  0  0  0  0  0  0
   29.2427   -1.5066   -2.6000 C   0  0  0  0  0  0  0  0  0  0  0  0
   28.1355    0.6845   -3.6923 Cl  0  0  0  0  0  0  0  0  0  0  0  0
   27.6878    1.9362   -0.4205 O   0  0  0  0  0  0  0  0  0  0  0  0
   24.2471    8.2899    2.1373 N   0  0  0  0  0  0  0  0  0  0  0  0
   25.6660    6.8393    0.9665 N   0  0  0  0  0  0  0  0  0  0  0  0
   24.5265   10.6029    2.0881 N   0  0  0  0  0  0  0  0  0  0  0  0
   23.2068   11.8975    3.7497 C   0  0  0  0  0  0  0  0  0  0  0  0
   24.5967   13.0939    2.0636 C   0  0  0  0  0  0  0  0  0  0  0  0
   23.4503   14.5647    5.6337 O   0  0  0  0  0  0  0  0  0  0  0  0
   30.3006    4.7275   -2.1761 H   0  0  0  0  0  0  0  0  0  0  0  0
   30.1568   -3.2675   -1.7637 H   0  0  0  0  0  0  0  0  0  0  0  0
   31.3875   -2.0360   -0.0190 H   0  0  0  0  0  0  0  0  0  0  0  0
   31.9910   -0.0324    1.0765 H   0  0  0  0  0  0  0  0  0  0  0  0
   30.7136    1.1870    1.0938 H   0  0  0  0  0  0  0  0  0  0  0  0
   32.1130    1.3629   -0.0037 H   0  0  0  0  0  0  0  0  0  0  0  0
   26.6729    9.9690    0.5146 H   0  0  0  0  0  0  0  0  0  0  0  0
   23.0047    6.1822    2.8503 H   0  0  0  0  0  0  0  0  0  0  0  0
   24.4938    5.2147    2.7987 H   0  0  0  0  0  0  0  0  0  0  0  0
   23.4556    5.3260    1.3608 H   0  0  0  0  0  0  0  0  0  0  0  0
   24.6854   10.3791    4.1872 H   0  0  0  0  0  0  0  0  0  0  0  0
   23.1459    9.8004    3.5235 H   0  0  0  0  0  0  0  0  0  0  0  0
   25.4904   11.8036    0.6351 H   0  0  0  0  0  0  0  0  0  0  0  0
   26.2941   11.7498    2.2212 H   0  0  0  0  0  0  0  0  0  0  0  0
   26.1592   13.4112    4.0454 H   0  0  0  0  0  0  0  0  0  0  0  0
   25.1713   12.5311    5.2518 H   0  0  0  0  0  0  0  0  0  0  0  0
   24.8271   15.4887    4.4437 H   0  0  0  0  0  0  0  0  0  0  0  0
   25.4640   14.9371    6.0206 H   0  0  0  0  0  0  0  0  0  0  0  0
   27.9995    8.4096   -0.6642 H   0  0  0  0  0  0  0  0  0  0  0  0
   30.5322    2.5305   -1.7295 H   0  0  0  0  0  0  0  0  0  0  0  0
   28.7076   -2.0608   -3.3665 H   0  0  0  0  0  0  0  0  0  0  0  0
   22.3427   12.0295    3.0881 H   0  0  0  0  0  0  0  0  0  0  0  0
   22.8623   11.9486    4.7874 H   0  0  0  0  0  0  0  0  0  0  0  0
   25.2502   13.9636    1.9372 H   0  0  0  0  0  0  0  0  0  0  0  0
   23.7102   13.2288    1.4360 H   0  0  0  0  0  0  0  0  0  0  0  0
   23.2249   15.3755    6.1302 H   0  0  0  0  0  0  0  0  0  0  0  0
   23.4461   13.8719    3.5877 H   0  0  0  0  0  0  0  0  0  0  0  0
  1  2  2  0  0  0  0
  1 20  1  0  0  0  0
  1 34  1  0  0  0  0
  2  3  1  0  0  0  0
  2 21  1  0  0  0  0
  3 22  1  0  0  0  0
  3 27  2  0  0  0  0
  4 16  1  0  0  0  0
  4 31  1  0  0  0  0
  4 32  1  0  0  0  0
  4 60  1  0  0  0  0
  5  6  2  0  0  0  0
  5 25  1  0  0  0  0
  5 35  1  0  0  0  0
  6  7  1  0  0  0  0
  6 36  1  0  0  0  0
  7  8  1  0  0  0  0
  7 23  2  0  0  0  0
  8 37  1  0  0  0  0
  8 38  1  0  0  0  0
  8 39  1  0  0  0  0
  9 10  2  0  0  0  0
  9 18  1  0  0  0  0
  9 29  1  0  0  0  0
 10 11  1  0  0  0  0
 10 40  1  0  0  0  0
 11 28  2  0  0  0  0
 11 30  1  0  0  0  0
 12 13  1  0  0  0  0
 12 28  1  0  0  0  0
 12 29  2  0  0  0  0
 13 41  1  0  0  0  0
 13 42  1  0  0  0  0
 13 43  1  0  0  0  0
 14 30  1  0  0  0  0
 14 31  1  0  0  0  0
 14 44  1  0  0  0  0
 14 45  1  0  0  0  0
 15 30  1  0  0  0  0
 15 32  1  0  0  0  0
 15 46  1  0  0  0  0
 15 47  1  0  0  0  0
 16 17  1  0  0  0  0
 16 48  1  0  0  0  0
 16 49  1  0  0  0  0
 17 33  1  0  0  0  0
 17 50  1  0  0  0  0
 17 51  1  0  0  0  0
 18 19  1  0  0  0  0
 18 52  1  0  0  0  0
 19 20  2  0  0  0  0
 19 21  1  0  0  0  0
 22 23  1  0  0  0  0
 22 53  1  0  0  0  0
 23 24  1  0  0  0  0
 24 25  2  0  0  0  0
 24 26  1  0  0  0  0
 25 54  1  0  0  0  0
 31 55  1  0  0  0  0
 31 56  1  0  0  0  0
 32 57  1  0  0  0  0
 32 58  1  0  0  0  0
 33 59  1  0  0  0  0
M  CHG  1   4   1
M  END
$$$$
