1SA
 OpenBabel04161911553D

 14 14  0  0  0  0  0  0  0  0999 V2000
    9.2850  -39.5124  -76.7700 S   0  0  0  0  0  0  0  0  0  0  0  0
    8.1161  -40.3078  -76.4846 O   0  0  0  0  0  0  0  0  0  0  0  0
    9.2089  -38.2683  -77.5023 O   0  0  0  0  0  0  0  0  0  0  0  0
    9.9142  -39.1168  -75.2483 N   0  0  0  0  0  0  0  0  0  0  0  0
   10.1899  -41.7547  -78.0728 N   0  0  0  0  0  0  0  0  0  0  0  0
   11.3259  -42.3221  -78.6122 N   0  0  0  0  0  0  0  0  0  0  0  0
   12.0459  -40.0121  -77.8007 S   0  0  0  0  0  0  0  0  0  0  0  0
   10.4349  -40.5492  -77.6098 C   0  0  0  0  0  0  0  0  0  0  0  0
   12.3759  -41.5379  -78.5264 C   0  0  0  0  0  0  0  0  0  0  0  0
   13.5996  -41.8849  -78.9483 N   0  0  0  0  0  0  0  0  0  0  0  0
    9.5211  -39.7590  -74.5560 H   0  0  0  0  0  0  0  0  0  0  0  0
    9.6746  -38.1451  -75.0393 H   0  0  0  0  0  0  0  0  0  0  0  0
   13.7120  -42.7646  -79.4393 H   0  0  0  0  0  0  0  0  0  0  0  0
   14.3845  -41.2466  -78.9629 H   0  0  0  0  0  0  0  0  0  0  0  0
  1  2  2  0  0  0  0
  1  3  2  0  0  0  0
  1  4  1  0  0  0  0
  1  8  1  0  0  0  0
  4 11  1  0  0  0  0
  4 12  1  0  0  0  0
  5  6  1  0  0  0  0
  5  8  2  0  0  0  0
  6  9  2  0  0  0  0
  7  8  1  0  0  0  0
  7  9  1  0  0  0  0
  9 10  1  0  0  0  0
 10 13  1  0  0  0  0
 10 14  1  0  0  0  0
M  END
$$$$
