21G
 OpenBabel04161912163D

 47 51  0  0  1  0  0  0  0  0999 V2000
  -24.6375    4.8325    8.7547 C   0  0  0  0  0  0  0  0  0  0  0  0
  -24.5735    4.7796    7.3850 C   0  0  0  0  0  0  0  0  0  0  0  0
  -25.2036    3.7438    6.7124 C   0  0  0  0  0  0  0  0  0  0  0  0
  -25.9384    2.8340    8.6453 C   0  0  0  0  0  0  0  0  0  0  0  0
  -25.3513    3.8194    9.4286 C   0  0  0  0  0  0  0  0  0  0  0  0
  -25.6446    3.5301   10.7961 C   0  0  0  0  0  0  0  0  0  0  0  0
  -25.9127    2.7261    7.2948 N   0  0  0  0  0  0  0  0  0  0  0  0
  -26.3992    2.3675   10.8012 C   0  0  0  0  0  0  0  0  0  0  0  0
  -26.5638    1.9529    9.4981 N   0  3  0  0  0  0  0  0  0  0  0  0
  -25.2865    4.2979   11.9763 C   0  0  0  0  0  0  0  0  0  0  0  0
  -25.6795    3.8550   13.1991 N   0  0  0  0  0  0  0  0  0  0  0  0
  -25.3901    4.6815   14.2191 C   0  0  0  0  0  0  0  0  0  0  0  0
  -24.7606    5.8994   14.0726 C   0  0  0  0  0  0  0  0  0  0  0  0
  -24.3912    6.2567   12.7937 C   0  0  0  0  0  0  0  0  0  0  0  0
  -24.6594    5.4587   11.7514 N   0  0  0  0  0  0  0  0  0  0  0  0
  -23.9083    7.5311   12.5793 N   0  0  0  0  0  0  0  0  0  0  0  0
  -23.2773    7.8593   11.3154 C   0  0  2  0  0  0  0  0  0  0  0  0
  -22.0148    8.7047   11.5444 C   0  0  2  0  0  0  0  0  0  0  0  0
  -22.0006    9.8273   10.4874 C   0  0  1  0  0  0  0  0  0  0  0  0
  -22.4037    9.2642    9.1024 C   0  0  0  0  0  0  0  0  0  0  0  0
  -23.8787    8.8479    9.1038 C   0  0  0  0  0  0  0  0  0  0  0  0
  -24.3379    8.7064   10.5484 C   0  0  2  0  0  0  0  0  0  0  0  0
  -24.4101   10.1257   11.1587 C   0  0  0  0  0  0  0  0  0  0  0  0
  -23.0630   10.8426   10.9507 C   0  0  0  0  0  0  0  0  0  0  0  0
  -20.7638    7.8171   11.5957 C   0  0  0  0  0  0  0  0  0  0  0  0
  -20.6266    7.1528   12.6657 O   0  0  0  0  0  0  0  0  0  0  0  0
  -19.9849    7.8947   10.6081 O   0  0  0  0  0  0  0  0  0  0  0  0
  -24.5551    6.7074   15.1178 F   0  0  0  0  0  0  0  0  0  0  0  0
  -23.9101    5.7323    6.7004 F   0  0  0  0  0  0  0  0  0  0  0  0
  -24.1487    5.6296    9.2996 H   0  0  0  0  0  0  0  0  0  0  0  0
  -25.1499    3.7102    5.6332 H   0  0  0  0  0  0  0  0  0  0  0  0
  -26.8295    1.8199   11.6259 H   0  0  0  0  0  0  0  0  0  0  0  0
  -27.0717    1.1378    9.1967 H   0  0  0  0  0  0  0  0  0  0  0  0
  -25.6971    4.3577   15.2085 H   0  0  0  0  0  0  0  0  0  0  0  0
  -23.5346    8.0118   13.3979 H   0  0  0  0  0  0  0  0  0  0  0  0
  -23.0165    6.9715   10.7160 H   0  0  0  0  0  0  0  0  0  0  0  0
  -22.0617    9.1850   12.5338 H   0  0  0  0  0  0  0  0  0  0  0  0
  -21.0142   10.2975   10.4242 H   0  0  0  0  0  0  0  0  0  0  0  0
  -21.7914    8.3892    8.8562 H   0  0  0  0  0  0  0  0  0  0  0  0
  -22.2278   10.0036    8.3150 H   0  0  0  0  0  0  0  0  0  0  0  0
  -24.0098    7.9076    8.5595 H   0  0  0  0  0  0  0  0  0  0  0  0
  -24.4862    9.6009    8.5872 H   0  0  0  0  0  0  0  0  0  0  0  0
  -25.3311    8.2339   10.5963 H   0  0  0  0  0  0  0  0  0  0  0  0
  -24.6500   10.0737   12.2276 H   0  0  0  0  0  0  0  0  0  0  0  0
  -25.2143   10.7045   10.6908 H   0  0  0  0  0  0  0  0  0  0  0  0
  -23.1693   11.6461   10.2138 H   0  0  0  0  0  0  0  0  0  0  0  0
  -22.7501   11.3105   11.8920 H   0  0  0  0  0  0  0  0  0  0  0  0
  1  2  1  0  0  0  0
  1  5  2  0  0  0  0
  1 30  1  0  0  0  0
  2  3  2  0  0  0  0
  2 29  1  0  0  0  0
  3  7  1  0  0  0  0
  3 31  1  0  0  0  0
  4  5  1  0  0  0  0
  4  7  1  0  0  0  0
  4  9  2  0  0  0  0
  5  6  1  0  0  0  0
  6  8  2  0  0  0  0
  6 10  1  0  0  0  0
  8  9  1  0  0  0  0
  8 32  1  0  0  0  0
  9 33  1  0  0  0  0
 10 11  2  0  0  0  0
 10 15  1  0  0  0  0
 11 12  1  0  0  0  0
 12 13  2  0  0  0  0
 12 34  1  0  0  0  0
 13 14  1  0  0  0  0
 13 28  1  0  0  0  0
 14 15  2  0  0  0  0
 14 16  1  0  0  0  0
 16 17  1  0  0  0  0
 16 35  1  0  0  0  0
 17 18  1  0  0  0  0
 17 22  1  0  0  0  0
 17 36  1  6  0  0  0
 18 19  1  0  0  0  0
 18 25  1  0  0  0  0
 18 37  1  1  0  0  0
 19 20  1  0  0  0  0
 19 24  1  0  0  0  0
 19 38  1  6  0  0  0
 20 21  1  0  0  0  0
 20 39  1  0  0  0  0
 20 40  1  0  0  0  0
 21 22  1  0  0  0  0
 21 41  1  0  0  0  0
 21 42  1  0  0  0  0
 22 23  1  0  0  0  0
 22 43  1  1  0  0  0
 23 24  1  0  0  0  0
 23 44  1  0  0  0  0
 23 45  1  0  0  0  0
 24 46  1  0  0  0  0
 24 47  1  0  0  0  0
 25 26  2  0  0  0  0
 25 27  1  0  0  0  0
M  CHG  1   9   1
M  END
$$$$
