2AM
 OpenBabel04161911023D

 35 37  0  0  1  0  0  0  0  0999 V2000
   17.8842  -29.5760   20.6686 P   0  0  0  0  0  0  0  0  0  0  0  0
   17.3261  -30.7400   19.8623 O   0  0  0  0  0  0  0  0  0  0  0  0
   16.9099  -28.9495   21.6439 O   0  0  0  0  0  0  0  0  0  0  0  0
   18.7358  -28.6104   19.8669 O   0  0  0  0  0  0  0  0  0  0  0  0
   21.9026  -33.5050   19.4258 C   0  0  0  0  0  0  0  0  0  0  0  0
   22.8158  -32.5042   18.9864 O   0  0  0  0  0  0  0  0  0  0  0  0
   21.0249  -33.0376   20.5876 C   0  0  1  0  0  0  0  0  0  0  0  0
   21.8476  -32.4253   21.5960 O   0  0  0  0  0  0  0  0  0  0  0  0
   19.9243  -32.0619   20.1679 C   0  0  1  0  0  0  0  0  0  0  0  0
   18.6776  -32.7328   20.3855 O   0  0  0  0  0  0  0  0  0  0  0  0
   20.1394  -30.8210   21.0287 C   0  0  1  0  0  0  0  0  0  0  0  0
   18.9692  -30.3163   21.6447 O   0  0  0  0  0  0  0  0  0  0  0  0
   21.1073  -31.2960   22.1060 C   0  0  2  0  0  0  0  0  0  0  0  0
   22.0519  -30.2894   22.5643 N   0  3  0  0  0  0  0  0  0  0  0  0
   21.9834  -29.6344   23.7672 C   0  0  0  0  0  0  0  0  0  0  0  0
   22.9993  -28.8369   23.9745 N   0  0  0  0  0  0  0  0  0  0  0  0
   23.7559  -28.9395   22.8253 C   0  0  0  0  0  0  0  0  0  0  0  0
   24.9578  -28.3239   22.4379 C   0  0  0  0  0  0  0  0  0  0  0  0
   25.6629  -27.4543   23.2706 N   0  0  0  0  0  0  0  0  0  0  0  0
   25.4836  -28.6286   21.2265 N   0  0  0  0  0  0  0  0  0  0  0  0
   24.8339  -29.5385   20.4693 C   0  0  0  0  0  0  0  0  0  0  0  0
   23.7081  -30.2327   20.7509 N   0  0  0  0  0  0  0  0  0  0  0  0
   23.1991  -29.8576   21.9414 C   0  0  0  0  0  0  0  0  0  0  0  0
   22.5074  -34.3612   19.7419 H   0  0  0  0  0  0  0  0  0  0  0  0
   21.2885  -33.8230   18.5762 H   0  0  0  0  0  0  0  0  0  0  0  0
   23.1341  -32.0491   19.7968 H   0  0  0  0  0  0  0  0  0  0  0  0
   20.5759  -33.9296   21.0437 H   0  0  0  0  0  0  0  0  0  0  0  0
   19.9787  -31.8115   19.1028 H   0  0  0  0  0  0  0  0  0  0  0  0
   17.9950  -32.0137   20.1820 H   0  0  0  0  0  0  0  0  0  0  0  0
   20.6246  -30.0406   20.4328 H   0  0  0  0  0  0  0  0  0  0  0  0
   20.5612  -31.6465   22.9934 H   0  0  0  0  0  0  0  0  0  0  0  0
   21.1526  -29.7930   24.4498 H   0  0  0  0  0  0  0  0  0  0  0  0
   26.3283  -26.8738   22.7945 H   0  0  0  0  0  0  0  0  0  0  0  0
   25.0888  -27.0621   24.0123 H   0  0  0  0  0  0  0  0  0  0  0  0
   25.2873  -29.7669   19.5134 H   0  0  0  0  0  0  0  0  0  0  0  0
  1  2  2  0  0  0  0
  1  3  1  0  0  0  0
  1  4  1  0  0  0  0
  1 12  1  0  0  0  0
  5  6  1  0  0  0  0
  5  7  1  0  0  0  0
  5 24  1  0  0  0  0
  5 25  1  0  0  0  0
  6 26  1  0  0  0  0
  7  8  1  0  0  0  0
  7  9  1  0  0  0  0
  7 27  1  1  0  0  0
  8 13  1  0  0  0  0
  9 10  1  0  0  0  0
  9 11  1  0  0  0  0
  9 28  1  6  0  0  0
 10 29  1  0  0  0  0
 11 12  1  0  0  0  0
 11 13  1  0  0  0  0
 11 30  1  6  0  0  0
 13 14  1  0  0  0  0
 13 31  1  1  0  0  0
 14 15  2  0  0  0  0
 14 23  1  0  0  0  0
 15 16  1  0  0  0  0
 15 32  1  0  0  0  0
 16 17  1  0  0  0  0
 17 18  2  0  0  0  0
 17 23  1  0  0  0  0
 18 19  1  0  0  0  0
 18 20  1  0  0  0  0
 19 33  1  0  0  0  0
 19 34  1  0  0  0  0
 20 21  2  0  0  0  0
 21 22  1  0  0  0  0
 21 35  1  0  0  0  0
 22 23  2  0  0  0  0
M  CHG  1  14   1
M  END
$$$$
