2AP
 OpenBabel04161911173D

 13 13  0  0  0  0  0  0  0  0999 V2000
   -2.3871  -14.1449  -17.6862 N   0  0  0  0  0  0  0  0  0  0  0  0
   -1.6939  -15.2360  -17.3192 C   0  0  0  0  0  0  0  0  0  0  0  0
   -1.1610  -15.4009  -16.0396 C   0  0  0  0  0  0  0  0  0  0  0  0
   -1.3305  -14.3812  -15.1175 C   0  0  0  0  0  0  0  0  0  0  0  0
   -2.0354  -13.2485  -15.4821 C   0  0  0  0  0  0  0  0  0  0  0  0
   -2.5406  -13.1717  -16.7582 C   0  0  0  0  0  0  0  0  0  0  0  0
   -1.5036  -16.1946  -18.2838 N   0  0  0  0  0  0  0  0  0  0  0  0
   -0.6098  -16.2928  -15.7719 H   0  0  0  0  0  0  0  0  0  0  0  0
   -0.9201  -14.4623  -14.1215 H   0  0  0  0  0  0  0  0  0  0  0  0
   -2.1941  -12.4334  -14.7839 H   0  0  0  0  0  0  0  0  0  0  0  0
   -3.0891  -12.2928  -17.0643 H   0  0  0  0  0  0  0  0  0  0  0  0
   -0.9971  -17.0294  -18.0694 H   0  0  0  0  0  0  0  0  0  0  0  0
   -1.8887  -16.0131  -19.1963 H   0  0  0  0  0  0  0  0  0  0  0  0
  1  2  2  0  0  0  0
  1  6  1  0  0  0  0
  2  3  1  0  0  0  0
  2  7  1  0  0  0  0
  3  4  2  0  0  0  0
  3  8  1  0  0  0  0
  4  5  1  0  0  0  0
  4  9  1  0  0  0  0
  5  6  2  0  0  0  0
  5 10  1  0  0  0  0
  6 11  1  0  0  0  0
  7 12  1  0  0  0  0
  7 13  1  0  0  0  0
M  END
$$$$
