2BA
 OpenBabel04161912063D

 66 72  0  0  1  0  0  0  0  0999 V2000
  114.7420   77.0017    0.7484 P   0  0  1  0  0  0  0  0  0  0  0  0
  114.0640   76.9669   -0.6040 O   0  0  0  0  0  0  0  0  0  0  0  0
  115.8389   77.9903    1.0500 O   0  0  0  0  0  0  0  0  0  0  0  0
  113.5752   77.1308    1.8782 O   0  0  0  0  0  0  0  0  0  0  0  0
  113.8698   77.7289    3.1279 C   0  0  0  0  0  0  0  0  0  0  0  0
  114.0356   76.6792    4.2260 C   0  0  1  0  0  0  0  0  0  0  0  0
  114.4810   77.3340    5.4560 O   0  0  0  0  0  0  0  0  0  0  0  0
  112.7480   75.9125    4.5660 C   0  0  1  0  0  0  0  0  0  0  0  0
  113.1416   74.6125    5.0016 O   0  0  0  0  0  0  0  0  0  0  0  0
  112.2381   76.6950    5.7826 C   0  0  1  0  0  0  0  0  0  0  0  0
  111.2957   75.9698    6.5606 O   0  0  0  0  0  0  0  0  0  0  0  0
  113.5595   76.9686    6.5105 C   0  0  2  0  0  0  0  0  0  0  0  0
  113.5973   78.0158    7.5223 N   0  3  0  0  0  0  0  0  0  0  0  0
  114.7613   78.5704    8.0114 C   0  0  0  0  0  0  0  0  0  0  0  0
  114.5434   79.4610    8.9602 N   0  0  0  0  0  0  0  0  0  0  0  0
  113.1704   79.4854    9.1028 C   0  0  0  0  0  0  0  0  0  0  0  0
  112.3255   80.2307    9.9499 C   0  0  0  0  0  0  0  0  0  0  0  0
  112.7756   81.1557   10.8723 N   0  0  0  0  0  0  0  0  0  0  0  0
  110.9886   80.0360    9.8575 N   0  0  0  0  0  0  0  0  0  0  0  0
  110.5427   79.1153    8.9746 C   0  0  0  0  0  0  0  0  0  0  0  0
  111.2490   78.3318    8.1352 N   0  0  0  0  0  0  0  0  0  0  0  0
  112.5671   78.5793    8.2336 C   0  0  0  0  0  0  0  0  0  0  0  0
  112.4472   73.2865    4.3781 P   0  0  1  0  0  0  0  0  0  0  0  0
  112.9596   72.1063    5.1640 O   0  0  0  0  0  0  0  0  0  0  0  0
  110.9717   73.5247    4.1738 O   0  0  0  0  0  0  0  0  0  0  0  0
  113.1460   73.2654    2.9147 O   0  0  0  0  0  0  0  0  0  0  0  0
  114.5459   73.0760    2.8591 C   0  0  0  0  0  0  0  0  0  0  0  0
  115.0250   73.1590    1.4081 C   0  0  1  0  0  0  0  0  0  0  0  0
  114.5621   72.0286    0.6428 O   0  0  0  0  0  0  0  0  0  0  0  0
  114.5419   74.3949    0.6648 C   0  0  1  0  0  0  0  0  0  0  0  0
  115.2904   75.5192    1.0878 O   0  0  0  0  0  0  0  0  0  0  0  0
  114.7545   73.9660   -0.7950 C   0  0  1  0  0  0  0  0  0  0  0  0
  116.0570   74.3379   -1.2823 O   0  0  0  0  0  0  0  0  0  0  0  0
  114.6982   72.4210   -0.7337 C   0  0  2  0  0  0  0  0  0  0  0  0
  113.6734   71.7617   -1.5122 N   0  3  0  0  0  0  0  0  0  0  0  0
  112.3373   72.0492   -1.5322 C   0  0  0  0  0  0  0  0  0  0  0  0
  111.6631   71.2562   -2.3500 N   0  0  0  0  0  0  0  0  0  0  0  0
  112.6111   70.3851   -2.8487 C   0  0  0  0  0  0  0  0  0  0  0  0
  112.5232   69.3019   -3.7454 C   0  0  0  0  0  0  0  0  0  0  0  0
  111.3421   68.9005   -4.3365 N   0  0  0  0  0  0  0  0  0  0  0  0
  113.6521   68.6211   -4.0575 N   0  0  0  0  0  0  0  0  0  0  0  0
  114.8092   69.0348   -3.4994 C   0  0  0  0  0  0  0  0  0  0  0  0
  115.0222   70.0583   -2.6525 N   0  0  0  0  0  0  0  0  0  0  0  0
  113.8700   70.6888   -2.3541 C   0  0  0  0  0  0  0  0  0  0  0  0
  113.0472   78.4090    3.3732 H   0  0  0  0  0  0  0  0  0  0  0  0
  114.7601   78.3640    3.0843 H   0  0  0  0  0  0  0  0  0  0  0  0
  114.8306   75.9911    3.9334 H   0  0  0  0  0  0  0  0  0  0  0  0
  112.0238   75.8586    3.7475 H   0  0  0  0  0  0  0  0  0  0  0  0
  111.7726   77.6315    5.4525 H   0  0  0  0  0  0  0  0  0  0  0  0
  111.0117   76.5472    7.2909 H   0  0  0  0  0  0  0  0  0  0  0  0
  113.9334   76.0652    7.0090 H   0  0  0  0  0  0  0  0  0  0  0  0
  115.7335   78.2815    7.6311 H   0  0  0  0  0  0  0  0  0  0  0  0
  112.1006   81.6897   11.3750 H   0  0  0  0  0  0  0  0  0  0  0  0
  113.7693   81.3628   10.8869 H   0  0  0  0  0  0  0  0  0  0  0  0
  109.4615   78.9894    8.9365 H   0  0  0  0  0  0  0  0  0  0  0  0
  114.8113   72.1054    3.2792 H   0  0  0  0  0  0  0  0  0  0  0  0
  115.0396   73.8607    3.4386 H   0  0  0  0  0  0  0  0  0  0  0  0
  116.1235   73.1213    1.4148 H   0  0  0  0  0  0  0  0  0  0  0  0
  113.4696   74.5569    0.8366 H   0  0  0  0  0  0  0  0  0  0  0  0
  114.0005   74.4006   -1.4625 H   0  0  0  0  0  0  0  0  0  0  0  0
  116.0533   74.1988   -2.2432 H   0  0  0  0  0  0  0  0  0  0  0  0
  115.6618   72.0184   -1.0756 H   0  0  0  0  0  0  0  0  0  0  0  0
  111.9063   72.8485   -0.9333 H   0  0  0  0  0  0  0  0  0  0  0  0
  111.3544   68.0809   -4.9172 H   0  0  0  0  0  0  0  0  0  0  0  0
  110.4873   69.3570   -4.0470 H   0  0  0  0  0  0  0  0  0  0  0  0
  115.6934   68.4619   -3.7751 H   0  0  0  0  0  0  0  0  0  0  0  0
  1  2  2  6  0  0  0
  1  3  1  0  0  0  0
  1  4  1  0  0  0  0
  1 31  1  0  0  0  0
  4  5  1  0  0  0  0
  5  6  1  0  0  0  0
  5 45  1  0  0  0  0
  5 46  1  0  0  0  0
  6  7  1  0  0  0  0
  6  8  1  0  0  0  0
  6 47  1  6  0  0  0
  7 12  1  0  0  0  0
  8  9  1  0  0  0  0
  8 10  1  0  0  0  0
  8 48  1  6  0  0  0
  9 23  1  0  0  0  0
 10 11  1  0  0  0  0
 10 12  1  0  0  0  0
 10 49  1  6  0  0  0
 11 50  1  0  0  0  0
 12 13  1  0  0  0  0
 12 51  1  1  0  0  0
 13 14  2  0  0  0  0
 13 22  1  0  0  0  0
 14 15  1  0  0  0  0
 14 52  1  0  0  0  0
 15 16  1  0  0  0  0
 16 17  2  0  0  0  0
 16 22  1  0  0  0  0
 17 18  1  0  0  0  0
 17 19  1  0  0  0  0
 18 53  1  0  0  0  0
 18 54  1  0  0  0  0
 19 20  2  0  0  0  0
 20 21  1  0  0  0  0
 20 55  1  0  0  0  0
 21 22  2  0  0  0  0
 23 24  2  1  0  0  0
 23 25  1  0  0  0  0
 23 26  1  0  0  0  0
 26 27  1  0  0  0  0
 27 28  1  0  0  0  0
 27 56  1  0  0  0  0
 27 57  1  0  0  0  0
 28 29  1  0  0  0  0
 28 30  1  0  0  0  0
 28 58  1  6  0  0  0
 29 34  1  0  0  0  0
 30 31  1  0  0  0  0
 30 32  1  0  0  0  0
 30 59  1  1  0  0  0
 32 33  1  0  0  0  0
 32 34  1  0  0  0  0
 32 60  1  6  0  0  0
 33 61  1  0  0  0  0
 34 35  1  0  0  0  0
 34 62  1  6  0  0  0
 35 36  2  0  0  0  0
 35 44  1  0  0  0  0
 36 37  1  0  0  0  0
 36 63  1  0  0  0  0
 37 38  1  0  0  0  0
 38 39  2  0  0  0  0
 38 44  1  0  0  0  0
 39 40  1  0  0  0  0
 39 41  1  0  0  0  0
 40 64  1  0  0  0  0
 40 65  1  0  0  0  0
 41 42  2  0  0  0  0
 42 43  1  0  0  0  0
 42 66  1  0  0  0  0
 43 44  2  0  0  0  0
M  CHG  2  13   1  35   1
M  END
$$$$
