2BG
 OpenBabel04161911323D

 20 21  0  0  0  0  0  0  0  0999 V2000
   -0.3833   11.5189    1.4051 N   0  0  0  0  0  0  0  0  0  0  0  0
   -0.1902   12.0115    0.1169 C   0  0  0  0  0  0  0  0  0  0  0  0
   -0.6234   11.4030   -1.0780 C   0  0  0  0  0  0  0  0  0  0  0  0
   -0.3450   12.0121   -2.3085 C   0  0  0  0  0  0  0  0  0  0  0  0
    0.3581   13.2100   -2.3594 C   0  0  0  0  0  0  0  0  0  0  0  0
    0.7947   13.8373   -1.1889 C   0  0  0  0  0  0  0  0  0  0  0  0
    0.5064   13.2214    0.0401 C   0  0  0  0  0  0  0  0  0  0  0  0
    0.8958   13.7478    1.6330 S   0  0  0  0  0  0  0  0  0  0  0  0
    0.1327   12.3606    2.2751 C   0  0  0  0  0  0  0  0  0  0  0  0
    0.0873   12.1256    3.7501 C   0  0  0  0  0  0  0  0  0  0  0  0
   -0.1493   10.6842    4.0473 N   0  3  0  0  0  0  0  0  0  0  0  0
   -1.1749   10.4678   -1.0463 H   0  0  0  0  0  0  0  0  0  0  0  0
   -0.6817   11.5425   -3.2306 H   0  0  0  0  0  0  0  0  0  0  0  0
    0.5703   13.6691   -3.3247 H   0  0  0  0  0  0  0  0  0  0  0  0
    1.3398   14.7767   -1.2349 H   0  0  0  0  0  0  0  0  0  0  0  0
   -0.7437   12.6743    4.2036 H   0  0  0  0  0  0  0  0  0  0  0  0
    1.0246   12.3943    4.2451 H   0  0  0  0  0  0  0  0  0  0  0  0
   -0.2196   10.4854    5.0493 H   0  0  0  0  0  0  0  0  0  0  0  0
   -1.0141   10.3871    3.5733 H   0  0  0  0  0  0  0  0  0  0  0  0
    0.5988   10.1135    3.6344 H   0  0  0  0  0  0  0  0  0  0  0  0
  1  2  1  0  0  0  0
  1  9  2  0  0  0  0
  2  3  2  0  0  0  0
  2  7  1  0  0  0  0
  3  4  1  0  0  0  0
  3 12  1  0  0  0  0
  4  5  2  0  0  0  0
  4 13  1  0  0  0  0
  5  6  1  0  0  0  0
  5 14  1  0  0  0  0
  6  7  2  0  0  0  0
  6 15  1  0  0  0  0
  7  8  1  0  0  0  0
  8  9  1  0  0  0  0
  9 10  1  0  0  0  0
 10 11  1  0  0  0  0
 10 16  1  0  0  0  0
 10 17  1  0  0  0  0
 11 18  1  0  0  0  0
 11 19  1  0  0  0  0
 11 20  1  0  0  0  0
M  CHG  1  11   1
M  END
$$$$
