2LX
 OpenBabel04161911063D

 34 35  0  0  0  0  0  0  0  0999 V2000
   22.2214    3.9079   55.9238 C   0  0  0  0  0  0  0  0  0  0  0  0
   21.7227    2.5536   55.9565 N   0  0  0  0  0  0  0  0  0  0  0  0
   21.6934    1.8396   57.1293 C   0  0  0  0  0  0  0  0  0  0  0  0
   21.1033    0.4441   57.0808 C   0  0  0  0  0  0  0  0  0  0  0  0
   21.1930   -0.2643   58.2858 C   0  0  0  0  0  0  0  0  0  0  0  0
   20.8070   -1.6016   58.3626 C   0  0  0  0  0  0  0  0  0  0  0  0
   20.3208   -2.2575   57.2409 C   0  0  0  0  0  0  0  0  0  0  0  0
   20.1750   -1.5579   56.0462 C   0  0  0  0  0  0  0  0  0  0  0  0
   20.5273   -0.1983   55.9623 C   0  0  0  0  0  0  0  0  0  0  0  0
   20.2555    0.5686   54.8589 O   0  0  0  0  0  0  0  0  0  0  0  0
   20.0562   -0.0840   53.6060 C   0  0  0  0  0  0  0  0  0  0  0  0
   21.3940   -0.1695   52.8916 C   0  0  0  0  0  0  0  0  0  0  0  0
   21.2190   -0.7270   51.4958 C   0  0  0  0  0  0  0  0  0  0  0  0
   20.3078    0.0789   50.7538 O   0  0  0  0  0  0  0  0  0  0  0  0
   19.0212    0.1197   51.3720 C   0  0  0  0  0  0  0  0  0  0  0  0
   19.0612    0.7120   52.7715 C   0  0  0  0  0  0  0  0  0  0  0  0
   22.1461    2.2972   58.1596 O   0  0  0  0  0  0  0  0  0  0  0  0
   22.1317    4.2879   54.9043 H   0  0  0  0  0  0  0  0  0  0  0  0
   23.2701    3.9171   56.2337 H   0  0  0  0  0  0  0  0  0  0  0  0
   21.6352    4.5320   56.6053 H   0  0  0  0  0  0  0  0  0  0  0  0
   21.3583    2.1198   55.1215 H   0  0  0  0  0  0  0  0  0  0  0  0
   21.5737    0.2342   59.1747 H   0  0  0  0  0  0  0  0  0  0  0  0
   20.9032   -2.1302   59.3055 H   0  0  0  0  0  0  0  0  0  0  0  0
   20.0447   -3.3079   57.3081 H   0  0  0  0  0  0  0  0  0  0  0  0
   19.7709   -2.1096   55.2031 H   0  0  0  0  0  0  0  0  0  0  0  0
   19.6436   -1.0879   53.7040 H   0  0  0  0  0  0  0  0  0  0  0  0
   22.0657   -0.8140   53.4645 H   0  0  0  0  0  0  0  0  0  0  0  0
   21.8347    0.8345   52.8393 H   0  0  0  0  0  0  0  0  0  0  0  0
   20.8321   -1.7502   51.5494 H   0  0  0  0  0  0  0  0  0  0  0  0
   22.1891   -0.7416   50.9846 H   0  0  0  0  0  0  0  0  0  0  0  0
   18.6325   -0.9000   51.4351 H   0  0  0  0  0  0  0  0  0  0  0  0
   18.3579    0.7231   50.7479 H   0  0  0  0  0  0  0  0  0  0  0  0
   19.3567    1.7693   52.7358 H   0  0  0  0  0  0  0  0  0  0  0  0
   18.0609    0.6607   53.2257 H   0  0  0  0  0  0  0  0  0  0  0  0
  1  2  1  0  0  0  0
  1 18  1  0  0  0  0
  1 19  1  0  0  0  0
  1 20  1  0  0  0  0
  2  3  1  0  0  0  0
  2 21  1  0  0  0  0
  3  4  1  0  0  0  0
  3 17  2  0  0  0  0
  4  5  2  0  0  0  0
  4  9  1  0  0  0  0
  5  6  1  0  0  0  0
  5 22  1  0  0  0  0
  6  7  2  0  0  0  0
  6 23  1  0  0  0  0
  7  8  1  0  0  0  0
  7 24  1  0  0  0  0
  8  9  2  0  0  0  0
  8 25  1  0  0  0  0
  9 10  1  0  0  0  0
 10 11  1  0  0  0  0
 11 12  1  0  0  0  0
 11 16  1  0  0  0  0
 11 26  1  0  0  0  0
 12 13  1  0  0  0  0
 12 27  1  0  0  0  0
 12 28  1  0  0  0  0
 13 14  1  0  0  0  0
 13 29  1  0  0  0  0
 13 30  1  0  0  0  0
 14 15  1  0  0  0  0
 15 16  1  0  0  0  0
 15 31  1  0  0  0  0
 15 32  1  0  0  0  0
 16 33  1  0  0  0  0
 16 34  1  0  0  0  0
M  END
$$$$
