38O
 OpenBabel04161909353D

 51 55  0  0  1  0  0  0  0  0999 V2000
  220.0566  -10.5059   31.9262 C   0  0  0  0  0  0  0  0  0  0  0  0
  221.0366   -9.5977   29.8349 C   0  0  0  0  0  0  0  0  0  0  0  0
  220.6849   -9.3874   28.3622 C   0  0  0  0  0  0  0  0  0  0  0  0
  218.8805   -7.8742   29.3922 C   0  0  0  0  0  0  0  0  0  0  0  0
  218.8623   -8.7418   30.6635 C   0  0  0  0  0  0  0  0  0  0  0  0
  219.1729   -8.0359   26.9982 C   0  0  0  0  0  0  0  0  0  0  0  0
  217.0933   -7.5726   22.9388 C   0  0  0  0  0  0  0  0  0  0  0  0
  217.9344   -6.6186   23.3134 N   0  0  0  0  0  0  0  0  0  0  0  0
  219.3527   -6.2749   25.3368 C   0  0  0  0  0  0  0  0  0  0  0  0
  219.7118   -6.8200   26.5696 C   0  0  0  0  0  0  0  0  0  0  0  0
  216.3447   -7.6856   21.7047 C   0  0  0  0  0  0  0  0  0  0  0  0
  216.5853   -6.8274   20.6640 C   0  0  0  0  0  0  0  0  0  0  0  0
  215.9834   -6.1665   18.2249 C   0  0  0  0  0  0  0  0  0  0  0  0
  215.2286   -6.3750   17.0617 C   0  0  0  0  0  0  0  0  0  0  0  0
  214.2753   -7.4095   17.0290 C   0  0  0  0  0  0  0  0  0  0  0  0
  215.0411   -9.5435   22.4722 O   0  0  0  0  0  0  0  0  0  0  0  0
  219.7671   -9.9531   30.5792 N   0  3  2  0  0  0  0  0  0  0  0  0
  219.5000   -8.5407   28.2476 N   0  0  0  0  0  0  0  0  0  0  0  0
  218.2425   -8.7387   26.1983 C   0  0  0  0  0  0  0  0  0  0  0  0
  217.8882   -8.1728   24.9648 C   0  0  0  0  0  0  0  0  0  0  0  0
  217.0357   -8.5450   23.9387 N   0  3  0  0  0  0  0  0  0  0  0  0
  218.4280   -6.9648   24.5376 C   0  0  0  0  0  0  0  0  0  0  0  0
  217.5275   -5.8195   20.7125 N   0  0  0  0  0  0  0  0  0  0  0  0
  215.8178   -6.9695   19.3752 C   0  0  0  0  0  0  0  0  0  0  0  0
  216.8831   -5.1678   18.2001 F   0  0  0  0  0  0  0  0  0  0  0  0
  214.0920   -8.2126   18.1389 C   0  0  0  0  0  0  0  0  0  0  0  0
  214.8541   -7.9949   19.2895 C   0  0  0  0  0  0  0  0  0  0  0  0
  214.6337   -8.8368   20.3754 N   0  3  0  0  0  0  0  0  0  0  0  0
  215.2969   -8.7515   21.5609 C   0  0  0  0  0  0  0  0  0  0  0  0
  220.6886  -11.3866   31.8014 H   0  0  0  0  0  0  0  0  0  0  0  0
  219.1063  -10.7687   32.3937 H   0  0  0  0  0  0  0  0  0  0  0  0
  220.5763   -9.7297   32.4943 H   0  0  0  0  0  0  0  0  0  0  0  0
  221.4166   -8.6742   30.2871 H   0  0  0  0  0  0  0  0  0  0  0  0
  221.7538  -10.4093   29.9736 H   0  0  0  0  0  0  0  0  0  0  0  0
  220.4321  -10.3599   27.9194 H   0  0  0  0  0  0  0  0  0  0  0  0
  221.5656   -8.9941   27.8425 H   0  0  0  0  0  0  0  0  0  0  0  0
  219.3744   -6.9228   29.6309 H   0  0  0  0  0  0  0  0  0  0  0  0
  217.8373   -7.6488   29.1437 H   0  0  0  0  0  0  0  0  0  0  0  0
  217.8547   -9.1146   30.8667 H   0  0  0  0  0  0  0  0  0  0  0  0
  219.2116   -8.1500   31.5154 H   0  0  0  0  0  0  0  0  0  0  0  0
  219.7829   -5.3338   25.0072 H   0  0  0  0  0  0  0  0  0  0  0  0
  220.4170   -6.2820   27.1983 H   0  0  0  0  0  0  0  0  0  0  0  0
  215.3688   -5.7515   16.1826 H   0  0  0  0  0  0  0  0  0  0  0  0
  213.6922   -7.5673   16.1257 H   0  0  0  0  0  0  0  0  0  0  0  0
  217.8073   -9.6704   26.5465 H   0  0  0  0  0  0  0  0  0  0  0  0
  216.4532   -9.3741   23.9001 H   0  0  0  0  0  0  0  0  0  0  0  0
  218.0507   -5.6887   21.5813 H   0  0  0  0  0  0  0  0  0  0  0  0
  217.6931   -5.1914   19.9342 H   0  0  0  0  0  0  0  0  0  0  0  0
  213.3461   -9.0090   18.0946 H   0  0  0  0  0  0  0  0  0  0  0  0
  213.9398   -9.5742   20.3106 H   0  0  0  0  0  0  0  0  0  0  0  0
  219.2682  -10.6553   30.0099 H   0  0  0  0  0  0  0  0  0  0  0  0
  1 17  1  0  0  0  0
  1 30  1  0  0  0  0
  1 31  1  0  0  0  0
  1 32  1  0  0  0  0
  2  3  1  0  0  0  0
  2 17  1  0  0  0  0
  2 33  1  0  0  0  0
  2 34  1  0  0  0  0
  3 18  1  0  0  0  0
  3 35  1  0  0  0  0
  3 36  1  0  0  0  0
  4  5  1  0  0  0  0
  4 18  1  0  0  0  0
  4 37  1  0  0  0  0
  4 38  1  0  0  0  0
  5 17  1  0  0  0  0
  5 39  1  0  0  0  0
  5 40  1  0  0  0  0
  6 10  2  0  0  0  0
  6 18  1  0  0  0  0
  6 19  1  0  0  0  0
  7  8  1  0  0  0  0
  7 11  1  0  0  0  0
  7 21  2  0  0  0  0
  8 22  1  0  0  0  0
  9 10  1  0  0  0  0
  9 22  2  0  0  0  0
  9 41  1  0  0  0  0
 10 42  1  0  0  0  0
 11 12  2  0  0  0  0
 11 29  1  0  0  0  0
 12 23  1  0  0  0  0
 12 24  1  0  0  0  0
 13 14  2  0  0  0  0
 13 24  1  0  0  0  0
 13 25  1  0  0  0  0
 14 15  1  0  0  0  0
 14 43  1  0  0  0  0
 15 26  2  0  0  0  0
 15 44  1  0  0  0  0
 16 29  2  0  0  0  0
 17 51  1  6  0  0  0
 19 20  2  0  0  0  0
 19 45  1  0  0  0  0
 20 21  1  0  0  0  0
 20 22  1  0  0  0  0
 21 46  1  0  0  0  0
 23 47  1  0  0  0  0
 23 48  1  0  0  0  0
 24 27  2  0  0  0  0
 26 27  1  0  0  0  0
 26 49  1  0  0  0  0
 27 28  1  0  0  0  0
 28 29  1  0  0  0  0
 28 50  1  0  0  0  0
M  CHG  3  17   1  21   1  28   1
M  END
$$$$
