3FE
 OpenBabel04161911413D

 38 41  0  0  0  0  0  0  0  0999 V2000
    4.1603   -1.6286   20.3173 N   0  0  0  0  0  0  0  0  0  0  0  0
    8.1082   -4.5123   16.8294 C   0  0  0  0  0  0  0  0  0  0  0  0
    2.8056   -3.4253   19.5560 N   0  0  0  0  0  0  0  0  0  0  0  0
    6.3174   -3.3634   18.0753 C   0  0  0  0  0  0  0  0  0  0  0  0
    5.8798   -4.5376   15.9682 C   0  0  0  0  0  0  0  0  0  0  0  0
    5.1402   -2.1437   19.5392 C   0  0  0  0  0  0  0  0  0  0  0  0
    2.0987   -5.3710   17.8886 C   0  0  0  0  0  0  0  0  0  0  0  0
    7.1195   -2.3463   18.5361 C   0  0  0  0  0  0  0  0  0  0  0  0
   11.0864   -5.7237   15.5758 N   0  0  0  0  0  0  0  0  0  0  0  0
    4.4953   -6.0865   17.9942 C   0  0  0  0  0  0  0  0  0  0  0  0
    6.2939   -5.3315   14.8978 C   0  0  0  0  0  0  0  0  0  0  0  0
    7.6315   -5.6689   14.7575 C   0  0  0  0  0  0  0  0  0  0  0  0
    8.5403   -5.2441   15.7247 C   0  0  0  0  0  0  0  0  0  0  0  0
    6.7795   -4.1804   16.9735 C   0  0  0  0  0  0  0  0  0  0  0  0
    6.3983   -1.5974   19.4204 N   0  3  0  0  0  0  0  0  0  0  0  0
    5.0482   -3.2514   18.7352 C   0  0  0  0  0  0  0  0  0  0  0  0
    3.7949   -3.9077   18.7647 C   0  0  0  0  0  0  0  0  0  0  0  0
    3.0179   -2.3352   20.2820 C   0  0  0  0  0  0  0  0  0  0  0  0
    3.5056   -5.0303   18.0335 N   0  0  0  0  0  0  0  0  0  0  0  0
    1.9696   -6.3956   16.7650 C   0  0  0  0  0  0  0  0  0  0  0  0
    2.8005   -7.5448   16.9663 O   0  0  0  0  0  0  0  0  0  0  0  0
    4.1865   -7.2014   17.0136 C   0  0  0  0  0  0  0  0  0  0  0  0
    9.9056   -5.5241   15.6160 C   0  0  0  0  0  0  0  0  0  0  0  0
    8.8376   -4.1303   17.5350 H   0  0  0  0  0  0  0  0  0  0  0  0
    4.8305   -4.2591   16.0751 H   0  0  0  0  0  0  0  0  0  0  0  0
    1.5249   -4.4727   17.6013 H   0  0  0  0  0  0  0  0  0  0  0  0
    1.6758   -5.7687   18.8199 H   0  0  0  0  0  0  0  0  0  0  0  0
    8.1373   -2.1061   18.2543 H   0  0  0  0  0  0  0  0  0  0  0  0
    4.7134   -6.4874   18.9752 H   0  0  0  0  0  0  0  0  0  0  0  0
    5.4260   -5.6814   17.6797 H   0  0  0  0  0  0  0  0  0  0  0  0
    5.5653   -5.6571   14.1678 H   0  0  0  0  0  0  0  0  0  0  0  0
    7.9684   -6.2344   13.8922 H   0  0  0  0  0  0  0  0  0  0  0  0
    6.7260   -0.7744   19.8975 H   0  0  0  0  0  0  0  0  0  0  0  0
    2.1964   -1.9812   20.9025 H   0  0  0  0  0  0  0  0  0  0  0  0
    2.2404   -5.9350   15.8072 H   0  0  0  0  0  0  0  0  0  0  0  0
    0.9419   -6.7618   16.7153 H   0  0  0  0  0  0  0  0  0  0  0  0
    4.7228   -8.1010   17.3294 H   0  0  0  0  0  0  0  0  0  0  0  0
    4.5178   -6.9485   16.0008 H   0  0  0  0  0  0  0  0  0  0  0  0
  1  6  1  0  0  0  0
  1 18  1  0  0  0  0
  2 13  2  0  0  0  0
  2 14  1  0  0  0  0
  2 24  1  0  0  0  0
  3 17  1  0  0  0  0
  3 18  2  0  0  0  0
  4  8  2  0  0  0  0
  4 14  1  0  0  0  0
  4 16  1  0  0  0  0
  5 11  1  0  0  0  0
  5 14  2  0  0  0  0
  5 25  1  0  0  0  0
  6 15  2  0  0  0  0
  6 16  1  0  0  0  0
  7 19  1  0  0  0  0
  7 20  1  0  0  0  0
  7 26  1  0  0  0  0
  7 27  1  0  0  0  0
  8 15  1  0  0  0  0
  8 28  1  0  0  0  0
  9 23  3  0  0  0  0
 10 19  1  0  0  0  0
 10 22  1  0  0  0  0
 10 29  1  0  0  0  0
 10 30  1  0  0  0  0
 11 12  2  0  0  0  0
 11 31  1  0  0  0  0
 12 13  1  0  0  0  0
 12 32  1  0  0  0  0
 13 23  1  0  0  0  0
 15 33  1  0  0  0  0
 16 17  2  0  0  0  0
 17 19  1  0  0  0  0
 18 34  1  0  0  0  0
 20 21  1  0  0  0  0
 20 35  1  0  0  0  0
 20 36  1  0  0  0  0
 21 22  1  0  0  0  0
 22 37  1  0  0  0  0
 22 38  1  0  0  0  0
M  CHG  1  15   1
M  END
$$$$
