3R9
 OpenBabel04161910073D

 24 25  0  0  1  0  0  0  0  0999 V2000
  -15.2480   24.0856    0.0725 O   0  0  0  0  0  0  0  0  0  0  0  0
  -17.4558   26.0097   -2.1532 N   0  3  2  0  0  0  0  0  0  0  0  0
  -16.1822   24.3738   -0.7153 C   0  0  0  0  0  0  0  0  0  0  0  0
  -17.2059   23.7326   -1.1096 O   0  0  0  0  0  0  0  0  0  0  0  0
  -16.1470   25.7798   -1.3600 C   0  0  1  0  0  0  0  0  0  0  0  0
  -15.0089   25.8004   -2.3639 C   0  0  0  0  0  0  0  0  0  0  0  0
  -15.5382   26.8031   -3.7718 S   0  0  0  0  0  0  0  0  0  0  0  0
  -17.2720   26.8880   -3.3205 C   0  0  2  0  0  0  0  0  0  0  0  0
  -17.7399   28.3054   -2.9383 C   0  0  0  0  0  0  0  0  0  0  0  0
  -18.3029   28.2352   -1.2208 S   0  0  0  0  0  0  0  0  0  0  0  0
  -18.6063   26.4463   -1.3054 C   0  0  1  0  0  0  0  0  0  0  0  0
  -19.9251   26.1283   -2.0474 C   0  0  0  0  0  0  0  0  0  0  0  0
  -21.4309   26.7571   -1.2449 S   0  0  0  0  0  0  0  0  0  0  0  0
  -16.0463   26.5703   -0.6071 H   0  0  0  0  0  0  0  0  0  0  0  0
  -14.7393   24.7980   -2.7272 H   0  0  0  0  0  0  0  0  0  0  0  0
  -14.1142   26.2468   -1.9240 H   0  0  0  0  0  0  0  0  0  0  0  0
  -17.8830   26.4748   -4.1330 H   0  0  0  0  0  0  0  0  0  0  0  0
  -18.5949   28.5962   -3.5635 H   0  0  0  0  0  0  0  0  0  0  0  0
  -16.9685   29.0740   -3.0479 H   0  0  0  0  0  0  0  0  0  0  0  0
  -18.5533   25.9544   -0.3262 H   0  0  0  0  0  0  0  0  0  0  0  0
  -20.0235   25.0486   -2.1987 H   0  0  0  0  0  0  0  0  0  0  0  0
  -19.9172   26.5737   -3.0492 H   0  0  0  0  0  0  0  0  0  0  0  0
  -21.2806   26.1116   -0.0803 H   0  0  0  0  0  0  0  0  0  0  0  0
  -17.6558   25.0176   -2.4011 H   0  0  0  0  0  0  0  0  0  0  0  0
  1  3  2  0  0  0  0
  2  5  1  0  0  0  0
  2  8  1  0  0  0  0
  2 11  1  0  0  0  0
  2 24  1  6  0  0  0
  3  4  1  0  0  0  0
  3  5  1  0  0  0  0
  5  6  1  0  0  0  0
  5 14  1  1  0  0  0
  6  7  1  0  0  0  0
  6 15  1  0  0  0  0
  6 16  1  0  0  0  0
  7  8  1  0  0  0  0
  8  9  1  0  0  0  0
  8 17  1  6  0  0  0
  9 10  1  0  0  0  0
  9 18  1  0  0  0  0
  9 19  1  0  0  0  0
 10 11  1  0  0  0  0
 11 12  1  0  0  0  0
 11 20  1  1  0  0  0
 12 13  1  0  0  0  0
 12 21  1  0  0  0  0
 12 22  1  0  0  0  0
 13 23  1  0  0  0  0
M  CHG  1   2   1
M  END
$$$$
