3R9
 OpenBabel04161910073D

 24 25  0  0  1  0  0  0  0  0999 V2000
   -3.8719   -2.1000   40.0920 O   0  0  0  0  0  0  0  0  0  0  0  0
   -4.6940   -5.6092   40.4006 N   0  3  2  0  0  0  0  0  0  0  0  0
   -4.6439   -3.0877   40.1359 C   0  0  0  0  0  0  0  0  0  0  0  0
   -5.7094   -3.3634   39.5125 O   0  0  0  0  0  0  0  0  0  0  0  0
   -4.1872   -4.2825   41.0005 C   0  0  1  0  0  0  0  0  0  0  0  0
   -4.8703   -4.0942   42.3444 C   0  0  0  0  0  0  0  0  0  0  0  0
   -5.7558   -5.6324   42.7607 S   0  0  0  0  0  0  0  0  0  0  0  0
   -5.0558   -6.5871   41.4238 C   0  0  2  0  0  0  0  0  0  0  0  0
   -3.7666   -7.3195   41.8090 C   0  0  0  0  0  0  0  0  0  0  0  0
   -2.7137   -7.2973   40.3227 S   0  0  0  0  0  0  0  0  0  0  0  0
   -3.7994   -6.1921   39.3673 C   0  0  1  0  0  0  0  0  0  0  0  0
   -4.6126   -7.0084   38.3413 C   0  0  0  0  0  0  0  0  0  0  0  0
   -5.8235   -5.9320   37.5247 S   0  0  0  0  0  0  0  0  0  0  0  0
   -3.0978   -4.3392   41.0965 H   0  0  0  0  0  0  0  0  0  0  0  0
   -5.5739   -3.2604   42.3810 H   0  0  0  0  0  0  0  0  0  0  0  0
   -4.1209   -3.9232   43.1254 H   0  0  0  0  0  0  0  0  0  0  0  0
   -5.7949   -7.2693   41.0041 H   0  0  0  0  0  0  0  0  0  0  0  0
   -3.9725   -8.3547   42.1014 H   0  0  0  0  0  0  0  0  0  0  0  0
   -3.2274   -6.8268   42.6168 H   0  0  0  0  0  0  0  0  0  0  0  0
   -3.2291   -5.3950   38.8735 H   0  0  0  0  0  0  0  0  0  0  0  0
   -5.1555   -7.8329   38.8249 H   0  0  0  0  0  0  0  0  0  0  0  0
   -3.9568   -7.4523   37.5819 H   0  0  0  0  0  0  0  0  0  0  0  0
   -6.4204   -6.8392   36.7517 H   0  0  0  0  0  0  0  0  0  0  0  0
   -5.5398   -5.2434   39.8953 H   0  0  0  0  0  0  0  0  0  0  0  0
  1  3  2  0  0  0  0
  2  5  1  0  0  0  0
  2  8  1  0  0  0  0
  2 11  1  0  0  0  0
  2 24  1  6  0  0  0
  3  4  1  0  0  0  0
  3  5  1  0  0  0  0
  5  6  1  0  0  0  0
  5 14  1  1  0  0  0
  6  7  1  0  0  0  0
  6 15  1  0  0  0  0
  6 16  1  0  0  0  0
  7  8  1  0  0  0  0
  8  9  1  0  0  0  0
  8 17  1  6  0  0  0
  9 10  1  0  0  0  0
  9 18  1  0  0  0  0
  9 19  1  0  0  0  0
 10 11  1  0  0  0  0
 11 12  1  0  0  0  0
 11 20  1  6  0  0  0
 12 13  1  0  0  0  0
 12 21  1  0  0  0  0
 12 22  1  0  0  0  0
 13 23  1  0  0  0  0
M  CHG  1   2   1
M  END
$$$$
