3VN
 OpenBabel04161910113D

 54 53  0  0  1  0  0  0  0  0999 V2000
   30.8431  -14.3862  -12.1939 N   0  3  0  0  0  0  0  0  0  0  0  0
   31.1380  -13.2008  -13.0806 C   0  0  2  0  0  0  0  0  0  0  0  0
   29.8363  -12.4581  -13.5246 C   0  0  0  0  0  0  0  0  0  0  0  0
   29.9587  -11.3005  -13.9774 O   0  0  0  0  0  0  0  0  0  0  0  0
   28.8305  -13.1903  -13.2833 O   0  0  0  0  0  0  0  0  0  0  0  0
   31.9517  -13.6758  -14.3015 C   0  0  0  0  0  0  0  0  0  0  0  0
   31.1273  -14.3369  -15.3934 C   0  0  0  0  0  0  0  0  0  0  0  0
   31.8850  -15.4853  -16.0630 C   0  0  0  0  0  0  0  0  0  0  0  0
   31.0145  -16.1093  -17.1471 C   0  0  0  0  0  0  0  0  0  0  0  0
   31.4442  -17.4920  -17.4432 N   0  3  0  0  0  0  0  0  0  0  0  0
   31.9238  -12.2043  -12.2534 C   0  0  0  0  0  0  0  0  0  0  0  0
   33.3051  -12.6645  -11.7610 C   0  0  0  0  0  0  0  0  0  0  0  0
   34.0739  -11.5365  -11.0575 C   0  0  2  0  0  0  0  0  0  0  0  0
   33.4146  -11.3027   -9.7226 N   0  3  0  0  0  0  0  0  0  0  0  0
   34.0450  -10.2492  -11.8842 C   0  0  0  0  0  0  0  0  0  0  0  0
   34.6725   -9.0291  -11.2536 C   0  0  0  0  0  0  0  0  0  0  0  0
   34.5829   -7.8296  -12.2106 C   0  0  0  0  0  0  0  0  0  0  0  0
   33.5016   -6.8478  -11.7747 C   0  0  0  0  0  0  0  0  0  0  0  0
   33.2953   -5.7983  -12.7934 N   0  3  0  0  0  0  0  0  0  0  0  0
   35.5535  -12.0632  -10.8784 C   0  0  0  0  0  0  0  0  0  0  0  0
   36.2299  -12.1466  -11.9101 O   0  0  0  0  0  0  0  0  0  0  0  0
   35.7708  -12.2818   -9.6556 O   0  0  0  0  0  0  0  0  0  0  0  0
   31.6575  -14.9201  -11.8942 H   0  0  0  0  0  0  0  0  0  0  0  0
   30.2714  -14.0602  -11.4084 H   0  0  0  0  0  0  0  0  0  0  0  0
   32.7401  -14.3417  -13.9546 H   0  0  0  0  0  0  0  0  0  0  0  0
   32.4491  -12.7949  -14.7380 H   0  0  0  0  0  0  0  0  0  0  0  0
   30.8704  -13.5792  -16.1445 H   0  0  0  0  0  0  0  0  0  0  0  0
   30.1884  -14.7291  -14.9922 H   0  0  0  0  0  0  0  0  0  0  0  0
   32.1597  -16.2244  -15.3005 H   0  0  0  0  0  0  0  0  0  0  0  0
   32.8147  -15.1053  -16.5036 H   0  0  0  0  0  0  0  0  0  0  0  0
   31.0948  -15.5465  -18.0803 H   0  0  0  0  0  0  0  0  0  0  0  0
   29.9678  -16.1755  -16.8387 H   0  0  0  0  0  0  0  0  0  0  0  0
   30.8463  -17.8894  -18.1814 H   0  0  0  0  0  0  0  0  0  0  0  0
   32.4125  -17.5492  -17.7818 H   0  0  0  0  0  0  0  0  0  0  0  0
   31.3185  -11.8590  -11.4039 H   0  0  0  0  0  0  0  0  0  0  0  0
   32.0663  -11.3480  -12.9141 H   0  0  0  0  0  0  0  0  0  0  0  0
   33.8908  -13.0138  -12.6199 H   0  0  0  0  0  0  0  0  0  0  0  0
   33.1889  -13.5284  -11.0904 H   0  0  0  0  0  0  0  0  0  0  0  0
   34.0250  -10.6679   -9.1886 H   0  0  0  0  0  0  0  0  0  0  0  0
   32.4486  -10.9800   -9.7550 H   0  0  0  0  0  0  0  0  0  0  0  0
   33.0066   -9.9646  -12.0780 H   0  0  0  0  0  0  0  0  0  0  0  0
   34.5085  -10.4579  -12.8601 H   0  0  0  0  0  0  0  0  0  0  0  0
   35.7193   -9.2450  -11.0294 H   0  0  0  0  0  0  0  0  0  0  0  0
   34.1629   -8.7987  -10.3108 H   0  0  0  0  0  0  0  0  0  0  0  0
   34.4065   -8.1630  -13.2405 H   0  0  0  0  0  0  0  0  0  0  0  0
   35.5533   -7.3205  -12.1976 H   0  0  0  0  0  0  0  0  0  0  0  0
   33.7922   -6.3375  -10.8524 H   0  0  0  0  0  0  0  0  0  0  0  0
   32.5365   -7.3430  -11.6376 H   0  0  0  0  0  0  0  0  0  0  0  0
   32.5701   -5.1355  -12.4790 H   0  0  0  0  0  0  0  0  0  0  0  0
   34.1438   -5.2463  -12.9724 H   0  0  0  0  0  0  0  0  0  0  0  0
   30.1541  -14.9691  -12.7080 H   0  0  0  0  0  0  0  0  0  0  0  0
   31.3528  -18.1206  -16.6303 H   0  0  0  0  0  0  0  0  0  0  0  0
   33.5356  -12.1679   -9.1698 H   0  0  0  0  0  0  0  0  0  0  0  0
   32.9723   -6.1796  -13.6939 H   0  0  0  0  0  0  0  0  0  0  0  0
  1 23  1  0  0  0  0
  1 24  1  0  0  0  0
  1 51  1  0  0  0  0
  2  1  1  1  0  0  0
  2  3  1  0  0  0  0
  2  6  1  0  0  0  0
  2 11  1  0  0  0  0
  3  4  2  0  0  0  0
  3  5  1  0  0  0  0
  6  7  1  0  0  0  0
  6 25  1  0  0  0  0
  6 26  1  0  0  0  0
  7  8  1  0  0  0  0
  7 27  1  0  0  0  0
  7 28  1  0  0  0  0
  8  9  1  0  0  0  0
  8 29  1  0  0  0  0
  8 30  1  0  0  0  0
  9 10  1  0  0  0  0
  9 31  1  0  0  0  0
  9 32  1  0  0  0  0
 10 33  1  0  0  0  0
 10 34  1  0  0  0  0
 10 52  1  0  0  0  0
 11 12  1  0  0  0  0
 11 35  1  0  0  0  0
 11 36  1  0  0  0  0
 12 37  1  0  0  0  0
 12 38  1  0  0  0  0
 13 12  1  6  0  0  0
 13 14  1  0  0  0  0
 13 15  1  0  0  0  0
 13 20  1  0  0  0  0
 14 39  1  0  0  0  0
 14 40  1  0  0  0  0
 14 53  1  0  0  0  0
 15 16  1  0  0  0  0
 15 41  1  0  0  0  0
 15 42  1  0  0  0  0
 16 17  1  0  0  0  0
 16 43  1  0  0  0  0
 16 44  1  0  0  0  0
 17 18  1  0  0  0  0
 17 45  1  0  0  0  0
 17 46  1  0  0  0  0
 18 19  1  0  0  0  0
 18 47  1  0  0  0  0
 18 48  1  0  0  0  0
 19 49  1  0  0  0  0
 19 50  1  0  0  0  0
 19 54  1  0  0  0  0
 20 21  2  0  0  0  0
 20 22  1  0  0  0  0
M  CHG  4   1   1  10   1  14   1  19   1
M  END
$$$$
