42O
 OpenBabel04161910113D

 45 49  0  0  1  0  0  0  0  0999 V2000
    9.2691    4.6126   15.8696 O   0  0  0  0  0  0  0  0  0  0  0  0
    8.8095    5.5914   16.5317 C   0  0  0  0  0  0  0  0  0  0  0  0
    7.2804    5.6068   16.7973 C   0  0  2  0  0  0  0  0  0  0  0  0
    6.9377    6.2349   18.1401 C   0  0  0  0  0  0  0  0  0  0  0  0
    6.4322    3.7065   18.0035 C   0  0  0  0  0  0  0  0  0  0  0  0
    5.9629    2.4443   18.1517 C   0  0  0  0  0  0  0  0  0  0  0  0
    5.6221    1.8197   19.4587 C   0  0  0  0  0  0  0  0  0  0  0  0
    6.1476    0.4607   19.8724 C   0  0  0  0  0  0  0  0  0  0  0  0
    6.6776    1.6879   20.5379 C   0  0  0  0  0  0  0  0  0  0  0  0
    5.6487    1.7027   16.9033 C   0  0  0  0  0  0  0  0  0  0  0  0
    5.0385    0.3115   16.9711 C   0  0  0  0  0  0  0  0  0  0  0  0
    4.2356   -0.0928   15.7409 C   0  0  0  0  0  0  0  0  0  0  0  0
    2.8539    0.1687   15.7415 C   0  0  0  0  0  0  0  0  0  0  0  0
    2.0860   -0.0846   14.6119 C   0  0  0  0  0  0  0  0  0  0  0  0
    2.6912   -0.5893   13.4615 C   0  0  0  0  0  0  0  0  0  0  0  0
    4.0713   -0.8469   13.4222 C   0  0  0  0  0  0  0  0  0  0  0  0
    4.6828   -1.3143   12.2444 C   0  0  0  0  0  0  0  0  0  0  0  0
    6.0614   -1.5295   12.1839 C   0  0  0  0  0  0  0  0  0  0  0  0
    6.8506   -1.2787   13.2984 C   0  0  0  0  0  0  0  0  0  0  0  0
    9.4566    6.5626   17.0177 O   0  0  0  0  0  0  0  0  0  0  0  0
    6.7628    4.8253   19.2909 S   0  0  0  0  0  0  0  0  0  0  0  0
    6.2551   -0.8297   14.4735 C   0  0  0  0  0  0  0  0  0  0  0  0
    4.8633   -0.6121   14.5732 C   0  0  0  0  0  0  0  0  0  0  0  0
    5.8845    2.2931   15.7133 C   0  0  0  0  0  0  0  0  0  0  0  0
    6.4040    3.6629   15.5763 C   0  0  0  0  0  0  0  0  0  0  0  0
    6.4939    4.1552   14.4565 O   0  0  0  0  0  0  0  0  0  0  0  0
    6.6387    4.2899   16.7739 N   0  3  0  0  0  0  0  0  0  0  0  0
    6.8524    6.2164   15.9921 H   0  0  0  0  0  0  0  0  0  0  0  0
    5.9566    6.7211   18.0892 H   0  0  0  0  0  0  0  0  0  0  0  0
    7.6532    6.9653   18.5232 H   0  0  0  0  0  0  0  0  0  0  0  0
    4.6297    2.0924   19.8057 H   0  0  0  0  0  0  0  0  0  0  0  0
    6.8367   -0.0744   19.2273 H   0  0  0  0  0  0  0  0  0  0  0  0
    5.4892   -0.1796   20.4412 H   0  0  0  0  0  0  0  0  0  0  0  0
    6.3742    1.8895   21.5600 H   0  0  0  0  0  0  0  0  0  0  0  0
    7.7000    1.9745   20.3205 H   0  0  0  0  0  0  0  0  0  0  0  0
    4.3637    0.2242   17.8306 H   0  0  0  0  0  0  0  0  0  0  0  0
    5.8278   -0.4272   17.1508 H   0  0  0  0  0  0  0  0  0  0  0  0
    2.3797    0.6027   16.6203 H   0  0  0  0  0  0  0  0  0  0  0  0
    1.0211    0.1304   14.6197 H   0  0  0  0  0  0  0  0  0  0  0  0
    2.0763   -0.7558   12.5800 H   0  0  0  0  0  0  0  0  0  0  0  0
    4.0902   -1.4874   11.3510 H   0  0  0  0  0  0  0  0  0  0  0  0
    6.5232   -1.8698   11.2619 H   0  0  0  0  0  0  0  0  0  0  0  0
    7.9277   -1.4044   13.2556 H   0  0  0  0  0  0  0  0  0  0  0  0
    6.9204   -0.6015   15.3033 H   0  0  0  0  0  0  0  0  0  0  0  0
    5.6957    1.8411   14.7508 H   0  0  0  0  0  0  0  0  0  0  0  0
  1  2  2  0  0  0  0
  2  3  1  0  0  0  0
  2 20  1  0  0  0  0
  3  4  1  0  0  0  0
  3 27  1  0  0  0  0
  3 28  1  6  0  0  0
  4 21  1  0  0  0  0
  4 29  1  0  0  0  0
  4 30  1  0  0  0  0
  5  6  2  0  0  0  0
  5 21  1  0  0  0  0
  5 27  1  0  0  0  0
  6  7  1  0  0  0  0
  6 10  1  0  0  0  0
  7  8  1  0  0  0  0
  7  9  1  0  0  0  0
  7 31  1  0  0  0  0
  8  9  1  0  0  0  0
  8 32  1  0  0  0  0
  8 33  1  0  0  0  0
  9 34  1  0  0  0  0
  9 35  1  0  0  0  0
 10 11  1  0  0  0  0
 10 24  2  0  0  0  0
 11 12  1  0  0  0  0
 11 36  1  0  0  0  0
 11 37  1  0  0  0  0
 12 13  2  0  0  0  0
 12 23  1  0  0  0  0
 13 14  1  0  0  0  0
 13 38  1  0  0  0  0
 14 15  2  0  0  0  0
 14 39  1  0  0  0  0
 15 16  1  0  0  0  0
 15 40  1  0  0  0  0
 16 17  2  0  0  0  0
 16 23  1  0  0  0  0
 17 18  1  0  0  0  0
 17 41  1  0  0  0  0
 18 19  2  0  0  0  0
 18 42  1  0  0  0  0
 19 22  1  0  0  0  0
 19 43  1  0  0  0  0
 22 23  2  0  0  0  0
 22 44  1  0  0  0  0
 24 25  1  0  0  0  0
 24 45  1  0  0  0  0
 25 26  2  0  0  0  0
 25 27  1  0  0  0  0
M  CHG  1  27   1
M  END
$$$$
