45I
 OpenBabel04161909353D

 40 41  0  0  0  0  0  0  0  0999 V2000
   -3.2488    4.5987   11.5616 O   0  0  0  0  0  0  0  0  0  0  0  0
   -4.2497    3.8289   11.5548 C   0  0  0  0  0  0  0  0  0  0  0  0
   -4.9577    3.5155   10.5503 O   0  0  0  0  0  0  0  0  0  0  0  0
   -4.6306    3.1522   12.8414 C   0  0  0  0  0  0  0  0  0  0  0  0
   -4.3285    1.7891   13.0166 C   0  0  0  0  0  0  0  0  0  0  0  0
   -4.7229    1.1049   14.1736 C   0  0  0  0  0  0  0  0  0  0  0  0
   -5.4313    1.7792   15.1678 C   0  0  0  0  0  0  0  0  0  0  0  0
   -5.9819    1.0206   16.6628 S   0  0  0  0  0  0  0  0  0  0  0  0
   -7.4253    1.2214   16.7745 O   0  0  0  0  0  0  0  0  0  0  0  0
   -5.7872   -0.6068   16.4427 N   0  0  0  0  0  0  0  0  0  0  0  0
   -5.0754    1.4005   17.7023 O   0  0  0  0  0  0  0  0  0  0  0  0
   -5.7438    3.1242   15.0156 C   0  0  0  0  0  0  0  0  0  0  0  0
   -5.3549    3.8010   13.8501 C   0  0  0  0  0  0  0  0  0  0  0  0
   -5.7433    5.5312   13.7533 S   0  0  0  0  0  0  0  0  0  0  0  0
   -6.1172    5.9532   15.0926 O   0  0  0  0  0  0  0  0  0  0  0  0
   -6.5698    5.8130   12.6261 O   0  0  0  0  0  0  0  0  0  0  0  0
   -4.3025    6.2541   13.4637 N   0  0  0  0  0  0  0  0  0  0  0  0
   -3.2195    6.1769   14.4171 C   0  0  0  0  0  0  0  0  0  0  0  0
   -1.8985    6.5372   13.7640 C   0  0  0  0  0  0  0  0  0  0  0  0
   -1.8021    8.0100   13.4744 C   0  0  0  0  0  0  0  0  0  0  0  0
   -1.3373    8.8885   14.4575 C   0  0  0  0  0  0  0  0  0  0  0  0
   -1.2675   10.2533   14.1934 C   0  0  0  0  0  0  0  0  0  0  0  0
   -1.6625   10.7439   12.9485 C   0  0  0  0  0  0  0  0  0  0  0  0
   -2.1459    9.8739   11.9710 C   0  0  0  0  0  0  0  0  0  0  0  0
   -2.2131    8.5087   12.2326 C   0  0  0  0  0  0  0  0  0  0  0  0
   -3.7992    1.2613   12.2225 H   0  0  0  0  0  0  0  0  0  0  0  0
   -4.4613    0.0555   14.2500 H   0  0  0  0  0  0  0  0  0  0  0  0
   -6.0309   -1.1963   17.2260 H   0  0  0  0  0  0  0  0  0  0  0  0
   -5.3802   -0.9747   15.6021 H   0  0  0  0  0  0  0  0  0  0  0  0
   -6.2825    3.6396   15.8120 H   0  0  0  0  0  0  0  0  0  0  0  0
   -4.1506    6.5274   12.4913 H   0  0  0  0  0  0  0  0  0  0  0  0
   -3.1448    5.1757   14.8556 H   0  0  0  0  0  0  0  0  0  0  0  0
   -3.4699    6.8888   15.2104 H   0  0  0  0  0  0  0  0  0  0  0  0
   -1.7440    5.9791   12.8383 H   0  0  0  0  0  0  0  0  0  0  0  0
   -1.0821    6.2547   14.4426 H   0  0  0  0  0  0  0  0  0  0  0  0
   -1.0242    8.5036   15.4247 H   0  0  0  0  0  0  0  0  0  0  0  0
   -0.9048   10.9320   14.9588 H   0  0  0  0  0  0  0  0  0  0  0  0
   -1.5938   11.8061   12.7382 H   0  0  0  0  0  0  0  0  0  0  0  0
   -2.4693   10.2517   11.0054 H   0  0  0  0  0  0  0  0  0  0  0  0
   -2.5823    7.8251   11.4672 H   0  0  0  0  0  0  0  0  0  0  0  0
  1  2  2  0  0  0  0
  2  3  1  0  0  0  0
  2  4  1  0  0  0  0
  4  5  2  0  0  0  0
  4 13  1  0  0  0  0
  5  6  1  0  0  0  0
  5 26  1  0  0  0  0
  6  7  2  0  0  0  0
  6 27  1  0  0  0  0
  7  8  1  0  0  0  0
  7 12  1  0  0  0  0
  8  9  2  0  0  0  0
  8 10  1  0  0  0  0
  8 11  2  0  0  0  0
 10 28  1  0  0  0  0
 10 29  1  0  0  0  0
 12 13  2  0  0  0  0
 12 30  1  0  0  0  0
 13 14  1  0  0  0  0
 14 15  2  0  0  0  0
 14 16  2  0  0  0  0
 14 17  1  0  0  0  0
 17 18  1  0  0  0  0
 17 31  1  0  0  0  0
 18 19  1  0  0  0  0
 18 32  1  0  0  0  0
 18 33  1  0  0  0  0
 19 20  1  0  0  0  0
 19 34  1  0  0  0  0
 19 35  1  0  0  0  0
 20 21  2  0  0  0  0
 20 25  1  0  0  0  0
 21 22  1  0  0  0  0
 21 36  1  0  0  0  0
 22 23  2  0  0  0  0
 22 37  1  0  0  0  0
 23 24  1  0  0  0  0
 23 38  1  0  0  0  0
 24 25  2  0  0  0  0
 24 39  1  0  0  0  0
 25 40  1  0  0  0  0
M  END
$$$$
