4I8
 OpenBabel04161911183D

 21 22  0  0  0  0  0  0  0  0999 V2000
    1.0189   20.4142   71.7881 C   0  0  0  0  0  0  0  0  0  0  0  0
    2.2611   22.5444   74.9840 C   0  0  0  0  0  0  0  0  0  0  0  0
    2.7513   23.3731   75.9781 C   0  0  0  0  0  0  0  0  0  0  0  0
   -0.0051   22.6356   75.9286 C   0  0  0  0  0  0  0  0  0  0  0  0
    0.4098   21.3218   73.8410 C   0  0  0  0  0  0  0  0  0  0  0  0
    0.8967   22.1777   74.9454 C   0  0  0  0  0  0  0  0  0  0  0  0
    0.8418   24.7699   78.6092 C   0  0  0  0  0  0  0  0  0  0  0  0
    1.8454   23.8049   76.9052 C   0  0  0  0  0  0  0  0  0  0  0  0
    0.5089   23.4599   76.9059 C   0  0  0  0  0  0  0  0  0  0  0  0
    2.0420   24.6235   77.9731 N   0  3  0  0  0  0  0  0  0  0  0  0
   -0.7270   20.9116   73.7478 O   0  0  0  0  0  0  0  0  0  0  0  0
    0.6735   25.4426   79.6144 O   0  0  0  0  0  0  0  0  0  0  0  0
    1.4211   21.1145   72.9571 O   0  0  0  0  0  0  0  0  0  0  0  0
   -0.1736   24.0447   77.9583 O   0  0  0  0  0  0  0  0  0  0  0  0
    1.8884   20.3117   71.1363 H   0  0  0  0  0  0  0  0  0  0  0  0
    0.2513   20.9904   71.2652 H   0  0  0  0  0  0  0  0  0  0  0  0
    0.6545   19.4183   72.0587 H   0  0  0  0  0  0  0  0  0  0  0  0
    2.9531   22.1853   74.2249 H   0  0  0  0  0  0  0  0  0  0  0  0
    3.7904   23.6687   76.0122 H   0  0  0  0  0  0  0  0  0  0  0  0
   -1.0545   22.3668   75.9139 H   0  0  0  0  0  0  0  0  0  0  0  0
    2.9098   25.0465   78.2584 H   0  0  0  0  0  0  0  0  0  0  0  0
  1 13  1  0  0  0  0
  1 15  1  0  0  0  0
  1 16  1  0  0  0  0
  1 17  1  0  0  0  0
  2  3  2  0  0  0  0
  2  6  1  0  0  0  0
  2 18  1  0  0  0  0
  3  8  1  0  0  0  0
  3 19  1  0  0  0  0
  4  6  2  0  0  0  0
  4  9  1  0  0  0  0
  4 20  1  0  0  0  0
  5  6  1  0  0  0  0
  5 11  2  0  0  0  0
  5 13  1  0  0  0  0
  7 10  1  0  0  0  0
  7 12  2  0  0  0  0
  7 14  1  0  0  0  0
  8  9  2  0  0  0  0
  8 10  1  0  0  0  0
  9 14  1  0  0  0  0
 10 21  1  0  0  0  0
M  CHG  1  10   1
M  END
$$$$
