4IP
 OpenBabel04161909513D

 36 36  0  0  1  0  0  0  0  0999 V2000
    4.5364    8.7533    4.8729 C   0  0  2  0  0  0  0  0  0  0  0  0
    3.2711    9.1821    5.4247 O   0  0  0  0  0  0  0  0  0  0  0  0
    4.4128    7.4376    4.1065 C   0  0  2  0  0  0  0  0  0  0  0  0
    4.0311    6.3513    5.0077 O   0  0  0  0  0  0  0  0  0  0  0  0
    5.7263    7.1336    3.3161 C   0  0  2  0  0  0  0  0  0  0  0  0
    5.6670    5.8272    2.7325 O   0  0  0  0  0  0  0  0  0  0  0  0
    7.0642    7.6162    3.9993 C   0  0  2  0  0  0  0  0  0  0  0  0
    8.3623    7.0184    3.8294 O   0  0  0  0  0  0  0  0  0  0  0  0
    6.9745    8.3782    5.3678 C   0  0  2  0  0  0  0  0  0  0  0  0
    7.9034    7.9156    6.3698 O   0  0  0  0  0  0  0  0  0  0  0  0
    5.5770    8.5501    5.9832 C   0  0  1  0  0  0  0  0  0  0  0  0
    5.6020    9.7007    6.8791 O   0  0  0  0  0  0  0  0  0  0  0  0
    2.3767   10.2238    4.5468 P   0  0  0  0  0  0  0  0  0  0  0  0
    1.6249    9.4228    3.4963 O   0  0  0  0  0  0  0  0  0  0  0  0
    3.2939   11.3161    4.0155 O   0  0  0  0  0  0  0  0  0  0  0  0
    1.3842   10.7994    5.5966 O   0  0  0  0  0  0  0  0  0  0  0  0
    5.6754    5.8011    1.1128 P   0  0  0  0  0  0  0  0  0  0  0  0
    4.4660    6.5622    0.6623 O   0  0  0  0  0  0  0  0  0  0  0  0
    5.4438    4.2881    0.7382 O   0  0  0  0  0  0  0  0  0  0  0  0
    6.9240    6.4398    0.5540 O   0  0  0  0  0  0  0  0  0  0  0  0
    9.0182    5.5834    3.5278 P   0  0  0  0  0  0  0  0  0  0  0  0
    8.2667    4.4865    4.2932 O   0  0  0  0  0  0  0  0  0  0  0  0
   10.4764    5.6954    3.9831 O   0  0  0  0  0  0  0  0  0  0  0  0
    9.1061    5.3839    2.0237 O   0  0  0  0  0  0  0  0  0  0  0  0
    9.3295    8.6710    6.5278 P   0  0  0  0  0  0  0  0  0  0  0  0
   10.4650    7.6737    6.3926 O   0  0  0  0  0  0  0  0  0  0  0  0
    9.3858    9.8779    5.5484 O   0  0  0  0  0  0  0  0  0  0  0  0
    9.3289    9.1911    7.9898 O   0  0  0  0  0  0  0  0  0  0  0  0
    4.9032    9.5395    4.2049 H   0  0  0  0  0  0  0  0  0  0  0  0
    3.5895    7.5113    3.3946 H   0  0  0  0  0  0  0  0  0  0  0  0
    4.0919    5.5787    4.4131 H   0  0  0  0  0  0  0  0  0  0  0  0
    5.6284    7.8251    2.4708 H   0  0  0  0  0  0  0  0  0  0  0  0
    7.2151    8.4985    3.3502 H   0  0  0  0  0  0  0  0  0  0  0  0
    7.2483    9.4160    5.1559 H   0  0  0  0  0  0  0  0  0  0  0  0
    5.3251    7.6948    6.6268 H   0  0  0  0  0  0  0  0  0  0  0  0
    4.6746    9.8137    7.1403 H   0  0  0  0  0  0  0  0  0  0  0  0
  1  2  1  0  0  0  0
  1  3  1  0  0  0  0
  1 11  1  0  0  0  0
  1 29  1  6  0  0  0
  2 13  1  0  0  0  0
  3  4  1  0  0  0  0
  3  5  1  0  0  0  0
  3 30  1  6  0  0  0
  4 31  1  0  0  0  0
  5  6  1  0  0  0  0
  5  7  1  0  0  0  0
  5 32  1  6  0  0  0
  6 17  1  0  0  0  0
  7  8  1  0  0  0  0
  7  9  1  0  0  0  0
  7 33  1  6  0  0  0
  8 21  1  0  0  0  0
  9 10  1  0  0  0  0
  9 11  1  0  0  0  0
  9 34  1  6  0  0  0
 10 25  1  0  0  0  0
 11 12  1  0  0  0  0
 11 35  1  1  0  0  0
 12 36  1  0  0  0  0
 13 14  2  0  0  0  0
 13 15  1  0  0  0  0
 13 16  1  0  0  0  0
 17 18  2  0  0  0  0
 17 19  1  0  0  0  0
 17 20  1  0  0  0  0
 21 22  2  0  0  0  0
 21 23  1  0  0  0  0
 21 24  1  0  0  0  0
 25 26  2  0  0  0  0
 25 27  1  0  0  0  0
 25 28  1  0  0  0  0
M  END
$$$$
