4K4
 OpenBabel04161911403D

 81 86  0  0  0  0  0  0  0  0999 V2000
    4.5829   -4.7534   18.8281 C   0  0  0  0  0  0  0  0  0  0  0  0
    5.6046   -3.8077   18.8826 C   0  0  0  0  0  0  0  0  0  0  0  0
    5.2952   -2.6613   19.5944 C   0  0  0  0  0  0  0  0  0  0  0  0
    4.1244   -2.4286   20.1996 N   0  0  0  0  0  0  0  0  0  0  0  0
    3.4072   -4.5407   19.4334 N   0  0  0  0  0  0  0  0  0  0  0  0
   -3.1247  -11.2179   24.1358 C   0  0  0  0  0  0  0  0  0  0  0  0
   -2.9804  -12.7373   24.3977 C   0  0  0  0  0  0  0  0  0  0  0  0
   -4.2418  -13.4723   24.2110 N   0  0  0  0  0  0  0  0  0  0  0  0
   -4.0234  -14.9190   24.3344 C   0  0  0  0  0  0  0  0  0  0  0  0
   -4.9285  -13.1674   22.9440 C   0  0  0  0  0  0  0  0  0  0  0  0
   -5.0513  -11.6628   22.6384 C   0  0  0  0  0  0  0  0  0  0  0  0
   -3.6753  -11.0260   22.7197 N   0  3  0  0  0  0  0  0  0  0  0  0
   -3.5301   -9.7007   22.0001 C   0  0  0  0  0  0  0  0  0  0  0  0
   -4.7302   -8.7676   22.1039 C   0  0  0  0  0  0  0  0  0  0  0  0
   -4.5167   -7.5732   21.1752 C   0  0  0  0  0  0  0  0  0  0  0  0
   -2.3003   -8.9606   22.4880 C   0  0  0  0  0  0  0  0  0  0  0  0
   -2.0016   -7.7733   21.6012 C   0  0  0  0  0  0  0  0  0  0  0  0
   -3.1742   -6.9883   21.2263 N   0  0  0  0  0  0  0  0  0  0  0  0
   -3.0503   -5.6877   20.7250 C   0  0  0  0  0  0  0  0  0  0  0  0
   -4.0129   -4.9861   20.4233 O   0  0  0  0  0  0  0  0  0  0  0  0
   -1.7072   -5.0860   20.6540 C   0  0  0  0  0  0  0  0  0  0  0  0
   -1.3635   -4.2136   21.6852 C   0  0  0  0  0  0  0  0  0  0  0  0
   -0.1197   -3.5971   21.6685 C   0  0  0  0  0  0  0  0  0  0  0  0
    0.3205   -2.7068   22.6172 O   0  0  0  0  0  0  0  0  0  0  0  0
   -0.1434   -2.9427   23.9363 C   0  0  0  0  0  0  0  0  0  0  0  0
   -0.8303   -5.3514   19.6056 C   0  0  0  0  0  0  0  0  0  0  0  0
    0.4199   -4.7253   19.5957 C   0  0  0  0  0  0  0  0  0  0  0  0
    0.7726   -3.8152   20.6090 C   0  0  0  0  0  0  0  0  0  0  0  0
    1.9963   -3.1478   20.6670 N   0  0  0  0  0  0  0  0  0  0  0  0
    3.2069   -3.3917   20.0667 C   0  0  0  0  0  0  0  0  0  0  0  0
    4.7367   -5.9660   18.1308 N   0  3  0  0  0  0  0  0  0  0  0  0
    3.7968   -7.0147   18.5372 C   0  0  0  0  0  0  0  0  0  0  0  0
    5.0268   -5.9012   16.7549 C   0  0  0  0  0  0  0  0  0  0  0  0
    4.1337   -6.4023   15.7864 C   0  0  0  0  0  0  0  0  0  0  0  0
    4.4296   -6.3703   14.4298 C   0  0  0  0  0  0  0  0  0  0  0  0
    5.6219   -5.8036   13.9991 C   0  0  0  0  0  0  0  0  0  0  0  0
    6.4981   -5.2544   14.9313 C   0  0  0  0  0  0  0  0  0  0  0  0
    6.2023   -5.2932   16.3057 C   0  0  0  0  0  0  0  0  0  0  0  0
    7.2383   -4.7642   17.2265 C   0  0  0  0  0  0  0  0  0  0  0  0
    8.4033   -4.9489   16.9066 O   0  0  0  0  0  0  0  0  0  0  0  0
    6.9058   -4.0017   18.3500 N   0  3  0  0  0  0  0  0  0  0  0  0
    8.0253   -3.3840   19.0505 C   0  0  0  0  0  0  0  0  0  0  0  0
    5.9938   -1.8347   19.6858 H   0  0  0  0  0  0  0  0  0  0  0  0
   -2.1353  -10.7610   24.1987 H   0  0  0  0  0  0  0  0  0  0  0  0
   -3.8097  -10.7352   24.8406 H   0  0  0  0  0  0  0  0  0  0  0  0
   -2.6210  -12.8758   25.4243 H   0  0  0  0  0  0  0  0  0  0  0  0
   -2.2025  -13.1364   23.7298 H   0  0  0  0  0  0  0  0  0  0  0  0
   -4.9659  -15.4625   24.2077 H   0  0  0  0  0  0  0  0  0  0  0  0
   -3.6387  -15.1698   25.3282 H   0  0  0  0  0  0  0  0  0  0  0  0
   -3.3133  -15.2896   23.5849 H   0  0  0  0  0  0  0  0  0  0  0  0
   -5.9433  -13.5789   22.9787 H   0  0  0  0  0  0  0  0  0  0  0  0
   -4.4047  -13.6446   22.1054 H   0  0  0  0  0  0  0  0  0  0  0  0
   -5.6977  -11.1474   23.3585 H   0  0  0  0  0  0  0  0  0  0  0  0
   -5.4207  -11.5153   21.6197 H   0  0  0  0  0  0  0  0  0  0  0  0
   -3.3951   -9.9822   20.9466 H   0  0  0  0  0  0  0  0  0  0  0  0
   -4.8511   -8.4062   23.1308 H   0  0  0  0  0  0  0  0  0  0  0  0
   -5.6669   -9.2542   21.8147 H   0  0  0  0  0  0  0  0  0  0  0  0
   -5.2475   -6.7967   21.4329 H   0  0  0  0  0  0  0  0  0  0  0  0
   -4.7292   -7.8598   20.1359 H   0  0  0  0  0  0  0  0  0  0  0  0
   -1.4220   -9.6141   22.5056 H   0  0  0  0  0  0  0  0  0  0  0  0
   -2.4735   -8.5993   23.5111 H   0  0  0  0  0  0  0  0  0  0  0  0
   -1.4886   -8.1055   20.6916 H   0  0  0  0  0  0  0  0  0  0  0  0
   -1.3112   -7.1230   22.1488 H   0  0  0  0  0  0  0  0  0  0  0  0
   -2.0891   -4.0110   22.4595 H   0  0  0  0  0  0  0  0  0  0  0  0
    0.3310   -2.2036   24.5870 H   0  0  0  0  0  0  0  0  0  0  0  0
    0.1477   -3.9411   24.2814 H   0  0  0  0  0  0  0  0  0  0  0  0
   -1.2236   -2.7996   24.0039 H   0  0  0  0  0  0  0  0  0  0  0  0
   -1.1092   -6.0127   18.7888 H   0  0  0  0  0  0  0  0  0  0  0  0
    1.0949   -4.9154   18.7669 H   0  0  0  0  0  0  0  0  0  0  0  0
    2.0258   -2.3368   21.2725 H   0  0  0  0  0  0  0  0  0  0  0  0
    3.6349   -7.0377   19.6199 H   0  0  0  0  0  0  0  0  0  0  0  0
    4.2113   -7.9935   18.2673 H   0  0  0  0  0  0  0  0  0  0  0  0
    2.8120   -6.9077   18.0690 H   0  0  0  0  0  0  0  0  0  0  0  0
    3.1663   -6.8073   16.0669 H   0  0  0  0  0  0  0  0  0  0  0  0
    3.7254   -6.7900   13.7167 H   0  0  0  0  0  0  0  0  0  0  0  0
    5.8681   -5.7952   12.9440 H   0  0  0  0  0  0  0  0  0  0  0  0
    7.4252   -4.8007   14.5901 H   0  0  0  0  0  0  0  0  0  0  0  0
    7.7336   -2.8543   19.9601 H   0  0  0  0  0  0  0  0  0  0  0  0
    8.5180   -2.6861   18.3682 H   0  0  0  0  0  0  0  0  0  0  0  0
    8.7287   -4.1642   19.3554 H   0  0  0  0  0  0  0  0  0  0  0  0
   -3.0798  -11.6589   22.1587 H   0  0  0  0  0  0  0  0  0  0  0  0
  1  2  1  0  0  0  0
  1  5  1  0  0  0  0
  1 31  2  0  0  0  0
  2  3  1  0  0  0  0
  2 41  2  0  0  0  0
  3  4  2  0  0  0  0
  3 43  1  0  0  0  0
  4 30  1  0  0  0  0
  5 30  2  0  0  0  0
  6  7  1  0  0  0  0
  6 12  1  0  0  0  0
  6 44  1  0  0  0  0
  6 45  1  0  0  0  0
  7  8  1  0  0  0  0
  7 46  1  0  0  0  0
  7 47  1  0  0  0  0
  8  9  1  0  0  0  0
  8 10  1  0  0  0  0
  9 48  1  0  0  0  0
  9 49  1  0  0  0  0
  9 50  1  0  0  0  0
 10 11  1  0  0  0  0
 10 51  1  0  0  0  0
 10 52  1  0  0  0  0
 11 12  1  0  0  0  0
 11 53  1  0  0  0  0
 11 54  1  0  0  0  0
 12 13  1  0  0  0  0
 12 81  1  0  0  0  0
 13 14  1  0  0  0  0
 13 16  1  0  0  0  0
 13 55  1  0  0  0  0
 14 15  1  0  0  0  0
 14 56  1  0  0  0  0
 14 57  1  0  0  0  0
 15 18  1  0  0  0  0
 15 58  1  0  0  0  0
 15 59  1  0  0  0  0
 16 17  1  0  0  0  0
 16 60  1  0  0  0  0
 16 61  1  0  0  0  0
 17 18  1  0  0  0  0
 17 62  1  0  0  0  0
 17 63  1  0  0  0  0
 18 19  1  0  0  0  0
 19 20  2  0  0  0  0
 19 21  1  0  0  0  0
 21 22  2  0  0  0  0
 21 26  1  0  0  0  0
 22 23  1  0  0  0  0
 22 64  1  0  0  0  0
 23 24  1  0  0  0  0
 23 28  2  0  0  0  0
 24 25  1  0  0  0  0
 25 65  1  0  0  0  0
 25 66  1  0  0  0  0
 25 67  1  0  0  0  0
 26 27  2  0  0  0  0
 26 68  1  0  0  0  0
 27 28  1  0  0  0  0
 27 69  1  0  0  0  0
 28 29  1  0  0  0  0
 29 30  1  0  0  0  0
 29 70  1  0  0  0  0
 31 32  1  0  0  0  0
 31 33  1  0  0  0  0
 32 71  1  0  0  0  0
 32 72  1  0  0  0  0
 32 73  1  0  0  0  0
 33 34  2  0  0  0  0
 33 38  1  0  0  0  0
 34 35  1  0  0  0  0
 34 74  1  0  0  0  0
 35 36  2  0  0  0  0
 35 75  1  0  0  0  0
 36 37  1  0  0  0  0
 36 76  1  0  0  0  0
 37 38  2  0  0  0  0
 37 77  1  0  0  0  0
 38 39  1  0  0  0  0
 39 40  2  0  0  0  0
 39 41  1  0  0  0  0
 41 42  1  0  0  0  0
 42 78  1  0  0  0  0
 42 79  1  0  0  0  0
 42 80  1  0  0  0  0
M  CHG  3  12   1  31   1  41   1
M  END
$$$$
