4NZ
 OpenBabel04161912153D

 19 19  0  0  0  0  0  0  0  0999 V2000
   40.3195   26.6938   56.1032 S   0  0  0  0  0  0  0  0  0  0  0  0
   43.8937   24.8010   54.0253 C   0  0  0  0  0  0  0  0  0  0  0  0
   40.5521   28.3433   55.9000 N   0  0  0  0  0  0  0  0  0  0  0  0
   39.1704   26.3539   55.2989 O   0  0  0  0  0  0  0  0  0  0  0  0
   43.8691   26.1921   54.1994 C   0  0  0  0  0  0  0  0  0  0  0  0
   40.3936   26.4431   57.5183 O   0  0  0  0  0  0  0  0  0  0  0  0
   42.7936   26.7800   54.8627 C   0  0  0  0  0  0  0  0  0  0  0  0
   41.7509   25.9781   55.3451 C   0  0  0  0  0  0  0  0  0  0  0  0
   41.7816   24.5893   55.1819 C   0  0  0  0  0  0  0  0  0  0  0  0
   42.8585   23.9932   54.5268 C   0  0  0  0  0  0  0  0  0  0  0  0
   45.0008   24.1776   53.2883 N   0  0  0  0  0  0  0  0  0  0  0  0
   45.8212   24.9317   52.7502 O   0  0  0  0  0  0  0  0  0  0  0  0
   45.0414   22.9449   53.2431 O   0  0  0  0  0  0  0  0  0  0  0  0
   39.9599   28.7050   55.1529 H   0  0  0  0  0  0  0  0  0  0  0  0
   40.4380   28.8214   56.7971 H   0  0  0  0  0  0  0  0  0  0  0  0
   44.6690   26.8247   53.8204 H   0  0  0  0  0  0  0  0  0  0  0  0
   42.7764   27.8623   54.9830 H   0  0  0  0  0  0  0  0  0  0  0  0
   40.9645   23.9711   55.5524 H   0  0  0  0  0  0  0  0  0  0  0  0
   42.8752   22.9147   54.4042 H   0  0  0  0  0  0  0  0  0  0  0  0
  1  3  1  0  0  0  0
  1  4  2  0  0  0  0
  1  6  2  0  0  0  0
  1  8  1  0  0  0  0
  2  5  2  0  0  0  0
  2 10  1  0  0  0  0
  2 11  1  0  0  0  0
  3 14  1  0  0  0  0
  3 15  1  0  0  0  0
  5  7  1  0  0  0  0
  5 16  1  0  0  0  0
  7  8  2  0  0  0  0
  7 17  1  0  0  0  0
  8  9  1  0  0  0  0
  9 10  2  0  0  0  0
  9 18  1  0  0  0  0
 10 19  1  0  0  0  0
 11 12  2  0  0  0  0
 11 13  2  0  0  0  0
M  END
$$$$
