4TX
 OpenBabel04161909403D

 39 39  0  0  0  0  0  0  0  0999 V2000
   -0.2301   -0.6979    8.5232 C   0  0  0  0  0  0  0  0  0  0  0  0
   -0.9256    0.7760    6.0979 C   0  0  0  0  0  0  0  0  0  0  0  0
    0.1905    0.4169    5.1415 C   0  0  0  0  0  0  0  0  0  0  0  0
    0.7220    0.1306    2.6549 C   0  0  0  0  0  0  0  0  0  0  0  0
   -0.0034   -1.2772    9.7858 C   0  0  0  0  0  0  0  0  0  0  0  0
    0.3546   -0.4533   10.8618 C   0  0  0  0  0  0  0  0  0  0  0  0
    0.4981    0.9203   10.6873 C   0  0  0  0  0  0  0  0  0  0  0  0
   -1.2335    0.0893    1.2550 O   0  0  0  0  0  0  0  0  0  0  0  0
    0.0210   -0.0540    1.2810 C   0  0  0  0  0  0  0  0  0  0  0  0
    0.7961   -0.3296    0.3128 O   0  0  0  0  0  0  0  0  0  0  0  0
    1.5698   -1.1047    2.9784 C   0  0  0  0  0  0  0  0  0  0  0  0
    1.6335    1.3616    2.5405 C   0  0  0  0  0  0  0  0  0  0  0  0
   -0.3549    0.3355    3.7282 C   0  0  0  0  0  0  0  0  0  0  0  0
   -0.3387    1.3851    7.2276 O   0  0  0  0  0  0  0  0  0  0  0  0
   -0.1130    0.6768    8.3627 C   0  0  0  0  0  0  0  0  0  0  0  0
    0.2701    1.4928    9.4355 C   0  0  0  0  0  0  0  0  0  0  0  0
    0.4192    2.9706    9.1976 C   0  0  0  0  0  0  0  0  0  0  0  0
   -0.1482   -2.7543    9.9981 C   0  0  0  0  0  0  0  0  0  0  0  0
   -0.4850   -1.3445    7.6915 H   0  0  0  0  0  0  0  0  0  0  0  0
   -1.5696   -0.0762    6.3329 H   0  0  0  0  0  0  0  0  0  0  0  0
   -1.5722    1.5409    5.6526 H   0  0  0  0  0  0  0  0  0  0  0  0
    0.6242   -0.5391    5.4545 H   0  0  0  0  0  0  0  0  0  0  0  0
    0.9932    1.1582    5.2131 H   0  0  0  0  0  0  0  0  0  0  0  0
    0.5286   -0.8874   11.8428 H   0  0  0  0  0  0  0  0  0  0  0  0
    0.7851    1.5439   11.5280 H   0  0  0  0  0  0  0  0  0  0  0  0
    2.1134   -0.9807    3.9223 H   0  0  0  0  0  0  0  0  0  0  0  0
    2.3251   -1.2994    2.2107 H   0  0  0  0  0  0  0  0  0  0  0  0
    0.9391   -1.9949    3.0694 H   0  0  0  0  0  0  0  0  0  0  0  0
    1.0570    2.2615    2.2994 H   0  0  0  0  0  0  0  0  0  0  0  0
    2.3923    1.2337    1.7607 H   0  0  0  0  0  0  0  0  0  0  0  0
    2.1763    1.5552    3.4723 H   0  0  0  0  0  0  0  0  0  0  0  0
   -0.9091    1.2585    3.5052 H   0  0  0  0  0  0  0  0  0  0  0  0
   -1.0862   -0.4835    3.6922 H   0  0  0  0  0  0  0  0  0  0  0  0
    0.6965    3.5072   10.1078 H   0  0  0  0  0  0  0  0  0  0  0  0
   -0.5288    3.3831    8.8346 H   0  0  0  0  0  0  0  0  0  0  0  0
    1.1942    3.1493    8.4431 H   0  0  0  0  0  0  0  0  0  0  0  0
   -0.4234   -3.2695    9.0725 H   0  0  0  0  0  0  0  0  0  0  0  0
   -0.9315   -2.9446   10.7382 H   0  0  0  0  0  0  0  0  0  0  0  0
    0.7972   -3.1745   10.3537 H   0  0  0  0  0  0  0  0  0  0  0  0
  1  5  2  0  0  0  0
  1 15  1  0  0  0  0
  1 19  1  0  0  0  0
  2  3  1  0  0  0  0
  2 14  1  0  0  0  0
  2 20  1  0  0  0  0
  2 21  1  0  0  0  0
  3 13  1  0  0  0  0
  3 22  1  0  0  0  0
  3 23  1  0  0  0  0
  4  9  1  0  0  0  0
  4 11  1  0  0  0  0
  4 12  1  0  0  0  0
  4 13  1  0  0  0  0
  5  6  1  0  0  0  0
  5 18  1  0  0  0  0
  6  7  2  0  0  0  0
  6 24  1  0  0  0  0
  7 16  1  0  0  0  0
  7 25  1  0  0  0  0
  8  9  2  0  0  0  0
  9 10  1  0  0  0  0
 11 26  1  0  0  0  0
 11 27  1  0  0  0  0
 11 28  1  0  0  0  0
 12 29  1  0  0  0  0
 12 30  1  0  0  0  0
 12 31  1  0  0  0  0
 13 32  1  0  0  0  0
 13 33  1  0  0  0  0
 14 15  1  0  0  0  0
 15 16  2  0  0  0  0
 16 17  1  0  0  0  0
 17 34  1  0  0  0  0
 17 35  1  0  0  0  0
 17 36  1  0  0  0  0
 18 37  1  0  0  0  0
 18 38  1  0  0  0  0
 18 39  1  0  0  0  0
M  END
$$$$
