4VO
 OpenBabel04161909413D

 66 72  0  0  1  0  0  0  0  0999 V2000
    2.3236   15.4543  -57.7055 C   0  0  0  0  0  0  0  0  0  0  0  0
    1.9355   15.5283  -56.2277 C   0  0  0  0  0  0  0  0  0  0  0  0
    1.0599   16.7359  -56.0018 N   0  3  2  0  0  0  0  0  0  0  0  0
    0.7851   16.9338  -54.5188 C   0  0  0  0  0  0  0  0  0  0  0  0
   -0.2255   16.7572  -56.8606 C   0  0  2  0  0  0  0  0  0  0  0  0
   -1.1005   15.5140  -56.6149 C   0  0  0  0  0  0  0  0  0  0  0  0
   -0.7459   14.3118  -57.4734 C   0  0  0  0  0  0  0  0  0  0  0  0
   -1.5301   13.1632  -57.2952 C   0  0  0  0  0  0  0  0  0  0  0  0
   -1.2875   12.0200  -58.0448 C   0  0  0  0  0  0  0  0  0  0  0  0
   -0.2445   12.0003  -58.9539 C   0  0  0  0  0  0  0  0  0  0  0  0
   -0.0458   10.8513  -59.6526 O   0  0  0  0  0  0  0  0  0  0  0  0
    0.5613   13.1188  -59.1419 C   0  0  0  0  0  0  0  0  0  0  0  0
    0.2916   14.3150  -58.4472 C   0  0  0  0  0  0  0  0  0  0  0  0
    1.1281   15.6063  -58.6982 C   0  0  2  0  0  0  0  0  0  0  0  0
    1.5690   15.7429  -60.2426 C   0  0  2  0  0  0  0  0  0  0  0  0
    2.9516   16.3816  -60.4975 N   0  3  0  0  0  0  0  0  0  0  0  0
    0.6857   16.8080  -60.9538 C   0  0  1  0  0  0  0  0  0  0  0  0
    0.9383   16.8044  -62.3587 O   0  0  0  0  0  0  0  0  0  0  0  0
    0.5075   15.6405  -63.0747 C   0  0  0  0  0  0  0  0  0  0  0  0
   -0.7739   16.7241  -60.6135 C   0  0  0  0  0  0  0  0  0  0  0  0
   -1.0584   16.7648  -59.3043 C   0  0  0  0  0  0  0  0  0  0  0  0
    0.1540   16.8374  -58.3584 C   0  0  1  0  0  0  0  0  0  0  0  0
    0.7249   18.2191  -58.7771 C   0  0  0  0  0  0  0  0  0  0  0  0
    1.2781   18.1166  -60.2608 C   0  0  2  0  0  0  0  0  0  0  0  0
    0.9307   19.3849  -61.0417 C   0  0  0  0  0  0  0  0  0  0  0  0
    2.7843   17.7970  -60.0899 C   0  0  2  0  0  0  0  0  0  0  0  0
    3.8916   18.8037  -60.1527 C   0  0  0  0  0  0  0  0  0  0  0  0
    4.1611   19.6085  -61.2563 C   0  0  0  0  0  0  0  0  0  0  0  0
    5.0437   20.6945  -61.1300 C   0  0  0  0  0  0  0  0  0  0  0  0
    5.6685   20.9683  -59.9078 C   0  0  0  0  0  0  0  0  0  0  0  0
    5.4614   20.1418  -58.8205 C   0  0  0  0  0  0  0  0  0  0  0  0
    4.5950   19.0634  -58.9468 C   0  0  0  0  0  0  0  0  0  0  0  0
    2.8446   14.5041  -57.8848 H   0  0  0  0  0  0  0  0  0  0  0  0
    3.0924   16.2108  -57.8466 H   0  0  0  0  0  0  0  0  0  0  0  0
    2.8352   15.6574  -55.6146 H   0  0  0  0  0  0  0  0  0  0  0  0
    1.4091   14.6387  -55.8727 H   0  0  0  0  0  0  0  0  0  0  0  0
    0.1987   17.8491  -54.4075 H   0  0  0  0  0  0  0  0  0  0  0  0
    1.7506   17.0495  -54.0180 H   0  0  0  0  0  0  0  0  0  0  0  0
    0.2547   16.0638  -54.1301 H   0  0  0  0  0  0  0  0  0  0  0  0
   -0.7605   17.6631  -56.5496 H   0  0  0  0  0  0  0  0  0  0  0  0
   -2.1382   15.7870  -56.8462 H   0  0  0  0  0  0  0  0  0  0  0  0
   -1.0921   15.2221  -55.5617 H   0  0  0  0  0  0  0  0  0  0  0  0
   -2.3533   13.1524  -56.5813 H   0  0  0  0  0  0  0  0  0  0  0  0
   -1.9132   11.1375  -57.9178 H   0  0  0  0  0  0  0  0  0  0  0  0
    0.6341   10.9595  -60.3356 H   0  0  0  0  0  0  0  0  0  0  0  0
    1.3950   13.0188  -59.8275 H   0  0  0  0  0  0  0  0  0  0  0  0
    1.6201   14.7944  -60.7707 H   0  0  0  0  0  0  0  0  0  0  0  0
    3.7639   15.9064  -60.0851 H   0  0  0  0  0  0  0  0  0  0  0  0
    0.6780   15.8059  -64.1398 H   0  0  0  0  0  0  0  0  0  0  0  0
   -0.5589   15.4348  -62.9255 H   0  0  0  0  0  0  0  0  0  0  0  0
    1.0915   14.7612  -62.7830 H   0  0  0  0  0  0  0  0  0  0  0  0
   -1.5547   16.7417  -61.3691 H   0  0  0  0  0  0  0  0  0  0  0  0
   -2.0881   16.8143  -58.9561 H   0  0  0  0  0  0  0  0  0  0  0  0
    1.4868   18.5833  -58.0773 H   0  0  0  0  0  0  0  0  0  0  0  0
   -0.0603   18.9867  -58.7207 H   0  0  0  0  0  0  0  0  0  0  0  0
    1.2675   19.3325  -62.0819 H   0  0  0  0  0  0  0  0  0  0  0  0
    1.3683   20.2749  -60.5801 H   0  0  0  0  0  0  0  0  0  0  0  0
   -0.1551   19.5378  -61.0671 H   0  0  0  0  0  0  0  0  0  0  0  0
    2.8544   17.6184  -59.0287 H   0  0  0  0  0  0  0  0  0  0  0  0
    3.6528   19.4744  -62.2107 H   0  0  0  0  0  0  0  0  0  0  0  0
    5.2086   21.3642  -61.9650 H   0  0  0  0  0  0  0  0  0  0  0  0
    6.3215   21.8348  -59.8107 H   0  0  0  0  0  0  0  0  0  0  0  0
    5.9447   20.3515  -57.8682 H   0  0  0  0  0  0  0  0  0  0  0  0
    4.4402   18.4636  -58.0501 H   0  0  0  0  0  0  0  0  0  0  0  0
    1.6088   17.5739  -56.2293 H   0  0  0  0  0  0  0  0  0  0  0  0
    3.1140   16.3837  -61.5235 H   0  0  0  0  0  0  0  0  0  0  0  0
  1  2  1  0  0  0  0
  1 33  1  0  0  0  0
  1 34  1  0  0  0  0
  2  3  1  0  0  0  0
  2 35  1  0  0  0  0
  2 36  1  0  0  0  0
  3  4  1  0  0  0  0
  3  5  1  0  0  0  0
  3 65  1  6  0  0  0
  4 37  1  0  0  0  0
  4 38  1  0  0  0  0
  4 39  1  0  0  0  0
  5  6  1  0  0  0  0
  5 22  1  0  0  0  0
  5 40  1  1  0  0  0
  6  7  1  0  0  0  0
  6 41  1  0  0  0  0
  6 42  1  0  0  0  0
  7  8  2  0  0  0  0
  7 13  1  0  0  0  0
  8  9  1  0  0  0  0
  8 43  1  0  0  0  0
  9 10  2  0  0  0  0
  9 44  1  0  0  0  0
 10 11  1  0  0  0  0
 10 12  1  0  0  0  0
 11 45  1  0  0  0  0
 12 13  2  0  0  0  0
 12 46  1  0  0  0  0
 13 14  1  0  0  0  0
 14  1  1  1  0  0  0
 14 15  1  0  0  0  0
 14 22  1  0  0  0  0
 15 16  1  0  0  0  0
 15 17  1  0  0  0  0
 15 47  1  6  0  0  0
 16 26  1  0  0  0  0
 16 48  1  0  0  0  0
 16 66  1  0  0  0  0
 17 18  1  6  0  0  0
 17 20  1  0  0  0  0
 17 24  1  0  0  0  0
 18 19  1  0  0  0  0
 19 49  1  0  0  0  0
 19 50  1  0  0  0  0
 19 51  1  0  0  0  0
 20 21  2  0  0  0  0
 20 52  1  0  0  0  0
 21 53  1  0  0  0  0
 22 21  1  6  0  0  0
 22 23  1  0  0  0  0
 23 24  1  0  0  0  0
 23 54  1  0  0  0  0
 23 55  1  0  0  0  0
 24 25  1  6  0  0  0
 24 26  1  0  0  0  0
 25 56  1  0  0  0  0
 25 57  1  0  0  0  0
 25 58  1  0  0  0  0
 26 27  1  0  0  0  0
 26 59  1  1  0  0  0
 27 28  2  0  0  0  0
 27 32  1  0  0  0  0
 28 29  1  0  0  0  0
 28 60  1  0  0  0  0
 29 30  2  0  0  0  0
 29 61  1  0  0  0  0
 30 31  1  0  0  0  0
 30 62  1  0  0  0  0
 31 32  2  0  0  0  0
 31 63  1  0  0  0  0
 32 64  1  0  0  0  0
M  CHG  2   3   1  16   1
M  END
$$$$
