4WA
 OpenBabel04161909413D

 33 34  0  0  0  0  0  0  0  0999 V2000
   13.6929    1.6044   16.5195 O   0  0  0  0  0  0  0  0  0  0  0  0
   15.0966    1.7400   16.7901 S   0  0  0  0  0  0  0  0  0  0  0  0
   15.6567    1.7053   18.1209 O   0  0  0  0  0  0  0  0  0  0  0  0
   15.8422    0.5003   15.9278 N   0  0  0  0  0  0  0  0  0  0  0  0
   15.7251    3.1581   15.9599 C   0  0  0  0  0  0  0  0  0  0  0  0
   17.0887    3.2353   15.6830 C   0  0  0  0  0  0  0  0  0  0  0  0
   17.5797    4.3582   15.0284 C   0  0  0  0  0  0  0  0  0  0  0  0
   16.7220    5.4039   14.6574 C   0  0  0  0  0  0  0  0  0  0  0  0
   15.3486    5.2827   14.9040 C   0  0  0  0  0  0  0  0  0  0  0  0
   14.8445    4.1580   15.5509 C   0  0  0  0  0  0  0  0  0  0  0  0
   17.2066    6.5522   14.0229 N   0  0  0  0  0  0  0  0  0  0  0  0
   18.4049    6.6278   13.4162 N   0  0  0  0  0  0  0  0  0  0  0  0
   19.2981    7.6960   13.5495 C   0  0  0  0  0  0  0  0  0  0  0  0
   19.0833    8.7543   14.4389 C   0  0  0  0  0  0  0  0  0  0  0  0
   19.9299    9.8696   14.4329 C   0  0  0  0  0  0  0  0  0  0  0  0
   21.0102    9.9426   13.5528 C   0  0  0  0  0  0  0  0  0  0  0  0
   21.7272   11.1285   13.4028 N   0  0  0  0  0  0  0  0  0  0  0  0
   21.2064    8.8915   12.6497 C   0  0  0  0  0  0  0  0  0  0  0  0
   20.3706    7.7747   12.6532 C   0  0  0  0  0  0  0  0  0  0  0  0
   15.2017    0.0737   15.2590 H   0  0  0  0  0  0  0  0  0  0  0  0
   16.3039   -0.1497   16.5668 H   0  0  0  0  0  0  0  0  0  0  0  0
   17.7673    2.4401   15.9770 H   0  0  0  0  0  0  0  0  0  0  0  0
   18.6470    4.4258   14.8371 H   0  0  0  0  0  0  0  0  0  0  0  0
   14.6637    6.0646   14.5853 H   0  0  0  0  0  0  0  0  0  0  0  0
   13.7751    4.0758   15.7343 H   0  0  0  0  0  0  0  0  0  0  0  0
   16.5481    7.3127   13.8681 H   0  0  0  0  0  0  0  0  0  0  0  0
   18.7847    5.7855   12.9912 H   0  0  0  0  0  0  0  0  0  0  0  0
   18.2538    8.7238   15.1369 H   0  0  0  0  0  0  0  0  0  0  0  0
   19.7262   10.6856   15.1140 H   0  0  0  0  0  0  0  0  0  0  0  0
   22.6113   11.0577   12.9136 H   0  0  0  0  0  0  0  0  0  0  0  0
   21.7307   11.7547   14.1989 H   0  0  0  0  0  0  0  0  0  0  0  0
   22.0054    8.9507   11.9074 H   0  0  0  0  0  0  0  0  0  0  0  0
   20.5283    6.9908   11.9254 H   0  0  0  0  0  0  0  0  0  0  0  0
  1  2  2  0  0  0  0
  2  3  2  0  0  0  0
  2  4  1  0  0  0  0
  2  5  1  0  0  0  0
  4 20  1  0  0  0  0
  4 21  1  0  0  0  0
  5  6  2  0  0  0  0
  5 10  1  0  0  0  0
  6  7  1  0  0  0  0
  6 22  1  0  0  0  0
  7  8  2  0  0  0  0
  7 23  1  0  0  0  0
  8  9  1  0  0  0  0
  8 11  1  0  0  0  0
  9 10  2  0  0  0  0
  9 24  1  0  0  0  0
 10 25  1  0  0  0  0
 11 12  1  0  0  0  0
 11 26  1  0  0  0  0
 12 13  1  0  0  0  0
 12 27  1  0  0  0  0
 13 14  2  0  0  0  0
 13 19  1  0  0  0  0
 14 15  1  0  0  0  0
 14 28  1  0  0  0  0
 15 16  2  0  0  0  0
 15 29  1  0  0  0  0
 16 17  1  0  0  0  0
 16 18  1  0  0  0  0
 17 30  1  0  0  0  0
 17 31  1  0  0  0  0
 18 19  2  0  0  0  0
 18 32  1  0  0  0  0
 19 33  1  0  0  0  0
M  END
$$$$
