4XS
 OpenBabel04161909413D

 20 21  0  0  0  0  0  0  0  0999 V2000
    4.3730   12.1835   43.4751 C   0  0  0  0  0  0  0  0  0  0  0  0
    4.0542   13.6965   41.7422 C   0  0  0  0  0  0  0  0  0  0  0  0
    3.4154   14.5274   42.5558 N   0  0  0  0  0  0  0  0  0  0  0  0
    3.4487   15.0581   39.5204 C   0  0  0  0  0  0  0  0  0  0  0  0
    3.4701   12.6190   45.8431 C   0  0  0  0  0  0  0  0  0  0  0  0
    2.3858   15.2764   44.7909 Cl  0  0  0  0  0  0  0  0  0  0  0  0
    3.2581   14.1269   43.8461 C   0  0  0  0  0  0  0  0  0  0  0  0
    3.7121   12.9386   44.4175 C   0  0  0  0  0  0  0  0  0  0  0  0
    4.5560   12.5296   42.1642 N   0  0  0  0  0  0  0  0  0  0  0  0
    5.0852   10.6474   43.7733 Cl  0  0  0  0  0  0  0  0  0  0  0  0
    4.3292   14.0962   40.3022 C   0  0  0  0  0  0  0  0  0  0  0  0
    4.7675   15.5344   40.0674 C   0  0  0  0  0  0  0  0  0  0  0  0
    2.5211   15.4047   39.9635 H   0  0  0  0  0  0  0  0  0  0  0  0
    3.3411   14.9430   38.4446 H   0  0  0  0  0  0  0  0  0  0  0  0
    3.8988   11.6565   46.1262 H   0  0  0  0  0  0  0  0  0  0  0  0
    2.3944   12.5769   46.0555 H   0  0  0  0  0  0  0  0  0  0  0  0
    3.9081   13.3814   46.4995 H   0  0  0  0  0  0  0  0  0  0  0  0
    4.7942   13.3008   39.7219 H   0  0  0  0  0  0  0  0  0  0  0  0
    4.7766   16.2053   40.9240 H   0  0  0  0  0  0  0  0  0  0  0  0
    5.5989   15.7396   39.4031 H   0  0  0  0  0  0  0  0  0  0  0  0
  1  8  2  0  0  0  0
  1  9  1  0  0  0  0
  1 10  1  0  0  0  0
  2  3  1  0  0  0  0
  2  9  2  0  0  0  0
  2 11  1  0  0  0  0
  3  7  2  0  0  0  0
  4 11  1  0  0  0  0
  4 12  1  0  0  0  0
  4 13  1  0  0  0  0
  4 14  1  0  0  0  0
  5  8  1  0  0  0  0
  5 15  1  0  0  0  0
  5 16  1  0  0  0  0
  5 17  1  0  0  0  0
  6  7  1  0  0  0  0
  7  8  1  0  0  0  0
 11 12  1  0  0  0  0
 11 18  1  0  0  0  0
 12 19  1  0  0  0  0
 12 20  1  0  0  0  0
M  END
$$$$
