4XU
 OpenBabel04161909423D

 55 58  0  0  0  0  0  0  0  0999 V2000
    9.0846   38.3179   60.3835 C   0  0  0  0  0  0  0  0  0  0  0  0
   10.5282   39.7359   59.0705 C   0  0  0  0  0  0  0  0  0  0  0  0
    8.3268   42.9084   58.5889 C   0  0  0  0  0  0  0  0  0  0  0  0
   10.0837   41.9053   57.7310 C   0  0  0  0  0  0  0  0  0  0  0  0
   11.1730   41.8020   56.7358 C   0  0  0  0  0  0  0  0  0  0  0  0
    7.2448   43.8957   58.8144 C   0  0  0  0  0  0  0  0  0  0  0  0
    4.7569   36.6741   56.8495 C   0  0  0  0  0  0  0  0  0  0  0  0
    3.4089   34.7963   54.1296 C   0  0  0  0  0  0  0  0  0  0  0  0
    1.1202   35.2875   53.7282 C   0  0  0  0  0  0  0  0  0  0  0  0
    1.0270   35.8011   55.0475 C   0  0  0  0  0  0  0  0  0  0  0  0
    7.4651   37.0941   61.5290 C   0  0  0  0  0  0  0  0  0  0  0  0
    6.7129   36.9016   60.4488 N   0  0  0  0  0  0  0  0  0  0  0  0
    6.5806   37.3542   58.1482 O   0  0  0  0  0  0  0  0  0  0  0  0
    8.4437   41.5571   59.6310 S   0  0  0  0  0  0  0  0  0  0  0  0
    6.8330   36.3935   62.9754 Cl  0  0  0  0  0  0  0  0  0  0  0  0
    7.2123   37.4558   59.3444 C   0  0  0  0  0  0  0  0  0  0  0  0
    8.3587   38.1333   59.2882 N   0  0  0  0  0  0  0  0  0  0  0  0
    8.6612   37.7901   61.5796 C   0  0  0  0  0  0  0  0  0  0  0  0
   10.2398   39.0845   60.3170 N   0  0  0  0  0  0  0  0  0  0  0  0
    9.4174   37.9551   62.8373 C   0  0  0  0  0  0  0  0  0  0  0  0
    9.8132   41.0139   58.7565 C   0  0  0  0  0  0  0  0  0  0  0  0
    9.2299   42.9888   57.6497 N   0  0  0  0  0  0  0  0  0  0  0  0
    5.4309   36.5249   58.1987 C   0  0  0  0  0  0  0  0  0  0  0  0
    4.4205   35.2962   56.3220 C   0  0  0  0  0  0  0  0  0  0  0  0
    3.2447   35.3153   55.4073 C   0  0  0  0  0  0  0  0  0  0  0  0
    2.3274   34.7925   53.2840 C   0  0  0  0  0  0  0  0  0  0  0  0
    2.0716   35.8041   55.8719 N   0  0  0  0  0  0  0  0  0  0  0  0
    0.0287   35.2682   52.8829 C   0  0  0  0  0  0  0  0  0  0  0  0
   -1.1818   35.7760   53.3155 C   0  0  0  0  0  0  0  0  0  0  0  0
   -1.2912   36.3149   54.5942 C   0  0  0  0  0  0  0  0  0  0  0  0
   -0.1901   36.3041   55.4442 C   0  0  0  0  0  0  0  0  0  0  0  0
   10.3155   39.0291   58.2609 H   0  0  0  0  0  0  0  0  0  0  0  0
   11.6062   39.9454   59.0349 H   0  0  0  0  0  0  0  0  0  0  0  0
   11.1437   42.6585   56.0544 H   0  0  0  0  0  0  0  0  0  0  0  0
   11.0595   40.8832   56.1536 H   0  0  0  0  0  0  0  0  0  0  0  0
   12.1423   41.7896   57.2437 H   0  0  0  0  0  0  0  0  0  0  0  0
    7.3074   44.6970   58.0713 H   0  0  0  0  0  0  0  0  0  0  0  0
    7.3406   44.3342   59.8123 H   0  0  0  0  0  0  0  0  0  0  0  0
    6.2677   43.4111   58.7281 H   0  0  0  0  0  0  0  0  0  0  0  0
    5.4127   37.1925   56.1369 H   0  0  0  0  0  0  0  0  0  0  0  0
    3.8494   37.2801   56.9633 H   0  0  0  0  0  0  0  0  0  0  0  0
    4.3642   34.4065   53.8106 H   0  0  0  0  0  0  0  0  0  0  0  0
   10.8895   39.1701   61.0899 H   0  0  0  0  0  0  0  0  0  0  0  0
   10.3264   38.5347   62.6927 H   0  0  0  0  0  0  0  0  0  0  0  0
    9.7118   36.9774   63.2214 H   0  0  0  0  0  0  0  0  0  0  0  0
    8.8076   38.4845   63.5707 H   0  0  0  0  0  0  0  0  0  0  0  0
    5.7385   35.4889   58.3745 H   0  0  0  0  0  0  0  0  0  0  0  0
    4.7510   36.8484   58.9930 H   0  0  0  0  0  0  0  0  0  0  0  0
    4.2001   34.6145   57.1523 H   0  0  0  0  0  0  0  0  0  0  0  0
    5.2933   34.9068   55.7847 H   0  0  0  0  0  0  0  0  0  0  0  0
    2.4294   34.3978   52.2694 H   0  0  0  0  0  0  0  0  0  0  0  0
    0.1233   34.8544   51.8809 H   0  0  0  0  0  0  0  0  0  0  0  0
   -2.0449   35.7550   52.6606 H   0  0  0  0  0  0  0  0  0  0  0  0
   -2.2282   36.7394   54.9236 H   0  0  0  0  0  0  0  0  0  0  0  0
   -0.2920   36.7096   56.4510 H   0  0  0  0  0  0  0  0  0  0  0  0
  1 17  2  0  0  0  0
  1 18  1  0  0  0  0
  1 19  1  0  0  0  0
  2 19  1  0  0  0  0
  2 21  1  0  0  0  0
  2 32  1  0  0  0  0
  2 33  1  0  0  0  0
  3  6  1  0  0  0  0
  3 14  1  0  0  0  0
  3 22  2  0  0  0  0
  4  5  1  0  0  0  0
  4 21  2  0  0  0  0
  4 22  1  0  0  0  0
  5 34  1  0  0  0  0
  5 35  1  0  0  0  0
  5 36  1  0  0  0  0
  6 37  1  0  0  0  0
  6 38  1  0  0  0  0
  6 39  1  0  0  0  0
  7 23  1  0  0  0  0
  7 24  1  0  0  0  0
  7 40  1  0  0  0  0
  7 41  1  0  0  0  0
  8 25  2  0  0  0  0
  8 26  1  0  0  0  0
  8 42  1  0  0  0  0
  9 10  1  0  0  0  0
  9 26  2  0  0  0  0
  9 28  1  0  0  0  0
 10 27  2  0  0  0  0
 10 31  1  0  0  0  0
 11 12  1  0  0  0  0
 11 15  1  0  0  0  0
 11 18  2  0  0  0  0
 12 16  2  0  0  0  0
 13 16  1  0  0  0  0
 13 23  1  0  0  0  0
 14 21  1  0  0  0  0
 16 17  1  0  0  0  0
 18 20  1  0  0  0  0
 19 43  1  0  0  0  0
 20 44  1  0  0  0  0
 20 45  1  0  0  0  0
 20 46  1  0  0  0  0
 23 47  1  0  0  0  0
 23 48  1  0  0  0  0
 24 25  1  0  0  0  0
 24 49  1  0  0  0  0
 24 50  1  0  0  0  0
 25 27  1  0  0  0  0
 26 51  1  0  0  0  0
 28 29  2  0  0  0  0
 28 52  1  0  0  0  0
 29 30  1  0  0  0  0
 29 53  1  0  0  0  0
 30 31  2  0  0  0  0
 30 54  1  0  0  0  0
 31 55  1  0  0  0  0
M  END
$$$$
