4XV
 OpenBabel04161909413D

 22 23  0  0  0  0  0  0  0  0999 V2000
    4.3882   11.6169   43.0937 C   0  0  0  0  0  0  0  0  0  0  0  0
    3.9791   13.1016   41.3620 C   0  0  0  0  0  0  0  0  0  0  0  0
    3.2616   13.9078   42.1423 N   0  0  0  0  0  0  0  0  0  0  0  0
    4.1385   13.4553   39.9028 C   0  0  0  0  0  0  0  0  0  0  0  0
    4.4502   14.8802   39.5013 C   0  0  0  0  0  0  0  0  0  0  0  0
    3.1361   13.5296   43.4271 C   0  0  0  0  0  0  0  0  0  0  0  0
    4.5546   11.9686   41.8075 N   0  0  0  0  0  0  0  0  0  0  0  0
    3.6642   12.3795   43.9808 C   0  0  0  0  0  0  0  0  0  0  0  0
    4.9044   10.3817   43.4354 N   0  0  0  0  0  0  0  0  0  0  0  0
    3.4617   12.0506   45.4170 C   0  0  0  0  0  0  0  0  0  0  0  0
    3.0961   14.3034   39.2026 C   0  0  0  0  0  0  0  0  0  0  0  0
    2.1639   14.6373   44.3295 Cl  0  0  0  0  0  0  0  0  0  0  0  0
    4.5996   12.6827   39.2955 H   0  0  0  0  0  0  0  0  0  0  0  0
    5.1375   15.0306   38.6775 H   0  0  0  0  0  0  0  0  0  0  0  0
    4.5237   15.6294   40.2829 H   0  0  0  0  0  0  0  0  0  0  0  0
    5.0445   10.1022   44.3941 H   0  0  0  0  0  0  0  0  0  0  0  0
    5.4904    9.9566   42.7298 H   0  0  0  0  0  0  0  0  0  0  0  0
    3.9500   11.1345   45.7305 H   0  0  0  0  0  0  0  0  0  0  0  0
    2.3911   11.9407   45.6359 H   0  0  0  0  0  0  0  0  0  0  0  0
    3.8691   12.8597   46.0428 H   0  0  0  0  0  0  0  0  0  0  0  0
    2.2505   14.6650   39.7793 H   0  0  0  0  0  0  0  0  0  0  0  0
    2.8531   14.0536   38.1771 H   0  0  0  0  0  0  0  0  0  0  0  0
  1  7  2  0  0  0  0
  1  8  1  0  0  0  0
  1  9  1  0  0  0  0
  2  3  2  0  0  0  0
  2  4  1  0  0  0  0
  2  7  1  0  0  0  0
  3  6  1  0  0  0  0
  4  5  1  0  0  0  0
  4 11  1  0  0  0  0
  4 13  1  0  0  0  0
  5 11  1  0  0  0  0
  5 14  1  0  0  0  0
  5 15  1  0  0  0  0
  6  8  2  0  0  0  0
  6 12  1  0  0  0  0
  8 10  1  0  0  0  0
  9 16  1  0  0  0  0
  9 17  1  0  0  0  0
 10 18  1  0  0  0  0
 10 19  1  0  0  0  0
 10 20  1  0  0  0  0
 11 21  1  0  0  0  0
 11 22  1  0  0  0  0
M  END
$$$$
