4Y2
 OpenBabel04161909413D

 37 39  0  0  0  0  0  0  0  0999 V2000
    4.4421   12.2495   45.2086 C   0  0  0  0  0  0  0  0  0  0  0  0
    3.5972   12.8335   47.5428 C   0  0  0  0  0  0  0  0  0  0  0  0
    3.1261   14.7509   41.2238 C   0  0  0  0  0  0  0  0  0  0  0  0
    9.3118   11.8844   44.2030 C   0  0  0  0  0  0  0  0  0  0  0  0
    8.1431   10.0894   43.6548 C   0  0  0  0  0  0  0  0  0  0  0  0
    7.1795   10.7265   44.4379 C   0  0  0  0  0  0  0  0  0  0  0  0
   10.4334   12.8590   44.2579 C   0  0  0  0  0  0  0  0  0  0  0  0
    5.7749   10.2680   44.7018 C   0  0  0  0  0  0  0  0  0  0  0  0
    3.2728   14.2383   45.4936 C   0  0  0  0  0  0  0  0  0  0  0  0
    3.3968   14.5675   44.2065 N   0  0  0  0  0  0  0  0  0  0  0  0
    7.8553   12.1834   45.0567 S   0  0  0  0  0  0  0  0  0  0  0  0
    4.0571   13.7019   43.4314 C   0  0  0  0  0  0  0  0  0  0  0  0
    4.5628   12.5500   43.9025 N   0  0  0  0  0  0  0  0  0  0  0  0
    3.7825   13.0955   46.0847 C   0  0  0  0  0  0  0  0  0  0  0  0
    4.2163   14.0131   41.9664 C   0  0  0  0  0  0  0  0  0  0  0  0
    4.4257   15.4418   41.5013 C   0  0  0  0  0  0  0  0  0  0  0  0
    2.3674   15.4106   46.3769 Cl  0  0  0  0  0  0  0  0  0  0  0  0
    9.3490   10.7555   43.5304 N   0  0  0  0  0  0  0  0  0  0  0  0
    7.9895    8.7915   42.9461 C   0  0  0  0  0  0  0  0  0  0  0  0
    4.9185   10.9989   45.6347 N   0  0  0  0  0  0  0  0  0  0  0  0
    4.0776   11.9147   47.8863 H   0  0  0  0  0  0  0  0  0  0  0  0
    2.5318   12.7433   47.7759 H   0  0  0  0  0  0  0  0  0  0  0  0
    4.0295   13.6494   48.1287 H   0  0  0  0  0  0  0  0  0  0  0  0
    2.2510   15.0725   41.7825 H   0  0  0  0  0  0  0  0  0  0  0  0
    2.9118   14.4514   40.2065 H   0  0  0  0  0  0  0  0  0  0  0  0
   11.2886   12.4887   43.6818 H   0  0  0  0  0  0  0  0  0  0  0  0
   10.7644   13.0131   45.2889 H   0  0  0  0  0  0  0  0  0  0  0  0
   10.1356   13.8227   43.8324 H   0  0  0  0  0  0  0  0  0  0  0  0
    5.8539    9.2528   45.1167 H   0  0  0  0  0  0  0  0  0  0  0  0
    5.2568   10.1390   43.7416 H   0  0  0  0  0  0  0  0  0  0  0  0
    4.7560   13.2551   41.3934 H   0  0  0  0  0  0  0  0  0  0  0  0
    4.4367   16.2302   42.2478 H   0  0  0  0  0  0  0  0  0  0  0  0
    5.1000   15.6166   40.6694 H   0  0  0  0  0  0  0  0  0  0  0  0
    8.9049    8.5301   42.4059 H   0  0  0  0  0  0  0  0  0  0  0  0
    7.1704    8.8422   42.2232 H   0  0  0  0  0  0  0  0  0  0  0  0
    7.7782    7.9893   43.6610 H   0  0  0  0  0  0  0  0  0  0  0  0
    5.2975   11.0058   46.5710 H   0  0  0  0  0  0  0  0  0  0  0  0
  1 13  2  0  0  0  0
  1 14  1  0  0  0  0
  1 20  1  0  0  0  0
  2 14  1  0  0  0  0
  2 21  1  0  0  0  0
  2 22  1  0  0  0  0
  2 23  1  0  0  0  0
  3 15  1  0  0  0  0
  3 16  1  0  0  0  0
  3 24  1  0  0  0  0
  3 25  1  0  0  0  0
  4  7  1  0  0  0  0
  4 11  1  0  0  0  0
  4 18  2  0  0  0  0
  5  6  2  0  0  0  0
  5 18  1  0  0  0  0
  5 19  1  0  0  0  0
  6  8  1  0  0  0  0
  6 11  1  0  0  0  0
  7 26  1  0  0  0  0
  7 27  1  0  0  0  0
  7 28  1  0  0  0  0
  8 20  1  0  0  0  0
  8 29  1  0  0  0  0
  8 30  1  0  0  0  0
  9 10  1  0  0  0  0
  9 14  2  0  0  0  0
  9 17  1  0  0  0  0
 10 12  2  0  0  0  0
 12 13  1  0  0  0  0
 12 15  1  0  0  0  0
 15 16  1  0  0  0  0
 15 31  1  0  0  0  0
 16 32  1  0  0  0  0
 16 33  1  0  0  0  0
 19 34  1  0  0  0  0
 19 35  1  0  0  0  0
 19 36  1  0  0  0  0
 20 37  1  0  0  0  0
M  END
$$$$
