4YX
 OpenBabel04161909433D

 64 67  0  0  0  0  0  0  0  0999 V2000
  -52.7215    1.3525  -19.7679 C   0  0  0  0  0  0  0  0  0  0  0  0
  -53.6951    2.3446  -19.9244 C   0  0  0  0  0  0  0  0  0  0  0  0
  -50.7837   -1.2619  -21.3205 C   0  0  0  0  0  0  0  0  0  0  0  0
  -54.0156    1.7304  -22.1799 C   0  0  0  0  0  0  0  0  0  0  0  0
  -53.0555    0.7244  -22.0742 C   0  0  0  0  0  0  0  0  0  0  0  0
  -52.4093    0.5661  -20.8536 C   0  0  0  0  0  0  0  0  0  0  0  0
  -49.3226   -0.9512  -21.6410 C   0  0  0  0  0  0  0  0  0  0  0  0
  -51.0509   -2.7232  -20.9793 C   0  0  0  0  0  0  0  0  0  0  0  0
  -51.9686    0.9794  -18.6860 N   0  0  0  0  0  0  0  0  0  0  0  0
  -50.2108   -0.6847  -18.2061 C   0  0  0  0  0  0  0  0  0  0  0  0
  -51.1899   -0.0097  -19.0973 C   0  0  0  0  0  0  0  0  0  0  0  0
  -54.3092    2.5285  -21.1346 N   0  0  0  0  0  0  0  0  0  0  0  0
  -51.4171   -0.2957  -20.4276 N   0  3  0  0  0  0  0  0  0  0  0  0
  -54.7532    1.9169  -23.3477 N   0  0  0  0  0  0  0  0  0  0  0  0
  -54.7935    1.1958  -24.5496 C   0  0  0  0  0  0  0  0  0  0  0  0
  -55.9279    1.2495  -25.3247 C   0  0  0  0  0  0  0  0  0  0  0  0
  -55.9589    0.4154  -26.4161 C   0  0  0  0  0  0  0  0  0  0  0  0
  -54.9577   -0.4195  -26.7495 N   0  0  0  0  0  0  0  0  0  0  0  0
  -53.8814   -0.4230  -25.9565 C   0  0  0  0  0  0  0  0  0  0  0  0
  -53.7920    0.3614  -24.8761 N   0  0  0  0  0  0  0  0  0  0  0  0
  -52.8586   -1.3347  -26.1920 N   0  0  0  0  0  0  0  0  0  0  0  0
  -52.5960   -1.6550  -27.5840 C   0  0  0  0  0  0  0  0  0  0  0  0
  -51.9266   -3.0301  -27.6120 C   0  0  0  0  0  0  0  0  0  0  0  0
  -50.6628   -3.1003  -26.7110 C   0  0  0  0  0  0  0  0  0  0  0  0
  -50.9734   -2.5461  -25.3088 C   0  0  0  0  0  0  0  0  0  0  0  0
  -51.6561   -1.1857  -25.3872 C   0  0  0  0  0  0  0  0  0  0  0  0
  -50.2231   -4.5777  -26.5914 C   0  0  0  0  0  0  0  0  0  0  0  0
  -49.7056   -5.1225  -27.9160 C   0  0  0  0  0  0  0  0  0  0  0  0
  -49.1816   -6.4945  -27.7114 N   0  3  0  0  0  0  0  0  0  0  0  0
  -49.6446   -2.3445  -27.3905 O   0  0  0  0  0  0  0  0  0  0  0  0
  -48.4327   -2.0775  -26.6914 C   0  0  0  0  0  0  0  0  0  0  0  0
  -54.0042    2.9917  -19.1150 H   0  0  0  0  0  0  0  0  0  0  0  0
  -51.2848   -1.1412  -22.2835 H   0  0  0  0  0  0  0  0  0  0  0  0
  -52.8211    0.0941  -22.9051 H   0  0  0  0  0  0  0  0  0  0  0  0
  -48.9148   -1.6877  -22.3443 H   0  0  0  0  0  0  0  0  0  0  0  0
  -48.6898   -0.9418  -20.7526 H   0  0  0  0  0  0  0  0  0  0  0  0
  -49.2450    0.0307  -22.1230 H   0  0  0  0  0  0  0  0  0  0  0  0
  -52.1113   -2.8818  -20.7534 H   0  0  0  0  0  0  0  0  0  0  0  0
  -50.4558   -3.0719  -20.1323 H   0  0  0  0  0  0  0  0  0  0  0  0
  -50.8107   -3.3568  -21.8429 H   0  0  0  0  0  0  0  0  0  0  0  0
  -50.2734   -0.2442  -17.2034 H   0  0  0  0  0  0  0  0  0  0  0  0
  -49.1851   -0.5461  -18.5530 H   0  0  0  0  0  0  0  0  0  0  0  0
  -50.4265   -1.7517  -18.1058 H   0  0  0  0  0  0  0  0  0  0  0  0
  -55.3021    2.7623  -23.2915 H   0  0  0  0  0  0  0  0  0  0  0  0
  -56.7680    1.8812  -25.0746 H   0  0  0  0  0  0  0  0  0  0  0  0
  -56.8283    0.3799  -27.0658 H   0  0  0  0  0  0  0  0  0  0  0  0
  -51.9393   -0.8996  -28.0338 H   0  0  0  0  0  0  0  0  0  0  0  0
  -53.5038   -1.7069  -28.1979 H   0  0  0  0  0  0  0  0  0  0  0  0
  -51.6744   -3.2573  -28.6538 H   0  0  0  0  0  0  0  0  0  0  0  0
  -52.6593   -3.7764  -27.2763 H   0  0  0  0  0  0  0  0  0  0  0  0
  -50.0694   -2.4557  -24.6968 H   0  0  0  0  0  0  0  0  0  0  0  0
  -51.6305   -3.2421  -24.7703 H   0  0  0  0  0  0  0  0  0  0  0  0
  -51.8685   -0.9016  -24.3610 H   0  0  0  0  0  0  0  0  0  0  0  0
  -50.9908   -0.4224  -25.8092 H   0  0  0  0  0  0  0  0  0  0  0  0
  -51.0614   -5.1916  -26.2363 H   0  0  0  0  0  0  0  0  0  0  0  0
  -49.4388   -4.6700  -25.8289 H   0  0  0  0  0  0  0  0  0  0  0  0
  -48.8749   -4.5366  -28.3143 H   0  0  0  0  0  0  0  0  0  0  0  0
  -50.4932   -5.2026  -28.6690 H   0  0  0  0  0  0  0  0  0  0  0  0
  -48.8142   -6.8685  -28.5960 H   0  0  0  0  0  0  0  0  0  0  0  0
  -48.4110   -6.5075  -27.0312 H   0  0  0  0  0  0  0  0  0  0  0  0
  -47.7650   -1.5383  -27.3685 H   0  0  0  0  0  0  0  0  0  0  0  0
  -47.9381   -3.0055  -26.3921 H   0  0  0  0  0  0  0  0  0  0  0  0
  -48.5999   -1.4370  -25.8220 H   0  0  0  0  0  0  0  0  0  0  0  0
  -49.9114   -7.1387  -27.3827 H   0  0  0  0  0  0  0  0  0  0  0  0
  1  2  2  0  0  0  0
  1  6  1  0  0  0  0
  1  9  1  0  0  0  0
  2 12  1  0  0  0  0
  2 32  1  0  0  0  0
  3  7  1  0  0  0  0
  3  8  1  0  0  0  0
  3 13  1  0  0  0  0
  3 33  1  0  0  0  0
  4  5  1  0  0  0  0
  4 12  2  0  0  0  0
  4 14  1  0  0  0  0
  5  6  2  0  0  0  0
  5 34  1  0  0  0  0
  6 13  1  0  0  0  0
  7 35  1  0  0  0  0
  7 36  1  0  0  0  0
  7 37  1  0  0  0  0
  8 38  1  0  0  0  0
  8 39  1  0  0  0  0
  8 40  1  0  0  0  0
  9 11  1  0  0  0  0
 10 11  1  0  0  0  0
 10 41  1  0  0  0  0
 10 42  1  0  0  0  0
 10 43  1  0  0  0  0
 11 13  2  0  0  0  0
 14 15  1  0  0  0  0
 14 44  1  0  0  0  0
 15 16  2  0  0  0  0
 15 20  1  0  0  0  0
 16 17  1  0  0  0  0
 16 45  1  0  0  0  0
 17 18  2  0  0  0  0
 17 46  1  0  0  0  0
 18 19  1  0  0  0  0
 19 20  2  0  0  0  0
 19 21  1  0  0  0  0
 21 22  1  0  0  0  0
 21 26  1  0  0  0  0
 22 23  1  0  0  0  0
 22 47  1  0  0  0  0
 22 48  1  0  0  0  0
 23 24  1  0  0  0  0
 23 49  1  0  0  0  0
 23 50  1  0  0  0  0
 24 25  1  0  0  0  0
 24 27  1  0  0  0  0
 24 30  1  0  0  0  0
 25 26  1  0  0  0  0
 25 51  1  0  0  0  0
 25 52  1  0  0  0  0
 26 53  1  0  0  0  0
 26 54  1  0  0  0  0
 27 28  1  0  0  0  0
 27 55  1  0  0  0  0
 27 56  1  0  0  0  0
 28 29  1  0  0  0  0
 28 57  1  0  0  0  0
 28 58  1  0  0  0  0
 29 59  1  0  0  0  0
 29 60  1  0  0  0  0
 29 64  1  0  0  0  0
 30 31  1  0  0  0  0
 31 61  1  0  0  0  0
 31 62  1  0  0  0  0
 31 63  1  0  0  0  0
M  CHG  2  13   1  29   1
M  END
$$$$
