4YY
 OpenBabel04161911383D

 69 72  0  0  1  0  0  0  0  0999 V2000
   10.2073   56.8053   96.8961 C   0  0  0  0  0  0  0  0  0  0  0  0
    9.7397   57.5196   95.6582 C   0  0  0  0  0  0  0  0  0  0  0  0
   10.1587   56.0744   95.5768 C   0  0  0  0  0  0  0  0  0  0  0  0
    9.0990   55.1711   95.4523 F   0  0  0  0  0  0  0  0  0  0  0  0
   11.4417   55.6766   94.9038 C   0  0  0  0  0  0  0  0  0  0  0  0
   12.4490   56.3702   94.9625 O   0  0  0  0  0  0  0  0  0  0  0  0
   11.3752   54.4700   94.2627 N   0  0  0  0  0  0  0  0  0  0  0  0
   12.4820   53.8659   93.5120 C   0  0  1  0  0  0  0  0  0  0  0  0
   12.7152   52.4038   94.0028 C   0  0  0  0  0  0  0  0  0  0  0  0
   13.1803   52.4642   95.4743 C   0  0  0  0  0  0  0  0  0  0  0  0
   13.8120   51.7129   93.1800 C   0  0  0  0  0  0  0  0  0  0  0  0
   11.4416   51.5359   93.9350 C   0  0  0  0  0  0  0  0  0  0  0  0
   12.1405   53.9884   92.0035 C   0  0  0  0  0  0  0  0  0  0  0  0
   10.9832   53.7968   91.6131 O   0  0  0  0  0  0  0  0  0  0  0  0
   13.1480   54.2892   91.1036 N   0  0  0  0  0  0  0  0  0  0  0  0
   14.5417   54.6283   91.3585 C   0  0  0  0  0  0  0  0  0  0  0  0
   14.9613   55.4494   90.1333 C   0  0  2  0  0  0  0  0  0  0  0  0
   14.5699   56.8150   90.2619 O   0  0  0  0  0  0  0  0  0  0  0  0
   14.1525   54.8388   89.0060 C   0  0  0  0  0  0  0  0  0  0  0  0
   12.8282   54.4640   89.6871 C   0  0  1  0  0  0  0  0  0  0  0  0
   12.3401   53.1597   89.0558 C   0  0  0  0  0  0  0  0  0  0  0  0
   12.7904   52.0530   89.3950 O   0  0  0  0  0  0  0  0  0  0  0  0
   11.4661   53.3307   88.0166 N   0  0  0  0  0  0  0  0  0  0  0  0
   11.0355   52.2135   87.2246 C   0  0  0  0  0  0  0  0  0  0  0  0
   11.9032   51.9858   86.0170 C   0  0  0  0  0  0  0  0  0  0  0  0
   11.8116   50.7510   85.3693 C   0  0  0  0  0  0  0  0  0  0  0  0
   12.6014   50.4949   84.2527 C   0  0  0  0  0  0  0  0  0  0  0  0
   12.7672   52.9636   85.5105 C   0  0  0  0  0  0  0  0  0  0  0  0
   13.5430   52.7102   84.3843 C   0  0  0  0  0  0  0  0  0  0  0  0
   13.4691   51.4711   83.7496 C   0  0  0  0  0  0  0  0  0  0  0  0
   14.2485   51.2078   82.5456 C   0  0  0  0  0  0  0  0  0  0  0  0
   15.8867   51.7072   82.4189 S   0  0  0  0  0  0  0  0  0  0  0  0
   15.9433   51.0631   80.8351 C   0  0  0  0  0  0  0  0  0  0  0  0
   14.8396   50.4996   80.3989 N   0  0  0  0  0  0  0  0  0  0  0  0
   13.8534   50.5767   81.3721 C   0  0  0  0  0  0  0  0  0  0  0  0
   12.5043   50.0174   81.0786 C   0  0  0  0  0  0  0  0  0  0  0  0
    9.4722   56.5371   97.6448 H   0  0  0  0  0  0  0  0  0  0  0  0
   11.1837   57.0490   97.2983 H   0  0  0  0  0  0  0  0  0  0  0  0
   10.3886   58.2581   95.2043 H   0  0  0  0  0  0  0  0  0  0  0  0
    8.6824   57.7406   95.5694 H   0  0  0  0  0  0  0  0  0  0  0  0
   10.4641   54.0275   94.1961 H   0  0  0  0  0  0  0  0  0  0  0  0
   13.3804   54.4520   93.7186 H   0  0  0  0  0  0  0  0  0  0  0  0
   13.3614   51.4635   95.8793 H   0  0  0  0  0  0  0  0  0  0  0  0
   12.4291   52.9436   96.1121 H   0  0  0  0  0  0  0  0  0  0  0  0
   14.1087   53.0393   95.5658 H   0  0  0  0  0  0  0  0  0  0  0  0
   13.5213   51.6173   92.1292 H   0  0  0  0  0  0  0  0  0  0  0  0
   14.0099   50.7021   93.5536 H   0  0  0  0  0  0  0  0  0  0  0  0
   14.7507   52.2730   93.2303 H   0  0  0  0  0  0  0  0  0  0  0  0
   10.6268   51.9523   94.5361 H   0  0  0  0  0  0  0  0  0  0  0  0
   11.6326   50.5294   94.3258 H   0  0  0  0  0  0  0  0  0  0  0  0
   11.0840   51.4257   92.9066 H   0  0  0  0  0  0  0  0  0  0  0  0
   15.1076   53.6918   91.3985 H   0  0  0  0  0  0  0  0  0  0  0  0
   14.6628   55.1834   92.2883 H   0  0  0  0  0  0  0  0  0  0  0  0
   16.0394   55.4159   89.9481 H   0  0  0  0  0  0  0  0  0  0  0  0
   14.9822   57.1726   91.0679 H   0  0  0  0  0  0  0  0  0  0  0  0
   14.6684   53.9496   88.6188 H   0  0  0  0  0  0  0  0  0  0  0  0
   13.9913   55.5262   88.1697 H   0  0  0  0  0  0  0  0  0  0  0  0
   12.0725   55.2538   89.5814 H   0  0  0  0  0  0  0  0  0  0  0  0
   11.1735   54.2599   87.7386 H   0  0  0  0  0  0  0  0  0  0  0  0
   10.0098   52.4125   86.8926 H   0  0  0  0  0  0  0  0  0  0  0  0
   11.0392   51.3078   87.8450 H   0  0  0  0  0  0  0  0  0  0  0  0
   11.1406   49.9777   85.7301 H   0  0  0  0  0  0  0  0  0  0  0  0
   12.5264   49.5135   83.7979 H   0  0  0  0  0  0  0  0  0  0  0  0
   12.8594   53.9378   85.9843 H   0  0  0  0  0  0  0  0  0  0  0  0
   14.1939   53.4958   84.0086 H   0  0  0  0  0  0  0  0  0  0  0  0
   16.8391   51.1214   80.2433 H   0  0  0  0  0  0  0  0  0  0  0  0
   12.4564   49.6041   80.0690 H   0  0  0  0  0  0  0  0  0  0  0  0
   11.7336   50.7890   81.1769 H   0  0  0  0  0  0  0  0  0  0  0  0
   12.2574   49.2008   81.7634 H   0  0  0  0  0  0  0  0  0  0  0  0
  1  2  1  0  0  0  0
  1  3  1  0  0  0  0
  1 37  1  0  0  0  0
  1 38  1  0  0  0  0
  2  3  1  0  0  0  0
  2 39  1  0  0  0  0
  2 40  1  0  0  0  0
  3  4  1  0  0  0  0
  3  5  1  0  0  0  0
  5  6  2  0  0  0  0
  5  7  1  0  0  0  0
  7  8  1  0  0  0  0
  7 41  1  0  0  0  0
  8  9  1  0  0  0  0
  8 13  1  0  0  0  0
  8 42  1  1  0  0  0
  9 10  1  0  0  0  0
  9 11  1  0  0  0  0
  9 12  1  0  0  0  0
 10 43  1  0  0  0  0
 10 44  1  0  0  0  0
 10 45  1  0  0  0  0
 11 46  1  0  0  0  0
 11 47  1  0  0  0  0
 11 48  1  0  0  0  0
 12 49  1  0  0  0  0
 12 50  1  0  0  0  0
 12 51  1  0  0  0  0
 13 14  2  0  0  0  0
 13 15  1  0  0  0  0
 15 16  1  0  0  0  0
 15 20  1  0  0  0  0
 16 17  1  0  0  0  0
 16 52  1  0  0  0  0
 16 53  1  0  0  0  0
 17 18  1  0  0  0  0
 17 19  1  0  0  0  0
 17 54  1  6  0  0  0
 18 55  1  0  0  0  0
 19 20  1  0  0  0  0
 19 56  1  0  0  0  0
 19 57  1  0  0  0  0
 20 21  1  0  0  0  0
 20 58  1  6  0  0  0
 21 22  2  0  0  0  0
 21 23  1  0  0  0  0
 23 24  1  0  0  0  0
 23 59  1  0  0  0  0
 24 25  1  0  0  0  0
 24 60  1  0  0  0  0
 24 61  1  0  0  0  0
 25 26  2  0  0  0  0
 25 28  1  0  0  0  0
 26 27  1  0  0  0  0
 26 62  1  0  0  0  0
 27 30  2  0  0  0  0
 27 63  1  0  0  0  0
 28 29  2  0  0  0  0
 28 64  1  0  0  0  0
 29 30  1  0  0  0  0
 29 65  1  0  0  0  0
 30 31  1  0  0  0  0
 31 32  1  0  0  0  0
 31 35  2  0  0  0  0
 32 33  1  0  0  0  0
 33 34  2  0  0  0  0
 33 66  1  0  0  0  0
 34 35  1  0  0  0  0
 35 36  1  0  0  0  0
 36 67  1  0  0  0  0
 36 68  1  0  0  0  0
 36 69  1  0  0  0  0
M  END
$$$$
