4ZH
 OpenBabel04161909433D

 55 57  0  0  0  0  0  0  0  0999 V2000
  -54.2532    1.4063  -21.0097 C   0  0  0  0  0  0  0  0  0  0  0  0
  -55.2098    2.4093  -21.1940 C   0  0  0  0  0  0  0  0  0  0  0  0
  -52.3146   -1.2251  -22.5560 C   0  0  0  0  0  0  0  0  0  0  0  0
  -55.4731    1.8209  -23.4666 C   0  0  0  0  0  0  0  0  0  0  0  0
  -54.5153    0.8177  -23.3291 C   0  0  0  0  0  0  0  0  0  0  0  0
  -53.9131    0.6211  -22.0924 C   0  0  0  0  0  0  0  0  0  0  0  0
  -52.6729   -2.6881  -22.3061 C   0  0  0  0  0  0  0  0  0  0  0  0
  -50.8324   -0.9700  -22.8217 C   0  0  0  0  0  0  0  0  0  0  0  0
  -53.5306    1.0020  -19.9163 N   0  0  0  0  0  0  0  0  0  0  0  0
  -51.8104   -0.6909  -19.3990 C   0  0  0  0  0  0  0  0  0  0  0  0
  -52.7562    0.0038  -20.3096 C   0  0  0  0  0  0  0  0  0  0  0  0
  -55.7957    2.6100  -22.4231 N   0  0  0  0  0  0  0  0  0  0  0  0
  -52.9537   -0.2663  -21.6544 N   0  3  0  0  0  0  0  0  0  0  0  0
  -56.1912    1.9968  -24.6667 N   0  0  0  0  0  0  0  0  0  0  0  0
  -56.1438    1.2398  -25.8384 C   0  0  0  0  0  0  0  0  0  0  0  0
  -57.1741    1.1655  -26.7337 C   0  0  0  0  0  0  0  0  0  0  0  0
  -57.0652    0.1922  -27.7284 C   0  0  0  0  0  0  0  0  0  0  0  0
  -56.0367   -0.6845  -27.8291 N   0  0  0  0  0  0  0  0  0  0  0  0
  -55.0931   -0.5133  -26.9119 C   0  0  0  0  0  0  0  0  0  0  0  0
  -55.0884    0.4379  -25.9918 N   0  0  0  0  0  0  0  0  0  0  0  0
  -53.8865   -1.1448  -26.9345 O   0  0  0  0  0  0  0  0  0  0  0  0
  -53.8506   -2.5221  -27.2178 C   0  0  0  0  0  0  0  0  0  0  0  0
  -52.3931   -2.8790  -27.5859 C   0  0  0  0  0  0  0  0  0  0  0  0
  -51.4246   -2.7729  -26.3954 C   0  0  0  0  0  0  0  0  0  0  0  0
  -52.3884   -4.3397  -28.0684 C   0  0  0  0  0  0  0  0  0  0  0  0
  -51.8142   -1.7791  -28.9442 S   0  0  0  0  0  0  0  0  0  0  0  0
  -52.8898   -1.6339  -29.9003 O   0  0  0  0  0  0  0  0  0  0  0  0
  -50.5223   -2.2885  -29.3941 O   0  0  0  0  0  0  0  0  0  0  0  0
  -51.4878   -0.1616  -28.2412 C   0  0  0  0  0  0  0  0  0  0  0  0
  -55.5306    3.0495  -20.3898 H   0  0  0  0  0  0  0  0  0  0  0  0
  -52.7544   -1.0346  -23.5394 H   0  0  0  0  0  0  0  0  0  0  0  0
  -54.2087    0.1919  -24.1437 H   0  0  0  0  0  0  0  0  0  0  0  0
  -52.1269   -3.3424  -22.9996 H   0  0  0  0  0  0  0  0  0  0  0  0
  -53.7411   -2.8476  -22.5023 H   0  0  0  0  0  0  0  0  0  0  0  0
  -52.4665   -3.0209  -21.2883 H   0  0  0  0  0  0  0  0  0  0  0  0
  -50.6276    0.1022  -22.9096 H   0  0  0  0  0  0  0  0  0  0  0  0
  -50.5530   -1.4225  -23.7814 H   0  0  0  0  0  0  0  0  0  0  0  0
  -50.1791   -1.3972  -22.0579 H   0  0  0  0  0  0  0  0  0  0  0  0
  -51.8833   -0.2499  -18.3955 H   0  0  0  0  0  0  0  0  0  0  0  0
  -50.7744   -0.5725  -19.7258 H   0  0  0  0  0  0  0  0  0  0  0  0
  -52.0463   -1.7530  -19.2982 H   0  0  0  0  0  0  0  0  0  0  0  0
  -56.7182    2.8580  -24.6700 H   0  0  0  0  0  0  0  0  0  0  0  0
  -58.0446    1.7985  -26.6643 H   0  0  0  0  0  0  0  0  0  0  0  0
  -57.8385    0.0889  -28.4839 H   0  0  0  0  0  0  0  0  0  0  0  0
  -54.5482   -2.8062  -28.0094 H   0  0  0  0  0  0  0  0  0  0  0  0
  -54.1293   -3.0689  -26.3040 H   0  0  0  0  0  0  0  0  0  0  0  0
  -51.7213   -3.4429  -25.5816 H   0  0  0  0  0  0  0  0  0  0  0  0
  -51.3756   -1.7612  -25.9876 H   0  0  0  0  0  0  0  0  0  0  0  0
  -50.4061   -3.0550  -26.6925 H   0  0  0  0  0  0  0  0  0  0  0  0
  -52.7197   -5.0071  -27.2636 H   0  0  0  0  0  0  0  0  0  0  0  0
  -51.3906   -4.6639  -28.3797 H   0  0  0  0  0  0  0  0  0  0  0  0
  -53.0653   -4.4771  -28.9170 H   0  0  0  0  0  0  0  0  0  0  0  0
  -51.1385    0.4892  -29.0445 H   0  0  0  0  0  0  0  0  0  0  0  0
  -50.7089   -0.2379  -27.4828 H   0  0  0  0  0  0  0  0  0  0  0  0
  -52.3872    0.2861  -27.8242 H   0  0  0  0  0  0  0  0  0  0  0  0
  1  2  2  0  0  0  0
  1  6  1  0  0  0  0
  1  9  1  0  0  0  0
  2 12  1  0  0  0  0
  2 30  1  0  0  0  0
  3  7  1  0  0  0  0
  3  8  1  0  0  0  0
  3 13  1  0  0  0  0
  3 31  1  0  0  0  0
  4  5  1  0  0  0  0
  4 12  2  0  0  0  0
  4 14  1  0  0  0  0
  5  6  2  0  0  0  0
  5 32  1  0  0  0  0
  6 13  1  0  0  0  0
  7 33  1  0  0  0  0
  7 34  1  0  0  0  0
  7 35  1  0  0  0  0
  8 36  1  0  0  0  0
  8 37  1  0  0  0  0
  8 38  1  0  0  0  0
  9 11  1  0  0  0  0
 10 11  1  0  0  0  0
 10 39  1  0  0  0  0
 10 40  1  0  0  0  0
 10 41  1  0  0  0  0
 11 13  2  0  0  0  0
 14 15  1  0  0  0  0
 14 42  1  0  0  0  0
 15 16  2  0  0  0  0
 15 20  1  0  0  0  0
 16 17  1  0  0  0  0
 16 43  1  0  0  0  0
 17 18  2  0  0  0  0
 17 44  1  0  0  0  0
 18 19  1  0  0  0  0
 19 20  2  0  0  0  0
 19 21  1  0  0  0  0
 21 22  1  0  0  0  0
 22 23  1  0  0  0  0
 22 45  1  0  0  0  0
 22 46  1  0  0  0  0
 23 24  1  0  0  0  0
 23 25  1  0  0  0  0
 23 26  1  0  0  0  0
 24 47  1  0  0  0  0
 24 48  1  0  0  0  0
 24 49  1  0  0  0  0
 25 50  1  0  0  0  0
 25 51  1  0  0  0  0
 25 52  1  0  0  0  0
 26 27  2  0  0  0  0
 26 28  2  0  0  0  0
 26 29  1  0  0  0  0
 29 53  1  0  0  0  0
 29 54  1  0  0  0  0
 29 55  1  0  0  0  0
M  CHG  1  13   1
M  END
$$$$
