4ZJ
 OpenBabel04161909433D

 55 58  0  0  1  0  0  0  0  0999 V2000
  -52.6866    1.3873  -19.6329 C   0  0  0  0  0  0  0  0  0  0  0  0
  -53.6767    2.3693  -19.7778 C   0  0  0  0  0  0  0  0  0  0  0  0
  -50.7205   -1.1533  -21.2603 C   0  0  0  0  0  0  0  0  0  0  0  0
  -53.9615    1.7932  -22.0441 C   0  0  0  0  0  0  0  0  0  0  0  0
  -52.9960    0.8126  -21.9598 C   0  0  0  0  0  0  0  0  0  0  0  0
  -52.3570    0.6363  -20.7364 C   0  0  0  0  0  0  0  0  0  0  0  0
  -51.1464   -2.6031  -21.0523 C   0  0  0  0  0  0  0  0  0  0  0  0
  -49.2169   -0.9620  -21.4406 C   0  0  0  0  0  0  0  0  0  0  0  0
  -51.9310    0.9940  -18.5610 N   0  0  0  0  0  0  0  0  0  0  0  0
  -50.1342   -0.6559  -18.1403 C   0  0  0  0  0  0  0  0  0  0  0  0
  -51.1324    0.0330  -18.9962 C   0  0  0  0  0  0  0  0  0  0  0  0
  -54.2865    2.5738  -20.9914 N   0  0  0  0  0  0  0  0  0  0  0  0
  -51.3546   -0.2168  -20.3372 N   0  3  0  0  0  0  0  0  0  0  0  0
  -54.6890    1.9904  -23.2312 N   0  0  0  0  0  0  0  0  0  0  0  0
  -54.7712    1.2152  -24.4017 C   0  0  0  0  0  0  0  0  0  0  0  0
  -55.9117    1.2995  -25.1647 C   0  0  0  0  0  0  0  0  0  0  0  0
  -56.0016    0.4212  -26.2161 C   0  0  0  0  0  0  0  0  0  0  0  0
  -55.0520   -0.4789  -26.5246 N   0  0  0  0  0  0  0  0  0  0  0  0
  -53.9560   -0.5045  -25.7578 C   0  0  0  0  0  0  0  0  0  0  0  0
  -53.8158    0.3161  -24.7066 N   0  0  0  0  0  0  0  0  0  0  0  0
  -52.9423   -1.3924  -26.0480 N   0  0  0  0  0  0  0  0  0  0  0  0
  -51.8117   -1.5602  -25.1489 C   0  0  0  0  0  0  0  0  0  0  0  0
  -50.4977   -1.5566  -25.9239 C   0  0  0  0  0  0  0  0  0  0  0  0
  -50.5448   -2.5817  -27.0525 C   0  0  1  0  0  0  0  0  0  0  0  0
  -51.7102   -2.2537  -27.9923 C   0  0  1  0  0  0  0  0  0  0  0  0
  -53.0354   -2.2526  -27.2259 C   0  0  0  0  0  0  0  0  0  0  0  0
  -51.5199   -1.0135  -28.5357 F   0  0  0  0  0  0  0  0  0  0  0  0
  -49.3156   -2.5517  -27.7883 O   0  0  0  0  0  0  0  0  0  0  0  0
  -48.4706   -3.6607  -27.5204 C   0  0  0  0  0  0  0  0  0  0  0  0
  -53.9987    2.9957  -18.9564 H   0  0  0  0  0  0  0  0  0  0  0  0
  -51.1088   -0.9013  -22.2466 H   0  0  0  0  0  0  0  0  0  0  0  0
  -52.7329    0.2050  -22.8013 H   0  0  0  0  0  0  0  0  0  0  0  0
  -50.6750   -3.2532  -21.7977 H   0  0  0  0  0  0  0  0  0  0  0  0
  -52.2317   -2.6983  -21.1816 H   0  0  0  0  0  0  0  0  0  0  0  0
  -50.8929   -2.9765  -20.0577 H   0  0  0  0  0  0  0  0  0  0  0  0
  -48.9685    0.0998  -21.5438 H   0  0  0  0  0  0  0  0  0  0  0  0
  -48.8924   -1.4593  -22.3640 H   0  0  0  0  0  0  0  0  0  0  0  0
  -48.6376   -1.3822  -20.6160 H   0  0  0  0  0  0  0  0  0  0  0  0
  -50.1787   -0.2482  -17.1250 H   0  0  0  0  0  0  0  0  0  0  0  0
  -49.1171   -0.4975  -18.5068 H   0  0  0  0  0  0  0  0  0  0  0  0
  -50.3357   -1.7277  -18.0716 H   0  0  0  0  0  0  0  0  0  0  0  0
  -55.2535    2.8267  -23.1788 H   0  0  0  0  0  0  0  0  0  0  0  0
  -56.7144    1.9844  -24.9355 H   0  0  0  0  0  0  0  0  0  0  0  0
  -56.8761    0.4060  -26.8596 H   0  0  0  0  0  0  0  0  0  0  0  0
  -51.9192   -2.5052  -24.6008 H   0  0  0  0  0  0  0  0  0  0  0  0
  -51.7373   -0.7695  -24.4026 H   0  0  0  0  0  0  0  0  0  0  0  0
  -49.6580   -1.7634  -25.2494 H   0  0  0  0  0  0  0  0  0  0  0  0
  -50.3109   -0.5557  -26.3355 H   0  0  0  0  0  0  0  0  0  0  0  0
  -50.7047   -3.5827  -26.6285 H   0  0  0  0  0  0  0  0  0  0  0  0
  -51.7396   -2.9591  -28.8278 H   0  0  0  0  0  0  0  0  0  0  0  0
  -53.8162   -1.9302  -27.9225 H   0  0  0  0  0  0  0  0  0  0  0  0
  -53.2818   -3.2724  -26.9049 H   0  0  0  0  0  0  0  0  0  0  0  0
  -47.5650   -3.5560  -28.1243 H   0  0  0  0  0  0  0  0  0  0  0  0
  -48.9684   -4.5929  -27.8051 H   0  0  0  0  0  0  0  0  0  0  0  0
  -48.1890   -3.6881  -26.4639 H   0  0  0  0  0  0  0  0  0  0  0  0
  1  2  2  0  0  0  0
  1  6  1  0  0  0  0
  1  9  1  0  0  0  0
  2 12  1  0  0  0  0
  2 30  1  0  0  0  0
  3  7  1  0  0  0  0
  3  8  1  0  0  0  0
  3 13  1  0  0  0  0
  3 31  1  0  0  0  0
  4  5  1  0  0  0  0
  4 12  2  0  0  0  0
  4 14  1  0  0  0  0
  5  6  2  0  0  0  0
  5 32  1  0  0  0  0
  6 13  1  0  0  0  0
  7 33  1  0  0  0  0
  7 34  1  0  0  0  0
  7 35  1  0  0  0  0
  8 36  1  0  0  0  0
  8 37  1  0  0  0  0
  8 38  1  0  0  0  0
  9 11  1  0  0  0  0
 10 11  1  0  0  0  0
 10 39  1  0  0  0  0
 10 40  1  0  0  0  0
 10 41  1  0  0  0  0
 11 13  2  0  0  0  0
 14 15  1  0  0  0  0
 14 42  1  0  0  0  0
 15 16  2  0  0  0  0
 15 20  1  0  0  0  0
 16 17  1  0  0  0  0
 16 43  1  0  0  0  0
 17 18  2  0  0  0  0
 17 44  1  0  0  0  0
 18 19  1  0  0  0  0
 19 20  2  0  0  0  0
 19 21  1  0  0  0  0
 21 22  1  0  0  0  0
 21 26  1  0  0  0  0
 22 23  1  0  0  0  0
 22 45  1  0  0  0  0
 22 46  1  0  0  0  0
 23 24  1  0  0  0  0
 23 47  1  0  0  0  0
 23 48  1  0  0  0  0
 24 25  1  0  0  0  0
 24 28  1  0  0  0  0
 24 49  1  1  0  0  0
 25 26  1  0  0  0  0
 25 27  1  0  0  0  0
 25 50  1  6  0  0  0
 26 51  1  0  0  0  0
 26 52  1  0  0  0  0
 28 29  1  0  0  0  0
 29 53  1  0  0  0  0
 29 54  1  0  0  0  0
 29 55  1  0  0  0  0
M  CHG  1  13   1
M  END
$$$$
