4ZN
 OpenBabel04161909443D

 29 29  0  0  1  0  0  0  0  0999 V2000
  172.0806   12.6063   85.6825 N   0  3  0  0  0  0  0  0  0  0  0  0
  171.9547   14.6720   84.3656 C   0  0  0  0  0  0  0  0  0  0  0  0
  171.2696   16.9651   84.7487 C   0  0  0  0  0  0  0  0  0  0  0  0
  170.2201   15.6801   82.9995 C   0  0  0  0  0  0  0  0  0  0  0  0
  175.6658   16.2070   84.7316 C   0  0  0  0  0  0  0  0  0  0  0  0
  175.3666   14.7921   84.2453 C   0  0  0  0  0  0  0  0  0  0  0  0
  174.5485   13.7445   85.4613 P   0  0  2  0  0  0  0  0  0  0  0  0
  174.2498   14.3663   86.8089 O   0  0  0  0  0  0  0  0  0  0  0  0
  175.0501   12.3135   85.4479 O   0  0  0  0  0  0  0  0  0  0  0  0
  172.8134   13.4915   84.7087 C   0  0  1  0  0  0  0  0  0  0  0  0
  172.0516   15.8651   85.0889 C   0  0  0  0  0  0  0  0  0  0  0  0
  170.3549   16.8735   83.7077 C   0  0  0  0  0  0  0  0  0  0  0  0
  171.0112   14.5811   83.3284 C   0  0  0  0  0  0  0  0  0  0  0  0
  175.1671   17.2474   83.7332 C   0  0  0  0  0  0  0  0  0  0  0  0
  174.5397   18.2220   84.2498 O   0  0  0  0  0  0  0  0  0  0  0  0
  175.4240   17.0230   82.5214 O   0  0  0  0  0  0  0  0  0  0  0  0
  172.7714   11.8627   85.8956 H   0  0  0  0  0  0  0  0  0  0  0  0
  172.0427   13.1716   86.5452 H   0  0  0  0  0  0  0  0  0  0  0  0
  171.4307   17.9033   85.2746 H   0  0  0  0  0  0  0  0  0  0  0  0
  169.5214   15.6225   82.1704 H   0  0  0  0  0  0  0  0  0  0  0  0
  176.7448   16.3345   84.8690 H   0  0  0  0  0  0  0  0  0  0  0  0
  175.2055   16.3868   85.7060 H   0  0  0  0  0  0  0  0  0  0  0  0
  176.3121   14.3048   83.9726 H   0  0  0  0  0  0  0  0  0  0  0  0
  174.7642   14.7927   83.3304 H   0  0  0  0  0  0  0  0  0  0  0  0
  172.9822   12.8763   83.8152 H   0  0  0  0  0  0  0  0  0  0  0  0
  172.7764   15.9894   85.8918 H   0  0  0  0  0  0  0  0  0  0  0  0
  169.7763   17.7479   83.4305 H   0  0  0  0  0  0  0  0  0  0  0  0
  170.9119   13.6682   82.7454 H   0  0  0  0  0  0  0  0  0  0  0  0
  171.1786   12.2779   85.3615 H   0  0  0  0  0  0  0  0  0  0  0  0
  1 10  1  0  0  0  0
  1 17  1  0  0  0  0
  1 18  1  0  0  0  0
  1 29  1  0  0  0  0
  2 10  1  0  0  0  0
  2 11  2  0  0  0  0
  2 13  1  0  0  0  0
  3 11  1  0  0  0  0
  3 12  2  0  0  0  0
  3 19  1  0  0  0  0
  4 12  1  0  0  0  0
  4 13  2  0  0  0  0
  4 20  1  0  0  0  0
  5  6  1  0  0  0  0
  5 14  1  0  0  0  0
  5 21  1  0  0  0  0
  5 22  1  0  0  0  0
  6 23  1  0  0  0  0
  6 24  1  0  0  0  0
  7  6  1  6  0  0  0
  7  8  2  0  0  0  0
  7  9  1  0  0  0  0
  7 10  1  0  0  0  0
 10 25  1  6  0  0  0
 11 26  1  0  0  0  0
 12 27  1  0  0  0  0
 13 28  1  0  0  0  0
 14 15  2  0  0  0  0
 14 16  1  0  0  0  0
M  CHG  1   1   1
M  END
$$$$
