4ZQ
 OpenBabel04161909433D

 59 62  0  0  1  0  0  0  0  0999 V2000
  -49.5530   -0.9224  -21.9298 C   0  0  0  0  0  0  0  0  0  0  0  0
  -52.6804    1.1650  -19.6251 C   0  0  0  0  0  0  0  0  0  0  0  0
  -53.6714    2.1342  -19.7674 C   0  0  0  0  0  0  0  0  0  0  0  0
  -53.9305    1.5804  -22.0368 C   0  0  0  0  0  0  0  0  0  0  0  0
  -52.9444    0.5930  -21.9562 C   0  0  0  0  0  0  0  0  0  0  0  0
  -52.3100    0.3954  -20.7183 C   0  0  0  0  0  0  0  0  0  0  0  0
  -50.5774   -1.4821  -20.9573 C   0  0  2  0  0  0  0  0  0  0  0  0
  -51.4776   -2.5687  -21.5411 C   0  0  0  0  0  0  0  0  0  0  0  0
  -51.1228   -0.1323  -18.8960 C   0  0  0  0  0  0  0  0  0  0  0  0
  -50.0112   -0.1526  -16.6388 C   0  0  0  0  0  0  0  0  0  0  0  0
  -50.1217   -0.8060  -18.0085 C   0  0  1  0  0  0  0  0  0  0  0  0
  -51.9509    0.8157  -18.5199 N   0  0  0  0  0  0  0  0  0  0  0  0
  -54.2807    2.3314  -20.9705 N   0  0  0  0  0  0  0  0  0  0  0  0
  -51.3116   -0.4409  -20.2524 N   0  3  0  0  0  0  0  0  0  0  0  0
  -48.7152   -0.0625  -21.3055 F   0  0  0  0  0  0  0  0  0  0  0  0
  -48.7831   -1.9220  -22.4297 F   0  0  0  0  0  0  0  0  0  0  0  0
  -50.1063   -0.2863  -22.9780 F   0  0  0  0  0  0  0  0  0  0  0  0
  -54.6575    1.8439  -23.1974 N   0  0  0  0  0  0  0  0  0  0  0  0
  -54.8143    1.1250  -24.3883 C   0  0  0  0  0  0  0  0  0  0  0  0
  -55.9837    1.2724  -25.1043 C   0  0  0  0  0  0  0  0  0  0  0  0
  -56.1079    0.4779  -26.2152 C   0  0  0  0  0  0  0  0  0  0  0  0
  -55.1739   -0.4043  -26.6122 N   0  0  0  0  0  0  0  0  0  0  0  0
  -54.0608   -0.5085  -25.8660 C   0  0  0  0  0  0  0  0  0  0  0  0
  -53.8867    0.2233  -24.7589 N   0  0  0  0  0  0  0  0  0  0  0  0
  -53.0469   -1.3670  -26.2394 N   0  0  0  0  0  0  0  0  0  0  0  0
  -52.0518   -1.8127  -25.2756 C   0  0  0  0  0  0  0  0  0  0  0  0
  -50.6551   -1.8168  -25.8977 C   0  0  0  0  0  0  0  0  0  0  0  0
  -50.6334   -2.6053  -27.2069 C   0  0  1  0  0  0  0  0  0  0  0  0
  -51.7183   -2.0953  -28.1663 C   0  0  1  0  0  0  0  0  0  0  0  0
  -53.1045   -2.0734  -27.5117 C   0  0  0  0  0  0  0  0  0  0  0  0
  -51.4106   -0.8226  -28.5584 F   0  0  0  0  0  0  0  0  0  0  0  0
  -49.3511   -2.4614  -27.8415 O   0  0  0  0  0  0  0  0  0  0  0  0
  -48.5242   -3.6080  -27.7237 C   0  0  0  0  0  0  0  0  0  0  0  0
  -50.5510   -2.1621  -17.8515 O   0  0  0  0  0  0  0  0  0  0  0  0
  -53.9902    2.7709  -18.9527 H   0  0  0  0  0  0  0  0  0  0  0  0
  -52.6368    0.0428  -22.8258 H   0  0  0  0  0  0  0  0  0  0  0  0
  -49.9783   -2.0071  -20.2086 H   0  0  0  0  0  0  0  0  0  0  0  0
  -52.1931   -2.9173  -20.7884 H   0  0  0  0  0  0  0  0  0  0  0  0
  -50.8836   -3.4354  -21.8532 H   0  0  0  0  0  0  0  0  0  0  0  0
  -52.0448   -2.2242  -22.4046 H   0  0  0  0  0  0  0  0  0  0  0  0
  -49.2871   -0.6888  -16.0162 H   0  0  0  0  0  0  0  0  0  0  0  0
  -50.9681   -0.1786  -16.1060 H   0  0  0  0  0  0  0  0  0  0  0  0
  -49.6905    0.8900  -16.7257 H   0  0  0  0  0  0  0  0  0  0  0  0
  -49.1337   -0.8102  -18.4767 H   0  0  0  0  0  0  0  0  0  0  0  0
  -55.1118    2.7478  -23.1531 H   0  0  0  0  0  0  0  0  0  0  0  0
  -56.7688    1.9515  -24.8010 H   0  0  0  0  0  0  0  0  0  0  0  0
  -57.0009    0.5364  -26.8394 H   0  0  0  0  0  0  0  0  0  0  0  0
  -52.3051   -2.8256  -24.9364 H   0  0  0  0  0  0  0  0  0  0  0  0
  -52.0186   -1.1883  -24.3849 H   0  0  0  0  0  0  0  0  0  0  0  0
  -49.9290   -2.2459  -25.1935 H   0  0  0  0  0  0  0  0  0  0  0  0
  -50.3241   -0.7863  -26.0762 H   0  0  0  0  0  0  0  0  0  0  0  0
  -50.8229   -3.6653  -26.9895 H   0  0  0  0  0  0  0  0  0  0  0  0
  -51.7289   -2.7091  -29.0729 H   0  0  0  0  0  0  0  0  0  0  0  0
  -53.7948   -1.5924  -28.2122 H   0  0  0  0  0  0  0  0  0  0  0  0
  -53.4495   -3.0997  -27.3397 H   0  0  0  0  0  0  0  0  0  0  0  0
  -47.5765   -3.4107  -28.2352 H   0  0  0  0  0  0  0  0  0  0  0  0
  -49.0016   -4.4668  -28.2052 H   0  0  0  0  0  0  0  0  0  0  0  0
  -48.3188   -3.8261  -26.6729 H   0  0  0  0  0  0  0  0  0  0  0  0
  -51.4128   -2.1316  -17.3960 H   0  0  0  0  0  0  0  0  0  0  0  0
  1  7  1  0  0  0  0
  1 15  1  0  0  0  0
  1 16  1  0  0  0  0
  1 17  1  0  0  0  0
  2  3  2  0  0  0  0
  2  6  1  0  0  0  0
  2 12  1  0  0  0  0
  3 13  1  0  0  0  0
  3 35  1  0  0  0  0
  4  5  1  0  0  0  0
  4 13  2  0  0  0  0
  4 18  1  0  0  0  0
  5  6  2  0  0  0  0
  5 36  1  0  0  0  0
  6 14  1  0  0  0  0
  7  8  1  0  0  0  0
  7 14  1  0  0  0  0
  7 37  1  1  0  0  0
  8 38  1  0  0  0  0
  8 39  1  0  0  0  0
  8 40  1  0  0  0  0
  9 11  1  0  0  0  0
  9 12  1  0  0  0  0
  9 14  2  0  0  0  0
 10 11  1  0  0  0  0
 10 41  1  0  0  0  0
 10 42  1  0  0  0  0
 10 43  1  0  0  0  0
 11 34  1  0  0  0  0
 11 44  1  6  0  0  0
 18 19  1  0  0  0  0
 18 45  1  0  0  0  0
 19 20  2  0  0  0  0
 19 24  1  0  0  0  0
 20 21  1  0  0  0  0
 20 46  1  0  0  0  0
 21 22  2  0  0  0  0
 21 47  1  0  0  0  0
 22 23  1  0  0  0  0
 23 24  2  0  0  0  0
 23 25  1  0  0  0  0
 25 26  1  0  0  0  0
 25 30  1  0  0  0  0
 26 27  1  0  0  0  0
 26 48  1  0  0  0  0
 26 49  1  0  0  0  0
 27 28  1  0  0  0  0
 27 50  1  0  0  0  0
 27 51  1  0  0  0  0
 28 29  1  0  0  0  0
 28 32  1  0  0  0  0
 28 52  1  1  0  0  0
 29 30  1  0  0  0  0
 29 31  1  0  0  0  0
 29 53  1  6  0  0  0
 30 54  1  0  0  0  0
 30 55  1  0  0  0  0
 32 33  1  0  0  0  0
 33 56  1  0  0  0  0
 33 57  1  0  0  0  0
 33 58  1  0  0  0  0
 34 59  1  0  0  0  0
M  CHG  1  14   1
M  END
$$$$
