4ZR
 OpenBabel04161909433D

 59 62  0  0  1  0  0  0  0  0999 V2000
  -49.6237   -1.0061  -21.9855 C   0  0  0  0  0  0  0  0  0  0  0  0
  -52.7429    1.0630  -19.7238 C   0  0  0  0  0  0  0  0  0  0  0  0
  -53.6980    2.0668  -19.8672 C   0  0  0  0  0  0  0  0  0  0  0  0
  -53.9622    1.4962  -22.1306 C   0  0  0  0  0  0  0  0  0  0  0  0
  -53.0154    0.4644  -22.0404 C   0  0  0  0  0  0  0  0  0  0  0  0
  -52.3941    0.2655  -20.8042 C   0  0  0  0  0  0  0  0  0  0  0  0
  -50.6545   -1.6045  -21.0424 C   0  0  2  0  0  0  0  0  0  0  0  0
  -51.5231   -2.6890  -21.6827 C   0  0  0  0  0  0  0  0  0  0  0  0
  -51.1947   -0.2367  -18.9907 C   0  0  0  0  0  0  0  0  0  0  0  0
  -50.1109   -0.1804  -16.7247 C   0  0  0  0  0  0  0  0  0  0  0  0
  -50.1808   -0.8717  -18.0830 C   0  0  1  0  0  0  0  0  0  0  0  0
  -52.0233    0.7157  -18.6131 N   0  0  0  0  0  0  0  0  0  0  0  0
  -54.2827    2.2810  -21.0790 N   0  0  0  0  0  0  0  0  0  0  0  0
  -51.4061   -0.5714  -20.3220 N   0  3  0  0  0  0  0  0  0  0  0  0
  -50.1729   -0.3426  -23.0190 F   0  0  0  0  0  0  0  0  0  0  0  0
  -48.7996   -0.1592  -21.3256 F   0  0  0  0  0  0  0  0  0  0  0  0
  -48.8420   -1.9827  -22.5113 F   0  0  0  0  0  0  0  0  0  0  0  0
  -54.7019    1.7554  -23.2796 N   0  0  0  0  0  0  0  0  0  0  0  0
  -54.8783    1.0184  -24.4560 C   0  0  0  0  0  0  0  0  0  0  0  0
  -56.0752    1.1381  -25.1269 C   0  0  0  0  0  0  0  0  0  0  0  0
  -56.2226    0.3419  -26.2328 C   0  0  0  0  0  0  0  0  0  0  0  0
  -55.2762   -0.5127  -26.6703 N   0  0  0  0  0  0  0  0  0  0  0  0
  -54.1396   -0.5932  -25.9645 C   0  0  0  0  0  0  0  0  0  0  0  0
  -53.9484    0.1339  -24.8556 N   0  0  0  0  0  0  0  0  0  0  0  0
  -53.1114   -1.4106  -26.3883 N   0  0  0  0  0  0  0  0  0  0  0  0
  -53.2079   -2.1405  -27.6403 C   0  0  0  0  0  0  0  0  0  0  0  0
  -51.8316   -2.2152  -28.3132 C   0  0  0  0  0  0  0  0  0  0  0  0
  -50.7481   -2.7274  -27.3610 C   0  0  2  0  0  0  0  0  0  0  0  0
  -50.7052   -1.8640  -26.0977 C   0  0  2  0  0  0  0  0  0  0  0  0
  -52.0844   -1.8331  -25.4378 C   0  0  0  0  0  0  0  0  0  0  0  0
  -50.3447   -0.5885  -26.4243 F   0  0  0  0  0  0  0  0  0  0  0  0
  -49.4915   -2.7015  -28.0559 O   0  0  0  0  0  0  0  0  0  0  0  0
  -48.6047   -3.7396  -27.6640 C   0  0  0  0  0  0  0  0  0  0  0  0
  -50.5825   -2.2281  -17.9000 O   0  0  0  0  0  0  0  0  0  0  0  0
  -53.9940    2.7093  -19.0530 H   0  0  0  0  0  0  0  0  0  0  0  0
  -52.7417   -0.1139  -22.9025 H   0  0  0  0  0  0  0  0  0  0  0  0
  -50.0701   -2.1406  -20.2896 H   0  0  0  0  0  0  0  0  0  0  0  0
  -52.2544   -3.0763  -20.9647 H   0  0  0  0  0  0  0  0  0  0  0  0
  -50.9004   -3.5356  -21.9990 H   0  0  0  0  0  0  0  0  0  0  0  0
  -52.0674   -2.3380  -22.5599 H   0  0  0  0  0  0  0  0  0  0  0  0
  -49.3878   -0.6810  -16.0737 H   0  0  0  0  0  0  0  0  0  0  0  0
  -51.0778   -0.2194  -16.2086 H   0  0  0  0  0  0  0  0  0  0  0  0
  -49.8210    0.8707  -16.8273 H   0  0  0  0  0  0  0  0  0  0  0  0
  -49.1869   -0.8601  -18.5434 H   0  0  0  0  0  0  0  0  0  0  0  0
  -55.1565    2.6505  -23.2251 H   0  0  0  0  0  0  0  0  0  0  0  0
  -56.8684    1.7953  -24.7902 H   0  0  0  0  0  0  0  0  0  0  0  0
  -57.1357    0.3729  -26.8197 H   0  0  0  0  0  0  0  0  0  0  0  0
  -53.9000   -1.6682  -28.3452 H   0  0  0  0  0  0  0  0  0  0  0  0
  -53.5750   -3.1554  -27.4443 H   0  0  0  0  0  0  0  0  0  0  0  0
  -51.5450   -1.2273  -28.6964 H   0  0  0  0  0  0  0  0  0  0  0  0
  -51.8821   -2.8718  -29.1902 H   0  0  0  0  0  0  0  0  0  0  0  0
  -50.9882   -3.7639  -27.0881 H   0  0  0  0  0  0  0  0  0  0  0  0
  -49.9489   -2.2306  -25.3965 H   0  0  0  0  0  0  0  0  0  0  0  0
  -52.3343   -2.8333  -25.0591 H   0  0  0  0  0  0  0  0  0  0  0  0
  -52.0140   -1.1707  -24.5760 H   0  0  0  0  0  0  0  0  0  0  0  0
  -47.6631   -3.6156  -28.2071 H   0  0  0  0  0  0  0  0  0  0  0  0
  -49.0317   -4.7095  -27.9356 H   0  0  0  0  0  0  0  0  0  0  0  0
  -48.3970   -3.7058  -26.5906 H   0  0  0  0  0  0  0  0  0  0  0  0
  -51.4470   -2.1965  -17.4492 H   0  0  0  0  0  0  0  0  0  0  0  0
  1  7  1  0  0  0  0
  1 15  1  0  0  0  0
  1 16  1  0  0  0  0
  1 17  1  0  0  0  0
  2  3  2  0  0  0  0
  2  6  1  0  0  0  0
  2 12  1  0  0  0  0
  3 13  1  0  0  0  0
  3 35  1  0  0  0  0
  4  5  1  0  0  0  0
  4 13  2  0  0  0  0
  4 18  1  0  0  0  0
  5  6  2  0  0  0  0
  5 36  1  0  0  0  0
  6 14  1  0  0  0  0
  7  8  1  0  0  0  0
  7 14  1  0  0  0  0
  7 37  1  1  0  0  0
  8 38  1  0  0  0  0
  8 39  1  0  0  0  0
  8 40  1  0  0  0  0
  9 11  1  0  0  0  0
  9 12  1  0  0  0  0
  9 14  2  0  0  0  0
 10 11  1  0  0  0  0
 10 41  1  0  0  0  0
 10 42  1  0  0  0  0
 10 43  1  0  0  0  0
 11 34  1  0  0  0  0
 11 44  1  6  0  0  0
 18 19  1  0  0  0  0
 18 45  1  0  0  0  0
 19 20  2  0  0  0  0
 19 24  1  0  0  0  0
 20 21  1  0  0  0  0
 20 46  1  0  0  0  0
 21 22  2  0  0  0  0
 21 47  1  0  0  0  0
 22 23  1  0  0  0  0
 23 24  2  0  0  0  0
 23 25  1  0  0  0  0
 25 26  1  0  0  0  0
 25 30  1  0  0  0  0
 26 27  1  0  0  0  0
 26 48  1  0  0  0  0
 26 49  1  0  0  0  0
 27 28  1  0  0  0  0
 27 50  1  0  0  0  0
 27 51  1  0  0  0  0
 28 29  1  0  0  0  0
 28 32  1  0  0  0  0
 28 52  1  1  0  0  0
 29 30  1  0  0  0  0
 29 31  1  0  0  0  0
 29 53  1  1  0  0  0
 30 54  1  0  0  0  0
 30 55  1  0  0  0  0
 32 33  1  0  0  0  0
 33 56  1  0  0  0  0
 33 57  1  0  0  0  0
 33 58  1  0  0  0  0
 34 59  1  0  0  0  0
M  CHG  1  14   1
M  END
$$$$
