51Y
 OpenBabel04161909453D

 35 36  0  0  1  0  0  0  0  0999 V2000
  -27.7104    3.4670   -4.4149 C   0  0  0  0  0  0  0  0  0  0  0  0
  -26.7084    2.5314   -4.6860 C   0  0  0  0  0  0  0  0  0  0  0  0
  -27.4521    4.8283   -4.4191 C   0  0  0  0  0  0  0  0  0  0  0  0
  -24.3265    2.0067   -5.1915 C   0  0  0  0  0  0  0  0  0  0  0  0
  -25.4189    2.9850   -4.9292 C   0  0  0  0  0  0  0  0  0  0  0  0
  -25.1561    4.3544   -4.9264 C   0  0  0  0  0  0  0  0  0  0  0  0
  -26.1685    5.2688   -4.6739 C   0  0  0  0  0  0  0  0  0  0  0  0
  -26.9338    1.1673   -4.6676 N   0  0  0  0  0  0  0  0  0  0  0  0
  -28.1472    0.6808   -4.0881 C   0  0  1  0  0  0  0  0  0  0  0  0
  -29.2886    0.5617   -5.1001 C   0  0  1  0  0  0  0  0  0  0  0  0
  -30.3432    1.4257   -4.6623 O   0  0  0  0  0  0  0  0  0  0  0  0
  -28.9282    0.9141   -6.5300 C   0  0  0  0  0  0  0  0  0  0  0  0
  -29.7978   -0.8625   -5.0454 C   0  0  0  0  0  0  0  0  0  0  0  0
  -29.1066   -1.5313   -3.8818 C   0  0  0  0  0  0  0  0  0  0  0  0
  -27.8917   -0.7016   -3.5433 C   0  0  0  0  0  0  0  0  0  0  0  0
  -23.5481    4.9042   -5.2414 Cl  0  0  0  0  0  0  0  0  0  0  0  0
  -25.8890    6.6755   -4.6887 C   0  0  0  0  0  0  0  0  0  0  0  0
  -25.6684    7.7930   -4.7259 N   0  0  0  0  0  0  0  0  0  0  0  0
  -28.7322    3.1439   -4.2241 H   0  0  0  0  0  0  0  0  0  0  0  0
  -28.2563    5.5345   -4.2231 H   0  0  0  0  0  0  0  0  0  0  0  0
  -24.6841    0.9833   -5.1524 H   0  0  0  0  0  0  0  0  0  0  0  0
  -23.5571    2.1024   -4.4291 H   0  0  0  0  0  0  0  0  0  0  0  0
  -23.9200    2.1721   -6.1870 H   0  0  0  0  0  0  0  0  0  0  0  0
  -26.2950    0.5134   -5.0928 H   0  0  0  0  0  0  0  0  0  0  0  0
  -28.4463    1.3468   -3.2731 H   0  0  0  0  0  0  0  0  0  0  0  0
  -30.6019    1.1339   -3.7785 H   0  0  0  0  0  0  0  0  0  0  0  0
  -29.8053    0.7915   -7.1730 H   0  0  0  0  0  0  0  0  0  0  0  0
  -28.1258    0.2616   -6.8916 H   0  0  0  0  0  0  0  0  0  0  0  0
  -28.6030    1.9558   -6.5967 H   0  0  0  0  0  0  0  0  0  0  0  0
  -29.5578   -1.3889   -5.9761 H   0  0  0  0  0  0  0  0  0  0  0  0
  -30.8827   -0.8717   -4.9003 H   0  0  0  0  0  0  0  0  0  0  0  0
  -28.8045   -2.5469   -4.1566 H   0  0  0  0  0  0  0  0  0  0  0  0
  -29.7827   -1.5793   -3.0223 H   0  0  0  0  0  0  0  0  0  0  0  0
  -27.7471   -0.6555   -2.4587 H   0  0  0  0  0  0  0  0  0  0  0  0
  -26.9985   -1.1361   -3.9996 H   0  0  0  0  0  0  0  0  0  0  0  0
  1  2  2  0  0  0  0
  1  3  1  0  0  0  0
  1 19  1  0  0  0  0
  2  5  1  0  0  0  0
  2  8  1  0  0  0  0
  3  7  2  0  0  0  0
  3 20  1  0  0  0  0
  4  5  1  0  0  0  0
  4 21  1  0  0  0  0
  4 22  1  0  0  0  0
  4 23  1  0  0  0  0
  5  6  2  0  0  0  0
  6  7  1  0  0  0  0
  6 16  1  0  0  0  0
  7 17  1  0  0  0  0
  8  9  1  0  0  0  0
  8 24  1  0  0  0  0
  9 10  1  0  0  0  0
  9 15  1  0  0  0  0
  9 25  1  1  0  0  0
 10 11  1  1  0  0  0
 10 12  1  0  0  0  0
 10 13  1  0  0  0  0
 11 26  1  0  0  0  0
 12 27  1  0  0  0  0
 12 28  1  0  0  0  0
 12 29  1  0  0  0  0
 13 14  1  0  0  0  0
 13 30  1  0  0  0  0
 13 31  1  0  0  0  0
 14 15  1  0  0  0  0
 14 32  1  0  0  0  0
 14 33  1  0  0  0  0
 15 34  1  0  0  0  0
 15 35  1  0  0  0  0
 17 18  3  0  0  0  0
M  END
$$$$
