520
 OpenBabel04161909583D

 41 43  0  0  0  0  0  0  0  0999 V2000
   -0.2704   10.0109   14.3902 C   0  0  0  0  0  0  0  0  0  0  0  0
    0.1654   11.0705   15.1848 C   0  0  0  0  0  0  0  0  0  0  0  0
   -0.1978   12.3854   14.8812 C   0  0  0  0  0  0  0  0  0  0  0  0
    0.1919   13.4246   15.7047 N   0  0  0  0  0  0  0  0  0  0  0  0
   -1.0244   12.6259   13.7786 C   0  0  0  0  0  0  0  0  0  0  0  0
   -1.4617   11.5747   12.9708 C   0  0  0  0  0  0  0  0  0  0  0  0
   -1.0849   10.2699   13.2849 C   0  0  0  0  0  0  0  0  0  0  0  0
   -1.5503    9.1609   12.4273 C   0  0  0  0  0  0  0  0  0  0  0  0
   -1.4555    9.2444   11.2135 O   0  0  0  0  0  0  0  0  0  0  0  0
   -2.1381    7.9578   13.0541 C   0  0  0  0  0  0  0  0  0  0  0  0
   -1.8880    6.7047   12.4881 C   0  0  0  0  0  0  0  0  0  0  0  0
   -2.4672    5.5704   13.0466 C   0  0  0  0  0  0  0  0  0  0  0  0
   -2.9579    8.0836   14.1770 C   0  0  0  0  0  0  0  0  0  0  0  0
   -3.5332    6.9477   14.7297 C   0  0  0  0  0  0  0  0  0  0  0  0
   -3.3050    5.6838   14.1621 C   0  0  0  0  0  0  0  0  0  0  0  0
   -3.9522    4.5085   14.7301 C   0  0  0  0  0  0  0  0  0  0  0  0
   -3.2075    3.3619   15.0467 C   0  0  0  0  0  0  0  0  0  0  0  0
   -3.8169    2.2702   15.6530 C   0  0  0  0  0  0  0  0  0  0  0  0
   -5.1834    2.3283   15.9379 C   0  0  0  0  0  0  0  0  0  0  0  0
   -5.4191    0.9796   18.1378 O   0  0  0  0  0  0  0  0  0  0  0  0
   -7.3796    1.0549   16.5401 O   0  0  0  0  0  0  0  0  0  0  0  0
   -5.9435    3.4460   15.6001 C   0  0  0  0  0  0  0  0  0  0  0  0
   -5.3336    4.5315   15.0016 C   0  0  0  0  0  0  0  0  0  0  0  0
   -5.9582    0.9991   16.7992 S   0  0  0  0  0  0  0  0  0  0  0  0
   -5.4049   -0.3550   16.0207 N   0  0  0  0  0  0  0  0  0  0  0  0
    0.0364    8.9970   14.6344 H   0  0  0  0  0  0  0  0  0  0  0  0
    0.8016   10.8613   16.0407 H   0  0  0  0  0  0  0  0  0  0  0  0
   -0.0144   14.3810   15.4500 H   0  0  0  0  0  0  0  0  0  0  0  0
    0.8424   13.2612   16.4609 H   0  0  0  0  0  0  0  0  0  0  0  0
   -1.3284   13.6403   13.5341 H   0  0  0  0  0  0  0  0  0  0  0  0
   -2.0997   11.7728   12.1128 H   0  0  0  0  0  0  0  0  0  0  0  0
   -1.2503    6.6126   11.6111 H   0  0  0  0  0  0  0  0  0  0  0  0
   -2.2806    4.5995   12.5926 H   0  0  0  0  0  0  0  0  0  0  0  0
   -3.1768    9.0502   14.6201 H   0  0  0  0  0  0  0  0  0  0  0  0
   -4.1734    7.0524   15.6050 H   0  0  0  0  0  0  0  0  0  0  0  0
   -2.1349    3.3369   14.8500 H   0  0  0  0  0  0  0  0  0  0  0  0
   -3.2151    1.4099   15.9292 H   0  0  0  0  0  0  0  0  0  0  0  0
   -7.0110    3.4928   15.8301 H   0  0  0  0  0  0  0  0  0  0  0  0
   -5.9242    5.4109   14.7556 H   0  0  0  0  0  0  0  0  0  0  0  0
   -5.7239   -1.2467   16.3864 H   0  0  0  0  0  0  0  0  0  0  0  0
   -4.7612   -0.2987   15.2380 H   0  0  0  0  0  0  0  0  0  0  0  0
  1  2  2  0  0  0  0
  1  7  1  0  0  0  0
  1 26  1  0  0  0  0
  2  3  1  0  0  0  0
  2 27  1  0  0  0  0
  3  4  1  0  0  0  0
  3  5  2  0  0  0  0
  4 28  1  0  0  0  0
  4 29  1  0  0  0  0
  5  6  1  0  0  0  0
  5 30  1  0  0  0  0
  6  7  2  0  0  0  0
  6 31  1  0  0  0  0
  7  8  1  0  0  0  0
  8  9  2  0  0  0  0
  8 10  1  0  0  0  0
 10 11  2  0  0  0  0
 10 13  1  0  0  0  0
 11 12  1  0  0  0  0
 11 32  1  0  0  0  0
 12 15  2  0  0  0  0
 12 33  1  0  0  0  0
 13 14  2  0  0  0  0
 13 34  1  0  0  0  0
 14 15  1  0  0  0  0
 14 35  1  0  0  0  0
 15 16  1  0  0  0  0
 16 17  2  0  0  0  0
 16 23  1  0  0  0  0
 17 18  1  0  0  0  0
 17 36  1  0  0  0  0
 18 19  2  0  0  0  0
 18 37  1  0  0  0  0
 19 22  1  0  0  0  0
 19 24  1  0  0  0  0
 20 24  2  0  0  0  0
 21 24  2  0  0  0  0
 22 23  2  0  0  0  0
 22 38  1  0  0  0  0
 23 39  1  0  0  0  0
 24 25  1  0  0  0  0
 25 40  1  0  0  0  0
 25 41  1  0  0  0  0
M  END
$$$$
