52L
 OpenBabel04161909463D

 30 29  0  0  1  0  0  0  0  0999 V2000
   43.0913 -407.6242   15.0228 N   0  0  0  0  0  0  0  0  0  0  0  0
   42.9483 -403.4330   16.7747 C   0  0  2  0  0  0  0  0  0  0  0  0
   43.9248 -402.2613   16.5242 C   0  0  1  0  0  0  0  0  0  0  0  0
   44.3454 -401.6005   17.8589 C   0  0  0  0  0  0  0  0  0  0  0  0
   41.2396 -406.8256   13.6761 C   0  0  0  0  0  0  0  0  0  0  0  0
   40.4392 -405.8709   13.4353 O   0  0  0  0  0  0  0  0  0  0  0  0
   41.3373 -407.8953   12.9873 O   0  0  0  0  0  0  0  0  0  0  0  0
   42.1403 -406.7008   14.9323 C   0  0  0  0  0  0  0  0  0  0  0  0
   43.8948 -407.4507   16.1792 O   0  0  0  0  0  0  0  0  0  0  0  0
   41.9748 -405.6136   15.9490 C   0  0  0  0  0  0  0  0  0  0  0  0
   42.8466 -404.4167   15.5857 C   0  0  1  0  0  0  0  0  0  0  0  0
   42.3035 -403.7773   14.4286 O   0  0  0  0  0  0  0  0  0  0  0  0
   41.6322 -402.9307   17.0694 O   0  0  0  0  0  0  0  0  0  0  0  0
   45.1005 -402.7082   15.8301 O   0  0  0  0  0  0  0  0  0  0  0  0
   44.9768 -400.3652   17.5794 O   0  0  0  0  0  0  0  0  0  0  0  0
   45.7693 -399.5500   18.7605 P   0  0  0  0  0  0  0  0  0  0  0  0
   44.7505 -399.4208   19.8869 O   0  0  0  0  0  0  0  0  0  0  0  0
   46.9700 -400.4208   19.1058 O   0  0  0  0  0  0  0  0  0  0  0  0
   46.1206 -398.2301   18.0833 O   0  0  0  0  0  0  0  0  0  0  0  0
   43.2991 -404.0022   17.6432 H   0  0  0  0  0  0  0  0  0  0  0  0
   43.4186 -401.5128   15.9038 H   0  0  0  0  0  0  0  0  0  0  0  0
   45.0241 -402.2694   18.3958 H   0  0  0  0  0  0  0  0  0  0  0  0
   43.4524 -401.4213   18.4660 H   0  0  0  0  0  0  0  0  0  0  0  0
   44.5398 -408.1934   16.0916 H   0  0  0  0  0  0  0  0  0  0  0  0
   42.2922 -406.0150   16.9246 H   0  0  0  0  0  0  0  0  0  0  0  0
   40.9212 -405.3304   16.0276 H   0  0  0  0  0  0  0  0  0  0  0  0
   43.8493 -404.7770   15.3317 H   0  0  0  0  0  0  0  0  0  0  0  0
   42.8317 -403.0006   14.1990 H   0  0  0  0  0  0  0  0  0  0  0  0
   41.7074 -402.2965   17.8033 H   0  0  0  0  0  0  0  0  0  0  0  0
   44.8419 -403.1013   14.9847 H   0  0  0  0  0  0  0  0  0  0  0  0
  1  8  2  0  0  0  0
  1  9  1  0  0  0  0
  2  3  1  0  0  0  0
  2 11  1  0  0  0  0
  2 13  1  0  0  0  0
  2 20  1  1  0  0  0
  3  4  1  0  0  0  0
  3 14  1  0  0  0  0
  3 21  1  6  0  0  0
  4 15  1  0  0  0  0
  4 22  1  0  0  0  0
  4 23  1  0  0  0  0
  5  6  2  0  0  0  0
  5  7  1  0  0  0  0
  5  8  1  0  0  0  0
  8 10  1  0  0  0  0
  9 24  1  0  0  0  0
 10 11  1  0  0  0  0
 10 25  1  0  0  0  0
 10 26  1  0  0  0  0
 11 12  1  0  0  0  0
 11 27  1  6  0  0  0
 12 28  1  0  0  0  0
 13 29  1  0  0  0  0
 14 30  1  0  0  0  0
 15 16  1  0  0  0  0
 16 17  2  0  0  0  0
 16 18  1  0  0  0  0
 16 19  1  0  0  0  0
M  END
$$$$
