537
 OpenBabel04161911053D

 25 28  0  0  0  0  0  0  0  0999 V2000
  -14.3789   -7.9932   -9.3669 C   0  0  0  0  0  0  0  0  0  0  0  0
  -13.5827   -7.0278   -8.7435 C   0  0  0  0  0  0  0  0  0  0  0  0
  -14.1066   -5.7564   -8.5135 C   0  0  0  0  0  0  0  0  0  0  0  0
  -15.4364   -5.4613   -8.9128 C   0  0  0  0  0  0  0  0  0  0  0  0
  -16.2238   -6.4317   -9.5288 C   0  0  0  0  0  0  0  0  0  0  0  0
  -15.6892   -7.6965   -9.7545 C   0  0  0  0  0  0  0  0  0  0  0  0
  -13.8799   -3.4410   -7.6323 C   0  0  0  0  0  0  0  0  0  0  0  0
  -12.9061   -2.6512   -6.9739 C   0  0  0  0  0  0  0  0  0  0  0  0
  -13.2262   -1.3249   -6.6249 C   0  0  0  0  0  0  0  0  0  0  0  0
  -14.5459   -0.9272   -7.0005 C   0  0  0  0  0  0  0  0  0  0  0  0
  -15.4824   -1.7836   -7.6673 C   0  0  0  0  0  0  0  0  0  0  0  0
  -15.1630   -3.1031   -8.0075 C   0  0  0  0  0  0  0  0  0  0  0  0
  -16.0150   -4.0957   -8.6729 C   0  0  0  0  0  0  0  0  0  0  0  0
  -13.3744   -4.6837   -7.8695 C   0  0  0  0  0  0  0  0  0  0  0  0
  -17.1532   -3.7991   -9.0122 O   0  0  0  0  0  0  0  0  0  0  0  0
  -12.1061   -4.6163   -7.3626 N   0  3  0  0  0  0  0  0  0  0  0  0
  -11.7998   -3.4057   -6.8116 N   0  0  0  0  0  0  0  0  0  0  0  0
  -13.9771   -8.9867   -9.5542 H   0  0  0  0  0  0  0  0  0  0  0  0
  -12.5700   -7.2902   -8.4507 H   0  0  0  0  0  0  0  0  0  0  0  0
  -17.2439   -6.1994   -9.8270 H   0  0  0  0  0  0  0  0  0  0  0  0
  -16.3003   -8.4570  -10.2377 H   0  0  0  0  0  0  0  0  0  0  0  0
  -12.5403   -0.6613   -6.1162 H   0  0  0  0  0  0  0  0  0  0  0  0
  -14.8706    0.0882   -6.7680 H   0  0  0  0  0  0  0  0  0  0  0  0
  -16.4740   -1.4033   -7.9151 H   0  0  0  0  0  0  0  0  0  0  0  0
  -11.3982   -5.3390   -7.3528 H   0  0  0  0  0  0  0  0  0  0  0  0
  1  2  2  0  0  0  0
  1  6  1  0  0  0  0
  1 18  1  0  0  0  0
  2  3  1  0  0  0  0
  2 19  1  0  0  0  0
  3  4  2  0  0  0  0
  3 14  1  0  0  0  0
  4  5  1  0  0  0  0
  4 13  1  0  0  0  0
  5  6  2  0  0  0  0
  5 20  1  0  0  0  0
  6 21  1  0  0  0  0
  7  8  2  0  0  0  0
  7 12  1  0  0  0  0
  7 14  1  0  0  0  0
  8  9  1  0  0  0  0
  8 17  1  0  0  0  0
  9 10  2  0  0  0  0
  9 22  1  0  0  0  0
 10 11  1  0  0  0  0
 10 23  1  0  0  0  0
 11 12  2  0  0  0  0
 11 24  1  0  0  0  0
 12 13  1  0  0  0  0
 13 15  2  0  0  0  0
 14 16  2  0  0  0  0
 16 17  1  0  0  0  0
 16 25  1  0  0  0  0
M  CHG  1  16   1
M  END
$$$$
