54G
 OpenBabel04161909473D

 18 18  0  0  0  0  0  0  0  0999 V2000
   93.0413   16.1808  131.5060 C   0  0  0  0  0  0  0  0  0  0  0  0
   92.7454   13.8557  130.9255 C   0  0  0  0  0  0  0  0  0  0  0  0
   92.3540   12.0739  132.6774 C   0  0  0  0  0  0  0  0  0  0  0  0
   92.6066   13.5083  132.2805 C   0  0  0  0  0  0  0  0  0  0  0  0
   92.7093   14.5295  133.2349 C   0  0  0  0  0  0  0  0  0  0  0  0
   92.9169   15.8535  132.8566 C   0  0  0  0  0  0  0  0  0  0  0  0
   92.3306   11.8457  133.9348 O   0  0  0  0  0  0  0  0  0  0  0  0
   92.1810   11.2186  131.7570 O   0  0  0  0  0  0  0  0  0  0  0  0
   92.6144   14.2771  134.5789 O   0  0  0  0  0  0  0  0  0  0  0  0
   92.9743   15.1815  130.5298 C   0  0  0  0  0  0  0  0  0  0  0  0
   93.1689   15.5023  129.0805 C   0  0  0  0  0  0  0  0  0  0  0  0
   93.1977   17.2180  131.2248 H   0  0  0  0  0  0  0  0  0  0  0  0
   92.6769   13.0653  130.1774 H   0  0  0  0  0  0  0  0  0  0  0  0
   92.9837   16.6243  133.6176 H   0  0  0  0  0  0  0  0  0  0  0  0
   92.4940   13.2912  134.6492 H   0  0  0  0  0  0  0  0  0  0  0  0
   93.3161   16.5778  128.9274 H   0  0  0  0  0  0  0  0  0  0  0  0
   92.2963   15.1958  128.4966 H   0  0  0  0  0  0  0  0  0  0  0  0
   94.0582   14.9882  128.7006 H   0  0  0  0  0  0  0  0  0  0  0  0
  1  6  2  0  0  0  0
  1 10  1  0  0  0  0
  1 12  1  0  0  0  0
  2  4  1  0  0  0  0
  2 10  2  0  0  0  0
  2 13  1  0  0  0  0
  3  4  1  0  0  0  0
  3  7  2  0  0  0  0
  3  8  1  0  0  0  0
  4  5  2  0  0  0  0
  5  6  1  0  0  0  0
  5  9  1  0  0  0  0
  6 14  1  0  0  0  0
  9 15  1  0  0  0  0
 10 11  1  0  0  0  0
 11 16  1  0  0  0  0
 11 17  1  0  0  0  0
 11 18  1  0  0  0  0
M  END
$$$$
