54S
 OpenBabel04161909483D

 60 62  0  0  0  0  0  0  0  0999 V2000
 -143.3511 -172.1217  361.2403 C   0  0  0  0  0  0  0  0  0  0  0  0
 -141.1036 -171.1828  361.8629 C   0  0  0  0  0  0  0  0  0  0  0  0
 -139.7292 -171.4835  362.4048 C   0  0  0  0  0  0  0  0  0  0  0  0
 -139.4222 -172.6387  363.1304 C   0  0  0  0  0  0  0  0  0  0  0  0
 -137.0905 -171.9425  363.3671 C   0  0  0  0  0  0  0  0  0  0  0  0
 -137.4031 -170.7721  362.6622 C   0  0  0  0  0  0  0  0  0  0  0  0
 -138.7048 -170.5453  362.1857 C   0  0  0  0  0  0  0  0  0  0  0  0
 -135.7454 -172.2539  363.8688 C   0  0  0  0  0  0  0  0  0  0  0  0
 -134.6986 -172.5500  362.9815 C   0  0  0  0  0  0  0  0  0  0  0  0
 -133.4270 -172.8688  363.4608 C   0  0  0  0  0  0  0  0  0  0  0  0
 -133.1870 -172.9031  364.8323 C   0  0  0  0  0  0  0  0  0  0  0  0
 -134.2163 -172.6212  365.7259 C   0  0  0  0  0  0  0  0  0  0  0  0
 -136.2304 -169.5388  362.3548 Cl  0  0  0  0  0  0  0  0  0  0  0  0
 -135.4880 -172.2978  365.2483 C   0  0  0  0  0  0  0  0  0  0  0  0
 -138.1248 -172.8663  363.5976 C   0  0  0  0  0  0  0  0  0  0  0  0
 -142.0469 -172.3353  361.9400 N   0  3  0  0  0  0  0  0  0  0  0  0
 -144.3071 -173.2467  361.6014 C   0  0  0  0  0  0  0  0  0  0  0  0
 -145.5708 -172.9999  360.8227 C   0  0  0  0  0  0  0  0  0  0  0  0
 -145.5375 -172.8580  359.6062 O   0  0  0  0  0  0  0  0  0  0  0  0
 -146.6897 -172.8476  361.5915 N   0  0  0  0  0  0  0  0  0  0  0  0
 -147.9944 -172.5312  361.0157 C   0  0  0  0  0  0  0  0  0  0  0  0
 -148.7982 -173.7716  360.6476 C   0  0  0  0  0  0  0  0  0  0  0  0
 -149.1915 -174.5599  361.8832 C   0  0  0  0  0  0  0  0  0  0  0  0
 -149.1303 -174.0577  363.0020 O   0  0  0  0  0  0  0  0  0  0  0  0
 -149.5587 -175.8541  361.5731 N   0  0  0  0  0  0  0  0  0  0  0  0
 -149.8955 -176.8777  362.4817 C   0  0  0  0  0  0  0  0  0  0  0  0
 -150.2196 -176.6593  363.8204 C   0  0  0  0  0  0  0  0  0  0  0  0
 -150.4794 -177.7416  364.6646 C   0  0  0  0  0  0  0  0  0  0  0  0
 -150.3907 -179.0468  364.1796 C   0  0  0  0  0  0  0  0  0  0  0  0
 -149.8643 -178.1871  361.9908 C   0  0  0  0  0  0  0  0  0  0  0  0
 -150.0708 -179.2888  362.8368 C   0  0  0  0  0  0  0  0  0  0  0  0
 -149.8973 -180.6975  362.3115 C   0  0  0  0  0  0  0  0  0  0  0  0
 -149.7488 -180.8231  361.0546 O   0  0  0  0  0  0  0  0  0  0  0  0
 -149.8796 -181.6353  363.1667 O   0  0  0  0  0  0  0  0  0  0  0  0
 -143.1298 -172.0825  360.1682 H   0  0  0  0  0  0  0  0  0  0  0  0
 -143.7420 -171.1510  361.5641 H   0  0  0  0  0  0  0  0  0  0  0  0
 -141.0327 -170.9056  360.8050 H   0  0  0  0  0  0  0  0  0  0  0  0
 -141.5585 -170.3650  362.4317 H   0  0  0  0  0  0  0  0  0  0  0  0
 -140.1594 -173.4059  363.3622 H   0  0  0  0  0  0  0  0  0  0  0  0
 -138.9074 -169.6244  361.6417 H   0  0  0  0  0  0  0  0  0  0  0  0
 -134.8668 -172.5339  361.9074 H   0  0  0  0  0  0  0  0  0  0  0  0
 -132.6231 -173.0885  362.7622 H   0  0  0  0  0  0  0  0  0  0  0  0
 -132.1958 -173.1498  365.2047 H   0  0  0  0  0  0  0  0  0  0  0  0
 -134.0293 -172.6473  366.7975 H   0  0  0  0  0  0  0  0  0  0  0  0
 -136.2771 -172.0752  365.9630 H   0  0  0  0  0  0  0  0  0  0  0  0
 -137.9109 -173.7859  364.1436 H   0  0  0  0  0  0  0  0  0  0  0  0
 -142.2140 -172.5475  362.9320 H   0  0  0  0  0  0  0  0  0  0  0  0
 -144.4990 -173.2582  362.6790 H   0  0  0  0  0  0  0  0  0  0  0  0
 -143.9029 -174.2254  361.3189 H   0  0  0  0  0  0  0  0  0  0  0  0
 -146.7173 -173.1799  362.5521 H   0  0  0  0  0  0  0  0  0  0  0  0
 -147.8395 -171.9173  360.1214 H   0  0  0  0  0  0  0  0  0  0  0  0
 -148.5215 -171.9175  361.7537 H   0  0  0  0  0  0  0  0  0  0  0  0
 -148.2208 -174.4099  359.9678 H   0  0  0  0  0  0  0  0  0  0  0  0
 -149.7215 -173.4695  360.1415 H   0  0  0  0  0  0  0  0  0  0  0  0
 -149.4301 -176.1679  360.6179 H   0  0  0  0  0  0  0  0  0  0  0  0
 -150.2900 -175.6593  364.2331 H   0  0  0  0  0  0  0  0  0  0  0  0
 -150.7360 -177.5726  365.7062 H   0  0  0  0  0  0  0  0  0  0  0  0
 -150.5614 -179.8921  364.8450 H   0  0  0  0  0  0  0  0  0  0  0  0
 -149.6263 -178.3909  360.9478 H   0  0  0  0  0  0  0  0  0  0  0  0
 -141.5878 -173.1596  361.5266 H   0  0  0  0  0  0  0  0  0  0  0  0
  1 16  1  0  0  0  0
  1 17  1  0  0  0  0
  1 35  1  0  0  0  0
  1 36  1  0  0  0  0
  2  3  1  0  0  0  0
  2 16  1  0  0  0  0
  2 37  1  0  0  0  0
  2 38  1  0  0  0  0
  3  4  2  0  0  0  0
  3  7  1  0  0  0  0
  4 15  1  0  0  0  0
  4 39  1  0  0  0  0
  5  6  1  0  0  0  0
  5  8  1  0  0  0  0
  5 15  2  0  0  0  0
  6  7  2  0  0  0  0
  6 13  1  0  0  0  0
  7 40  1  0  0  0  0
  8  9  2  0  0  0  0
  8 14  1  0  0  0  0
  9 10  1  0  0  0  0
  9 41  1  0  0  0  0
 10 11  2  0  0  0  0
 10 42  1  0  0  0  0
 11 12  1  0  0  0  0
 11 43  1  0  0  0  0
 12 14  2  0  0  0  0
 12 44  1  0  0  0  0
 14 45  1  0  0  0  0
 15 46  1  0  0  0  0
 16 47  1  0  0  0  0
 16 60  1  0  0  0  0
 17 18  1  0  0  0  0
 17 48  1  0  0  0  0
 17 49  1  0  0  0  0
 18 19  2  0  0  0  0
 18 20  1  0  0  0  0
 20 21  1  0  0  0  0
 20 50  1  0  0  0  0
 21 22  1  0  0  0  0
 21 51  1  0  0  0  0
 21 52  1  0  0  0  0
 22 23  1  0  0  0  0
 22 53  1  0  0  0  0
 22 54  1  0  0  0  0
 23 24  2  0  0  0  0
 23 25  1  0  0  0  0
 25 26  1  0  0  0  0
 25 55  1  0  0  0  0
 26 27  2  0  0  0  0
 26 30  1  0  0  0  0
 27 28  1  0  0  0  0
 27 56  1  0  0  0  0
 28 29  2  0  0  0  0
 28 57  1  0  0  0  0
 29 31  1  0  0  0  0
 29 58  1  0  0  0  0
 30 31  2  0  0  0  0
 30 59  1  0  0  0  0
 31 32  1  0  0  0  0
 32 33  2  0  0  0  0
 32 34  1  0  0  0  0
M  CHG  1  16   1
M  END
$$$$
