55R
 OpenBabel04161909453D

 27 28  0  0  0  0  0  0  0  0999 V2000
   13.9335    4.4981   28.6777 O   0  0  0  0  0  0  0  0  0  0  0  0
   13.6443    3.2012   30.5159 O   0  0  0  0  0  0  0  0  0  0  0  0
   13.3163    3.6136   29.3508 C   0  0  0  0  0  0  0  0  0  0  0  0
   12.0920    2.9845   28.7211 C   0  0  0  0  0  0  0  0  0  0  0  0
   11.3676    1.9294   29.3278 C   0  0  0  0  0  0  0  0  0  0  0  0
   10.2335    1.4107   28.6801 C   0  0  0  0  0  0  0  0  0  0  0  0
    9.8205    1.9069   27.4561 C   0  0  0  0  0  0  0  0  0  0  0  0
   10.5372    2.9265   26.8494 C   0  0  0  0  0  0  0  0  0  0  0  0
   11.6513    3.4715   27.4765 C   0  0  0  0  0  0  0  0  0  0  0  0
   12.0213   -1.6753   35.9987 O   0  0  0  0  0  0  0  0  0  0  0  0
   11.8048   -1.1731   34.9020 C   0  0  0  0  0  0  0  0  0  0  0  0
   10.6095   -1.5518   34.1039 C   0  0  0  0  0  0  0  0  0  0  0  0
   10.3705   -0.9969   32.9098 C   0  0  0  0  0  0  0  0  0  0  0  0
   12.7177   -0.1560   34.3072 C   0  0  0  0  0  0  0  0  0  0  0  0
   12.4778    0.4131   33.1157 C   0  0  0  0  0  0  0  0  0  0  0  0
   11.2793    0.0232   32.3143 C   0  0  0  0  0  0  0  0  0  0  0  0
   10.9397    0.4665   31.1598 N   0  0  0  0  0  0  0  0  0  0  0  0
   11.7362    1.3965   30.5745 N   0  0  0  0  0  0  0  0  0  0  0  0
    9.6789    0.6008   29.1505 H   0  0  0  0  0  0  0  0  0  0  0  0
    8.9393    1.4976   26.9788 H   0  0  0  0  0  0  0  0  0  0  0  0
   10.2335    3.3051   25.8831 H   0  0  0  0  0  0  0  0  0  0  0  0
   12.2008    4.2878   27.0079 H   0  0  0  0  0  0  0  0  0  0  0  0
    9.9354   -2.2913   34.5272 H   0  0  0  0  0  0  0  0  0  0  0  0
    9.4917   -1.2794   32.3355 H   0  0  0  0  0  0  0  0  0  0  0  0
   13.5965    0.1223   34.8835 H   0  0  0  0  0  0  0  0  0  0  0  0
   13.1435    1.1563   32.7177 H   0  0  0  0  0  0  0  0  0  0  0  0
   12.6092    1.7854   30.9632 H   0  0  0  0  0  0  0  0  0  0  0  0
  1  3  2  0  0  0  0
  2  3  1  0  0  0  0
  3  4  1  0  0  0  0
  4  5  2  0  0  0  0
  4  9  1  0  0  0  0
  5  6  1  0  0  0  0
  5 18  1  0  0  0  0
  6  7  2  0  0  0  0
  6 19  1  0  0  0  0
  7  8  1  0  0  0  0
  7 20  1  0  0  0  0
  8  9  2  0  0  0  0
  8 21  1  0  0  0  0
  9 22  1  0  0  0  0
 10 11  2  0  0  0  0
 11 12  1  0  0  0  0
 11 14  1  0  0  0  0
 12 13  2  0  0  0  0
 12 23  1  0  0  0  0
 13 16  1  0  0  0  0
 13 24  1  0  0  0  0
 14 15  2  0  0  0  0
 14 25  1  0  0  0  0
 15 16  1  0  0  0  0
 15 26  1  0  0  0  0
 16 17  2  0  0  0  0
 17 18  1  0  0  0  0
 18 27  1  0  0  0  0
M  END
$$$$
