56S
 OpenBabel04161909493D

 47 46  0  0  0  0  0  0  0  0999 V2000
  -17.2497   -6.4932  160.4948 C   0  0  0  0  0  0  0  0  0  0  0  0
  -15.8019   -4.0447  164.2261 C   0  0  0  0  0  0  0  0  0  0  0  0
  -16.7777   -3.0983  164.9227 C   0  0  0  0  0  0  0  0  0  0  0  0
  -19.1262  -13.3769  153.0766 C   0  0  0  0  0  0  0  0  0  0  0  0
  -18.3888  -12.7710  154.2529 C   0  0  0  0  0  0  0  0  0  0  0  0
  -17.2424  -11.8373  153.8540 C   0  0  0  0  0  0  0  0  0  0  0  0
  -16.4994  -11.3796  155.1204 C   0  0  0  0  0  0  0  0  0  0  0  0
  -15.8437   -9.9979  155.0227 C   0  0  0  0  0  0  0  0  0  0  0  0
  -16.4865   -8.9099  155.9230 C   0  0  0  0  0  0  0  0  0  0  0  0
  -16.3758   -9.0427  157.4693 C   0  0  0  0  0  0  0  0  0  0  0  0
  -16.9153   -7.7657  158.2065 C   0  0  0  0  0  0  0  0  0  0  0  0
  -17.0470   -7.8603  159.7596 C   0  0  0  0  0  0  0  0  0  0  0  0
  -17.3862   -6.6156  162.0439 C   0  0  0  0  0  0  0  0  0  0  0  0
  -17.2776   -5.3097  162.8201 C   0  0  0  0  0  0  0  0  0  0  0  0
  -18.0040   -4.3392  162.5754 O   0  0  0  0  0  0  0  0  0  0  0  0
  -16.3367   -5.3359  163.8110 O   0  0  0  0  0  0  0  0  0  0  0  0
  -14.5776   -4.2617  165.1184 C   0  0  0  0  0  0  0  0  0  0  0  0
  -18.1580   -6.0100  160.1053 H   0  0  0  0  0  0  0  0  0  0  0  0
  -16.4124   -5.8280  160.2552 H   0  0  0  0  0  0  0  0  0  0  0  0
  -15.4395   -3.5631  163.3126 H   0  0  0  0  0  0  0  0  0  0  0  0
  -16.2713   -2.1645  165.2029 H   0  0  0  0  0  0  0  0  0  0  0  0
  -17.2203   -3.5388  165.8215 H   0  0  0  0  0  0  0  0  0  0  0  0
  -17.5978   -2.8112  164.2629 H   0  0  0  0  0  0  0  0  0  0  0  0
  -19.9367  -14.0139  153.4505 H   0  0  0  0  0  0  0  0  0  0  0  0
  -18.4617  -13.9972  152.4682 H   0  0  0  0  0  0  0  0  0  0  0  0
  -19.5686  -12.6027  152.4430 H   0  0  0  0  0  0  0  0  0  0  0  0
  -18.0005  -13.5821  154.8798 H   0  0  0  0  0  0  0  0  0  0  0  0
  -19.1080  -12.2026  154.8548 H   0  0  0  0  0  0  0  0  0  0  0  0
  -17.6433  -10.9873  153.2925 H   0  0  0  0  0  0  0  0  0  0  0  0
  -16.5447  -12.3694  153.1900 H   0  0  0  0  0  0  0  0  0  0  0  0
  -15.7156  -12.1217  155.3235 H   0  0  0  0  0  0  0  0  0  0  0  0
  -17.1811  -11.3966  155.9744 H   0  0  0  0  0  0  0  0  0  0  0  0
  -15.8943   -9.6469  153.9834 H   0  0  0  0  0  0  0  0  0  0  0  0
  -14.7767  -10.0893  155.2582 H   0  0  0  0  0  0  0  0  0  0  0  0
  -17.5479   -8.8506  155.6569 H   0  0  0  0  0  0  0  0  0  0  0  0
  -16.0214   -7.9615  155.6309 H   0  0  0  0  0  0  0  0  0  0  0  0
  -15.3248   -9.1948  157.7424 H   0  0  0  0  0  0  0  0  0  0  0  0
  -16.9384   -9.9225  157.7988 H   0  0  0  0  0  0  0  0  0  0  0  0
  -17.9010   -7.5285  157.7947 H   0  0  0  0  0  0  0  0  0  0  0  0
  -16.2467   -6.9329  157.9580 H   0  0  0  0  0  0  0  0  0  0  0  0
  -17.9044   -8.5045  159.9890 H   0  0  0  0  0  0  0  0  0  0  0  0
  -16.1511   -8.3426  160.1653 H   0  0  0  0  0  0  0  0  0  0  0  0
  -16.6262   -7.3018  162.4276 H   0  0  0  0  0  0  0  0  0  0  0  0
  -18.3722   -7.0263  162.2933 H   0  0  0  0  0  0  0  0  0  0  0  0
  -13.8878   -4.9757  164.6573 H   0  0  0  0  0  0  0  0  0  0  0  0
  -14.8469   -4.6577  166.1049 H   0  0  0  0  0  0  0  0  0  0  0  0
  -14.0424   -3.3170  165.2696 H   0  0  0  0  0  0  0  0  0  0  0  0
  1 12  1  0  0  0  0
  1 13  1  0  0  0  0
  1 18  1  0  0  0  0
  1 19  1  0  0  0  0
  2  3  1  0  0  0  0
  2 16  1  0  0  0  0
  2 17  1  0  0  0  0
  2 20  1  0  0  0  0
  3 21  1  0  0  0  0
  3 22  1  0  0  0  0
  3 23  1  0  0  0  0
  4  5  1  0  0  0  0
  4 24  1  0  0  0  0
  4 25  1  0  0  0  0
  4 26  1  0  0  0  0
  5  6  1  0  0  0  0
  5 27  1  0  0  0  0
  5 28  1  0  0  0  0
  6  7  1  0  0  0  0
  6 29  1  0  0  0  0
  6 30  1  0  0  0  0
  7  8  1  0  0  0  0
  7 31  1  0  0  0  0
  7 32  1  0  0  0  0
  8  9  1  0  0  0  0
  8 33  1  0  0  0  0
  8 34  1  0  0  0  0
  9 10  1  0  0  0  0
  9 35  1  0  0  0  0
  9 36  1  0  0  0  0
 10 11  1  0  0  0  0
 10 37  1  0  0  0  0
 10 38  1  0  0  0  0
 11 12  1  0  0  0  0
 11 39  1  0  0  0  0
 11 40  1  0  0  0  0
 12 41  1  0  0  0  0
 12 42  1  0  0  0  0
 13 14  1  0  0  0  0
 13 43  1  0  0  0  0
 13 44  1  0  0  0  0
 14 15  2  0  0  0  0
 14 16  1  0  0  0  0
 17 45  1  0  0  0  0
 17 46  1  0  0  0  0
 17 47  1  0  0  0  0
M  END
$$$$
