56W
 OpenBabel04161909503D

 48 47  0  0  1  0  0  0  0  0999 V2000
   -0.0099   29.1074   -8.1653 C   0  0  0  0  0  0  0  0  0  0  0  0
   -0.8624   27.9511   -7.6530 C   0  0  0  0  0  0  0  0  0  0  0  0
   -0.0117   26.8066   -7.0788 C   0  0  0  0  0  0  0  0  0  0  0  0
   -0.7225   25.4519   -7.1943 C   0  0  2  0  0  0  0  0  0  0  0  0
   -2.1197   25.3399   -6.5274 C   0  0  0  0  0  0  0  0  0  0  0  0
    0.1939   24.2705   -6.8625 C   0  0  0  0  0  0  0  0  0  0  0  0
    1.1965   22.1828   -5.2510 C   0  0  0  0  0  0  0  0  0  0  0  0
    0.1317   21.1230   -5.5398 C   0  0  0  0  0  0  0  0  0  0  0  0
   -2.5113   26.3428   -5.8595 O   0  0  0  0  0  0  0  0  0  0  0  0
   -0.6107   23.9012   -4.2424 O   0  0  0  0  0  0  0  0  0  0  0  0
    0.3931   19.8239   -4.7468 C   0  0  2  0  0  0  0  0  0  0  0  0
   -0.9249   17.8441   -4.0283 C   0  0  0  0  0  0  0  0  0  0  0  0
   -2.5659   31.4392   -7.2356 O   0  0  0  0  0  0  0  0  0  0  0  0
   -1.3514   31.0893   -7.0394 C   0  0  0  0  0  0  0  0  0  0  0  0
   -0.5365   31.3806   -6.1356 O   0  0  0  0  0  0  0  0  0  0  0  0
   -0.7822   30.4053   -8.3233 C   0  0  2  0  0  0  0  0  0  0  0  0
   -1.8915   30.2229   -9.3389 N   0  3  0  0  0  0  0  0  0  0  0  0
   -2.8354   24.4010   -7.0040 O   0  0  0  0  0  0  0  0  0  0  0  0
    0.6040   23.9219   -5.1246 P   0  0  2  0  0  0  0  0  0  0  0  0
    1.8195   24.7671   -4.7743 O   0  0  0  0  0  0  0  0  0  0  0  0
    1.7565   19.1671   -5.2004 C   0  0  0  0  0  0  0  0  0  0  0  0
    1.7500   18.6626   -6.3504 O   0  0  0  0  0  0  0  0  0  0  0  0
    2.7048   19.1920   -4.3487 O   0  0  0  0  0  0  0  0  0  0  0  0
   -0.7764   18.9216   -4.8663 N   0  0  0  0  0  0  0  0  0  0  0  0
   -0.1981   17.5517   -3.0873 O   0  0  0  0  0  0  0  0  0  0  0  0
   -2.1611   17.0321   -4.3114 C   0  0  0  0  0  0  0  0  0  0  0  0
    0.4245   28.8197   -9.1334 H   0  0  0  0  0  0  0  0  0  0  0  0
    0.8347   29.2789   -7.4836 H   0  0  0  0  0  0  0  0  0  0  0  0
   -1.4890   27.5847   -8.4740 H   0  0  0  0  0  0  0  0  0  0  0  0
   -1.5369   28.3209   -6.8731 H   0  0  0  0  0  0  0  0  0  0  0  0
    0.2435   27.0271   -6.0372 H   0  0  0  0  0  0  0  0  0  0  0  0
    0.9373   26.7555   -7.6356 H   0  0  0  0  0  0  0  0  0  0  0  0
   -0.9420   25.3396   -8.2684 H   0  0  0  0  0  0  0  0  0  0  0  0
    1.1622   24.4280   -7.3663 H   0  0  0  0  0  0  0  0  0  0  0  0
   -0.2165   23.3624   -7.3109 H   0  0  0  0  0  0  0  0  0  0  0  0
    1.9885   22.1296   -6.0047 H   0  0  0  0  0  0  0  0  0  0  0  0
    1.6547   21.9843   -4.2769 H   0  0  0  0  0  0  0  0  0  0  0  0
    0.0972   20.9152   -6.6205 H   0  0  0  0  0  0  0  0  0  0  0  0
   -0.8657   21.5058   -5.2897 H   0  0  0  0  0  0  0  0  0  0  0  0
    0.4545   20.0746   -3.6784 H   0  0  0  0  0  0  0  0  0  0  0  0
   -0.1191   31.1528   -8.7779 H   0  0  0  0  0  0  0  0  0  0  0  0
   -2.4118   31.1165   -9.2959 H   0  0  0  0  0  0  0  0  0  0  0  0
   -1.6043   29.9397  -10.2711 H   0  0  0  0  0  0  0  0  0  0  0  0
   -1.2710   18.9544   -5.7462 H   0  0  0  0  0  0  0  0  0  0  0  0
   -2.2204   16.2175   -3.5879 H   0  0  0  0  0  0  0  0  0  0  0  0
   -2.1170   16.6105   -5.3165 H   0  0  0  0  0  0  0  0  0  0  0  0
   -3.0457   17.6616   -4.1997 H   0  0  0  0  0  0  0  0  0  0  0  0
   -2.5652   29.5666   -8.9154 H   0  0  0  0  0  0  0  0  0  0  0  0
  1  2  1  0  0  0  0
  1 16  1  0  0  0  0
  1 27  1  0  0  0  0
  1 28  1  0  0  0  0
  2  3  1  0  0  0  0
  2 29  1  0  0  0  0
  2 30  1  0  0  0  0
  3  4  1  0  0  0  0
  3 31  1  0  0  0  0
  3 32  1  0  0  0  0
  4  5  1  0  0  0  0
  4  6  1  0  0  0  0
  4 33  1  6  0  0  0
  5  9  2  0  0  0  0
  5 18  1  0  0  0  0
  6 34  1  0  0  0  0
  6 35  1  0  0  0  0
  7  8  1  0  0  0  0
  7 19  1  0  0  0  0
  7 36  1  0  0  0  0
  7 37  1  0  0  0  0
  8 11  1  0  0  0  0
  8 38  1  0  0  0  0
  8 39  1  0  0  0  0
 10 19  2  0  0  0  0
 11 21  1  0  0  0  0
 11 24  1  0  0  0  0
 11 40  1  1  0  0  0
 12 24  1  0  0  0  0
 12 25  2  0  0  0  0
 12 26  1  0  0  0  0
 13 14  2  0  0  0  0
 14 15  1  0  0  0  0
 14 16  1  0  0  0  0
 16 17  1  0  0  0  0
 16 41  1  6  0  0  0
 17 42  1  0  0  0  0
 17 43  1  0  0  0  0
 17 48  1  0  0  0  0
 19  6  1  6  0  0  0
 19 20  1  0  0  0  0
 21 22  2  0  0  0  0
 21 23  1  0  0  0  0
 24 44  1  0  0  0  0
 26 45  1  0  0  0  0
 26 46  1  0  0  0  0
 26 47  1  0  0  0  0
M  CHG  1  17   1
M  END
$$$$
