56Y
 OpenBabel04161909513D

 48 49  0  0  1  0  0  0  0  0999 V2000
   11.2645    6.0231    2.5155 C   0  0  0  0  0  0  0  0  0  0  0  0
   11.1649    6.6209    1.1186 C   0  0  0  0  0  0  0  0  0  0  0  0
   11.0754    5.5619    0.0603 C   0  0  1  0  0  0  0  0  0  0  0  0
   12.1283    4.7036   -0.4332 C   0  0  2  0  0  0  0  0  0  0  0  0
   11.5360    3.8423   -1.3522 C   0  0  1  0  0  0  0  0  0  0  0  0
    6.2068    7.8890   -1.8271 C   0  0  1  0  0  0  0  0  0  0  0  0
    6.4719    6.4191   -1.5957 C   0  0  0  0  0  0  0  0  0  0  0  0
    6.3030    8.8163   -0.7825 C   0  0  0  0  0  0  0  0  0  0  0  0
    5.4366   10.2074   -4.7445 C   0  0  0  0  0  0  0  0  0  0  0  0
   12.1324    2.7535   -2.1762 C   0  0  0  0  0  0  0  0  0  0  0  0
   13.5611    4.6540   -0.0911 C   0  0  0  0  0  0  0  0  0  0  0  0
   14.2520    5.9032    0.3917 C   0  0  0  0  0  0  0  0  0  0  0  0
    9.9059    5.2187   -0.6190 C   0  0  2  0  0  0  0  0  0  0  0  0
    8.5671    5.7843   -0.4885 C   0  0  0  0  0  0  0  0  0  0  0  0
   10.2028    4.1419   -1.4187 N   0  3  0  0  0  0  0  0  0  0  0  0
    7.8906    6.0726   -1.6777 N   0  0  0  0  0  0  0  0  0  0  0  0
   14.2226    3.6265   -0.2504 O   0  0  0  0  0  0  0  0  0  0  0  0
    8.0552    5.9661    0.6178 O   0  0  0  0  0  0  0  0  0  0  0  0
    5.8998    8.3473   -3.1176 C   0  0  0  0  0  0  0  0  0  0  0  0
    5.7176    9.7119   -3.3692 C   0  0  2  0  0  0  0  0  0  0  0  0
    5.7937   10.6241   -2.3141 C   0  0  0  0  0  0  0  0  0  0  0  0
    6.0856   10.1751   -1.0234 C   0  0  0  0  0  0  0  0  0  0  0  0
    4.8698   11.2736   -4.9428 O   0  0  0  0  0  0  0  0  0  0  0  0
    5.8679    9.4344   -5.7886 N   0  0  0  0  0  0  0  0  0  0  0  0
    8.5441    6.2430   -2.9728 C   0  0  0  0  0  0  0  0  0  0  0  0
   11.3413    6.8165    3.2649 H   0  0  0  0  0  0  0  0  0  0  0  0
   12.1407    5.3750    2.6186 H   0  0  0  0  0  0  0  0  0  0  0  0
   10.3820    5.4171    2.7460 H   0  0  0  0  0  0  0  0  0  0  0  0
   12.0153    7.2793    0.9197 H   0  0  0  0  0  0  0  0  0  0  0  0
   10.2884    7.2792    1.0803 H   0  0  0  0  0  0  0  0  0  0  0  0
    5.9490    5.8235   -2.3536 H   0  0  0  0  0  0  0  0  0  0  0  0
    6.0428    6.1150   -0.6336 H   0  0  0  0  0  0  0  0  0  0  0  0
    6.5457    8.4807    0.2266 H   0  0  0  0  0  0  0  0  0  0  0  0
   11.3898    2.2899   -2.8318 H   0  0  0  0  0  0  0  0  0  0  0  0
   12.5496    1.9698   -1.5351 H   0  0  0  0  0  0  0  0  0  0  0  0
   12.9331    3.1519   -2.8058 H   0  0  0  0  0  0  0  0  0  0  0  0
   15.3175    5.6977    0.5244 H   0  0  0  0  0  0  0  0  0  0  0  0
   13.8627    6.2190    1.3555 H   0  0  0  0  0  0  0  0  0  0  0  0
   14.1425    6.6951   -0.3550 H   0  0  0  0  0  0  0  0  0  0  0  0
    9.5263    3.6599   -1.9957 H   0  0  0  0  0  0  0  0  0  0  0  0
    5.8011    7.6238   -3.9225 H   0  0  0  0  0  0  0  0  0  0  0  0
    5.6344   11.6857   -2.4946 H   0  0  0  0  0  0  0  0  0  0  0  0
    6.1525   10.8879   -0.2029 H   0  0  0  0  0  0  0  0  0  0  0  0
    5.7333    9.8077   -6.7198 H   0  0  0  0  0  0  0  0  0  0  0  0
    6.5033    8.6585   -5.6811 H   0  0  0  0  0  0  0  0  0  0  0  0
    9.6189    6.0711   -2.9437 H   0  0  0  0  0  0  0  0  0  0  0  0
    8.4121    7.2712   -3.3169 H   0  0  0  0  0  0  0  0  0  0  0  0
    8.0844    5.5561   -3.6874 H   0  0  0  0  0  0  0  0  0  0  0  0
  1  2  1  0  0  0  0
  1 26  1  0  0  0  0
  1 27  1  0  0  0  0
  1 28  1  0  0  0  0
  2 29  1  0  0  0  0
  2 30  1  0  0  0  0
  3  2  1  1  0  0  0
  3  4  1  0  0  0  0
  3 13  1  0  0  0  0
  4  5  1  0  0  0  0
  4 11  1  1  0  0  0
  5 10  1  1  0  0  0
  5 15  1  0  0  0  0
  6  7  1  6  0  0  0
  6  8  1  0  0  0  0
  6 19  1  0  0  0  0
  7 16  1  0  0  0  0
  7 31  1  0  0  0  0
  7 32  1  0  0  0  0
  8 22  1  0  0  0  0
  8 33  1  0  0  0  0
  9 23  2  0  0  0  0
  9 24  1  0  0  0  0
 10 34  1  0  0  0  0
 10 35  1  0  0  0  0
 10 36  1  0  0  0  0
 11 12  1  0  0  0  0
 11 17  2  0  0  0  0
 12 37  1  0  0  0  0
 12 38  1  0  0  0  0
 12 39  1  0  0  0  0
 13 14  1  1  0  0  0
 13 15  1  0  0  0  0
 14 16  1  0  0  0  0
 14 18  2  0  0  0  0
 15 40  1  0  0  0  0
 16 25  1  0  0  0  0
 19 20  1  0  0  0  0
 19 41  1  0  0  0  0
 20  9  1  1  0  0  0
 20 21  1  0  0  0  0
 21 22  1  0  0  0  0
 21 42  1  0  0  0  0
 22 43  1  0  0  0  0
 24 44  1  0  0  0  0
 24 45  1  0  0  0  0
 25 46  1  0  0  0  0
 25 47  1  0  0  0  0
 25 48  1  0  0  0  0
M  CHG  1  15   1
M  END
$$$$
