57F
 OpenBabel04161909503D

 58 59  0  0  1  0  0  0  0  0999 V2000
   15.7625  -10.2748   -5.0792 C   0  0  0  0  0  0  0  0  0  0  0  0
   16.3678   -9.9880   -6.4467 C   0  0  0  0  0  0  0  0  0  0  0  0
   15.3056   -9.6347   -7.4502 C   0  0  1  0  0  0  0  0  0  0  0  0
   14.4031  -10.5513   -8.1271 C   0  0  1  0  0  0  0  0  0  0  0  0
   13.5690   -9.7737   -8.9216 C   0  0  2  0  0  0  0  0  0  0  0  0
   19.1354   -2.4702   -4.3044 C   0  0  0  0  0  0  0  0  0  0  0  0
   14.9910   -8.3499   -7.8927 C   0  0  1  0  0  0  0  0  0  0  0  0
   15.5348   -7.0208   -7.6550 C   0  0  0  0  0  0  0  0  0  0  0  0
   16.8890   -5.7273   -5.9876 C   0  0  2  0  0  0  0  0  0  0  0  0
   17.1680   -4.6226   -6.7890 C   0  0  0  0  0  0  0  0  0  0  0  0
   17.8701   -3.5446   -6.2572 C   0  0  1  0  0  0  0  0  0  0  0  0
   18.3347   -3.5725   -4.9347 C   0  0  1  0  0  0  0  0  0  0  0  0
   18.0451   -4.7151   -4.1617 C   0  0  0  0  0  0  0  0  0  0  0  0
   17.3238   -5.8270   -4.6375 C   0  0  2  0  0  0  0  0  0  0  0  0
   14.3061  -12.0195   -8.0610 C   0  0  0  0  0  0  0  0  0  0  0  0
   12.4547  -10.1488   -9.8343 C   0  0  0  0  0  0  0  0  0  0  0  0
   15.5315  -12.8348   -7.7558 C   0  0  0  0  0  0  0  0  0  0  0  0
   20.5521   -0.2988   -8.7930 C   0  0  0  0  0  0  0  0  0  0  0  0
   21.7533   -3.7928   -8.1292 C   0  0  0  0  0  0  0  0  0  0  0  0
   20.6373   -1.0666   -7.4924 C   0  0  0  0  0  0  0  0  0  0  0  0
   20.3143   -3.4089   -8.4256 C   0  0  0  0  0  0  0  0  0  0  0  0
   13.9507   -8.4721   -8.7808 N   0  3  0  0  0  0  0  0  0  0  0  0
   16.1720   -6.8434   -6.4561 N   0  0  0  0  0  0  0  0  0  0  0  0
   19.8583   -2.3119   -7.5380 N   0  0  0  0  0  0  0  0  0  0  0  0
   13.2478  -12.6077   -8.3208 O   0  0  0  0  0  0  0  0  0  0  0  0
   15.3597   -6.1481   -8.4979 O   0  0  0  0  0  0  0  0  0  0  0  0
   17.8950   -0.9480   -6.5897 O   0  0  0  0  0  0  0  0  0  0  0  0
   17.5675   -2.3865   -8.6219 O   0  0  0  0  0  0  0  0  0  0  0  0
   17.0861   -6.8472   -3.8976 O   0  0  0  0  0  0  0  0  0  0  0  0
   18.1766   -2.1638   -7.3245 S   0  0  0  0  0  0  0  0  0  0  0  0
   16.5439  -10.5245   -4.3558 H   0  0  0  0  0  0  0  0  0  0  0  0
   15.0588  -11.1131   -5.1216 H   0  0  0  0  0  0  0  0  0  0  0  0
   15.2090   -9.4080   -4.7026 H   0  0  0  0  0  0  0  0  0  0  0  0
   16.9494  -10.8454   -6.7948 H   0  0  0  0  0  0  0  0  0  0  0  0
   17.1145   -9.1942   -6.3617 H   0  0  0  0  0  0  0  0  0  0  0  0
   19.3898   -2.7038   -3.2651 H   0  0  0  0  0  0  0  0  0  0  0  0
   18.5693   -1.5360   -4.2834 H   0  0  0  0  0  0  0  0  0  0  0  0
   20.0831   -2.3226   -4.8312 H   0  0  0  0  0  0  0  0  0  0  0  0
   16.8608   -4.6003   -7.8278 H   0  0  0  0  0  0  0  0  0  0  0  0
   18.3921   -4.7519   -3.1281 H   0  0  0  0  0  0  0  0  0  0  0  0
   12.0111   -9.2699  -10.3145 H   0  0  0  0  0  0  0  0  0  0  0  0
   11.6608  -10.6624   -9.2837 H   0  0  0  0  0  0  0  0  0  0  0  0
   12.8193  -10.8128  -10.6235 H   0  0  0  0  0  0  0  0  0  0  0  0
   15.2850  -13.8997   -7.8148 H   0  0  0  0  0  0  0  0  0  0  0  0
   15.8872  -12.6495   -6.7435 H   0  0  0  0  0  0  0  0  0  0  0  0
   16.3101  -12.6211   -8.4930 H   0  0  0  0  0  0  0  0  0  0  0  0
   21.1404    0.6202   -8.7223 H   0  0  0  0  0  0  0  0  0  0  0  0
   19.5177   -0.0266   -9.0239 H   0  0  0  0  0  0  0  0  0  0  0  0
   20.9408   -0.8881   -9.6283 H   0  0  0  0  0  0  0  0  0  0  0  0
   22.0506   -4.6592   -8.7269 H   0  0  0  0  0  0  0  0  0  0  0  0
   21.8757   -4.0415   -7.0701 H   0  0  0  0  0  0  0  0  0  0  0  0
   22.4428   -2.9786   -8.3714 H   0  0  0  0  0  0  0  0  0  0  0  0
   20.2866   -0.4420   -6.6634 H   0  0  0  0  0  0  0  0  0  0  0  0
   21.6776   -1.2890   -7.2379 H   0  0  0  0  0  0  0  0  0  0  0  0
   19.6991   -4.3015   -8.2678 H   0  0  0  0  0  0  0  0  0  0  0  0
   20.2055   -3.1243   -9.4777 H   0  0  0  0  0  0  0  0  0  0  0  0
   13.5457   -7.6711   -9.2516 H   0  0  0  0  0  0  0  0  0  0  0  0
   16.0907   -7.5265   -5.7075 H   0  0  0  0  0  0  0  0  0  0  0  0
  1  2  1  0  0  0  0
  1 31  1  0  0  0  0
  1 32  1  0  0  0  0
  1 33  1  0  0  0  0
  2 34  1  0  0  0  0
  2 35  1  0  0  0  0
  3  2  1  1  0  0  0
  3  4  1  0  0  0  0
  3  7  1  0  0  0  0
  4  5  1  0  0  0  0
  4 15  1  6  0  0  0
  5 16  1  6  0  0  0
  5 22  1  0  0  0  0
  6 36  1  0  0  0  0
  6 37  1  0  0  0  0
  6 38  1  0  0  0  0
  7  8  1  6  0  0  0
  7 22  1  0  0  0  0
  8 23  1  0  0  0  0
  8 26  2  0  0  0  0
  9 10  1  0  0  0  0
  9 14  1  0  0  0  0
  9 23  1  6  0  0  0
 10 11  1  0  0  0  0
 10 39  1  0  0  0  0
 11 12  1  0  0  0  0
 11 30  1  6  0  0  0
 12  6  1  6  0  0  0
 12 13  1  0  0  0  0
 13 14  1  0  0  0  0
 13 40  1  0  0  0  0
 14 29  1  6  0  0  0
 15 17  1  0  0  0  0
 15 25  2  0  0  0  0
 16 41  1  0  0  0  0
 16 42  1  0  0  0  0
 16 43  1  0  0  0  0
 17 44  1  0  0  0  0
 17 45  1  0  0  0  0
 17 46  1  0  0  0  0
 18 20  1  0  0  0  0
 18 47  1  0  0  0  0
 18 48  1  0  0  0  0
 18 49  1  0  0  0  0
 19 21  1  0  0  0  0
 19 50  1  0  0  0  0
 19 51  1  0  0  0  0
 19 52  1  0  0  0  0
 20 24  1  0  0  0  0
 20 53  1  0  0  0  0
 20 54  1  0  0  0  0
 21 24  1  0  0  0  0
 21 55  1  0  0  0  0
 21 56  1  0  0  0  0
 22 57  1  0  0  0  0
 23 58  1  0  0  0  0
 24 30  1  0  0  0  0
 27 30  2  0  0  0  0
 28 30  2  0  0  0  0
M  CHG  1  22   1
M  END
$$$$
