57G
 OpenBabel04161909503D

 56 57  0  0  1  0  0  0  0  0999 V2000
    2.8695   55.5267   23.1329 C   0  0  0  0  0  0  0  0  0  0  0  0
    2.3732   54.6138   22.2100 C   0  0  0  0  0  0  0  0  0  0  0  0
    5.0570   58.0412   21.4154 C   0  0  1  0  0  0  0  0  0  0  0  0
    4.4830   59.6654   24.4223 C   0  0  0  0  0  0  0  0  0  0  0  0
    3.8870   59.7242   23.0256 C   0  0  0  0  0  0  0  0  0  0  0  0
    4.8855   59.3089   21.9643 C   0  0  2  0  0  0  0  0  0  0  0  0
    5.8188   60.1930   21.2974 C   0  0  1  0  0  0  0  0  0  0  0  0
    6.5338   59.4139   20.3718 C   0  0  2  0  0  0  0  0  0  0  0  0
    4.3733   56.7716   21.5855 C   0  0  0  0  0  0  0  0  0  0  0  0
    3.0468   51.4426   20.6722 C   0  0  0  0  0  0  0  0  0  0  0  0
    3.2157   50.2721   19.7285 C   0  0  0  0  0  0  0  0  0  0  0  0
    5.9683   61.6449   21.5187 C   0  0  0  0  0  0  0  0  0  0  0  0
    5.2966   62.2765   22.3690 O   0  0  0  0  0  0  0  0  0  0  0  0
    7.0008   62.3834   20.6875 C   0  0  0  0  0  0  0  0  0  0  0  0
    1.5047   54.5609   24.8427 C   0  0  0  0  0  0  0  0  0  0  0  0
    1.0001   53.6320   23.9326 C   0  0  0  0  0  0  0  0  0  0  0  0
    2.4412   55.5503   24.4910 C   0  0  0  0  0  0  0  0  0  0  0  0
    1.4388   53.6701   22.6153 C   0  0  0  0  0  0  0  0  0  0  0  0
    7.6162   59.7066   19.3839 C   0  0  0  0  0  0  0  0  0  0  0  0
    2.4969   50.1747   23.4656 C   0  0  0  0  0  0  0  0  0  0  0  0
    1.5659   50.1485   22.2832 C   0  0  0  0  0  0  0  0  0  0  0  0
    6.0497   58.1362   20.4655 N   0  3  0  0  0  0  0  0  0  0  0  0
    3.7888   56.5479   22.8064 N   0  0  0  0  0  0  0  0  0  0  0  0
    1.7813   51.2905   21.3960 N   0  0  0  0  0  0  0  0  0  0  0  0
    4.3715   55.9641   20.6604 O   0  0  0  0  0  0  0  0  0  0  0  0
   -0.5353   52.0787   21.9696 O   0  0  0  0  0  0  0  0  0  0  0  0
    0.7599   53.2015   20.1282 O   0  0  0  0  0  0  0  0  0  0  0  0
    2.8614   56.4121   25.3412 O   0  0  0  0  0  0  0  0  0  0  0  0
    0.7150   52.5762   21.4334 S   0  0  0  0  0  0  0  0  0  0  0  0
    6.9567   63.7957   20.6752 O   0  0  0  0  0  0  0  0  0  0  0  0
    2.6777   54.6316   21.1630 H   0  0  0  0  0  0  0  0  0  0  0  0
    3.7388   59.9408   25.1769 H   0  0  0  0  0  0  0  0  0  0  0  0
    5.3348   60.3455   24.5165 H   0  0  0  0  0  0  0  0  0  0  0  0
    4.8411   58.6599   24.6513 H   0  0  0  0  0  0  0  0  0  0  0  0
    3.5158   60.7390   22.8460 H   0  0  0  0  0  0  0  0  0  0  0  0
    2.9982   59.0854   22.9788 H   0  0  0  0  0  0  0  0  0  0  0  0
    3.0271   52.3549   20.0684 H   0  0  0  0  0  0  0  0  0  0  0  0
    3.9047   51.5265   21.3461 H   0  0  0  0  0  0  0  0  0  0  0  0
    4.1258   50.3941   19.1399 H   0  0  0  0  0  0  0  0  0  0  0  0
    2.3575   50.1976   19.0501 H   0  0  0  0  0  0  0  0  0  0  0  0
    3.2938   49.3341   20.2851 H   0  0  0  0  0  0  0  0  0  0  0  0
    6.8583   62.0870   19.6461 H   0  0  0  0  0  0  0  0  0  0  0  0
    7.9864   62.0724   21.0375 H   0  0  0  0  0  0  0  0  0  0  0  0
    1.1489   54.5319   25.8721 H   0  0  0  0  0  0  0  0  0  0  0  0
    0.2709   52.8987   24.2602 H   0  0  0  0  0  0  0  0  0  0  0  0
    7.9308   58.8177   18.8315 H   0  0  0  0  0  0  0  0  0  0  0  0
    8.4993   60.1039   19.8917 H   0  0  0  0  0  0  0  0  0  0  0  0
    7.2836   60.4236   18.6297 H   0  0  0  0  0  0  0  0  0  0  0  0
    2.3270   49.2983   24.0979 H   0  0  0  0  0  0  0  0  0  0  0  0
    2.3334   51.0744   24.0638 H   0  0  0  0  0  0  0  0  0  0  0  0
    3.5371   50.1673   23.1319 H   0  0  0  0  0  0  0  0  0  0  0  0
    0.5327   50.1179   22.6416 H   0  0  0  0  0  0  0  0  0  0  0  0
    1.6888   49.2269   21.7079 H   0  0  0  0  0  0  0  0  0  0  0  0
    6.3495   57.3455   19.8935 H   0  0  0  0  0  0  0  0  0  0  0  0
    3.9797   57.1227   23.6229 H   0  0  0  0  0  0  0  0  0  0  0  0
    7.0211   64.0738   21.6045 H   0  0  0  0  0  0  0  0  0  0  0  0
  1  2  2  0  0  0  0
  1 17  1  0  0  0  0
  1 23  1  0  0  0  0
  2 18  1  0  0  0  0
  2 31  1  0  0  0  0
  3  6  1  0  0  0  0
  3  9  1  6  0  0  0
  3 22  1  0  0  0  0
  4  5  1  0  0  0  0
  4 32  1  0  0  0  0
  4 33  1  0  0  0  0
  4 34  1  0  0  0  0
  5 35  1  0  0  0  0
  5 36  1  0  0  0  0
  6  5  1  6  0  0  0
  6  7  1  0  0  0  0
  7  8  1  0  0  0  0
  7 12  1  6  0  0  0
  8 19  1  6  0  0  0
  8 22  1  0  0  0  0
  9 23  1  0  0  0  0
  9 25  2  0  0  0  0
 10 11  1  0  0  0  0
 10 24  1  0  0  0  0
 10 37  1  0  0  0  0
 10 38  1  0  0  0  0
 11 39  1  0  0  0  0
 11 40  1  0  0  0  0
 11 41  1  0  0  0  0
 12 13  2  0  0  0  0
 12 14  1  0  0  0  0
 14 30  1  0  0  0  0
 14 42  1  0  0  0  0
 14 43  1  0  0  0  0
 15 16  1  0  0  0  0
 15 17  2  0  0  0  0
 15 44  1  0  0  0  0
 16 18  2  0  0  0  0
 16 45  1  0  0  0  0
 17 28  1  0  0  0  0
 18 29  1  0  0  0  0
 19 46  1  0  0  0  0
 19 47  1  0  0  0  0
 19 48  1  0  0  0  0
 20 21  1  0  0  0  0
 20 49  1  0  0  0  0
 20 50  1  0  0  0  0
 20 51  1  0  0  0  0
 21 24  1  0  0  0  0
 21 52  1  0  0  0  0
 21 53  1  0  0  0  0
 22 54  1  0  0  0  0
 23 55  1  0  0  0  0
 24 29  1  0  0  0  0
 26 29  2  0  0  0  0
 27 29  2  0  0  0  0
 30 56  1  0  0  0  0
M  CHG  1  22   1
M  END
$$$$
