57P
 OpenBabel04161909513D

 51 55  0  0  1  0  0  0  0  0999 V2000
  -11.5891   -7.4555  -19.0317 C   0  0  1  0  0  0  0  0  0  0  0  0
  -15.3448   -5.0381  -18.7710 C   0  0  0  0  0  0  0  0  0  0  0  0
  -13.8698   -6.8056  -17.9779 C   0  0  0  0  0  0  0  0  0  0  0  0
  -14.9801   -7.4262  -17.3940 C   0  0  0  0  0  0  0  0  0  0  0  0
  -16.2592   -6.8689  -17.4989 C   0  0  0  0  0  0  0  0  0  0  0  0
   -9.3833   -7.7620  -20.6801 C   0  0  0  0  0  0  0  0  0  0  0  0
  -16.4457   -5.6751  -18.1927 C   0  0  0  0  0  0  0  0  0  0  0  0
   -9.4137   -8.4595  -16.3327 C   0  0  0  0  0  0  0  0  0  0  0  0
   -8.5203   -7.2380  -16.2216 C   0  0  0  0  0  0  0  0  0  0  0  0
  -10.7596   -7.1008  -22.7020 C   0  0  0  0  0  0  0  0  0  0  0  0
  -10.6970   -8.4656  -23.3388 C   0  0  0  0  0  0  0  0  0  0  0  0
   -9.7555   -5.2220  -16.3027 O   0  0  0  0  0  0  0  0  0  0  0  0
   -9.2786   -6.1083  -15.5345 C   0  0  0  0  0  0  0  0  0  0  0  0
   -9.2811   -6.1673  -14.2786 O   0  0  0  0  0  0  0  0  0  0  0  0
  -10.5512   -8.1944  -17.2120 N   0  3  1  0  0  0  0  0  0  0  0  0
  -11.8560   -7.8747  -16.8344 C   0  0  1  0  0  0  0  0  0  0  0  0
  -12.3166   -8.0464  -15.4715 C   0  0  0  0  0  0  0  0  0  0  0  0
  -12.3557   -9.3442  -14.9986 C   0  0  0  0  0  0  0  0  0  0  0  0
  -12.8091   -9.6097  -13.7148 C   0  0  0  0  0  0  0  0  0  0  0  0
  -13.2305   -8.5526  -12.9081 C   0  0  0  0  0  0  0  0  0  0  0  0
  -13.2174   -7.2379  -13.3885 C   0  0  0  0  0  0  0  0  0  0  0  0
  -12.7382   -6.9806  -14.6800 C   0  0  0  0  0  0  0  0  0  0  0  0
  -12.5118   -7.3805  -17.9453 C   0  0  2  0  0  0  0  0  0  0  0  0
  -14.0692   -5.5974  -18.6590 C   0  0  0  0  0  0  0  0  0  0  0  0
  -10.3895   -7.9937  -18.5620 C   0  0  2  0  0  0  0  0  0  0  0  0
  -11.6818   -7.1196  -20.3842 C   0  0  0  0  0  0  0  0  0  0  0  0
  -10.5813   -7.2449  -21.2177 C   0  0  1  0  0  0  0  0  0  0  0  0
   -9.2680   -8.1618  -19.3663 C   0  0  0  0  0  0  0  0  0  0  0  0
   -9.6817   -7.4145  -23.6845 C   0  0  0  0  0  0  0  0  0  0  0  0
  -15.4720   -4.1008  -19.3031 H   0  0  0  0  0  0  0  0  0  0  0  0
  -14.8581   -8.3604  -16.8465 H   0  0  0  0  0  0  0  0  0  0  0  0
  -17.1232   -7.3614  -17.0356 H   0  0  0  0  0  0  0  0  0  0  0  0
   -8.5320   -7.9620  -21.3273 H   0  0  0  0  0  0  0  0  0  0  0  0
  -17.4331   -5.2289  -18.2850 H   0  0  0  0  0  0  0  0  0  0  0  0
   -9.7526   -8.8279  -15.3614 H   0  0  0  0  0  0  0  0  0  0  0  0
   -8.8515   -9.2998  -16.7795 H   0  0  0  0  0  0  0  0  0  0  0  0
   -8.1828   -6.9074  -17.2093 H   0  0  0  0  0  0  0  0  0  0  0  0
   -7.6218   -7.4747  -15.6447 H   0  0  0  0  0  0  0  0  0  0  0  0
  -11.5105   -6.3864  -23.0382 H   0  0  0  0  0  0  0  0  0  0  0  0
  -11.4801   -8.7311  -24.0402 H   0  0  0  0  0  0  0  0  0  0  0  0
  -10.4465   -9.2823  -22.6483 H   0  0  0  0  0  0  0  0  0  0  0  0
  -12.0053  -10.1609  -15.6305 H   0  0  0  0  0  0  0  0  0  0  0  0
  -12.8158  -10.6221  -13.3462 H   0  0  0  0  0  0  0  0  0  0  0  0
  -13.5412   -8.7481  -11.8838 H   0  0  0  0  0  0  0  0  0  0  0  0
  -13.5417   -6.4183  -12.7600 H   0  0  0  0  0  0  0  0  0  0  0  0
  -12.6683   -5.9525  -15.0411 H   0  0  0  0  0  0  0  0  0  0  0  0
  -13.2225   -5.0689  -19.0995 H   0  0  0  0  0  0  0  0  0  0  0  0
  -12.6370   -6.7935  -20.7882 H   0  0  0  0  0  0  0  0  0  0  0  0
   -8.3257   -8.5643  -19.0002 H   0  0  0  0  0  0  0  0  0  0  0  0
   -8.6641   -7.4373  -23.2916 H   0  0  0  0  0  0  0  0  0  0  0  0
   -9.7138   -7.0030  -24.6777 H   0  0  0  0  0  0  0  0  0  0  0  0
  1 23  1  0  0  0  0
  1 25  1  0  0  0  0
  1 26  1  6  0  0  0
  2  7  1  0  0  0  0
  2 24  1  0  0  0  0
  2 30  1  0  0  0  0
  3  4  1  0  0  0  0
  3 24  1  0  0  0  0
  4  5  1  0  0  0  0
  4 31  1  0  0  0  0
  5  7  1  0  0  0  0
  5 32  1  0  0  0  0
  6 27  1  0  0  0  0
  6 28  1  0  0  0  0
  6 33  1  0  0  0  0
  7 34  1  0  0  0  0
  8  9  1  0  0  0  0
  8 35  1  0  0  0  0
  8 36  1  0  0  0  0
  9 13  1  0  0  0  0
  9 37  1  0  0  0  0
  9 38  1  0  0  0  0
 10 11  1  0  0  0  0
 10 29  1  0  0  0  0
 10 39  1  0  0  0  0
 11 29  1  0  0  0  0
 11 40  1  0  0  0  0
 11 41  1  0  0  0  0
 12 13  2  0  0  0  0
 13 14  1  0  0  0  0
 15  8  1  1  0  0  0
 15 16  1  0  0  0  0
 15 25  1  0  0  0  0
 16 17  1  1  0  0  0
 16 23  1  0  0  0  0
 17 18  1  0  0  0  0
 17 22  1  0  0  0  0
 18 19  1  0  0  0  0
 18 42  1  0  0  0  0
 19 20  1  0  0  0  0
 19 43  1  0  0  0  0
 20 21  1  0  0  0  0
 20 44  1  0  0  0  0
 21 22  1  0  0  0  0
 21 45  1  0  0  0  0
 22 46  1  0  0  0  0
 23  3  1  1  0  0  0
 24 47  1  0  0  0  0
 25 28  1  1  0  0  0
 26 27  1  0  0  0  0
 26 48  1  0  0  0  0
 27 10  1  6  0  0  0
 28 49  1  0  0  0  0
 29 50  1  0  0  0  0
 29 51  1  0  0  0  0
M  CHG  1  15   1
M  END
$$$$
