58N
 OpenBabel04161909523D

 44 46  0  0  1  0  0  0  0  0999 V2000
    6.5127   52.2918   49.2178 C   0  0  0  0  0  0  0  0  0  0  0  0
    6.7194   53.2623   48.0352 C   0  0  0  0  0  0  0  0  0  0  0  0
    6.0441   52.6463   46.7945 C   0  0  0  0  0  0  0  0  0  0  0  0
    8.2341   53.3984   47.7928 C   0  0  0  0  0  0  0  0  0  0  0  0
    6.1349   54.5918   48.2886 N   0  3  0  0  0  0  0  0  0  0  0  0
    5.3949   54.9990   49.3645 C   0  0  0  0  0  0  0  0  0  0  0  0
    6.2493   55.5576   47.3493 N   0  0  0  0  0  0  0  0  0  0  0  0
    5.5124   56.5623   47.8262 C   0  0  0  0  0  0  0  0  0  0  0  0
    4.9554   56.2787   49.0890 C   0  0  0  0  0  0  0  0  0  0  0  0
    4.0737   57.0471   49.9563 C   0  0  0  0  0  0  0  0  0  0  0  0
    4.2402   58.4370   50.1813 C   0  0  0  0  0  0  0  0  0  0  0  0
    5.3605   59.1333   49.6894 N   0  0  0  0  0  0  0  0  0  0  0  0
    5.1750   60.2374   48.7455 C   0  0  2  0  0  0  0  0  0  0  0  0
    6.4287   61.1164   48.7972 C   0  0  0  0  0  0  0  0  0  0  0  0
    3.9271   61.0643   48.9787 C   0  0  0  0  0  0  0  0  0  0  0  0
    3.7726   61.4511   50.4245 C   0  0  0  0  0  0  0  0  0  0  0  0
    3.8885   62.6182   50.8030 O   0  0  0  0  0  0  0  0  0  0  0  0
    3.3645   60.4736   51.2872 N   0  0  0  0  0  0  0  0  0  0  0  0
    3.2978   59.0965   51.0132 C   0  0  0  0  0  0  0  0  0  0  0  0
    2.2859   58.3790   51.6652 C   0  0  0  0  0  0  0  0  0  0  0  0
    2.1335   57.0190   51.4377 C   0  0  0  0  0  0  0  0  0  0  0  0
    3.0101   56.3609   50.5801 C   0  0  0  0  0  0  0  0  0  0  0  0
    6.9606   51.3134   49.0102 H   0  0  0  0  0  0  0  0  0  0  0  0
    5.4480   52.1253   49.4199 H   0  0  0  0  0  0  0  0  0  0  0  0
    6.9729   52.6756   50.1365 H   0  0  0  0  0  0  0  0  0  0  0  0
    6.1879   53.2662   45.9020 H   0  0  0  0  0  0  0  0  0  0  0  0
    4.9631   52.5422   46.9480 H   0  0  0  0  0  0  0  0  0  0  0  0
    6.4491   51.6526   46.5736 H   0  0  0  0  0  0  0  0  0  0  0  0
    8.7319   53.8477   48.6597 H   0  0  0  0  0  0  0  0  0  0  0  0
    8.4530   54.0298   46.9242 H   0  0  0  0  0  0  0  0  0  0  0  0
    8.6942   52.4203   47.6109 H   0  0  0  0  0  0  0  0  0  0  0  0
    5.2186   54.3604   50.2171 H   0  0  0  0  0  0  0  0  0  0  0  0
    5.4078   57.4560   47.2274 H   0  0  0  0  0  0  0  0  0  0  0  0
    6.1311   58.5183   49.4345 H   0  0  0  0  0  0  0  0  0  0  0  0
    5.1108   59.8198   47.7334 H   0  0  0  0  0  0  0  0  0  0  0  0
    6.3360   61.9777   48.1281 H   0  0  0  0  0  0  0  0  0  0  0  0
    7.3119   60.5457   48.4892 H   0  0  0  0  0  0  0  0  0  0  0  0
    6.6151   61.4876   49.8109 H   0  0  0  0  0  0  0  0  0  0  0  0
    3.0300   60.5130   48.6690 H   0  0  0  0  0  0  0  0  0  0  0  0
    3.9338   61.9748   48.3674 H   0  0  0  0  0  0  0  0  0  0  0  0
    3.0156   60.8147   52.1730 H   0  0  0  0  0  0  0  0  0  0  0  0
    1.5848   58.8881   52.3254 H   0  0  0  0  0  0  0  0  0  0  0  0
    1.3260   56.4687   51.9177 H   0  0  0  0  0  0  0  0  0  0  0  0
    2.8552   55.2996   50.4013 H   0  0  0  0  0  0  0  0  0  0  0  0
  1  2  1  0  0  0  0
  1 23  1  0  0  0  0
  1 24  1  0  0  0  0
  1 25  1  0  0  0  0
  2  3  1  0  0  0  0
  2  4  1  0  0  0  0
  2  5  1  0  0  0  0
  3 26  1  0  0  0  0
  3 27  1  0  0  0  0
  3 28  1  0  0  0  0
  4 29  1  0  0  0  0
  4 30  1  0  0  0  0
  4 31  1  0  0  0  0
  5  6  2  0  0  0  0
  5  7  1  0  0  0  0
  6  9  1  0  0  0  0
  6 32  1  0  0  0  0
  7  8  1  0  0  0  0
  8  9  2  0  0  0  0
  8 33  1  0  0  0  0
  9 10  1  0  0  0  0
 10 11  2  0  0  0  0
 10 22  1  0  0  0  0
 11 12  1  0  0  0  0
 11 19  1  0  0  0  0
 12 13  1  0  0  0  0
 12 34  1  0  0  0  0
 13 14  1  0  0  0  0
 13 15  1  0  0  0  0
 13 35  1  6  0  0  0
 14 36  1  0  0  0  0
 14 37  1  0  0  0  0
 14 38  1  0  0  0  0
 15 16  1  0  0  0  0
 15 39  1  0  0  0  0
 15 40  1  0  0  0  0
 16 17  2  0  0  0  0
 16 18  1  0  0  0  0
 18 19  1  0  0  0  0
 18 41  1  0  0  0  0
 19 20  2  0  0  0  0
 20 21  1  0  0  0  0
 20 42  1  0  0  0  0
 21 22  2  0  0  0  0
 21 43  1  0  0  0  0
 22 44  1  0  0  0  0
M  CHG  1   5   1
M  END
$$$$
