58T
 OpenBabel04161909363D

 45 48  0  0  0  0  0  0  0  0999 V2000
   18.4243   21.7898    3.9147 O   0  0  0  0  0  0  0  0  0  0  0  0
   17.4945   21.1156    4.3542 C   0  0  0  0  0  0  0  0  0  0  0  0
   17.5855   20.1664    5.3901 N   0  3  0  0  0  0  0  0  0  0  0  0
   16.3364   19.5721    5.5471 C   0  0  0  0  0  0  0  0  0  0  0  0
   16.1808   21.1211    3.9070 N   0  3  0  0  0  0  0  0  0  0  0  0
   15.4748   20.1423    4.6239 C   0  0  0  0  0  0  0  0  0  0  0  0
   15.7238   21.8655    2.7671 C   0  0  0  0  0  0  0  0  0  0  0  0
   14.9245   23.1132    3.0490 C   0  0  0  0  0  0  0  0  0  0  0  0
   15.2472   24.3190    2.4169 C   0  0  0  0  0  0  0  0  0  0  0  0
   14.4725   25.4582    2.6263 C   0  0  0  0  0  0  0  0  0  0  0  0
   13.3301   25.3878    3.4179 C   0  0  0  0  0  0  0  0  0  0  0  0
   13.7743   23.0647    3.8355 C   0  0  0  0  0  0  0  0  0  0  0  0
   12.9797   24.1883    4.0401 C   0  0  0  0  0  0  0  0  0  0  0  0
   11.8449   24.2118    4.8013 O   0  0  0  0  0  0  0  0  0  0  0  0
   11.7779   23.3131    5.9244 C   0  0  0  0  0  0  0  0  0  0  0  0
   10.6937   22.2728    5.6793 C   0  0  0  0  0  0  0  0  0  0  0  0
   11.3060   21.2135    4.9576 O   0  0  0  0  0  0  0  0  0  0  0  0
   10.6697   19.9531    5.0987 C   0  0  0  0  0  0  0  0  0  0  0  0
   11.5682   18.9395    4.3949 C   0  0  0  0  0  0  0  0  0  0  0  0
   12.5105   18.4241    5.3405 O   0  0  0  0  0  0  0  0  0  0  0  0
   13.8183   18.8625    5.3211 C   0  0  0  0  0  0  0  0  0  0  0  0
   14.2076   19.8047    4.4603 N   0  0  0  0  0  0  0  0  0  0  0  0
   14.5878   18.2294    6.2595 N   0  0  0  0  0  0  0  0  0  0  0  0
   15.8755   18.5815    6.4058 C   0  0  0  0  0  0  0  0  0  0  0  0
   16.6620   17.9550    7.3379 N   0  0  0  0  0  0  0  0  0  0  0  0
   16.1834   16.8291    8.0926 C   0  0  0  0  0  0  0  0  0  0  0  0
   18.4316   19.9587    5.8698 H   0  0  0  0  0  0  0  0  0  0  0  0
   15.1169   21.2166    2.1375 H   0  0  0  0  0  0  0  0  0  0  0  0
   16.6122   22.1720    2.1942 H   0  0  0  0  0  0  0  0  0  0  0  0
   16.0987   24.3721    1.7443 H   0  0  0  0  0  0  0  0  0  0  0  0
   14.7645   26.4005    2.1692 H   0  0  0  0  0  0  0  0  0  0  0  0
   12.7209   26.2740    3.5646 H   0  0  0  0  0  0  0  0  0  0  0  0
   13.4906   22.1236    4.2824 H   0  0  0  0  0  0  0  0  0  0  0  0
   11.5061   23.8976    6.8130 H   0  0  0  0  0  0  0  0  0  0  0  0
   12.7350   22.8194    6.1208 H   0  0  0  0  0  0  0  0  0  0  0  0
    9.8829   22.7026    5.0828 H   0  0  0  0  0  0  0  0  0  0  0  0
   10.3053   21.9008    6.6332 H   0  0  0  0  0  0  0  0  0  0  0  0
    9.6825   19.9853    4.6286 H   0  0  0  0  0  0  0  0  0  0  0  0
   10.5725   19.6934    6.1582 H   0  0  0  0  0  0  0  0  0  0  0  0
   12.0289   19.3858    3.5076 H   0  0  0  0  0  0  0  0  0  0  0  0
   10.9474   18.0898    4.0748 H   0  0  0  0  0  0  0  0  0  0  0  0
   17.5729   18.3150    7.5274 H   0  0  0  0  0  0  0  0  0  0  0  0
   16.9737   16.4962    8.7930 H   0  0  0  0  0  0  0  0  0  0  0  0
   15.9510   15.9795    7.4341 H   0  0  0  0  0  0  0  0  0  0  0  0
   15.2938   17.0714    8.6876 H   0  0  0  0  0  0  0  0  0  0  0  0
  1  2  2  0  0  0  0
  2  3  1  0  0  0  0
  2  5  1  0  0  0  0
  3  4  1  0  0  0  0
  3 27  1  0  0  0  0
  4  6  2  0  0  0  0
  4 24  1  0  0  0  0
  5  6  1  0  0  0  0
  5  7  1  0  0  0  0
  6 22  1  0  0  0  0
  7  8  1  0  0  0  0
  7 28  1  0  0  0  0
  7 29  1  0  0  0  0
  8  9  2  0  0  0  0
  8 12  1  0  0  0  0
  9 10  1  0  0  0  0
  9 30  1  0  0  0  0
 10 11  2  0  0  0  0
 10 31  1  0  0  0  0
 11 13  1  0  0  0  0
 11 32  1  0  0  0  0
 12 13  2  0  0  0  0
 12 33  1  0  0  0  0
 13 14  1  0  0  0  0
 14 15  1  0  0  0  0
 15 16  1  0  0  0  0
 15 34  1  0  0  0  0
 15 35  1  0  0  0  0
 16 17  1  0  0  0  0
 16 36  1  0  0  0  0
 16 37  1  0  0  0  0
 17 18  1  0  0  0  0
 18 19  1  0  0  0  0
 18 38  1  0  0  0  0
 18 39  1  0  0  0  0
 19 20  1  0  0  0  0
 19 40  1  0  0  0  0
 19 41  1  0  0  0  0
 20 21  1  0  0  0  0
 21 22  2  0  0  0  0
 21 23  1  0  0  0  0
 23 24  2  0  0  0  0
 24 25  1  0  0  0  0
 25 26  1  0  0  0  0
 25 42  1  0  0  0  0
 26 43  1  0  0  0  0
 26 44  1  0  0  0  0
 26 45  1  0  0  0  0
M  CHG  2   3   1   5   1
M  END
$$$$
