5AV
 OpenBabel04161909533D

 31 33  0  0  0  0  0  0  0  0999 V2000
    4.8035   12.4354   43.9103 C   0  0  0  0  0  0  0  0  0  0  0  0
    3.5570   14.5059   44.2573 C   0  0  0  0  0  0  0  0  0  0  0  0
    3.5238   14.7782   42.9122 N   0  0  0  0  0  0  0  0  0  0  0  0
    3.0562   15.2000   45.3326 C   0  0  0  0  0  0  0  0  0  0  0  0
    6.3137   10.4369   43.6914 C   0  0  0  0  0  0  0  0  0  0  0  0
    7.6853   10.9465   43.3684 C   0  0  0  0  0  0  0  0  0  0  0  0
    9.7873   12.1073   43.1587 C   0  0  0  0  0  0  0  0  0  0  0  0
    8.5952   10.3852   42.4891 C   0  0  0  0  0  0  0  0  0  0  0  0
   10.9217   13.0496   43.2891 C   0  0  0  0  0  0  0  0  0  0  0  0
    4.1092   13.9353   42.1342 C   0  0  0  0  0  0  0  0  0  0  0  0
    4.1679   13.3589   44.7812 N   0  3  0  0  0  0  0  0  0  0  0  0
    8.3563   12.3594   44.0634 S   0  0  0  0  0  0  0  0  0  0  0  0
    4.0607   14.2756   40.4373 Cl  0  0  0  0  0  0  0  0  0  0  0  0
    4.8076   12.6928   42.5829 C   0  0  0  0  0  0  0  0  0  0  0  0
    4.0664   13.3266   46.1526 N   0  0  0  0  0  0  0  0  0  0  0  0
    3.3981   14.4422   46.4596 C   0  0  0  0  0  0  0  0  0  0  0  0
    5.4272   11.2993   44.4321 N   0  0  0  0  0  0  0  0  0  0  0  0
    9.7942   11.0530   42.3786 N   0  0  0  0  0  0  0  0  0  0  0  0
    8.4030    9.1557   41.6827 C   0  0  0  0  0  0  0  0  0  0  0  0
    2.5092   16.1377   45.3094 H   0  0  0  0  0  0  0  0  0  0  0  0
    6.4038    9.4686   44.1862 H   0  0  0  0  0  0  0  0  0  0  0  0
    5.8170   10.2333   42.7311 H   0  0  0  0  0  0  0  0  0  0  0  0
   11.7478   12.7291   42.6476 H   0  0  0  0  0  0  0  0  0  0  0  0
   11.2779   13.0750   44.3226 H   0  0  0  0  0  0  0  0  0  0  0  0
   10.6191   14.0552   42.9851 H   0  0  0  0  0  0  0  0  0  0  0  0
    5.2631   12.1106   41.8134 H   0  0  0  0  0  0  0  0  0  0  0  0
    3.1721   14.6790   47.4950 H   0  0  0  0  0  0  0  0  0  0  0  0
    5.3258   11.1498   45.4429 H   0  0  0  0  0  0  0  0  0  0  0  0
    9.2940    8.9456   41.0849 H   0  0  0  0  0  0  0  0  0  0  0  0
    7.5518    9.2759   41.0049 H   0  0  0  0  0  0  0  0  0  0  0  0
    8.2157    8.3019   42.3390 H   0  0  0  0  0  0  0  0  0  0  0  0
  1 11  2  0  0  0  0
  1 14  1  0  0  0  0
  1 17  1  0  0  0  0
  2  3  2  0  0  0  0
  2  4  1  0  0  0  0
  2 11  1  0  0  0  0
  3 10  1  0  0  0  0
  4 16  2  0  0  0  0
  4 20  1  0  0  0  0
  5  6  1  0  0  0  0
  5 17  1  0  0  0  0
  5 21  1  0  0  0  0
  5 22  1  0  0  0  0
  6  8  2  0  0  0  0
  6 12  1  0  0  0  0
  7  9  1  0  0  0  0
  7 12  1  0  0  0  0
  7 18  2  0  0  0  0
  8 18  1  0  0  0  0
  8 19  1  0  0  0  0
  9 23  1  0  0  0  0
  9 24  1  0  0  0  0
  9 25  1  0  0  0  0
 10 13  1  0  0  0  0
 10 14  2  0  0  0  0
 11 15  1  0  0  0  0
 14 26  1  0  0  0  0
 15 16  1  0  0  0  0
 16 27  1  0  0  0  0
 17 28  1  0  0  0  0
 19 29  1  0  0  0  0
 19 30  1  0  0  0  0
 19 31  1  0  0  0  0
M  CHG  1  11   1
M  END
$$$$
