5B5
 OpenBabel04161909523D

 89 92  0  0  1  0  0  0  0  0999 V2000
   20.9526   27.5726   14.7963 C   0  0  0  0  0  0  0  0  0  0  0  0
   21.4879   26.4542   15.4361 C   0  0  0  0  0  0  0  0  0  0  0  0
   20.6827   25.3767   15.7742 C   0  0  0  0  0  0  0  0  0  0  0  0
   19.3212   25.4041   15.4788 C   0  0  0  0  0  0  0  0  0  0  0  0
   18.7719   26.4967   14.8034 C   0  0  0  0  0  0  0  0  0  0  0  0
   19.5920   27.5816   14.4697 C   0  0  0  0  0  0  0  0  0  0  0  0
   18.3702   23.9490   15.8388 S   0  0  0  0  0  0  0  0  0  0  0  0
   17.2845   23.8895   14.8905 O   0  0  0  0  0  0  0  0  0  0  0  0
   19.2963   22.8431   15.9802 O   0  0  0  0  0  0  0  0  0  0  0  0
   17.7123   24.2475   17.3858 N   0  0  0  0  0  0  0  0  0  0  0  0
   18.6790   24.5280   18.4845 C   0  0  0  0  0  0  0  0  0  0  0  0
   18.3454   23.7786   19.7839 C   0  0  0  0  0  0  0  0  0  0  0  0
   18.3437   22.2603   19.5950 C   0  0  0  0  0  0  0  0  0  0  0  0
   19.3743   24.1561   20.8557 C   0  0  0  0  0  0  0  0  0  0  0  0
   16.4345   24.9953   17.4521 C   0  0  0  0  0  0  0  0  0  0  0  0
   15.2784   24.0730   17.8974 C   0  0  1  0  0  0  0  0  0  0  0  0
   14.0967   24.8477   18.1624 O   0  0  0  0  0  0  0  0  0  0  0  0
   14.9462   22.9115   16.9288 C   0  0  1  0  0  0  0  0  0  0  0  0
   14.1077   21.9354   17.6380 N   0  0  0  0  0  0  0  0  0  0  0  0
   14.3970   20.6108   17.6644 C   0  0  0  0  0  0  0  0  0  0  0  0
   15.4279   20.0881   17.2617 O   0  0  0  0  0  0  0  0  0  0  0  0
   13.3462   19.9265   18.1743 O   0  0  0  0  0  0  0  0  0  0  0  0
   13.5341   18.5115   18.3518 C   0  0  2  0  0  0  0  0  0  0  0  0
   12.5559   18.6636   20.6184 C   0  0  0  0  0  0  0  0  0  0  0  0
   11.4222   17.9059   20.2102 O   0  0  0  0  0  0  0  0  0  0  0  0
   11.1116   17.9691   18.8358 C   0  0  1  0  0  0  0  0  0  0  0  0
   10.4944   19.1795   18.4057 O   0  0  0  0  0  0  0  0  0  0  0  0
   10.6241   19.2284   16.9769 C   0  0  0  0  0  0  0  0  0  0  0  0
   11.7381   18.2494   16.5820 C   0  0  1  0  0  0  0  0  0  0  0  0
   12.2877   17.7394   17.9013 C   0  0  1  0  0  0  0  0  0  0  0  0
   14.2112   23.3706   15.6469 C   0  0  0  0  0  0  0  0  0  0  0  0
   12.4943   21.8956   14.5268 C   0  0  0  0  0  0  0  0  0  0  0  0
   12.1482   20.8308   13.6979 C   0  0  0  0  0  0  0  0  0  0  0  0
   13.1450   20.0773   13.0777 C   0  0  0  0  0  0  0  0  0  0  0  0
   14.4862   20.3881   13.2860 C   0  0  0  0  0  0  0  0  0  0  0  0
   14.8327   21.4625   14.1023 C   0  0  0  0  0  0  0  0  0  0  0  0
   13.8408   22.2229   14.7332 C   0  0  0  0  0  0  0  0  0  0  0  0
   21.6889   28.6730   14.4440 O   0  0  0  0  0  0  0  0  0  0  0  0
   22.9790   28.7426   15.0537 C   0  0  0  0  0  0  0  0  0  0  0  0
   13.7862   18.2422   19.8286 C   0  0  0  0  0  0  0  0  0  0  0  0
   11.1625   17.0774   15.8038 N   0  3  0  0  0  0  0  0  0  0  0  0
   10.7304   17.4290   14.4156 C   0  0  0  0  0  0  0  0  0  0  0  0
   10.7077   16.1788   13.5666 C   0  0  0  0  0  0  0  0  0  0  0  0
   22.5461   26.3695   15.6629 H   0  0  0  0  0  0  0  0  0  0  0  0
   21.1414   24.5137   16.2507 H   0  0  0  0  0  0  0  0  0  0  0  0
   17.7236   26.5039   14.5162 H   0  0  0  0  0  0  0  0  0  0  0  0
   19.1764   28.4404   13.9362 H   0  0  0  0  0  0  0  0  0  0  0  0
   18.6968   25.6093   18.6719 H   0  0  0  0  0  0  0  0  0  0  0  0
   19.6934   24.2488   18.1852 H   0  0  0  0  0  0  0  0  0  0  0  0
   17.3578   24.0862   20.1454 H   0  0  0  0  0  0  0  0  0  0  0  0
   18.1352   21.7542   20.5440 H   0  0  0  0  0  0  0  0  0  0  0  0
   19.3142   21.9049   19.2321 H   0  0  0  0  0  0  0  0  0  0  0  0
   17.5774   21.9462   18.8799 H   0  0  0  0  0  0  0  0  0  0  0  0
   19.3922   25.2395   21.0150 H   0  0  0  0  0  0  0  0  0  0  0  0
   20.3827   23.8421   20.5627 H   0  0  0  0  0  0  0  0  0  0  0  0
   19.1378   23.6798   21.8127 H   0  0  0  0  0  0  0  0  0  0  0  0
   16.1910   25.4756   16.4993 H   0  0  0  0  0  0  0  0  0  0  0  0
   16.5157   25.8269   18.1629 H   0  0  0  0  0  0  0  0  0  0  0  0
   15.5524   23.6283   18.8608 H   0  0  0  0  0  0  0  0  0  0  0  0
   13.9004   25.3925   17.3804 H   0  0  0  0  0  0  0  0  0  0  0  0
   15.8748   22.4017   16.6539 H   0  0  0  0  0  0  0  0  0  0  0  0
   13.2331   22.2435   18.0411 H   0  0  0  0  0  0  0  0  0  0  0  0
   14.3824   18.1454   17.7586 H   0  0  0  0  0  0  0  0  0  0  0  0
   12.7175   18.4656   21.6822 H   0  0  0  0  0  0  0  0  0  0  0  0
   12.3458   19.7336   20.5125 H   0  0  0  0  0  0  0  0  0  0  0  0
   10.3665   17.1816   18.6670 H   0  0  0  0  0  0  0  0  0  0  0  0
   10.8425   20.2536   16.6666 H   0  0  0  0  0  0  0  0  0  0  0  0
    9.6540   18.9483   16.5524 H   0  0  0  0  0  0  0  0  0  0  0  0
   12.5035   18.6922   15.9356 H   0  0  0  0  0  0  0  0  0  0  0  0
   12.5502   16.6745   17.8866 H   0  0  0  0  0  0  0  0  0  0  0  0
   14.8065   24.0945   15.0803 H   0  0  0  0  0  0  0  0  0  0  0  0
   13.2899   23.8993   15.9199 H   0  0  0  0  0  0  0  0  0  0  0  0
   11.7103   22.4817   15.0020 H   0  0  0  0  0  0  0  0  0  0  0  0
   11.0997   20.6090   13.5237 H   0  0  0  0  0  0  0  0  0  0  0  0
   12.8866   19.2599   12.4110 H   0  0  0  0  0  0  0  0  0  0  0  0
   15.2696   19.8112   12.7997 H   0  0  0  0  0  0  0  0  0  0  0  0
   15.8866   21.7020   14.2438 H   0  0  0  0  0  0  0  0  0  0  0  0
   23.4640   29.6779   14.7678 H   0  0  0  0  0  0  0  0  0  0  0  0
   23.6229   27.9249   14.7081 H   0  0  0  0  0  0  0  0  0  0  0  0
   22.8837   28.7286   16.1472 H   0  0  0  0  0  0  0  0  0  0  0  0
   14.6648   18.7929   20.1817 H   0  0  0  0  0  0  0  0  0  0  0  0
   13.9709   17.1696   19.9711 H   0  0  0  0  0  0  0  0  0  0  0  0
   11.8827   16.3424   15.7445 H   0  0  0  0  0  0  0  0  0  0  0  0
   11.4527   18.1353   14.0134 H   0  0  0  0  0  0  0  0  0  0  0  0
    9.7449   17.8976   14.4820 H   0  0  0  0  0  0  0  0  0  0  0  0
   10.4040   16.4298   12.5458 H   0  0  0  0  0  0  0  0  0  0  0  0
   10.0097   15.4409   13.9671 H   0  0  0  0  0  0  0  0  0  0  0  0
   11.7046   15.7270   13.5190 H   0  0  0  0  0  0  0  0  0  0  0  0
   10.3670   16.6555   16.3051 H   0  0  0  0  0  0  0  0  0  0  0  0
  1  2  2  0  0  0  0
  1  6  1  0  0  0  0
  1 38  1  0  0  0  0
  2  3  1  0  0  0  0
  2 44  1  0  0  0  0
  3  4  2  0  0  0  0
  3 45  1  0  0  0  0
  4  5  1  0  0  0  0
  4  7  1  0  0  0  0
  5  6  2  0  0  0  0
  5 46  1  0  0  0  0
  6 47  1  0  0  0  0
  7  8  2  0  0  0  0
  7  9  2  0  0  0  0
  7 10  1  0  0  0  0
 10 11  1  0  0  0  0
 10 15  1  0  0  0  0
 11 12  1  0  0  0  0
 11 48  1  0  0  0  0
 11 49  1  0  0  0  0
 12 13  1  0  0  0  0
 12 14  1  0  0  0  0
 12 50  1  0  0  0  0
 13 51  1  0  0  0  0
 13 52  1  0  0  0  0
 13 53  1  0  0  0  0
 14 54  1  0  0  0  0
 14 55  1  0  0  0  0
 14 56  1  0  0  0  0
 15 16  1  0  0  0  0
 15 57  1  0  0  0  0
 15 58  1  0  0  0  0
 16 17  1  0  0  0  0
 16 18  1  0  0  0  0
 16 59  1  1  0  0  0
 17 60  1  0  0  0  0
 18 19  1  0  0  0  0
 18 31  1  0  0  0  0
 18 61  1  6  0  0  0
 19 20  1  0  0  0  0
 19 62  1  0  0  0  0
 20 21  2  0  0  0  0
 20 22  1  0  0  0  0
 22 23  1  0  0  0  0
 23 30  1  0  0  0  0
 23 40  1  0  0  0  0
 23 63  1  6  0  0  0
 24 25  1  0  0  0  0
 24 40  1  0  0  0  0
 24 64  1  0  0  0  0
 24 65  1  0  0  0  0
 25 26  1  0  0  0  0
 26 27  1  0  0  0  0
 26 30  1  0  0  0  0
 26 66  1  6  0  0  0
 27 28  1  0  0  0  0
 28 29  1  0  0  0  0
 28 67  1  0  0  0  0
 28 68  1  0  0  0  0
 29 30  1  0  0  0  0
 29 41  1  0  0  0  0
 29 69  1  6  0  0  0
 30 70  1  6  0  0  0
 31 37  1  0  0  0  0
 31 71  1  0  0  0  0
 31 72  1  0  0  0  0
 32 33  2  0  0  0  0
 32 37  1  0  0  0  0
 32 73  1  0  0  0  0
 33 34  1  0  0  0  0
 33 74  1  0  0  0  0
 34 35  2  0  0  0  0
 34 75  1  0  0  0  0
 35 36  1  0  0  0  0
 35 76  1  0  0  0  0
 36 37  2  0  0  0  0
 36 77  1  0  0  0  0
 38 39  1  0  0  0  0
 39 78  1  0  0  0  0
 39 79  1  0  0  0  0
 39 80  1  0  0  0  0
 40 81  1  0  0  0  0
 40 82  1  0  0  0  0
 41 42  1  0  0  0  0
 41 83  1  0  0  0  0
 41 89  1  0  0  0  0
 42 43  1  0  0  0  0
 42 84  1  0  0  0  0
 42 85  1  0  0  0  0
 43 86  1  0  0  0  0
 43 87  1  0  0  0  0
 43 88  1  0  0  0  0
M  CHG  1  41   1
M  END
$$$$
