5B8
 OpenBabel04161909533D

106110  0  0  1  0  0  0  0  0999 V2000
  -11.2467   -2.7001  -25.4960 C   0  0  0  0  0  0  0  0  0  0  0  0
  -11.8024   -3.9567  -24.8376 C   0  0  0  0  0  0  0  0  0  0  0  0
  -11.3259   -3.9675  -23.3935 C   0  0  0  0  0  0  0  0  0  0  0  0
   -9.8059   -4.0806  -23.3454 C   0  0  0  0  0  0  0  0  0  0  0  0
   -9.1209   -3.0087  -24.1940 C   0  0  0  0  0  0  0  0  0  0  0  0
   -9.7248   -2.9009  -25.6009 C   0  0  0  0  0  0  0  0  0  0  0  0
   -8.9840   -1.8648  -26.4683 C   0  0  1  0  0  0  0  0  0  0  0  0
   -9.5811   -1.7653  -27.8770 C   0  0  1  0  0  0  0  0  0  0  0  0
   -8.6687   -1.0030  -28.8121 C   0  0  0  0  0  0  0  0  0  0  0  0
   -9.7407   -3.0599  -28.4586 O   0  0  0  0  0  0  0  0  0  0  0  0
   -8.9518   -0.4882  -25.8070 C   0  0  0  0  0  0  0  0  0  0  0  0
  -10.0028    0.0906  -25.5236 O   0  0  0  0  0  0  0  0  0  0  0  0
   -7.7168    0.0887  -25.5145 N   0  0  0  0  0  0  0  0  0  0  0  0
   -6.4060   -0.4239  -25.9661 C   0  0  0  0  0  0  0  0  0  0  0  0
   -5.2842   -0.1370  -24.9892 C   0  0  0  0  0  0  0  0  0  0  0  0
   -5.2738    1.3461  -24.6921 C   0  0  0  0  0  0  0  0  0  0  0  0
   -6.5823    1.7303  -24.0177 C   0  0  0  0  0  0  0  0  0  0  0  0
   -7.7711    1.4518  -24.9343 C   0  0  1  0  0  0  0  0  0  0  0  0
   -7.8675    2.5643  -25.9942 C   0  0  0  0  0  0  0  0  0  0  0  0
   -8.2155    3.6848  -25.7383 O   0  0  0  0  0  0  0  0  0  0  0  0
   -7.4008    2.1317  -27.1847 O   0  0  0  0  0  0  0  0  0  0  0  0
   -7.4852    3.0982  -28.2171 C   0  0  2  0  0  0  0  0  0  0  0  0
   -8.8698    3.0167  -28.8487 C   0  0  0  0  0  0  0  0  0  0  0  0
   -9.1629    4.1738  -29.7839 C   0  0  0  0  0  0  0  0  0  0  0  0
   -9.4935    5.4488  -29.0681 C   0  0  0  0  0  0  0  0  0  0  0  0
  -10.7197    5.6499  -28.4167 C   0  0  0  0  0  0  0  0  0  0  0  0
   -8.5447    6.4727  -29.0940 C   0  0  0  0  0  0  0  0  0  0  0  0
   -8.8131    7.6764  -28.4701 C   0  0  0  0  0  0  0  0  0  0  0  0
  -10.0242    7.8889  -27.7948 C   0  0  0  0  0  0  0  0  0  0  0  0
  -10.1665    9.1445  -27.2576 O   0  0  0  0  0  0  0  0  0  0  0  0
  -11.0321    9.3091  -26.1331 C   0  0  0  0  0  0  0  0  0  0  0  0
  -10.9935    6.8717  -27.7913 C   0  0  0  0  0  0  0  0  0  0  0  0
  -12.1522    7.1144  -27.1154 O   0  0  0  0  0  0  0  0  0  0  0  0
  -13.3507    6.5724  -27.6342 C   0  0  0  0  0  0  0  0  0  0  0  0
   -6.3613    2.7320  -29.1486 C   0  0  0  0  0  0  0  0  0  0  0  0
   -5.3197    3.6280  -29.2856 C   0  0  0  0  0  0  0  0  0  0  0  0
   -6.2739    1.4985  -29.7773 C   0  0  0  0  0  0  0  0  0  0  0  0
   -5.1892    1.1646  -30.5624 C   0  0  0  0  0  0  0  0  0  0  0  0
   -4.1567    2.0660  -30.7186 C   0  0  0  0  0  0  0  0  0  0  0  0
   -4.2114    3.3103  -30.0727 C   0  0  0  0  0  0  0  0  0  0  0  0
   -3.3101    4.3113  -30.1758 O   0  0  0  0  0  0  0  0  0  0  0  0
   -1.9567    3.8937  -30.3100 C   0  0  0  0  0  0  0  0  0  0  0  0
   -1.1565    5.0971  -29.8225 C   0  0  0  0  0  0  0  0  0  0  0  0
   -0.7468    6.0273  -30.9465 N   0  3  0  0  0  0  0  0  0  0  0  0
   -1.9065    6.4877  -31.8265 C   0  0  0  0  0  0  0  0  0  0  0  0
   -1.3776    7.3262  -32.9933 C   0  0  0  0  0  0  0  0  0  0  0  0
   -0.3293    6.6548  -33.7065 O   0  0  0  0  0  0  0  0  0  0  0  0
    0.7971    6.4593  -32.8467 C   0  0  0  0  0  0  0  0  0  0  0  0
    0.3994    5.4599  -31.7693 C   0  0  0  0  0  0  0  0  0  0  0  0
  -11.4870   -1.8230  -24.8801 H   0  0  0  0  0  0  0  0  0  0  0  0
  -11.7257   -2.5455  -26.4662 H   0  0  0  0  0  0  0  0  0  0  0  0
  -11.4196   -4.8450  -25.3600 H   0  0  0  0  0  0  0  0  0  0  0  0
  -12.8924   -3.9907  -24.8897 H   0  0  0  0  0  0  0  0  0  0  0  0
  -11.7838   -4.7986  -22.8513 H   0  0  0  0  0  0  0  0  0  0  0  0
  -11.6358   -3.0349  -22.9049 H   0  0  0  0  0  0  0  0  0  0  0  0
   -9.5132   -5.0721  -23.7126 H   0  0  0  0  0  0  0  0  0  0  0  0
   -9.4663   -3.9982  -22.3083 H   0  0  0  0  0  0  0  0  0  0  0  0
   -8.0515   -3.2346  -24.2667 H   0  0  0  0  0  0  0  0  0  0  0  0
   -9.2276   -2.0451  -23.6858 H   0  0  0  0  0  0  0  0  0  0  0  0
   -9.5625   -3.8797  -26.0780 H   0  0  0  0  0  0  0  0  0  0  0  0
   -7.9811   -2.2641  -26.5852 H   0  0  0  0  0  0  0  0  0  0  0  0
  -10.5524   -1.2637  -27.8510 H   0  0  0  0  0  0  0  0  0  0  0  0
   -9.0983   -0.9432  -29.8176 H   0  0  0  0  0  0  0  0  0  0  0  0
   -7.6961   -1.5009  -28.9065 H   0  0  0  0  0  0  0  0  0  0  0  0
   -8.5173    0.0074  -28.4377 H   0  0  0  0  0  0  0  0  0  0  0  0
  -10.3478   -3.5786  -27.9026 H   0  0  0  0  0  0  0  0  0  0  0  0
   -6.1424    0.0086  -26.9402 H   0  0  0  0  0  0  0  0  0  0  0  0
   -6.4344   -1.5003  -26.0830 H   0  0  0  0  0  0  0  0  0  0  0  0
   -4.3268   -0.4462  -25.4237 H   0  0  0  0  0  0  0  0  0  0  0  0
   -5.4341   -0.7198  -24.0722 H   0  0  0  0  0  0  0  0  0  0  0  0
   -5.1667    1.8993  -25.6335 H   0  0  0  0  0  0  0  0  0  0  0  0
   -4.4272    1.5943  -24.0510 H   0  0  0  0  0  0  0  0  0  0  0  0
   -6.5392    2.7869  -23.7264 H   0  0  0  0  0  0  0  0  0  0  0  0
   -6.7097    1.1391  -23.1032 H   0  0  0  0  0  0  0  0  0  0  0  0
   -8.6904    1.5648  -24.3467 H   0  0  0  0  0  0  0  0  0  0  0  0
   -7.2942    4.1125  -27.8415 H   0  0  0  0  0  0  0  0  0  0  0  0
   -9.6143    2.9773  -28.0466 H   0  0  0  0  0  0  0  0  0  0  0  0
   -8.9703    2.0899  -29.4220 H   0  0  0  0  0  0  0  0  0  0  0  0
  -10.0071    3.9208  -30.4287 H   0  0  0  0  0  0  0  0  0  0  0  0
   -8.2962    4.3519  -30.4302 H   0  0  0  0  0  0  0  0  0  0  0  0
  -11.4497    4.8429  -28.3980 H   0  0  0  0  0  0  0  0  0  0  0  0
   -7.6043    6.3152  -29.6162 H   0  0  0  0  0  0  0  0  0  0  0  0
   -8.0604    8.4591  -28.5124 H   0  0  0  0  0  0  0  0  0  0  0  0
  -11.0294   10.3688  -25.8612 H   0  0  0  0  0  0  0  0  0  0  0  0
  -10.6738    8.7371  -25.2715 H   0  0  0  0  0  0  0  0  0  0  0  0
  -12.0799    9.0837  -26.3410 H   0  0  0  0  0  0  0  0  0  0  0  0
  -14.1703    6.9203  -26.9952 H   0  0  0  0  0  0  0  0  0  0  0  0
  -13.3254    5.4850  -27.5823 H   0  0  0  0  0  0  0  0  0  0  0  0
  -13.5372    6.9262  -28.6527 H   0  0  0  0  0  0  0  0  0  0  0  0
   -5.3534    4.5886  -28.7619 H   0  0  0  0  0  0  0  0  0  0  0  0
   -7.0659    0.7706  -29.6540 H   0  0  0  0  0  0  0  0  0  0  0  0
   -5.1490    0.1965  -31.0641 H   0  0  0  0  0  0  0  0  0  0  0  0
   -3.3251    1.8124  -31.3842 H   0  0  0  0  0  0  0  0  0  0  0  0
   -1.7499    3.6488  -31.3555 H   0  0  0  0  0  0  0  0  0  0  0  0
   -1.7288    3.0249  -29.6787 H   0  0  0  0  0  0  0  0  0  0  0  0
   -0.2346    4.7785  -29.3313 H   0  0  0  0  0  0  0  0  0  0  0  0
   -1.7475    5.7072  -29.1283 H   0  0  0  0  0  0  0  0  0  0  0  0
   -2.5784    7.0766  -31.1947 H   0  0  0  0  0  0  0  0  0  0  0  0
   -2.4133    5.5999  -32.2121 H   0  0  0  0  0  0  0  0  0  0  0  0
   -0.9917    8.2837  -32.6296 H   0  0  0  0  0  0  0  0  0  0  0  0
   -2.1950    7.5225  -33.6909 H   0  0  0  0  0  0  0  0  0  0  0  0
    1.1015    7.4229  -32.4212 H   0  0  0  0  0  0  0  0  0  0  0  0
    1.6368    6.0661  -33.4271 H   0  0  0  0  0  0  0  0  0  0  0  0
    0.0391    4.5355  -32.2316 H   0  0  0  0  0  0  0  0  0  0  0  0
    1.2242    5.2653  -31.0806 H   0  0  0  0  0  0  0  0  0  0  0  0
   -0.3891    6.8769  -30.4952 H   0  0  0  0  0  0  0  0  0  0  0  0
  1  2  1  0  0  0  0
  1  6  1  0  0  0  0
  1 50  1  0  0  0  0
  1 51  1  0  0  0  0
  2  3  1  0  0  0  0
  2 52  1  0  0  0  0
  2 53  1  0  0  0  0
  3  4  1  0  0  0  0
  3 54  1  0  0  0  0
  3 55  1  0  0  0  0
  4  5  1  0  0  0  0
  4 56  1  0  0  0  0
  4 57  1  0  0  0  0
  5  6  1  0  0  0  0
  5 58  1  0  0  0  0
  5 59  1  0  0  0  0
  6  7  1  0  0  0  0
  6 60  1  0  0  0  0
  7  8  1  0  0  0  0
  7 11  1  0  0  0  0
  7 61  1  6  0  0  0
  8  9  1  0  0  0  0
  8 10  1  0  0  0  0
  8 62  1  1  0  0  0
  9 63  1  0  0  0  0
  9 64  1  0  0  0  0
  9 65  1  0  0  0  0
 10 66  1  0  0  0  0
 11 12  2  0  0  0  0
 11 13  1  0  0  0  0
 13 14  1  0  0  0  0
 13 18  1  0  0  0  0
 14 15  1  0  0  0  0
 14 67  1  0  0  0  0
 14 68  1  0  0  0  0
 15 16  1  0  0  0  0
 15 69  1  0  0  0  0
 15 70  1  0  0  0  0
 16 17  1  0  0  0  0
 16 71  1  0  0  0  0
 16 72  1  0  0  0  0
 17 18  1  0  0  0  0
 17 73  1  0  0  0  0
 17 74  1  0  0  0  0
 18 19  1  0  0  0  0
 18 75  1  1  0  0  0
 19 20  2  0  0  0  0
 19 21  1  0  0  0  0
 21 22  1  0  0  0  0
 22 23  1  0  0  0  0
 22 35  1  0  0  0  0
 22 76  1  1  0  0  0
 23 24  1  0  0  0  0
 23 77  1  0  0  0  0
 23 78  1  0  0  0  0
 24 25  1  0  0  0  0
 24 79  1  0  0  0  0
 24 80  1  0  0  0  0
 25 26  2  0  0  0  0
 25 27  1  0  0  0  0
 26 32  1  0  0  0  0
 26 81  1  0  0  0  0
 27 28  2  0  0  0  0
 27 82  1  0  0  0  0
 28 29  1  0  0  0  0
 28 83  1  0  0  0  0
 29 30  1  0  0  0  0
 29 32  2  0  0  0  0
 30 31  1  0  0  0  0
 31 84  1  0  0  0  0
 31 85  1  0  0  0  0
 31 86  1  0  0  0  0
 32 33  1  0  0  0  0
 33 34  1  0  0  0  0
 34 87  1  0  0  0  0
 34 88  1  0  0  0  0
 34 89  1  0  0  0  0
 35 36  2  0  0  0  0
 35 37  1  0  0  0  0
 36 40  1  0  0  0  0
 36 90  1  0  0  0  0
 37 38  2  0  0  0  0
 37 91  1  0  0  0  0
 38 39  1  0  0  0  0
 38 92  1  0  0  0  0
 39 40  2  0  0  0  0
 39 93  1  0  0  0  0
 40 41  1  0  0  0  0
 41 42  1  0  0  0  0
 42 43  1  0  0  0  0
 42 94  1  0  0  0  0
 42 95  1  0  0  0  0
 43 44  1  0  0  0  0
 43 96  1  0  0  0  0
 43 97  1  0  0  0  0
 44 45  1  0  0  0  0
 44 49  1  0  0  0  0
 44106  1  0  0  0  0
 45 46  1  0  0  0  0
 45 98  1  0  0  0  0
 45 99  1  0  0  0  0
 46 47  1  0  0  0  0
 46100  1  0  0  0  0
 46101  1  0  0  0  0
 47 48  1  0  0  0  0
 48 49  1  0  0  0  0
 48102  1  0  0  0  0
 48103  1  0  0  0  0
 49104  1  0  0  0  0
 49105  1  0  0  0  0
M  CHG  1  44   1
M  END
$$$$
