5CX
 OpenBabel04161909583D

 36 37  0  0  0  0  0  0  0  0999 V2000
   -5.9421    0.8959   16.8488 S   0  0  0  0  0  0  0  0  0  0  0  0
   -5.2650   -0.4721   16.1697 N   0  0  0  0  0  0  0  0  0  0  0  0
   -7.3857    0.7411   16.7490 O   0  0  0  0  0  0  0  0  0  0  0  0
   -5.2648    1.1134   18.0840 O   0  0  0  0  0  0  0  0  0  0  0  0
   -5.5392    2.2463   15.7975 C   0  0  0  0  0  0  0  0  0  0  0  0
   -4.4482    2.2260   14.9445 C   0  0  0  0  0  0  0  0  0  0  0  0
   -4.2433    3.3207   14.1003 C   0  0  0  0  0  0  0  0  0  0  0  0
   -5.1061    4.4279   14.1254 C   0  0  0  0  0  0  0  0  0  0  0  0
   -6.1929    4.4244   15.0047 C   0  0  0  0  0  0  0  0  0  0  0  0
   -6.4075    3.3392   15.8379 C   0  0  0  0  0  0  0  0  0  0  0  0
   -4.9572    5.5532   13.2051 C   0  0  0  0  0  0  0  0  0  0  0  0
   -6.0546    5.8815   12.4018 C   0  0  0  0  0  0  0  0  0  0  0  0
   -6.0068    6.9116   11.4761 C   0  0  0  0  0  0  0  0  0  0  0  0
   -4.8363    7.6269   11.3145 C   0  0  0  0  0  0  0  0  0  0  0  0
   -3.7382    7.3315   12.1103 C   0  0  0  0  0  0  0  0  0  0  0  0
   -3.7834    6.3147   13.0755 C   0  0  0  0  0  0  0  0  0  0  0  0
   -2.5636    6.0213   13.9073 C   0  0  0  0  0  0  0  0  0  0  0  0
   -1.5173    5.4301   12.9775 C   0  0  0  0  0  0  0  0  0  0  0  0
   -2.0296    7.2955   14.5370 C   0  0  0  0  0  0  0  0  0  0  0  0
   -5.4828   -0.7491   15.2320 H   0  0  0  0  0  0  0  0  0  0  0  0
   -4.5088   -0.9022   16.7051 H   0  0  0  0  0  0  0  0  0  0  0  0
   -3.7663    1.3895   14.9137 H   0  0  0  0  0  0  0  0  0  0  0  0
   -3.4027    3.3039   13.4101 H   0  0  0  0  0  0  0  0  0  0  0  0
   -6.8901    5.2574   15.0153 H   0  0  0  0  0  0  0  0  0  0  0  0
   -7.2665    3.3499   16.5065 H   0  0  0  0  0  0  0  0  0  0  0  0
   -6.9664    5.2949   12.5000 H   0  0  0  0  0  0  0  0  0  0  0  0
   -6.8865    7.1364   10.8807 H   0  0  0  0  0  0  0  0  0  0  0  0
   -4.7665    8.4159   10.5723 H   0  0  0  0  0  0  0  0  0  0  0  0
   -2.8258    7.9038   11.9612 H   0  0  0  0  0  0  0  0  0  0  0  0
   -2.7820    5.3194   14.7214 H   0  0  0  0  0  0  0  0  0  0  0  0
   -0.6107    5.1767   13.5291 H   0  0  0  0  0  0  0  0  0  0  0  0
   -1.2573    6.1567   12.2004 H   0  0  0  0  0  0  0  0  0  0  0  0
   -1.8941    4.5364   12.4721 H   0  0  0  0  0  0  0  0  0  0  0  0
   -2.7679    7.7303   15.2164 H   0  0  0  0  0  0  0  0  0  0  0  0
   -1.8014    8.0374   13.7676 H   0  0  0  0  0  0  0  0  0  0  0  0
   -1.1034    7.0956   15.0782 H   0  0  0  0  0  0  0  0  0  0  0  0
  1  2  1  0  0  0  0
  1  3  2  0  0  0  0
  1  4  2  0  0  0  0
  1  5  1  0  0  0  0
  2 20  1  0  0  0  0
  2 21  1  0  0  0  0
  5  6  2  0  0  0  0
  5 10  1  0  0  0  0
  6  7  1  0  0  0  0
  6 22  1  0  0  0  0
  7  8  2  0  0  0  0
  7 23  1  0  0  0  0
  8  9  1  0  0  0  0
  8 11  1  0  0  0  0
  9 10  2  0  0  0  0
  9 24  1  0  0  0  0
 10 25  1  0  0  0  0
 11 12  2  0  0  0  0
 11 16  1  0  0  0  0
 12 13  1  0  0  0  0
 12 26  1  0  0  0  0
 13 14  2  0  0  0  0
 13 27  1  0  0  0  0
 14 15  1  0  0  0  0
 14 28  1  0  0  0  0
 15 16  2  0  0  0  0
 15 29  1  0  0  0  0
 16 17  1  0  0  0  0
 17 18  1  0  0  0  0
 17 19  1  0  0  0  0
 17 30  1  0  0  0  0
 18 31  1  0  0  0  0
 18 32  1  0  0  0  0
 18 33  1  0  0  0  0
 19 34  1  0  0  0  0
 19 35  1  0  0  0  0
 19 36  1  0  0  0  0
M  END
$$$$
