5D2
 OpenBabel04161909533D

 69 73  0  0  0  0  0  0  0  0999 V2000
   -6.7158    7.3358    3.2326 C   0  0  0  0  0  0  0  0  0  0  0  0
   -5.6080    8.1441    3.0697 C   0  0  0  0  0  0  0  0  0  0  0  0
   -4.7242    8.6439    4.4704 Cl  0  0  0  0  0  0  0  0  0  0  0  0
   -5.1797    8.5500    1.8078 C   0  0  0  0  0  0  0  0  0  0  0  0
   -5.9049    8.1581    0.6793 C   0  0  0  0  0  0  0  0  0  0  0  0
   -7.0365    7.3760    0.8521 C   0  0  0  0  0  0  0  0  0  0  0  0
   -7.4624    6.9234    2.1202 C   0  0  0  0  0  0  0  0  0  0  0  0
   -8.5283    6.0704    2.2750 N   0  0  0  0  0  0  0  0  0  0  0  0
   -9.0356    5.3489    1.1150 C   0  0  0  0  0  0  0  0  0  0  0  0
  -10.4162    5.8999    0.7920 C   0  0  0  0  0  0  0  0  0  0  0  0
   -9.3184    6.0191    3.5159 C   0  0  0  0  0  0  0  0  0  0  0  0
  -10.7956    6.3095    3.2512 C   0  0  0  0  0  0  0  0  0  0  0  0
  -11.2998    5.5932    2.0045 N   0  3  0  0  0  0  0  0  0  0  0  0
  -12.7561    5.8550    1.9104 C   0  0  0  0  0  0  0  0  0  0  0  0
  -13.3359    5.3969    0.6019 C   0  0  0  0  0  0  0  0  0  0  0  0
  -13.2124    6.5373   -0.3825 C   0  0  0  0  0  0  0  0  0  0  0  0
  -14.4141    6.6769   -1.1206 N   0  0  0  0  0  0  0  0  0  0  0  0
  -14.7089    7.8930   -1.6793 C   0  0  0  0  0  0  0  0  0  0  0  0
  -14.0667    8.9140   -1.4511 O   0  0  0  0  0  0  0  0  0  0  0  0
  -15.8020    7.7709   -2.6924 C   0  0  0  0  0  0  0  0  0  0  0  0
  -15.1359    7.2704   -3.9918 C   0  0  0  0  0  0  0  0  0  0  0  0
  -15.8918    7.5705   -5.2826 C   0  0  0  0  0  0  0  0  0  0  0  0
  -16.5394    9.0941   -2.8076 C   0  0  0  0  0  0  0  0  0  0  0  0
  -17.4348    8.9885   -4.0234 C   0  0  0  0  0  0  0  0  0  0  0  0
  -16.5635    8.8674   -5.1912 N   0  0  0  0  0  0  0  0  0  0  0  0
  -16.0594    9.9658   -5.8849 C   0  0  0  0  0  0  0  0  0  0  0  0
  -15.3054    9.7518   -6.9360 N   0  0  0  0  0  0  0  0  0  0  0  0
  -14.8601   10.8789   -7.5615 N   0  3  0  0  0  0  0  0  0  0  0  0
  -14.0589   10.9592   -8.6777 C   0  0  0  0  0  0  0  0  0  0  0  0
  -13.5912    9.7761   -9.4271 C   0  0  0  0  0  0  0  0  0  0  0  0
  -13.8118   12.2253   -8.9530 N   0  0  0  0  0  0  0  0  0  0  0  0
  -14.4774   12.9996   -8.0302 N   0  0  0  0  0  0  0  0  0  0  0  0
  -15.1086   12.1881   -7.2138 C   0  0  0  0  0  0  0  0  0  0  0  0
  -15.9205   12.4123   -6.0931 C   0  0  0  0  0  0  0  0  0  0  0  0
  -16.3828   11.3608   -5.4158 C   0  0  0  0  0  0  0  0  0  0  0  0
   -6.9653    6.9988    4.2247 H   0  0  0  0  0  0  0  0  0  0  0  0
   -4.2989    9.1419    1.6929 H   0  0  0  0  0  0  0  0  0  0  0  0
   -5.5751    8.4757   -0.3060 H   0  0  0  0  0  0  0  0  0  0  0  0
   -7.5726    7.1321   -0.0601 H   0  0  0  0  0  0  0  0  0  0  0  0
   -9.1021    4.2832    1.3615 H   0  0  0  0  0  0  0  0  0  0  0  0
   -8.4007    5.3907    0.2282 H   0  0  0  0  0  0  0  0  0  0  0  0
  -10.7979    5.3627   -0.0772 H   0  0  0  0  0  0  0  0  0  0  0  0
  -10.4169    6.9840    0.6164 H   0  0  0  0  0  0  0  0  0  0  0  0
   -9.0142    6.7507    4.2718 H   0  0  0  0  0  0  0  0  0  0  0  0
   -9.2207    5.0236    3.9601 H   0  0  0  0  0  0  0  0  0  0  0  0
  -10.9705    7.3822    3.1022 H   0  0  0  0  0  0  0  0  0  0  0  0
  -11.4096    5.9507    4.0850 H   0  0  0  0  0  0  0  0  0  0  0  0
  -12.9149    6.9260    2.0841 H   0  0  0  0  0  0  0  0  0  0  0  0
  -13.2065    5.3029    2.7380 H   0  0  0  0  0  0  0  0  0  0  0  0
  -14.3894    5.1471    0.7751 H   0  0  0  0  0  0  0  0  0  0  0  0
  -12.8562    4.4911    0.2134 H   0  0  0  0  0  0  0  0  0  0  0  0
  -12.4003    6.3732   -1.0971 H   0  0  0  0  0  0  0  0  0  0  0  0
  -13.0048    7.4916    0.1162 H   0  0  0  0  0  0  0  0  0  0  0  0
  -14.9891    5.8720   -1.3439 H   0  0  0  0  0  0  0  0  0  0  0  0
  -16.5240    7.0175   -2.3488 H   0  0  0  0  0  0  0  0  0  0  0  0
  -14.9805    6.1849   -3.9204 H   0  0  0  0  0  0  0  0  0  0  0  0
  -14.1283    7.7010   -4.0758 H   0  0  0  0  0  0  0  0  0  0  0  0
  -16.6355    6.7910   -5.4792 H   0  0  0  0  0  0  0  0  0  0  0  0
  -15.1792    7.5205   -6.1137 H   0  0  0  0  0  0  0  0  0  0  0  0
  -15.8397    9.9346   -2.8986 H   0  0  0  0  0  0  0  0  0  0  0  0
  -17.1246    9.2787   -1.8982 H   0  0  0  0  0  0  0  0  0  0  0  0
  -18.1237    9.8329   -4.0891 H   0  0  0  0  0  0  0  0  0  0  0  0
  -18.0695    8.0969   -3.9355 H   0  0  0  0  0  0  0  0  0  0  0  0
  -12.9511   10.0730  -10.2643 H   0  0  0  0  0  0  0  0  0  0  0  0
  -14.4449    9.2258   -9.8339 H   0  0  0  0  0  0  0  0  0  0  0  0
  -13.0155    9.1055   -8.7825 H   0  0  0  0  0  0  0  0  0  0  0  0
  -16.1397   13.4268   -5.7863 H   0  0  0  0  0  0  0  0  0  0  0  0
  -16.9686   11.5040   -4.5211 H   0  0  0  0  0  0  0  0  0  0  0  0
  -11.1714    4.5882    2.1752 H   0  0  0  0  0  0  0  0  0  0  0  0
  1  2  2  0  0  0  0
  1  7  1  0  0  0  0
  1 36  1  0  0  0  0
  2  3  1  0  0  0  0
  2  4  1  0  0  0  0
  4  5  2  0  0  0  0
  4 37  1  0  0  0  0
  5  6  1  0  0  0  0
  5 38  1  0  0  0  0
  6  7  2  0  0  0  0
  6 39  1  0  0  0  0
  7  8  1  0  0  0  0
  8  9  1  0  0  0  0
  8 11  1  0  0  0  0
  9 10  1  0  0  0  0
  9 40  1  0  0  0  0
  9 41  1  0  0  0  0
 10 13  1  0  0  0  0
 10 42  1  0  0  0  0
 10 43  1  0  0  0  0
 11 12  1  0  0  0  0
 11 44  1  0  0  0  0
 11 45  1  0  0  0  0
 12 13  1  0  0  0  0
 12 46  1  0  0  0  0
 12 47  1  0  0  0  0
 13 14  1  0  0  0  0
 13 69  1  0  0  0  0
 14 15  1  0  0  0  0
 14 48  1  0  0  0  0
 14 49  1  0  0  0  0
 15 16  1  0  0  0  0
 15 50  1  0  0  0  0
 15 51  1  0  0  0  0
 16 17  1  0  0  0  0
 16 52  1  0  0  0  0
 16 53  1  0  0  0  0
 17 18  1  0  0  0  0
 17 54  1  0  0  0  0
 18 19  2  0  0  0  0
 18 20  1  0  0  0  0
 20 21  1  0  0  0  0
 20 23  1  0  0  0  0
 20 55  1  0  0  0  0
 21 22  1  0  0  0  0
 21 56  1  0  0  0  0
 21 57  1  0  0  0  0
 22 25  1  0  0  0  0
 22 58  1  0  0  0  0
 22 59  1  0  0  0  0
 23 24  1  0  0  0  0
 23 60  1  0  0  0  0
 23 61  1  0  0  0  0
 24 25  1  0  0  0  0
 24 62  1  0  0  0  0
 24 63  1  0  0  0  0
 25 26  1  0  0  0  0
 26 27  2  0  0  0  0
 26 35  1  0  0  0  0
 27 28  1  0  0  0  0
 28 29  2  0  0  0  0
 28 33  1  0  0  0  0
 29 30  1  0  0  0  0
 29 31  1  0  0  0  0
 30 64  1  0  0  0  0
 30 65  1  0  0  0  0
 30 66  1  0  0  0  0
 31 32  1  0  0  0  0
 32 33  2  0  0  0  0
 33 34  1  0  0  0  0
 34 35  2  0  0  0  0
 34 67  1  0  0  0  0
 35 68  1  0  0  0  0
M  CHG  2  13   1  28   1
M  END
$$$$
