5DL
 OpenBabel04161910043D

 21 21  0  0  1  0  0  0  0  0999 V2000
  -39.5292  -19.0646    8.0796 N   0  0  0  0  0  0  0  0  0  0  0  0
  -38.6702  -20.8661    7.0961 C   0  0  0  0  0  0  0  0  0  0  0  0
  -39.3249  -20.3976    8.2015 N   0  3  0  0  0  0  0  0  0  0  0  0
  -41.2929  -22.0685   11.0329 C   0  0  0  0  0  0  0  0  0  0  0  0
  -41.0846  -21.3712    9.6884 C   0  0  2  0  0  0  0  0  0  0  0  0
  -39.6003  -21.1299    9.4208 C   0  0  0  0  0  0  0  0  0  0  0  0
  -39.0679  -18.8319    6.8541 C   0  0  0  0  0  0  0  0  0  0  0  0
  -38.9700  -23.3013   11.3362 O   0  0  0  0  0  0  0  0  0  0  0  0
  -40.4260  -23.7077   11.1683 P   0  0  0  0  0  0  0  0  0  0  0  0
  -40.7659  -24.3540    9.8311 O   0  0  0  0  0  0  0  0  0  0  0  0
  -41.0859  -24.3192   12.3948 O   0  0  0  0  0  0  0  0  0  0  0  0
  -41.8171  -20.1220    9.7342 O   0  0  0  0  0  0  0  0  0  0  0  0
  -38.5094  -19.9034    6.2127 N   0  0  0  0  0  0  0  0  0  0  0  0
  -38.3400  -21.8970    7.0097 H   0  0  0  0  0  0  0  0  0  0  0  0
  -42.3619  -22.2385   11.2083 H   0  0  0  0  0  0  0  0  0  0  0  0
  -40.9371  -21.4350   11.8533 H   0  0  0  0  0  0  0  0  0  0  0  0
  -41.5238  -21.9617    8.8745 H   0  0  0  0  0  0  0  0  0  0  0  0
  -39.1442  -20.5563   10.2359 H   0  0  0  0  0  0  0  0  0  0  0  0
  -39.0753  -22.0801    9.3165 H   0  0  0  0  0  0  0  0  0  0  0  0
  -39.1273  -17.8448    6.4176 H   0  0  0  0  0  0  0  0  0  0  0  0
  -42.7410  -20.3631    9.8979 H   0  0  0  0  0  0  0  0  0  0  0  0
  1  3  1  0  0  0  0
  1  7  1  0  0  0  0
  2  3  2  0  0  0  0
  2 13  1  0  0  0  0
  2 14  1  0  0  0  0
  3  6  1  0  0  0  0
  4  5  1  0  0  0  0
  4  9  1  0  0  0  0
  4 15  1  0  0  0  0
  4 16  1  0  0  0  0
  5  6  1  0  0  0  0
  5 12  1  0  0  0  0
  5 17  1  6  0  0  0
  6 18  1  0  0  0  0
  6 19  1  0  0  0  0
  7 13  2  0  0  0  0
  7 20  1  0  0  0  0
  8  9  2  0  0  0  0
  9 10  1  0  0  0  0
  9 11  1  0  0  0  0
 12 21  1  0  0  0  0
M  CHG  1   3   1
M  END
$$$$
