5DX
 OpenBabel04161912113D

 35 36  0  0  1  0  0  0  0  0999 V2000
   19.5947  102.5081  376.9245 C   0  0  0  0  0  0  0  0  0  0  0  0
   19.4474  101.4473  377.6189 O   0  0  0  0  0  0  0  0  0  0  0  0
   18.9804  102.9611  375.9228 O   0  0  0  0  0  0  0  0  0  0  0  0
   21.2631  108.4299  375.5055 C   0  0  0  0  0  0  0  0  0  0  0  0
   22.1706  108.0253  374.7390 O   0  0  0  0  0  0  0  0  0  0  0  0
   20.6389  109.5311  375.5643 O   0  0  0  0  0  0  0  0  0  0  0  0
   15.1699  107.1564  382.2777 Br  0  0  0  0  0  0  0  0  0  0  0  0
   17.9452  108.0070  379.3112 C   0  0  0  0  0  0  0  0  0  0  0  0
   16.8066  108.0096  380.1227 C   0  0  0  0  0  0  0  0  0  0  0  0
   16.7170  107.1356  381.1948 C   0  0  0  0  0  0  0  0  0  0  0  0
   17.7582  106.2430  381.4617 C   0  0  0  0  0  0  0  0  0  0  0  0
   18.9078  106.2328  380.6492 C   0  0  0  0  0  0  0  0  0  0  0  0
   19.0129  107.1224  379.5564 C   0  0  0  0  0  0  0  0  0  0  0  0
   21.0857  102.8482  378.9263 N   0  3  0  0  0  0  0  0  0  0  0  0
   20.6670  103.4196  377.5823 C   0  0  2  0  0  0  0  0  0  0  0  0
   19.9991  104.7603  377.8268 C   0  0  0  0  0  0  0  0  0  0  0  0
   21.7943  106.4323  377.1641 C   0  0  0  0  0  0  0  0  0  0  0  0
   20.9235  105.8820  378.3028 C   0  0  1  0  0  0  0  0  0  0  0  0
   20.0849  107.0768  378.6180 N   0  0  0  0  0  0  0  0  0  0  0  0
   20.1299  108.0161  377.6633 N   0  0  0  0  0  0  0  0  0  0  0  0
   20.8184  107.3929  376.5117 C   0  0  1  0  0  0  0  0  0  0  0  0
   17.9510  108.6778  378.4512 H   0  0  0  0  0  0  0  0  0  0  0  0
   15.9940  108.6947  379.8872 H   0  0  0  0  0  0  0  0  0  0  0  0
   17.6704  105.5480  382.2973 H   0  0  0  0  0  0  0  0  0  0  0  0
   19.6858  105.5216  380.8943 H   0  0  0  0  0  0  0  0  0  0  0  0
   21.8493  103.3034  379.4267 H   0  0  0  0  0  0  0  0  0  0  0  0
   20.2307  102.7039  379.4806 H   0  0  0  0  0  0  0  0  0  0  0  0
   21.5630  103.4612  376.9599 H   0  0  0  0  0  0  0  0  0  0  0  0
   19.1817  104.6095  378.5342 H   0  0  0  0  0  0  0  0  0  0  0  0
   19.5053  105.0869  376.9085 H   0  0  0  0  0  0  0  0  0  0  0  0
   22.1488  105.6637  376.4664 H   0  0  0  0  0  0  0  0  0  0  0  0
   22.6793  106.9605  377.5409 H   0  0  0  0  0  0  0  0  0  0  0  0
   21.5355  105.6226  379.1855 H   0  0  0  0  0  0  0  0  0  0  0  0
   20.0612  106.8240  375.9581 H   0  0  0  0  0  0  0  0  0  0  0  0
   21.3236  101.8632  378.7133 H   0  0  0  0  0  0  0  0  0  0  0  0
  1  2  2  0  0  0  0
  1  3  1  0  0  0  0
  1 15  1  0  0  0  0
  4  5  2  0  0  0  0
  4  6  1  0  0  0  0
  4 21  1  0  0  0  0
  7 10  1  0  0  0  0
  8  9  2  0  0  0  0
  8 13  1  0  0  0  0
  8 22  1  0  0  0  0
  9 10  1  0  0  0  0
  9 23  1  0  0  0  0
 10 11  2  0  0  0  0
 11 12  1  0  0  0  0
 11 24  1  0  0  0  0
 12 13  2  0  0  0  0
 12 25  1  0  0  0  0
 13 19  1  0  0  0  0
 14 15  1  0  0  0  0
 14 26  1  0  0  0  0
 14 27  1  0  0  0  0
 14 35  1  0  0  0  0
 15 16  1  0  0  0  0
 15 28  1  6  0  0  0
 16 18  1  0  0  0  0
 16 29  1  0  0  0  0
 16 30  1  0  0  0  0
 17 18  1  0  0  0  0
 17 21  1  0  0  0  0
 17 31  1  0  0  0  0
 17 32  1  0  0  0  0
 18 19  1  0  0  0  0
 18 33  1  1  0  0  0
 19 20  2  0  0  0  0
 20 21  1  0  0  0  0
 21 34  1  6  0  0  0
M  CHG  1  14   1
M  END
$$$$
