5DZ
 OpenBabel04161912113D

 33 34  0  0  1  0  0  0  0  0999 V2000
  -19.5024   15.7607  -10.0795 C   0  0  0  0  0  0  0  0  0  0  0  0
  -19.3363   14.6599  -10.7721 O   0  0  0  0  0  0  0  0  0  0  0  0
  -18.9478   16.2125   -9.0932 O   0  0  0  0  0  0  0  0  0  0  0  0
  -20.8014   21.6014   -8.5236 C   0  0  0  0  0  0  0  0  0  0  0  0
  -21.5566   21.2145   -7.6097 O   0  0  0  0  0  0  0  0  0  0  0  0
  -19.8960   22.5032   -8.5384 O   0  0  0  0  0  0  0  0  0  0  0  0
  -15.9586   19.9623  -15.9582 F   0  0  0  0  0  0  0  0  0  0  0  0
  -17.6225   20.7553  -12.6991 C   0  0  0  0  0  0  0  0  0  0  0  0
  -16.5992   20.6659  -13.7565 C   0  0  0  0  0  0  0  0  0  0  0  0
  -16.9007   20.0234  -14.9835 C   0  0  0  0  0  0  0  0  0  0  0  0
  -18.1776   19.4454  -15.2027 C   0  0  0  0  0  0  0  0  0  0  0  0
  -19.2020   19.5066  -14.1616 C   0  0  0  0  0  0  0  0  0  0  0  0
  -18.9353   20.1762  -12.9024 C   0  0  0  0  0  0  0  0  0  0  0  0
  -21.3532   15.9827  -11.7990 N   0  3  0  0  0  0  0  0  0  0  0  0
  -20.5921   16.6445  -10.6875 C   0  0  2  0  0  0  0  0  0  0  0  0
  -19.8917   17.8502  -11.2827 C   0  0  0  0  0  0  0  0  0  0  0  0
  -21.2363   19.5159   -9.9791 C   0  0  0  0  0  0  0  0  0  0  0  0
  -20.7787   19.0457  -11.3341 C   0  0  1  0  0  0  0  0  0  0  0  0
  -19.9680   20.2180  -11.8333 N   0  0  0  0  0  0  0  0  0  0  0  0
  -20.1874   21.2859  -11.0285 N   0  0  0  0  0  0  0  0  0  0  0  0
  -20.8795   20.7956   -9.8877 C   0  0  0  0  0  0  0  0  0  0  0  0
  -17.3616   21.2392  -11.7386 H   0  0  0  0  0  0  0  0  0  0  0  0
  -15.5908   21.1173  -13.5794 H   0  0  0  0  0  0  0  0  0  0  0  0
  -18.4150   18.9420  -16.1738 H   0  0  0  0  0  0  0  0  0  0  0  0
  -20.1916   19.0606  -14.3572 H   0  0  0  0  0  0  0  0  0  0  0  0
  -22.0723   16.5446  -12.1887 H   0  0  0  0  0  0  0  0  0  0  0  0
  -20.6482   15.6668  -12.4873 H   0  0  0  0  0  0  0  0  0  0  0  0
  -21.3397   16.9353   -9.9465 H   0  0  0  0  0  0  0  0  0  0  0  0
  -19.5667   17.6337  -12.3112 H   0  0  0  0  0  0  0  0  0  0  0  0
  -19.0131   18.1141  -10.6843 H   0  0  0  0  0  0  0  0  0  0  0  0
  -21.5950   18.8969   -9.1346 H   0  0  0  0  0  0  0  0  0  0  0  0
  -21.6426   18.8876  -11.9870 H   0  0  0  0  0  0  0  0  0  0  0  0
  -21.7210   15.1039  -11.3976 H   0  0  0  0  0  0  0  0  0  0  0  0
  1  2  2  0  0  0  0
  1  3  1  0  0  0  0
  1 15  1  0  0  0  0
  4  5  2  0  0  0  0
  4  6  1  0  0  0  0
  4 21  1  0  0  0  0
  7 10  1  0  0  0  0
  8  9  2  0  0  0  0
  8 13  1  0  0  0  0
  8 22  1  0  0  0  0
  9 10  1  0  0  0  0
  9 23  1  0  0  0  0
 10 11  2  0  0  0  0
 11 12  1  0  0  0  0
 11 24  1  0  0  0  0
 12 13  2  0  0  0  0
 12 25  1  0  0  0  0
 13 19  1  0  0  0  0
 14 15  1  0  0  0  0
 14 26  1  0  0  0  0
 14 27  1  0  0  0  0
 14 33  1  0  0  0  0
 15 16  1  0  0  0  0
 15 28  1  1  0  0  0
 16 18  1  0  0  0  0
 16 29  1  0  0  0  0
 16 30  1  0  0  0  0
 17 18  1  0  0  0  0
 17 21  2  0  0  0  0
 17 31  1  0  0  0  0
 18 19  1  0  0  0  0
 18 32  1  6  0  0  0
 19 20  2  0  0  0  0
 20 21  1  0  0  0  0
M  CHG  1  14   1
M  END
$$$$
