5E0
 OpenBabel04161909523D

 36 37  0  0  1  0  0  0  0  0999 V2000
  -17.4574   20.6769  -13.1091 C   0  0  0  0  0  0  0  0  0  0  0  0
  -18.0167   19.2178  -15.4227 C   0  0  0  0  0  0  0  0  0  0  0  0
  -18.9738   19.3396  -14.3885 C   0  0  0  0  0  0  0  0  0  0  0  0
  -20.5412   21.7510   -8.9268 C   0  0  0  0  0  0  0  0  0  0  0  0
  -21.0024   15.9346  -12.1492 N   0  3  0  0  0  0  0  0  0  0  0  0
  -20.5032   16.6712  -10.9275 C   0  0  2  0  0  0  0  0  0  0  0  0
  -19.7076   17.8677  -11.4386 C   0  0  0  0  0  0  0  0  0  0  0  0
  -20.5765   19.0851  -11.6855 C   0  0  1  0  0  0  0  0  0  0  0  0
  -21.1427   19.6247  -10.3408 C   0  0  0  0  0  0  0  0  0  0  0  0
  -20.1550   20.7065  -10.0085 C   0  0  1  0  0  0  0  0  0  0  0  0
  -19.7768   21.2985  -11.3442 N   0  0  0  0  0  0  0  0  0  0  0  0
  -19.7427   20.1903  -12.2165 N   0  0  0  0  0  0  0  0  0  0  0  0
  -18.7247   20.0702  -13.1996 C   0  0  0  0  0  0  0  0  0  0  0  0
  -16.4832   20.5477  -14.1283 C   0  0  0  0  0  0  0  0  0  0  0  0
  -16.7506   19.8114  -15.2812 C   0  0  0  0  0  0  0  0  0  0  0  0
  -19.8064   22.7936   -8.8728 O   0  0  0  0  0  0  0  0  0  0  0  0
  -21.5268   21.4490   -8.2066 O   0  0  0  0  0  0  0  0  0  0  0  0
  -19.4949   15.8931  -10.0590 C   0  0  0  0  0  0  0  0  0  0  0  0
  -19.3990   14.7140  -10.5468 O   0  0  0  0  0  0  0  0  0  0  0  0
  -18.9728   16.4627   -9.0867 O   0  0  0  0  0  0  0  0  0  0  0  0
  -17.1816   21.2483  -12.2054 H   0  0  0  0  0  0  0  0  0  0  0  0
  -18.2562   18.6779  -16.3233 H   0  0  0  0  0  0  0  0  0  0  0  0
  -19.9423   18.8826  -14.5320 H   0  0  0  0  0  0  0  0  0  0  0  0
  -21.4900   15.1045  -11.7976 H   0  0  0  0  0  0  0  0  0  0  0  0
  -21.5619   16.5036  -12.7777 H   0  0  0  0  0  0  0  0  0  0  0  0
  -21.4119   16.9533  -10.3773 H   0  0  0  0  0  0  0  0  0  0  0  0
  -19.1780   17.5906  -12.3474 H   0  0  0  0  0  0  0  0  0  0  0  0
  -18.9402   18.1689  -10.7221 H   0  0  0  0  0  0  0  0  0  0  0  0
  -21.4063   18.8679  -12.3681 H   0  0  0  0  0  0  0  0  0  0  0  0
  -21.1457   18.8844   -9.5245 H   0  0  0  0  0  0  0  0  0  0  0  0
  -22.1723   19.9903  -10.4369 H   0  0  0  0  0  0  0  0  0  0  0  0
  -19.2681   20.2048   -9.6077 H   0  0  0  0  0  0  0  0  0  0  0  0
  -20.5772   21.8740  -11.6336 H   0  0  0  0  0  0  0  0  0  0  0  0
  -15.4971   21.0340  -14.0267 H   0  0  0  0  0  0  0  0  0  0  0  0
  -16.0080   19.6975  -16.0516 H   0  0  0  0  0  0  0  0  0  0  0  0
  -20.1491   15.5656  -12.5874 H   0  0  0  0  0  0  0  0  0  0  0  0
  1 13  2  0  0  0  0
  1 14  1  0  0  0  0
  1 21  1  0  0  0  0
  2  3  2  0  0  0  0
  2 15  1  0  0  0  0
  2 22  1  0  0  0  0
  3 13  1  0  0  0  0
  3 23  1  0  0  0  0
  4 10  1  0  0  0  0
  4 16  2  0  0  0  0
  4 17  1  0  0  0  0
  5  6  1  0  0  0  0
  5 24  1  0  0  0  0
  5 25  1  0  0  0  0
  5 36  1  0  0  0  0
  6  7  1  0  0  0  0
  6 18  1  0  0  0  0
  6 26  1  1  0  0  0
  7  8  1  0  0  0  0
  7 27  1  0  0  0  0
  7 28  1  0  0  0  0
  8  9  1  0  0  0  0
  8 12  1  0  0  0  0
  8 29  1  6  0  0  0
  9 10  1  0  0  0  0
  9 30  1  0  0  0  0
  9 31  1  0  0  0  0
 10 11  1  0  0  0  0
 10 32  1  1  0  0  0
 11 12  1  0  0  0  0
 11 33  1  0  0  0  0
 12 13  1  0  0  0  0
 14 15  2  0  0  0  0
 14 34  1  0  0  0  0
 15 35  1  0  0  0  0
 18 19  2  0  0  0  0
 18 20  1  0  0  0  0
M  CHG  1   5   1
M  END
$$$$
