5E4
 OpenBabel04161909543D

 26 27  0  0  0  0  0  0  0  0999 V2000
   47.6325   42.9986  -13.0938 O   0  0  0  0  0  0  0  0  0  0  0  0
   47.1596   41.9943  -13.7188 C   0  0  0  0  0  0  0  0  0  0  0  0
   47.6752   40.8375  -13.7432 O   0  0  0  0  0  0  0  0  0  0  0  0
   45.8805   42.1939  -14.5175 C   0  0  0  0  0  0  0  0  0  0  0  0
   45.1682   41.0728  -14.9780 C   0  0  0  0  0  0  0  0  0  0  0  0
   43.9899   41.2050  -15.7033 C   0  0  0  0  0  0  0  0  0  0  0  0
   43.5143   42.4757  -16.0127 C   0  0  0  0  0  0  0  0  0  0  0  0
   44.2261   43.5982  -15.5920 C   0  0  0  0  0  0  0  0  0  0  0  0
   45.4006   43.4951  -14.8227 C   0  0  0  0  0  0  0  0  0  0  0  0
   46.1575   44.6282  -14.4520 N   0  0  0  0  0  0  0  0  0  0  0  0
   46.1095   45.9633  -14.8615 C   0  0  0  0  0  0  0  0  0  0  0  0
   44.9122   46.6815  -14.8226 C   0  0  0  0  0  0  0  0  0  0  0  0
   44.8428   47.9777  -15.3331 C   0  0  0  0  0  0  0  0  0  0  0  0
   43.1848   48.8949  -15.3160 Br  0  0  0  0  0  0  0  0  0  0  0  0
   45.9715   48.5890  -15.8611 C   0  0  0  0  0  0  0  0  0  0  0  0
   47.1871   47.8928  -15.8783 C   0  0  0  0  0  0  0  0  0  0  0  0
   47.2480   46.5870  -15.3773 C   0  0  0  0  0  0  0  0  0  0  0  0
   45.5520   40.0777  -14.7510 H   0  0  0  0  0  0  0  0  0  0  0  0
   43.4609   40.3232  -16.0457 H   0  0  0  0  0  0  0  0  0  0  0  0
   42.5993   42.5917  -16.5902 H   0  0  0  0  0  0  0  0  0  0  0  0
   43.8368   44.5657  -15.8867 H   0  0  0  0  0  0  0  0  0  0  0  0
   46.9431   44.3618  -13.8289 H   0  0  0  0  0  0  0  0  0  0  0  0
   44.0311   46.2166  -14.3840 H   0  0  0  0  0  0  0  0  0  0  0  0
   45.9227   49.5940  -16.2605 H   0  0  0  0  0  0  0  0  0  0  0  0
   48.0731   48.3510  -16.2895 H   0  0  0  0  0  0  0  0  0  0  0  0
   48.1856   46.0395  -15.4202 H   0  0  0  0  0  0  0  0  0  0  0  0
  1  2  2  0  0  0  0
  2  3  1  0  0  0  0
  2  4  1  0  0  0  0
  4  5  2  0  0  0  0
  4  9  1  0  0  0  0
  5  6  1  0  0  0  0
  5 18  1  0  0  0  0
  6  7  2  0  0  0  0
  6 19  1  0  0  0  0
  7  8  1  0  0  0  0
  7 20  1  0  0  0  0
  8  9  2  0  0  0  0
  8 21  1  0  0  0  0
  9 10  1  0  0  0  0
 10 11  1  0  0  0  0
 10 22  1  0  0  0  0
 11 12  2  0  0  0  0
 11 17  1  0  0  0  0
 12 13  1  0  0  0  0
 12 23  1  0  0  0  0
 13 14  1  0  0  0  0
 13 15  2  0  0  0  0
 15 16  1  0  0  0  0
 15 24  1  0  0  0  0
 16 17  2  0  0  0  0
 16 25  1  0  0  0  0
 17 26  1  0  0  0  0
M  END
$$$$
