5E7
 OpenBabel04161909543D

 99101  0  0  1  0  0  0  0  0999 V2000
    6.1388  -20.5554   33.5568 C   0  0  0  0  0  0  0  0  0  0  0  0
    5.4865  -20.2303   32.2690 N   0  0  0  0  0  0  0  0  0  0  0  0
    6.2607  -20.8040   30.8577 S   0  0  0  0  0  0  0  0  0  0  0  0
    7.0880  -21.9322   31.2516 O   0  0  0  0  0  0  0  0  0  0  0  0
    7.3612  -19.4870   30.3316 C   0  0  0  0  0  0  0  0  0  0  0  0
    5.2794  -20.9627   29.8019 O   0  0  0  0  0  0  0  0  0  0  0  0
    4.2196  -19.5099   32.2234 C   0  0  0  0  0  0  0  0  0  0  0  0
    3.2941  -19.5779   33.2998 C   0  0  0  0  0  0  0  0  0  0  0  0
    2.0580  -18.8817   33.2394 C   0  0  0  0  0  0  0  0  0  0  0  0
    1.0687  -18.8958   34.4077 C   0  0  0  0  0  0  0  0  0  0  0  0
   -0.2809  -18.8105   34.0854 N   0  0  0  0  0  0  0  0  0  0  0  0
   -1.4236  -18.7514   35.0424 C   0  0  1  0  0  0  0  0  0  0  0  0
   -2.4913  -17.6748   34.5873 C   0  0  0  0  0  0  0  0  0  0  0  0
   -1.8964  -16.4581   33.8833 C   0  0  0  0  0  0  0  0  0  0  0  0
   -2.3676  -15.9652   32.6622 C   0  0  0  0  0  0  0  0  0  0  0  0
   -1.7636  -14.8516   32.0446 C   0  0  0  0  0  0  0  0  0  0  0  0
   -0.6747  -14.2135   32.6297 C   0  0  0  0  0  0  0  0  0  0  0  0
   -0.1926  -14.6912   33.8363 C   0  0  0  0  0  0  0  0  0  0  0  0
   -0.8063  -15.7887   34.4538 C   0  0  0  0  0  0  0  0  0  0  0  0
   -2.0147  -20.1930   35.2007 C   0  0  2  0  0  0  0  0  0  0  0  0
   -3.1528  -20.1852   36.0681 O   0  0  0  0  0  0  0  0  0  0  0  0
   -0.9198  -21.0784   35.8390 C   0  0  0  0  0  0  0  0  0  0  0  0
   -1.3601  -22.4687   36.1914 N   0  3  0  0  0  0  0  0  0  0  0  0
   -0.8666  -22.9898   37.5543 C   0  0  1  0  0  0  0  0  0  0  0  0
    0.6285  -23.4057   37.4342 C   0  0  1  0  0  0  0  0  0  0  0  0
    0.8224  -24.4488   38.3882 O   0  0  0  0  0  0  0  0  0  0  0  0
    1.0553  -23.9253   36.0664 C   0  0  0  0  0  0  0  0  0  0  0  0
   -0.9514  -21.9990   38.7707 C   0  0  0  0  0  0  0  0  0  0  0  0
   -2.1427  -21.7653   39.4262 N   0  0  0  0  0  0  0  0  0  0  0  0
   -2.1969  -20.8442   40.5949 C   0  0  0  0  0  0  0  0  0  0  0  0
   -3.5556  -20.7369   41.3233 C   0  0  0  0  0  0  0  0  0  0  0  0
   -4.3254  -19.4991   40.8645 C   0  0  0  0  0  0  0  0  0  0  0  0
   -4.4213  -21.9639   41.1156 C   0  0  0  0  0  0  0  0  0  0  0  0
    0.0488  -21.3775   39.0946 O   0  0  0  0  0  0  0  0  0  0  0  0
    1.4323  -19.0183   35.5411 O   0  0  0  0  0  0  0  0  0  0  0  0
    1.7913  -18.1116   32.1006 C   0  0  0  0  0  0  0  0  0  0  0  0
    2.6702  -18.0035   31.0140 C   0  0  0  0  0  0  0  0  0  0  0  0
    2.3424  -17.1325   29.7753 C   0  0  0  0  0  0  0  0  0  0  0  0
    1.0096  -17.0169   29.4088 N   0  0  0  0  0  0  0  0  0  0  0  0
    0.4678  -16.3055   28.2133 C   0  0  2  0  0  0  0  0  0  0  0  0
   -0.7157  -15.4332   28.6665 C   0  0  0  0  0  0  0  0  0  0  0  0
   -0.0181  -17.3064   27.1668 C   0  0  0  0  0  0  0  0  0  0  0  0
    0.4850  -17.2967   25.8622 C   0  0  0  0  0  0  0  0  0  0  0  0
    0.0552  -18.2332   24.9118 C   0  0  0  0  0  0  0  0  0  0  0  0
   -0.8885  -19.2000   25.2462 C   0  0  0  0  0  0  0  0  0  0  0  0
   -1.4017  -19.2229   26.5356 C   0  0  0  0  0  0  0  0  0  0  0  0
   -0.9731  -18.2799   27.4841 C   0  0  0  0  0  0  0  0  0  0  0  0
    3.2135  -16.5622   29.1756 O   0  0  0  0  0  0  0  0  0  0  0  0
    3.8905  -18.7066   31.1084 C   0  0  0  0  0  0  0  0  0  0  0  0
    5.5599  -20.1691   34.3994 H   0  0  0  0  0  0  0  0  0  0  0  0
    7.1359  -20.1066   33.6073 H   0  0  0  0  0  0  0  0  0  0  0  0
    6.2285  -21.6425   33.6875 H   0  0  0  0  0  0  0  0  0  0  0  0
    7.8623  -19.8205   29.4134 H   0  0  0  0  0  0  0  0  0  0  0  0
    8.0994  -19.2932   31.1079 H   0  0  0  0  0  0  0  0  0  0  0  0
    6.7748  -18.5959   30.1111 H   0  0  0  0  0  0  0  0  0  0  0  0
    3.5143  -20.1888   34.1754 H   0  0  0  0  0  0  0  0  0  0  0  0
   -0.5566  -18.7417   33.1298 H   0  0  0  0  0  0  0  0  0  0  0  0
   -1.0736  -18.4301   36.0355 H   0  0  0  0  0  0  0  0  0  0  0  0
   -3.0466  -17.3310   35.4818 H   0  0  0  0  0  0  0  0  0  0  0  0
   -3.2247  -18.1600   33.9263 H   0  0  0  0  0  0  0  0  0  0  0  0
   -3.2078  -16.4291   32.1585 H   0  0  0  0  0  0  0  0  0  0  0  0
   -2.1456  -14.4744   31.0966 H   0  0  0  0  0  0  0  0  0  0  0  0
   -0.2119  -13.3521   32.1506 H   0  0  0  0  0  0  0  0  0  0  0  0
    0.6583  -14.2112   34.3153 H   0  0  0  0  0  0  0  0  0  0  0  0
   -0.4010  -16.1433   35.3910 H   0  0  0  0  0  0  0  0  0  0  0  0
   -2.3314  -20.6020   34.2255 H   0  0  0  0  0  0  0  0  0  0  0  0
   -3.8038  -19.5624   35.6908 H   0  0  0  0  0  0  0  0  0  0  0  0
   -0.5924  -20.6195   36.7617 H   0  0  0  0  0  0  0  0  0  0  0  0
   -0.0888  -21.1928   35.1484 H   0  0  0  0  0  0  0  0  0  0  0  0
   -2.3797  -22.5418   36.1824 H   0  0  0  0  0  0  0  0  0  0  0  0
   -1.4788  -23.8751   37.7612 H   0  0  0  0  0  0  0  0  0  0  0  0
    1.2859  -22.5656   37.6827 H   0  0  0  0  0  0  0  0  0  0  0  0
    1.7580  -24.7159   38.3779 H   0  0  0  0  0  0  0  0  0  0  0  0
    2.1119  -24.2123   36.0705 H   0  0  0  0  0  0  0  0  0  0  0  0
    0.9285  -23.1511   35.3061 H   0  0  0  0  0  0  0  0  0  0  0  0
    0.4610  -24.8025   35.7884 H   0  0  0  0  0  0  0  0  0  0  0  0
   -2.9842  -22.2575   39.1783 H   0  0  0  0  0  0  0  0  0  0  0  0
   -1.9067  -19.8452   40.2413 H   0  0  0  0  0  0  0  0  0  0  0  0
   -1.4444  -21.1682   41.3290 H   0  0  0  0  0  0  0  0  0  0  0  0
   -3.3681  -20.6224   42.4031 H   0  0  0  0  0  0  0  0  0  0  0  0
   -5.2886  -19.4299   41.3858 H   0  0  0  0  0  0  0  0  0  0  0  0
   -4.5148  -19.5518   39.7870 H   0  0  0  0  0  0  0  0  0  0  0  0
   -3.7527  -18.5888   41.0769 H   0  0  0  0  0  0  0  0  0  0  0  0
   -3.8856  -22.8577   41.4433 H   0  0  0  0  0  0  0  0  0  0  0  0
   -4.6783  -22.0667   40.0558 H   0  0  0  0  0  0  0  0  0  0  0  0
   -5.3540  -21.8779   41.6788 H   0  0  0  0  0  0  0  0  0  0  0  0
    0.8641  -17.5566   32.0655 H   0  0  0  0  0  0  0  0  0  0  0  0
    0.3156  -17.5014   29.9302 H   0  0  0  0  0  0  0  0  0  0  0  0
    1.2286  -15.6433   27.7774 H   0  0  0  0  0  0  0  0  0  0  0  0
   -1.1536  -14.8828   27.8241 H   0  0  0  0  0  0  0  0  0  0  0  0
   -0.3915  -14.7081   29.4230 H   0  0  0  0  0  0  0  0  0  0  0  0
   -1.5054  -16.0544   29.1136 H   0  0  0  0  0  0  0  0  0  0  0  0
    1.2337  -16.5633   25.5763 H   0  0  0  0  0  0  0  0  0  0  0  0
    0.4615  -18.2074   23.9039 H   0  0  0  0  0  0  0  0  0  0  0  0
   -1.2181  -19.9282   24.5089 H   0  0  0  0  0  0  0  0  0  0  0  0
   -2.1402  -19.9695   26.8134 H   0  0  0  0  0  0  0  0  0  0  0  0
   -1.3787  -18.3325   28.4814 H   0  0  0  0  0  0  0  0  0  0  0  0
    4.5780  -18.6585   30.2696 H   0  0  0  0  0  0  0  0  0  0  0  0
   -1.0180  -23.1256   35.4736 H   0  0  0  0  0  0  0  0  0  0  0  0
  1  2  1  0  0  0  0
  1 50  1  0  0  0  0
  1 51  1  0  0  0  0
  1 52  1  0  0  0  0
  2  3  1  0  0  0  0
  2  7  1  0  0  0  0
  3  4  2  0  0  0  0
  3  5  1  0  0  0  0
  3  6  2  0  0  0  0
  5 53  1  0  0  0  0
  5 54  1  0  0  0  0
  5 55  1  0  0  0  0
  7  8  2  0  0  0  0
  7 49  1  0  0  0  0
  8  9  1  0  0  0  0
  8 56  1  0  0  0  0
  9 10  1  0  0  0  0
  9 36  2  0  0  0  0
 10 11  1  0  0  0  0
 10 35  2  0  0  0  0
 11 12  1  0  0  0  0
 11 57  1  0  0  0  0
 12 13  1  0  0  0  0
 12 20  1  0  0  0  0
 12 58  1  1  0  0  0
 13 14  1  0  0  0  0
 13 59  1  0  0  0  0
 13 60  1  0  0  0  0
 14 15  2  0  0  0  0
 14 19  1  0  0  0  0
 15 16  1  0  0  0  0
 15 61  1  0  0  0  0
 16 17  2  0  0  0  0
 16 62  1  0  0  0  0
 17 18  1  0  0  0  0
 17 63  1  0  0  0  0
 18 19  2  0  0  0  0
 18 64  1  0  0  0  0
 19 65  1  0  0  0  0
 20 21  1  0  0  0  0
 20 22  1  0  0  0  0
 20 66  1  6  0  0  0
 21 67  1  0  0  0  0
 22 23  1  0  0  0  0
 22 68  1  0  0  0  0
 22 69  1  0  0  0  0
 23 24  1  0  0  0  0
 23 70  1  0  0  0  0
 23 99  1  0  0  0  0
 24 25  1  0  0  0  0
 24 28  1  0  0  0  0
 24 71  1  1  0  0  0
 25 26  1  0  0  0  0
 25 27  1  0  0  0  0
 25 72  1  1  0  0  0
 26 73  1  0  0  0  0
 27 74  1  0  0  0  0
 27 75  1  0  0  0  0
 27 76  1  0  0  0  0
 28 29  1  0  0  0  0
 28 34  2  0  0  0  0
 29 30  1  0  0  0  0
 29 77  1  0  0  0  0
 30 31  1  0  0  0  0
 30 78  1  0  0  0  0
 30 79  1  0  0  0  0
 31 32  1  0  0  0  0
 31 33  1  0  0  0  0
 31 80  1  0  0  0  0
 32 81  1  0  0  0  0
 32 82  1  0  0  0  0
 32 83  1  0  0  0  0
 33 84  1  0  0  0  0
 33 85  1  0  0  0  0
 33 86  1  0  0  0  0
 36 37  1  0  0  0  0
 36 87  1  0  0  0  0
 37 38  1  0  0  0  0
 37 49  2  0  0  0  0
 38 39  1  0  0  0  0
 38 48  2  0  0  0  0
 39 40  1  0  0  0  0
 39 88  1  0  0  0  0
 40 41  1  0  0  0  0
 40 42  1  0  0  0  0
 40 89  1  6  0  0  0
 41 90  1  0  0  0  0
 41 91  1  0  0  0  0
 41 92  1  0  0  0  0
 42 43  2  0  0  0  0
 42 47  1  0  0  0  0
 43 44  1  0  0  0  0
 43 93  1  0  0  0  0
 44 45  2  0  0  0  0
 44 94  1  0  0  0  0
 45 46  1  0  0  0  0
 45 95  1  0  0  0  0
 46 47  2  0  0  0  0
 46 96  1  0  0  0  0
 47 97  1  0  0  0  0
 49 98  1  0  0  0  0
M  CHG  1  23   1
M  END
$$$$
