5H5
 OpenBabel04161909563D

 51 54  0  0  1  0  0  0  0  0999 V2000
  -21.0343   16.0593   31.7520 C   0  0  0  0  0  0  0  0  0  0  0  0
  -19.9103   15.9725   32.7970 C   0  0  2  0  0  0  0  0  0  0  0  0
  -20.2676   16.8769   33.9708 C   0  0  0  0  0  0  0  0  0  0  0  0
  -17.9948   15.5866   31.3933 C   0  0  0  0  0  0  0  0  0  0  0  0
  -14.3904   15.9095   28.3667 C   0  0  0  0  0  0  0  0  0  0  0  0
  -14.3990   12.4429   26.9221 C   0  0  0  0  0  0  0  0  0  0  0  0
  -15.4629   11.5867   27.0238 C   0  0  1  0  0  0  0  0  0  0  0  0
  -15.7932   13.3445   28.4282 C   0  0  2  0  0  0  0  0  0  0  0  0
  -16.5206   14.1795   29.4443 C   0  0  0  0  0  0  0  0  0  0  0  0
  -18.5200   14.4359   30.8256 C   0  0  0  0  0  0  0  0  0  0  0  0
  -15.2930    8.7823   24.8675 C   0  0  0  0  0  0  0  0  0  0  0  0
  -17.7749    9.2716   27.2495 C   0  0  0  0  0  0  0  0  0  0  0  0
  -20.8972   17.0186   30.7889 N   0  0  0  0  0  0  0  0  0  0  0  0
  -22.0119   15.3137   31.7542 O   0  0  0  0  0  0  0  0  0  0  0  0
  -18.6253   16.3821   32.3097 O   0  0  0  0  0  0  0  0  0  0  0  0
  -16.7270   16.0195   30.9888 C   0  0  0  0  0  0  0  0  0  0  0  0
  -15.9925   15.3375   30.0052 C   0  0  0  0  0  0  0  0  0  0  0  0
  -14.7640   15.8693   29.7446 O   0  0  0  0  0  0  0  0  0  0  0  0
  -13.6809   14.6230   27.9816 C   0  0  0  0  0  0  0  0  0  0  0  0
  -14.6152   13.5061   27.7965 N   0  3  2  0  0  0  0  0  0  0  0  0
  -16.2852   12.1893   27.9429 N   0  3  0  0  0  0  0  0  0  0  0  0
  -17.7929   13.7420   29.8594 C   0  0  0  0  0  0  0  0  0  0  0  0
  -15.6411   10.3201   26.2695 C   0  0  2  0  0  0  0  0  0  0  0  0
  -14.7854    9.9593   25.3328 N   0  0  0  0  0  0  0  0  0  0  0  0
  -16.4097    8.3795   25.4709 N   0  0  0  0  0  0  0  0  0  0  0  0
  -16.6222    9.3626   26.3667 N   0  3  1  0  0  0  0  0  0  0  0  0
  -17.7017    8.0576   28.1725 C   0  0  0  0  0  0  0  0  0  0  0  0
  -19.0858    9.3077   26.4675 C   0  0  0  0  0  0  0  0  0  0  0  0
  -19.8518   14.9416   33.1677 H   0  0  0  0  0  0  0  0  0  0  0  0
  -19.5004   16.8166   34.7504 H   0  0  0  0  0  0  0  0  0  0  0  0
  -21.2312   16.5960   34.4082 H   0  0  0  0  0  0  0  0  0  0  0  0
  -20.3269   17.9263   33.6607 H   0  0  0  0  0  0  0  0  0  0  0  0
  -13.6902   16.7444   28.2591 H   0  0  0  0  0  0  0  0  0  0  0  0
  -15.2498   16.1200   27.7173 H   0  0  0  0  0  0  0  0  0  0  0  0
  -13.4986   12.4190   26.3274 H   0  0  0  0  0  0  0  0  0  0  0  0
  -19.4970   14.0431   31.0956 H   0  0  0  0  0  0  0  0  0  0  0  0
  -14.8401    8.2041   24.0716 H   0  0  0  0  0  0  0  0  0  0  0  0
  -17.7674   10.1424   27.8979 H   0  0  0  0  0  0  0  0  0  0  0  0
  -21.6059   17.0850   30.0677 H   0  0  0  0  0  0  0  0  0  0  0  0
  -20.0548   17.5752   30.7142 H   0  0  0  0  0  0  0  0  0  0  0  0
  -16.3066   16.9166   31.4438 H   0  0  0  0  0  0  0  0  0  0  0  0
  -12.9605   14.3167   28.7479 H   0  0  0  0  0  0  0  0  0  0  0  0
  -13.1481   14.7687   27.0346 H   0  0  0  0  0  0  0  0  0  0  0  0
  -18.2743   12.8581   29.4562 H   0  0  0  0  0  0  0  0  0  0  0  0
  -18.5492    8.0516   28.8670 H   0  0  0  0  0  0  0  0  0  0  0  0
  -16.7822    8.0774   28.7680 H   0  0  0  0  0  0  0  0  0  0  0  0
  -17.7191    7.1197   27.6082 H   0  0  0  0  0  0  0  0  0  0  0  0
  -19.9437    9.3016   27.1481 H   0  0  0  0  0  0  0  0  0  0  0  0
  -19.1767    8.4452   25.7996 H   0  0  0  0  0  0  0  0  0  0  0  0
  -19.1483   10.2147   25.8558 H   0  0  0  0  0  0  0  0  0  0  0  0
  -17.1822   11.8388   28.2297 H   0  0  0  0  0  0  0  0  0  0  0  0
  1  2  1  0  0  0  0
  1 13  1  0  0  0  0
  1 14  2  0  0  0  0
  2  3  1  0  0  0  0
  2 15  1  0  0  0  0
  2 29  1  1  0  0  0
  3 30  1  0  0  0  0
  3 31  1  0  0  0  0
  3 32  1  0  0  0  0
  4 10  2  0  0  0  0
  4 15  1  0  0  0  0
  4 16  1  0  0  0  0
  5 18  1  0  0  0  0
  5 19  1  0  0  0  0
  5 33  1  0  0  0  0
  5 34  1  0  0  0  0
  6 35  1  0  0  0  0
  7  6  1  6  0  0  0
  7 21  1  0  0  0  0
  7 23  1  0  0  0  0
  8  9  1  6  0  0  0
  8 20  1  0  0  0  0
  8 21  1  0  0  0  0
  9 17  1  0  0  0  0
  9 22  2  0  0  0  0
 10 22  1  0  0  0  0
 10 36  1  0  0  0  0
 11 24  1  0  0  0  0
 11 25  1  0  0  0  0
 11 37  1  0  0  0  0
 12 27  1  0  0  0  0
 12 28  1  0  0  0  0
 12 38  1  0  0  0  0
 13 39  1  0  0  0  0
 13 40  1  0  0  0  0
 16 17  2  0  0  0  0
 16 41  1  0  0  0  0
 17 18  1  0  0  0  0
 19 20  1  0  0  0  0
 19 42  1  0  0  0  0
 19 43  1  0  0  0  0
 20  6  1  6  0  0  0
 21 51  1  0  0  0  0
 22 44  1  0  0  0  0
 23 24  1  6  0  0  0
 23 26  1  0  0  0  0
 25 26  1  0  0  0  0
 26 12  1  1  0  0  0
 27 45  1  0  0  0  0
 27 46  1  0  0  0  0
 27 47  1  0  0  0  0
 28 48  1  0  0  0  0
 28 49  1  0  0  0  0
 28 50  1  0  0  0  0
M  CHG  3  20   1  21   1  26   1
M  END
$$$$
