5H7
 OpenBabel04161909553D

 56 59  0  0  1  0  0  0  0  0999 V2000
  -40.9684   -1.8787    4.5397 C   0  0  2  0  0  0  0  0  0  0  0  0
  -40.8687   -3.0221    5.5544 C   0  0  0  0  0  0  0  0  0  0  0  0
  -40.7419   -4.3688    4.8554 C   0  0  1  0  0  0  0  0  0  0  0  0
  -39.0093   -2.8718    0.4638 C   0  0  0  0  0  0  0  0  0  0  0  0
  -40.9778   -2.5034   -1.0195 C   0  0  0  0  0  0  0  0  0  0  0  0
  -42.4543   -2.2011   -0.8857 C   0  0  0  0  0  0  0  0  0  0  0  0
  -43.2645   -2.2130   -2.0095 C   0  0  0  0  0  0  0  0  0  0  0  0
  -44.6383   -2.1012   -1.8319 C   0  0  0  0  0  0  0  0  0  0  0  0
  -45.1417   -1.9594   -0.5447 C   0  0  0  0  0  0  0  0  0  0  0  0
  -44.2688   -1.9148    0.5448 C   0  0  0  0  0  0  0  0  0  0  0  0
  -44.7394   -1.7737    1.9289 C   0  0  0  0  0  0  0  0  0  0  0  0
  -45.6520   -0.7888    2.2989 C   0  0  0  0  0  0  0  0  0  0  0  0
  -46.1519   -0.6733    3.5969 C   0  0  0  0  0  0  0  0  0  0  0  0
  -45.7293   -1.5685    4.5692 C   0  0  0  0  0  0  0  0  0  0  0  0
  -44.8009   -2.5486    4.2517 C   0  0  0  0  0  0  0  0  0  0  0  0
  -44.3161   -2.6295    2.9422 C   0  0  0  0  0  0  0  0  0  0  0  0
  -43.3954   -3.5715    2.6756 F   0  0  0  0  0  0  0  0  0  0  0  0
  -46.0630    0.0949    1.3801 F   0  0  0  0  0  0  0  0  0  0  0  0
  -46.4708   -1.8857   -0.3762 F   0  0  0  0  0  0  0  0  0  0  0  0
  -42.9194   -2.0345    0.3915 N   0  0  0  0  0  0  0  0  0  0  0  0
  -40.5121   -2.8528   -2.0758 O   0  0  0  0  0  0  0  0  0  0  0  0
  -40.3099   -2.4128    0.1809 N   0  0  0  0  0  0  0  0  0  0  0  0
  -38.0031   -2.8748   -0.4934 C   0  0  0  0  0  0  0  0  0  0  0  0
  -36.7241   -3.2462   -0.2544 N   0  0  0  0  0  0  0  0  0  0  0  0
  -36.4502   -3.6706    0.9926 C   0  0  0  0  0  0  0  0  0  0  0  0
  -37.3843   -3.7143    2.0118 C   0  0  0  0  0  0  0  0  0  0  0  0
  -38.6914   -3.2903    1.7678 C   0  0  0  0  0  0  0  0  0  0  0  0
  -39.7214   -3.2880    2.8736 C   0  0  1  0  0  0  0  0  0  0  0  0
  -39.5299   -4.3732    3.9407 C   0  0  0  0  0  0  0  0  0  0  0  0
  -40.5851   -5.4346    5.8712 N   0  3  0  0  0  0  0  0  0  0  0  0
  -39.7889   -1.9207    3.5652 C   0  0  0  0  0  0  0  0  0  0  0  0
  -41.0428   -0.5312    5.2414 C   0  0  0  0  0  0  0  0  0  0  0  0
  -41.8895   -2.0054    3.9656 H   0  0  0  0  0  0  0  0  0  0  0  0
  -41.7591   -3.0121    6.1894 H   0  0  0  0  0  0  0  0  0  0  0  0
  -39.9838   -2.8527    6.1845 H   0  0  0  0  0  0  0  0  0  0  0  0
  -41.6506   -4.6109    4.2988 H   0  0  0  0  0  0  0  0  0  0  0  0
  -42.8396   -2.3207   -3.0032 H   0  0  0  0  0  0  0  0  0  0  0  0
  -45.3111   -2.1299   -2.6823 H   0  0  0  0  0  0  0  0  0  0  0  0
  -46.8684    0.1097    3.8314 H   0  0  0  0  0  0  0  0  0  0  0  0
  -46.1281   -1.4962    5.5812 H   0  0  0  0  0  0  0  0  0  0  0  0
  -44.4555   -3.2461    5.0069 H   0  0  0  0  0  0  0  0  0  0  0  0
  -40.8387   -2.0096    0.9378 H   0  0  0  0  0  0  0  0  0  0  0  0
  -38.2103   -2.5215   -1.4987 H   0  0  0  0  0  0  0  0  0  0  0  0
  -35.4282   -3.9896    1.1814 H   0  0  0  0  0  0  0  0  0  0  0  0
  -37.0722   -4.0632    2.9869 H   0  0  0  0  0  0  0  0  0  0  0  0
  -40.6985   -3.4801    2.4153 H   0  0  0  0  0  0  0  0  0  0  0  0
  -39.4106   -5.3511    3.4636 H   0  0  0  0  0  0  0  0  0  0  0  0
  -38.6259   -4.1616    4.5335 H   0  0  0  0  0  0  0  0  0  0  0  0
  -40.5065   -6.3633    5.4285 H   0  0  0  0  0  0  0  0  0  0  0  0
  -39.7399   -5.2869    6.4408 H   0  0  0  0  0  0  0  0  0  0  0  0
  -38.8554   -1.7344    4.1152 H   0  0  0  0  0  0  0  0  0  0  0  0
  -39.9091   -1.1303    2.8169 H   0  0  0  0  0  0  0  0  0  0  0  0
  -41.8926   -0.5109    5.9327 H   0  0  0  0  0  0  0  0  0  0  0  0
  -41.1728    0.2719    4.5067 H   0  0  0  0  0  0  0  0  0  0  0  0
  -40.1244   -0.3418    5.8082 H   0  0  0  0  0  0  0  0  0  0  0  0
  -41.3940   -5.4647    6.5086 H   0  0  0  0  0  0  0  0  0  0  0  0
  1  2  1  0  0  0  0
  1 31  1  0  0  0  0
  1 32  1  0  0  0  0
  1 33  1  6  0  0  0
  2  3  1  0  0  0  0
  2 34  1  0  0  0  0
  2 35  1  0  0  0  0
  3 29  1  0  0  0  0
  3 30  1  0  0  0  0
  3 36  1  6  0  0  0
  4 22  1  0  0  0  0
  4 23  2  0  0  0  0
  4 27  1  0  0  0  0
  5  6  1  0  0  0  0
  5 21  2  0  0  0  0
  5 22  1  0  0  0  0
  6  7  2  0  0  0  0
  6 20  1  0  0  0  0
  7  8  1  0  0  0  0
  7 37  1  0  0  0  0
  8  9  2  0  0  0  0
  8 38  1  0  0  0  0
  9 10  1  0  0  0  0
  9 19  1  0  0  0  0
 10 11  1  0  0  0  0
 10 20  2  0  0  0  0
 11 12  2  0  0  0  0
 11 16  1  0  0  0  0
 12 13  1  0  0  0  0
 12 18  1  0  0  0  0
 13 14  2  0  0  0  0
 13 39  1  0  0  0  0
 14 15  1  0  0  0  0
 14 40  1  0  0  0  0
 15 16  2  0  0  0  0
 15 41  1  0  0  0  0
 16 17  1  0  0  0  0
 22 42  1  0  0  0  0
 23 24  1  0  0  0  0
 23 43  1  0  0  0  0
 24 25  2  0  0  0  0
 25 26  1  0  0  0  0
 25 44  1  0  0  0  0
 26 27  2  0  0  0  0
 26 45  1  0  0  0  0
 27 28  1  0  0  0  0
 28 29  1  0  0  0  0
 28 31  1  0  0  0  0
 28 46  1  6  0  0  0
 29 47  1  0  0  0  0
 29 48  1  0  0  0  0
 30 49  1  0  0  0  0
 30 50  1  0  0  0  0
 30 56  1  0  0  0  0
 31 51  1  0  0  0  0
 31 52  1  0  0  0  0
 32 53  1  0  0  0  0
 32 54  1  0  0  0  0
 32 55  1  0  0  0  0
M  CHG  1  30   1
M  END
$$$$
