5J9
 OpenBabel04161909563D

 51 55  0  0  1  0  0  0  0  0999 V2000
   -8.8887   -9.8815   21.1214 C   0  0  0  0  0  0  0  0  0  0  0  0
   -8.2663  -16.3878   19.0348 C   0  0  0  0  0  0  0  0  0  0  0  0
   -9.8411   -9.0961   21.7450 C   0  0  0  0  0  0  0  0  0  0  0  0
   -9.3993   -7.8898   22.3123 C   0  0  0  0  0  0  0  0  0  0  0  0
  -10.8816  -10.8128   21.0356 C   0  0  0  0  0  0  0  0  0  0  0  0
   -7.1991  -16.8714   19.7616 C   0  0  0  0  0  0  0  0  0  0  0  0
   -8.0846   -7.5713   22.2213 N   0  0  0  0  0  0  0  0  0  0  0  0
   -7.5684   -9.6173   21.0156 N   0  0  0  0  0  0  0  0  0  0  0  0
   -6.9560  -18.8984   17.2964 O   0  0  0  0  0  0  0  0  0  0  0  0
   -5.8562  -18.9479   17.8410 C   0  0  0  0  0  0  0  0  0  0  0  0
   -4.7404  -19.2944   17.1261 N   0  3  0  0  0  0  0  0  0  0  0  0
   -3.4716  -19.3945   17.6208 C   0  0  0  0  0  0  0  0  0  0  0  0
   -2.5370  -19.7456   16.8026 N   0  0  0  0  0  0  0  0  0  0  0  0
   -3.3037  -19.0951   19.0441 C   0  0  0  0  0  0  0  0  0  0  0  0
   -4.3832  -18.7513   19.7610 C   0  0  0  0  0  0  0  0  0  0  0  0
   -5.6462  -18.6699   19.1904 N   0  3  0  0  0  0  0  0  0  0  0  0
   -6.8068  -18.2947   19.9956 C   0  0  0  0  0  0  0  0  0  0  0  0
   -6.5225  -15.8097   20.3049 N   0  0  0  0  0  0  0  0  0  0  0  0
   -7.1291  -14.6930   19.9189 N   0  0  0  0  0  0  0  0  0  0  0  0
   -8.1538  -15.0323   19.1106 N   0  3  0  0  0  0  0  0  0  0  0  0
   -9.0470  -14.0153   18.5607 C   0  0  1  0  0  0  0  0  0  0  0  0
   -9.8613  -13.2999   19.6480 C   0  0  1  0  0  0  0  0  0  0  0  0
  -10.1812  -14.1085   20.7720 O   0  0  0  0  0  0  0  0  0  0  0  0
   -8.2795  -12.8525   17.9016 C   0  0  1  0  0  0  0  0  0  0  0  0
   -8.7601  -12.3794   16.5309 C   0  0  0  0  0  0  0  0  0  0  0  0
  -10.1386  -12.6637   16.3260 O   0  0  0  0  0  0  0  0  0  0  0  0
   -8.4361  -11.6874   18.7496 O   0  0  0  0  0  0  0  0  0  0  0  0
   -8.9649  -12.1117   20.0051 C   0  0  1  0  0  0  0  0  0  0  0  0
   -9.5782  -10.9741   20.6656 N   0  3  0  0  0  0  0  0  0  0  0  0
  -11.0856   -9.6877   21.6793 N   0  0  0  0  0  0  0  0  0  0  0  0
   -7.2633   -8.4341   21.5900 C   0  0  0  0  0  0  0  0  0  0  0  0
  -10.2490   -7.0154   22.9552 N   0  0  0  0  0  0  0  0  0  0  0  0
   -9.0417  -16.9045   18.4873 H   0  0  0  0  0  0  0  0  0  0  0  0
  -11.6647  -11.5432   20.8280 H   0  0  0  0  0  0  0  0  0  0  0  0
   -4.8605  -19.4981   16.1484 H   0  0  0  0  0  0  0  0  0  0  0  0
   -1.6333  -19.7862   17.2735 H   0  0  0  0  0  0  0  0  0  0  0  0
   -2.3138  -19.1686   19.4790 H   0  0  0  0  0  0  0  0  0  0  0  0
   -4.3044  -18.5267   20.8189 H   0  0  0  0  0  0  0  0  0  0  0  0
   -7.6562  -18.9367   19.7164 H   0  0  0  0  0  0  0  0  0  0  0  0
   -6.6163  -18.4781   21.0633 H   0  0  0  0  0  0  0  0  0  0  0  0
   -9.6979  -14.5490   17.8559 H   0  0  0  0  0  0  0  0  0  0  0  0
  -10.8058  -12.9531   19.2024 H   0  0  0  0  0  0  0  0  0  0  0  0
   -9.3393  -14.3610   21.2064 H   0  0  0  0  0  0  0  0  0  0  0  0
   -7.2067  -13.0646   17.8336 H   0  0  0  0  0  0  0  0  0  0  0  0
   -8.1872  -12.8596   15.7340 H   0  0  0  0  0  0  0  0  0  0  0  0
   -8.6172  -11.2939   16.4374 H   0  0  0  0  0  0  0  0  0  0  0  0
  -10.6531  -12.1486   16.9713 H   0  0  0  0  0  0  0  0  0  0  0  0
   -8.1383  -12.4319   20.6451 H   0  0  0  0  0  0  0  0  0  0  0  0
   -6.2166   -8.1440   21.5403 H   0  0  0  0  0  0  0  0  0  0  0  0
   -9.8597   -6.1812   23.3483 H   0  0  0  0  0  0  0  0  0  0  0  0
  -11.2287   -7.2572   23.0386 H   0  0  0  0  0  0  0  0  0  0  0  0
  1  3  2  0  0  0  0
  1  8  1  0  0  0  0
  1 29  1  0  0  0  0
  2  6  2  0  0  0  0
  2 20  1  0  0  0  0
  2 33  1  0  0  0  0
  3  4  1  0  0  0  0
  3 30  1  0  0  0  0
  4  7  2  0  0  0  0
  4 32  1  0  0  0  0
  5 29  2  0  0  0  0
  5 30  1  0  0  0  0
  5 34  1  0  0  0  0
  6 17  1  0  0  0  0
  6 18  1  0  0  0  0
  7 31  1  0  0  0  0
  8 31  2  0  0  0  0
  9 10  2  0  0  0  0
 10 11  1  0  0  0  0
 10 16  1  0  0  0  0
 11 12  1  0  0  0  0
 11 35  1  0  0  0  0
 12 13  2  0  0  0  0
 12 14  1  0  0  0  0
 13 36  1  0  0  0  0
 14 15  2  0  0  0  0
 14 37  1  0  0  0  0
 15 16  1  0  0  0  0
 15 38  1  0  0  0  0
 16 17  1  0  0  0  0
 17 39  1  0  0  0  0
 17 40  1  0  0  0  0
 18 19  1  0  0  0  0
 19 20  2  0  0  0  0
 20 21  1  0  0  0  0
 21 22  1  0  0  0  0
 21 24  1  0  0  0  0
 21 41  1  6  0  0  0
 22 23  1  0  0  0  0
 22 28  1  0  0  0  0
 22 42  1  6  0  0  0
 23 43  1  0  0  0  0
 24 25  1  0  0  0  0
 24 27  1  0  0  0  0
 24 44  1  6  0  0  0
 25 26  1  0  0  0  0
 25 45  1  0  0  0  0
 25 46  1  0  0  0  0
 26 47  1  0  0  0  0
 27 28  1  0  0  0  0
 28 29  1  0  0  0  0
 28 48  1  1  0  0  0
 31 49  1  0  0  0  0
 32 50  1  0  0  0  0
 32 51  1  0  0  0  0
M  CHG  4  11   1  16   1  20   1  29   1
M  END
$$$$
