5JA
 OpenBabel04161909573D

 77 82  0  0  1  0  0  0  0  0999 V2000
    5.5277   21.3102   18.1778 N   0  0  0  0  0  0  0  0  0  0  0  0
    5.6186   20.3509   15.6550 C   0  0  0  0  0  0  0  0  0  0  0  0
    6.5424   21.6390   17.3769 C   0  0  0  0  0  0  0  0  0  0  0  0
    6.6368   21.1782   16.0702 C   0  0  0  0  0  0  0  0  0  0  0  0
    8.3981   22.9178   15.4415 C   0  0  0  0  0  0  0  0  0  0  0  0
    8.4343   23.1869   16.9018 C   0  0  0  0  0  0  0  0  0  0  0  0
    1.1129   19.0694   23.0750 C   0  0  0  0  0  0  0  0  0  0  0  0
    7.7310   21.7385   21.1050 C   0  0  0  0  0  0  0  0  0  0  0  0
    7.2617   21.5492   22.4071 C   0  0  0  0  0  0  0  0  0  0  0  0
    6.5011   22.5402   23.0274 C   0  0  0  0  0  0  0  0  0  0  0  0
    6.6786   23.9129   21.0473 C   0  0  0  0  0  0  0  0  0  0  0  0
    8.8945   20.4695   15.3111 C   0  0  0  0  0  0  0  0  0  0  0  0
    3.9719   21.3311   20.5593 C   0  0  0  0  0  0  0  0  0  0  0  0
    7.4315   22.9163   20.4123 C   0  0  0  0  0  0  0  0  0  0  0  0
    4.5703   20.5054   17.6878 C   0  0  0  0  0  0  0  0  0  0  0  0
    3.4840   20.1378   18.4755 N   0  0  0  0  0  0  0  0  0  0  0  0
    4.5808   20.0069   16.4363 N   0  0  0  0  0  0  0  0  0  0  0  0
    7.7975   21.5255   15.1670 C   0  0  1  0  0  0  0  0  0  0  0  0
    7.9195   23.1186   19.0524 C   0  0  0  0  0  0  0  0  0  0  0  0
    7.5540   22.5864   17.8241 C   0  0  0  0  0  0  0  0  0  0  0  0
    9.2905   24.0315   17.4596 N   0  0  0  0  0  0  0  0  0  0  0  0
    8.9778   23.9698   18.7625 N   0  3  0  0  0  0  0  0  0  0  0  0
   -0.1198   18.8753   23.8508 N   0  0  0  0  0  0  0  0  0  0  0  0
    1.1888   20.5054   22.5984 C   0  0  0  0  0  0  0  0  0  0  0  0
    2.2084   20.6731   21.5986 N   0  3  0  0  0  0  0  0  0  0  0  0
    6.2097   23.7229   22.3489 C   0  0  0  0  0  0  0  0  0  0  0  0
    9.7627   24.7628   19.6855 C   0  0  0  0  0  0  0  0  0  0  0  0
    3.3214   21.4174   21.7592 C   0  0  0  0  0  0  0  0  0  0  0  0
    3.1888   20.4923   19.7430 C   0  0  0  0  0  0  0  0  0  0  0  0
    2.0965   20.0823   20.3962 N   0  0  0  0  0  0  0  0  0  0  0  0
   -0.0013   19.4470   25.2038 C   0  0  0  0  0  0  0  0  0  0  0  0
   -1.2633   19.1970   26.0366 C   0  0  0  0  0  0  0  0  0  0  0  0
   -1.5704   17.7112   26.0637 N   0  3  2  0  0  0  0  0  0  0  0  0
   -1.7265   17.1865   24.6505 C   0  0  0  0  0  0  0  0  0  0  0  0
   -0.4360   17.4426   23.8795 C   0  0  0  0  0  0  0  0  0  0  0  0
   -2.7845   17.3992   26.8938 C   0  0  0  0  0  0  0  0  0  0  0  0
   -2.3850   17.1375   28.3428 C   0  0  0  0  0  0  0  0  0  0  0  0
   -1.8633   15.8125   28.4564 O   0  0  0  0  0  0  0  0  0  0  0  0
   -2.8986   14.8735   28.7633 C   0  0  0  0  0  0  0  0  0  0  0  0
    5.6091   19.9332   14.6510 H   0  0  0  0  0  0  0  0  0  0  0  0
    9.4069   22.9810   15.0283 H   0  0  0  0  0  0  0  0  0  0  0  0
    7.7812   23.6881   14.9668 H   0  0  0  0  0  0  0  0  0  0  0  0
    1.1124   18.3984   22.2070 H   0  0  0  0  0  0  0  0  0  0  0  0
    1.9941   18.8077   23.6763 H   0  0  0  0  0  0  0  0  0  0  0  0
    8.3268   20.9614   20.6315 H   0  0  0  0  0  0  0  0  0  0  0  0
    7.4821   20.6238   22.9320 H   0  0  0  0  0  0  0  0  0  0  0  0
    6.1240   22.3844   24.0342 H   0  0  0  0  0  0  0  0  0  0  0  0
    6.4381   24.8359   20.5228 H   0  0  0  0  0  0  0  0  0  0  0  0
    8.5096   19.4625   15.1264 H   0  0  0  0  0  0  0  0  0  0  0  0
    9.3356   20.4823   16.3153 H   0  0  0  0  0  0  0  0  0  0  0  0
    9.6940   20.6709   14.5912 H   0  0  0  0  0  0  0  0  0  0  0  0
    4.8963   21.8224   20.3224 H   0  0  0  0  0  0  0  0  0  0  0  0
    2.8607   19.5414   17.9728 H   0  0  0  0  0  0  0  0  0  0  0  0
    7.4423   21.5205   14.1293 H   0  0  0  0  0  0  0  0  0  0  0  0
    1.4386   21.1607   23.4402 H   0  0  0  0  0  0  0  0  0  0  0  0
    0.2402   20.8396   22.1669 H   0  0  0  0  0  0  0  0  0  0  0  0
    5.6034   24.4897   22.8228 H   0  0  0  0  0  0  0  0  0  0  0  0
   10.5262   25.3013   19.1189 H   0  0  0  0  0  0  0  0  0  0  0  0
   10.2482   24.1001   20.4060 H   0  0  0  0  0  0  0  0  0  0  0  0
    9.1074   25.4837   20.1787 H   0  0  0  0  0  0  0  0  0  0  0  0
    3.5629   21.9455   22.6669 H   0  0  0  0  0  0  0  0  0  0  0  0
    0.1470   20.5316   25.1525 H   0  0  0  0  0  0  0  0  0  0  0  0
    0.8627   19.0146   25.7225 H   0  0  0  0  0  0  0  0  0  0  0  0
   -2.1307   19.7029   25.5946 H   0  0  0  0  0  0  0  0  0  0  0  0
   -1.1228   19.5313   27.0680 H   0  0  0  0  0  0  0  0  0  0  0  0
   -2.5788   17.7095   24.2004 H   0  0  0  0  0  0  0  0  0  0  0  0
   -1.9252   16.1136   24.7110 H   0  0  0  0  0  0  0  0  0  0  0  0
    0.3905   16.8859   24.3379 H   0  0  0  0  0  0  0  0  0  0  0  0
   -0.5757   17.0695   22.8585 H   0  0  0  0  0  0  0  0  0  0  0  0
   -3.2424   16.5079   26.4561 H   0  0  0  0  0  0  0  0  0  0  0  0
   -3.4670   18.2466   26.8080 H   0  0  0  0  0  0  0  0  0  0  0  0
   -3.2547   17.2722   28.9925 H   0  0  0  0  0  0  0  0  0  0  0  0
   -1.6047   17.8303   28.6750 H   0  0  0  0  0  0  0  0  0  0  0  0
   -2.4604   13.8773   28.8454 H   0  0  0  0  0  0  0  0  0  0  0  0
   -3.6524   14.8624   27.9693 H   0  0  0  0  0  0  0  0  0  0  0  0
   -3.3719   15.1340   29.7153 H   0  0  0  0  0  0  0  0  0  0  0  0
   -0.7613   17.2175   26.4742 H   0  0  0  0  0  0  0  0  0  0  0  0
  1  3  2  0  0  0  0
  1 15  1  0  0  0  0
  2  4  2  0  0  0  0
  2 17  1  0  0  0  0
  2 40  1  0  0  0  0
  3  4  1  0  0  0  0
  3 20  1  0  0  0  0
  4 18  1  0  0  0  0
  5  6  1  0  0  0  0
  5 18  1  0  0  0  0
  5 41  1  0  0  0  0
  5 42  1  0  0  0  0
  6 20  2  0  0  0  0
  6 21  1  0  0  0  0
  7 23  1  0  0  0  0
  7 24  1  0  0  0  0
  7 43  1  0  0  0  0
  7 44  1  0  0  0  0
  8  9  2  0  0  0  0
  8 14  1  0  0  0  0
  8 45  1  0  0  0  0
  9 10  1  0  0  0  0
  9 46  1  0  0  0  0
 10 26  2  0  0  0  0
 10 47  1  0  0  0  0
 11 14  2  0  0  0  0
 11 26  1  0  0  0  0
 11 48  1  0  0  0  0
 12 18  1  0  0  0  0
 12 49  1  0  0  0  0
 12 50  1  0  0  0  0
 12 51  1  0  0  0  0
 13 28  1  0  0  0  0
 13 29  2  0  0  0  0
 13 52  1  0  0  0  0
 14 19  1  0  0  0  0
 15 16  1  0  0  0  0
 15 17  2  0  0  0  0
 16 29  1  0  0  0  0
 16 53  1  0  0  0  0
 18 54  1  6  0  0  0
 19 20  1  0  0  0  0
 19 22  2  0  0  0  0
 21 22  1  0  0  0  0
 22 27  1  0  0  0  0
 23 31  1  0  0  0  0
 23 35  1  0  0  0  0
 24 25  1  0  0  0  0
 24 55  1  0  0  0  0
 24 56  1  0  0  0  0
 25 28  2  0  0  0  0
 25 30  1  0  0  0  0
 26 57  1  0  0  0  0
 27 58  1  0  0  0  0
 27 59  1  0  0  0  0
 27 60  1  0  0  0  0
 28 61  1  0  0  0  0
 29 30  1  0  0  0  0
 31 32  1  0  0  0  0
 31 62  1  0  0  0  0
 31 63  1  0  0  0  0
 32 33  1  0  0  0  0
 32 64  1  0  0  0  0
 32 65  1  0  0  0  0
 33 34  1  0  0  0  0
 33 36  1  0  0  0  0
 33 77  1  1  0  0  0
 34 35  1  0  0  0  0
 34 66  1  0  0  0  0
 34 67  1  0  0  0  0
 35 68  1  0  0  0  0
 35 69  1  0  0  0  0
 36 37  1  0  0  0  0
 36 70  1  0  0  0  0
 36 71  1  0  0  0  0
 37 38  1  0  0  0  0
 37 72  1  0  0  0  0
 37 73  1  0  0  0  0
 38 39  1  0  0  0  0
 39 74  1  0  0  0  0
 39 75  1  0  0  0  0
 39 76  1  0  0  0  0
M  CHG  3  22   1  25   1  33   1
M  END
$$$$
