5JM
 OpenBabel04161909573D

 59 62  0  0  1  0  0  0  0  0999 V2000
   42.1193  -21.1007   29.8026 N   0  0  0  0  0  0  0  0  0  0  0  0
   46.3031  -21.1036   30.4773 C   0  0  0  0  0  0  0  0  0  0  0  0
   45.7806  -20.5264   29.3021 C   0  0  0  0  0  0  0  0  0  0  0  0
   44.4050  -20.5050   29.0564 C   0  0  0  0  0  0  0  0  0  0  0  0
   43.5171  -21.0684   29.9685 C   0  0  0  0  0  0  0  0  0  0  0  0
   45.4018  -21.6696   31.3861 C   0  0  0  0  0  0  0  0  0  0  0  0
   44.0292  -21.6485   31.1462 C   0  0  0  0  0  0  0  0  0  0  0  0
   37.8790  -17.7696   29.4665 C   0  0  0  0  0  0  0  0  0  0  0  0
   38.0988  -16.9350   28.2234 C   0  0  0  0  0  0  0  0  0  0  0  0
   37.2174  -15.7149   28.0322 C   0  0  0  0  0  0  0  0  0  0  0  0
   37.5335  -14.7375   27.0557 C   0  0  0  0  0  0  0  0  0  0  0  0
   41.9281  -25.0003   28.0263 C   0  0  0  0  0  0  0  0  0  0  0  0
   41.1854  -23.9169   27.5657 C   0  0  0  0  0  0  0  0  0  0  0  0
   35.2518  -14.3871   28.6181 C   0  0  0  0  0  0  0  0  0  0  0  0
   38.9604  -18.8112   29.6567 C   0  0  0  0  0  0  0  0  0  0  0  0
   39.0252  -19.7754   28.6769 N   0  0  0  0  0  0  0  0  0  0  0  0
   39.6399  -18.8538   30.6784 O   0  0  0  0  0  0  0  0  0  0  0  0
   39.8693  -20.9434   28.8995 C   0  0  2  0  0  0  0  0  0  0  0  0
   41.3768  -20.6219   28.7353 C   0  0  0  0  0  0  0  0  0  0  0  0
   39.4823  -22.0934   27.9527 C   0  0  0  0  0  0  0  0  0  0  0  0
   40.1636  -23.3815   28.3582 C   0  0  0  0  0  0  0  0  0  0  0  0
   39.8623  -23.9791   29.5895 C   0  0  0  0  0  0  0  0  0  0  0  0
   40.6170  -25.0585   30.0497 C   0  0  0  0  0  0  0  0  0  0  0  0
   41.6581  -25.5591   29.2731 C   0  0  0  0  0  0  0  0  0  0  0  0
   41.7822  -20.0517   27.7267 O   0  0  0  0  0  0  0  0  0  0  0  0
   36.7433  -13.5840   26.9040 C   0  0  0  0  0  0  0  0  0  0  0  0
   35.6273  -13.3935   27.7208 C   0  0  0  0  0  0  0  0  0  0  0  0
   36.0226  -15.5451   28.7612 C   0  0  0  0  0  0  0  0  0  0  0  0
   33.8341  -14.1795   29.5732 Cl  0  0  0  0  0  0  0  0  0  0  0  0
   38.6311  -14.9099   26.1812 N   0  3  0  0  0  0  0  0  0  0  0  0
   38.6338  -14.8292   24.8155 C   0  0  0  0  0  0  0  0  0  0  0  0
   39.8222  -15.1694   24.3670 N   0  0  0  0  0  0  0  0  0  0  0  0
   40.5722  -15.4462   25.4808 N   0  0  0  0  0  0  0  0  0  0  0  0
   39.8566  -15.2881   26.5812 N   0  0  0  0  0  0  0  0  0  0  0  0
   47.7925  -21.1228   30.7387 C   0  0  0  0  0  0  0  0  0  0  0  0
   48.5378  -20.4640   29.9444 O   0  0  0  0  0  0  0  0  0  0  0  0
   48.1950  -21.7926   31.7462 O   0  0  0  0  0  0  0  0  0  0  0  0
   41.6207  -21.5202   30.5645 H   0  0  0  0  0  0  0  0  0  0  0  0
   46.4635  -20.0786   28.5851 H   0  0  0  0  0  0  0  0  0  0  0  0
   44.0648  -20.0496   28.1441 H   0  0  0  0  0  0  0  0  0  0  0  0
   45.7903  -22.1208   32.3005 H   0  0  0  0  0  0  0  0  0  0  0  0
   43.3700  -22.0924   31.8839 H   0  0  0  0  0  0  0  0  0  0  0  0
   36.9150  -18.2894   29.4526 H   0  0  0  0  0  0  0  0  0  0  0  0
   37.8968  -17.1258   30.3569 H   0  0  0  0  0  0  0  0  0  0  0  0
   38.0189  -17.5571   27.3246 H   0  0  0  0  0  0  0  0  0  0  0  0
   39.1336  -16.5929   28.3104 H   0  0  0  0  0  0  0  0  0  0  0  0
   42.7508  -25.3877   27.4249 H   0  0  0  0  0  0  0  0  0  0  0  0
   41.4476  -23.4627   26.6128 H   0  0  0  0  0  0  0  0  0  0  0  0
   38.7475  -19.5597   27.7286 H   0  0  0  0  0  0  0  0  0  0  0  0
   39.6784  -21.2441   29.9383 H   0  0  0  0  0  0  0  0  0  0  0  0
   39.7353  -21.8376   26.9160 H   0  0  0  0  0  0  0  0  0  0  0  0
   38.3979  -22.2504   27.9685 H   0  0  0  0  0  0  0  0  0  0  0  0
   39.0708  -23.5824   30.2206 H   0  0  0  0  0  0  0  0  0  0  0  0
   40.4164  -25.4830   31.0295 H   0  0  0  0  0  0  0  0  0  0  0  0
   42.2711  -26.3765   29.6456 H   0  0  0  0  0  0  0  0  0  0  0  0
   37.0291  -12.7905   26.2153 H   0  0  0  0  0  0  0  0  0  0  0  0
   35.0554  -12.4714   27.6529 H   0  0  0  0  0  0  0  0  0  0  0  0
   35.6824  -16.3049   29.4620 H   0  0  0  0  0  0  0  0  0  0  0  0
   37.7621  -14.6094   24.2178 H   0  0  0  0  0  0  0  0  0  0  0  0
  1  5  1  0  0  0  0
  1 19  1  0  0  0  0
  1 38  1  0  0  0  0
  2  3  2  0  0  0  0
  2  6  1  0  0  0  0
  2 35  1  0  0  0  0
  3  4  1  0  0  0  0
  3 39  1  0  0  0  0
  4  5  2  0  0  0  0
  4 40  1  0  0  0  0
  5  7  1  0  0  0  0
  6  7  2  0  0  0  0
  6 41  1  0  0  0  0
  7 42  1  0  0  0  0
  8  9  1  0  0  0  0
  8 15  1  0  0  0  0
  8 43  1  0  0  0  0
  8 44  1  0  0  0  0
  9 10  1  0  0  0  0
  9 45  1  0  0  0  0
  9 46  1  0  0  0  0
 10 11  2  0  0  0  0
 10 28  1  0  0  0  0
 11 26  1  0  0  0  0
 11 30  1  0  0  0  0
 12 13  2  0  0  0  0
 12 24  1  0  0  0  0
 12 47  1  0  0  0  0
 13 21  1  0  0  0  0
 13 48  1  0  0  0  0
 14 27  1  0  0  0  0
 14 28  2  0  0  0  0
 14 29  1  0  0  0  0
 15 16  1  0  0  0  0
 15 17  2  0  0  0  0
 16 18  1  0  0  0  0
 16 49  1  0  0  0  0
 18 19  1  0  0  0  0
 18 20  1  0  0  0  0
 18 50  1  1  0  0  0
 19 25  2  0  0  0  0
 20 21  1  0  0  0  0
 20 51  1  0  0  0  0
 20 52  1  0  0  0  0
 21 22  2  0  0  0  0
 22 23  1  0  0  0  0
 22 53  1  0  0  0  0
 23 24  2  0  0  0  0
 23 54  1  0  0  0  0
 24 55  1  0  0  0  0
 26 27  2  0  0  0  0
 26 56  1  0  0  0  0
 27 57  1  0  0  0  0
 28 58  1  0  0  0  0
 30 31  2  0  0  0  0
 30 34  1  0  0  0  0
 31 32  1  0  0  0  0
 31 59  1  0  0  0  0
 32 33  1  0  0  0  0
 33 34  2  0  0  0  0
 35 36  2  0  0  0  0
 35 37  1  0  0  0  0
M  CHG  1  30   1
M  END
$$$$
