5KH
 OpenBabel04161909583D

 52 55  0  0  0  0  0  0  0  0999 V2000
  -32.2627  -10.6594   -5.1862 C   0  0  0  0  0  0  0  0  0  0  0  0
  -31.1457  -10.1448   -4.5155 C   0  0  0  0  0  0  0  0  0  0  0  0
  -34.8828  -10.2939   -2.4844 C   0  0  0  0  0  0  0  0  0  0  0  0
  -31.2471   -9.6972   -3.1916 C   0  0  0  0  0  0  0  0  0  0  0  0
  -32.4903   -9.7362   -2.5796 C   0  0  0  0  0  0  0  0  0  0  0  0
  -33.6052  -10.2581   -3.2388 C   0  0  0  0  0  0  0  0  0  0  0  0
  -33.4979  -10.7092   -4.5502 C   0  0  0  0  0  0  0  0  0  0  0  0
  -24.7526  -11.0729    0.3295 C   0  0  0  0  0  0  0  0  0  0  0  0
  -25.1981   -9.7103    0.6987 C   0  0  0  0  0  0  0  0  0  0  0  0
  -24.4688   -8.9280    1.3037 O   0  0  0  0  0  0  0  0  0  0  0  0
  -26.4847   -9.2960    0.3455 N   0  3  0  0  0  0  0  0  0  0  0  0
  -27.4175  -10.0717   -0.3320 C   0  0  0  0  0  0  0  0  0  0  0  0
  -28.5695   -9.3602   -0.5301 C   0  0  0  0  0  0  0  0  0  0  0  0
  -29.6872   -9.8144   -1.2567 N   0  0  0  0  0  0  0  0  0  0  0  0
  -30.0578   -9.1982   -2.4338 C   0  0  0  0  0  0  0  0  0  0  0  0
  -29.4354   -8.2486   -2.9349 O   0  0  0  0  0  0  0  0  0  0  0  0
  -35.7361  -11.2490   -2.9353 F   0  0  0  0  0  0  0  0  0  0  0  0
  -35.5393   -9.1058   -2.5346 F   0  0  0  0  0  0  0  0  0  0  0  0
  -34.6661  -10.5626   -1.1669 F   0  0  0  0  0  0  0  0  0  0  0  0
  -30.3780  -10.9339   -0.7324 C   0  0  0  0  0  0  0  0  0  0  0  0
  -30.3339  -12.1686   -1.3960 C   0  0  0  0  0  0  0  0  0  0  0  0
  -29.4286  -12.4060   -2.5646 C   0  0  0  0  0  0  0  0  0  0  0  0
  -31.1371  -13.2067   -0.9170 C   0  0  0  0  0  0  0  0  0  0  0  0
  -31.9931  -13.0097    0.1731 C   0  0  0  0  0  0  0  0  0  0  0  0
  -32.0626  -11.7732    0.7948 C   0  0  0  0  0  0  0  0  0  0  0  0
  -31.2630  -10.7323    0.3487 C   0  0  0  0  0  0  0  0  0  0  0  0
  -32.8969  -11.5681    1.8525 O   0  0  0  0  0  0  0  0  0  0  0  0
  -28.3693   -8.0746    0.0511 C   0  0  0  0  0  0  0  0  0  0  0  0
  -27.0835   -8.0563    0.6026 C   0  0  0  0  0  0  0  0  0  0  0  0
  -26.6011   -6.9061    1.2712 C   0  0  0  0  0  0  0  0  0  0  0  0
  -27.4290   -5.7852    1.3939 C   0  0  0  0  0  0  0  0  0  0  0  0
  -28.7095   -5.7914    0.8565 C   0  0  0  0  0  0  0  0  0  0  0  0
  -29.1859   -6.9263    0.1914 C   0  0  0  0  0  0  0  0  0  0  0  0
  -32.1688  -11.0102   -6.2103 H   0  0  0  0  0  0  0  0  0  0  0  0
  -30.1822  -10.1319   -5.0176 H   0  0  0  0  0  0  0  0  0  0  0  0
  -32.6030   -9.3902   -1.5570 H   0  0  0  0  0  0  0  0  0  0  0  0
  -34.3684  -11.0993   -5.0707 H   0  0  0  0  0  0  0  0  0  0  0  0
  -25.4953  -11.6415   -0.1885 H   0  0  0  0  0  0  0  0  0  0  0  0
  -24.4685  -11.6199    1.2410 H   0  0  0  0  0  0  0  0  0  0  0  0
  -23.8611  -10.9971   -0.3125 H   0  0  0  0  0  0  0  0  0  0  0  0
  -27.1733  -11.0730   -0.6663 H   0  0  0  0  0  0  0  0  0  0  0  0
  -29.5251  -13.4300   -2.9312 H   0  0  0  0  0  0  0  0  0  0  0  0
  -28.3885  -12.2306   -2.2835 H   0  0  0  0  0  0  0  0  0  0  0  0
  -29.6721  -11.7438   -3.3893 H   0  0  0  0  0  0  0  0  0  0  0  0
  -31.0916  -14.1838   -1.3923 H   0  0  0  0  0  0  0  0  0  0  0  0
  -32.5983  -13.8378    0.5269 H   0  0  0  0  0  0  0  0  0  0  0  0
  -31.3319   -9.7500    0.8106 H   0  0  0  0  0  0  0  0  0  0  0  0
  -33.3804  -12.3868    2.0570 H   0  0  0  0  0  0  0  0  0  0  0  0
  -25.6007   -6.8861    1.6890 H   0  0  0  0  0  0  0  0  0  0  0  0
  -27.0610   -4.9047    1.9150 H   0  0  0  0  0  0  0  0  0  0  0  0
  -29.3432   -4.9130    0.9495 H   0  0  0  0  0  0  0  0  0  0  0  0
  -30.1895   -6.9244   -0.2252 H   0  0  0  0  0  0  0  0  0  0  0  0
  1  2  2  0  0  0  0
  1  7  1  0  0  0  0
  1 34  1  0  0  0  0
  2  4  1  0  0  0  0
  2 35  1  0  0  0  0
  3  6  1  0  0  0  0
  3 17  1  0  0  0  0
  3 18  1  0  0  0  0
  3 19  1  0  0  0  0
  4  5  2  0  0  0  0
  4 15  1  0  0  0  0
  5  6  1  0  0  0  0
  5 36  1  0  0  0  0
  6  7  2  0  0  0  0
  7 37  1  0  0  0  0
  8  9  1  0  0  0  0
  8 38  1  0  0  0  0
  8 39  1  0  0  0  0
  8 40  1  0  0  0  0
  9 10  2  0  0  0  0
  9 11  1  0  0  0  0
 11 12  1  0  0  0  0
 11 29  1  0  0  0  0
 12 13  2  0  0  0  0
 12 41  1  0  0  0  0
 13 14  1  0  0  0  0
 13 28  1  0  0  0  0
 14 15  1  0  0  0  0
 14 20  1  0  0  0  0
 15 16  2  0  0  0  0
 20 21  2  0  0  0  0
 20 26  1  0  0  0  0
 21 22  1  0  0  0  0
 21 23  1  0  0  0  0
 22 42  1  0  0  0  0
 22 43  1  0  0  0  0
 22 44  1  0  0  0  0
 23 24  2  0  0  0  0
 23 45  1  0  0  0  0
 24 25  1  0  0  0  0
 24 46  1  0  0  0  0
 25 26  2  0  0  0  0
 25 27  1  0  0  0  0
 26 47  1  0  0  0  0
 27 48  1  0  0  0  0
 28 29  2  0  0  0  0
 28 33  1  0  0  0  0
 29 30  1  0  0  0  0
 30 31  2  0  0  0  0
 30 49  1  0  0  0  0
 31 32  1  0  0  0  0
 31 50  1  0  0  0  0
 32 33  2  0  0  0  0
 32 51  1  0  0  0  0
 33 52  1  0  0  0  0
M  CHG  1  11   1
M  END
$$$$
