5KR
 OpenBabel04161909583D

 46 48  0  0  0  0  0  0  0  0999 V2000
  -12.5781  -11.9606   23.5712 C   0  0  0  0  0  0  0  0  0  0  0  0
  -10.7839  -14.0550   24.2533 C   0  0  0  0  0  0  0  0  0  0  0  0
  -11.7928  -14.2443   23.2890 C   0  0  0  0  0  0  0  0  0  0  0  0
   -6.4192  -11.2992   21.9319 C   0  0  0  0  0  0  0  0  0  0  0  0
  -17.5775   -9.8564   20.5417 C   0  0  0  0  0  0  0  0  0  0  0  0
   -6.4241  -13.1083   23.5437 C   0  0  0  0  0  0  0  0  0  0  0  0
   -7.3629  -10.6443   22.6742 C   0  0  0  0  0  0  0  0  0  0  0  0
   -9.8779  -15.1986   24.5761 C   0  0  0  0  0  0  0  0  0  0  0  0
   -9.4116  -12.4831   26.1819 S   0  0  0  0  0  0  0  0  0  0  0  0
  -10.6618  -12.7991   24.8820 C   0  0  0  0  0  0  0  0  0  0  0  0
  -16.5165  -10.7051   20.9409 C   0  0  0  0  0  0  0  0  0  0  0  0
  -13.5459  -10.8470   23.2391 C   0  0  0  0  0  0  0  0  0  0  0  0
  -14.6753  -11.1822   22.4976 N   0  0  0  0  0  0  0  0  0  0  0  0
   -7.9222  -12.9910   25.5081 N   0  0  0  0  0  0  0  0  0  0  0  0
  -15.7147  -10.3232   22.0502 C   0  0  0  0  0  0  0  0  0  0  0  0
  -11.5502  -11.7623   24.5235 C   0  0  0  0  0  0  0  0  0  0  0  0
  -16.2489  -11.9785   20.1525 C   0  0  0  0  0  0  0  0  0  0  0  0
   -9.7058  -13.3777   27.2858 O   0  0  0  0  0  0  0  0  0  0  0  0
   -9.3455  -11.0677   26.4231 O   0  0  0  0  0  0  0  0  0  0  0  0
  -13.2622   -9.7247   23.6345 O   0  0  0  0  0  0  0  0  0  0  0  0
  -15.2647  -12.7000   20.5344 O   0  0  0  0  0  0  0  0  0  0  0  0
  -12.6745  -13.2098   22.9531 C   0  0  0  0  0  0  0  0  0  0  0  0
   -7.3952  -12.4368   24.2926 C   0  0  0  0  0  0  0  0  0  0  0  0
  -17.0324  -12.2585   19.1920 O   0  0  0  0  0  0  0  0  0  0  0  0
   -5.7886  -10.4975   20.3401 Br  0  0  0  0  0  0  0  0  0  0  0  0
   -7.8472  -11.2042   23.8600 C   0  0  0  0  0  0  0  0  0  0  0  0
   -5.9372  -12.5380   22.3516 C   0  0  0  0  0  0  0  0  0  0  0  0
  -16.0084   -9.1356   22.7208 C   0  0  0  0  0  0  0  0  0  0  0  0
  -17.8541   -8.6733   21.2313 C   0  0  0  0  0  0  0  0  0  0  0  0
  -17.0696   -8.3188   22.3225 C   0  0  0  0  0  0  0  0  0  0  0  0
  -11.9223  -15.2013   22.7819 H   0  0  0  0  0  0  0  0  0  0  0  0
  -18.1906  -10.1276   19.6825 H   0  0  0  0  0  0  0  0  0  0  0  0
   -6.0417  -14.0807   23.8453 H   0  0  0  0  0  0  0  0  0  0  0  0
   -7.7643   -9.6661   22.3790 H   0  0  0  0  0  0  0  0  0  0  0  0
  -10.1224  -16.0900   23.9918 H   0  0  0  0  0  0  0  0  0  0  0  0
   -9.9595  -15.4475   25.6363 H   0  0  0  0  0  0  0  0  0  0  0  0
   -8.8498  -14.9357   24.3314 H   0  0  0  0  0  0  0  0  0  0  0  0
  -14.7573  -12.1036   22.0603 H   0  0  0  0  0  0  0  0  0  0  0  0
   -7.3970  -13.7301   25.9923 H   0  0  0  0  0  0  0  0  0  0  0  0
  -11.4612  -10.7943   25.0143 H   0  0  0  0  0  0  0  0  0  0  0  0
  -13.4307  -13.4125   22.2004 H   0  0  0  0  0  0  0  0  0  0  0  0
   -8.5835  -10.6380   24.4149 H   0  0  0  0  0  0  0  0  0  0  0  0
   -5.1917  -13.0620   21.7535 H   0  0  0  0  0  0  0  0  0  0  0  0
  -15.4323   -8.8524   23.5950 H   0  0  0  0  0  0  0  0  0  0  0  0
  -18.6762   -8.0363   20.9173 H   0  0  0  0  0  0  0  0  0  0  0  0
  -17.2815   -7.4056   22.8709 H   0  0  0  0  0  0  0  0  0  0  0  0
  1 12  1  0  0  0  0
  1 16  2  0  0  0  0
  1 22  1  0  0  0  0
  2  3  1  0  0  0  0
  2  8  1  0  0  0  0
  2 10  2  0  0  0  0
  3 22  2  0  0  0  0
  3 31  1  0  0  0  0
  4  7  2  0  0  0  0
  4 25  1  0  0  0  0
  4 27  1  0  0  0  0
  5 11  2  0  0  0  0
  5 29  1  0  0  0  0
  5 32  1  0  0  0  0
  6 23  1  0  0  0  0
  6 27  2  0  0  0  0
  6 33  1  0  0  0  0
  7 26  1  0  0  0  0
  7 34  1  0  0  0  0
  8 35  1  0  0  0  0
  8 36  1  0  0  0  0
  8 37  1  0  0  0  0
  9 10  1  0  0  0  0
  9 14  1  0  0  0  0
  9 18  2  0  0  0  0
  9 19  2  0  0  0  0
 10 16  1  0  0  0  0
 11 15  1  0  0  0  0
 11 17  1  0  0  0  0
 12 13  1  0  0  0  0
 12 20  2  0  0  0  0
 13 15  1  0  0  0  0
 13 38  1  0  0  0  0
 14 23  1  0  0  0  0
 14 39  1  0  0  0  0
 15 28  2  0  0  0  0
 16 40  1  0  0  0  0
 17 21  2  0  0  0  0
 17 24  1  0  0  0  0
 22 41  1  0  0  0  0
 23 26  2  0  0  0  0
 26 42  1  0  0  0  0
 27 43  1  0  0  0  0
 28 30  1  0  0  0  0
 28 44  1  0  0  0  0
 29 30  2  0  0  0  0
 29 45  1  0  0  0  0
 30 46  1  0  0  0  0
M  END
$$$$
