5M8
 OpenBabel04161909593D

 32 34  0  0  0  0  0  0  0  0999 V2000
    6.1929    8.0207   19.1072 C   0  0  0  0  0  0  0  0  0  0  0  0
    5.7892    7.7553   21.4076 C   0  0  0  0  0  0  0  0  0  0  0  0
    4.6296    7.1660   17.3168 C   0  0  0  0  0  0  0  0  0  0  0  0
    3.7659    6.6683   22.2217 C   0  0  0  0  0  0  0  0  0  0  0  0
    2.8044    4.8387   19.5813 C   0  0  0  0  0  0  0  0  0  0  0  0
    1.6030    4.1586   19.3250 C   0  0  0  0  0  0  0  0  0  0  0  0
    0.5031    4.8512   18.8369 C   0  0  0  0  0  0  0  0  0  0  0  0
    4.9922    7.3989   18.7551 C   0  0  0  0  0  0  0  0  0  0  0  0
    4.1541    6.9324   19.7776 C   0  0  0  0  0  0  0  0  0  0  0  0
    4.5594    7.1154   21.1326 C   0  0  0  0  0  0  0  0  0  0  0  0
    6.5816    8.1979   20.4182 N   0  0  0  0  0  0  0  0  0  0  0  0
    2.8878    6.2335   19.4316 C   0  0  0  0  0  0  0  0  0  0  0  0
    4.1344    8.1481   16.6784 O   0  0  0  0  0  0  0  0  0  0  0  0
    6.1644    7.9228   22.7561 C   0  0  0  0  0  0  0  0  0  0  0  0
    4.1814    6.8453   23.5405 C   0  0  0  0  0  0  0  0  0  0  0  0
    4.8590    6.0025   16.8636 O   0  0  0  0  0  0  0  0  0  0  0  0
    5.3706    7.4778   23.8182 C   0  0  0  0  0  0  0  0  0  0  0  0
    3.2088    6.2557   24.8321 Cl  0  0  0  0  0  0  0  0  0  0  0  0
    7.1002    8.5243   18.0123 C   0  0  0  0  0  0  0  0  0  0  0  0
    1.7549    6.9208   18.9716 C   0  0  0  0  0  0  0  0  0  0  0  0
    0.5778    6.2307   18.6560 C   0  0  0  0  0  0  0  0  0  0  0  0
    2.8143    6.1828   22.0301 H   0  0  0  0  0  0  0  0  0  0  0  0
    3.6751    4.2740   19.8911 H   0  0  0  0  0  0  0  0  0  0  0  0
    1.5488    3.0894   19.4983 H   0  0  0  0  0  0  0  0  0  0  0  0
   -0.4061    4.3116   18.5819 H   0  0  0  0  0  0  0  0  0  0  0  0
    7.1065    8.4161   23.0014 H   0  0  0  0  0  0  0  0  0  0  0  0
    5.6920    7.6370   24.8493 H   0  0  0  0  0  0  0  0  0  0  0  0
    7.9997    9.0142   18.4011 H   0  0  0  0  0  0  0  0  0  0  0  0
    6.5629    9.2521   17.3952 H   0  0  0  0  0  0  0  0  0  0  0  0
    7.4162    7.6937   17.3716 H   0  0  0  0  0  0  0  0  0  0  0  0
    1.7870    8.0013   18.8318 H   0  0  0  0  0  0  0  0  0  0  0  0
   -0.2806    6.7710   18.2664 H   0  0  0  0  0  0  0  0  0  0  0  0
  1  8  2  0  0  0  0
  1 11  1  0  0  0  0
  1 19  1  0  0  0  0
  2 10  1  0  0  0  0
  2 11  2  0  0  0  0
  2 14  1  0  0  0  0
  3  8  1  0  0  0  0
  3 13  2  0  0  0  0
  3 16  1  0  0  0  0
  4 10  1  0  0  0  0
  4 15  2  0  0  0  0
  4 22  1  0  0  0  0
  5  6  2  0  0  0  0
  5 12  1  0  0  0  0
  5 23  1  0  0  0  0
  6  7  1  0  0  0  0
  6 24  1  0  0  0  0
  7 21  2  0  0  0  0
  7 25  1  0  0  0  0
  8  9  1  0  0  0  0
  9 10  2  0  0  0  0
  9 12  1  0  0  0  0
 12 20  2  0  0  0  0
 14 17  2  0  0  0  0
 14 26  1  0  0  0  0
 15 17  1  0  0  0  0
 15 18  1  0  0  0  0
 17 27  1  0  0  0  0
 19 28  1  0  0  0  0
 19 29  1  0  0  0  0
 19 30  1  0  0  0  0
 20 21  1  0  0  0  0
 20 31  1  0  0  0  0
 21 32  1  0  0  0  0
M  END
$$$$
