5M8
 OpenBabel04161910343D

 32 34  0  0  0  0  0  0  0  0999 V2000
  -14.7518   48.5190  -40.6954 C   0  0  0  0  0  0  0  0  0  0  0  0
  -13.0995   48.3488  -39.0727 C   0  0  0  0  0  0  0  0  0  0  0  0
  -15.0342   50.4924  -42.1873 C   0  0  0  0  0  0  0  0  0  0  0  0
  -11.4326   50.0847  -38.6960 C   0  0  0  0  0  0  0  0  0  0  0  0
  -13.0822   52.8111  -40.1292 C   0  0  0  0  0  0  0  0  0  0  0  0
  -12.6084   54.0739  -40.4918 C   0  0  0  0  0  0  0  0  0  0  0  0
  -11.7561   54.2082  -41.5855 C   0  0  0  0  0  0  0  0  0  0  0  0
  -14.3071   49.7755  -41.0984 C   0  0  0  0  0  0  0  0  0  0  0  0
  -13.1934   50.3392  -40.4546 C   0  0  0  0  0  0  0  0  0  0  0  0
  -12.5623   49.6106  -39.4113 C   0  0  0  0  0  0  0  0  0  0  0  0
  -14.1580   47.8115  -39.6951 N   0  0  0  0  0  0  0  0  0  0  0  0
  -12.7040   51.6707  -40.8525 C   0  0  0  0  0  0  0  0  0  0  0  0
  -14.6579   50.2452  -43.3740 O   0  0  0  0  0  0  0  0  0  0  0  0
  -12.5073   47.6248  -38.0435 C   0  0  0  0  0  0  0  0  0  0  0  0
  -10.8638   49.3375  -37.6708 C   0  0  0  0  0  0  0  0  0  0  0  0
  -15.9980   51.2363  -41.8292 O   0  0  0  0  0  0  0  0  0  0  0  0
  -11.3995   48.1035  -37.3373 C   0  0  0  0  0  0  0  0  0  0  0  0
   -9.5003   49.9438  -36.8147 Cl  0  0  0  0  0  0  0  0  0  0  0  0
  -15.9372   47.8793  -41.3641 C   0  0  0  0  0  0  0  0  0  0  0  0
  -11.8534   51.8226  -41.9567 C   0  0  0  0  0  0  0  0  0  0  0  0
  -11.3811   53.0848  -42.3209 C   0  0  0  0  0  0  0  0  0  0  0  0
  -10.9966   51.0503  -38.9445 H   0  0  0  0  0  0  0  0  0  0  0  0
  -13.7738   52.7141  -39.2951 H   0  0  0  0  0  0  0  0  0  0  0  0
  -12.9289   54.9478  -39.9338 H   0  0  0  0  0  0  0  0  0  0  0  0
  -11.4075   55.1918  -41.8832 H   0  0  0  0  0  0  0  0  0  0  0  0
  -12.9275   46.6566  -37.7825 H   0  0  0  0  0  0  0  0  0  0  0  0
  -10.9695   47.5090  -36.5379 H   0  0  0  0  0  0  0  0  0  0  0  0
  -16.1503   46.8989  -40.9264 H   0  0  0  0  0  0  0  0  0  0  0  0
  -15.7416   47.7331  -42.4313 H   0  0  0  0  0  0  0  0  0  0  0  0
  -16.8290   48.5018  -41.2402 H   0  0  0  0  0  0  0  0  0  0  0  0
  -11.5884   50.9542  -42.5566 H   0  0  0  0  0  0  0  0  0  0  0  0
  -10.7450   53.1882  -43.1947 H   0  0  0  0  0  0  0  0  0  0  0  0
  1  8  2  0  0  0  0
  1 11  1  0  0  0  0
  1 19  1  0  0  0  0
  2 10  1  0  0  0  0
  2 11  2  0  0  0  0
  2 14  1  0  0  0  0
  3  8  1  0  0  0  0
  3 13  2  0  0  0  0
  3 16  1  0  0  0  0
  4 10  1  0  0  0  0
  4 15  2  0  0  0  0
  4 22  1  0  0  0  0
  5  6  2  0  0  0  0
  5 12  1  0  0  0  0
  5 23  1  0  0  0  0
  6  7  1  0  0  0  0
  6 24  1  0  0  0  0
  7 21  2  0  0  0  0
  7 25  1  0  0  0  0
  8  9  1  0  0  0  0
  9 10  2  0  0  0  0
  9 12  1  0  0  0  0
 12 20  2  0  0  0  0
 14 17  2  0  0  0  0
 14 26  1  0  0  0  0
 15 17  1  0  0  0  0
 15 18  1  0  0  0  0
 17 27  1  0  0  0  0
 19 28  1  0  0  0  0
 19 29  1  0  0  0  0
 19 30  1  0  0  0  0
 20 21  1  0  0  0  0
 20 31  1  0  0  0  0
 21 32  1  0  0  0  0
M  END
$$$$
