5NQ
 OpenBabel04161910013D

 66 69  0  0  0  0  0  0  0  0999 V2000
   10.7117   33.4627   69.2726 C   0  0  0  0  0  0  0  0  0  0  0  0
   10.8083   34.3822   68.0636 C   0  0  0  0  0  0  0  0  0  0  0  0
   11.1911   33.6027   66.8022 C   0  0  0  0  0  0  0  0  0  0  0  0
    9.9253   33.0437   66.1462 C   0  0  0  0  0  0  0  0  0  0  0  0
   10.1567   32.2856   64.9278 N   0  3  0  0  0  0  0  0  0  0  0  0
   10.5946   32.9303   63.7750 C   0  0  0  0  0  0  0  0  0  0  0  0
   10.9020   34.1210   63.7268 O   0  0  0  0  0  0  0  0  0  0  0  0
   10.6654   32.1756   62.6213 N   0  3  0  0  0  0  0  0  0  0  0  0
   10.2802   30.8649   62.4579 C   0  0  0  0  0  0  0  0  0  0  0  0
   10.3335   30.3036   61.3657 O   0  0  0  0  0  0  0  0  0  0  0  0
    9.8204   30.2710   63.6650 C   0  0  0  0  0  0  0  0  0  0  0  0
    9.3524   29.0186   63.9686 N   0  3  0  0  0  0  0  0  0  0  0  0
    9.3026   27.8852   63.0630 C   0  0  0  0  0  0  0  0  0  0  0  0
   10.6894   27.3257   62.7943 C   0  0  0  0  0  0  0  0  0  0  0  0
    9.7662   30.9664   64.8366 C   0  0  0  0  0  0  0  0  0  0  0  0
    9.2565   30.2143   65.8437 N   0  0  0  0  0  0  0  0  0  0  0  0
    8.9683   29.0414   65.2994 C   0  0  0  0  0  0  0  0  0  0  0  0
    8.3222   27.9065   66.0363 C   0  0  0  0  0  0  0  0  0  0  0  0
    6.5589   27.7731   65.5864 S   0  0  0  0  0  0  0  0  0  0  0  0
    5.8992   26.9286   66.9581 C   0  0  0  0  0  0  0  0  0  0  0  0
    4.5810   26.5675   67.0402 N   0  0  0  0  0  0  0  0  0  0  0  0
    6.6402   26.5973   68.0064 N   0  0  0  0  0  0  0  0  0  0  0  0
    5.7398   26.0251   68.8349 N   0  3  0  0  0  0  0  0  0  0  0  0
    5.9524   25.5137   70.1172 C   0  0  0  0  0  0  0  0  0  0  0  0
    7.3434   25.6966   70.6599 C   0  0  0  0  0  0  0  0  0  0  0  0
    4.4844   25.9996   68.2258 C   0  0  0  0  0  0  0  0  0  0  0  0
    3.4030   25.4546   68.8526 N   0  0  0  0  0  0  0  0  0  0  0  0
    3.5903   24.9570   70.0436 C   0  0  0  0  0  0  0  0  0  0  0  0
    2.3680   24.3537   70.7162 C   0  0  0  0  0  0  0  0  0  0  0  0
    4.9222   24.9449   70.7768 C   0  0  0  0  0  0  0  0  0  0  0  0
    5.0232   24.3949   72.1747 C   0  0  0  0  0  0  0  0  0  0  0  0
    4.6045   25.4828   73.1568 C   0  0  0  0  0  0  0  0  0  0  0  0
    4.7371   25.0407   74.6071 C   0  0  0  0  0  0  0  0  0  0  0  0
    4.4660   26.2337   75.5073 C   0  0  0  0  0  0  0  0  0  0  0  0
   10.3722   34.0202   70.1496 H   0  0  0  0  0  0  0  0  0  0  0  0
   11.6911   33.0297   69.4988 H   0  0  0  0  0  0  0  0  0  0  0  0
   10.0095   32.6437   69.0968 H   0  0  0  0  0  0  0  0  0  0  0  0
   11.5549   35.1592   68.2623 H   0  0  0  0  0  0  0  0  0  0  0  0
    9.8505   34.8958   67.9176 H   0  0  0  0  0  0  0  0  0  0  0  0
   11.8942   32.7951   67.0398 H   0  0  0  0  0  0  0  0  0  0  0  0
   11.7137   34.2753   66.1138 H   0  0  0  0  0  0  0  0  0  0  0  0
    9.2548   33.8703   65.8866 H   0  0  0  0  0  0  0  0  0  0  0  0
    9.3936   32.4170   66.8691 H   0  0  0  0  0  0  0  0  0  0  0  0
   10.9676   32.6684   61.7942 H   0  0  0  0  0  0  0  0  0  0  0  0
    8.8093   28.2092   62.1407 H   0  0  0  0  0  0  0  0  0  0  0  0
    8.6770   27.1052   63.5033 H   0  0  0  0  0  0  0  0  0  0  0  0
   10.6289   26.4378   62.1586 H   0  0  0  0  0  0  0  0  0  0  0  0
   11.1846   27.0484   63.7314 H   0  0  0  0  0  0  0  0  0  0  0  0
   11.3274   28.0584   62.2921 H   0  0  0  0  0  0  0  0  0  0  0  0
    8.4391   28.1100   67.1062 H   0  0  0  0  0  0  0  0  0  0  0  0
    8.8408   26.9645   65.8254 H   0  0  0  0  0  0  0  0  0  0  0  0
    7.4716   25.3291   71.6791 H   0  0  0  0  0  0  0  0  0  0  0  0
    7.6034   26.7612   70.6831 H   0  0  0  0  0  0  0  0  0  0  0  0
    8.0676   25.1704   70.0300 H   0  0  0  0  0  0  0  0  0  0  0  0
    2.5421   24.0256   71.7403 H   0  0  0  0  0  0  0  0  0  0  0  0
    2.0346   23.4875   70.1387 H   0  0  0  0  0  0  0  0  0  0  0  0
    1.5642   25.0955   70.7474 H   0  0  0  0  0  0  0  0  0  0  0  0
    6.0451   24.0734   72.3958 H   0  0  0  0  0  0  0  0  0  0  0  0
    4.4344   23.4814   72.2914 H   0  0  0  0  0  0  0  0  0  0  0  0
    3.5674   25.7891   72.9712 H   0  0  0  0  0  0  0  0  0  0  0  0
    5.2244   26.3754   72.9970 H   0  0  0  0  0  0  0  0  0  0  0  0
    5.7431   24.6519   74.8003 H   0  0  0  0  0  0  0  0  0  0  0  0
    4.0252   24.2359   74.8224 H   0  0  0  0  0  0  0  0  0  0  0  0
    4.5361   25.9512   76.5609 H   0  0  0  0  0  0  0  0  0  0  0  0
    3.4658   26.6380   75.3202 H   0  0  0  0  0  0  0  0  0  0  0  0
    5.1927   27.0304   75.3149 H   0  0  0  0  0  0  0  0  0  0  0  0
  1  2  1  0  0  0  0
  1 35  1  0  0  0  0
  1 36  1  0  0  0  0
  1 37  1  0  0  0  0
  2  3  1  0  0  0  0
  2 38  1  0  0  0  0
  2 39  1  0  0  0  0
  3  4  1  0  0  0  0
  3 40  1  0  0  0  0
  3 41  1  0  0  0  0
  4  5  1  0  0  0  0
  4 42  1  0  0  0  0
  4 43  1  0  0  0  0
  5  6  1  0  0  0  0
  5 15  1  0  0  0  0
  6  7  2  0  0  0  0
  6  8  1  0  0  0  0
  8  9  1  0  0  0  0
  8 44  1  0  0  0  0
  9 10  2  0  0  0  0
  9 11  1  0  0  0  0
 11 12  1  0  0  0  0
 11 15  2  0  0  0  0
 12 13  1  0  0  0  0
 12 17  2  0  0  0  0
 13 14  1  0  0  0  0
 13 45  1  0  0  0  0
 13 46  1  0  0  0  0
 14 47  1  0  0  0  0
 14 48  1  0  0  0  0
 14 49  1  0  0  0  0
 15 16  1  0  0  0  0
 16 17  1  0  0  0  0
 17 18  1  0  0  0  0
 18 19  1  0  0  0  0
 18 50  1  0  0  0  0
 18 51  1  0  0  0  0
 19 20  1  0  0  0  0
 20 21  1  0  0  0  0
 20 22  2  0  0  0  0
 21 26  1  0  0  0  0
 22 23  1  0  0  0  0
 23 24  2  0  0  0  0
 23 26  1  0  0  0  0
 24 25  1  0  0  0  0
 24 30  1  0  0  0  0
 25 52  1  0  0  0  0
 25 53  1  0  0  0  0
 25 54  1  0  0  0  0
 26 27  2  0  0  0  0
 27 28  1  0  0  0  0
 28 29  1  0  0  0  0
 28 30  2  0  0  0  0
 29 55  1  0  0  0  0
 29 56  1  0  0  0  0
 29 57  1  0  0  0  0
 30 31  1  0  0  0  0
 31 32  1  0  0  0  0
 31 58  1  0  0  0  0
 31 59  1  0  0  0  0
 32 33  1  0  0  0  0
 32 60  1  0  0  0  0
 32 61  1  0  0  0  0
 33 34  1  0  0  0  0
 33 62  1  0  0  0  0
 33 63  1  0  0  0  0
 34 64  1  0  0  0  0
 34 65  1  0  0  0  0
 34 66  1  0  0  0  0
M  CHG  4   5   1   8   1  12   1  23   1
M  END
$$$$
