5NY
 OpenBabel04161910013D

 63 69  0  0  1  0  0  0  0  0999 V2000
  -13.2897  -39.1276  -11.1794 Cl  0  0  0  0  0  0  0  0  0  0  0  0
  -14.6343  -40.1855  -11.1762 C   0  0  0  0  0  0  0  0  0  0  0  0
  -14.5522  -41.2794  -10.3065 C   0  0  0  0  0  0  0  0  0  0  0  0
  -15.5751  -42.2325  -10.2950 C   0  0  0  0  0  0  0  0  0  0  0  0
  -15.4690  -43.3759   -9.4724 N   0  3  0  0  0  0  0  0  0  0  0  0
  -14.8206  -43.4966   -8.2727 C   0  0  0  0  0  0  0  0  0  0  0  0
  -14.9880  -44.7081   -7.7877 N   0  0  0  0  0  0  0  0  0  0  0  0
  -15.7335  -45.4190   -8.6965 N   0  0  0  0  0  0  0  0  0  0  0  0
  -16.0039  -44.6160   -9.6997 C   0  0  0  0  0  0  0  0  0  0  0  0
  -16.7037  -42.0667  -11.1057 C   0  0  0  0  0  0  0  0  0  0  0  0
  -16.7981  -40.9532  -11.9416 C   0  0  0  0  0  0  0  0  0  0  0  0
  -15.7575  -40.0236  -12.0025 C   0  0  0  0  0  0  0  0  0  0  0  0
  -15.9143  -38.9481  -12.9979 C   0  0  0  0  0  0  0  0  0  0  0  0
  -16.2428  -39.2456  -14.1443 O   0  0  0  0  0  0  0  0  0  0  0  0
  -15.7886  -37.6662  -12.5242 N   0  0  0  0  0  0  0  0  0  0  0  0
  -15.8194  -36.4525  -13.3733 C   0  0  2  0  0  0  0  0  0  0  0  0
  -15.3817  -35.2591  -12.4824 C   0  0  0  0  0  0  0  0  0  0  0  0
  -13.9944  -35.4134  -12.0421 N   0  3  1  0  0  0  0  0  0  0  0  0
  -13.4709  -34.9731  -10.8457 C   0  0  1  0  0  0  0  0  0  0  0  0
  -14.0563  -34.2513   -9.7947 C   0  0  0  0  0  0  0  0  0  0  0  0
  -13.2640  -33.9359   -8.6862 C   0  0  0  0  0  0  0  0  0  0  0  0
  -17.2511  -36.1874  -13.8994 C   0  0  0  0  0  0  0  0  0  0  0  0
  -18.3736  -36.7695  -13.2815 C   0  0  0  0  0  0  0  0  0  0  0  0
  -19.6693  -36.5330  -13.7473 C   0  0  0  0  0  0  0  0  0  0  0  0
  -19.8748  -35.6954  -14.8368 C   0  0  0  0  0  0  0  0  0  0  0  0
  -18.7842  -35.1081  -15.4690 C   0  0  0  0  0  0  0  0  0  0  0  0
  -17.4873  -35.3523  -15.0070 C   0  0  0  0  0  0  0  0  0  0  0  0
  -14.7818  -36.5362  -14.5286 C   0  0  0  0  0  0  0  0  0  0  0  0
  -13.3707  -36.8312  -14.0277 C   0  0  0  0  0  0  0  0  0  0  0  0
  -13.0510  -36.1263  -12.7485 C   0  0  2  0  0  0  0  0  0  0  0  0
  -11.8801  -36.1220  -12.0035 C   0  0  1  0  0  0  0  0  0  0  0  0
  -12.1331  -35.3876  -10.8052 C   0  0  2  0  0  0  0  0  0  0  0  0
  -11.3626  -35.0509   -9.6685 C   0  0  0  0  0  0  0  0  0  0  0  0
  -11.9260  -34.3211   -8.6137 C   0  0  1  0  0  0  0  0  0  0  0  0
  -11.0783  -33.9686   -7.4286 C   0  0  0  0  0  0  0  0  0  0  0  0
  -10.5809  -36.8189  -12.3613 C   0  0  0  0  0  0  0  0  0  0  0  0
  -10.4072  -37.5954  -13.4623 N   0  0  0  0  0  0  0  0  0  0  0  0
   -9.1126  -37.9891  -13.4128 N   0  0  0  0  0  0  0  0  0  0  0  0
   -8.5305  -37.4691  -12.3132 N   0  0  0  0  0  0  0  0  0  0  0  0
   -9.4444  -36.7484  -11.6226 N   0  0  0  0  0  0  0  0  0  0  0  0
  -13.6481  -41.4068   -9.7229 H   0  0  0  0  0  0  0  0  0  0  0  0
  -14.3080  -42.6852   -7.7734 H   0  0  0  0  0  0  0  0  0  0  0  0
  -16.5208  -44.8906  -10.6072 H   0  0  0  0  0  0  0  0  0  0  0  0
  -17.5366  -42.7646  -11.0836 H   0  0  0  0  0  0  0  0  0  0  0  0
  -17.6821  -40.8110  -12.5593 H   0  0  0  0  0  0  0  0  0  0  0  0
  -15.5016  -37.5484  -11.5612 H   0  0  0  0  0  0  0  0  0  0  0  0
  -16.0171  -35.2000  -11.5883 H   0  0  0  0  0  0  0  0  0  0  0  0
  -15.4367  -34.2976  -13.0067 H   0  0  0  0  0  0  0  0  0  0  0  0
  -15.0922  -33.9358   -9.8327 H   0  0  0  0  0  0  0  0  0  0  0  0
  -13.7098  -33.3716   -7.8703 H   0  0  0  0  0  0  0  0  0  0  0  0
  -18.2557  -37.4429  -12.4367 H   0  0  0  0  0  0  0  0  0  0  0  0
  -20.5135  -37.0115  -13.2588 H   0  0  0  0  0  0  0  0  0  0  0  0
  -20.8818  -35.5059  -15.1963 H   0  0  0  0  0  0  0  0  0  0  0  0
  -18.9379  -34.4610  -16.3286 H   0  0  0  0  0  0  0  0  0  0  0  0
  -16.6681  -34.8792  -15.5433 H   0  0  0  0  0  0  0  0  0  0  0  0
  -14.7334  -35.5760  -15.0558 H   0  0  0  0  0  0  0  0  0  0  0  0
  -15.0677  -37.2803  -15.2773 H   0  0  0  0  0  0  0  0  0  0  0  0
  -12.6524  -36.5368  -14.8017 H   0  0  0  0  0  0  0  0  0  0  0  0
  -13.2646  -37.9127  -13.8893 H   0  0  0  0  0  0  0  0  0  0  0  0
  -10.3205  -35.3662   -9.6196 H   0  0  0  0  0  0  0  0  0  0  0  0
  -11.6470  -33.3907   -6.6933 H   0  0  0  0  0  0  0  0  0  0  0  0
  -10.2216  -33.3624   -7.7408 H   0  0  0  0  0  0  0  0  0  0  0  0
  -10.7167  -34.8770   -6.9363 H   0  0  0  0  0  0  0  0  0  0  0  0
  1  2  1  0  0  0  0
  2  3  2  0  0  0  0
  2 12  1  0  0  0  0
  3  4  1  0  0  0  0
  3 41  1  0  0  0  0
  4  5  1  0  0  0  0
  4 10  2  0  0  0  0
  5  6  2  0  0  0  0
  5  9  1  0  0  0  0
  6  7  1  0  0  0  0
  6 42  1  0  0  0  0
  7  8  1  0  0  0  0
  8  9  2  0  0  0  0
  9 43  1  0  0  0  0
 10 11  1  0  0  0  0
 10 44  1  0  0  0  0
 11 12  2  0  0  0  0
 11 45  1  0  0  0  0
 12 13  1  0  0  0  0
 13 14  2  0  0  0  0
 13 15  1  0  0  0  0
 15 46  1  0  0  0  0
 16 15  1  1  0  0  0
 16 17  1  0  0  0  0
 16 22  1  0  0  0  0
 16 28  1  0  0  0  0
 17 47  1  0  0  0  0
 17 48  1  0  0  0  0
 18 17  1  1  0  0  0
 18 19  1  0  0  0  0
 18 30  1  0  0  0  0
 19 20  1  1  0  0  0
 19 32  1  0  0  0  0
 20 21  1  0  0  0  0
 20 49  1  0  0  0  0
 21 34  1  0  0  0  0
 21 50  1  0  0  0  0
 22 23  1  0  0  0  0
 22 27  1  0  0  0  0
 23 24  1  0  0  0  0
 23 51  1  0  0  0  0
 24 25  1  0  0  0  0
 24 52  1  0  0  0  0
 25 26  1  0  0  0  0
 25 53  1  0  0  0  0
 26 27  1  0  0  0  0
 26 54  1  0  0  0  0
 27 55  1  0  0  0  0
 28 29  1  0  0  0  0
 28 56  1  0  0  0  0
 28 57  1  0  0  0  0
 29 58  1  0  0  0  0
 29 59  1  0  0  0  0
 30 29  1  1  0  0  0
 30 31  1  0  0  0  0
 31 32  1  0  0  0  0
 31 36  1  1  0  0  0
 32 33  1  1  0  0  0
 33 34  1  0  0  0  0
 33 60  1  0  0  0  0
 34 35  1  6  0  0  0
 35 61  1  0  0  0  0
 35 62  1  0  0  0  0
 35 63  1  0  0  0  0
 36 37  1  0  0  0  0
 36 40  1  0  0  0  0
 37 38  1  0  0  0  0
 38 39  1  0  0  0  0
 39 40  1  0  0  0  0
M  CHG  2   5   1  18   1
M  END
$$$$
