5O2
 OpenBabel04161910023D

 90 97  0  0  1  0  0  0  0  0999 V2000
   37.6372   24.0980    6.5083 N   0  0  0  0  0  0  0  0  0  0  0  0
   36.7783   25.5046    8.4847 C   0  0  0  0  0  0  0  0  0  0  0  0
   37.7182   25.3934    7.2603 C   0  0  1  0  0  0  0  0  0  0  0  0
   38.5808   24.0035    5.4161 C   0  0  0  0  0  0  0  0  0  0  0  0
   38.3846   23.1159    4.3184 C   0  0  0  0  0  0  0  0  0  0  0  0
   40.5880   27.5469    8.6265 C   0  0  0  0  0  0  0  0  0  0  0  0
   41.5268   27.3594    7.6272 C   0  0  0  0  0  0  0  0  0  0  0  0
   40.7980   28.4642    9.6357 N   0  0  0  0  0  0  0  0  0  0  0  0
   35.0075   25.9571   10.6454 C   0  0  0  0  0  0  0  0  0  0  0  0
   35.1936   26.9450    9.6880 C   0  0  0  0  0  0  0  0  0  0  0  0
   36.0593   26.7146    8.6223 C   0  0  0  0  0  0  0  0  0  0  0  0
   39.1268   25.9184    7.5071 C   0  0  0  0  0  0  0  0  0  0  0  0
   39.4056   26.8165    8.5642 C   0  0  0  0  0  0  0  0  0  0  0  0
   40.0933   25.7012    6.5151 C   0  0  0  0  0  0  0  0  0  0  0  0
   41.2859   26.4510    6.5929 C   0  0  0  0  0  0  0  0  0  0  0  0
   35.7173   24.7560   10.5493 C   0  0  0  0  0  0  0  0  0  0  0  0
   36.6140   24.5335    9.4867 C   0  0  0  0  0  0  0  0  0  0  0  0
   39.7997   24.7448    5.4248 C   0  0  0  0  0  0  0  0  0  0  0  0
   40.7343   24.5408    4.3788 C   0  0  0  0  0  0  0  0  0  0  0  0
   40.5069   23.6499    3.3342 C   0  0  0  0  0  0  0  0  0  0  0  0
   39.3149   22.9504    3.2710 C   0  0  0  0  0  0  0  0  0  0  0  0
   39.1407   21.9843    2.2866 N   0  0  0  0  0  0  0  0  0  0  0  0
   36.2399   23.6984    6.1897 C   0  0  0  0  0  0  0  0  0  0  0  0
   35.9624   22.2100    6.4372 C   0  0  0  0  0  0  0  0  0  0  0  0
   35.0163   21.8290    7.5929 C   0  0  0  0  0  0  0  0  0  0  0  0
   33.8255   22.7618    7.8639 C   0  0  0  0  0  0  0  0  0  0  0  0
   32.5153   22.0119    8.1226 C   0  0  0  0  0  0  0  0  0  0  0  0
   31.9634   22.1944    9.4859 C   0  0  0  0  0  0  0  0  0  0  0  0
   31.5056   21.1126   10.1876 N   0  0  0  0  0  0  0  0  0  0  0  0
   30.9945   21.5472   11.3241 N   0  0  0  0  0  0  0  0  0  0  0  0
   31.1898   22.8738   11.3778 N   0  3  0  0  0  0  0  0  0  0  0  0
   31.7379   23.3393   10.2221 C   0  0  0  0  0  0  0  0  0  0  0  0
   30.7298   23.6387   12.5145 C   0  0  0  0  0  0  0  0  0  0  0  0
   30.5475   22.8005   13.7932 C   0  0  0  0  0  0  0  0  0  0  0  0
   29.2724   23.0833   14.4515 N   0  0  0  0  0  0  0  0  0  0  0  0
   28.0957   22.4322   14.0503 C   0  0  0  0  0  0  0  0  0  0  0  0
   27.0917   23.2302   13.4249 C   0  0  0  0  0  0  0  0  0  0  0  0
   27.2501   24.5976   13.1177 C   0  0  0  0  0  0  0  0  0  0  0  0
   25.8667   22.6246   13.0943 C   0  0  0  0  0  0  0  0  0  0  0  0
   24.8257   23.3797   12.4912 C   0  0  0  0  0  0  0  0  0  0  0  0
   25.0297   24.7214   12.1879 C   0  0  0  0  0  0  0  0  0  0  0  0
   26.2413   25.3288   12.4929 C   0  0  0  0  0  0  0  0  0  0  0  0
   25.6572   21.3421   13.3903 N   0  3  0  0  0  0  0  0  0  0  0  0
   26.5259   20.5611   14.0432 C   0  0  0  0  0  0  0  0  0  0  0  0
   26.1241   19.2702   14.4237 C   0  0  0  0  0  0  0  0  0  0  0  0
   27.7982   21.0831   14.4206 C   0  0  0  0  0  0  0  0  0  0  0  0
   28.6315   20.2020   15.1472 C   0  0  0  0  0  0  0  0  0  0  0  0
   28.1769   18.9617   15.6075 C   0  0  0  0  0  0  0  0  0  0  0  0
   26.8986   18.5210   15.2967 C   0  0  0  0  0  0  0  0  0  0  0  0
   37.3044   26.1236    6.5464 H   0  0  0  0  0  0  0  0  0  0  0  0
   37.4868   22.5134    4.2533 H   0  0  0  0  0  0  0  0  0  0  0  0
   42.4555   27.9226    7.6285 H   0  0  0  0  0  0  0  0  0  0  0  0
   40.0969   28.6167   10.3461 H   0  0  0  0  0  0  0  0  0  0  0  0
   41.6526   29.0013    9.6722 H   0  0  0  0  0  0  0  0  0  0  0  0
   34.3234   26.1284   11.4711 H   0  0  0  0  0  0  0  0  0  0  0  0
   34.6817   27.8993    9.7642 H   0  0  0  0  0  0  0  0  0  0  0  0
   36.2091   27.5102    7.8903 H   0  0  0  0  0  0  0  0  0  0  0  0
   38.6685   26.9920    9.3428 H   0  0  0  0  0  0  0  0  0  0  0  0
   42.0591   26.3765    5.8346 H   0  0  0  0  0  0  0  0  0  0  0  0
   35.5630   23.9888   11.3026 H   0  0  0  0  0  0  0  0  0  0  0  0
   37.1599   23.5934    9.4422 H   0  0  0  0  0  0  0  0  0  0  0  0
   41.6881   25.0622    4.3520 H   0  0  0  0  0  0  0  0  0  0  0  0
   41.2757   23.5107    2.5776 H   0  0  0  0  0  0  0  0  0  0  0  0
   38.2253   21.5870    2.1269 H   0  0  0  0  0  0  0  0  0  0  0  0
   39.7884   21.9599    1.5060 H   0  0  0  0  0  0  0  0  0  0  0  0
   35.9846   23.9657    5.1549 H   0  0  0  0  0  0  0  0  0  0  0  0
   35.5390   24.2965    6.7715 H   0  0  0  0  0  0  0  0  0  0  0  0
   36.8977   21.6538    6.5741 H   0  0  0  0  0  0  0  0  0  0  0  0
   35.5073   21.8084    5.5216 H   0  0  0  0  0  0  0  0  0  0  0  0
   35.6002   21.7345    8.5162 H   0  0  0  0  0  0  0  0  0  0  0  0
   34.6574   20.8156    7.3742 H   0  0  0  0  0  0  0  0  0  0  0  0
   33.6492   23.4378    7.0213 H   0  0  0  0  0  0  0  0  0  0  0  0
   34.0800   23.3972    8.7181 H   0  0  0  0  0  0  0  0  0  0  0  0
   32.6268   20.9392    7.9301 H   0  0  0  0  0  0  0  0  0  0  0  0
   31.7607   22.3670    7.4103 H   0  0  0  0  0  0  0  0  0  0  0  0
   31.9186   24.3859   10.0206 H   0  0  0  0  0  0  0  0  0  0  0  0
   29.8061   24.1213   12.1841 H   0  0  0  0  0  0  0  0  0  0  0  0
   31.4642   24.4350   12.6899 H   0  0  0  0  0  0  0  0  0  0  0  0
   31.3537   23.0638   14.4882 H   0  0  0  0  0  0  0  0  0  0  0  0
   30.6473   21.7249   13.6302 H   0  0  0  0  0  0  0  0  0  0  0  0
   29.2833   23.5655   15.3461 H   0  0  0  0  0  0  0  0  0  0  0  0
   28.1759   25.1187   13.3624 H   0  0  0  0  0  0  0  0  0  0  0  0
   23.8702   22.9312   12.2711 H   0  0  0  0  0  0  0  0  0  0  0  0
   24.2381   25.2997   11.7174 H   0  0  0  0  0  0  0  0  0  0  0  0
   26.4020   26.3782   12.2468 H   0  0  0  0  0  0  0  0  0  0  0  0
   25.1869   18.8428   14.0732 H   0  0  0  0  0  0  0  0  0  0  0  0
   29.6486   20.4933   15.4032 H   0  0  0  0  0  0  0  0  0  0  0  0
   28.8258   18.3245   16.2161 H   0  0  0  0  0  0  0  0  0  0  0  0
   26.5093   17.5996   15.7319 H   0  0  0  0  0  0  0  0  0  0  0  0
   24.7489   20.9362   13.1539 H   0  0  0  0  0  0  0  0  0  0  0  0
  1  3  1  0  0  0  0
  1  4  1  0  0  0  0
  1 23  1  0  0  0  0
  2  3  1  0  0  0  0
  2 11  2  0  0  0  0
  2 17  1  0  0  0  0
  3 12  1  0  0  0  0
  3 50  1  6  0  0  0
  4  5  2  0  0  0  0
  4 18  1  0  0  0  0
  5 21  1  0  0  0  0
  5 51  1  0  0  0  0
  6  7  2  0  0  0  0
  6  8  1  0  0  0  0
  6 13  1  0  0  0  0
  7 15  1  0  0  0  0
  7 52  1  0  0  0  0
  8 53  1  0  0  0  0
  8 54  1  0  0  0  0
  9 10  2  0  0  0  0
  9 16  1  0  0  0  0
  9 55  1  0  0  0  0
 10 11  1  0  0  0  0
 10 56  1  0  0  0  0
 11 57  1  0  0  0  0
 12 13  2  0  0  0  0
 12 14  1  0  0  0  0
 13 58  1  0  0  0  0
 14 15  2  0  0  0  0
 14 18  1  0  0  0  0
 15 59  1  0  0  0  0
 16 17  2  0  0  0  0
 16 60  1  0  0  0  0
 17 61  1  0  0  0  0
 18 19  2  0  0  0  0
 19 20  1  0  0  0  0
 19 62  1  0  0  0  0
 20 21  2  0  0  0  0
 20 63  1  0  0  0  0
 21 22  1  0  0  0  0
 22 64  1  0  0  0  0
 22 65  1  0  0  0  0
 23 24  1  0  0  0  0
 23 66  1  0  0  0  0
 23 67  1  0  0  0  0
 24 25  1  0  0  0  0
 24 68  1  0  0  0  0
 24 69  1  0  0  0  0
 25 26  1  0  0  0  0
 25 70  1  0  0  0  0
 25 71  1  0  0  0  0
 26 27  1  0  0  0  0
 26 72  1  0  0  0  0
 26 73  1  0  0  0  0
 27 28  1  0  0  0  0
 27 74  1  0  0  0  0
 27 75  1  0  0  0  0
 28 29  1  0  0  0  0
 28 32  2  0  0  0  0
 29 30  1  0  0  0  0
 30 31  2  0  0  0  0
 31 32  1  0  0  0  0
 31 33  1  0  0  0  0
 32 76  1  0  0  0  0
 33 34  1  0  0  0  0
 33 77  1  0  0  0  0
 33 78  1  0  0  0  0
 34 35  1  0  0  0  0
 34 79  1  0  0  0  0
 34 80  1  0  0  0  0
 35 36  1  0  0  0  0
 35 81  1  0  0  0  0
 36 37  2  0  0  0  0
 36 46  1  0  0  0  0
 37 38  1  0  0  0  0
 37 39  1  0  0  0  0
 38 42  2  0  0  0  0
 38 82  1  0  0  0  0
 39 40  1  0  0  0  0
 39 43  2  0  0  0  0
 40 41  2  0  0  0  0
 40 83  1  0  0  0  0
 41 42  1  0  0  0  0
 41 84  1  0  0  0  0
 42 85  1  0  0  0  0
 43 44  1  0  0  0  0
 43 90  1  0  0  0  0
 44 45  2  0  0  0  0
 44 46  1  0  0  0  0
 45 49  1  0  0  0  0
 45 86  1  0  0  0  0
 46 47  2  0  0  0  0
 47 48  1  0  0  0  0
 47 87  1  0  0  0  0
 48 49  2  0  0  0  0
 48 88  1  0  0  0  0
 49 89  1  0  0  0  0
M  CHG  2  31   1  43   1
M  END
$$$$
