5O6
 OpenBabel04161910023D

 25 25  0  0  0  0  0  0  0  0999 V2000
   20.9314   10.0517   14.5710 C   0  0  0  0  0  0  0  0  0  0  0  0
   20.6252    9.1434   13.5095 O   0  0  0  0  0  0  0  0  0  0  0  0
   19.7479    8.1650   13.8769 C   0  0  0  0  0  0  0  0  0  0  0  0
   18.6396    8.4155   14.6998 C   0  0  0  0  0  0  0  0  0  0  0  0
   17.7725    7.3776   15.0443 C   0  0  0  0  0  0  0  0  0  0  0  0
   17.9892    6.0876   14.5592 C   0  0  0  0  0  0  0  0  0  0  0  0
   17.0841    4.9858   14.9463 C   0  0  0  0  0  0  0  0  0  0  0  0
   15.6078    5.2751   15.0287 C   0  0  0  0  0  0  0  0  0  0  0  0
   17.6494    3.8050   15.2564 C   0  0  0  0  0  0  0  0  0  0  0  0
   16.9542    2.5462   15.7457 C   0  0  0  0  0  0  0  0  0  0  0  0
   17.6042    1.9224   16.6357 O   0  0  0  0  0  0  0  0  0  0  0  0
   15.8599    2.2519   15.1960 O   0  0  0  0  0  0  0  0  0  0  0  0
   19.1025    5.8551   13.7228 C   0  0  0  0  0  0  0  0  0  0  0  0
   19.9682    6.8917   13.3768 C   0  0  0  0  0  0  0  0  0  0  0  0
   21.6120   10.8135   14.1841 H   0  0  0  0  0  0  0  0  0  0  0  0
   21.4246    9.5205   15.3881 H   0  0  0  0  0  0  0  0  0  0  0  0
   20.0479   10.5830   14.9343 H   0  0  0  0  0  0  0  0  0  0  0  0
   18.4203    9.3932   15.0832 H   0  0  0  0  0  0  0  0  0  0  0  0
   16.9500    7.5878   15.7156 H   0  0  0  0  0  0  0  0  0  0  0  0
   15.0204    4.4145   15.3439 H   0  0  0  0  0  0  0  0  0  0  0  0
   15.2260    5.5863   14.0504 H   0  0  0  0  0  0  0  0  0  0  0  0
   15.3829    6.0647   15.7536 H   0  0  0  0  0  0  0  0  0  0  0  0
   18.7348    3.7025   15.2136 H   0  0  0  0  0  0  0  0  0  0  0  0
   19.2995    4.8516   13.3586 H   0  0  0  0  0  0  0  0  0  0  0  0
   20.8238    6.6847   12.7359 H   0  0  0  0  0  0  0  0  0  0  0  0
  1  2  1  0  0  0  0
  1 15  1  0  0  0  0
  1 16  1  0  0  0  0
  1 17  1  0  0  0  0
  2  3  1  0  0  0  0
  3  4  2  0  0  0  0
  3 14  1  0  0  0  0
  4  5  1  0  0  0  0
  4 18  1  0  0  0  0
  5  6  2  0  0  0  0
  5 19  1  0  0  0  0
  6  7  1  0  0  0  0
  6 13  1  0  0  0  0
  7  8  1  0  0  0  0
  7  9  2  0  0  0  0
  8 20  1  0  0  0  0
  8 21  1  0  0  0  0
  8 22  1  0  0  0  0
  9 10  1  0  0  0  0
  9 23  1  0  0  0  0
 10 11  2  0  0  0  0
 10 12  1  0  0  0  0
 13 14  2  0  0  0  0
 13 24  1  0  0  0  0
 14 25  1  0  0  0  0
M  END
$$$$
