5O8
 OpenBabel04161910033D

 54 57  0  0  1  0  0  0  0  0999 V2000
    5.2460  -10.4853   -4.5485 C   0  0  0  0  0  0  0  0  0  0  0  0
    4.6905  -11.1353   -5.6180 C   0  0  0  0  0  0  0  0  0  0  0  0
    3.2842  -11.4211   -5.6531 C   0  0  0  0  0  0  0  0  0  0  0  0
    6.8563  -10.9210   -5.9921 C   0  0  0  0  0  0  0  0  0  0  0  0
    2.6304  -10.9632   -4.5065 N   0  3  0  0  0  0  0  0  0  0  0  0
    2.4546  -10.0046   -2.4474 N   0  0  0  0  0  0  0  0  0  0  0  0
    4.5333  -10.0648   -3.4665 N   0  3  0  0  0  0  0  0  0  0  0  0
    7.1359  -13.9784   -7.7552 C   0  0  0  0  0  0  0  0  0  0  0  0
    7.4096  -15.3318   -7.5680 C   0  0  0  0  0  0  0  0  0  0  0  0
    6.3864  -16.2109   -7.2178 C   0  0  0  0  0  0  0  0  0  0  0  0
    5.0876  -15.7395   -7.0484 C   0  0  0  0  0  0  0  0  0  0  0  0
    4.8114  -14.3880   -7.2381 C   0  0  0  0  0  0  0  0  0  0  0  0
    5.8301  -13.4948   -7.6030 C   0  0  0  0  0  0  0  0  0  0  0  0
    5.5401  -12.0357   -7.8055 C   0  0  0  0  0  0  0  0  0  0  0  0
    5.7096  -11.3564   -6.5256 N   0  3  0  0  0  0  0  0  0  0  0  0
    2.6290  -11.9557   -6.5641 O   0  0  0  0  0  0  0  0  0  0  0  0
    3.2022  -10.3268   -3.4408 C   0  0  0  0  0  0  0  0  0  0  0  0
    6.5982  -10.3493   -4.8002 N   0  3  0  0  0  0  0  0  0  0  0  0
    7.6525   -9.7760   -3.9731 C   0  0  2  0  0  0  0  0  0  0  0  0
    8.4399  -10.8635   -3.4888 O   0  0  0  0  0  0  0  0  0  0  0  0
    7.2140   -8.9572   -2.7581 C   0  0  2  0  0  0  0  0  0  0  0  0
    8.1783   -7.9600   -2.4103 O   0  0  0  0  0  0  0  0  0  0  0  0
    7.1631  -10.0028   -1.6616 C   0  0  2  0  0  0  0  0  0  0  0  0
    7.4177   -9.4261   -0.3955 O   0  0  0  0  0  0  0  0  0  0  0  0
    8.2107  -11.0360   -2.0721 C   0  0  1  0  0  0  0  0  0  0  0  0
    7.8110  -12.4995   -1.7748 C   0  0  0  0  0  0  0  0  0  0  0  0
    6.3682  -12.6731   -2.0230 N   0  0  0  0  0  0  0  0  0  0  0  0
    5.8482  -13.7402   -3.2088 S   0  0  0  0  0  0  0  0  0  0  0  0
    6.8715  -13.6889   -4.2311 O   0  0  0  0  0  0  0  0  0  0  0  0
    4.5077  -13.2884   -3.5145 O   0  0  0  0  0  0  0  0  0  0  0  0
    5.7821  -15.3988   -2.3637 C   0  0  0  0  0  0  0  0  0  0  0  0
    6.9950  -15.7502   -1.8587 F   0  0  0  0  0  0  0  0  0  0  0  0
    4.9109  -15.3743   -1.3157 F   0  0  0  0  0  0  0  0  0  0  0  0
    5.3786  -16.3743   -3.2141 F   0  0  0  0  0  0  0  0  0  0  0  0
    7.8361  -10.9787   -6.4658 H   0  0  0  0  0  0  0  0  0  0  0  0
    1.6404  -11.1461   -4.4488 H   0  0  0  0  0  0  0  0  0  0  0  0
    2.9775   -9.5384   -1.7108 H   0  0  0  0  0  0  0  0  0  0  0  0
    4.8505   -9.6026   -2.6405 H   0  0  0  0  0  0  0  0  0  0  0  0
    7.9466  -13.3087   -8.0296 H   0  0  0  0  0  0  0  0  0  0  0  0
    8.4212  -15.7042   -7.7018 H   0  0  0  0  0  0  0  0  0  0  0  0
    6.6012  -17.2679   -7.0827 H   0  0  0  0  0  0  0  0  0  0  0  0
    4.2878  -16.4267   -6.7814 H   0  0  0  0  0  0  0  0  0  0  0  0
    3.7861  -14.0456   -7.1094 H   0  0  0  0  0  0  0  0  0  0  0  0
    4.5224  -11.8854   -8.1768 H   0  0  0  0  0  0  0  0  0  0  0  0
    6.2168  -11.5850   -8.5314 H   0  0  0  0  0  0  0  0  0  0  0  0
    8.2704   -9.1436   -4.6216 H   0  0  0  0  0  0  0  0  0  0  0  0
    6.2826   -8.4116   -2.9227 H   0  0  0  0  0  0  0  0  0  0  0  0
    7.7990   -7.4571   -1.6611 H   0  0  0  0  0  0  0  0  0  0  0  0
    6.1697  -10.4358   -1.5954 H   0  0  0  0  0  0  0  0  0  0  0  0
    8.3281   -9.0731   -0.4384 H   0  0  0  0  0  0  0  0  0  0  0  0
    9.1538  -10.8382   -1.5503 H   0  0  0  0  0  0  0  0  0  0  0  0
    8.0462  -12.7745   -0.7409 H   0  0  0  0  0  0  0  0  0  0  0  0
    8.3893  -13.1721   -2.4181 H   0  0  0  0  0  0  0  0  0  0  0  0
    5.6790  -12.3376   -1.3450 H   0  0  0  0  0  0  0  0  0  0  0  0
  1  2  1  0  0  0  0
  1  7  2  0  0  0  0
  1 18  1  0  0  0  0
  2  3  1  0  0  0  0
  2 15  2  0  0  0  0
  3  5  1  0  0  0  0
  3 16  2  0  0  0  0
  4 15  1  0  0  0  0
  4 18  2  0  0  0  0
  4 35  1  0  0  0  0
  5 17  1  0  0  0  0
  5 36  1  0  0  0  0
  6 17  2  0  0  0  0
  6 37  1  0  0  0  0
  7 17  1  0  0  0  0
  7 38  1  0  0  0  0
  8  9  2  0  0  0  0
  8 13  1  0  0  0  0
  8 39  1  0  0  0  0
  9 10  1  0  0  0  0
  9 40  1  0  0  0  0
 10 11  2  0  0  0  0
 10 41  1  0  0  0  0
 11 12  1  0  0  0  0
 11 42  1  0  0  0  0
 12 13  2  0  0  0  0
 12 43  1  0  0  0  0
 13 14  1  0  0  0  0
 14 15  1  0  0  0  0
 14 44  1  0  0  0  0
 14 45  1  0  0  0  0
 18 19  1  0  0  0  0
 19 20  1  0  0  0  0
 19 21  1  0  0  0  0
 19 46  1  6  0  0  0
 20 25  1  0  0  0  0
 21 22  1  0  0  0  0
 21 23  1  0  0  0  0
 21 47  1  6  0  0  0
 22 48  1  0  0  0  0
 23 24  1  0  0  0  0
 23 25  1  0  0  0  0
 23 49  1  1  0  0  0
 24 50  1  0  0  0  0
 25 26  1  0  0  0  0
 25 51  1  1  0  0  0
 26 27  1  0  0  0  0
 26 52  1  0  0  0  0
 26 53  1  0  0  0  0
 27 28  1  0  0  0  0
 27 54  1  0  0  0  0
 28 29  2  0  0  0  0
 28 30  2  0  0  0  0
 28 31  1  0  0  0  0
 31 32  1  0  0  0  0
 31 33  1  0  0  0  0
 31 34  1  0  0  0  0
M  CHG  4   5   1   7   1  15   1  18   1
M  END
$$$$
