5OD
 OpenBabel04161910033D

 43 45  0  0  0  0  0  0  0  0999 V2000
   21.0324   40.7007    4.8943 C   0  0  0  0  0  0  0  0  0  0  0  0
   22.2531   41.9557    3.4257 C   0  0  0  0  0  0  0  0  0  0  0  0
   26.8802   41.3997    3.8001 C   0  0  0  0  0  0  0  0  0  0  0  0
   27.1715   42.6909    3.0135 C   0  0  0  0  0  0  0  0  0  0  0  0
   25.8962   43.4980    2.7240 C   0  0  0  0  0  0  0  0  0  0  0  0
   24.8132   42.6211    2.1003 C   0  0  0  0  0  0  0  0  0  0  0  0
   19.4440   40.7647    6.8644 C   0  0  0  0  0  0  0  0  0  0  0  0
   18.1474   40.6025    7.3733 C   0  0  0  0  0  0  0  0  0  0  0  0
   17.1140   40.1695    6.5369 C   0  0  0  0  0  0  0  0  0  0  0  0
   17.3636   39.9076    5.1938 C   0  0  0  0  0  0  0  0  0  0  0  0
   18.6514   40.0723    4.6864 C   0  0  0  0  0  0  0  0  0  0  0  0
   27.9640   42.4195    1.7278 C   0  0  0  0  0  0  0  0  0  0  0  0
   21.0693   41.7409    4.0279 N   0  0  0  0  0  0  0  0  0  0  0  0
   23.4173   41.2126    3.6447 C   0  0  0  0  0  0  0  0  0  0  0  0
   23.3633   40.2011    4.5395 N   0  0  0  0  0  0  0  0  0  0  0  0
   22.1767   39.9269    5.1550 C   0  0  0  0  0  0  0  0  0  0  0  0
   22.1240   38.7556    5.9136 N   0  0  0  0  0  0  0  0  0  0  0  0
   19.7157   40.4947    5.5095 C   0  0  0  0  0  0  0  0  0  0  0  0
   24.6090   41.4780    2.9788 N   0  0  0  0  0  0  0  0  0  0  0  0
   25.7492   40.5883    3.1566 C   0  0  0  0  0  0  0  0  0  0  0  0
   20.7206   41.3469    7.9046 Cl  0  0  0  0  0  0  0  0  0  0  0  0
   17.7457   40.9194    9.0260 Cl  0  0  0  0  0  0  0  0  0  0  0  0
   28.0617   43.5545    3.8757 N   0  3  0  0  0  0  0  0  0  0  0  0
   22.1992   42.7718    2.7196 H   0  0  0  0  0  0  0  0  0  0  0  0
   26.5800   41.6524    4.8262 H   0  0  0  0  0  0  0  0  0  0  0  0
   27.7821   40.7810    3.8792 H   0  0  0  0  0  0  0  0  0  0  0  0
   26.1101   44.3441    2.0596 H   0  0  0  0  0  0  0  0  0  0  0  0
   25.5051   43.9233    3.6588 H   0  0  0  0  0  0  0  0  0  0  0  0
   25.1164   42.2711    1.1061 H   0  0  0  0  0  0  0  0  0  0  0  0
   23.9302   43.2406    1.9386 H   0  0  0  0  0  0  0  0  0  0  0  0
   16.1054   40.0465    6.9277 H   0  0  0  0  0  0  0  0  0  0  0  0
   16.5578   39.5817    4.5413 H   0  0  0  0  0  0  0  0  0  0  0  0
   18.8296   39.8871    3.6272 H   0  0  0  0  0  0  0  0  0  0  0  0
   28.9027   41.8967    1.9425 H   0  0  0  0  0  0  0  0  0  0  0  0
   28.2189   43.3566    1.2178 H   0  0  0  0  0  0  0  0  0  0  0  0
   27.4001   41.8061    1.0189 H   0  0  0  0  0  0  0  0  0  0  0  0
   23.0559   38.4176    6.1195 H   0  0  0  0  0  0  0  0  0  0  0  0
   21.5071   38.7860    6.7159 H   0  0  0  0  0  0  0  0  0  0  0  0
   25.5444   39.7040    3.7693 H   0  0  0  0  0  0  0  0  0  0  0  0
   26.0691   40.2077    2.1788 H   0  0  0  0  0  0  0  0  0  0  0  0
   28.2896   44.4491    3.4201 H   0  0  0  0  0  0  0  0  0  0  0  0
   27.6087   43.7777    4.7734 H   0  0  0  0  0  0  0  0  0  0  0  0
   28.9515   43.0867    4.0951 H   0  0  0  0  0  0  0  0  0  0  0  0
  1 13  2  0  0  0  0
  1 16  1  0  0  0  0
  1 18  1  0  0  0  0
  2 13  1  0  0  0  0
  2 14  2  0  0  0  0
  2 24  1  0  0  0  0
  3  4  1  0  0  0  0
  3 20  1  0  0  0  0
  3 25  1  0  0  0  0
  3 26  1  0  0  0  0
  4  5  1  0  0  0  0
  4 12  1  0  0  0  0
  4 23  1  0  0  0  0
  5  6  1  0  0  0  0
  5 27  1  0  0  0  0
  5 28  1  0  0  0  0
  6 19  1  0  0  0  0
  6 29  1  0  0  0  0
  6 30  1  0  0  0  0
  7  8  2  0  0  0  0
  7 18  1  0  0  0  0
  7 21  1  0  0  0  0
  8  9  1  0  0  0  0
  8 22  1  0  0  0  0
  9 10  2  0  0  0  0
  9 31  1  0  0  0  0
 10 11  1  0  0  0  0
 10 32  1  0  0  0  0
 11 18  2  0  0  0  0
 11 33  1  0  0  0  0
 12 34  1  0  0  0  0
 12 35  1  0  0  0  0
 12 36  1  0  0  0  0
 14 15  1  0  0  0  0
 14 19  1  0  0  0  0
 15 16  2  0  0  0  0
 16 17  1  0  0  0  0
 17 37  1  0  0  0  0
 17 38  1  0  0  0  0
 19 20  1  0  0  0  0
 20 39  1  0  0  0  0
 20 40  1  0  0  0  0
 23 41  1  0  0  0  0
 23 42  1  0  0  0  0
 23 43  1  0  0  0  0
M  CHG  1  23   1
M  END
$$$$
