5OJ
 OpenBabel04161910013D

 41 42  0  0  0  0  0  0  0  0999 V2000
   -8.9437   14.8856   27.8673 O   0  0  0  0  0  0  0  0  0  0  0  0
   -8.0890   15.7391   28.1299 C   0  0  0  0  0  0  0  0  0  0  0  0
   -7.4147   15.7115   29.3581 N   0  0  0  0  0  0  0  0  0  0  0  0
   -7.7714   14.6609   30.3312 C   0  0  0  0  0  0  0  0  0  0  0  0
   -7.1169   13.3015   30.0699 C   0  0  0  0  0  0  0  0  0  0  0  0
   -7.5694   12.3540   31.0357 O   0  0  0  0  0  0  0  0  0  0  0  0
   -6.4595   16.6708   29.7863 C   0  0  0  0  0  0  0  0  0  0  0  0
   -6.8140   18.0077   29.9959 C   0  0  0  0  0  0  0  0  0  0  0  0
   -5.8575   18.9243   30.4534 C   0  0  0  0  0  0  0  0  0  0  0  0
   -4.5469   18.5141   30.6935 C   0  0  0  0  0  0  0  0  0  0  0  0
   -4.1934   17.1814   30.5027 C   0  0  0  0  0  0  0  0  0  0  0  0
   -5.1503   16.2618   30.0663 C   0  0  0  0  0  0  0  0  0  0  0  0
   -7.7211   16.8189   27.1013 C   0  0  0  0  0  0  0  0  0  0  0  0
   -7.9764   16.4439   25.6411 C   0  0  0  0  0  0  0  0  0  0  0  0
   -8.6457   17.3111   24.7609 C   0  0  0  0  0  0  0  0  0  0  0  0
   -8.8320   16.9710   23.4055 C   0  0  0  0  0  0  0  0  0  0  0  0
   -7.4680   15.2451   25.1188 C   0  0  0  0  0  0  0  0  0  0  0  0
   -7.6512   14.9059   23.7693 C   0  0  0  0  0  0  0  0  0  0  0  0
   -8.3475   15.7557   22.9016 C   0  0  0  0  0  0  0  0  0  0  0  0
   -8.5486   15.4144   21.4526 C   0  0  0  0  0  0  0  0  0  0  0  0
   -8.8270   16.2962   20.6543 O   0  0  0  0  0  0  0  0  0  0  0  0
   -8.3992   14.0761   21.1321 N   0  0  0  0  0  0  0  0  0  0  0  0
   -8.5706   13.7094   19.7849 O   0  0  0  0  0  0  0  0  0  0  0  0
   -8.8619   14.5304   30.3175 H   0  0  0  0  0  0  0  0  0  0  0  0
   -7.5402   14.9971   31.3509 H   0  0  0  0  0  0  0  0  0  0  0  0
   -6.0296   13.3652   30.1594 H   0  0  0  0  0  0  0  0  0  0  0  0
   -7.3594   12.9266   29.0711 H   0  0  0  0  0  0  0  0  0  0  0  0
   -7.1559   11.5005   30.8178 H   0  0  0  0  0  0  0  0  0  0  0  0
   -7.8381   18.3426   29.8564 H   0  0  0  0  0  0  0  0  0  0  0  0
   -6.1354   19.9608   30.6339 H   0  0  0  0  0  0  0  0  0  0  0  0
   -3.8018   19.2289   31.0376 H   0  0  0  0  0  0  0  0  0  0  0  0
   -3.1736   16.8555   30.6918 H   0  0  0  0  0  0  0  0  0  0  0  0
   -4.8452   15.2319   29.9166 H   0  0  0  0  0  0  0  0  0  0  0  0
   -6.6579   17.0793   27.1769 H   0  0  0  0  0  0  0  0  0  0  0  0
   -8.3095   17.7108   27.3512 H   0  0  0  0  0  0  0  0  0  0  0  0
   -9.0290   18.2657   25.1146 H   0  0  0  0  0  0  0  0  0  0  0  0
   -9.3522   17.6629   22.7462 H   0  0  0  0  0  0  0  0  0  0  0  0
   -6.9219   14.5554   25.7595 H   0  0  0  0  0  0  0  0  0  0  0  0
   -7.2082   13.9795   23.4267 H   0  0  0  0  0  0  0  0  0  0  0  0
   -8.3079   13.3391   21.8182 H   0  0  0  0  0  0  0  0  0  0  0  0
   -8.4533   12.7405   19.7906 H   0  0  0  0  0  0  0  0  0  0  0  0
  1  2  2  0  0  0  0
  2  3  1  0  0  0  0
  2 13  1  0  0  0  0
  3  4  1  0  0  0  0
  3  7  1  0  0  0  0
  4  5  1  0  0  0  0
  4 24  1  0  0  0  0
  4 25  1  0  0  0  0
  5  6  1  0  0  0  0
  5 26  1  0  0  0  0
  5 27  1  0  0  0  0
  6 28  1  0  0  0  0
  7  8  2  0  0  0  0
  7 12  1  0  0  0  0
  8  9  1  0  0  0  0
  8 29  1  0  0  0  0
  9 10  2  0  0  0  0
  9 30  1  0  0  0  0
 10 11  1  0  0  0  0
 10 31  1  0  0  0  0
 11 12  2  0  0  0  0
 11 32  1  0  0  0  0
 12 33  1  0  0  0  0
 13 14  1  0  0  0  0
 13 34  1  0  0  0  0
 13 35  1  0  0  0  0
 14 15  2  0  0  0  0
 14 17  1  0  0  0  0
 15 16  1  0  0  0  0
 15 36  1  0  0  0  0
 16 19  2  0  0  0  0
 16 37  1  0  0  0  0
 17 18  2  0  0  0  0
 17 38  1  0  0  0  0
 18 19  1  0  0  0  0
 18 39  1  0  0  0  0
 19 20  1  0  0  0  0
 20 21  2  0  0  0  0
 20 22  1  0  0  0  0
 22 23  1  0  0  0  0
 22 40  1  0  0  0  0
 23 41  1  0  0  0  0
M  END
$$$$
