5ON
 OpenBabel04161910033D

 37 38  0  0  0  0  0  0  0  0999 V2000
   25.3695   10.2100   10.4130 O   0  0  0  0  0  0  0  0  0  0  0  0
   24.2352    9.6670   10.2753 C   0  0  0  0  0  0  0  0  0  0  0  0
   23.7269    9.1197    9.2753 O   0  0  0  0  0  0  0  0  0  0  0  0
   23.3623    9.7411   11.5220 C   0  0  0  0  0  0  0  0  0  0  0  0
   22.2504    8.9984   11.6527 C   0  0  0  0  0  0  0  0  0  0  0  0
   21.3928    9.0808   12.8383 C   0  0  0  0  0  0  0  0  0  0  0  0
   20.3943    8.1317   13.0471 C   0  0  0  0  0  0  0  0  0  0  0  0
   19.5774    8.1971   14.1722 C   0  0  0  0  0  0  0  0  0  0  0  0
   18.5838    7.2886   14.4472 O   0  0  0  0  0  0  0  0  0  0  0  0
   18.4946    6.1850   13.5486 C   0  0  0  0  0  0  0  0  0  0  0  0
   17.4378    5.2681   14.0824 C   0  0  0  0  0  0  0  0  0  0  0  0
   16.0926    5.6354   13.9972 C   0  0  0  0  0  0  0  0  0  0  0  0
   15.1164    4.8221   14.5572 C   0  0  0  0  0  0  0  0  0  0  0  0
   15.4758    3.6281   15.1826 C   0  0  0  0  0  0  0  0  0  0  0  0
   16.8127    3.2255   15.2486 C   0  0  0  0  0  0  0  0  0  0  0  0
   17.1974    1.9278   15.9187 C   0  0  0  0  0  0  0  0  0  0  0  0
   16.3852    0.7281   15.4109 C   0  0  0  0  0  0  0  0  0  0  0  0
   15.3522    0.4440   16.0907 O   0  0  0  0  0  0  0  0  0  0  0  0
   16.8561    0.1284   14.4007 O   0  0  0  0  0  0  0  0  0  0  0  0
   17.7938    4.0660   14.7087 C   0  0  0  0  0  0  0  0  0  0  0  0
   19.7386    9.2287   15.0985 C   0  0  0  0  0  0  0  0  0  0  0  0
   20.7174   10.1906   14.8956 C   0  0  0  0  0  0  0  0  0  0  0  0
   21.5309   10.1102   13.7722 C   0  0  0  0  0  0  0  0  0  0  0  0
   23.6853   10.4165   12.2942 H   0  0  0  0  0  0  0  0  0  0  0  0
   21.9812    8.3064   10.8551 H   0  0  0  0  0  0  0  0  0  0  0  0
   20.2763    7.3415   12.3136 H   0  0  0  0  0  0  0  0  0  0  0  0
   19.4509    5.6447   13.4823 H   0  0  0  0  0  0  0  0  0  0  0  0
   18.2050    6.5153   12.5380 H   0  0  0  0  0  0  0  0  0  0  0  0
   15.8053    6.5596   13.5016 H   0  0  0  0  0  0  0  0  0  0  0  0
   14.0721    5.1078   14.5038 H   0  0  0  0  0  0  0  0  0  0  0  0
   14.7004    2.9892   15.5999 H   0  0  0  0  0  0  0  0  0  0  0  0
   17.0665    2.0375   17.0039 H   0  0  0  0  0  0  0  0  0  0  0  0
   18.2655    1.7316   15.7566 H   0  0  0  0  0  0  0  0  0  0  0  0
   18.8403    3.7748   14.7630 H   0  0  0  0  0  0  0  0  0  0  0  0
   19.1054    9.2904   15.9824 H   0  0  0  0  0  0  0  0  0  0  0  0
   20.8628   11.0044   15.5973 H   0  0  0  0  0  0  0  0  0  0  0  0
   22.2875   10.8810   13.6388 H   0  0  0  0  0  0  0  0  0  0  0  0
  1  2  2  0  0  0  0
  2  3  1  0  0  0  0
  2  4  1  0  0  0  0
  4  5  2  0  0  0  0
  4 24  1  0  0  0  0
  5  6  1  0  0  0  0
  5 25  1  0  0  0  0
  6  7  2  0  0  0  0
  6 23  1  0  0  0  0
  7  8  1  0  0  0  0
  7 26  1  0  0  0  0
  8  9  1  0  0  0  0
  8 21  2  0  0  0  0
  9 10  1  0  0  0  0
 10 11  1  0  0  0  0
 10 27  1  0  0  0  0
 10 28  1  0  0  0  0
 11 12  2  0  0  0  0
 11 20  1  0  0  0  0
 12 13  1  0  0  0  0
 12 29  1  0  0  0  0
 13 14  2  0  0  0  0
 13 30  1  0  0  0  0
 14 15  1  0  0  0  0
 14 31  1  0  0  0  0
 15 16  1  0  0  0  0
 15 20  2  0  0  0  0
 16 17  1  0  0  0  0
 16 32  1  0  0  0  0
 16 33  1  0  0  0  0
 17 18  2  0  0  0  0
 17 19  1  0  0  0  0
 20 34  1  0  0  0  0
 21 22  1  0  0  0  0
 21 35  1  0  0  0  0
 22 23  2  0  0  0  0
 22 36  1  0  0  0  0
 23 37  1  0  0  0  0
M  END
$$$$
