5OU
 OpenBabel04161910033D

 34 36  0  0  0  0  0  0  0  0999 V2000
  -24.3780   -6.8346   77.2898 C   0  0  0  0  0  0  0  0  0  0  0  0
  -23.4973   -5.9537   77.8392 C   0  0  0  0  0  0  0  0  0  0  0  0
  -22.2019   -5.7337   77.3039 C   0  0  0  0  0  0  0  0  0  0  0  0
  -25.4145   -5.9667   78.9196 C   0  0  0  0  0  0  0  0  0  0  0  0
  -21.9502   -6.4942   76.1890 N   0  3  0  0  0  0  0  0  0  0  0  0
  -24.0483   -7.5794   76.1803 N   0  3  0  0  0  0  0  0  0  0  0  0
  -23.8368   -2.9995   79.1738 C   0  0  0  0  0  0  0  0  0  0  0  0
  -23.6718   -4.3767   79.7856 C   0  0  0  0  0  0  0  0  0  0  0  0
  -24.1650   -5.4057   78.8944 N   0  3  0  0  0  0  0  0  0  0  0  0
  -25.5674   -6.8537   77.9556 N   0  0  0  0  0  0  0  0  0  0  0  0
  -21.3754   -4.9523   77.7646 O   0  0  0  0  0  0  0  0  0  0  0  0
  -22.8001   -7.4010   75.5910 C   0  0  0  0  0  0  0  0  0  0  0  0
  -22.4224   -7.9987   74.5822 O   0  0  0  0  0  0  0  0  0  0  0  0
  -25.0230   -8.4397   75.5437 C   0  0  0  0  0  0  0  0  0  0  0  0
  -25.8552   -7.6558   74.5599 C   0  0  0  0  0  0  0  0  0  0  0  0
  -27.0339   -7.0310   74.9831 C   0  0  0  0  0  0  0  0  0  0  0  0
  -27.7824   -6.2698   74.0905 C   0  0  0  0  0  0  0  0  0  0  0  0
  -27.3513   -6.1203   72.7743 C   0  0  0  0  0  0  0  0  0  0  0  0
  -28.2985   -5.1952   71.6764 Cl  0  0  0  0  0  0  0  0  0  0  0  0
  -26.1641   -6.7127   72.3470 C   0  0  0  0  0  0  0  0  0  0  0  0
  -25.4146   -7.4752   73.2422 C   0  0  0  0  0  0  0  0  0  0  0  0
  -26.1712   -5.6972   79.6467 H   0  0  0  0  0  0  0  0  0  0  0  0
  -21.0489   -6.3764   75.7477 H   0  0  0  0  0  0  0  0  0  0  0  0
  -23.4513   -2.2308   79.8486 H   0  0  0  0  0  0  0  0  0  0  0  0
  -24.8926   -2.7910   78.9724 H   0  0  0  0  0  0  0  0  0  0  0  0
  -23.2963   -2.9264   78.2242 H   0  0  0  0  0  0  0  0  0  0  0  0
  -24.2204   -4.4490   80.7306 H   0  0  0  0  0  0  0  0  0  0  0  0
  -22.6188   -4.5882   79.9972 H   0  0  0  0  0  0  0  0  0  0  0  0
  -25.6593   -8.8995   76.3095 H   0  0  0  0  0  0  0  0  0  0  0  0
  -24.5169   -9.2629   75.0250 H   0  0  0  0  0  0  0  0  0  0  0  0
  -27.3593   -7.1236   76.0180 H   0  0  0  0  0  0  0  0  0  0  0  0
  -28.6985   -5.7982   74.4321 H   0  0  0  0  0  0  0  0  0  0  0  0
  -25.8144   -6.5887   71.3261 H   0  0  0  0  0  0  0  0  0  0  0  0
  -24.4759   -7.9227   72.9194 H   0  0  0  0  0  0  0  0  0  0  0  0
  1  2  2  0  0  0  0
  1  6  1  0  0  0  0
  1 10  1  0  0  0  0
  2  3  1  0  0  0  0
  2  9  1  0  0  0  0
  3  5  1  0  0  0  0
  3 11  2  0  0  0  0
  4  9  2  0  0  0  0
  4 10  1  0  0  0  0
  4 22  1  0  0  0  0
  5 12  1  0  0  0  0
  5 23  1  0  0  0  0
  6 12  1  0  0  0  0
  6 14  1  0  0  0  0
  7  8  1  0  0  0  0
  7 24  1  0  0  0  0
  7 25  1  0  0  0  0
  7 26  1  0  0  0  0
  8  9  1  0  0  0  0
  8 27  1  0  0  0  0
  8 28  1  0  0  0  0
 12 13  2  0  0  0  0
 14 15  1  0  0  0  0
 14 29  1  0  0  0  0
 14 30  1  0  0  0  0
 15 16  2  0  0  0  0
 15 21  1  0  0  0  0
 16 17  1  0  0  0  0
 16 31  1  0  0  0  0
 17 18  2  0  0  0  0
 17 32  1  0  0  0  0
 18 19  1  0  0  0  0
 18 20  1  0  0  0  0
 20 21  2  0  0  0  0
 20 33  1  0  0  0  0
 21 34  1  0  0  0  0
M  CHG  3   5   1   6   1   9   1
M  END
$$$$
