5P8
 OpenBabel04161909343D

 49 52  0  0  1  0  0  0  0  0999 V2000
   26.6711   48.7947    7.2701 C   0  0  0  0  0  0  0  0  0  0  0  0
   34.5229   47.0011    8.9232 C   0  0  0  0  0  0  0  0  0  0  0  0
   34.9565   46.7947   10.2380 C   0  0  0  0  0  0  0  0  0  0  0  0
   29.9816   45.8794    8.4768 C   0  0  0  0  0  0  0  0  0  0  0  0
   33.6218   44.7774   10.3526 C   0  0  0  0  0  0  0  0  0  0  0  0
   27.8949   46.5188    9.3383 C   0  0  0  0  0  0  0  0  0  0  0  0
   28.0879   48.9184    7.2103 C   0  0  0  0  0  0  0  0  0  0  0  0
   28.9640   46.8467    8.5053 C   0  0  0  0  0  0  0  0  0  0  0  0
   29.1083   48.1021    7.7250 C   0  0  0  0  0  0  0  0  0  0  0  0
   33.6126   46.1067    8.3175 C   0  0  0  0  0  0  0  0  0  0  0  0
   33.1560   44.9551    9.0239 C   0  0  0  0  0  0  0  0  0  0  0  0
   29.9560   44.7016    9.2341 C   0  0  0  0  0  0  0  0  0  0  0  0
   34.5017   45.6913   10.9378 C   0  0  0  0  0  0  0  0  0  0  0  0
   30.3245   48.7627    7.2771 C   0  0  0  0  0  0  0  0  0  0  0  0
   28.8256   44.4705   10.0319 C   0  0  0  0  0  0  0  0  0  0  0  0
   33.2503   46.3921    6.8960 C   0  0  0  0  0  0  0  0  0  0  0  0
   31.7945   48.4274    7.5330 C   0  0  0  0  0  0  0  0  0  0  0  0
   32.1741   43.9276    8.4315 C   0  0  1  0  0  0  0  0  0  0  0  0
   32.8193   42.5214    8.3453 C   0  0  0  0  0  0  0  0  0  0  0  0
   28.1173   51.0760    5.8385 C   0  0  0  0  0  0  0  0  0  0  0  0
   32.1225   47.6911    5.1436 C   0  0  0  0  0  0  0  0  0  0  0  0
   25.5058   48.7223    7.3138 N   0  0  0  0  0  0  0  0  0  0  0  0
   27.8081   45.3693   10.0918 N   0  0  0  0  0  0  0  0  0  0  0  0
   30.0515   49.8841    6.5901 N   0  0  0  0  0  0  0  0  0  0  0  0
   28.7130   49.9576    6.5490 N   0  3  0  0  0  0  0  0  0  0  0  0
   32.3884   47.4627    6.5666 N   0  0  0  0  0  0  0  0  0  0  0  0
   28.7185   43.3103   10.7893 N   0  0  0  0  0  0  0  0  0  0  0  0
   33.7360   45.6307    6.0609 O   0  0  0  0  0  0  0  0  0  0  0  0
   30.9737   43.7666    9.2443 O   0  0  0  0  0  0  0  0  0  0  0  0
   34.9247   45.5086   12.2046 F   0  0  0  0  0  0  0  0  0  0  0  0
   34.9141   47.8464    8.3640 H   0  0  0  0  0  0  0  0  0  0  0  0
   35.6526   47.4889   10.7090 H   0  0  0  0  0  0  0  0  0  0  0  0
   30.8214   46.0505    7.8354 H   0  0  0  0  0  0  0  0  0  0  0  0
   33.2905   43.9292   10.9483 H   0  0  0  0  0  0  0  0  0  0  0  0
   27.0395   47.1762    9.4591 H   0  0  0  0  0  0  0  0  0  0  0  0
   31.8960   48.0512    8.5515 H   0  0  0  0  0  0  0  0  0  0  0  0
   32.3807   49.3566    7.4738 H   0  0  0  0  0  0  0  0  0  0  0  0
   31.8920   44.1897    7.4074 H   0  0  0  0  0  0  0  0  0  0  0  0
   32.1143   41.7873    7.9307 H   0  0  0  0  0  0  0  0  0  0  0  0
   33.0996   42.1355    9.3331 H   0  0  0  0  0  0  0  0  0  0  0  0
   33.7167   42.5162    7.7163 H   0  0  0  0  0  0  0  0  0  0  0  0
   28.9093   51.7205    5.4344 H   0  0  0  0  0  0  0  0  0  0  0  0
   27.5073   51.6601    6.5323 H   0  0  0  0  0  0  0  0  0  0  0  0
   27.5136   50.6978    5.0094 H   0  0  0  0  0  0  0  0  0  0  0  0
   32.6173   46.9469    4.5129 H   0  0  0  0  0  0  0  0  0  0  0  0
   32.4714   48.6842    4.8422 H   0  0  0  0  0  0  0  0  0  0  0  0
   31.0472   47.6114    4.9593 H   0  0  0  0  0  0  0  0  0  0  0  0
   27.9046   43.1470   11.3567 H   0  0  0  0  0  0  0  0  0  0  0  0
   29.4660   42.6266   10.7585 H   0  0  0  0  0  0  0  0  0  0  0  0
  1  7  1  0  0  0  0
  1 22  3  0  0  0  0
  2  3  2  0  0  0  0
  2 10  1  0  0  0  0
  2 31  1  0  0  0  0
  3 13  1  0  0  0  0
  3 32  1  0  0  0  0
  4  8  2  0  0  0  0
  4 12  1  0  0  0  0
  4 33  1  0  0  0  0
  5 11  1  0  0  0  0
  5 13  2  0  0  0  0
  5 34  1  0  0  0  0
  6  8  1  0  0  0  0
  6 23  2  0  0  0  0
  6 35  1  0  0  0  0
  7  9  1  0  0  0  0
  7 25  2  0  0  0  0
  8  9  1  0  0  0  0
  9 14  2  0  0  0  0
 10 11  2  0  0  0  0
 10 16  1  0  0  0  0
 11 18  1  0  0  0  0
 12 15  2  0  0  0  0
 12 29  1  0  0  0  0
 13 30  1  0  0  0  0
 14 17  1  0  0  0  0
 14 24  1  0  0  0  0
 15 23  1  0  0  0  0
 15 27  1  0  0  0  0
 16 26  1  0  0  0  0
 16 28  2  0  0  0  0
 17 26  1  0  0  0  0
 17 36  1  0  0  0  0
 17 37  1  0  0  0  0
 18 19  1  0  0  0  0
 18 29  1  0  0  0  0
 18 38  1  6  0  0  0
 19 39  1  0  0  0  0
 19 40  1  0  0  0  0
 19 41  1  0  0  0  0
 20 25  1  0  0  0  0
 20 42  1  0  0  0  0
 20 43  1  0  0  0  0
 20 44  1  0  0  0  0
 21 26  1  0  0  0  0
 21 45  1  0  0  0  0
 21 46  1  0  0  0  0
 21 47  1  0  0  0  0
 24 25  1  0  0  0  0
 27 48  1  0  0  0  0
 27 49  1  0  0  0  0
M  CHG  1  25   1
M  END
$$$$
