5R2
 OpenBabel04161910053D

105110  0  0  1  0  0  0  0  0999 V2000
  -15.0984  -18.4066   17.2515 C   0  0  0  0  0  0  0  0  0  0  0  0
  -17.3492  -20.1362   16.2423 C   0  0  2  0  0  0  0  0  0  0  0  0
  -16.7914  -21.9417   17.9453 C   0  0  0  0  0  0  0  0  0  0  0  0
  -15.3881  -24.0055   17.4854 C   0  0  0  0  0  0  0  0  0  0  0  0
  -14.3169  -23.9091   14.5859 C   0  0  0  0  0  0  0  0  0  0  0  0
  -13.1109  -23.8445   13.7434 C   0  0  1  0  0  0  0  0  0  0  0  0
  -12.7425  -22.8192   12.7514 C   0  0  0  0  0  0  0  0  0  0  0  0
  -15.3848  -14.4840   12.5525 C   0  0  0  0  0  0  0  0  0  0  0  0
  -14.7827  -15.4167   13.5719 C   0  0  0  0  0  0  0  0  0  0  0  0
  -13.8384  -14.7684   14.5424 C   0  0  0  0  0  0  0  0  0  0  0  0
  -13.6669  -15.3710   15.7844 C   0  0  0  0  0  0  0  0  0  0  0  0
  -14.4622  -16.4616   16.0519 O   0  0  0  0  0  0  0  0  0  0  0  0
  -14.0008  -17.3653   17.0509 C   0  0  2  0  0  0  0  0  0  0  0  0
  -12.8308  -18.2120   16.5280 C   0  0  0  0  0  0  0  0  0  0  0  0
  -13.5090  -19.3737   15.7343 C   0  0  2  0  0  0  0  0  0  0  0  0
  -14.9265  -19.3840   16.2024 N   0  0  0  0  0  0  0  0  0  0  0  0
  -15.9012  -20.1557   15.6130 C   0  0  0  0  0  0  0  0  0  0  0  0
  -15.6558  -20.8696   14.6346 O   0  0  0  0  0  0  0  0  0  0  0  0
  -17.7483  -21.4750   16.8508 C   0  0  0  0  0  0  0  0  0  0  0  0
  -16.7059  -23.4668   18.0369 C   0  0  0  0  0  0  0  0  0  0  0  0
  -15.5995  -25.0492   16.3897 C   0  0  0  0  0  0  0  0  0  0  0  0
  -14.3894  -25.1509   15.4637 C   0  0  0  0  0  0  0  0  0  0  0  0
  -12.1609  -22.6940   14.1709 C   0  0  1  0  0  0  0  0  0  0  0  0
  -12.4702  -21.3097   14.6072 N   0  0  0  0  0  0  0  0  0  0  0  0
  -12.9888  -20.8560   15.8193 C   0  0  0  0  0  0  0  0  0  0  0  0
  -13.0904  -21.5597   16.8178 O   0  0  0  0  0  0  0  0  0  0  0  0
  -10.9199  -23.3241   14.7580 C   0  0  0  0  0  0  0  0  0  0  0  0
  -10.6269  -24.4974   14.5029 O   0  0  0  0  0  0  0  0  0  0  0  0
  -10.1749  -22.5365   15.6485 N   0  0  0  0  0  0  0  0  0  0  0  0
   -8.9333  -23.2306   16.5114 S   0  0  0  0  0  0  0  0  0  0  0  0
   -7.9434  -23.6442   15.5389 O   0  0  0  0  0  0  0  0  0  0  0  0
   -9.4816  -24.1419   17.4787 O   0  0  0  0  0  0  0  0  0  0  0  0
   -8.1516  -21.9119   17.5117 C   0  0  0  0  0  0  0  0  0  0  0  0
   -7.0646  -21.1472   16.8063 C   0  0  0  0  0  0  0  0  0  0  0  0
   -6.6984  -22.2142   17.8049 C   0  0  0  0  0  0  0  0  0  0  0  0
  -18.3001  -19.8003   15.2000 N   0  0  0  0  0  0  0  0  0  0  0  0
  -18.5158  -18.5154   14.8362 C   0  0  0  0  0  0  0  0  0  0  0  0
  -18.0373  -17.5394   15.3589 O   0  0  0  0  0  0  0  0  0  0  0  0
  -19.4010  -18.5251   13.8031 O   0  0  0  0  0  0  0  0  0  0  0  0
  -19.8975  -17.2824   13.2591 C   0  0  0  0  0  0  0  0  0  0  0  0
  -20.6470  -16.4737   14.3150 C   0  0  0  0  0  0  0  0  0  0  0  0
  -20.8890  -17.7128   12.1769 C   0  0  0  0  0  0  0  0  0  0  0  0
  -18.7979  -16.4430   12.6123 C   0  0  0  0  0  0  0  0  0  0  0  0
  -12.7835  -14.9272   16.6940 N   0  0  0  0  0  0  0  0  0  0  0  0
  -12.0789  -13.8363   16.3318 C   0  0  0  0  0  0  0  0  0  0  0  0
  -11.1702  -13.3076   17.2359 C   0  0  0  0  0  0  0  0  0  0  0  0
  -10.4080  -12.1757   16.9134 C   0  0  0  0  0  0  0  0  0  0  0  0
   -9.4936  -11.5901   17.7517 O   0  0  0  0  0  0  0  0  0  0  0  0
   -9.2301  -12.2579   18.9817 C   0  0  0  0  0  0  0  0  0  0  0  0
  -10.5625  -11.5759   15.6810 C   0  0  0  0  0  0  0  0  0  0  0  0
  -11.4564  -12.0902   14.7601 C   0  0  0  0  0  0  0  0  0  0  0  0
  -12.2337  -13.2132   15.0648 C   0  0  0  0  0  0  0  0  0  0  0  0
  -13.1017  -13.6942   14.1587 N   0  0  0  0  0  0  0  0  0  0  0  0
  -16.0877  -17.9573   17.1808 H   0  0  0  0  0  0  0  0  0  0  0  0
  -14.9792  -18.9518   18.1916 H   0  0  0  0  0  0  0  0  0  0  0  0
  -17.4186  -19.3801   17.0151 H   0  0  0  0  0  0  0  0  0  0  0  0
  -17.1447  -21.5451   18.9012 H   0  0  0  0  0  0  0  0  0  0  0  0
  -15.7989  -21.5072   17.7910 H   0  0  0  0  0  0  0  0  0  0  0  0
  -14.7971  -24.4537   18.2927 H   0  0  0  0  0  0  0  0  0  0  0  0
  -14.7879  -23.1808   17.1146 H   0  0  0  0  0  0  0  0  0  0  0  0
  -15.2267  -23.7674   14.0042 H   0  0  0  0  0  0  0  0  0  0  0  0
  -14.2336  -23.0725   15.2631 H   0  0  0  0  0  0  0  0  0  0  0  0
  -12.7670  -24.8395   13.4428 H   0  0  0  0  0  0  0  0  0  0  0  0
  -13.5802  -22.1904   12.4484 H   0  0  0  0  0  0  0  0  0  0  0  0
  -12.0399  -23.0047   11.9475 H   0  0  0  0  0  0  0  0  0  0  0  0
  -16.0752  -15.0560   11.9268 H   0  0  0  0  0  0  0  0  0  0  0  0
  -14.6133  -14.0469   11.9146 H   0  0  0  0  0  0  0  0  0  0  0  0
  -15.9416  -13.6805   13.0448 H   0  0  0  0  0  0  0  0  0  0  0  0
  -14.2483  -16.2297   13.0685 H   0  0  0  0  0  0  0  0  0  0  0  0
  -15.6199  -15.8507   14.1294 H   0  0  0  0  0  0  0  0  0  0  0  0
  -13.7916  -16.8291   17.9826 H   0  0  0  0  0  0  0  0  0  0  0  0
  -12.1970  -18.4833   17.3768 H   0  0  0  0  0  0  0  0  0  0  0  0
  -12.2334  -17.5948   15.8458 H   0  0  0  0  0  0  0  0  0  0  0  0
  -13.4500  -19.0755   14.6821 H   0  0  0  0  0  0  0  0  0  0  0  0
  -17.8602  -22.2354   16.0614 H   0  0  0  0  0  0  0  0  0  0  0  0
  -18.7456  -21.3575   17.2905 H   0  0  0  0  0  0  0  0  0  0  0  0
  -17.5585  -23.9306   17.5309 H   0  0  0  0  0  0  0  0  0  0  0  0
  -16.7630  -23.7507   19.0917 H   0  0  0  0  0  0  0  0  0  0  0  0
  -16.4851  -24.7992   15.7927 H   0  0  0  0  0  0  0  0  0  0  0  0
  -15.7764  -26.0207   16.8589 H   0  0  0  0  0  0  0  0  0  0  0  0
  -13.4728  -25.2525   16.0615 H   0  0  0  0  0  0  0  0  0  0  0  0
  -14.4805  -26.0372   14.8286 H   0  0  0  0  0  0  0  0  0  0  0  0
  -12.4770  -20.6517   13.8355 H   0  0  0  0  0  0  0  0  0  0  0  0
  -10.5464  -21.6471   15.9600 H   0  0  0  0  0  0  0  0  0  0  0  0
   -8.7457  -21.4599   18.2904 H   0  0  0  0  0  0  0  0  0  0  0  0
   -6.8789  -20.1167   17.0849 H   0  0  0  0  0  0  0  0  0  0  0  0
   -6.8914  -21.3491   15.7536 H   0  0  0  0  0  0  0  0  0  0  0  0
   -6.2768  -23.1485   17.4413 H   0  0  0  0  0  0  0  0  0  0  0  0
   -6.2662  -21.9034   18.7489 H   0  0  0  0  0  0  0  0  0  0  0  0
  -18.7366  -20.5240   14.6460 H   0  0  0  0  0  0  0  0  0  0  0  0
  -21.0994  -15.5819   13.8729 H   0  0  0  0  0  0  0  0  0  0  0  0
  -19.9809  -16.1462   15.1162 H   0  0  0  0  0  0  0  0  0  0  0  0
  -21.4325  -17.0820   14.7756 H   0  0  0  0  0  0  0  0  0  0  0  0
  -21.3773  -16.8499   11.7151 H   0  0  0  0  0  0  0  0  0  0  0  0
  -21.6571  -18.3689   12.6028 H   0  0  0  0  0  0  0  0  0  0  0  0
  -20.3800  -18.2906   11.3964 H   0  0  0  0  0  0  0  0  0  0  0  0
  -19.2158  -15.5315   12.1707 H   0  0  0  0  0  0  0  0  0  0  0  0
  -18.2852  -17.0071   11.8261 H   0  0  0  0  0  0  0  0  0  0  0  0
  -18.0411  -16.1425   13.3400 H   0  0  0  0  0  0  0  0  0  0  0  0
  -11.0909  -13.7996   18.1959 H   0  0  0  0  0  0  0  0  0  0  0  0
   -8.4917  -11.6698   19.5339 H   0  0  0  0  0  0  0  0  0  0  0  0
   -8.8047  -13.2510   18.8009 H   0  0  0  0  0  0  0  0  0  0  0  0
  -10.1318  -12.3235   19.5999 H   0  0  0  0  0  0  0  0  0  0  0  0
   -9.9779  -10.6996   15.4285 H   0  0  0  0  0  0  0  0  0  0  0  0
  -11.5937  -11.6146   13.7913 H   0  0  0  0  0  0  0  0  0  0  0  0
  1 13  1  0  0  0  0
  1 16  1  0  0  0  0
  1 54  1  0  0  0  0
  1 55  1  0  0  0  0
  2 17  1  0  0  0  0
  2 19  1  0  0  0  0
  2 36  1  0  0  0  0
  2 56  1  1  0  0  0
  3 19  1  0  0  0  0
  3 20  1  0  0  0  0
  3 57  1  0  0  0  0
  3 58  1  0  0  0  0
  4 20  1  0  0  0  0
  4 21  1  0  0  0  0
  4 59  1  0  0  0  0
  4 60  1  0  0  0  0
  5  6  1  0  0  0  0
  5 22  1  0  0  0  0
  5 61  1  0  0  0  0
  5 62  1  0  0  0  0
  6  7  1  0  0  0  0
  6 23  1  0  0  0  0
  6 63  1  6  0  0  0
  7 23  1  0  0  0  0
  7 64  1  0  0  0  0
  7 65  1  0  0  0  0
  8  9  1  0  0  0  0
  8 66  1  0  0  0  0
  8 67  1  0  0  0  0
  8 68  1  0  0  0  0
  9 10  1  0  0  0  0
  9 69  1  0  0  0  0
  9 70  1  0  0  0  0
 10 11  2  0  0  0  0
 10 53  1  0  0  0  0
 11 12  1  0  0  0  0
 11 44  1  0  0  0  0
 12 13  1  0  0  0  0
 13 14  1  0  0  0  0
 13 71  1  1  0  0  0
 14 15  1  0  0  0  0
 14 72  1  0  0  0  0
 14 73  1  0  0  0  0
 15 16  1  0  0  0  0
 15 25  1  0  0  0  0
 15 74  1  6  0  0  0
 16 17  1  0  0  0  0
 17 18  2  0  0  0  0
 19 75  1  0  0  0  0
 19 76  1  0  0  0  0
 20 77  1  0  0  0  0
 20 78  1  0  0  0  0
 21 22  1  0  0  0  0
 21 79  1  0  0  0  0
 21 80  1  0  0  0  0
 22 81  1  0  0  0  0
 22 82  1  0  0  0  0
 23 24  1  0  0  0  0
 23 27  1  1  0  0  0
 24 25  1  0  0  0  0
 24 83  1  0  0  0  0
 25 26  2  0  0  0  0
 27 28  2  0  0  0  0
 27 29  1  0  0  0  0
 29 30  1  0  0  0  0
 29 84  1  0  0  0  0
 30 31  2  0  0  0  0
 30 32  2  0  0  0  0
 30 33  1  0  0  0  0
 33 34  1  0  0  0  0
 33 35  1  0  0  0  0
 33 85  1  0  0  0  0
 34 35  1  0  0  0  0
 34 86  1  0  0  0  0
 34 87  1  0  0  0  0
 35 88  1  0  0  0  0
 35 89  1  0  0  0  0
 36 37  1  0  0  0  0
 36 90  1  0  0  0  0
 37 38  2  0  0  0  0
 37 39  1  0  0  0  0
 39 40  1  0  0  0  0
 40 41  1  0  0  0  0
 40 42  1  0  0  0  0
 40 43  1  0  0  0  0
 41 91  1  0  0  0  0
 41 92  1  0  0  0  0
 41 93  1  0  0  0  0
 42 94  1  0  0  0  0
 42 95  1  0  0  0  0
 42 96  1  0  0  0  0
 43 97  1  0  0  0  0
 43 98  1  0  0  0  0
 43 99  1  0  0  0  0
 44 45  2  0  0  0  0
 45 46  1  0  0  0  0
 45 52  1  0  0  0  0
 46 47  2  0  0  0  0
 46100  1  0  0  0  0
 47 48  1  0  0  0  0
 47 50  1  0  0  0  0
 48 49  1  0  0  0  0
 49101  1  0  0  0  0
 49102  1  0  0  0  0
 49103  1  0  0  0  0
 50 51  2  0  0  0  0
 50104  1  0  0  0  0
 51 52  1  0  0  0  0
 51105  1  0  0  0  0
 52 53  2  0  0  0  0
M  END
$$$$
