5R9
 OpenBabel04161910053D

 41 43  0  0  1  0  0  0  0  0999 V2000
   18.3159   71.1473   60.9303 N   0  0  0  0  0  0  0  0  0  0  0  0
   18.3324   73.5275   60.1560 C   0  0  0  0  0  0  0  0  0  0  0  0
   17.8286   72.1061   59.9417 C   0  0  0  0  0  0  0  0  0  0  0  0
   18.6675   72.8360   62.7696 C   0  0  0  0  0  0  0  0  0  0  0  0
   17.9967   71.5461   62.3053 C   0  0  0  0  0  0  0  0  0  0  0  0
   17.8107   74.0659   62.5467 C   0  0  0  0  0  0  0  0  0  0  0  0
   17.4771   74.2826   61.1134 N   0  3  1  0  0  0  0  0  0  0  0  0
   19.7522   70.9058   60.7630 C   0  0  0  0  0  0  0  0  0  0  0  0
   17.4751   75.7331   60.7647 C   0  0  0  0  0  0  0  0  0  0  0  0
   16.6474   76.0169   59.5698 C   0  0  0  0  0  0  0  0  0  0  0  0
   15.3291   75.5484   59.4699 C   0  0  0  0  0  0  0  0  0  0  0  0
   14.5762   75.8305   58.3500 C   0  0  0  0  0  0  0  0  0  0  0  0
   15.0665   76.5720   57.2907 C   0  0  0  0  0  0  0  0  0  0  0  0
   16.4071   77.0357   57.4002 C   0  0  0  0  0  0  0  0  0  0  0  0
   17.1736   76.7589   58.5144 C   0  0  0  0  0  0  0  0  0  0  0  0
   14.3226   76.8321   56.2282 N   0  0  0  0  0  0  0  0  0  0  0  0
   14.8666   77.5642   55.2313 C   0  0  0  0  0  0  0  0  0  0  0  0
   16.1657   78.0567   55.2635 C   0  0  0  0  0  0  0  0  0  0  0  0
   16.9435   77.7772   56.3610 C   0  0  0  0  0  0  0  0  0  0  0  0
   18.3951   74.0689   59.2172 H   0  0  0  0  0  0  0  0  0  0  0  0
   19.3564   73.5564   60.5540 H   0  0  0  0  0  0  0  0  0  0  0  0
   16.7310   72.1019   59.9551 H   0  0  0  0  0  0  0  0  0  0  0  0
   18.1411   71.7917   58.9422 H   0  0  0  0  0  0  0  0  0  0  0  0
   19.6349   72.9801   62.2927 H   0  0  0  0  0  0  0  0  0  0  0  0
   18.9199   72.7723   63.8280 H   0  0  0  0  0  0  0  0  0  0  0  0
   18.2974   70.7384   62.9809 H   0  0  0  0  0  0  0  0  0  0  0  0
   16.9081   71.6529   62.3899 H   0  0  0  0  0  0  0  0  0  0  0  0
   18.3535   74.9607   62.8872 H   0  0  0  0  0  0  0  0  0  0  0  0
   16.8691   73.9802   63.0900 H   0  0  0  0  0  0  0  0  0  0  0  0
   19.9818   70.6065   59.7350 H   0  0  0  0  0  0  0  0  0  0  0  0
   20.0940   70.1193   61.4414 H   0  0  0  0  0  0  0  0  0  0  0  0
   20.3542   71.7944   60.9640 H   0  0  0  0  0  0  0  0  0  0  0  0
   18.5315   76.0096   60.5916 H   0  0  0  0  0  0  0  0  0  0  0  0
   17.0919   76.2962   61.6239 H   0  0  0  0  0  0  0  0  0  0  0  0
   14.8923   74.9677   60.2788 H   0  0  0  0  0  0  0  0  0  0  0  0
   13.5425   75.4670   58.2865 H   0  0  0  0  0  0  0  0  0  0  0  0
   18.1982   77.1272   58.5713 H   0  0  0  0  0  0  0  0  0  0  0  0
   14.2404   77.7598   54.3729 H   0  0  0  0  0  0  0  0  0  0  0  0
   16.5464   78.6472   54.4296 H   0  0  0  0  0  0  0  0  0  0  0  0
   17.9711   78.1399   56.4074 H   0  0  0  0  0  0  0  0  0  0  0  0
   16.5016   73.9419   60.9738 H   0  0  0  0  0  0  0  0  0  0  0  0
  1  3  1  0  0  0  0
  1  5  1  0  0  0  0
  1  8  1  0  0  0  0
  2  3  1  0  0  0  0
  2  7  1  0  0  0  0
  2 20  1  0  0  0  0
  2 21  1  0  0  0  0
  3 22  1  0  0  0  0
  3 23  1  0  0  0  0
  4  5  1  0  0  0  0
  4  6  1  0  0  0  0
  4 24  1  0  0  0  0
  4 25  1  0  0  0  0
  5 26  1  0  0  0  0
  5 27  1  0  0  0  0
  6  7  1  0  0  0  0
  6 28  1  0  0  0  0
  6 29  1  0  0  0  0
  7  9  1  0  0  0  0
  7 41  1  6  0  0  0
  8 30  1  0  0  0  0
  8 31  1  0  0  0  0
  8 32  1  0  0  0  0
  9 10  1  0  0  0  0
  9 33  1  0  0  0  0
  9 34  1  0  0  0  0
 10 11  2  0  0  0  0
 10 15  1  0  0  0  0
 11 12  1  0  0  0  0
 11 35  1  0  0  0  0
 12 13  2  0  0  0  0
 12 36  1  0  0  0  0
 13 14  1  0  0  0  0
 13 16  1  0  0  0  0
 14 15  2  0  0  0  0
 14 19  1  0  0  0  0
 15 37  1  0  0  0  0
 16 17  2  0  0  0  0
 17 18  1  0  0  0  0
 17 38  1  0  0  0  0
 18 19  2  0  0  0  0
 18 39  1  0  0  0  0
 19 40  1  0  0  0  0
M  CHG  1   7   1
M  END
$$$$
