5RA
 OpenBabel04161910053D

 71 74  0  0  1  0  0  0  0  0999 V2000
   19.8324   71.4541   60.4528 C   0  0  0  0  0  0  0  0  0  0  0  0
   12.6496   83.5843   50.6549 C   0  0  0  0  0  0  0  0  0  0  0  0
   18.8049   72.4841   62.1892 C   0  0  0  0  0  0  0  0  0  0  0  0
   17.1734   74.4362   62.2194 C   0  0  0  0  0  0  0  0  0  0  0  0
   17.9010   74.5618   59.7742 C   0  0  0  0  0  0  0  0  0  0  0  0
   18.5702   72.1877   60.7709 N   0  0  0  0  0  0  0  0  0  0  0  0
   18.1819   73.6056   62.9622 C   0  0  0  0  0  0  0  0  0  0  0  0
   17.8097   75.2509   61.1099 N   0  3  1  0  0  0  0  0  0  0  0  0
   18.6308   73.2370   59.7531 C   0  0  0  0  0  0  0  0  0  0  0  0
   17.2025   76.6530   61.0295 C   0  0  0  0  0  0  0  0  0  0  0  0
   16.6123   77.1209   59.7168 C   0  0  0  0  0  0  0  0  0  0  0  0
   15.3992   76.6163   59.2120 C   0  0  0  0  0  0  0  0  0  0  0  0
   14.8320   77.0615   57.9856 C   0  0  0  0  0  0  0  0  0  0  0  0
   15.4725   78.0850   57.2236 C   0  0  0  0  0  0  0  0  0  0  0  0
   16.6998   78.5583   57.7773 C   0  0  0  0  0  0  0  0  0  0  0  0
   17.2543   78.1076   58.9808 C   0  0  0  0  0  0  0  0  0  0  0  0
   15.0106   78.6913   55.8989 C   0  0  0  0  0  0  0  0  0  0  0  0
   13.9692   78.1669   55.1225 C   0  0  0  0  0  0  0  0  0  0  0  0
   13.5761   78.7030   53.8699 C   0  0  0  0  0  0  0  0  0  0  0  0
   14.2176   79.8067   53.3192 C   0  0  0  0  0  0  0  0  0  0  0  0
   15.2884   80.3756   54.0412 C   0  0  0  0  0  0  0  0  0  0  0  0
   15.6442   79.8111   55.2939 C   0  0  0  0  0  0  0  0  0  0  0  0
   13.5885   76.3898   57.6138 C   0  0  0  0  0  0  0  0  0  0  0  0
   12.6316   75.8078   57.3587 N   0  0  0  0  0  0  0  0  0  0  0  0
   13.7684   80.3953   51.9908 C   0  0  0  0  0  0  0  0  0  0  0  0
   12.8587   81.5531   52.0562 N   0  0  0  0  0  0  0  0  0  0  0  0
   12.3892   82.0599   50.7433 C   0  0  0  0  0  0  0  0  0  0  0  0
   13.3350   83.9881   51.9477 N   0  3  2  0  0  0  0  0  0  0  0  0
   12.3939   84.3228   53.0575 C   0  0  0  0  0  0  0  0  0  0  0  0
   11.5126   83.1503   53.5020 C   0  0  0  0  0  0  0  0  0  0  0  0
   11.9237   81.6970   53.1726 C   0  0  0  0  0  0  0  0  0  0  0  0
   14.4785   84.9254   51.7922 C   0  0  0  0  0  0  0  0  0  0  0  0
   20.0006   70.6244   61.1370 H   0  0  0  0  0  0  0  0  0  0  0  0
   20.6658   72.1637   60.6071 H   0  0  0  0  0  0  0  0  0  0  0  0
   19.8783   71.1515   59.4074 H   0  0  0  0  0  0  0  0  0  0  0  0
   11.7279   84.1632   50.5497 H   0  0  0  0  0  0  0  0  0  0  0  0
   13.3300   83.8127   49.8268 H   0  0  0  0  0  0  0  0  0  0  0  0
   19.8613   72.7064   62.2959 H   0  0  0  0  0  0  0  0  0  0  0  0
   18.6531   71.5396   62.7395 H   0  0  0  0  0  0  0  0  0  0  0  0
   16.7679   75.1411   62.9539 H   0  0  0  0  0  0  0  0  0  0  0  0
   16.3676   73.8333   61.8045 H   0  0  0  0  0  0  0  0  0  0  0  0
   18.5080   75.2252   59.1392 H   0  0  0  0  0  0  0  0  0  0  0  0
   16.9063   74.4394   59.3489 H   0  0  0  0  0  0  0  0  0  0  0  0
   19.0033   74.2337   63.3418 H   0  0  0  0  0  0  0  0  0  0  0  0
   17.7123   73.1763   63.8568 H   0  0  0  0  0  0  0  0  0  0  0  0
   19.6732   73.5397   59.6466 H   0  0  0  0  0  0  0  0  0  0  0  0
   18.3835   72.7536   58.7877 H   0  0  0  0  0  0  0  0  0  0  0  0
   18.0169   77.3227   61.3350 H   0  0  0  0  0  0  0  0  0  0  0  0
   16.4265   76.7387   61.7960 H   0  0  0  0  0  0  0  0  0  0  0  0
   14.8802   75.8429   59.7822 H   0  0  0  0  0  0  0  0  0  0  0  0
   17.2785   79.3288   57.2704 H   0  0  0  0  0  0  0  0  0  0  0  0
   18.1833   78.5633   59.3310 H   0  0  0  0  0  0  0  0  0  0  0  0
   13.4141   77.2916   55.4324 H   0  0  0  0  0  0  0  0  0  0  0  0
   12.7450   78.2303   53.3443 H   0  0  0  0  0  0  0  0  0  0  0  0
   15.8375   81.1845   53.6500 H   0  0  0  0  0  0  0  0  0  0  0  0
   16.5162   80.3214   55.7234 H   0  0  0  0  0  0  0  0  0  0  0  0
   13.4035   79.5901   51.3415 H   0  0  0  0  0  0  0  0  0  0  0  0
   14.6774   80.7783   51.5021 H   0  0  0  0  0  0  0  0  0  0  0  0
   12.9441   81.5894   49.9195 H   0  0  0  0  0  0  0  0  0  0  0  0
   11.3272   81.8668   50.5449 H   0  0  0  0  0  0  0  0  0  0  0  0
   11.7692   85.1595   52.7236 H   0  0  0  0  0  0  0  0  0  0  0  0
   13.0107   84.6590   53.8966 H   0  0  0  0  0  0  0  0  0  0  0  0
   10.4979   83.3263   53.1263 H   0  0  0  0  0  0  0  0  0  0  0  0
   11.4221   83.2305   54.5973 H   0  0  0  0  0  0  0  0  0  0  0  0
   12.3905   81.3170   54.0846 H   0  0  0  0  0  0  0  0  0  0  0  0
   11.0057   81.1080   53.0367 H   0  0  0  0  0  0  0  0  0  0  0  0
   15.0900   84.5859   50.9521 H   0  0  0  0  0  0  0  0  0  0  0  0
   15.0689   84.8688   52.7107 H   0  0  0  0  0  0  0  0  0  0  0  0
   14.0967   85.9341   51.6267 H   0  0  0  0  0  0  0  0  0  0  0  0
   18.7848   75.4037   61.3996 H   0  0  0  0  0  0  0  0  0  0  0  0
   13.7466   83.0872   52.2481 H   0  0  0  0  0  0  0  0  0  0  0  0
  1  6  1  0  0  0  0
  1 33  1  0  0  0  0
  1 34  1  0  0  0  0
  1 35  1  0  0  0  0
  2 27  1  0  0  0  0
  2 28  1  0  0  0  0
  2 36  1  0  0  0  0
  2 37  1  0  0  0  0
  3  6  1  0  0  0  0
  3  7  1  0  0  0  0
  3 38  1  0  0  0  0
  3 39  1  0  0  0  0
  4  7  1  0  0  0  0
  4  8  1  0  0  0  0
  4 40  1  0  0  0  0
  4 41  1  0  0  0  0
  5  8  1  0  0  0  0
  5  9  1  0  0  0  0
  5 42  1  0  0  0  0
  5 43  1  0  0  0  0
  6  9  1  0  0  0  0
  7 44  1  0  0  0  0
  7 45  1  0  0  0  0
  8 10  1  0  0  0  0
  8 70  1  1  0  0  0
  9 46  1  0  0  0  0
  9 47  1  0  0  0  0
 10 11  1  0  0  0  0
 10 48  1  0  0  0  0
 10 49  1  0  0  0  0
 11 12  2  0  0  0  0
 11 16  1  0  0  0  0
 12 13  1  0  0  0  0
 12 50  1  0  0  0  0
 13 14  2  0  0  0  0
 13 23  1  0  0  0  0
 14 15  1  0  0  0  0
 14 17  1  0  0  0  0
 15 16  2  0  0  0  0
 15 51  1  0  0  0  0
 16 52  1  0  0  0  0
 17 18  2  0  0  0  0
 17 22  1  0  0  0  0
 18 19  1  0  0  0  0
 18 53  1  0  0  0  0
 19 20  2  0  0  0  0
 19 54  1  0  0  0  0
 20 21  1  0  0  0  0
 20 25  1  0  0  0  0
 21 22  2  0  0  0  0
 21 55  1  0  0  0  0
 22 56  1  0  0  0  0
 23 24  3  0  0  0  0
 25 26  1  0  0  0  0
 25 57  1  0  0  0  0
 25 58  1  0  0  0  0
 26 27  1  0  0  0  0
 26 31  1  0  0  0  0
 27 59  1  0  0  0  0
 27 60  1  0  0  0  0
 28 29  1  0  0  0  0
 28 32  1  0  0  0  0
 28 71  1  1  0  0  0
 29 30  1  0  0  0  0
 29 61  1  0  0  0  0
 29 62  1  0  0  0  0
 30 31  1  0  0  0  0
 30 63  1  0  0  0  0
 30 64  1  0  0  0  0
 31 65  1  0  0  0  0
 31 66  1  0  0  0  0
 32 67  1  0  0  0  0
 32 68  1  0  0  0  0
 32 69  1  0  0  0  0
M  CHG  2   8   1  28   1
M  END
$$$$
