5RL
 OpenBabel04161910063D

 35 38  0  0  0  0  0  0  0  0999 V2000
   36.3757   -4.2128   13.5476 C   0  0  0  0  0  0  0  0  0  0  0  0
   35.8278   -1.9304   12.8272 C   0  0  0  0  0  0  0  0  0  0  0  0
   36.7334   -2.8068   13.4716 C   0  0  0  0  0  0  0  0  0  0  0  0
   31.8802   -3.1676   11.8029 C   0  0  0  0  0  0  0  0  0  0  0  0
   35.6801   -6.9801   13.6363 C   0  0  0  0  0  0  0  0  0  0  0  0
   37.2244   -5.2050   14.1013 C   0  0  0  0  0  0  0  0  0  0  0  0
   36.1114   -0.5556   12.6836 C   0  0  0  0  0  0  0  0  0  0  0  0
   38.1747   -0.8137   13.8363 C   0  0  0  0  0  0  0  0  0  0  0  0
   37.2808    0.0062   13.1911 C   0  0  0  0  0  0  0  0  0  0  0  0
   38.8677   -2.8701   14.6945 O   0  0  0  0  0  0  0  0  0  0  0  0
   39.3305   -0.2741   14.3242 O   0  0  0  0  0  0  0  0  0  0  0  0
   32.9343   -4.1681   11.9730 N   0  0  0  0  0  0  0  0  0  0  0  0
   34.2000   -3.7475   12.4516 C   0  0  0  0  0  0  0  0  0  0  0  0
   35.1195   -4.6620   13.0269 C   0  0  0  0  0  0  0  0  0  0  0  0
   34.6074   -2.4128   12.3241 C   0  0  0  0  0  0  0  0  0  0  0  0
   34.8046   -6.0445   13.0770 C   0  0  0  0  0  0  0  0  0  0  0  0
   32.4621   -5.4666   12.4660 C   0  0  0  0  0  0  0  0  0  0  0  0
   33.5433   -6.5348   12.4224 C   0  0  0  0  0  0  0  0  0  0  0  0
   37.9152   -2.1822   13.9824 C   0  0  0  0  0  0  0  0  0  0  0  0
   36.8853   -6.5579   14.1562 C   0  0  0  0  0  0  0  0  0  0  0  0
   30.8942   -3.6389   11.7347 H   0  0  0  0  0  0  0  0  0  0  0  0
   32.0278   -2.6102   10.8696 H   0  0  0  0  0  0  0  0  0  0  0  0
   31.8370   -2.4688   12.6467 H   0  0  0  0  0  0  0  0  0  0  0  0
   35.4285   -8.0367   13.6484 H   0  0  0  0  0  0  0  0  0  0  0  0
   38.2034   -4.9538   14.4901 H   0  0  0  0  0  0  0  0  0  0  0  0
   35.4122    0.1007   12.1712 H   0  0  0  0  0  0  0  0  0  0  0  0
   37.4855    1.0666   13.0748 H   0  0  0  0  0  0  0  0  0  0  0  0
   38.7600   -2.5589   15.6137 H   0  0  0  0  0  0  0  0  0  0  0  0
   39.9399   -1.0259   14.4484 H   0  0  0  0  0  0  0  0  0  0  0  0
   33.9528   -1.7069   11.8239 H   0  0  0  0  0  0  0  0  0  0  0  0
   31.6276   -5.8108   11.8417 H   0  0  0  0  0  0  0  0  0  0  0  0
   32.0758   -5.3561   13.4874 H   0  0  0  0  0  0  0  0  0  0  0  0
   33.1719   -7.4345   12.9269 H   0  0  0  0  0  0  0  0  0  0  0  0
   33.7749   -6.8043   11.3842 H   0  0  0  0  0  0  0  0  0  0  0  0
   37.5826   -7.2763   14.5842 H   0  0  0  0  0  0  0  0  0  0  0  0
  1  3  2  0  0  0  0
  1  6  1  0  0  0  0
  1 14  1  0  0  0  0
  2  3  1  0  0  0  0
  2  7  1  0  0  0  0
  2 15  2  0  0  0  0
  3 19  1  0  0  0  0
  4 12  1  0  0  0  0
  4 21  1  0  0  0  0
  4 22  1  0  0  0  0
  4 23  1  0  0  0  0
  5 16  2  0  0  0  0
  5 20  1  0  0  0  0
  5 24  1  0  0  0  0
  6 20  2  0  0  0  0
  6 25  1  0  0  0  0
  7  9  2  0  0  0  0
  7 26  1  0  0  0  0
  8  9  1  0  0  0  0
  8 11  1  0  0  0  0
  8 19  2  0  0  0  0
  9 27  1  0  0  0  0
 10 19  1  0  0  0  0
 10 28  1  0  0  0  0
 11 29  1  0  0  0  0
 12 13  1  0  0  0  0
 12 17  1  0  0  0  0
 13 14  2  0  0  0  0
 13 15  1  0  0  0  0
 14 16  1  0  0  0  0
 15 30  1  0  0  0  0
 16 18  1  0  0  0  0
 17 18  1  0  0  0  0
 17 31  1  0  0  0  0
 17 32  1  0  0  0  0
 18 33  1  0  0  0  0
 18 34  1  0  0  0  0
 20 35  1  0  0  0  0
M  END
$$$$
