5RO
 OpenBabel04161910063D

 24 25  0  0  1  0  0  0  0  0999 V2000
    6.6307   -9.4747    7.3241 C   0  0  0  0  0  0  0  0  0  0  0  0
    6.3128   -9.9550    5.9412 C   0  0  2  0  0  0  0  0  0  0  0  0
    5.2159   -9.4627    5.2206 C   0  0  0  0  0  0  0  0  0  0  0  0
    4.9262   -9.9180    3.9339 C   0  0  0  0  0  0  0  0  0  0  0  0
    5.7290  -10.8885    3.3296 C   0  0  0  0  0  0  0  0  0  0  0  0
    6.8379  -11.4046    4.0283 C   0  0  2  0  0  0  0  0  0  0  0  0
    7.0951  -10.9222    5.3096 C   0  0  1  0  0  0  0  0  0  0  0  0
    8.2224  -11.5673    5.7726 N   0  3  0  0  0  0  0  0  0  0  0  0
    8.6857  -12.4371    4.8321 C   0  0  0  0  0  0  0  0  0  0  0  0
    7.8495  -12.3656    3.7313 C   0  0  2  0  0  0  0  0  0  0  0  0
    8.0145  -13.1386    2.5059 C   0  0  0  0  0  0  0  0  0  0  0  0
    7.1916  -13.1195    1.5931 O   0  0  0  0  0  0  0  0  0  0  0  0
    9.2701  -13.9614    2.4051 C   0  0  0  0  0  0  0  0  0  0  0  0
    5.9217   -8.7270    7.6730 H   0  0  0  0  0  0  0  0  0  0  0  0
    7.6366   -9.0401    7.3332 H   0  0  0  0  0  0  0  0  0  0  0  0
    6.6138  -10.3257    8.0156 H   0  0  0  0  0  0  0  0  0  0  0  0
    4.5670   -8.7097    5.6647 H   0  0  0  0  0  0  0  0  0  0  0  0
    4.0730   -9.5186    3.3970 H   0  0  0  0  0  0  0  0  0  0  0  0
    5.4990  -11.2400    2.3257 H   0  0  0  0  0  0  0  0  0  0  0  0
    8.6387  -11.4097    6.6821 H   0  0  0  0  0  0  0  0  0  0  0  0
    9.5693  -13.0287    5.0315 H   0  0  0  0  0  0  0  0  0  0  0  0
    9.2963  -14.4899    1.4533 H   0  0  0  0  0  0  0  0  0  0  0  0
    9.2910  -14.6896    3.2213 H   0  0  0  0  0  0  0  0  0  0  0  0
   10.1363  -13.2953    2.4722 H   0  0  0  0  0  0  0  0  0  0  0  0
  1 14  1  0  0  0  0
  1 15  1  0  0  0  0
  1 16  1  0  0  0  0
  2  1  1  1  0  0  0
  2  3  1  0  0  0  0
  2  7  1  0  0  0  0
  3  4  1  0  0  0  0
  3 17  1  0  0  0  0
  4  5  1  0  0  0  0
  4 18  1  0  0  0  0
  5 19  1  0  0  0  0
  6  5  1  6  0  0  0
  6  7  1  0  0  0  0
  6 10  1  0  0  0  0
  7  8  1  6  0  0  0
  8  9  1  0  0  0  0
  8 20  1  0  0  0  0
  9 10  1  0  0  0  0
  9 21  1  0  0  0  0
 10 11  1  6  0  0  0
 11 12  2  0  0  0  0
 11 13  1  0  0  0  0
 13 22  1  0  0  0  0
 13 23  1  0  0  0  0
 13 24  1  0  0  0  0
M  CHG  1   8   1
M  END
$$$$
