5RU
 OpenBabel04161911583D

 30 32  0  0  0  0  0  0  0  0999 V2000
   -2.3456  -12.1662   71.8567 C   0  0  0  0  0  0  0  0  0  0  0  0
   -1.1047  -11.9963   72.4566 C   0  0  0  0  0  0  0  0  0  0  0  0
   -2.6341  -11.5042   70.6740 C   0  0  0  0  0  0  0  0  0  0  0  0
   -0.1511  -11.1645   71.8816 C   0  0  0  0  0  0  0  0  0  0  0  0
   -1.6932  -10.6487   70.1019 C   0  0  0  0  0  0  0  0  0  0  0  0
   -3.4550   -5.7169   68.7658 C   0  0  0  0  0  0  0  0  0  0  0  0
   -0.4418  -10.4998   70.7089 C   0  0  0  0  0  0  0  0  0  0  0  0
   -3.9555   -5.7518   67.4860 C   0  0  0  0  0  0  0  0  0  0  0  0
   -3.2319   -4.4106   69.3849 C   0  0  0  0  0  0  0  0  0  0  0  0
   -4.0657   -3.5112   67.2725 C   0  0  0  0  0  0  0  0  0  0  0  0
   -3.6216   -7.7852   68.2310 C   0  0  0  0  0  0  0  0  0  0  0  0
   -1.9264   -9.9140   68.8224 C   0  0  0  0  0  0  0  0  0  0  0  0
   -4.2708   -4.6758   66.7117 N   0  0  0  0  0  0  0  0  0  0  0  0
   -4.0771   -7.0874   67.1302 N   0  3  0  0  0  0  0  0  0  0  0  0
   -3.5764   -3.3509   68.5551 N   0  3  0  0  0  0  0  0  0  0  0  0
   -3.2515   -6.9951   69.2187 N   0  0  0  0  0  0  0  0  0  0  0  0
   -4.3392   -2.3693   66.5711 N   0  0  0  0  0  0  0  0  0  0  0  0
   -2.7782   -4.2102   70.5253 O   0  0  0  0  0  0  0  0  0  0  0  0
    0.4891   -9.7000   70.1628 F   0  0  0  0  0  0  0  0  0  0  0  0
   -3.6218   -9.5160   68.3179 S   0  0  0  0  0  0  0  0  0  0  0  0
   -3.0867  -12.8137   72.3104 H   0  0  0  0  0  0  0  0  0  0  0  0
   -0.8778  -12.5160   73.3785 H   0  0  0  0  0  0  0  0  0  0  0  0
   -3.5994  -11.6422   70.2014 H   0  0  0  0  0  0  0  0  0  0  0  0
    0.8143  -11.0338   72.3483 H   0  0  0  0  0  0  0  0  0  0  0  0
   -1.5008  -10.5419   68.0357 H   0  0  0  0  0  0  0  0  0  0  0  0
   -1.3731   -8.9826   68.9006 H   0  0  0  0  0  0  0  0  0  0  0  0
   -4.4265   -7.4303   66.2564 H   0  0  0  0  0  0  0  0  0  0  0  0
   -3.4313   -2.4145   68.9546 H   0  0  0  0  0  0  0  0  0  0  0  0
   -4.7013   -2.4479   65.6225 H   0  0  0  0  0  0  0  0  0  0  0  0
   -4.1960   -1.4393   66.9434 H   0  0  0  0  0  0  0  0  0  0  0  0
  1  2  2  0  0  0  0
  1  3  1  0  0  0  0
  1 21  1  0  0  0  0
  2  4  1  0  0  0  0
  2 22  1  0  0  0  0
  3  5  2  0  0  0  0
  3 23  1  0  0  0  0
  4  7  2  0  0  0  0
  4 24  1  0  0  0  0
  5  7  1  0  0  0  0
  5 12  1  0  0  0  0
  6  8  2  0  0  0  0
  6  9  1  0  0  0  0
  6 16  1  0  0  0  0
  7 19  1  0  0  0  0
  8 13  1  0  0  0  0
  8 14  1  0  0  0  0
  9 15  1  0  0  0  0
  9 18  2  0  0  0  0
 10 13  2  0  0  0  0
 10 15  1  0  0  0  0
 10 17  1  0  0  0  0
 11 14  2  0  0  0  0
 11 16  1  0  0  0  0
 11 20  1  0  0  0  0
 12 20  1  0  0  0  0
 12 25  1  0  0  0  0
 12 26  1  0  0  0  0
 14 27  1  0  0  0  0
 15 28  1  0  0  0  0
 17 29  1  0  0  0  0
 17 30  1  0  0  0  0
M  CHG  2  14   1  15   1
M  END
$$$$
