5SS
 OpenBabel04161910093D

 66 70  0  0  1  0  0  0  0  0999 V2000
   44.3810  -21.2210   30.1613 C   0  0  0  0  0  0  0  0  0  0  0  0
   48.0216  -21.0282   31.3407 C   0  0  0  0  0  0  0  0  0  0  0  0
   41.1828  -20.5196   28.2430 C   0  0  0  0  0  0  0  0  0  0  0  0
   46.2059  -22.0437   32.1097 C   0  0  0  0  0  0  0  0  0  0  0  0
   39.8597  -23.2158   28.4502 C   0  0  0  0  0  0  0  0  0  0  0  0
   38.8424  -18.3809   28.7779 C   0  0  0  0  0  0  0  0  0  0  0  0
   36.9756  -16.8268   29.3068 C   0  0  0  0  0  0  0  0  0  0  0  0
   38.6894  -16.1787   27.5520 C   0  0  0  0  0  0  0  0  0  0  0  0
   36.0705  -15.6943   28.8410 C   0  0  0  0  0  0  0  0  0  0  0  0
   37.7585  -15.0494   27.0968 C   0  0  0  0  0  0  0  0  0  0  0  0
   37.9050  -17.3248   28.1927 C   0  0  1  0  0  0  0  0  0  0  0  0
   42.9503  -20.2855   26.7937 C   0  0  0  0  0  0  0  0  0  0  0  0
   46.6409  -21.2113   31.0869 C   0  0  0  0  0  0  0  0  0  0  0  0
   35.9495  -13.3964   27.8606 C   0  0  0  0  0  0  0  0  0  0  0  0
   41.3313  -25.3139   29.5808 C   0  0  0  0  0  0  0  0  0  0  0  0
   41.5184  -24.9736   28.2423 C   0  0  0  0  0  0  0  0  0  0  0  0
   40.4067  -24.6164   30.3550 C   0  0  0  0  0  0  0  0  0  0  0  0
   43.9926  -22.0532   31.2324 C   0  0  0  0  0  0  0  0  0  0  0  0
   40.7854  -23.9298   27.6777 C   0  0  0  0  0  0  0  0  0  0  0  0
   39.6690  -23.5757   29.7923 C   0  0  0  0  0  0  0  0  0  0  0  0
   44.8863  -22.4758   32.2274 C   0  0  0  0  0  0  0  0  0  0  0  0
   43.8776  -20.5686   27.7867 C   0  0  0  0  0  0  0  0  0  0  0  0
   45.7192  -20.7845   30.1194 C   0  0  0  0  0  0  0  0  0  0  0  0
   42.0596  -20.8013   29.2969 C   0  0  0  0  0  0  0  0  0  0  0  0
   43.4355  -20.8427   29.0853 C   0  0  0  0  0  0  0  0  0  0  0  0
   36.8905  -14.5351   28.2588 C   0  0  1  0  0  0  0  0  0  0  0  0
   39.1685  -21.9958   27.8820 C   0  0  0  0  0  0  0  0  0  0  0  0
   39.6883  -20.6797   28.5044 C   0  0  2  0  0  0  0  0  0  0  0  0
   41.6104  -20.2587   26.9813 N   0  0  0  0  0  0  0  0  0  0  0  0
   48.4429  -21.6841   32.4229 N   0  0  0  0  0  0  0  0  0  0  0  0
   47.3239  -22.2831   32.8590 N   0  3  0  0  0  0  0  0  0  0  0  0
   36.7205  -12.2661   27.2932 N   0  3  0  0  0  0  0  0  0  0  0  0
   38.9003  -19.5387   28.0464 N   0  0  0  0  0  0  0  0  0  0  0  0
   39.4177  -18.2090   29.8463 O   0  0  0  0  0  0  0  0  0  0  0  0
   48.8340  -20.3082   30.6008 O   0  0  0  0  0  0  0  0  0  0  0  0
   36.3627  -17.6596   29.6707 H   0  0  0  0  0  0  0  0  0  0  0  0
   37.5615  -16.4764   30.1674 H   0  0  0  0  0  0  0  0  0  0  0  0
   39.4256  -15.7707   28.2577 H   0  0  0  0  0  0  0  0  0  0  0  0
   39.2615  -16.5436   26.6904 H   0  0  0  0  0  0  0  0  0  0  0  0
   35.4680  -15.3445   29.6879 H   0  0  0  0  0  0  0  0  0  0  0  0
   35.3692  -16.0755   28.0875 H   0  0  0  0  0  0  0  0  0  0  0  0
   37.1147  -15.4094   26.2842 H   0  0  0  0  0  0  0  0  0  0  0  0
   38.3755  -14.2455   26.6825 H   0  0  0  0  0  0  0  0  0  0  0  0
   37.2845  -17.7924   27.4149 H   0  0  0  0  0  0  0  0  0  0  0  0
   43.2910  -20.0924   25.7810 H   0  0  0  0  0  0  0  0  0  0  0  0
   35.4174  -13.0008   28.7324 H   0  0  0  0  0  0  0  0  0  0  0  0
   35.2196  -13.7003   27.1037 H   0  0  0  0  0  0  0  0  0  0  0  0
   41.9205  -26.1126   30.0237 H   0  0  0  0  0  0  0  0  0  0  0  0
   42.2577  -25.5032   27.6464 H   0  0  0  0  0  0  0  0  0  0  0  0
   40.2773  -24.8696   31.4037 H   0  0  0  0  0  0  0  0  0  0  0  0
   42.9722  -22.4237   31.3014 H   0  0  0  0  0  0  0  0  0  0  0  0
   40.9796  -23.6480   26.6441 H   0  0  0  0  0  0  0  0  0  0  0  0
   38.9761  -23.0206   30.4199 H   0  0  0  0  0  0  0  0  0  0  0  0
   44.5637  -23.1241   33.0331 H   0  0  0  0  0  0  0  0  0  0  0  0
   44.9326  -20.6009   27.5299 H   0  0  0  0  0  0  0  0  0  0  0  0
   46.0981  -20.1287   29.3451 H   0  0  0  0  0  0  0  0  0  0  0  0
   41.6458  -21.0287   30.2730 H   0  0  0  0  0  0  0  0  0  0  0  0
   37.5609  -14.1595   29.0440 H   0  0  0  0  0  0  0  0  0  0  0  0
   38.0902  -22.0917   28.0663 H   0  0  0  0  0  0  0  0  0  0  0  0
   39.2782  -21.9735   26.7884 H   0  0  0  0  0  0  0  0  0  0  0  0
   39.5303  -20.7238   29.5901 H   0  0  0  0  0  0  0  0  0  0  0  0
   47.4001  -22.8582   33.6854 H   0  0  0  0  0  0  0  0  0  0  0  0
   36.1103  -11.4726   27.0625 H   0  0  0  0  0  0  0  0  0  0  0  0
   37.4327  -11.9303   27.9560 H   0  0  0  0  0  0  0  0  0  0  0  0
   38.5760  -19.5557   27.0897 H   0  0  0  0  0  0  0  0  0  0  0  0
   37.2068  -12.5326   26.4276 H   0  0  0  0  0  0  0  0  0  0  0  0
  1 18  1  0  0  0  0
  1 23  2  0  0  0  0
  1 25  1  0  0  0  0
  2 13  2  0  0  0  0
  2 30  1  0  0  0  0
  2 35  1  0  0  0  0
  3 24  2  0  0  0  0
  3 28  1  0  0  0  0
  3 29  1  0  0  0  0
  4 13  1  0  0  0  0
  4 21  1  0  0  0  0
  4 31  2  0  0  0  0
  5 19  2  0  0  0  0
  5 20  1  0  0  0  0
  5 27  1  0  0  0  0
  6 11  1  0  0  0  0
  6 33  1  0  0  0  0
  6 34  2  0  0  0  0
  7  9  1  0  0  0  0
  7 11  1  0  0  0  0
  7 36  1  0  0  0  0
  7 37  1  0  0  0  0
  8 10  1  0  0  0  0
  8 11  1  0  0  0  0
  8 38  1  0  0  0  0
  8 39  1  0  0  0  0
  9 26  1  0  0  0  0
  9 40  1  0  0  0  0
  9 41  1  0  0  0  0
 10 26  1  0  0  0  0
 10 42  1  0  0  0  0
 10 43  1  0  0  0  0
 11 44  1  6  0  0  0
 12 22  1  0  0  0  0
 12 29  2  0  0  0  0
 12 45  1  0  0  0  0
 13 23  1  0  0  0  0
 14 26  1  0  0  0  0
 14 32  1  0  0  0  0
 14 46  1  0  0  0  0
 14 47  1  0  0  0  0
 15 16  2  0  0  0  0
 15 17  1  0  0  0  0
 15 48  1  0  0  0  0
 16 19  1  0  0  0  0
 16 49  1  0  0  0  0
 17 20  2  0  0  0  0
 17 50  1  0  0  0  0
 18 21  2  0  0  0  0
 18 51  1  0  0  0  0
 19 52  1  0  0  0  0
 20 53  1  0  0  0  0
 21 54  1  0  0  0  0
 22 25  2  0  0  0  0
 22 55  1  0  0  0  0
 23 56  1  0  0  0  0
 24 25  1  0  0  0  0
 24 57  1  0  0  0  0
 26 58  1  1  0  0  0
 27 28  1  0  0  0  0
 27 59  1  0  0  0  0
 27 60  1  0  0  0  0
 28 33  1  0  0  0  0
 28 61  1  1  0  0  0
 30 31  1  0  0  0  0
 31 62  1  0  0  0  0
 32 63  1  0  0  0  0
 32 64  1  0  0  0  0
 32 66  1  0  0  0  0
 33 65  1  0  0  0  0
M  CHG  2  31   1  32   1
M  END
$$$$
