5ST
 OpenBabel04161910093D

 71 74  0  0  1  0  0  0  0  0999 V2000
   44.6395  -21.1872   30.2770 C   0  0  0  0  0  0  0  0  0  0  0  0
   39.0568  -18.4473   29.0824 C   0  0  0  0  0  0  0  0  0  0  0  0
   41.3946  -20.6063   28.4743 C   0  0  0  0  0  0  0  0  0  0  0  0
   46.5428  -21.9048   32.2361 C   0  0  0  0  0  0  0  0  0  0  0  0
   40.1201  -23.2878   28.6711 C   0  0  0  0  0  0  0  0  0  0  0  0
   48.8376  -22.0103   33.2709 C   0  0  0  0  0  0  0  0  0  0  0  0
   37.1428  -16.9223   29.5127 C   0  0  0  0  0  0  0  0  0  0  0  0
   38.9139  -16.2643   27.8010 C   0  0  0  0  0  0  0  0  0  0  0  0
   36.2591  -15.7760   29.0295 C   0  0  0  0  0  0  0  0  0  0  0  0
   37.9742  -15.1643   27.2953 C   0  0  0  0  0  0  0  0  0  0  0  0
   38.1311  -17.4136   28.4525 C   0  0  1  0  0  0  0  0  0  0  0  0
   42.3081  -20.8844   29.4928 C   0  0  0  0  0  0  0  0  0  0  0  0
   43.1235  -20.3005   26.9721 C   0  0  0  0  0  0  0  0  0  0  0  0
   39.3646  -22.0663   28.2022 C   0  0  0  0  0  0  0  0  0  0  0  0
   41.6441  -25.4487   29.5944 C   0  0  0  0  0  0  0  0  0  0  0  0
   40.7411  -24.8156   30.4504 C   0  0  0  0  0  0  0  0  0  0  0  0
   41.7989  -24.9977   28.2842 C   0  0  0  0  0  0  0  0  0  0  0  0
   44.2726  -22.0150   31.3623 C   0  0  0  0  0  0  0  0  0  0  0  0
   45.9579  -20.6838   30.2249 C   0  0  0  0  0  0  0  0  0  0  0  0
   39.9891  -23.7344   29.9929 C   0  0  0  0  0  0  0  0  0  0  0  0
   41.0382  -23.9229   27.8216 C   0  0  0  0  0  0  0  0  0  0  0  0
   45.2159  -22.3625   32.3268 C   0  0  0  0  0  0  0  0  0  0  0  0
   46.8939  -21.0725   31.1765 C   0  0  0  0  0  0  0  0  0  0  0  0
   44.0831  -20.5582   27.9229 C   0  0  0  0  0  0  0  0  0  0  0  0
   43.6767  -20.8523   29.2257 C   0  0  0  0  0  0  0  0  0  0  0  0
   37.0865  -14.6351   28.4322 C   0  0  1  0  0  0  0  0  0  0  0  0
   50.8051  -22.2843   34.6009 C   0  0  0  0  0  0  0  0  0  0  0  0
   36.1536  -13.5108   27.9911 C   0  0  0  0  0  0  0  0  0  0  0  0
   39.9078  -20.7650   28.8001 C   0  0  2  0  0  0  0  0  0  0  0  0
   41.7897  -20.3064   27.2145 N   0  0  0  0  0  0  0  0  0  0  0  0
   36.9424  -12.3809   27.4706 N   0  3  0  0  0  0  0  0  0  0  0  0
   47.4844  -22.3133   33.2159 N   0  0  0  0  0  0  0  0  0  0  0  0
   39.1175  -19.6212   28.3639 N   0  0  0  0  0  0  0  0  0  0  0  0
   39.6351  -18.2717   30.1301 O   0  0  0  0  0  0  0  0  0  0  0  0
   49.4786  -21.3321   32.4776 O   0  0  0  0  0  0  0  0  0  0  0  0
   49.4084  -22.5865   34.3726 O   0  0  0  0  0  0  0  0  0  0  0  0
   36.5052  -17.7645   29.8133 H   0  0  0  0  0  0  0  0  0  0  0  0
   37.6896  -16.5912   30.4048 H   0  0  0  0  0  0  0  0  0  0  0  0
   39.6199  -15.8262   28.5196 H   0  0  0  0  0  0  0  0  0  0  0  0
   39.5036  -16.6497   26.9578 H   0  0  0  0  0  0  0  0  0  0  0  0
   35.6673  -15.3966   29.8743 H   0  0  0  0  0  0  0  0  0  0  0  0
   35.5533  -16.1561   28.2781 H   0  0  0  0  0  0  0  0  0  0  0  0
   37.3449  -15.5639   26.4881 H   0  0  0  0  0  0  0  0  0  0  0  0
   38.5750  -14.3499   26.8718 H   0  0  0  0  0  0  0  0  0  0  0  0
   37.5577  -17.9012   27.6587 H   0  0  0  0  0  0  0  0  0  0  0  0
   41.9444  -21.1762   30.4749 H   0  0  0  0  0  0  0  0  0  0  0  0
   43.4264  -20.0765   25.9481 H   0  0  0  0  0  0  0  0  0  0  0  0
   38.3047  -22.1784   28.4855 H   0  0  0  0  0  0  0  0  0  0  0  0
   39.3890  -22.0224   27.1034 H   0  0  0  0  0  0  0  0  0  0  0  0
   42.2273  -26.2961   29.9546 H   0  0  0  0  0  0  0  0  0  0  0  0
   40.6209  -25.1656   31.4738 H   0  0  0  0  0  0  0  0  0  0  0  0
   42.5155  -25.4855   27.6213 H   0  0  0  0  0  0  0  0  0  0  0  0
   43.2766  -22.4280   31.3936 H   0  0  0  0  0  0  0  0  0  0  0  0
   46.2606  -20.0042   29.4278 H   0  0  0  0  0  0  0  0  0  0  0  0
   39.3102  -23.2247   30.6725 H   0  0  0  0  0  0  0  0  0  0  0  0
   41.1777  -23.5592   26.8041 H   0  0  0  0  0  0  0  0  0  0  0  0
   44.8912  -23.0046   33.1400 H   0  0  0  0  0  0  0  0  0  0  0  0
   47.9124  -20.7149   31.0710 H   0  0  0  0  0  0  0  0  0  0  0  0
   45.1344  -20.5617   27.6494 H   0  0  0  0  0  0  0  0  0  0  0  0
   37.7451  -14.2377   29.2153 H   0  0  0  0  0  0  0  0  0  0  0  0
   51.1367  -22.7980   35.5156 H   0  0  0  0  0  0  0  0  0  0  0  0
   50.9470  -21.2064   34.7470 H   0  0  0  0  0  0  0  0  0  0  0  0
   51.4253  -22.6361   33.7679 H   0  0  0  0  0  0  0  0  0  0  0  0
   35.5750  -13.1154   28.8320 H   0  0  0  0  0  0  0  0  0  0  0  0
   35.4849  -13.8214   27.1848 H   0  0  0  0  0  0  0  0  0  0  0  0
   39.8098  -20.8155   29.8922 H   0  0  0  0  0  0  0  0  0  0  0  0
   36.3331  -11.6101   27.1720 H   0  0  0  0  0  0  0  0  0  0  0  0
   37.5866  -12.0249   28.1892 H   0  0  0  0  0  0  0  0  0  0  0  0
   47.1338  -22.8930   33.9629 H   0  0  0  0  0  0  0  0  0  0  0  0
   38.6255  -19.7144   27.4858 H   0  0  0  0  0  0  0  0  0  0  0  0
   37.4991  -12.6689   26.6563 H   0  0  0  0  0  0  0  0  0  0  0  0
  1 18  2  0  0  0  0
  1 19  1  0  0  0  0
  1 25  1  0  0  0  0
  2 11  1  0  0  0  0
  2 33  1  0  0  0  0
  2 34  2  0  0  0  0
  3 12  2  0  0  0  0
  3 29  1  0  0  0  0
  3 30  1  0  0  0  0
  4 22  2  0  0  0  0
  4 23  1  0  0  0  0
  4 32  1  0  0  0  0
  5 14  1  0  0  0  0
  5 20  2  0  0  0  0
  5 21  1  0  0  0  0
  6 32  1  0  0  0  0
  6 35  2  0  0  0  0
  6 36  1  0  0  0  0
  7  9  1  0  0  0  0
  7 11  1  0  0  0  0
  7 37  1  0  0  0  0
  7 38  1  0  0  0  0
  8 10  1  0  0  0  0
  8 11  1  0  0  0  0
  8 39  1  0  0  0  0
  8 40  1  0  0  0  0
  9 26  1  0  0  0  0
  9 41  1  0  0  0  0
  9 42  1  0  0  0  0
 10 26  1  0  0  0  0
 10 43  1  0  0  0  0
 10 44  1  0  0  0  0
 11 45  1  6  0  0  0
 12 25  1  0  0  0  0
 12 46  1  0  0  0  0
 13 24  1  0  0  0  0
 13 30  2  0  0  0  0
 13 47  1  0  0  0  0
 14 29  1  0  0  0  0
 14 48  1  0  0  0  0
 14 49  1  0  0  0  0
 15 16  2  0  0  0  0
 15 17  1  0  0  0  0
 15 50  1  0  0  0  0
 16 20  1  0  0  0  0
 16 51  1  0  0  0  0
 17 21  2  0  0  0  0
 17 52  1  0  0  0  0
 18 22  1  0  0  0  0
 18 53  1  0  0  0  0
 19 23  2  0  0  0  0
 19 54  1  0  0  0  0
 20 55  1  0  0  0  0
 21 56  1  0  0  0  0
 22 57  1  0  0  0  0
 23 58  1  0  0  0  0
 24 25  2  0  0  0  0
 24 59  1  0  0  0  0
 26 28  1  0  0  0  0
 26 60  1  1  0  0  0
 27 36  1  0  0  0  0
 27 61  1  0  0  0  0
 27 62  1  0  0  0  0
 27 63  1  0  0  0  0
 28 31  1  0  0  0  0
 28 64  1  0  0  0  0
 28 65  1  0  0  0  0
 29 33  1  0  0  0  0
 29 66  1  1  0  0  0
 31 67  1  0  0  0  0
 31 68  1  0  0  0  0
 31 71  1  0  0  0  0
 32 69  1  0  0  0  0
 33 70  1  0  0  0  0
M  CHG  1  31   1
M  END
$$$$
