5SU
 OpenBabel04161910093D

 68 72  0  0  1  0  0  0  0  0999 V2000
   -2.9988   10.0666  -18.2405 C   0  0  0  0  0  0  0  0  0  0  0  0
   -0.0800    6.1872  -17.5217 C   0  0  0  0  0  0  0  0  0  0  0  0
   -0.6880    7.1837  -18.4942 C   0  0  0  0  0  0  0  0  0  0  0  0
    0.9820    5.3705  -17.9433 C   0  0  0  0  0  0  0  0  0  0  0  0
    1.5513    4.4401  -17.0800 C   0  0  0  0  0  0  0  0  0  0  0  0
    1.0738    4.3090  -15.7774 C   0  0  0  0  0  0  0  0  0  0  0  0
    0.0128    5.0979  -15.3468 C   0  0  0  0  0  0  0  0  0  0  0  0
   -0.5732    6.0157  -16.2197 C   0  0  0  0  0  0  0  0  0  0  0  0
    1.8090   10.8265  -11.2358 C   0  0  0  0  0  0  0  0  0  0  0  0
    2.3713   11.7078  -12.1527 C   0  0  0  0  0  0  0  0  0  0  0  0
   -6.3798   13.1101  -22.9743 C   0  0  0  0  0  0  0  0  0  0  0  0
   -5.0325   13.4840  -22.9996 C   0  0  0  0  0  0  0  0  0  0  0  0
    0.0067    9.3390  -17.3729 C   0  0  0  0  0  0  0  0  0  0  0  0
    0.9108    9.7813  -18.2803 N   0  0  0  0  0  0  0  0  0  0  0  0
    1.9780   10.4444  -17.7892 C   0  0  0  0  0  0  0  0  0  0  0  0
    2.1973   10.6775  -16.4369 C   0  0  0  0  0  0  0  0  0  0  0  0
    1.2582   10.2390  -15.4948 C   0  0  0  0  0  0  0  0  0  0  0  0
    0.1387    9.5718  -16.0023 C   0  0  0  0  0  0  0  0  0  0  0  0
    1.4356   10.4491  -14.0352 C   0  0  0  0  0  0  0  0  0  0  0  0
    2.1808   11.5257  -13.5289 C   0  0  0  0  0  0  0  0  0  0  0  0
    1.0371    9.7676  -11.7126 C   0  0  0  0  0  0  0  0  0  0  0  0
    0.8674    9.5741  -13.0890 C   0  0  0  0  0  0  0  0  0  0  0  0
    1.9844   10.9229   -9.8466 N   0  0  0  0  0  0  0  0  0  0  0  0
   -1.1690    8.5048  -17.8613 C   0  0  1  0  0  0  0  0  0  0  0  0
   -2.0302    9.2551  -18.7615 N   0  0  0  0  0  0  0  0  0  0  0  0
   -3.2419   10.1585  -17.0413 O   0  0  0  0  0  0  0  0  0  0  0  0
    2.7291   11.8314   -9.1513 C   0  0  0  0  0  0  0  0  0  0  0  0
    3.3637   12.7789   -9.5880 O   0  0  0  0  0  0  0  0  0  0  0  0
    2.6578   11.5120   -7.8298 O   0  0  0  0  0  0  0  0  0  0  0  0
    3.3610   12.4206   -6.9814 C   0  0  0  0  0  0  0  0  0  0  0  0
   -3.8567   10.7914  -19.1975 C   0  0  0  0  0  0  0  0  0  0  0  0
   -3.5947   11.0061  -20.4928 C   0  0  0  0  0  0  0  0  0  0  0  0
   -4.5258   11.7774  -21.3281 C   0  0  0  0  0  0  0  0  0  0  0  0
   -4.1077   12.8209  -22.1758 C   0  0  0  0  0  0  0  0  0  0  0  0
   -6.7906   12.0486  -22.1724 C   0  0  0  0  0  0  0  0  0  0  0  0
   -5.8753   11.3802  -21.3639 C   0  0  0  0  0  0  0  0  0  0  0  0
   -2.7571   13.2264  -22.2133 N   0  3  0  0  0  0  0  0  0  0  0  0
   -1.9709   13.4460  -23.3131 C   0  0  0  0  0  0  0  0  0  0  0  0
   -0.7651   13.7830  -22.9172 N   0  0  0  0  0  0  0  0  0  0  0  0
   -0.8088   13.7761  -21.5460 N   0  0  0  0  0  0  0  0  0  0  0  0
   -2.0057   13.4094  -21.1100 N   0  0  0  0  0  0  0  0  0  0  0  0
   -8.4382   11.5540  -22.1807 Cl  0  0  0  0  0  0  0  0  0  0  0  0
   -1.5334    6.6846  -18.9851 H   0  0  0  0  0  0  0  0  0  0  0  0
    0.0358    7.4079  -19.2930 H   0  0  0  0  0  0  0  0  0  0  0  0
    1.3748    5.4655  -18.9577 H   0  0  0  0  0  0  0  0  0  0  0  0
    2.3717    3.8141  -17.4210 H   0  0  0  0  0  0  0  0  0  0  0  0
    1.5234    3.5895  -15.1001 H   0  0  0  0  0  0  0  0  0  0  0  0
   -0.3628    5.0051  -14.3310 H   0  0  0  0  0  0  0  0  0  0  0  0
   -1.4138    6.5922  -15.8491 H   0  0  0  0  0  0  0  0  0  0  0  0
    2.9713   12.5578  -11.8379 H   0  0  0  0  0  0  0  0  0  0  0  0
   -7.1065   13.6539  -23.5726 H   0  0  0  0  0  0  0  0  0  0  0  0
   -4.7408   14.3370  -23.6094 H   0  0  0  0  0  0  0  0  0  0  0  0
    2.6912   10.7920  -18.5317 H   0  0  0  0  0  0  0  0  0  0  0  0
    3.1067   11.1881  -16.1394 H   0  0  0  0  0  0  0  0  0  0  0  0
   -0.6448    9.2179  -15.3394 H   0  0  0  0  0  0  0  0  0  0  0  0
    2.6186   12.2623  -14.1996 H   0  0  0  0  0  0  0  0  0  0  0  0
    0.5662    9.0663  -11.0288 H   0  0  0  0  0  0  0  0  0  0  0  0
    0.2891    8.7087  -13.4047 H   0  0  0  0  0  0  0  0  0  0  0  0
    1.5386   10.2317   -9.2605 H   0  0  0  0  0  0  0  0  0  0  0  0
   -1.8044    8.2629  -17.0046 H   0  0  0  0  0  0  0  0  0  0  0  0
   -1.7540    9.3119  -19.7279 H   0  0  0  0  0  0  0  0  0  0  0  0
    3.2884   12.0531   -5.9544 H   0  0  0  0  0  0  0  0  0  0  0  0
    2.8976   13.4108   -7.0294 H   0  0  0  0  0  0  0  0  0  0  0  0
    4.4199   12.4735   -7.2551 H   0  0  0  0  0  0  0  0  0  0  0  0
   -4.7573   11.1820  -18.7316 H   0  0  0  0  0  0  0  0  0  0  0  0
   -2.6677   10.6883  -20.9596 H   0  0  0  0  0  0  0  0  0  0  0  0
   -6.2172   10.5389  -20.7626 H   0  0  0  0  0  0  0  0  0  0  0  0
   -2.2930   13.2812  -24.3289 H   0  0  0  0  0  0  0  0  0  0  0  0
  1 25  1  0  0  0  0
  1 26  2  0  0  0  0
  1 31  1  0  0  0  0
  2  3  1  0  0  0  0
  2  4  2  0  0  0  0
  2  8  1  0  0  0  0
  3 24  1  0  0  0  0
  3 43  1  0  0  0  0
  3 44  1  0  0  0  0
  4  5  1  0  0  0  0
  4 45  1  0  0  0  0
  5  6  2  0  0  0  0
  5 46  1  0  0  0  0
  6  7  1  0  0  0  0
  6 47  1  0  0  0  0
  7  8  2  0  0  0  0
  7 48  1  0  0  0  0
  8 49  1  0  0  0  0
  9 10  2  0  0  0  0
  9 21  1  0  0  0  0
  9 23  1  0  0  0  0
 10 20  1  0  0  0  0
 10 50  1  0  0  0  0
 11 12  2  0  0  0  0
 11 35  1  0  0  0  0
 11 51  1  0  0  0  0
 12 34  1  0  0  0  0
 12 52  1  0  0  0  0
 13 14  2  0  0  0  0
 13 18  1  0  0  0  0
 13 24  1  0  0  0  0
 14 15  1  0  0  0  0
 15 16  2  0  0  0  0
 15 53  1  0  0  0  0
 16 17  1  0  0  0  0
 16 54  1  0  0  0  0
 17 18  2  0  0  0  0
 17 19  1  0  0  0  0
 18 55  1  0  0  0  0
 19 20  2  0  0  0  0
 19 22  1  0  0  0  0
 20 56  1  0  0  0  0
 21 22  2  0  0  0  0
 21 57  1  0  0  0  0
 22 58  1  0  0  0  0
 23 27  1  0  0  0  0
 23 59  1  0  0  0  0
 24 25  1  0  0  0  0
 24 60  1  1  0  0  0
 25 61  1  0  0  0  0
 27 28  2  0  0  0  0
 27 29  1  0  0  0  0
 29 30  1  0  0  0  0
 30 62  1  0  0  0  0
 30 63  1  0  0  0  0
 30 64  1  0  0  0  0
 31 32  2  0  0  0  0
 31 65  1  0  0  0  0
 32 33  1  0  0  0  0
 32 66  1  0  0  0  0
 33 34  2  0  0  0  0
 33 36  1  0  0  0  0
 34 37  1  0  0  0  0
 35 36  2  0  0  0  0
 35 42  1  0  0  0  0
 36 67  1  0  0  0  0
 37 38  2  0  0  0  0
 37 41  1  0  0  0  0
 38 39  1  0  0  0  0
 38 68  1  0  0  0  0
 39 40  1  0  0  0  0
 40 41  2  0  0  0  0
M  CHG  1  37   1
M  END
$$$$
