5SW
 OpenBabel04161910073D

 50 52  0  0  0  0  0  0  0  0999 V2000
   11.7847   -7.6867    4.4642 N   0  0  0  0  0  0  0  0  0  0  0  0
   12.4545   -6.5134    4.5563 C   0  0  0  0  0  0  0  0  0  0  0  0
   10.4358   -5.2236    4.7590 C   0  0  0  0  0  0  0  0  0  0  0  0
   11.8295   -5.2827    4.6945 C   0  0  0  0  0  0  0  0  0  0  0  0
   12.6443   -4.0633    4.7877 C   0  0  0  0  0  0  0  0  0  0  0  0
    9.7570   -3.9031    4.8689 C   0  0  0  0  0  0  0  0  0  0  0  0
    6.4224   -2.5914    6.1302 C   0  0  0  0  0  0  0  0  0  0  0  0
    7.7930   -2.7937    5.9662 C   0  0  0  0  0  0  0  0  0  0  0  0
    6.0022   -4.1868    4.3415 C   0  0  0  0  0  0  0  0  0  0  0  0
    5.5159   -3.3228    5.3418 C   0  0  0  0  0  0  0  0  0  0  0  0
    5.4344   -5.4203    2.3724 C   0  0  0  0  0  0  0  0  0  0  0  0
    6.7848   -0.7876    7.6524 C   0  0  0  0  0  0  0  0  0  0  0  0
    8.2894   -3.6638    4.9816 C   0  0  0  0  0  0  0  0  0  0  0  0
    9.7389   -6.4400    4.7166 C   0  0  0  0  0  0  0  0  0  0  0  0
   11.9354   -2.8572    4.8566 N   0  3  0  0  0  0  0  0  0  0  0  0
   10.4444   -7.6236    4.5500 C   0  0  0  0  0  0  0  0  0  0  0  0
    3.9327   -1.2919    3.8248 C   0  0  0  0  0  0  0  0  0  0  0  0
    2.0234   -1.7041    5.3494 C   0  0  0  0  0  0  0  0  0  0  0  0
   10.5535   -2.8113    4.8826 C   0  0  0  0  0  0  0  0  0  0  0  0
   12.6786   -1.6074    4.9679 C   0  0  0  0  0  0  0  0  0  0  0  0
    7.3780   -4.3256    4.1501 C   0  0  0  0  0  0  0  0  0  0  0  0
    4.0301   -3.1544    5.5270 C   0  0  0  0  0  0  0  0  0  0  0  0
    5.0536   -4.8726    3.6321 O   0  0  0  0  0  0  0  0  0  0  0  0
    5.8752   -1.6985    7.0208 O   0  0  0  0  0  0  0  0  0  0  0  0
    3.5105   -1.7729    5.1821 N   0  3  0  0  0  0  0  0  0  0  0  0
   13.8677   -4.1375    4.7945 O   0  0  0  0  0  0  0  0  0  0  0  0
   13.5375   -6.5992    4.5100 H   0  0  0  0  0  0  0  0  0  0  0  0
    8.5099   -2.2954    6.6143 H   0  0  0  0  0  0  0  0  0  0  0  0
    4.5576   -5.9245    1.9541 H   0  0  0  0  0  0  0  0  0  0  0  0
    6.2246   -6.1704    2.4688 H   0  0  0  0  0  0  0  0  0  0  0  0
    5.7235   -4.6185    1.6866 H   0  0  0  0  0  0  0  0  0  0  0  0
    6.2077   -0.1503    8.3266 H   0  0  0  0  0  0  0  0  0  0  0  0
    7.2626   -0.1446    6.9046 H   0  0  0  0  0  0  0  0  0  0  0  0
    7.5297   -1.3149    8.2571 H   0  0  0  0  0  0  0  0  0  0  0  0
    8.6622   -6.5061    4.8075 H   0  0  0  0  0  0  0  0  0  0  0  0
    9.9281   -8.5776    4.4759 H   0  0  0  0  0  0  0  0  0  0  0  0
    3.5213   -0.2891    3.6800 H   0  0  0  0  0  0  0  0  0  0  0  0
    3.5498   -1.9843    3.0709 H   0  0  0  0  0  0  0  0  0  0  0  0
    5.0234   -1.2326    3.7897 H   0  0  0  0  0  0  0  0  0  0  0  0
    1.7724   -2.0438    6.3573 H   0  0  0  0  0  0  0  0  0  0  0  0
    1.5608   -2.3486    4.5957 H   0  0  0  0  0  0  0  0  0  0  0  0
    1.7128   -0.6656    5.2140 H   0  0  0  0  0  0  0  0  0  0  0  0
   10.1434   -1.8059    4.9345 H   0  0  0  0  0  0  0  0  0  0  0  0
   13.7586   -1.7687    4.9264 H   0  0  0  0  0  0  0  0  0  0  0  0
   12.4345   -1.1347    5.9254 H   0  0  0  0  0  0  0  0  0  0  0  0
   12.3893   -0.9448    4.1476 H   0  0  0  0  0  0  0  0  0  0  0  0
    7.7641   -4.9786    3.3748 H   0  0  0  0  0  0  0  0  0  0  0  0
    3.7722   -3.3385    6.5770 H   0  0  0  0  0  0  0  0  0  0  0  0
    3.4435   -3.8610    4.9301 H   0  0  0  0  0  0  0  0  0  0  0  0
    3.9493   -1.1538    5.8793 H   0  0  0  0  0  0  0  0  0  0  0  0
  1  2  2  0  0  0  0
  1 16  1  0  0  0  0
  2  4  1  0  0  0  0
  2 27  1  0  0  0  0
  3  4  2  0  0  0  0
  3  6  1  0  0  0  0
  3 14  1  0  0  0  0
  4  5  1  0  0  0  0
  5 15  1  0  0  0  0
  5 26  2  0  0  0  0
  6 13  1  0  0  0  0
  6 19  2  0  0  0  0
  7  8  2  0  0  0  0
  7 10  1  0  0  0  0
  7 24  1  0  0  0  0
  8 13  1  0  0  0  0
  8 28  1  0  0  0  0
  9 10  2  0  0  0  0
  9 21  1  0  0  0  0
  9 23  1  0  0  0  0
 10 22  1  0  0  0  0
 11 23  1  0  0  0  0
 11 29  1  0  0  0  0
 11 30  1  0  0  0  0
 11 31  1  0  0  0  0
 12 24  1  0  0  0  0
 12 32  1  0  0  0  0
 12 33  1  0  0  0  0
 12 34  1  0  0  0  0
 13 21  2  0  0  0  0
 14 16  2  0  0  0  0
 14 35  1  0  0  0  0
 15 19  1  0  0  0  0
 15 20  1  0  0  0  0
 16 36  1  0  0  0  0
 17 25  1  0  0  0  0
 17 37  1  0  0  0  0
 17 38  1  0  0  0  0
 17 39  1  0  0  0  0
 18 25  1  0  0  0  0
 18 40  1  0  0  0  0
 18 41  1  0  0  0  0
 18 42  1  0  0  0  0
 19 43  1  0  0  0  0
 20 44  1  0  0  0  0
 20 45  1  0  0  0  0
 20 46  1  0  0  0  0
 21 47  1  0  0  0  0
 22 25  1  0  0  0  0
 22 48  1  0  0  0  0
 22 49  1  0  0  0  0
 25 50  1  0  0  0  0
M  CHG  2  15   1  25   1
M  END
$$$$
