5TG
 OpenBabel04161910103D

 50 52  0  0  0  0  0  0  0  0999 V2000
   28.8682   14.7141   -1.5865 N   0  0  0  0  0  0  0  0  0  0  0  0
   29.2129   15.6921   -0.5762 C   0  0  0  0  0  0  0  0  0  0  0  0
   27.7435   13.3778   -0.1431 O   0  0  0  0  0  0  0  0  0  0  0  0
   28.1662   13.5855   -1.2406 C   0  0  0  0  0  0  0  0  0  0  0  0
   29.3015   15.0160   -2.9397 C   0  0  0  0  0  0  0  0  0  0  0  0
   30.0031   16.3346   -2.8077 C   0  0  0  0  0  0  0  0  0  0  0  0
   30.1417   16.6236   -1.3117 C   0  0  0  0  0  0  0  0  0  0  0  0
   28.0579   12.6323   -2.4234 C   0  0  0  0  0  0  0  0  0  0  0  0
   27.2686   11.4563   -1.9743 C   0  0  0  0  0  0  0  0  0  0  0  0
   27.0233   10.4366   -3.0666 C   0  0  0  0  0  0  0  0  0  0  0  0
   26.2760    9.3239   -2.3655 C   0  0  0  0  0  0  0  0  0  0  0  0
   25.9207    8.2934   -3.3856 C   0  0  0  0  0  0  0  0  0  0  0  0
   27.0793    7.7499   -4.0830 N   0  0  0  0  0  0  0  0  0  0  0  0
   27.8998    8.7536   -4.7703 C   0  0  0  0  0  0  0  0  0  0  0  0
   28.2789    9.8462   -3.7407 C   0  0  0  0  0  0  0  0  0  0  0  0
   27.2313    6.3713   -4.0618 C   0  0  0  0  0  0  0  0  0  0  0  0
   28.3174    5.6627   -4.5456 C   0  0  0  0  0  0  0  0  0  0  0  0
   28.3567    4.2494   -4.4561 C   0  0  0  0  0  0  0  0  0  0  0  0
   27.3057    3.5107   -3.8878 C   0  0  0  0  0  0  0  0  0  0  0  0
   26.2049    4.1834   -3.4057 C   0  0  0  0  0  0  0  0  0  0  0  0
   26.2157    5.5655   -3.5054 C   0  0  0  0  0  0  0  0  0  0  0  0
   27.3349    2.0156   -3.7907 C   0  0  0  0  0  0  0  0  0  0  0  0
   29.7058   15.2189    0.2890 H   0  0  0  0  0  0  0  0  0  0  0  0
   28.3155   16.2098   -0.2070 H   0  0  0  0  0  0  0  0  0  0  0  0
   28.4307   15.0650   -3.6207 H   0  0  0  0  0  0  0  0  0  0  0  0
   29.9625   14.2187   -3.3250 H   0  0  0  0  0  0  0  0  0  0  0  0
   29.4135   17.1198   -3.2848 H   0  0  0  0  0  0  0  0  0  0  0  0
   30.9878   16.2884   -3.2737 H   0  0  0  0  0  0  0  0  0  0  0  0
   31.1702   16.4375   -0.9926 H   0  0  0  0  0  0  0  0  0  0  0  0
   29.8759   17.6587   -1.1005 H   0  0  0  0  0  0  0  0  0  0  0  0
   29.0659   12.3211   -2.7286 H   0  0  0  0  0  0  0  0  0  0  0  0
   27.5643   13.1249   -3.2697 H   0  0  0  0  0  0  0  0  0  0  0  0
   26.2962   11.8142   -1.6002 H   0  0  0  0  0  0  0  0  0  0  0  0
   27.7967   10.9741   -1.1420 H   0  0  0  0  0  0  0  0  0  0  0  0
   26.3878   10.8856   -3.8420 H   0  0  0  0  0  0  0  0  0  0  0  0
   25.3672    9.7252   -1.8902 H   0  0  0  0  0  0  0  0  0  0  0  0
   26.9103    8.9000   -1.5687 H   0  0  0  0  0  0  0  0  0  0  0  0
   25.1885    8.6707   -4.0954 H   0  0  0  0  0  0  0  0  0  0  0  0
   25.4279    7.5578   -2.7893 H   0  0  0  0  0  0  0  0  0  0  0  0
   27.3314    9.2175   -5.6007 H   0  0  0  0  0  0  0  0  0  0  0  0
   28.8029    8.3097   -5.2003 H   0  0  0  0  0  0  0  0  0  0  0  0
   28.9174    9.3880   -2.9720 H   0  0  0  0  0  0  0  0  0  0  0  0
   28.8422   10.6442   -4.2327 H   0  0  0  0  0  0  0  0  0  0  0  0
   29.1472    6.1952   -4.9989 H   0  0  0  0  0  0  0  0  0  0  0  0
   29.2247    3.7224   -4.8447 H   0  0  0  0  0  0  0  0  0  0  0  0
   25.3467    3.6754   -2.9692 H   0  0  0  0  0  0  0  0  0  0  0  0
   25.3085    5.9970   -3.1243 H   0  0  0  0  0  0  0  0  0  0  0  0
   28.2698    1.6281   -4.2084 H   0  0  0  0  0  0  0  0  0  0  0  0
   26.4959    1.5810   -4.3497 H   0  0  0  0  0  0  0  0  0  0  0  0
   27.2625    1.6966   -2.7424 H   0  0  0  0  0  0  0  0  0  0  0  0
  1  2  1  0  0  0  0
  1  4  1  0  0  0  0
  1  5  1  0  0  0  0
  2  7  1  0  0  0  0
  2 23  1  0  0  0  0
  2 24  1  0  0  0  0
  3  4  2  0  0  0  0
  4  8  1  0  0  0  0
  5  6  1  0  0  0  0
  5 25  1  0  0  0  0
  5 26  1  0  0  0  0
  6  7  1  0  0  0  0
  6 27  1  0  0  0  0
  6 28  1  0  0  0  0
  7 29  1  0  0  0  0
  7 30  1  0  0  0  0
  8  9  1  0  0  0  0
  8 31  1  0  0  0  0
  8 32  1  0  0  0  0
  9 10  1  0  0  0  0
  9 33  1  0  0  0  0
  9 34  1  0  0  0  0
 10 11  1  0  0  0  0
 10 15  1  0  0  0  0
 10 35  1  0  0  0  0
 11 12  1  0  0  0  0
 11 36  1  0  0  0  0
 11 37  1  0  0  0  0
 12 13  1  0  0  0  0
 12 38  1  0  0  0  0
 12 39  1  0  0  0  0
 13 14  1  0  0  0  0
 13 16  1  0  0  0  0
 14 15  1  0  0  0  0
 14 40  1  0  0  0  0
 14 41  1  0  0  0  0
 15 42  1  0  0  0  0
 15 43  1  0  0  0  0
 16 17  2  0  0  0  0
 16 21  1  0  0  0  0
 17 18  1  0  0  0  0
 17 44  1  0  0  0  0
 18 19  2  0  0  0  0
 18 45  1  0  0  0  0
 19 20  1  0  0  0  0
 19 22  1  0  0  0  0
 20 21  2  0  0  0  0
 20 46  1  0  0  0  0
 21 47  1  0  0  0  0
 22 48  1  0  0  0  0
 22 49  1  0  0  0  0
 22 50  1  0  0  0  0
M  END
$$$$
