5TQ
 OpenBabel04161910083D

 34 36  0  0  0  0  0  0  0  0999 V2000
   21.8691   32.5403   22.2851 N   0  3  0  0  0  0  0  0  0  0  0  0
   22.3785   31.2552   22.2941 C   0  0  0  0  0  0  0  0  0  0  0  0
   20.4711   32.8395   22.6315 C   0  0  0  0  0  0  0  0  0  0  0  0
   18.8305   31.8500   20.9409 C   0  0  0  0  0  0  0  0  0  0  0  0
   27.2137   35.0566   20.5247 C   0  0  0  0  0  0  0  0  0  0  0  0
   26.8235   36.3897   20.5275 C   0  0  0  0  0  0  0  0  0  0  0  0
   25.5278   36.7529   20.8684 C   0  0  0  0  0  0  0  0  0  0  0  0
   24.6016   35.7809   21.1916 C   0  0  0  0  0  0  0  0  0  0  0  0
   24.9745   34.4285   21.2054 C   0  0  0  0  0  0  0  0  0  0  0  0
   26.2857   34.0715   20.8701 C   0  0  0  0  0  0  0  0  0  0  0  0
   26.7042   32.6359   20.8774 C   0  0  0  0  0  0  0  0  0  0  0  0
   24.0287   33.3793   21.5560 C   0  0  0  0  0  0  0  0  0  0  0  0
   24.5482   31.9899   21.5197 C   0  0  0  0  0  0  0  0  0  0  0  0
   25.7743   31.6680   21.2203 N   0  0  0  0  0  0  0  0  0  0  0  0
   22.7461   33.5569   21.9257 C   0  0  0  0  0  0  0  0  0  0  0  0
   23.5978   30.9192   21.9030 C   0  0  0  0  0  0  0  0  0  0  0  0
   19.4326   31.7507   22.3354 C   0  0  0  0  0  0  0  0  0  0  0  0
   19.6688   31.1000   19.8850 C   0  0  0  0  0  0  0  0  0  0  0  0
   27.8549   32.3743   20.5978 O   0  0  0  0  0  0  0  0  0  0  0  0
   27.7099   37.3405   20.2094 F   0  0  0  0  0  0  0  0  0  0  0  0
   19.0034   30.3752   19.1032 O   0  0  0  0  0  0  0  0  0  0  0  0
   20.9056   31.2976   19.9101 O   0  0  0  0  0  0  0  0  0  0  0  0
   21.6894   30.4591   22.5690 H   0  0  0  0  0  0  0  0  0  0  0  0
   20.1568   33.7629   22.1292 H   0  0  0  0  0  0  0  0  0  0  0  0
   20.4692   33.0260   23.7097 H   0  0  0  0  0  0  0  0  0  0  0  0
   18.7264   32.9021   20.6517 H   0  0  0  0  0  0  0  0  0  0  0  0
   17.8191   31.4205   20.9691 H   0  0  0  0  0  0  0  0  0  0  0  0
   28.2337   34.7940   20.2496 H   0  0  0  0  0  0  0  0  0  0  0  0
   25.2367   37.7982   20.8790 H   0  0  0  0  0  0  0  0  0  0  0  0
   23.5843   36.0698   21.4302 H   0  0  0  0  0  0  0  0  0  0  0  0
   22.2867   34.5394   21.9777 H   0  0  0  0  0  0  0  0  0  0  0  0
   23.9426   29.8993   21.8568 H   0  0  0  0  0  0  0  0  0  0  0  0
   18.6257   31.8530   23.0738 H   0  0  0  0  0  0  0  0  0  0  0  0
   19.8347   30.7489   22.4722 H   0  0  0  0  0  0  0  0  0  0  0  0
  1  2  2  0  0  0  0
  1  3  1  0  0  0  0
  1 15  1  0  0  0  0
  2 16  1  0  0  0  0
  2 23  1  0  0  0  0
  3 17  1  0  0  0  0
  3 24  1  0  0  0  0
  3 25  1  0  0  0  0
  4 17  1  0  0  0  0
  4 18  1  0  0  0  0
  4 26  1  0  0  0  0
  4 27  1  0  0  0  0
  5  6  2  0  0  0  0
  5 10  1  0  0  0  0
  5 28  1  0  0  0  0
  6  7  1  0  0  0  0
  6 20  1  0  0  0  0
  7  8  2  0  0  0  0
  7 29  1  0  0  0  0
  8  9  1  0  0  0  0
  8 30  1  0  0  0  0
  9 10  2  0  0  0  0
  9 12  1  0  0  0  0
 10 11  1  0  0  0  0
 11 14  1  0  0  0  0
 11 19  2  0  0  0  0
 12 13  1  0  0  0  0
 12 15  2  0  0  0  0
 13 14  1  0  0  0  0
 13 16  2  0  0  0  0
 15 31  1  0  0  0  0
 16 32  1  0  0  0  0
 17 33  1  0  0  0  0
 17 34  1  0  0  0  0
 18 21  2  0  0  0  0
 18 22  1  0  0  0  0
M  CHG  1   1   1
M  END
$$$$
