5TY
 OpenBabel04161910123D

 27 28  0  0  0  0  0  0  0  0999 V2000
  -24.8366   -5.3767  -10.6290 C   0  0  0  0  0  0  0  0  0  0  0  0
  -25.5747   -4.1183  -10.6296 C   0  0  0  0  0  0  0  0  0  0  0  0
  -22.8703   -6.5861  -10.4306 C   0  0  0  0  0  0  0  0  0  0  0  0
  -22.8663   -1.6686  -10.0478 C   0  0  0  0  0  0  0  0  0  0  0  0
  -26.9987   -8.7777  -11.2786 C   0  0  0  0  0  0  0  0  0  0  0  0
  -23.4793   -5.3636  -10.4244 C   0  0  0  0  0  0  0  0  0  0  0  0
  -22.7627   -4.0997  -10.2178 C   0  0  0  0  0  0  0  0  0  0  0  0
  -24.8778   -7.6722  -10.8317 C   0  0  0  0  0  0  0  0  0  0  0  0
  -25.5490   -6.5044  -10.8341 N   0  0  0  0  0  0  0  0  0  0  0  0
  -23.5439   -2.9382  -10.2433 N   0  3  0  0  0  0  0  0  0  0  0  0
  -23.5471   -7.7371  -10.6311 N   0  0  0  0  0  0  0  0  0  0  0  0
  -24.9132   -2.9707  -10.4429 C   0  0  0  0  0  0  0  0  0  0  0  0
  -25.5748   -8.8379  -11.0354 N   0  0  0  0  0  0  0  0  0  0  0  0
  -21.5481   -4.1136  -10.0395 O   0  0  0  0  0  0  0  0  0  0  0  0
  -24.9047  -10.1190  -11.0592 C   0  0  0  0  0  0  0  0  0  0  0  0
  -26.6463   -4.1553  -10.7820 H   0  0  0  0  0  0  0  0  0  0  0  0
  -21.8007   -6.6930  -10.2738 H   0  0  0  0  0  0  0  0  0  0  0  0
  -23.5650   -0.8276  -10.0797 H   0  0  0  0  0  0  0  0  0  0  0  0
  -22.1129   -1.5438  -10.8325 H   0  0  0  0  0  0  0  0  0  0  0  0
  -22.3589   -1.6820   -9.0776 H   0  0  0  0  0  0  0  0  0  0  0  0
  -27.4154   -9.7816  -11.4218 H   0  0  0  0  0  0  0  0  0  0  0  0
  -27.2236   -8.2032  -12.1843 H   0  0  0  0  0  0  0  0  0  0  0  0
  -27.5264   -8.3293  -10.4294 H   0  0  0  0  0  0  0  0  0  0  0  0
  -25.4399   -2.0201  -10.4402 H   0  0  0  0  0  0  0  0  0  0  0  0
  -23.8272  -10.0725  -10.8716 H   0  0  0  0  0  0  0  0  0  0  0  0
  -25.0434  -10.5967  -12.0350 H   0  0  0  0  0  0  0  0  0  0  0  0
  -25.3354  -10.7761  -10.2959 H   0  0  0  0  0  0  0  0  0  0  0  0
  1  2  1  0  0  0  0
  1  6  2  0  0  0  0
  1  9  1  0  0  0  0
  2 12  2  0  0  0  0
  2 16  1  0  0  0  0
  3  6  1  0  0  0  0
  3 11  2  0  0  0  0
  3 17  1  0  0  0  0
  4 10  1  0  0  0  0
  4 18  1  0  0  0  0
  4 19  1  0  0  0  0
  4 20  1  0  0  0  0
  5 13  1  0  0  0  0
  5 21  1  0  0  0  0
  5 22  1  0  0  0  0
  5 23  1  0  0  0  0
  6  7  1  0  0  0  0
  7 10  1  0  0  0  0
  7 14  2  0  0  0  0
  8  9  2  0  0  0  0
  8 11  1  0  0  0  0
  8 13  1  0  0  0  0
 10 12  1  0  0  0  0
 12 24  1  0  0  0  0
 13 15  1  0  0  0  0
 15 25  1  0  0  0  0
 15 26  1  0  0  0  0
 15 27  1  0  0  0  0
M  CHG  1  10   1
M  END
$$$$
