5U6
 OpenBabel04161910113D

 50 52  0  0  0  0  0  0  0  0999 V2000
   11.4052   -7.9365    4.2695 N   0  0  0  0  0  0  0  0  0  0  0  0
   12.0532   -6.7502    4.3868 C   0  0  0  0  0  0  0  0  0  0  0  0
   10.0125   -5.5091    4.6137 C   0  0  0  0  0  0  0  0  0  0  0  0
   11.4090   -5.5357    4.5517 C   0  0  0  0  0  0  0  0  0  0  0  0
   12.1844   -4.2878    4.6672 C   0  0  0  0  0  0  0  0  0  0  0  0
    9.3059   -4.2140    4.7847 C   0  0  0  0  0  0  0  0  0  0  0  0
    5.8472   -3.4158    6.1394 C   0  0  0  0  0  0  0  0  0  0  0  0
    7.2367   -3.4541    6.0356 C   0  0  0  0  0  0  0  0  0  0  0  0
    5.6149   -4.5335    3.9987 C   0  0  0  0  0  0  0  0  0  0  0  0
    5.0323   -3.9419    5.1298 C   0  0  0  0  0  0  0  0  0  0  0  0
    3.5010   -1.4163    4.4725 C   0  0  0  0  0  0  0  0  0  0  0  0
    7.5938   -1.8418    7.7475 C   0  0  0  0  0  0  0  0  0  0  0  0
    7.8296   -4.0545    4.9084 C   0  0  0  0  0  0  0  0  0  0  0  0
    9.3386   -6.7327    4.5249 C   0  0  0  0  0  0  0  0  0  0  0  0
   11.4496   -3.1129    4.7916 N   0  3  0  0  0  0  0  0  0  0  0  0
   10.0611   -7.8986    4.3424 C   0  0  0  0  0  0  0  0  0  0  0  0
    1.4739   -2.8376    4.2906 C   0  0  0  0  0  0  0  0  0  0  0  0
    8.0532   -2.9875    7.0336 O   0  0  0  0  0  0  0  0  0  0  0  0
   10.0664   -3.1046    4.8399 C   0  0  0  0  0  0  0  0  0  0  0  0
   12.1611   -1.8474    4.9339 C   0  0  0  0  0  0  0  0  0  0  0  0
    7.0062   -4.5605    3.8821 C   0  0  0  0  0  0  0  0  0  0  0  0
    3.5425   -3.8065    5.2597 C   0  0  0  0  0  0  0  0  0  0  0  0
    4.7556   -4.9689    3.0231 O   0  0  0  0  0  0  0  0  0  0  0  0
    2.9681   -2.8083    4.2849 N   0  3  0  0  0  0  0  0  0  0  0  0
   13.4120   -4.3397    4.6425 O   0  0  0  0  0  0  0  0  0  0  0  0
    5.1320   -6.1955    2.3838 C   0  0  0  0  0  0  0  0  0  0  0  0
   13.1373   -6.8129    4.3397 H   0  0  0  0  0  0  0  0  0  0  0  0
    5.3769   -2.9928    7.0228 H   0  0  0  0  0  0  0  0  0  0  0  0
    3.0564   -0.7763    3.7062 H   0  0  0  0  0  0  0  0  0  0  0  0
    4.5861   -1.4266    4.3436 H   0  0  0  0  0  0  0  0  0  0  0  0
    3.2306   -1.0724    5.4746 H   0  0  0  0  0  0  0  0  0  0  0  0
    8.3738   -1.5512    8.4571 H   0  0  0  0  0  0  0  0  0  0  0  0
    6.6951   -2.0566    8.3331 H   0  0  0  0  0  0  0  0  0  0  0  0
    7.4211   -1.0011    7.0661 H   0  0  0  0  0  0  0  0  0  0  0  0
    8.2561   -6.8093    4.5884 H   0  0  0  0  0  0  0  0  0  0  0  0
    9.5673   -8.8622    4.2532 H   0  0  0  0  0  0  0  0  0  0  0  0
    1.1492   -3.8655    4.1109 H   0  0  0  0  0  0  0  0  0  0  0  0
    1.1193   -2.1877    3.4869 H   0  0  0  0  0  0  0  0  0  0  0  0
    1.1254   -2.4829    5.2646 H   0  0  0  0  0  0  0  0  0  0  0  0
    9.6187   -2.1198    4.9594 H   0  0  0  0  0  0  0  0  0  0  0  0
   13.2449   -1.9813    4.8851 H   0  0  0  0  0  0  0  0  0  0  0  0
   11.9094   -1.4040    5.9042 H   0  0  0  0  0  0  0  0  0  0  0  0
   11.8547   -1.1695    4.1302 H   0  0  0  0  0  0  0  0  0  0  0  0
    7.4762   -4.9733    2.9931 H   0  0  0  0  0  0  0  0  0  0  0  0
    3.2545   -3.4749    6.2649 H   0  0  0  0  0  0  0  0  0  0  0  0
    3.0599   -4.7744    5.0787 H   0  0  0  0  0  0  0  0  0  0  0  0
    4.3528   -6.4386    1.6541 H   0  0  0  0  0  0  0  0  0  0  0  0
    5.1780   -7.0131    3.1116 H   0  0  0  0  0  0  0  0  0  0  0  0
    6.0729   -6.1082    1.8339 H   0  0  0  0  0  0  0  0  0  0  0  0
    3.2865   -3.1378    3.3602 H   0  0  0  0  0  0  0  0  0  0  0  0
  1  2  2  0  0  0  0
  1 16  1  0  0  0  0
  2  4  1  0  0  0  0
  2 27  1  0  0  0  0
  3  4  2  0  0  0  0
  3  6  1  0  0  0  0
  3 14  1  0  0  0  0
  4  5  1  0  0  0  0
  5 15  1  0  0  0  0
  5 25  2  0  0  0  0
  6 13  1  0  0  0  0
  6 19  2  0  0  0  0
  7  8  2  0  0  0  0
  7 10  1  0  0  0  0
  7 28  1  0  0  0  0
  8 13  1  0  0  0  0
  8 18  1  0  0  0  0
  9 10  2  0  0  0  0
  9 21  1  0  0  0  0
  9 23  1  0  0  0  0
 10 22  1  0  0  0  0
 11 24  1  0  0  0  0
 11 29  1  0  0  0  0
 11 30  1  0  0  0  0
 11 31  1  0  0  0  0
 12 18  1  0  0  0  0
 12 32  1  0  0  0  0
 12 33  1  0  0  0  0
 12 34  1  0  0  0  0
 13 21  2  0  0  0  0
 14 16  2  0  0  0  0
 14 35  1  0  0  0  0
 15 19  1  0  0  0  0
 15 20  1  0  0  0  0
 16 36  1  0  0  0  0
 17 24  1  0  0  0  0
 17 37  1  0  0  0  0
 17 38  1  0  0  0  0
 17 39  1  0  0  0  0
 19 40  1  0  0  0  0
 20 41  1  0  0  0  0
 20 42  1  0  0  0  0
 20 43  1  0  0  0  0
 21 44  1  0  0  0  0
 22 24  1  0  0  0  0
 22 45  1  0  0  0  0
 22 46  1  0  0  0  0
 23 26  1  0  0  0  0
 24 50  1  0  0  0  0
 26 47  1  0  0  0  0
 26 48  1  0  0  0  0
 26 49  1  0  0  0  0
M  CHG  2  15   1  24   1
M  END
$$$$
