5VZ
 OpenBabel04161910123D

 72 75  0  0  0  0  0  0  0  0999 V2000
    8.4551   36.8557   78.5822 C   0  0  0  0  0  0  0  0  0  0  0  0
   10.5086   38.1488   78.5589 C   0  0  0  0  0  0  0  0  0  0  0  0
   12.8280   39.0769   78.9986 C   0  0  0  0  0  0  0  0  0  0  0  0
   14.8731   40.1765   79.2219 C   0  0  0  0  0  0  0  0  0  0  0  0
   14.6908   38.4146   77.7761 C   0  0  0  0  0  0  0  0  0  0  0  0
   14.8599   36.5621   76.0076 C   0  0  0  0  0  0  0  0  0  0  0  0
   13.2087   34.9214   75.2488 C   0  0  0  0  0  0  0  0  0  0  0  0
    7.4689   35.5180   76.4675 Cl  0  0  0  0  0  0  0  0  0  0  0  0
    8.6435   36.5245   77.2387 C   0  0  0  0  0  0  0  0  0  0  0  0
    9.7519   37.0143   76.5295 C   0  0  0  0  0  0  0  0  0  0  0  0
    9.9698   36.6119   75.1739 N   0  0  0  0  0  0  0  0  0  0  0  0
   10.5860   37.5619   73.9510 S   0  0  0  0  0  0  0  0  0  0  0  0
    9.2271   38.7134   73.4944 C   0  0  0  0  0  0  0  0  0  0  0  0
    9.7486   39.5953   72.3448 C   0  0  0  0  0  0  0  0  0  0  0  0
    8.0140   37.9113   73.0177 C   0  0  0  0  0  0  0  0  0  0  0  0
    8.8322   39.6214   74.6673 C   0  0  0  0  0  0  0  0  0  0  0  0
   10.7847   36.6443   72.8482 O   0  0  0  0  0  0  0  0  0  0  0  0
   11.7028   38.3486   74.4276 O   0  0  0  0  0  0  0  0  0  0  0  0
   10.6617   37.8218   77.2056 C   0  0  0  0  0  0  0  0  0  0  0  0
    9.3868   37.6631   79.2372 C   0  0  0  0  0  0  0  0  0  0  0  0
   11.4384   38.9604   79.2357 N   0  0  0  0  0  0  0  0  0  0  0  0
   13.5502   40.0845   79.6119 C   0  0  0  0  0  0  0  0  0  0  0  0
   12.9988   41.0361   80.6234 C   0  0  0  0  0  0  0  0  0  0  0  0
   15.4566   39.3721   78.3154 N   0  0  0  0  0  0  0  0  0  0  0  0
   15.3024   37.6139   76.8191 N   0  0  0  0  0  0  0  0  0  0  0  0
   13.6024   35.9654   76.1014 C   0  0  0  0  0  0  0  0  0  0  0  0
   14.0836   34.4020   74.2925 C   0  0  0  0  0  0  0  0  0  0  0  0
   13.6520   33.3419   73.4587 N   0  0  0  0  0  0  0  0  0  0  0  0
   14.7220   32.4255   73.0191 C   0  0  0  0  0  0  0  0  0  0  0  0
   14.2135   31.2650   72.1376 C   0  0  0  0  0  0  0  0  0  0  0  0
   12.7778   31.4695   71.6964 N   0  3  0  0  0  0  0  0  0  0  0  0
   12.3221   30.4520   70.7070 C   0  0  0  0  0  0  0  0  0  0  0  0
   12.5675   32.9007   71.2336 C   0  0  0  0  0  0  0  0  0  0  0  0
   12.7076   33.8568   72.4335 C   0  0  0  0  0  0  0  0  0  0  0  0
   15.3479   34.9956   74.1967 C   0  0  0  0  0  0  0  0  0  0  0  0
   15.7237   36.0569   75.0323 C   0  0  0  0  0  0  0  0  0  0  0  0
   13.4119   38.2456   78.1181 N   0  0  0  0  0  0  0  0  0  0  0  0
    7.5925   36.4846   79.1302 H   0  0  0  0  0  0  0  0  0  0  0  0
   15.5289   40.9385   79.6354 H   0  0  0  0  0  0  0  0  0  0  0  0
   12.2091   34.5117   75.3619 H   0  0  0  0  0  0  0  0  0  0  0  0
    9.5441   35.7378   74.8733 H   0  0  0  0  0  0  0  0  0  0  0  0
    8.9840   40.3031   72.0076 H   0  0  0  0  0  0  0  0  0  0  0  0
   10.0490   38.9883   71.4845 H   0  0  0  0  0  0  0  0  0  0  0  0
   10.6259   40.1750   72.6555 H   0  0  0  0  0  0  0  0  0  0  0  0
    7.1991   38.5752   72.7127 H   0  0  0  0  0  0  0  0  0  0  0  0
    7.6313   37.2564   73.8063 H   0  0  0  0  0  0  0  0  0  0  0  0
    8.2662   37.2794   72.1591 H   0  0  0  0  0  0  0  0  0  0  0  0
    8.0535   40.3311   74.3651 H   0  0  0  0  0  0  0  0  0  0  0  0
    9.6844   40.2021   75.0373 H   0  0  0  0  0  0  0  0  0  0  0  0
    8.4227   39.0556   75.5063 H   0  0  0  0  0  0  0  0  0  0  0  0
   11.5363   38.1953   76.6868 H   0  0  0  0  0  0  0  0  0  0  0  0
    9.2387   37.8915   80.2904 H   0  0  0  0  0  0  0  0  0  0  0  0
   11.1887   39.1411   80.1974 H   0  0  0  0  0  0  0  0  0  0  0  0
   11.9426   40.8680   80.8457 H   0  0  0  0  0  0  0  0  0  0  0  0
   13.0884   42.0657   80.2649 H   0  0  0  0  0  0  0  0  0  0  0  0
   13.5423   40.9303   81.5681 H   0  0  0  0  0  0  0  0  0  0  0  0
   16.2411   37.9528   76.6622 H   0  0  0  0  0  0  0  0  0  0  0  0
   12.8926   36.2963   76.8488 H   0  0  0  0  0  0  0  0  0  0  0  0
   15.2079   31.9908   73.9030 H   0  0  0  0  0  0  0  0  0  0  0  0
   15.4928   32.9525   72.4461 H   0  0  0  0  0  0  0  0  0  0  0  0
   14.2500   30.3122   72.6757 H   0  0  0  0  0  0  0  0  0  0  0  0
   14.8298   31.1836   71.2340 H   0  0  0  0  0  0  0  0  0  0  0  0
   11.2708   30.6438   70.4778 H   0  0  0  0  0  0  0  0  0  0  0  0
   12.4318   29.4630   71.1593 H   0  0  0  0  0  0  0  0  0  0  0  0
   12.9375   30.5396   69.8074 H   0  0  0  0  0  0  0  0  0  0  0  0
   11.5697   32.9748   70.7889 H   0  0  0  0  0  0  0  0  0  0  0  0
   13.3232   33.1024   70.4660 H   0  0  0  0  0  0  0  0  0  0  0  0
   12.9942   34.8475   72.0596 H   0  0  0  0  0  0  0  0  0  0  0  0
   11.7194   33.9492   72.9025 H   0  0  0  0  0  0  0  0  0  0  0  0
   16.0738   34.6839   73.4548 H   0  0  0  0  0  0  0  0  0  0  0  0
   16.7111   36.4929   74.9030 H   0  0  0  0  0  0  0  0  0  0  0  0
   12.2222   31.3802   72.5605 H   0  0  0  0  0  0  0  0  0  0  0  0
  1  9  2  0  0  0  0
  1 20  1  0  0  0  0
  1 38  1  0  0  0  0
  2 19  1  0  0  0  0
  2 20  2  0  0  0  0
  2 21  1  0  0  0  0
  3 21  1  0  0  0  0
  3 22  2  0  0  0  0
  3 37  1  0  0  0  0
  4 22  1  0  0  0  0
  4 24  2  0  0  0  0
  4 39  1  0  0  0  0
  5 24  1  0  0  0  0
  5 25  1  0  0  0  0
  5 37  2  0  0  0  0
  6 25  1  0  0  0  0
  6 26  2  0  0  0  0
  6 36  1  0  0  0  0
  7 26  1  0  0  0  0
  7 27  2  0  0  0  0
  7 40  1  0  0  0  0
  8  9  1  0  0  0  0
  9 10  1  0  0  0  0
 10 11  1  0  0  0  0
 10 19  2  0  0  0  0
 11 12  1  0  0  0  0
 11 41  1  0  0  0  0
 12 13  1  0  0  0  0
 12 17  2  0  0  0  0
 12 18  2  0  0  0  0
 13 14  1  0  0  0  0
 13 15  1  0  0  0  0
 13 16  1  0  0  0  0
 14 42  1  0  0  0  0
 14 43  1  0  0  0  0
 14 44  1  0  0  0  0
 15 45  1  0  0  0  0
 15 46  1  0  0  0  0
 15 47  1  0  0  0  0
 16 48  1  0  0  0  0
 16 49  1  0  0  0  0
 16 50  1  0  0  0  0
 19 51  1  0  0  0  0
 20 52  1  0  0  0  0
 21 53  1  0  0  0  0
 22 23  1  0  0  0  0
 23 54  1  0  0  0  0
 23 55  1  0  0  0  0
 23 56  1  0  0  0  0
 25 57  1  0  0  0  0
 26 58  1  0  0  0  0
 27 28  1  0  0  0  0
 27 35  1  0  0  0  0
 28 29  1  0  0  0  0
 28 34  1  0  0  0  0
 29 30  1  0  0  0  0
 29 59  1  0  0  0  0
 29 60  1  0  0  0  0
 30 31  1  0  0  0  0
 30 61  1  0  0  0  0
 30 62  1  0  0  0  0
 31 32  1  0  0  0  0
 31 33  1  0  0  0  0
 31 72  1  0  0  0  0
 32 63  1  0  0  0  0
 32 64  1  0  0  0  0
 32 65  1  0  0  0  0
 33 34  1  0  0  0  0
 33 66  1  0  0  0  0
 33 67  1  0  0  0  0
 34 68  1  0  0  0  0
 34 69  1  0  0  0  0
 35 36  2  0  0  0  0
 35 70  1  0  0  0  0
 36 71  1  0  0  0  0
M  CHG  1  31   1
M  END
$$$$
