5W1
 OpenBabel04161910133D

 72 75  0  0  0  0  0  0  0  0999 V2000
   15.3057   -8.1298   -3.9053 C   0  0  0  0  0  0  0  0  0  0  0  0
   12.7340   -3.3264    1.8664 C   0  0  0  0  0  0  0  0  0  0  0  0
   12.5666   -5.2286    0.2023 C   0  0  0  0  0  0  0  0  0  0  0  0
    9.1478   -6.6767    0.5049 C   0  0  0  0  0  0  0  0  0  0  0  0
    8.3657   -7.7653   -1.5092 C   0  0  0  0  0  0  0  0  0  0  0  0
    9.4647   -7.2740   -2.2265 C   0  0  0  0  0  0  0  0  0  0  0  0
   11.3595  -13.8923   -7.7004 C   0  0  0  0  0  0  0  0  0  0  0  0
   12.2891  -13.0136   -6.9318 N   0  3  0  0  0  0  0  0  0  0  0  0
   12.3324  -11.5906   -7.4883 C   0  0  0  0  0  0  0  0  0  0  0  0
   13.4087  -10.7645   -6.7617 C   0  0  0  0  0  0  0  0  0  0  0  0
   11.9854  -12.9920   -5.4333 C   0  0  0  0  0  0  0  0  0  0  0  0
   13.0585  -12.1751   -4.6903 C   0  0  0  0  0  0  0  0  0  0  0  0
   13.2254  -10.8628   -5.3193 N   0  0  0  0  0  0  0  0  0  0  0  0
   13.6768   -9.8230   -4.5159 C   0  0  0  0  0  0  0  0  0  0  0  0
   12.8819   -9.3605   -3.4576 C   0  0  0  0  0  0  0  0  0  0  0  0
   11.6882   -9.9406   -3.2316 F   0  0  0  0  0  0  0  0  0  0  0  0
   13.2790   -8.3022   -2.6468 C   0  0  0  0  0  0  0  0  0  0  0  0
   14.8974   -9.1817   -4.7333 C   0  0  0  0  0  0  0  0  0  0  0  0
   14.5067   -7.6718   -2.8486 C   0  0  0  0  0  0  0  0  0  0  0  0
   14.9816   -6.6098   -2.0801 N   0  0  0  0  0  0  0  0  0  0  0  0
   14.4031   -5.8221   -1.0924 C   0  0  0  0  0  0  0  0  0  0  0  0
   15.1769   -4.8751   -0.5493 N   0  0  0  0  0  0  0  0  0  0  0  0
   14.5990   -4.1080    0.3983 C   0  0  0  0  0  0  0  0  0  0  0  0
   13.2986   -4.2359    0.8167 C   0  0  0  0  0  0  0  0  0  0  0  0
   11.2072   -5.4084    0.4996 N   0  0  0  0  0  0  0  0  0  0  0  0
   10.2533   -6.1762   -0.1865 C   0  0  0  0  0  0  0  0  0  0  0  0
    8.2032   -7.4649   -0.1532 C   0  0  0  0  0  0  0  0  0  0  0  0
    7.1557   -8.7263   -2.2855 Cl  0  0  0  0  0  0  0  0  0  0  0  0
    9.6508   -7.6283   -3.6006 N   0  0  0  0  0  0  0  0  0  0  0  0
   10.2829   -6.6592   -4.7977 S   0  0  0  0  0  0  0  0  0  0  0  0
    8.9210   -5.5034   -5.2537 C   0  0  0  0  0  0  0  0  0  0  0  0
    8.5381   -4.6144   -4.0646 C   0  0  0  0  0  0  0  0  0  0  0  0
    9.4388   -4.6295   -6.4110 C   0  0  0  0  0  0  0  0  0  0  0  0
    7.6901   -6.2972   -5.7057 C   0  0  0  0  0  0  0  0  0  0  0  0
   10.4962   -7.5519   -5.9271 O   0  0  0  0  0  0  0  0  0  0  0  0
   11.4028   -5.8829   -4.3007 O   0  0  0  0  0  0  0  0  0  0  0  0
   10.3953   -6.5019   -1.5425 C   0  0  0  0  0  0  0  0  0  0  0  0
   13.1390   -6.0165   -0.7186 N   0  0  0  0  0  0  0  0  0  0  0  0
   16.2680   -7.6588   -4.0881 H   0  0  0  0  0  0  0  0  0  0  0  0
   13.4923   -2.6276    2.2310 H   0  0  0  0  0  0  0  0  0  0  0  0
   12.3864   -3.9136    2.7239 H   0  0  0  0  0  0  0  0  0  0  0  0
   11.8999   -2.7416    1.4656 H   0  0  0  0  0  0  0  0  0  0  0  0
    9.0223   -6.4588    1.5625 H   0  0  0  0  0  0  0  0  0  0  0  0
   11.6505  -13.8480   -8.7531 H   0  0  0  0  0  0  0  0  0  0  0  0
   10.3368  -13.5341   -7.5614 H   0  0  0  0  0  0  0  0  0  0  0  0
   11.4757  -14.9126   -7.3269 H   0  0  0  0  0  0  0  0  0  0  0  0
   11.3340  -11.1592   -7.3530 H   0  0  0  0  0  0  0  0  0  0  0  0
   12.5676  -11.6675   -8.5535 H   0  0  0  0  0  0  0  0  0  0  0  0
   13.3012   -9.7220   -7.0852 H   0  0  0  0  0  0  0  0  0  0  0  0
   14.4059  -11.1180   -7.0489 H   0  0  0  0  0  0  0  0  0  0  0  0
   11.9815  -14.0299   -5.0862 H   0  0  0  0  0  0  0  0  0  0  0  0
   10.9900  -12.5512   -5.3054 H   0  0  0  0  0  0  0  0  0  0  0  0
   14.0106  -12.7212   -4.7111 H   0  0  0  0  0  0  0  0  0  0  0  0
   12.7528  -12.0856   -3.6426 H   0  0  0  0  0  0  0  0  0  0  0  0
   12.6095   -8.0018   -1.8544 H   0  0  0  0  0  0  0  0  0  0  0  0
   15.5637   -9.4974   -5.5300 H   0  0  0  0  0  0  0  0  0  0  0  0
   15.9299   -6.3029   -2.2540 H   0  0  0  0  0  0  0  0  0  0  0  0
   15.2540   -3.3555    0.8305 H   0  0  0  0  0  0  0  0  0  0  0  0
   10.8914   -5.0124    1.3719 H   0  0  0  0  0  0  0  0  0  0  0  0
    7.3456   -7.8361    0.4036 H   0  0  0  0  0  0  0  0  0  0  0  0
    9.3520   -8.5614   -3.8779 H   0  0  0  0  0  0  0  0  0  0  0  0
    7.7402   -3.9109   -4.3302 H   0  0  0  0  0  0  0  0  0  0  0  0
    9.3916   -4.0340   -3.7011 H   0  0  0  0  0  0  0  0  0  0  0  0
    8.1580   -5.2096   -3.2316 H   0  0  0  0  0  0  0  0  0  0  0  0
    8.6894   -3.9036   -6.7445 H   0  0  0  0  0  0  0  0  0  0  0  0
    9.7154   -5.2458   -7.2741 H   0  0  0  0  0  0  0  0  0  0  0  0
   10.3350   -4.0727   -6.1129 H   0  0  0  0  0  0  0  0  0  0  0  0
    6.8674   -5.6312   -5.9922 H   0  0  0  0  0  0  0  0  0  0  0  0
    7.3220   -6.9410   -4.9016 H   0  0  0  0  0  0  0  0  0  0  0  0
    7.9175   -6.9356   -6.5648 H   0  0  0  0  0  0  0  0  0  0  0  0
   11.2667   -6.1353   -2.0688 H   0  0  0  0  0  0  0  0  0  0  0  0
   13.2366  -13.3952   -7.0310 H   0  0  0  0  0  0  0  0  0  0  0  0
  1 18  2  0  0  0  0
  1 19  1  0  0  0  0
  1 39  1  0  0  0  0
  2 24  1  0  0  0  0
  2 40  1  0  0  0  0
  2 41  1  0  0  0  0
  2 42  1  0  0  0  0
  3 24  2  0  0  0  0
  3 25  1  0  0  0  0
  3 38  1  0  0  0  0
  4 26  2  0  0  0  0
  4 27  1  0  0  0  0
  4 43  1  0  0  0  0
  5  6  1  0  0  0  0
  5 27  2  0  0  0  0
  5 28  1  0  0  0  0
  6 29  1  0  0  0  0
  6 37  2  0  0  0  0
  7  8  1  0  0  0  0
  7 44  1  0  0  0  0
  7 45  1  0  0  0  0
  7 46  1  0  0  0  0
  8  9  1  0  0  0  0
  8 11  1  0  0  0  0
  8 72  1  0  0  0  0
  9 10  1  0  0  0  0
  9 47  1  0  0  0  0
  9 48  1  0  0  0  0
 10 13  1  0  0  0  0
 10 49  1  0  0  0  0
 10 50  1  0  0  0  0
 11 12  1  0  0  0  0
 11 51  1  0  0  0  0
 11 52  1  0  0  0  0
 12 13  1  0  0  0  0
 12 53  1  0  0  0  0
 12 54  1  0  0  0  0
 13 14  1  0  0  0  0
 14 15  2  0  0  0  0
 14 18  1  0  0  0  0
 15 16  1  0  0  0  0
 15 17  1  0  0  0  0
 17 19  2  0  0  0  0
 17 55  1  0  0  0  0
 18 56  1  0  0  0  0
 19 20  1  0  0  0  0
 20 21  1  0  0  0  0
 20 57  1  0  0  0  0
 21 22  1  0  0  0  0
 21 38  2  0  0  0  0
 22 23  2  0  0  0  0
 23 24  1  0  0  0  0
 23 58  1  0  0  0  0
 25 26  1  0  0  0  0
 25 59  1  0  0  0  0
 26 37  1  0  0  0  0
 27 60  1  0  0  0  0
 29 30  1  0  0  0  0
 29 61  1  0  0  0  0
 30 31  1  0  0  0  0
 30 35  2  0  0  0  0
 30 36  2  0  0  0  0
 31 32  1  0  0  0  0
 31 33  1  0  0  0  0
 31 34  1  0  0  0  0
 32 62  1  0  0  0  0
 32 63  1  0  0  0  0
 32 64  1  0  0  0  0
 33 65  1  0  0  0  0
 33 66  1  0  0  0  0
 33 67  1  0  0  0  0
 34 68  1  0  0  0  0
 34 69  1  0  0  0  0
 34 70  1  0  0  0  0
 37 71  1  0  0  0  0
M  CHG  1   8   1
M  END
$$$$
