5W2
 OpenBabel04161910133D

 77 80  0  0  1  0  0  0  0  0999 V2000
    8.3853   -7.4238   -0.0499 C   0  0  0  0  0  0  0  0  0  0  0  0
   10.4367   -6.1412   -0.1083 C   0  0  0  0  0  0  0  0  0  0  0  0
   12.7349   -5.1554    0.2876 C   0  0  0  0  0  0  0  0  0  0  0  0
   14.7603   -4.0226    0.4704 C   0  0  0  0  0  0  0  0  0  0  0  0
   14.5705   -5.7187   -1.0274 C   0  0  0  0  0  0  0  0  0  0  0  0
   14.6671   -7.6183   -2.7246 C   0  0  0  0  0  0  0  0  0  0  0  0
   13.0907   -9.4056   -3.2286 C   0  0  0  0  0  0  0  0  0  0  0  0
   13.9150   -9.8703   -4.2539 C   0  0  0  0  0  0  0  0  0  0  0  0
    7.3460   -8.7198   -2.1599 Cl  0  0  0  0  0  0  0  0  0  0  0  0
    8.5510   -7.7467   -1.3979 C   0  0  0  0  0  0  0  0  0  0  0  0
    9.6481   -7.2608   -2.1188 C   0  0  0  0  0  0  0  0  0  0  0  0
    9.8310   -7.6247   -3.4869 N   0  0  0  0  0  0  0  0  0  0  0  0
   10.4376   -6.6558   -4.6888 S   0  0  0  0  0  0  0  0  0  0  0  0
    9.0404   -5.5383   -5.1565 C   0  0  0  0  0  0  0  0  0  0  0  0
    7.8407   -6.3774   -5.6081 C   0  0  0  0  0  0  0  0  0  0  0  0
    9.5453   -4.6707   -6.3234 C   0  0  0  0  0  0  0  0  0  0  0  0
    8.6439   -4.6363   -3.9836 C   0  0  0  0  0  0  0  0  0  0  0  0
   10.6388   -7.5674   -5.8031 O   0  0  0  0  0  0  0  0  0  0  0  0
   11.5317   -5.8498   -4.2083 O   0  0  0  0  0  0  0  0  0  0  0  0
   10.5782   -6.4729   -1.4573 C   0  0  0  0  0  0  0  0  0  0  0  0
    9.3346   -6.6336    0.5937 C   0  0  0  0  0  0  0  0  0  0  0  0
   11.3813   -5.3593    0.5675 N   0  0  0  0  0  0  0  0  0  0  0  0
   13.4470   -4.1639    0.8841 C   0  0  0  0  0  0  0  0  0  0  0  0
   12.9053   -3.2484    1.9410 C   0  0  0  0  0  0  0  0  0  0  0  0
   15.3416   -4.7635   -0.4910 N   0  0  0  0  0  0  0  0  0  0  0  0
   15.1363   -6.5096   -2.0118 N   0  0  0  0  0  0  0  0  0  0  0  0
   13.4693   -8.2967   -2.4631 C   0  0  0  0  0  0  0  0  0  0  0  0
   11.9489  -10.0399   -2.9101 F   0  0  0  0  0  0  0  0  0  0  0  0
   13.5708  -11.1045   -5.0231 C   0  0  0  0  0  0  0  0  0  0  0  0
   14.6553  -11.8384   -5.4910 N   0  0  0  0  0  0  0  0  0  0  0  0
   14.6463  -13.1517   -6.1356 C   0  0  2  0  0  0  0  0  0  0  0  0
   13.4062  -13.5080   -6.9528 C   0  0  0  0  0  0  0  0  0  0  0  0
   13.6500  -14.7978   -7.7311 C   0  0  0  0  0  0  0  0  0  0  0  0
   14.0063  -15.9250   -6.7802 N   0  3  1  0  0  0  0  0  0  0  0  0
   14.1294  -17.2644   -7.4827 C   0  0  0  0  0  0  0  0  0  0  0  0
   15.1647  -15.6124   -5.8587 C   0  0  0  0  0  0  0  0  0  0  0  0
   14.9396  -14.2793   -5.1406 C   0  0  0  0  0  0  0  0  0  0  0  0
   12.4093  -11.4347   -5.2109 O   0  0  0  0  0  0  0  0  0  0  0  0
   15.1020   -9.1821   -4.5331 C   0  0  0  0  0  0  0  0  0  0  0  0
   15.4700   -8.0757   -3.7739 C   0  0  0  0  0  0  0  0  0  0  0  0
   13.3097   -5.9265   -0.6546 N   0  0  0  0  0  0  0  0  0  0  0  0
    7.5197   -7.7764    0.5038 H   0  0  0  0  0  0  0  0  0  0  0  0
   15.4107   -3.2730    0.9179 H   0  0  0  0  0  0  0  0  0  0  0  0
    9.5314   -8.5629   -3.7645 H   0  0  0  0  0  0  0  0  0  0  0  0
    6.9980   -5.7469   -5.9126 H   0  0  0  0  0  0  0  0  0  0  0  0
    7.4922   -7.0285   -4.8016 H   0  0  0  0  0  0  0  0  0  0  0  0
    8.1021   -7.0188   -6.4573 H   0  0  0  0  0  0  0  0  0  0  0  0
    8.7822   -3.9672   -6.6715 H   0  0  0  0  0  0  0  0  0  0  0  0
    9.8429   -5.2930   -7.1753 H   0  0  0  0  0  0  0  0  0  0  0  0
   10.4265   -4.0891   -6.0276 H   0  0  0  0  0  0  0  0  0  0  0  0
    7.8333   -3.9516   -4.2587 H   0  0  0  0  0  0  0  0  0  0  0  0
    9.4881   -4.0304   -3.6374 H   0  0  0  0  0  0  0  0  0  0  0  0
    8.2823   -5.2188   -3.1336 H   0  0  0  0  0  0  0  0  0  0  0  0
   11.4427   -6.1021   -1.9933 H   0  0  0  0  0  0  0  0  0  0  0  0
    9.2137   -6.4052    1.6501 H   0  0  0  0  0  0  0  0  0  0  0  0
   11.0565   -4.9966    1.4468 H   0  0  0  0  0  0  0  0  0  0  0  0
   11.8572   -3.4441    2.1720 H   0  0  0  0  0  0  0  0  0  0  0  0
   12.9677   -2.2095    1.6067 H   0  0  0  0  0  0  0  0  0  0  0  0
   13.4697   -3.3785    2.8679 H   0  0  0  0  0  0  0  0  0  0  0  0
   16.0559   -6.1676   -2.2573 H   0  0  0  0  0  0  0  0  0  0  0  0
   12.8197   -7.9965   -1.6466 H   0  0  0  0  0  0  0  0  0  0  0  0
   15.5736  -11.4897   -5.2496 H   0  0  0  0  0  0  0  0  0  0  0  0
   15.4941  -13.0953   -6.8306 H   0  0  0  0  0  0  0  0  0  0  0  0
   13.1629  -12.7004   -7.6522 H   0  0  0  0  0  0  0  0  0  0  0  0
   12.5366  -13.6394   -6.2963 H   0  0  0  0  0  0  0  0  0  0  0  0
   14.4705  -14.6816   -8.4484 H   0  0  0  0  0  0  0  0  0  0  0  0
   12.7429  -15.1048   -8.2616 H   0  0  0  0  0  0  0  0  0  0  0  0
   14.4141  -18.0201   -6.7442 H   0  0  0  0  0  0  0  0  0  0  0  0
   14.8724  -17.2051   -8.2840 H   0  0  0  0  0  0  0  0  0  0  0  0
   13.1444  -17.5152   -7.8893 H   0  0  0  0  0  0  0  0  0  0  0  0
   16.0878  -15.5987   -6.4495 H   0  0  0  0  0  0  0  0  0  0  0  0
   15.2192  -16.4284   -5.1285 H   0  0  0  0  0  0  0  0  0  0  0  0
   14.1136  -14.3731   -4.4237 H   0  0  0  0  0  0  0  0  0  0  0  0
   15.8331  -14.0383   -4.5507 H   0  0  0  0  0  0  0  0  0  0  0  0
   15.7569   -9.4739   -5.3446 H   0  0  0  0  0  0  0  0  0  0  0  0
   16.4008   -7.5618   -4.0033 H   0  0  0  0  0  0  0  0  0  0  0  0
   13.1908  -16.0364   -6.1667 H   0  0  0  0  0  0  0  0  0  0  0  0
  1 10  2  0  0  0  0
  1 21  1  0  0  0  0
  1 42  1  0  0  0  0
  2 20  1  0  0  0  0
  2 21  2  0  0  0  0
  2 22  1  0  0  0  0
  3 22  1  0  0  0  0
  3 23  2  0  0  0  0
  3 41  1  0  0  0  0
  4 23  1  0  0  0  0
  4 25  2  0  0  0  0
  4 43  1  0  0  0  0
  5 25  1  0  0  0  0
  5 26  1  0  0  0  0
  5 41  2  0  0  0  0
  6 26  1  0  0  0  0
  6 27  2  0  0  0  0
  6 40  1  0  0  0  0
  7  8  2  0  0  0  0
  7 27  1  0  0  0  0
  7 28  1  0  0  0  0
  8 29  1  0  0  0  0
  8 39  1  0  0  0  0
  9 10  1  0  0  0  0
 10 11  1  0  0  0  0
 11 12  1  0  0  0  0
 11 20  2  0  0  0  0
 12 13  1  0  0  0  0
 12 44  1  0  0  0  0
 13 14  1  0  0  0  0
 13 18  2  0  0  0  0
 13 19  2  0  0  0  0
 14 15  1  0  0  0  0
 14 16  1  0  0  0  0
 14 17  1  0  0  0  0
 15 45  1  0  0  0  0
 15 46  1  0  0  0  0
 15 47  1  0  0  0  0
 16 48  1  0  0  0  0
 16 49  1  0  0  0  0
 16 50  1  0  0  0  0
 17 51  1  0  0  0  0
 17 52  1  0  0  0  0
 17 53  1  0  0  0  0
 20 54  1  0  0  0  0
 21 55  1  0  0  0  0
 22 56  1  0  0  0  0
 23 24  1  0  0  0  0
 24 57  1  0  0  0  0
 24 58  1  0  0  0  0
 24 59  1  0  0  0  0
 26 60  1  0  0  0  0
 27 61  1  0  0  0  0
 29 30  1  0  0  0  0
 29 38  2  0  0  0  0
 30 31  1  0  0  0  0
 30 62  1  0  0  0  0
 31 32  1  0  0  0  0
 31 37  1  0  0  0  0
 31 63  1  6  0  0  0
 32 33  1  0  0  0  0
 32 64  1  0  0  0  0
 32 65  1  0  0  0  0
 33 34  1  0  0  0  0
 33 66  1  0  0  0  0
 33 67  1  0  0  0  0
 34 35  1  0  0  0  0
 34 36  1  0  0  0  0
 34 77  1  1  0  0  0
 35 68  1  0  0  0  0
 35 69  1  0  0  0  0
 35 70  1  0  0  0  0
 36 37  1  0  0  0  0
 36 71  1  0  0  0  0
 36 72  1  0  0  0  0
 37 73  1  0  0  0  0
 37 74  1  0  0  0  0
 39 40  2  0  0  0  0
 39 75  1  0  0  0  0
 40 76  1  0  0  0  0
M  CHG  1  34   1
M  END
$$$$
