5WC
 OpenBabel04161910143D

 56 60  0  0  1  0  0  0  0  0999 V2000
   -2.0760  -10.3383   10.9591 C   0  0  2  0  0  0  0  0  0  0  0  0
   -0.7314  -10.2096   11.6281 C   0  0  0  0  0  0  0  0  0  0  0  0
   -1.9906   -9.6526    9.6305 C   0  0  2  0  0  0  0  0  0  0  0  0
    4.6481  -10.9419   10.4948 C   0  0  0  0  0  0  0  0  0  0  0  0
   -0.2653   -8.2113    8.5211 C   0  0  0  0  0  0  0  0  0  0  0  0
   -1.3190   -7.8822    7.4854 C   0  0  0  0  0  0  0  0  0  0  0  0
   -0.0887   -7.3165    5.3845 C   0  0  0  0  0  0  0  0  0  0  0  0
    0.1641   -6.1287    4.7171 C   0  0  0  0  0  0  0  0  0  0  0  0
   -0.4967   -5.1167    5.4788 C   0  0  0  0  0  0  0  0  0  0  0  0
    0.3898   -8.5421    4.9365 C   0  0  0  0  0  0  0  0  0  0  0  0
    1.3569   -7.4275    3.1379 C   0  0  0  0  0  0  0  0  0  0  0  0
    0.9308   -6.1727    3.5458 C   0  0  0  0  0  0  0  0  0  0  0  0
   -0.5023   -3.6772    5.1826 C   0  0  0  0  0  0  0  0  0  0  0  0
    5.2843   -9.7826   10.9531 C   0  0  0  0  0  0  0  0  0  0  0  0
    6.4840   -9.3448   10.3913 C   0  0  0  0  0  0  0  0  0  0  0  0
    7.0732  -10.0612    9.3485 C   0  0  0  0  0  0  0  0  0  0  0  0
    6.4525  -11.2155    8.8716 C   0  0  0  0  0  0  0  0  0  0  0  0
   -0.6720   -9.1232    9.4763 N   0  0  0  0  0  0  0  0  0  0  0  0
    0.1835   -9.4644   10.6216 C   0  0  2  0  0  0  0  0  0  0  0  0
    1.3473  -10.3861   10.2293 C   0  0  0  0  0  0  0  0  0  0  0  0
    2.3129  -10.4970   11.2090 N   0  0  0  0  0  0  0  0  0  0  0  0
    1.3526  -11.0704    9.2039 O   0  0  0  0  0  0  0  0  0  0  0  0
    3.3886  -11.4739   11.1461 C   0  0  2  0  0  0  0  0  0  0  0  0
    3.6659  -11.9827   12.5618 C   0  0  0  0  0  0  0  0  0  0  0  0
   -0.8244   -6.9625    6.4828 N   0  3  0  0  0  0  0  0  0  0  0  0
    0.8647   -7.7272    8.5336 O   0  0  0  0  0  0  0  0  0  0  0  0
   -1.1672   -5.6515    6.5245 N   0  0  0  0  0  0  0  0  0  0  0  0
    1.0999   -8.5835    3.7896 N   0  0  0  0  0  0  0  0  0  0  0  0
   -1.4124   -2.9327    5.8803 N   0  0  0  0  0  0  0  0  0  0  0  0
    0.2297   -3.1461    4.3485 O   0  0  0  0  0  0  0  0  0  0  0  0
    5.2495  -11.6508    9.4374 C   0  0  0  0  0  0  0  0  0  0  0  0
    4.7349   -9.0964   11.9709 F   0  0  0  0  0  0  0  0  0  0  0  0
    7.2636   -7.9261   10.9813 Cl  0  0  0  0  0  0  0  0  0  0  0  0
   -2.9304   -9.1316   10.6758 C   0  0  0  0  0  0  0  0  0  0  0  0
   -2.5211  -11.3216   11.0088 H   0  0  0  0  0  0  0  0  0  0  0  0
   -0.3448  -11.2046   11.8800 H   0  0  0  0  0  0  0  0  0  0  0  0
   -0.8263   -9.6422   12.5570 H   0  0  0  0  0  0  0  0  0  0  0  0
   -2.3972  -10.1751    8.7707 H   0  0  0  0  0  0  0  0  0  0  0  0
   -2.1972   -7.4349    7.9626 H   0  0  0  0  0  0  0  0  0  0  0  0
   -1.6219   -8.7970    6.9664 H   0  0  0  0  0  0  0  0  0  0  0  0
    0.2253   -9.4842    5.4481 H   0  0  0  0  0  0  0  0  0  0  0  0
    1.9434   -7.5396    2.2299 H   0  0  0  0  0  0  0  0  0  0  0  0
    1.1711   -5.2821    2.9781 H   0  0  0  0  0  0  0  0  0  0  0  0
    8.0107   -9.7307    8.9090 H   0  0  0  0  0  0  0  0  0  0  0  0
    6.9062  -11.7785    8.0583 H   0  0  0  0  0  0  0  0  0  0  0  0
    0.5827   -8.5387   11.0539 H   0  0  0  0  0  0  0  0  0  0  0  0
    2.3567   -9.8026   11.9433 H   0  0  0  0  0  0  0  0  0  0  0  0
    3.0204  -12.3225   10.5561 H   0  0  0  0  0  0  0  0  0  0  0  0
    4.4670  -12.7273   12.5724 H   0  0  0  0  0  0  0  0  0  0  0  0
    2.7633  -12.4419   12.9814 H   0  0  0  0  0  0  0  0  0  0  0  0
    3.9510  -11.1667   13.2372 H   0  0  0  0  0  0  0  0  0  0  0  0
   -1.4769   -1.9434    5.6887 H   0  0  0  0  0  0  0  0  0  0  0  0
   -2.0369   -3.3835    6.5342 H   0  0  0  0  0  0  0  0  0  0  0  0
    4.7858  -12.5566    9.0481 H   0  0  0  0  0  0  0  0  0  0  0  0
   -2.6885   -8.1964   11.1682 H   0  0  0  0  0  0  0  0  0  0  0  0
   -3.9921   -9.2846   10.5202 H   0  0  0  0  0  0  0  0  0  0  0  0
  1  2  1  0  0  0  0
  1  3  1  0  0  0  0
  1 34  1  0  0  0  0
  1 35  1  1  0  0  0
  2 19  1  0  0  0  0
  2 36  1  0  0  0  0
  2 37  1  0  0  0  0
  3 18  1  0  0  0  0
  3 34  1  0  0  0  0
  3 38  1  6  0  0  0
  4 14  2  0  0  0  0
  4 23  1  0  0  0  0
  4 31  1  0  0  0  0
  5  6  1  0  0  0  0
  5 18  1  0  0  0  0
  5 26  2  0  0  0  0
  6 25  1  0  0  0  0
  6 39  1  0  0  0  0
  6 40  1  0  0  0  0
  7  8  1  0  0  0  0
  7 10  1  0  0  0  0
  7 25  2  0  0  0  0
  8  9  2  0  0  0  0
  8 12  1  0  0  0  0
  9 13  1  0  0  0  0
  9 27  1  0  0  0  0
 10 28  2  0  0  0  0
 10 41  1  0  0  0  0
 11 12  2  0  0  0  0
 11 28  1  0  0  0  0
 11 42  1  0  0  0  0
 12 43  1  0  0  0  0
 13 29  1  0  0  0  0
 13 30  2  0  0  0  0
 14 15  1  0  0  0  0
 14 32  1  0  0  0  0
 15 16  2  0  0  0  0
 15 33  1  0  0  0  0
 16 17  1  0  0  0  0
 16 44  1  0  0  0  0
 17 31  2  0  0  0  0
 17 45  1  0  0  0  0
 18 19  1  0  0  0  0
 19 20  1  0  0  0  0
 19 46  1  1  0  0  0
 20 21  1  0  0  0  0
 20 22  2  0  0  0  0
 21 23  1  0  0  0  0
 21 47  1  0  0  0  0
 23 24  1  0  0  0  0
 23 48  1  6  0  0  0
 24 49  1  0  0  0  0
 24 50  1  0  0  0  0
 24 51  1  0  0  0  0
 25 27  1  0  0  0  0
 29 52  1  0  0  0  0
 29 53  1  0  0  0  0
 31 54  1  0  0  0  0
 34 55  1  0  0  0  0
 34 56  1  0  0  0  0
M  CHG  1  25   1
M  END
$$$$
