5WM
 OpenBabel04161910143D

 27 28  0  0  0  0  0  0  0  0999 V2000
   -6.8781    0.9598   16.3220 O   0  0  0  0  0  0  0  0  0  0  0  0
   -4.7089    1.3687   17.5654 O   0  0  0  0  0  0  0  0  0  0  0  0
   -5.5925    3.0658   14.6955 C   0  0  0  0  0  0  0  0  0  0  0  0
   -4.7090    4.0962   14.0301 C   0  0  0  0  0  0  0  0  0  0  0  0
   -5.2831    5.2079   13.2162 C   0  0  0  0  0  0  0  0  0  0  0  0
   -6.6151    5.5081   12.9330 C   0  0  0  0  0  0  0  0  0  0  0  0
   -6.9289    6.6183   12.1383 C   0  0  0  0  0  0  0  0  0  0  0  0
   -5.9199    7.4547   11.6312 C   0  0  0  0  0  0  0  0  0  0  0  0
   -4.5828    7.1767   11.9112 C   0  0  0  0  0  0  0  0  0  0  0  0
   -4.3150    6.0558   12.6978 C   0  0  0  0  0  0  0  0  0  0  0  0
   -3.3725    4.1778   14.0890 C   0  0  0  0  0  0  0  0  0  0  0  0
   -5.4395    0.9951   16.3935 S   0  0  0  0  0  0  0  0  0  0  0  0
   -4.8762   -0.4999   15.9200 N   0  0  0  0  0  0  0  0  0  0  0  0
   -4.8820    1.8424   15.0833 N   0  0  0  0  0  0  0  0  0  0  0  0
   -2.7289    5.5209   13.2014 S   0  0  0  0  0  0  0  0  0  0  0  0
   -2.1784    6.4975   14.1162 O   0  0  0  0  0  0  0  0  0  0  0  0
   -2.0123    5.0391   12.0387 O   0  0  0  0  0  0  0  0  0  0  0  0
   -6.3670    2.7468   13.9905 H   0  0  0  0  0  0  0  0  0  0  0  0
   -6.0813    3.5304   15.5602 H   0  0  0  0  0  0  0  0  0  0  0  0
   -7.4178    4.8922   13.3230 H   0  0  0  0  0  0  0  0  0  0  0  0
   -7.9696    6.8494   11.9228 H   0  0  0  0  0  0  0  0  0  0  0  0
   -6.1996    8.3108   11.0205 H   0  0  0  0  0  0  0  0  0  0  0  0
   -3.7917    7.8152   11.5254 H   0  0  0  0  0  0  0  0  0  0  0  0
   -2.7127    3.5185   14.6299 H   0  0  0  0  0  0  0  0  0  0  0  0
   -5.5068   -0.9980   15.2915 H   0  0  0  0  0  0  0  0  0  0  0  0
   -4.5605   -1.0543   16.7188 H   0  0  0  0  0  0  0  0  0  0  0  0
   -3.9227    1.6652   14.8104 H   0  0  0  0  0  0  0  0  0  0  0  0
  1 12  2  0  0  0  0
  2 12  2  0  0  0  0
  3  4  1  0  0  0  0
  3 14  1  0  0  0  0
  3 18  1  0  0  0  0
  3 19  1  0  0  0  0
  4  5  1  0  0  0  0
  4 11  2  0  0  0  0
  5  6  2  0  0  0  0
  5 10  1  0  0  0  0
  6  7  1  0  0  0  0
  6 20  1  0  0  0  0
  7  8  2  0  0  0  0
  7 21  1  0  0  0  0
  8  9  1  0  0  0  0
  8 22  1  0  0  0  0
  9 10  2  0  0  0  0
  9 23  1  0  0  0  0
 10 15  1  0  0  0  0
 11 15  1  0  0  0  0
 11 24  1  0  0  0  0
 12 13  1  0  0  0  0
 12 14  1  0  0  0  0
 13 25  1  0  0  0  0
 13 26  1  0  0  0  0
 14 27  1  0  0  0  0
 15 16  2  0  0  0  0
 15 17  2  0  0  0  0
M  END
$$$$
