5WN
 OpenBabel04161910143D

 25 26  0  0  0  0  0  0  0  0999 V2000
   -5.5273    0.8250   16.6820 S   0  0  0  0  0  0  0  0  0  0  0  0
   -6.8144    1.2194   16.1579 O   0  0  0  0  0  0  0  0  0  0  0  0
   -5.2202    0.7404   18.0716 O   0  0  0  0  0  0  0  0  0  0  0  0
   -5.1055   -0.6229   15.9999 N   0  0  0  0  0  0  0  0  0  0  0  0
   -4.3686    1.7449   15.9663 N   0  0  0  0  0  0  0  0  0  0  0  0
   -6.0170    5.5840   13.7652 S   0  0  0  0  0  0  0  0  0  0  0  0
   -6.0020    3.9436   14.2190 C   0  0  0  0  0  0  0  0  0  0  0  0
   -4.7281    3.4070   14.2361 C   0  0  0  0  0  0  0  0  0  0  0  0
   -3.7334    4.3856   13.8573 C   0  0  0  0  0  0  0  0  0  0  0  0
   -4.3059    5.6283   13.5705 C   0  0  0  0  0  0  0  0  0  0  0  0
   -2.3290    4.2554   13.7363 C   0  0  0  0  0  0  0  0  0  0  0  0
   -1.5411    5.3411   13.3495 C   0  0  0  0  0  0  0  0  0  0  0  0
   -2.1272    6.5605   13.0750 C   0  0  0  0  0  0  0  0  0  0  0  0
   -3.5236    6.7255   13.1825 C   0  0  0  0  0  0  0  0  0  0  0  0
   -4.4577    1.9696   14.5421 C   0  0  0  0  0  0  0  0  0  0  0  0
   -5.3820   -0.8306   15.0464 H   0  0  0  0  0  0  0  0  0  0  0  0
   -4.8925   -1.3755   16.6497 H   0  0  0  0  0  0  0  0  0  0  0  0
   -3.6845    2.2229   16.5506 H   0  0  0  0  0  0  0  0  0  0  0  0
   -6.9214    3.4227   14.4527 H   0  0  0  0  0  0  0  0  0  0  0  0
   -1.8463    3.3103   13.9421 H   0  0  0  0  0  0  0  0  0  0  0  0
   -0.4546    5.2233   13.2632 H   0  0  0  0  0  0  0  0  0  0  0  0
   -1.5093    7.4043   12.7791 H   0  0  0  0  0  0  0  0  0  0  0  0
   -3.9739    7.6932   12.9660 H   0  0  0  0  0  0  0  0  0  0  0  0
   -5.2598    1.3603   14.1195 H   0  0  0  0  0  0  0  0  0  0  0  0
   -3.5316    1.6324   14.0755 H   0  0  0  0  0  0  0  0  0  0  0  0
  1  2  2  0  0  0  0
  1  3  2  0  0  0  0
  1  4  1  0  0  0  0
  1  5  1  0  0  0  0
  4 16  1  0  0  0  0
  4 17  1  0  0  0  0
  5 15  1  0  0  0  0
  5 18  1  0  0  0  0
  6  7  1  0  0  0  0
  6 10  1  0  0  0  0
  7  8  2  0  0  0  0
  7 19  1  0  0  0  0
  8  9  1  0  0  0  0
  8 15  1  0  0  0  0
  9 10  2  0  0  0  0
  9 11  1  0  0  0  0
 10 14  1  0  0  0  0
 11 12  2  0  0  0  0
 11 20  1  0  0  0  0
 12 13  1  0  0  0  0
 12 21  1  0  0  0  0
 13 14  2  0  0  0  0
 13 22  1  0  0  0  0
 14 23  1  0  0  0  0
 15 24  1  0  0  0  0
 15 25  1  0  0  0  0
M  END
$$$$
