5WS
 OpenBabel04161910153D

 32 33  0  0  0  0  0  0  0  0999 V2000
  -12.2813   17.6597   76.1709 C   0  0  0  0  0  0  0  0  0  0  0  0
  -11.3339   18.3004   76.8769 C   0  0  0  0  0  0  0  0  0  0  0  0
  -10.6104   19.4182   76.2004 C   0  0  0  0  0  0  0  0  0  0  0  0
   -9.5530   20.1802   76.9661 C   0  0  0  0  0  0  0  0  0  0  0  0
   -8.9714   21.1003   76.3929 O   0  0  0  0  0  0  0  0  0  0  0  0
   -9.2741   19.8137   78.2731 N   0  0  0  0  0  0  0  0  0  0  0  0
   -8.2288   20.5684   78.9546 C   0  0  0  0  0  0  0  0  0  0  0  0
   -9.9573   18.7440   78.9378 C   0  0  0  0  0  0  0  0  0  0  0  0
   -9.6243   18.4038   80.2666 C   0  0  0  0  0  0  0  0  0  0  0  0
  -10.9645   18.0012   78.2771 C   0  0  0  0  0  0  0  0  0  0  0  0
  -11.6119   16.9590   78.9694 C   0  0  0  0  0  0  0  0  0  0  0  0
  -11.2730   16.6394   80.2794 C   0  0  0  0  0  0  0  0  0  0  0  0
  -10.2804   17.3559   80.9149 C   0  0  0  0  0  0  0  0  0  0  0  0
   -9.9458   16.9852   82.2401 N   0  0  0  0  0  0  0  0  0  0  0  0
   -8.6583   15.9340   82.4455 S   0  0  0  0  0  0  0  0  0  0  0  0
   -8.9516   14.7193   81.7122 O   0  0  0  0  0  0  0  0  0  0  0  0
   -7.4305   16.6700   82.2303 O   0  0  0  0  0  0  0  0  0  0  0  0
   -8.7928   15.5656   84.1752 C   0  0  0  0  0  0  0  0  0  0  0  0
  -12.4863   17.9503   75.1428 H   0  0  0  0  0  0  0  0  0  0  0  0
  -12.8800   16.8368   76.5398 H   0  0  0  0  0  0  0  0  0  0  0  0
  -11.3449   20.1675   75.8783 H   0  0  0  0  0  0  0  0  0  0  0  0
  -10.1105   19.0149   75.3100 H   0  0  0  0  0  0  0  0  0  0  0  0
   -7.8008   21.3438   78.3205 H   0  0  0  0  0  0  0  0  0  0  0  0
   -7.4135   19.8947   79.2383 H   0  0  0  0  0  0  0  0  0  0  0  0
   -8.6479   21.0643   79.8367 H   0  0  0  0  0  0  0  0  0  0  0  0
   -8.8482   18.9324   80.8061 H   0  0  0  0  0  0  0  0  0  0  0  0
  -12.3855   16.3543   78.5043 H   0  0  0  0  0  0  0  0  0  0  0  0
  -11.7737   15.8175   80.7833 H   0  0  0  0  0  0  0  0  0  0  0  0
  -10.3228   17.5235   83.0160 H   0  0  0  0  0  0  0  0  0  0  0  0
   -8.0131   14.8442   84.4278 H   0  0  0  0  0  0  0  0  0  0  0  0
   -9.7761   15.1340   84.3709 H   0  0  0  0  0  0  0  0  0  0  0  0
   -8.6470   16.4858   84.7440 H   0  0  0  0  0  0  0  0  0  0  0  0
  1  2  2  0  0  0  0
  1 19  1  0  0  0  0
  1 20  1  0  0  0  0
  2  3  1  0  0  0  0
  2 10  1  0  0  0  0
  3  4  1  0  0  0  0
  3 21  1  0  0  0  0
  3 22  1  0  0  0  0
  4  5  2  0  0  0  0
  4  6  1  0  0  0  0
  6  7  1  0  0  0  0
  6  8  1  0  0  0  0
  7 23  1  0  0  0  0
  7 24  1  0  0  0  0
  7 25  1  0  0  0  0
  8  9  2  0  0  0  0
  8 10  1  0  0  0  0
  9 13  1  0  0  0  0
  9 26  1  0  0  0  0
 10 11  2  0  0  0  0
 11 12  1  0  0  0  0
 11 27  1  0  0  0  0
 12 13  2  0  0  0  0
 12 28  1  0  0  0  0
 13 14  1  0  0  0  0
 14 15  1  0  0  0  0
 14 29  1  0  0  0  0
 15 16  2  0  0  0  0
 15 17  2  0  0  0  0
 15 18  1  0  0  0  0
 18 30  1  0  0  0  0
 18 31  1  0  0  0  0
 18 32  1  0  0  0  0
M  END
$$$$
