5WU
 OpenBabel04161910153D

 28 29  0  0  0  0  0  0  0  0999 V2000
  -10.0437   39.1093   22.7930 C   0  0  0  0  0  0  0  0  0  0  0  0
   -9.8277   38.7479   24.1081 C   0  0  0  0  0  0  0  0  0  0  0  0
   -8.9934   37.6243   24.4735 C   0  0  0  0  0  0  0  0  0  0  0  0
  -10.8452   40.2154   22.8345 N   0  3  0  0  0  0  0  0  0  0  0  0
   -8.3150   36.8884   23.3157 C   0  0  0  0  0  0  0  0  0  0  0  0
   -9.0749   36.9964   21.9816 C   0  0  0  0  0  0  0  0  0  0  0  0
   -9.4540   38.4405   21.6049 C   0  0  0  0  0  0  0  0  0  0  0  0
   -8.7846   37.3080   25.6393 O   0  0  0  0  0  0  0  0  0  0  0  0
  -10.5418   39.6922   24.8729 C   0  0  0  0  0  0  0  0  0  0  0  0
  -10.5946   39.8310   26.3472 C   0  0  0  0  0  0  0  0  0  0  0  0
  -11.2121   40.5463   24.0888 N   0  0  0  0  0  0  0  0  0  0  0  0
  -11.3239   41.0426   21.7424 C   0  0  0  0  0  0  0  0  0  0  0  0
  -10.6928   42.4313   21.7619 C   0  0  0  0  0  0  0  0  0  0  0  0
   -9.2988   42.3902   21.4565 O   0  0  0  0  0  0  0  0  0  0  0  0
   -8.2281   35.8308   23.5901 H   0  0  0  0  0  0  0  0  0  0  0  0
   -7.3046   37.2966   23.2072 H   0  0  0  0  0  0  0  0  0  0  0  0
   -9.9917   36.3961   22.0525 H   0  0  0  0  0  0  0  0  0  0  0  0
   -8.4709   36.5547   21.1802 H   0  0  0  0  0  0  0  0  0  0  0  0
   -8.5571   38.9868   21.2898 H   0  0  0  0  0  0  0  0  0  0  0  0
  -10.1516   38.4220   20.7618 H   0  0  0  0  0  0  0  0  0  0  0  0
  -11.2533   40.6530   26.6466 H   0  0  0  0  0  0  0  0  0  0  0  0
   -9.5952   40.0448   26.7404 H   0  0  0  0  0  0  0  0  0  0  0  0
  -10.9645   38.9120   26.8105 H   0  0  0  0  0  0  0  0  0  0  0  0
  -12.4120   41.1157   21.8551 H   0  0  0  0  0  0  0  0  0  0  0  0
  -11.1095   40.5299   20.8007 H   0  0  0  0  0  0  0  0  0  0  0  0
  -10.8126   42.9167   22.7365 H   0  0  0  0  0  0  0  0  0  0  0  0
  -11.1739   43.0700   21.0139 H   0  0  0  0  0  0  0  0  0  0  0  0
   -9.1875   42.0031   20.5736 H   0  0  0  0  0  0  0  0  0  0  0  0
  1  2  1  0  0  0  0
  1  4  2  0  0  0  0
  1  7  1  0  0  0  0
  2  3  1  0  0  0  0
  2  9  2  0  0  0  0
  3  5  1  0  0  0  0
  3  8  2  0  0  0  0
  4 11  1  0  0  0  0
  4 12  1  0  0  0  0
  5  6  1  0  0  0  0
  5 15  1  0  0  0  0
  5 16  1  0  0  0  0
  6  7  1  0  0  0  0
  6 17  1  0  0  0  0
  6 18  1  0  0  0  0
  7 19  1  0  0  0  0
  7 20  1  0  0  0  0
  9 10  1  0  0  0  0
  9 11  1  0  0  0  0
 10 21  1  0  0  0  0
 10 22  1  0  0  0  0
 10 23  1  0  0  0  0
 12 13  1  0  0  0  0
 12 24  1  0  0  0  0
 12 25  1  0  0  0  0
 13 14  1  0  0  0  0
 13 26  1  0  0  0  0
 13 27  1  0  0  0  0
 14 28  1  0  0  0  0
M  CHG  1   4   1
M  END
$$$$
