5WZ
 OpenBabel04161910153D

 27 28  0  0  1  0  0  0  0  0999 V2000
    0.6756    7.6196   32.9877 C   0  0  0  0  0  0  0  0  0  0  0  0
    0.6734   11.3945   32.8355 C   0  0  0  0  0  0  0  0  0  0  0  0
   -0.4094   11.7574   33.7933 C   0  0  2  0  0  0  0  0  0  0  0  0
    1.0731   10.0467   32.8050 N   0  0  0  0  0  0  0  0  0  0  0  0
   -1.1297   12.9946   33.5819 C   0  0  0  0  0  0  0  0  0  0  0  0
   -0.2886   12.9463   34.6047 C   0  0  0  0  0  0  0  0  0  0  0  0
    1.1899   12.2341   32.1135 O   0  0  0  0  0  0  0  0  0  0  0  0
    2.1539    9.6282   31.9308 C   0  0  0  0  0  0  0  0  0  0  0  0
    1.6081    8.6824   30.8697 C   0  0  0  0  0  0  0  0  0  0  0  0
    0.4384    8.9951   33.5905 C   0  0  0  0  0  0  0  0  0  0  0  0
    0.6027    7.7050   31.4721 C   0  0  1  0  0  0  0  0  0  0  0  0
    0.8232    6.3482   30.9091 N   0  3  0  0  0  0  0  0  0  0  0  0
   -0.0814    6.9265   33.3629 H   0  0  0  0  0  0  0  0  0  0  0  0
    1.6583    7.2504   33.2988 H   0  0  0  0  0  0  0  0  0  0  0  0
   -0.9801   10.9512   34.2083 H   0  0  0  0  0  0  0  0  0  0  0  0
   -1.7915   13.5092   32.9414 H   0  0  0  0  0  0  0  0  0  0  0  0
    0.2273   13.3963   35.4056 H   0  0  0  0  0  0  0  0  0  0  0  0
    2.8814    9.0977   32.5538 H   0  0  0  0  0  0  0  0  0  0  0  0
    2.6558   10.4778   31.4656 H   0  0  0  0  0  0  0  0  0  0  0  0
    2.4384    8.1602   30.3837 H   0  0  0  0  0  0  0  0  0  0  0  0
    1.0872    9.2652   30.0995 H   0  0  0  0  0  0  0  0  0  0  0  0
    0.8374    9.0396   34.6070 H   0  0  0  0  0  0  0  0  0  0  0  0
   -0.6385    9.1634   33.6190 H   0  0  0  0  0  0  0  0  0  0  0  0
   -0.4090    7.9866   31.1650 H   0  0  0  0  0  0  0  0  0  0  0  0
    0.7866    6.3616   29.8801 H   0  0  0  0  0  0  0  0  0  0  0  0
    1.7358    5.9573   31.1840 H   0  0  0  0  0  0  0  0  0  0  0  0
    0.0957    5.6947   31.2308 H   0  0  0  0  0  0  0  0  0  0  0  0
  1 10  1  0  0  0  0
  1 11  1  0  0  0  0
  1 13  1  0  0  0  0
  1 14  1  0  0  0  0
  2  3  1  0  0  0  0
  2  4  1  0  0  0  0
  2  7  2  0  0  0  0
  3  5  1  0  0  0  0
  3  6  1  0  0  0  0
  3 15  1  1  0  0  0
  4  8  1  0  0  0  0
  4 10  1  0  0  0  0
  5  6  2  0  0  0  0
  5 16  1  0  0  0  0
  6 17  1  0  0  0  0
  8  9  1  0  0  0  0
  8 18  1  0  0  0  0
  8 19  1  0  0  0  0
  9 11  1  0  0  0  0
  9 20  1  0  0  0  0
  9 21  1  0  0  0  0
 10 22  1  0  0  0  0
 10 23  1  0  0  0  0
 11 12  1  0  0  0  0
 11 24  1  6  0  0  0
 12 25  1  0  0  0  0
 12 26  1  0  0  0  0
 12 27  1  0  0  0  0
M  CHG  1  12   1
M  END
$$$$
