5XL
 OpenBabel04161910153D

 32 34  0  0  0  0  0  0  0  0999 V2000
   12.7066    7.4055   29.7669 C   0  0  0  0  0  0  0  0  0  0  0  0
   12.6976    6.6899   28.5880 C   0  0  0  0  0  0  0  0  0  0  0  0
   11.4901    4.6238   27.8016 C   0  0  0  0  0  0  0  0  0  0  0  0
   10.6086    3.6065   28.2302 C   0  0  0  0  0  0  0  0  0  0  0  0
   11.9328    4.6956   26.4783 C   0  0  0  0  0  0  0  0  0  0  0  0
   11.4972    3.7447   25.5594 C   0  0  0  0  0  0  0  0  0  0  0  0
   10.6032    2.7508   25.9595 C   0  0  0  0  0  0  0  0  0  0  0  0
   10.1448    2.6828   27.2801 C   0  0  0  0  0  0  0  0  0  0  0  0
   10.2110    3.5476   29.6700 C   0  0  0  0  0  0  0  0  0  0  0  0
   11.4603    5.5705   30.0579 C   0  0  0  0  0  0  0  0  0  0  0  0
   11.8850    5.5946   28.7473 N   0  3  0  0  0  0  0  0  0  0  0  0
   10.6465    4.5567   30.5012 N   0  3  0  0  0  0  0  0  0  0  0  0
   11.9854    6.6572   30.7373 C   0  0  0  0  0  0  0  0  0  0  0  0
    8.9699    1.4596   27.6080 Cl  0  0  0  0  0  0  0  0  0  0  0  0
    9.5352    2.6572   30.1681 O   0  0  0  0  0  0  0  0  0  0  0  0
   11.7963    6.8630   32.1628 C   0  0  0  0  0  0  0  0  0  0  0  0
   12.1330    7.8364   32.9403 N   0  0  0  0  0  0  0  0  0  0  0  0
   12.7864    9.0850   32.4817 C   0  0  0  0  0  0  0  0  0  0  0  0
   11.8559    7.7393   34.4021 C   0  0  0  0  0  0  0  0  0  0  0  0
   13.2384    8.3406   29.8796 H   0  0  0  0  0  0  0  0  0  0  0  0
   13.1995    6.9011   27.6528 H   0  0  0  0  0  0  0  0  0  0  0  0
   12.6064    5.4716   26.1259 H   0  0  0  0  0  0  0  0  0  0  0  0
   11.8380    3.7838   24.5292 H   0  0  0  0  0  0  0  0  0  0  0  0
   10.2575    2.0269   25.2236 H   0  0  0  0  0  0  0  0  0  0  0  0
   10.3148    4.4716   31.4521 H   0  0  0  0  0  0  0  0  0  0  0  0
   11.2855    6.0246   32.6656 H   0  0  0  0  0  0  0  0  0  0  0  0
   12.9585    9.7366   33.3441 H   0  0  0  0  0  0  0  0  0  0  0  0
   12.1183    9.5895   31.7785 H   0  0  0  0  0  0  0  0  0  0  0  0
   13.7487    8.8358   32.0302 H   0  0  0  0  0  0  0  0  0  0  0  0
   11.4004    6.7755   34.6426 H   0  0  0  0  0  0  0  0  0  0  0  0
   11.1741    8.5499   34.6676 H   0  0  0  0  0  0  0  0  0  0  0  0
   12.8074    7.8377   34.9298 H   0  0  0  0  0  0  0  0  0  0  0  0
  1  2  1  0  0  0  0
  1 13  2  0  0  0  0
  1 20  1  0  0  0  0
  2 11  2  0  0  0  0
  2 21  1  0  0  0  0
  3  4  2  0  0  0  0
  3  5  1  0  0  0  0
  3 11  1  0  0  0  0
  4  8  1  0  0  0  0
  4  9  1  0  0  0  0
  5  6  2  0  0  0  0
  5 22  1  0  0  0  0
  6  7  1  0  0  0  0
  6 23  1  0  0  0  0
  7  8  2  0  0  0  0
  7 24  1  0  0  0  0
  8 14  1  0  0  0  0
  9 12  1  0  0  0  0
  9 15  2  0  0  0  0
 10 11  1  0  0  0  0
 10 12  2  0  0  0  0
 10 13  1  0  0  0  0
 12 25  1  0  0  0  0
 13 16  1  0  0  0  0
 16 17  2  0  0  0  0
 16 26  1  0  0  0  0
 17 18  1  0  0  0  0
 17 19  1  0  0  0  0
 18 27  1  0  0  0  0
 18 28  1  0  0  0  0
 18 29  1  0  0  0  0
 19 30  1  0  0  0  0
 19 31  1  0  0  0  0
 19 32  1  0  0  0  0
M  CHG  2  11   1  12   1
M  END
$$$$
