5Y3
 OpenBabel04161910293D

 55 58  0  0  1  0  0  0  0  0999 V2000
   16.4326   65.3102   37.5384 C   0  0  0  0  0  0  0  0  0  0  0  0
   16.2695   64.9940   35.0168 C   0  0  0  0  0  0  0  0  0  0  0  0
   17.2697   65.8640   34.5562 C   0  0  0  0  0  0  0  0  0  0  0  0
   22.3112   69.8783   35.2208 N   0  0  0  0  0  0  0  0  0  0  0  0
   15.3884   64.3718   34.0934 C   0  0  0  0  0  0  0  0  0  0  0  0
   13.2075   63.7798   35.0354 C   0  0  0  0  0  0  0  0  0  0  0  0
   14.4817   62.0963   33.7201 C   0  0  0  0  0  0  0  0  0  0  0  0
   15.8188   61.3466   33.7732 C   0  0  0  0  0  0  0  0  0  0  0  0
   19.2632   67.8648   33.3738 C   0  0  0  0  0  0  0  0  0  0  0  0
   20.1505   68.6845   32.4870 C   0  0  0  0  0  0  0  0  0  0  0  0
   21.1923   69.3514   33.0152 C   0  0  0  0  0  0  0  0  0  0  0  0
   20.5025   68.4851   35.1934 C   0  0  0  0  0  0  0  0  0  0  0  0
   20.9417   68.5808   36.4958 C   0  0  0  0  0  0  0  0  0  0  0  0
   22.0870   69.3766   36.4379 C   0  0  0  0  0  0  0  0  0  0  0  0
   22.6088   71.2881   30.1182 C   0  0  0  0  0  0  0  0  0  0  0  0
   21.3181   71.3072   30.2220 C   0  0  0  0  0  0  0  0  0  0  0  0
   19.8945   67.4378   38.5675 N   0  0  0  0  0  0  0  0  0  0  0  0
   20.3634   67.9648   37.6194 C   0  0  0  0  0  0  0  0  0  0  0  0
   21.3649   69.2749   34.4272 N   0  3  0  0  0  0  0  0  0  0  0  0
   22.1048   70.0835   32.2484 N   0  0  0  0  0  0  0  0  0  0  0  0
   21.9979   70.1769   30.8052 C   0  0  2  0  0  0  0  0  0  0  0  0
   19.4542   67.8023   34.6544 N   0  0  0  0  0  0  0  0  0  0  0  0
   18.2657   67.1753   32.7109 N   0  0  0  0  0  0  0  0  0  0  0  0
   17.3431   66.2514   33.2108 C   0  0  0  0  0  0  0  0  0  0  0  0
   16.4542   65.6611   32.3053 C   0  0  0  0  0  0  0  0  0  0  0  0
   15.4768   64.7557   32.7454 C   0  0  0  0  0  0  0  0  0  0  0  0
   14.5298   63.3271   34.5357 N   0  0  0  0  0  0  0  0  0  0  0  0
   16.0166   60.6925   35.0903 N   0  3  0  0  0  0  0  0  0  0  0  0
   16.1081   64.6463   36.3750 N   0  0  0  0  0  0  0  0  0  0  0  0
   16.4702   64.6900   38.6060 O   0  0  0  0  0  0  0  0  0  0  0  0
   16.5408   66.7917   37.4656 C   0  0  0  0  0  0  0  0  0  0  0  0
   18.0332   66.2201   35.2350 H   0  0  0  0  0  0  0  0  0  0  0  0
   12.6168   62.8954   35.3394 H   0  0  0  0  0  0  0  0  0  0  0  0
   12.6422   64.3213   34.2717 H   0  0  0  0  0  0  0  0  0  0  0  0
   13.3279   64.4114   35.9232 H   0  0  0  0  0  0  0  0  0  0  0  0
   13.7011   61.4129   34.0967 H   0  0  0  0  0  0  0  0  0  0  0  0
   14.2680   62.3046   32.6710 H   0  0  0  0  0  0  0  0  0  0  0  0
   16.6465   62.0375   33.6330 H   0  0  0  0  0  0  0  0  0  0  0  0
   15.8506   60.5561   33.0221 H   0  0  0  0  0  0  0  0  0  0  0  0
   19.9287   68.6759   31.4373 H   0  0  0  0  0  0  0  0  0  0  0  0
   22.7481   69.5798   37.2704 H   0  0  0  0  0  0  0  0  0  0  0  0
   23.5539   71.7084   29.8015 H   0  0  0  0  0  0  0  0  0  0  0  0
   20.3471   71.7535   30.0635 H   0  0  0  0  0  0  0  0  0  0  0  0
   22.8893   70.5151   32.7365 H   0  0  0  0  0  0  0  0  0  0  0  0
   21.9539   69.2064   30.3187 H   0  0  0  0  0  0  0  0  0  0  0  0
   18.1943   67.3421   31.7172 H   0  0  0  0  0  0  0  0  0  0  0  0
   16.5427   65.8807   31.2395 H   0  0  0  0  0  0  0  0  0  0  0  0
   14.7731   64.3625   32.0193 H   0  0  0  0  0  0  0  0  0  0  0  0
   16.9221   60.2053   35.1285 H   0  0  0  0  0  0  0  0  0  0  0  0
   16.0039   61.3933   35.8473 H   0  0  0  0  0  0  0  0  0  0  0  0
   15.5642   63.8118   36.5270 H   0  0  0  0  0  0  0  0  0  0  0  0
   16.8169   67.1855   38.4442 H   0  0  0  0  0  0  0  0  0  0  0  0
   15.5704   67.2024   37.1685 H   0  0  0  0  0  0  0  0  0  0  0  0
   17.2940   67.0792   36.7505 H   0  0  0  0  0  0  0  0  0  0  0  0
   15.2768   60.0052   35.2839 H   0  0  0  0  0  0  0  0  0  0  0  0
  1 29  1  0  0  0  0
  1 30  2  0  0  0  0
  1 31  1  0  0  0  0
  2  3  2  0  0  0  0
  2  5  1  0  0  0  0
  2 29  1  0  0  0  0
  3 24  1  0  0  0  0
  3 32  1  0  0  0  0
  4 14  1  0  0  0  0
  4 19  1  0  0  0  0
  5 26  2  0  0  0  0
  5 27  1  0  0  0  0
  6 27  1  0  0  0  0
  6 33  1  0  0  0  0
  6 34  1  0  0  0  0
  6 35  1  0  0  0  0
  7  8  1  0  0  0  0
  7 27  1  0  0  0  0
  7 36  1  0  0  0  0
  7 37  1  0  0  0  0
  8 28  1  0  0  0  0
  8 38  1  0  0  0  0
  8 39  1  0  0  0  0
  9 10  2  0  0  0  0
  9 22  1  0  0  0  0
  9 23  1  0  0  0  0
 10 11  1  0  0  0  0
 10 40  1  0  0  0  0
 11 19  2  0  0  0  0
 11 20  1  0  0  0  0
 12 13  1  0  0  0  0
 12 19  1  0  0  0  0
 12 22  2  0  0  0  0
 13 14  2  0  0  0  0
 13 18  1  0  0  0  0
 14 41  1  0  0  0  0
 15 16  2  0  0  0  0
 15 21  1  0  0  0  0
 15 42  1  0  0  0  0
 16 21  1  0  0  0  0
 16 43  1  0  0  0  0
 17 18  3  0  0  0  0
 20 21  1  0  0  0  0
 20 44  1  0  0  0  0
 21 45  1  6  0  0  0
 23 24  1  0  0  0  0
 23 46  1  0  0  0  0
 24 25  2  0  0  0  0
 25 26  1  0  0  0  0
 25 47  1  0  0  0  0
 26 48  1  0  0  0  0
 28 49  1  0  0  0  0
 28 50  1  0  0  0  0
 28 55  1  0  0  0  0
 29 51  1  0  0  0  0
 31 52  1  0  0  0  0
 31 53  1  0  0  0  0
 31 54  1  0  0  0  0
M  CHG  2  19   1  28   1
M  END
$$$$
