5Y4
 OpenBabel04161910293D

 61 64  0  0  1  0  0  0  0  0999 V2000
   10.9466   -1.1160   28.6215 C   0  0  0  0  0  0  0  0  0  0  0  0
   10.4601   -1.5475   31.0578 C   0  0  0  0  0  0  0  0  0  0  0  0
   10.5253   -2.9466   31.1043 C   0  0  0  0  0  0  0  0  0  0  0  0
   11.9700   -8.7715   28.6648 N   0  0  0  0  0  0  0  0  0  0  0  0
   10.0319   -0.8191   32.1873 C   0  0  0  0  0  0  0  0  0  0  0  0
    9.0125    1.2105   31.3465 C   0  0  0  0  0  0  0  0  0  0  0  0
   10.1881    1.1967   33.5459 C   0  0  0  0  0  0  0  0  0  0  0  0
   10.8567    2.5835   33.5378 C   0  0  0  0  0  0  0  0  0  0  0  0
   12.4476    4.0644   32.3376 C   0  0  0  0  0  0  0  0  0  0  0  0
   13.2929    2.0151   33.4128 C   0  0  0  0  0  0  0  0  0  0  0  0
   10.6544   -5.9998   31.3596 C   0  0  0  0  0  0  0  0  0  0  0  0
   10.6795   -7.4241   31.8244 C   0  0  0  0  0  0  0  0  0  0  0  0
   11.0555   -8.3929   30.9708 C   0  0  0  0  0  0  0  0  0  0  0  0
   11.4426   -6.6408   29.2963 C   0  0  0  0  0  0  0  0  0  0  0  0
   12.1015   -5.4356   27.1661 C   0  0  0  0  0  0  0  0  0  0  0  0
   10.8286  -10.2450   32.6242 C   0  0  1  0  0  0  0  0  0  0  0  0
    9.4819  -10.5451   33.0137 C   0  0  0  0  0  0  0  0  0  0  0  0
   10.2629  -11.5594   32.7705 C   0  0  0  0  0  0  0  0  0  0  0  0
   12.2475   -4.5177   26.4799 N   0  0  0  0  0  0  0  0  0  0  0  0
   11.9259   -6.5911   28.0080 C   0  0  0  0  0  0  0  0  0  0  0  0
   12.2381   -7.9121   27.6791 C   0  0  0  0  0  0  0  0  0  0  0  0
   11.4712   -7.9941   29.6731 N   0  3  0  0  0  0  0  0  0  0  0  0
   11.0668   -9.7477   31.2847 N   0  0  0  0  0  0  0  0  0  0  0  0
   11.0123   -5.6671   30.1468 N   0  0  0  0  0  0  0  0  0  0  0  0
   10.2266   -5.0837   32.3025 N   0  0  0  0  0  0  0  0  0  0  0  0
   10.1456   -3.6848   32.2223 C   0  0  0  0  0  0  0  0  0  0  0  0
    9.6678   -2.9731   33.3201 C   0  0  0  0  0  0  0  0  0  0  0  0
    9.6171   -1.5713   33.3052 C   0  0  0  0  0  0  0  0  0  0  0  0
   10.9793   -0.8374   29.9617 N   0  0  0  0  0  0  0  0  0  0  0  0
   11.5195   -0.3412   27.8519 O   0  0  0  0  0  0  0  0  0  0  0  0
   10.0622   -2.2232   28.1248 C   0  0  0  0  0  0  0  0  0  0  0  0
   10.0808    0.6153   32.1903 N   0  0  0  0  0  0  0  0  0  0  0  0
   12.1269    2.6443   32.7116 N   0  3  0  0  0  0  0  0  0  0  0  0
   10.9837   -3.4734   30.2837 H   0  0  0  0  0  0  0  0  0  0  0  0
    9.0683    2.3030   31.4169 H   0  0  0  0  0  0  0  0  0  0  0  0
    8.0010    0.9169   31.6537 H   0  0  0  0  0  0  0  0  0  0  0  0
    9.1473    0.9756   30.2868 H   0  0  0  0  0  0  0  0  0  0  0  0
    9.2001    1.2912   34.0161 H   0  0  0  0  0  0  0  0  0  0  0  0
   10.7995    0.5493   34.1860 H   0  0  0  0  0  0  0  0  0  0  0  0
   11.1190    2.8841   34.5555 H   0  0  0  0  0  0  0  0  0  0  0  0
   10.1698    3.3195   33.1124 H   0  0  0  0  0  0  0  0  0  0  0  0
   13.3602    4.0698   31.7373 H   0  0  0  0  0  0  0  0  0  0  0  0
   12.5872    4.6319   33.2637 H   0  0  0  0  0  0  0  0  0  0  0  0
   11.6107    4.4656   31.7610 H   0  0  0  0  0  0  0  0  0  0  0  0
   13.0419    0.9797   33.6458 H   0  0  0  0  0  0  0  0  0  0  0  0
   13.4826    2.5873   34.3265 H   0  0  0  0  0  0  0  0  0  0  0  0
   14.1583    2.0591   32.7467 H   0  0  0  0  0  0  0  0  0  0  0  0
   10.3835   -7.6223   32.8434 H   0  0  0  0  0  0  0  0  0  0  0  0
   11.5195   -9.9283   33.3919 H   0  0  0  0  0  0  0  0  0  0  0  0
    8.5321  -10.1683   33.2909 H   0  0  0  0  0  0  0  0  0  0  0  0
   10.3916  -12.6072   32.6914 H   0  0  0  0  0  0  0  0  0  0  0  0
   12.6568   -8.2816   26.7496 H   0  0  0  0  0  0  0  0  0  0  0  0
   11.3911  -10.3604   30.5355 H   0  0  0  0  0  0  0  0  0  0  0  0
    9.9849   -5.4540   33.2124 H   0  0  0  0  0  0  0  0  0  0  0  0
    9.3443   -3.5030   34.2143 H   0  0  0  0  0  0  0  0  0  0  0  0
    9.2497   -1.0950   34.2083 H   0  0  0  0  0  0  0  0  0  0  0  0
   11.3272    0.0865   30.1666 H   0  0  0  0  0  0  0  0  0  0  0  0
   10.1395   -2.3126   27.0396 H   0  0  0  0  0  0  0  0  0  0  0  0
    9.0247   -2.0032   28.3973 H   0  0  0  0  0  0  0  0  0  0  0  0
   10.3573   -3.1846   28.5255 H   0  0  0  0  0  0  0  0  0  0  0  0
   11.9460    2.1019   31.8489 H   0  0  0  0  0  0  0  0  0  0  0  0
  1 29  1  0  0  0  0
  1 30  2  0  0  0  0
  1 31  1  0  0  0  0
  2  3  2  0  0  0  0
  2  5  1  0  0  0  0
  2 29  1  0  0  0  0
  3 26  1  0  0  0  0
  3 34  1  0  0  0  0
  4 21  1  0  0  0  0
  4 22  1  0  0  0  0
  5 28  2  0  0  0  0
  5 32  1  0  0  0  0
  6 32  1  0  0  0  0
  6 35  1  0  0  0  0
  6 36  1  0  0  0  0
  6 37  1  0  0  0  0
  7  8  1  0  0  0  0
  7 32  1  0  0  0  0
  7 38  1  0  0  0  0
  7 39  1  0  0  0  0
  8 33  1  0  0  0  0
  8 40  1  0  0  0  0
  8 41  1  0  0  0  0
  9 33  1  0  0  0  0
  9 42  1  0  0  0  0
  9 43  1  0  0  0  0
  9 44  1  0  0  0  0
 10 33  1  0  0  0  0
 10 45  1  0  0  0  0
 10 46  1  0  0  0  0
 10 47  1  0  0  0  0
 11 12  2  0  0  0  0
 11 24  1  0  0  0  0
 11 25  1  0  0  0  0
 12 13  1  0  0  0  0
 12 48  1  0  0  0  0
 13 22  2  0  0  0  0
 13 23  1  0  0  0  0
 14 20  1  0  0  0  0
 14 22  1  0  0  0  0
 14 24  2  0  0  0  0
 15 19  3  0  0  0  0
 15 20  1  0  0  0  0
 16 17  1  0  0  0  0
 16 18  1  0  0  0  0
 16 23  1  0  0  0  0
 16 49  1  1  0  0  0
 17 18  2  0  0  0  0
 17 50  1  0  0  0  0
 18 51  1  0  0  0  0
 20 21  2  0  0  0  0
 21 52  1  0  0  0  0
 23 53  1  0  0  0  0
 25 26  1  0  0  0  0
 25 54  1  0  0  0  0
 26 27  2  0  0  0  0
 27 28  1  0  0  0  0
 27 55  1  0  0  0  0
 28 56  1  0  0  0  0
 29 57  1  0  0  0  0
 31 58  1  0  0  0  0
 31 59  1  0  0  0  0
 31 60  1  0  0  0  0
 33 61  1  0  0  0  0
M  CHG  2  22   1  33   1
M  END
$$$$
