60P
 OpenBabel04161910313D

 14 14  0  0  0  0  0  0  0  0999 V2000
  -16.2553    3.3146  -11.4697 S   0  0  0  0  0  0  0  0  0  0  0  0
  -17.1414    2.1818  -12.4370 C   0  0  0  0  0  0  0  0  0  0  0  0
  -17.2040    2.6363  -13.7489 C   0  0  0  0  0  0  0  0  0  0  0  0
  -16.5095    3.8902  -13.9404 C   0  0  0  0  0  0  0  0  0  0  0  0
  -15.9347    4.3566  -12.7857 C   0  0  0  0  0  0  0  0  0  0  0  0
  -17.8538    1.9612  -14.8866 C   0  0  0  0  0  0  0  0  0  0  0  0
  -17.7359    0.8835  -11.8752 C   0  0  0  0  0  0  0  0  0  0  0  0
  -18.5515    0.2220  -12.5768 O   0  0  0  0  0  0  0  0  0  0  0  0
  -17.3448    0.5530  -10.6996 O   0  0  0  0  0  0  0  0  0  0  0  0
  -16.4562    4.3896  -14.8960 H   0  0  0  0  0  0  0  0  0  0  0  0
  -15.3540    5.2695  -12.6913 H   0  0  0  0  0  0  0  0  0  0  0  0
  -18.3118    1.0290  -14.5788 H   0  0  0  0  0  0  0  0  0  0  0  0
  -17.1204    1.7381  -15.6649 H   0  0  0  0  0  0  0  0  0  0  0  0
  -18.6298    2.6089  -15.2970 H   0  0  0  0  0  0  0  0  0  0  0  0
  1  2  1  0  0  0  0
  1  5  1  0  0  0  0
  2  3  2  0  0  0  0
  2  7  1  0  0  0  0
  3  4  1  0  0  0  0
  3  6  1  0  0  0  0
  4  5  2  0  0  0  0
  4 10  1  0  0  0  0
  5 11  1  0  0  0  0
  6 12  1  0  0  0  0
  6 13  1  0  0  0  0
  6 14  1  0  0  0  0
  7  8  2  0  0  0  0
  7  9  1  0  0  0  0
M  END
$$$$
