60R
 OpenBabel04161910303D

 44 48  0  0  0  0  0  0  0  0999 V2000
   -4.0322  -20.5122   -8.5789 C   0  0  0  0  0  0  0  0  0  0  0  0
   -1.7892  -18.9818   -7.9578 C   0  0  0  0  0  0  0  0  0  0  0  0
   -1.6254  -20.3258   -8.3126 C   0  0  0  0  0  0  0  0  0  0  0  0
    0.0260  -21.9141   -8.9870 C   0  0  0  0  0  0  0  0  0  0  0  0
   -0.3788  -23.0937   -8.1516 C   0  0  0  0  0  0  0  0  0  0  0  0
   -1.7447  -23.4347   -8.1016 C   0  0  0  0  0  0  0  0  0  0  0  0
   -2.1579  -24.4833   -7.2781 C   0  0  0  0  0  0  0  0  0  0  0  0
   -1.2163  -25.1791   -6.5148 C   0  0  0  0  0  0  0  0  0  0  0  0
   -2.5394  -25.3384  -10.5545 C   0  0  0  0  0  0  0  0  0  0  0  0
   -2.8031  -26.6298  -11.0315 C   0  0  0  0  0  0  0  0  0  0  0  0
   -3.1924  -17.1222   -7.6199 F   0  0  0  0  0  0  0  0  0  0  0  0
   -3.0539  -18.4179   -7.9454 C   0  0  0  0  0  0  0  0  0  0  0  0
   -4.1778  -19.1633   -8.2577 C   0  0  0  0  0  0  0  0  0  0  0  0
   -2.7554  -21.1177   -8.6167 C   0  0  0  0  0  0  0  0  0  0  0  0
   -0.3073  -20.7122   -8.2982 O   0  0  0  0  0  0  0  0  0  0  0  0
    0.5578  -23.7851   -7.3747 C   0  0  0  0  0  0  0  0  0  0  0  0
    0.1370  -24.8287   -6.5578 C   0  0  0  0  0  0  0  0  0  0  0  0
   -2.6749  -22.5861   -8.8880 C   0  0  0  0  0  0  0  0  0  0  0  0
   -3.3839  -23.0314   -9.9476 C   0  0  0  0  0  0  0  0  0  0  0  0
   -3.5570  -24.3857  -10.4818 C   0  0  0  0  0  0  0  0  0  0  0  0
   -4.8296  -24.7151  -10.9808 C   0  0  0  0  0  0  0  0  0  0  0  0
   -5.0896  -25.9983  -11.4479 C   0  0  0  0  0  0  0  0  0  0  0  0
   -6.3661  -26.3179  -11.9076 N   0  0  0  0  0  0  0  0  0  0  0  0
   -6.7421  -27.6191  -12.0961 C   0  0  0  0  0  0  0  0  0  0  0  0
   -7.8943  -27.9129  -12.4039 O   0  0  0  0  0  0  0  0  0  0  0  0
   -4.0877  -26.9681  -11.4422 C   0  0  0  0  0  0  0  0  0  0  0  0
   -4.2977  -28.2466  -11.8849 O   0  0  0  0  0  0  0  0  0  0  0  0
   -5.6602  -28.6521  -11.7814 C   0  0  0  0  0  0  0  0  0  0  0  0
   -4.9306  -21.0886   -8.7908 H   0  0  0  0  0  0  0  0  0  0  0  0
   -0.9264  -18.3782   -7.6933 H   0  0  0  0  0  0  0  0  0  0  0  0
   -0.4176  -21.9411   -9.9912 H   0  0  0  0  0  0  0  0  0  0  0  0
    1.1092  -21.9189   -9.1482 H   0  0  0  0  0  0  0  0  0  0  0  0
   -3.2078  -24.7564   -7.2146 H   0  0  0  0  0  0  0  0  0  0  0  0
   -1.5386  -25.9897   -5.8656 H   0  0  0  0  0  0  0  0  0  0  0  0
   -1.5276  -25.0973  -10.2352 H   0  0  0  0  0  0  0  0  0  0  0  0
   -2.0029  -27.3650  -11.0635 H   0  0  0  0  0  0  0  0  0  0  0  0
   -5.1592  -18.7011   -8.2390 H   0  0  0  0  0  0  0  0  0  0  0  0
    1.6079  -23.4975   -7.3873 H   0  0  0  0  0  0  0  0  0  0  0  0
    0.8597  -25.3608   -5.9447 H   0  0  0  0  0  0  0  0  0  0  0  0
   -3.9551  -22.3069  -10.5320 H   0  0  0  0  0  0  0  0  0  0  0  0
   -5.6305  -23.9800  -10.9538 H   0  0  0  0  0  0  0  0  0  0  0  0
   -7.0691  -25.6083  -12.0527 H   0  0  0  0  0  0  0  0  0  0  0  0
   -5.8078  -29.4916  -12.4696 H   0  0  0  0  0  0  0  0  0  0  0  0
   -5.8310  -29.0253  -10.7638 H   0  0  0  0  0  0  0  0  0  0  0  0
  1 13  2  0  0  0  0
  1 14  1  0  0  0  0
  1 29  1  0  0  0  0
  2  3  1  0  0  0  0
  2 12  2  0  0  0  0
  2 30  1  0  0  0  0
  3 14  2  0  0  0  0
  3 15  1  0  0  0  0
  4  5  1  0  0  0  0
  4 15  1  0  0  0  0
  4 31  1  0  0  0  0
  4 32  1  0  0  0  0
  5  6  2  0  0  0  0
  5 16  1  0  0  0  0
  6  7  1  0  0  0  0
  6 18  1  0  0  0  0
  7  8  2  0  0  0  0
  7 33  1  0  0  0  0
  8 17  1  0  0  0  0
  8 34  1  0  0  0  0
  9 10  2  0  0  0  0
  9 20  1  0  0  0  0
  9 35  1  0  0  0  0
 10 26  1  0  0  0  0
 10 36  1  0  0  0  0
 11 12  1  0  0  0  0
 12 13  1  0  0  0  0
 13 37  1  0  0  0  0
 14 18  1  0  0  0  0
 16 17  2  0  0  0  0
 16 38  1  0  0  0  0
 17 39  1  0  0  0  0
 18 19  2  0  0  0  0
 19 20  1  0  0  0  0
 19 40  1  0  0  0  0
 20 21  2  0  0  0  0
 21 22  1  0  0  0  0
 21 41  1  0  0  0  0
 22 23  1  0  0  0  0
 22 26  2  0  0  0  0
 23 24  1  0  0  0  0
 23 42  1  0  0  0  0
 24 25  2  0  0  0  0
 24 28  1  0  0  0  0
 26 27  1  0  0  0  0
 27 28  1  0  0  0  0
 28 43  1  0  0  0  0
 28 44  1  0  0  0  0
M  END
$$$$
