61P
 OpenBabel04161910303D

 45 47  0  0  1  0  0  0  0  0999 V2000
   24.4999   12.6762   57.6408 C   0  0  0  0  0  0  0  0  0  0  0  0
   24.4321   11.4409   56.8001 C   0  0  0  0  0  0  0  0  0  0  0  0
   23.6361   11.4161   55.6500 C   0  0  0  0  0  0  0  0  0  0  0  0
   23.5873   10.2759   54.8519 C   0  0  0  0  0  0  0  0  0  0  0  0
   24.3276    9.1486   55.2011 C   0  0  0  0  0  0  0  0  0  0  0  0
   26.6214    7.8799   57.7578 N   0  0  0  0  0  0  0  0  0  0  0  0
   28.1000    7.2319   60.0141 O   0  0  0  0  0  0  0  0  0  0  0  0
   27.9270    6.4417   59.0883 C   0  0  0  0  0  0  0  0  0  0  0  0
   28.5984    5.0731   59.1146 C   0  0  2  0  0  0  0  0  0  0  0  0
   28.1674    4.2737   60.3467 C   0  0  0  0  0  0  0  0  0  0  0  0
   26.6885    4.0536   60.4212 C   0  0  1  0  0  0  0  0  0  0  0  0
   25.9738    2.8334   60.2279 C   0  0  1  0  0  0  0  0  0  0  0  0
   26.3561    1.5164   59.9121 C   0  0  0  0  0  0  0  0  0  0  0  0
   25.3819    0.5173   59.8189 C   0  0  0  0  0  0  0  0  0  0  0  0
   24.0386    0.8149   60.0290 C   0  0  0  0  0  0  0  0  0  0  0  0
   23.6279    2.1155   60.3367 C   0  0  0  0  0  0  0  0  0  0  0  0
   24.6175    3.1040   60.4312 C   0  0  1  0  0  0  0  0  0  0  0  0
   24.5095    4.4376   60.7294 N   0  3  0  0  0  0  0  0  0  0  0  0
   25.7466    5.0180   60.7268 C   0  0  0  0  0  0  0  0  0  0  0  0
   30.0946    5.2896   59.1416 N   0  3  0  0  0  0  0  0  0  0  0  0
   27.2623    6.6946   57.9070 N   0  0  0  0  0  0  0  0  0  0  0  0
   25.8806    7.9552   56.7039 C   0  0  0  0  0  0  0  0  0  0  0  0
   25.1111    9.1645   56.3582 C   0  0  0  0  0  0  0  0  0  0  0  0
   25.1707   10.3078   57.1585 C   0  0  0  0  0  0  0  0  0  0  0  0
   23.8606   13.4627   57.2271 H   0  0  0  0  0  0  0  0  0  0  0  0
   25.5282   13.0498   57.6671 H   0  0  0  0  0  0  0  0  0  0  0  0
   24.1591   12.4554   58.6565 H   0  0  0  0  0  0  0  0  0  0  0  0
   23.0476   12.2891   55.3731 H   0  0  0  0  0  0  0  0  0  0  0  0
   22.9745   10.2755   53.9546 H   0  0  0  0  0  0  0  0  0  0  0  0
   24.2879    8.2721   54.5616 H   0  0  0  0  0  0  0  0  0  0  0  0
   28.3951    4.5124   58.1968 H   0  0  0  0  0  0  0  0  0  0  0  0
   28.4905    4.7869   61.2609 H   0  0  0  0  0  0  0  0  0  0  0  0
   28.6794    3.3036   60.3312 H   0  0  0  0  0  0  0  0  0  0  0  0
   27.3984    1.2612   59.7585 H   0  0  0  0  0  0  0  0  0  0  0  0
   25.6777   -0.5039   59.5882 H   0  0  0  0  0  0  0  0  0  0  0  0
   23.2962    0.0224   59.9550 H   0  0  0  0  0  0  0  0  0  0  0  0
   22.5780    2.3379   60.5060 H   0  0  0  0  0  0  0  0  0  0  0  0
   23.6362    4.9176   60.9457 H   0  0  0  0  0  0  0  0  0  0  0  0
   25.8643    6.0711   60.9489 H   0  0  0  0  0  0  0  0  0  0  0  0
   30.6226    4.4122   59.1866 H   0  0  0  0  0  0  0  0  0  0  0  0
   30.4011    5.8201   58.3142 H   0  0  0  0  0  0  0  0  0  0  0  0
   27.1516    5.9914   57.1801 H   0  0  0  0  0  0  0  0  0  0  0  0
   25.7940    7.1082   56.0032 H   0  0  0  0  0  0  0  0  0  0  0  0
   25.7919   10.3240   58.0524 H   0  0  0  0  0  0  0  0  0  0  0  0
   30.3434    5.8757   59.9564 H   0  0  0  0  0  0  0  0  0  0  0  0
  1  2  1  0  0  0  0
  1 25  1  0  0  0  0
  1 26  1  0  0  0  0
  1 27  1  0  0  0  0
  2  3  2  0  0  0  0
  2 24  1  0  0  0  0
  3  4  1  0  0  0  0
  3 28  1  0  0  0  0
  4  5  2  0  0  0  0
  4 29  1  0  0  0  0
  5 23  1  0  0  0  0
  5 30  1  0  0  0  0
  6 21  1  0  0  0  0
  6 22  2  0  0  0  0
  7  8  2  0  0  0  0
  8  9  1  0  0  0  0
  8 21  1  0  0  0  0
  9 10  1  0  0  0  0
  9 20  1  0  0  0  0
  9 31  1  6  0  0  0
 10 32  1  0  0  0  0
 10 33  1  0  0  0  0
 11 10  1  1  0  0  0
 11 12  1  0  0  0  0
 11 19  1  0  0  0  0
 12 13  1  1  0  0  0
 12 17  1  0  0  0  0
 13 14  1  0  0  0  0
 13 34  1  0  0  0  0
 14 15  1  0  0  0  0
 14 35  1  0  0  0  0
 15 16  1  0  0  0  0
 15 36  1  0  0  0  0
 16 37  1  0  0  0  0
 17 16  1  1  0  0  0
 17 18  1  0  0  0  0
 18 19  1  0  0  0  0
 18 38  1  0  0  0  0
 19 39  1  0  0  0  0
 20 40  1  0  0  0  0
 20 41  1  0  0  0  0
 20 45  1  0  0  0  0
 21 42  1  0  0  0  0
 22 23  1  0  0  0  0
 22 43  1  0  0  0  0
 23 24  2  0  0  0  0
 24 44  1  0  0  0  0
M  CHG  2  18   1  20   1
M  END
$$$$
