627
 OpenBabel04161910383D

 64 68  0  0  1  0  0  0  0  0999 V2000
 -102.0489  -16.2719   47.1863 N   0  3  0  0  0  0  0  0  0  0  0  0
 -102.7536  -15.3599   43.7738 N   0  3  0  0  0  0  0  0  0  0  0  0
 -100.6030  -15.1809   43.9969 C   0  0  1  0  0  0  0  0  0  0  0  0
 -101.6175  -14.9965   43.0846 N   0  0  0  0  0  0  0  0  0  0  0  0
  -99.3398  -14.8681   43.5690 N   0  0  0  0  0  0  0  0  0  0  0  0
  -98.2366  -15.1341   44.3135 C   0  0  0  0  0  0  0  0  0  0  0  0
  -96.9357  -14.7347   43.7144 C   0  0  0  0  0  0  0  0  0  0  0  0
  -98.1829  -15.6604   45.4048 O   0  0  0  0  0  0  0  0  0  0  0  0
  -96.7895  -14.2604   42.4141 C   0  0  0  0  0  0  0  0  0  0  0  0
  -95.5284  -13.9115   41.9582 C   0  0  0  0  0  0  0  0  0  0  0  0
  -94.5973  -14.5375   44.0873 C   0  0  0  0  0  0  0  0  0  0  0  0
  -95.8385  -14.8780   44.5514 C   0  0  0  0  0  0  0  0  0  0  0  0
 -102.4306  -15.7239   45.0290 C   0  0  2  0  0  0  0  0  0  0  0  0
 -101.0846  -15.6597   45.2724 C   0  0  2  0  0  0  0  0  0  0  0  0
 -100.8132  -16.0410   46.5352 C   0  0  0  0  0  0  0  0  0  0  0  0
 -103.0201  -16.1638   46.1501 C   0  0  0  0  0  0  0  0  0  0  0  0
  -93.1365  -13.6502   42.3491 N   0  0  0  0  0  0  0  0  0  0  0  0
  -92.1215  -13.8634   43.3945 C   0  0  0  0  0  0  0  0  0  0  0  0
  -90.7455  -13.4621   42.9198 C   0  0  0  0  0  0  0  0  0  0  0  0
  -90.7751  -12.0193   42.4643 N   0  3  2  0  0  0  0  0  0  0  0  0
  -91.7837  -11.8724   41.3386 C   0  0  0  0  0  0  0  0  0  0  0  0
  -93.1688  -12.2683   41.8423 C   0  0  0  0  0  0  0  0  0  0  0  0
  -89.4246  -11.5653   42.0540 C   0  0  0  0  0  0  0  0  0  0  0  0
  -94.4174  -14.0355   42.7944 C   0  0  0  0  0  0  0  0  0  0  0  0
 -102.2944  -16.5309   48.5438 C   0  0  0  0  0  0  0  0  0  0  0  0
 -103.4564  -16.6633   48.9139 O   0  0  0  0  0  0  0  0  0  0  0  0
 -100.6306  -15.1172   49.7295 C   0  0  0  0  0  0  0  0  0  0  0  0
  -99.2789  -14.7785   49.6024 C   0  0  0  0  0  0  0  0  0  0  0  0
 -101.5661  -14.1634   50.1302 C   0  0  0  0  0  0  0  0  0  0  0  0
  -98.8704  -13.4796   49.8560 C   0  0  0  0  0  0  0  0  0  0  0  0
 -101.1508  -12.8652   50.3863 C   0  0  0  0  0  0  0  0  0  0  0  0
 -101.0664  -16.5291   49.4504 C   0  0  1  0  0  0  0  0  0  0  0  0
  -99.8047  -12.5244   50.2471 C   0  0  0  0  0  0  0  0  0  0  0  0
 -100.3695  -17.3369   51.5900 C   0  0  0  0  0  0  0  0  0  0  0  0
 -101.4417  -17.1711   50.6772 O   0  0  0  0  0  0  0  0  0  0  0  0
 -103.6666  -15.2936   43.3450 H   0  0  0  0  0  0  0  0  0  0  0  0
  -99.3170  -14.4814   42.6508 H   0  0  0  0  0  0  0  0  0  0  0  0
  -97.6292  -14.1625   41.7397 H   0  0  0  0  0  0  0  0  0  0  0  0
  -95.4236  -13.5479   40.9414 H   0  0  0  0  0  0  0  0  0  0  0  0
  -93.7821  -14.6599   44.7867 H   0  0  0  0  0  0  0  0  0  0  0  0
  -95.9427  -15.2525   45.5645 H   0  0  0  0  0  0  0  0  0  0  0  0
  -99.8491  -16.1535   47.0016 H   0  0  0  0  0  0  0  0  0  0  0  0
 -104.0569  -16.4319   46.3400 H   0  0  0  0  0  0  0  0  0  0  0  0
  -92.0827  -14.9220   43.6755 H   0  0  0  0  0  0  0  0  0  0  0  0
  -92.3821  -13.2440   44.2669 H   0  0  0  0  0  0  0  0  0  0  0  0
  -90.4428  -14.0709   42.0642 H   0  0  0  0  0  0  0  0  0  0  0  0
  -90.0296  -13.5408   43.7390 H   0  0  0  0  0  0  0  0  0  0  0  0
  -91.4578  -12.5345   40.5290 H   0  0  0  0  0  0  0  0  0  0  0  0
  -91.7738  -10.8300   41.0199 H   0  0  0  0  0  0  0  0  0  0  0  0
  -93.4676  -11.5993   42.6601 H   0  0  0  0  0  0  0  0  0  0  0  0
  -93.8660  -12.1562   41.0105 H   0  0  0  0  0  0  0  0  0  0  0  0
  -88.7595  -11.6827   42.9113 H   0  0  0  0  0  0  0  0  0  0  0  0
  -89.5003  -10.5170   41.7634 H   0  0  0  0  0  0  0  0  0  0  0  0
  -89.1026  -12.1878   41.2163 H   0  0  0  0  0  0  0  0  0  0  0  0
  -98.5522  -15.5318   49.3059 H   0  0  0  0  0  0  0  0  0  0  0  0
 -102.6172  -14.4338   50.2347 H   0  0  0  0  0  0  0  0  0  0  0  0
  -97.8255  -13.2155   49.7490 H   0  0  0  0  0  0  0  0  0  0  0  0
 -101.8805  -12.1241   50.6846 H   0  0  0  0  0  0  0  0  0  0  0  0
 -100.2508  -17.0926   48.9842 H   0  0  0  0  0  0  0  0  0  0  0  0
  -99.4874  -11.5078   50.4529 H   0  0  0  0  0  0  0  0  0  0  0  0
 -100.7442  -17.8476   52.4811 H   0  0  0  0  0  0  0  0  0  0  0  0
  -99.9682  -16.3690   51.9010 H   0  0  0  0  0  0  0  0  0  0  0  0
  -99.5824  -17.9416   51.1347 H   0  0  0  0  0  0  0  0  0  0  0  0
  -91.1010  -11.4429   43.2537 H   0  0  0  0  0  0  0  0  0  0  0  0
  1 15  1  0  0  0  0
  1 16  1  0  0  0  0
  1 25  1  0  0  0  0
  2  4  1  0  0  0  0
  2 36  1  0  0  0  0
  3  4  1  0  0  0  0
  3  5  1  1  0  0  0
  3 14  1  0  0  0  0
  5  6  1  0  0  0  0
  5 37  1  0  0  0  0
  6  7  1  0  0  0  0
  6  8  2  0  0  0  0
  7  9  2  0  0  0  0
  7 12  1  0  0  0  0
  9 10  1  0  0  0  0
  9 38  1  0  0  0  0
 10 24  2  0  0  0  0
 10 39  1  0  0  0  0
 11 12  2  0  0  0  0
 11 24  1  0  0  0  0
 11 40  1  0  0  0  0
 12 41  1  0  0  0  0
 13  2  1  6  0  0  0
 13 14  1  0  0  0  0
 13 16  1  0  0  0  0
 14 15  1  1  0  0  0
 15 42  1  0  0  0  0
 16 43  1  0  0  0  0
 17 18  1  0  0  0  0
 17 22  1  0  0  0  0
 17 24  1  0  0  0  0
 18 19  1  0  0  0  0
 18 44  1  0  0  0  0
 18 45  1  0  0  0  0
 19 20  1  0  0  0  0
 19 46  1  0  0  0  0
 19 47  1  0  0  0  0
 20 21  1  0  0  0  0
 20 23  1  0  0  0  0
 20 64  1  1  0  0  0
 21 22  1  0  0  0  0
 21 48  1  0  0  0  0
 21 49  1  0  0  0  0
 22 50  1  0  0  0  0
 22 51  1  0  0  0  0
 23 52  1  0  0  0  0
 23 53  1  0  0  0  0
 23 54  1  0  0  0  0
 25 26  2  0  0  0  0
 25 32  1  0  0  0  0
 27 28  2  0  0  0  0
 27 29  1  0  0  0  0
 27 32  1  0  0  0  0
 28 30  1  0  0  0  0
 28 55  1  0  0  0  0
 29 31  2  0  0  0  0
 29 56  1  0  0  0  0
 30 33  2  0  0  0  0
 30 57  1  0  0  0  0
 31 33  1  0  0  0  0
 31 58  1  0  0  0  0
 32 35  1  0  0  0  0
 32 59  1  6  0  0  0
 33 60  1  0  0  0  0
 34 35  1  0  0  0  0
 34 61  1  0  0  0  0
 34 62  1  0  0  0  0
 34 63  1  0  0  0  0
M  CHG  3   1   1   2   1  20   1
M  END
$$$$
