64C
 OpenBabel04161910313D

 26 28  0  0  0  0  0  0  0  0999 V2000
   21.4388   30.0789   10.5551 C   0  0  0  0  0  0  0  0  0  0  0  0
   20.8532   28.7726   10.5270 C   0  0  0  0  0  0  0  0  0  0  0  0
   21.3308   27.6689   11.2362 C   0  0  0  0  0  0  0  0  0  0  0  0
   20.6801   26.4380   11.1248 C   0  0  0  0  0  0  0  0  0  0  0  0
   19.5592   26.3025   10.3070 C   0  0  0  0  0  0  0  0  0  0  0  0
   19.0748   27.4043    9.5964 C   0  0  0  0  0  0  0  0  0  0  0  0
   19.7162   28.6450    9.7070 C   0  0  0  0  0  0  0  0  0  0  0  0
   19.1704   29.8210    8.9375 C   0  0  0  0  0  0  0  0  0  0  0  0
   18.1670   29.6778    8.2441 O   0  0  0  0  0  0  0  0  0  0  0  0
   19.8028   31.0325    9.0254 O   0  3  0  0  0  0  0  0  0  0  0  0
   20.8862   31.1172    9.8077 C   0  0  0  0  0  0  0  0  0  0  0  0
   21.5347   32.2675    9.9209 N   0  0  0  0  0  0  0  0  0  0  0  0
   22.5332   31.9524   10.7669 N   0  3  0  0  0  0  0  0  0  0  0  0
   22.5302   30.6366   11.1916 C   0  0  0  0  0  0  0  0  0  0  0  0
   23.5532   30.0936   12.1349 C   0  0  0  0  0  0  0  0  0  0  0  0
   24.5174   31.1421   12.6714 C   0  0  0  0  0  0  0  0  0  0  0  0
   22.2022   27.7386   11.8770 H   0  0  0  0  0  0  0  0  0  0  0  0
   21.0514   25.5783   11.6789 H   0  0  0  0  0  0  0  0  0  0  0  0
   19.0593   25.3413   10.2207 H   0  0  0  0  0  0  0  0  0  0  0  0
   18.1991   27.2910    8.9608 H   0  0  0  0  0  0  0  0  0  0  0  0
   23.1860   32.6879   11.0172 H   0  0  0  0  0  0  0  0  0  0  0  0
   24.1283   29.3103   11.6266 H   0  0  0  0  0  0  0  0  0  0  0  0
   23.0451   29.6257   12.9863 H   0  0  0  0  0  0  0  0  0  0  0  0
   25.2289   30.6901   13.3685 H   0  0  0  0  0  0  0  0  0  0  0  0
   23.9794   31.9345   13.2037 H   0  0  0  0  0  0  0  0  0  0  0  0
   25.0898   31.6044   11.8597 H   0  0  0  0  0  0  0  0  0  0  0  0
  1  2  1  0  0  0  0
  1 11  2  0  0  0  0
  1 14  1  0  0  0  0
  2  3  2  0  0  0  0
  2  7  1  0  0  0  0
  3  4  1  0  0  0  0
  3 17  1  0  0  0  0
  4  5  2  0  0  0  0
  4 18  1  0  0  0  0
  5  6  1  0  0  0  0
  5 19  1  0  0  0  0
  6  7  2  0  0  0  0
  6 20  1  0  0  0  0
  7  8  1  0  0  0  0
  8  9  2  0  0  0  0
  8 10  1  0  0  0  0
 10 11  1  0  0  0  0
 11 12  1  0  0  0  0
 12 13  1  0  0  0  0
 13 14  2  0  0  0  0
 13 21  1  0  0  0  0
 14 15  1  0  0  0  0
 15 16  1  0  0  0  0
 15 22  1  0  0  0  0
 15 23  1  0  0  0  0
 16 24  1  0  0  0  0
 16 25  1  0  0  0  0
 16 26  1  0  0  0  0
M  CHG  2  10   1  13   1
M  END
$$$$
