64F
 OpenBabel04161910323D

 32 34  0  0  0  0  0  0  0  0999 V2000
   14.8609   -9.3032   -7.6269 C   0  0  0  0  0  0  0  0  0  0  0  0
   14.3416   -9.3216   -8.9596 C   0  0  0  0  0  0  0  0  0  0  0  0
   14.6486   -8.3685   -9.9286 C   0  0  0  0  0  0  0  0  0  0  0  0
   14.0957   -8.4686  -11.2081 C   0  0  0  0  0  0  0  0  0  0  0  0
   13.2187   -9.5073  -11.5189 C   0  0  0  0  0  0  0  0  0  0  0  0
   12.9093  -10.4622  -10.5517 C   0  0  0  0  0  0  0  0  0  0  0  0
   13.4714  -10.3748   -9.2731 C   0  0  0  0  0  0  0  0  0  0  0  0
   13.1272  -11.4171   -8.2494 C   0  0  0  0  0  0  0  0  0  0  0  0
   12.3716  -12.3366   -8.5536 O   0  0  0  0  0  0  0  0  0  0  0  0
   13.6590  -11.3249   -6.9998 O   0  3  0  0  0  0  0  0  0  0  0  0
   14.4592  -10.3118   -6.7905 C   0  0  0  0  0  0  0  0  0  0  0  0
   15.0740  -10.1061   -5.5963 N   0  3  0  0  0  0  0  0  0  0  0  0
   15.8414   -9.0136   -5.5991 N   0  0  0  0  0  0  0  0  0  0  0  0
   15.7299   -8.5215   -6.8474 C   0  0  0  0  0  0  0  0  0  0  0  0
   16.4930   -7.2955   -7.2178 C   0  0  0  0  0  0  0  0  0  0  0  0
   17.1932   -6.7165   -5.9953 C   0  0  0  0  0  0  0  0  0  0  0  0
   18.1020   -5.5668   -6.3621 C   0  0  0  0  0  0  0  0  0  0  0  0
   18.6934   -4.9692   -5.1011 C   0  0  0  0  0  0  0  0  0  0  0  0
   15.3072   -7.5367   -9.7075 H   0  0  0  0  0  0  0  0  0  0  0  0
   14.3507   -7.7282  -11.9629 H   0  0  0  0  0  0  0  0  0  0  0  0
   12.7721   -9.5747  -12.5082 H   0  0  0  0  0  0  0  0  0  0  0  0
   12.2277  -11.2754  -10.7939 H   0  0  0  0  0  0  0  0  0  0  0  0
   15.0116  -10.6627   -4.7540 H   0  0  0  0  0  0  0  0  0  0  0  0
   15.8187   -6.5411   -7.6426 H   0  0  0  0  0  0  0  0  0  0  0  0
   17.2306   -7.5431   -7.9916 H   0  0  0  0  0  0  0  0  0  0  0  0
   17.7902   -7.4981   -5.5053 H   0  0  0  0  0  0  0  0  0  0  0  0
   16.4350   -6.3894   -5.2703 H   0  0  0  0  0  0  0  0  0  0  0  0
   17.5350   -4.8077   -6.9092 H   0  0  0  0  0  0  0  0  0  0  0  0
   18.9024   -5.9295   -7.0163 H   0  0  0  0  0  0  0  0  0  0  0  0
   19.3539   -4.1366   -5.3506 H   0  0  0  0  0  0  0  0  0  0  0  0
   19.2696   -5.7202   -4.5499 H   0  0  0  0  0  0  0  0  0  0  0  0
   17.8997   -4.5998   -4.4430 H   0  0  0  0  0  0  0  0  0  0  0  0
  1  2  1  0  0  0  0
  1 11  1  0  0  0  0
  1 14  2  0  0  0  0
  2  3  2  0  0  0  0
  2  7  1  0  0  0  0
  3  4  1  0  0  0  0
  3 19  1  0  0  0  0
  4  5  2  0  0  0  0
  4 20  1  0  0  0  0
  5  6  1  0  0  0  0
  5 21  1  0  0  0  0
  6  7  2  0  0  0  0
  6 22  1  0  0  0  0
  7  8  1  0  0  0  0
  8  9  2  0  0  0  0
  8 10  1  0  0  0  0
 10 11  1  0  0  0  0
 11 12  2  0  0  0  0
 12 13  1  0  0  0  0
 12 23  1  0  0  0  0
 13 14  1  0  0  0  0
 14 15  1  0  0  0  0
 15 16  1  0  0  0  0
 15 24  1  0  0  0  0
 15 25  1  0  0  0  0
 16 17  1  0  0  0  0
 16 26  1  0  0  0  0
 16 27  1  0  0  0  0
 17 18  1  0  0  0  0
 17 28  1  0  0  0  0
 17 29  1  0  0  0  0
 18 30  1  0  0  0  0
 18 31  1  0  0  0  0
 18 32  1  0  0  0  0
M  CHG  2  10   1  12   1
M  END
$$$$
