65V
 OpenBabel04161910333D

 47 51  0  0  0  0  0  0  0  0999 V2000
  -12.0295   -7.3148   -6.3666 C   0  0  0  0  0  0  0  0  0  0  0  0
  -13.4123   -7.3427   -6.5939 C   0  0  0  0  0  0  0  0  0  0  0  0
  -13.9683   -8.4530   -7.2133 C   0  0  0  0  0  0  0  0  0  0  0  0
  -13.1667   -9.5088   -7.6422 C   0  0  0  0  0  0  0  0  0  0  0  0
  -11.7923   -9.4743   -7.4473 C   0  0  0  0  0  0  0  0  0  0  0  0
  -11.2193   -8.3810   -6.7944 C   0  0  0  0  0  0  0  0  0  0  0  0
  -13.7116  -10.5983   -8.2591 O   0  0  0  0  0  0  0  0  0  0  0  0
  -15.2952   -8.5222   -7.3940 F   0  0  0  0  0  0  0  0  0  0  0  0
  -11.4617   -6.2118   -5.6920 N   0  3  0  0  0  0  0  0  0  0  0  0
  -10.2656   -6.1613   -5.0227 C   0  0  0  0  0  0  0  0  0  0  0  0
  -10.1859   -4.8717   -4.5479 C   0  0  0  0  0  0  0  0  0  0  0  0
  -11.2992   -4.1818   -4.9497 N   0  0  0  0  0  0  0  0  0  0  0  0
  -12.0915   -5.0204   -5.6063 N   0  0  0  0  0  0  0  0  0  0  0  0
   -9.1190   -4.3120   -3.7368 C   0  0  0  0  0  0  0  0  0  0  0  0
   -8.1682   -5.1235   -3.1306 C   0  0  0  0  0  0  0  0  0  0  0  0
   -7.1662   -4.5160   -2.3886 C   0  0  0  0  0  0  0  0  0  0  0  0
   -7.1254   -3.1217   -2.2555 C   0  0  0  0  0  0  0  0  0  0  0  0
   -8.1432   -2.3833   -2.8912 C   0  0  0  0  0  0  0  0  0  0  0  0
   -9.1140   -2.9658   -3.6175 N   0  0  0  0  0  0  0  0  0  0  0  0
   -6.1218   -2.4527   -1.5204 C   0  0  0  0  0  0  0  0  0  0  0  0
   -6.1550   -1.0611   -1.3992 C   0  0  0  0  0  0  0  0  0  0  0  0
   -7.1674   -0.3380   -2.0214 C   0  0  0  0  0  0  0  0  0  0  0  0
   -8.1457   -1.0044   -2.7602 C   0  0  0  0  0  0  0  0  0  0  0  0
   -5.1471   -3.2662   -0.9695 O   0  0  0  0  0  0  0  0  0  0  0  0
   -4.1195   -2.6772   -0.2824 C   0  0  0  0  0  0  0  0  0  0  0  0
   -2.9696   -2.2843   -0.9647 C   0  0  0  0  0  0  0  0  0  0  0  0
   -1.9165   -1.7207   -0.2501 C   0  0  0  0  0  0  0  0  0  0  0  0
   -2.0162   -1.5734    1.1373 C   0  0  0  0  0  0  0  0  0  0  0  0
   -3.1651   -1.9880    1.8342 C   0  0  0  0  0  0  0  0  0  0  0  0
   -4.2177   -2.5543    1.1008 C   0  0  0  0  0  0  0  0  0  0  0  0
   -3.2744   -1.8309    3.3363 C   0  0  0  0  0  0  0  0  0  0  0  0
   -2.2440   -1.4030    3.9467 O   0  0  0  0  0  0  0  0  0  0  0  0
   -4.3837   -2.1336    3.8728 O   0  0  0  0  0  0  0  0  0  0  0  0
  -14.0650   -6.5405   -6.2607 H   0  0  0  0  0  0  0  0  0  0  0  0
  -11.1698  -10.2911   -7.8024 H   0  0  0  0  0  0  0  0  0  0  0  0
  -10.1389   -8.3659   -6.6697 H   0  0  0  0  0  0  0  0  0  0  0  0
  -14.6743  -10.4480   -8.2927 H   0  0  0  0  0  0  0  0  0  0  0  0
   -9.6287   -7.0236   -4.9034 H   0  0  0  0  0  0  0  0  0  0  0  0
   -8.1891   -6.2032   -3.2101 H   0  0  0  0  0  0  0  0  0  0  0  0
   -6.4207   -5.1409   -1.9081 H   0  0  0  0  0  0  0  0  0  0  0  0
   -5.4092   -0.5219   -0.8208 H   0  0  0  0  0  0  0  0  0  0  0  0
   -7.1980    0.7443   -1.9287 H   0  0  0  0  0  0  0  0  0  0  0  0
   -8.9340   -0.4326   -3.2449 H   0  0  0  0  0  0  0  0  0  0  0  0
   -2.9002   -2.4102   -2.0395 H   0  0  0  0  0  0  0  0  0  0  0  0
   -1.0163   -1.3969   -0.7628 H   0  0  0  0  0  0  0  0  0  0  0  0
   -1.1924   -1.1346    1.6979 H   0  0  0  0  0  0  0  0  0  0  0  0
   -5.1134   -2.8892    1.6204 H   0  0  0  0  0  0  0  0  0  0  0  0
  1  2  2  0  0  0  0
  1  6  1  0  0  0  0
  1  9  1  0  0  0  0
  2  3  1  0  0  0  0
  2 34  1  0  0  0  0
  3  4  2  0  0  0  0
  3  8  1  0  0  0  0
  4  5  1  0  0  0  0
  4  7  1  0  0  0  0
  5  6  2  0  0  0  0
  5 35  1  0  0  0  0
  6 36  1  0  0  0  0
  7 37  1  0  0  0  0
  9 10  1  0  0  0  0
  9 13  2  0  0  0  0
 10 11  2  0  0  0  0
 10 38  1  0  0  0  0
 11 12  1  0  0  0  0
 11 14  1  0  0  0  0
 12 13  1  0  0  0  0
 14 15  2  0  0  0  0
 14 19  1  0  0  0  0
 15 16  1  0  0  0  0
 15 39  1  0  0  0  0
 16 17  2  0  0  0  0
 16 40  1  0  0  0  0
 17 18  1  0  0  0  0
 17 20  1  0  0  0  0
 18 19  2  0  0  0  0
 18 23  1  0  0  0  0
 20 21  2  0  0  0  0
 20 24  1  0  0  0  0
 21 22  1  0  0  0  0
 21 41  1  0  0  0  0
 22 23  2  0  0  0  0
 22 42  1  0  0  0  0
 23 43  1  0  0  0  0
 24 25  1  0  0  0  0
 25 26  2  0  0  0  0
 25 30  1  0  0  0  0
 26 27  1  0  0  0  0
 26 44  1  0  0  0  0
 27 28  2  0  0  0  0
 27 45  1  0  0  0  0
 28 29  1  0  0  0  0
 28 46  1  0  0  0  0
 29 30  2  0  0  0  0
 29 31  1  0  0  0  0
 30 47  1  0  0  0  0
 31 32  2  0  0  0  0
 31 33  1  0  0  0  0
M  CHG  1   9   1
M  END
$$$$
