65Y
 OpenBabel04161910343D

 47 49  0  0  0  0  0  0  0  0999 V2000
   15.3041   -4.0420  -24.0574 C   0  0  0  0  0  0  0  0  0  0  0  0
   12.5787   -4.0940  -24.4979 C   0  0  0  0  0  0  0  0  0  0  0  0
   14.4198   -4.0892  -22.9503 C   0  0  0  0  0  0  0  0  0  0  0  0
   12.5700   -4.1958  -20.8960 C   0  0  0  0  0  0  0  0  0  0  0  0
   11.5033   -4.3805  -19.8265 C   0  0  0  0  0  0  0  0  0  0  0  0
   14.3633   -4.1974  -19.1426 C   0  0  0  0  0  0  0  0  0  0  0  0
   10.4771   -3.2478  -19.8365 C   0  0  0  0  0  0  0  0  0  0  0  0
   10.8140   -5.7331  -20.0198 C   0  0  0  0  0  0  0  0  0  0  0  0
   19.0965   -1.8238  -20.0438 C   0  0  0  0  0  0  0  0  0  0  0  0
   18.4014   -0.4827  -20.3067 C   0  0  0  0  0  0  0  0  0  0  0  0
   19.3374   -1.9855  -18.5409 C   0  0  0  0  0  0  0  0  0  0  0  0
   17.0317   -5.3511  -21.4633 C   0  0  0  0  0  0  0  0  0  0  0  0
   18.3987   -5.3883  -21.2113 C   0  0  0  0  0  0  0  0  0  0  0  0
   19.0565   -4.2355  -20.7826 C   0  0  0  0  0  0  0  0  0  0  0  0
   18.3558   -3.0323  -20.5894 C   0  0  0  0  0  0  0  0  0  0  0  0
   16.9809   -3.0162  -20.8519 C   0  0  0  0  0  0  0  0  0  0  0  0
   16.3094   -4.1619  -21.3009 C   0  0  0  0  0  0  0  0  0  0  0  0
   14.8719   -4.1244  -21.6065 C   0  0  0  0  0  0  0  0  0  0  0  0
   13.4559   -4.0549  -25.5868 C   0  0  0  0  0  0  0  0  0  0  0  0
   14.8239   -4.0305  -25.3588 C   0  0  0  0  0  0  0  0  0  0  0  0
   13.0322   -4.1109  -23.1811 C   0  0  0  0  0  0  0  0  0  0  0  0
   13.9232   -4.1617  -20.5684 C   0  0  0  0  0  0  0  0  0  0  0  0
   12.1286   -4.1606  -22.1901 N   0  0  0  0  0  0  0  0  0  0  0  0
   15.9248   -3.9952  -26.6777 Cl  0  0  0  0  0  0  0  0  0  0  0  0
   14.4289   -3.0774  -18.5476 O   0  0  0  0  0  0  0  0  0  0  0  0
   14.5840   -5.3433  -18.6461 O   0  0  0  0  0  0  0  0  0  0  0  0
   16.3782   -4.0151  -23.8965 H   0  0  0  0  0  0  0  0  0  0  0  0
   11.5068   -4.1202  -24.6784 H   0  0  0  0  0  0  0  0  0  0  0  0
   11.9510   -4.3875  -18.8276 H   0  0  0  0  0  0  0  0  0  0  0  0
    9.7452   -3.3933  -19.0334 H   0  0  0  0  0  0  0  0  0  0  0  0
    9.9291   -3.2008  -20.7830 H   0  0  0  0  0  0  0  0  0  0  0  0
   10.9607   -2.2784  -19.6765 H   0  0  0  0  0  0  0  0  0  0  0  0
   11.5470   -6.5477  -20.0316 H   0  0  0  0  0  0  0  0  0  0  0  0
   10.2584   -5.7704  -20.9635 H   0  0  0  0  0  0  0  0  0  0  0  0
   10.1075   -5.9262  -19.2063 H   0  0  0  0  0  0  0  0  0  0  0  0
   20.0696   -1.7801  -20.5500 H   0  0  0  0  0  0  0  0  0  0  0  0
   19.0165    0.3480  -19.9476 H   0  0  0  0  0  0  0  0  0  0  0  0
   17.4384   -0.4175  -19.7878 H   0  0  0  0  0  0  0  0  0  0  0  0
   18.2233   -0.3354  -21.3771 H   0  0  0  0  0  0  0  0  0  0  0  0
   19.8686   -2.9169  -18.3144 H   0  0  0  0  0  0  0  0  0  0  0  0
   18.3913   -2.0005  -17.9883 H   0  0  0  0  0  0  0  0  0  0  0  0
   19.9424   -1.1577  -18.1569 H   0  0  0  0  0  0  0  0  0  0  0  0
   16.5116   -6.2567  -21.7699 H   0  0  0  0  0  0  0  0  0  0  0  0
   18.9413   -6.3196  -21.3246 H   0  0  0  0  0  0  0  0  0  0  0  0
   20.1195   -4.2893  -20.5620 H   0  0  0  0  0  0  0  0  0  0  0  0
   16.3849   -2.1200  -20.6760 H   0  0  0  0  0  0  0  0  0  0  0  0
   13.0652   -4.0492  -26.5990 H   0  0  0  0  0  0  0  0  0  0  0  0
  1  3  2  0  0  0  0
  1 20  1  0  0  0  0
  1 27  1  0  0  0  0
  2 19  1  0  0  0  0
  2 21  2  0  0  0  0
  2 28  1  0  0  0  0
  3 18  1  0  0  0  0
  3 21  1  0  0  0  0
  4  5  1  0  0  0  0
  4 22  1  0  0  0  0
  4 23  2  0  0  0  0
  5  7  1  0  0  0  0
  5  8  1  0  0  0  0
  5 29  1  0  0  0  0
  6 22  1  0  0  0  0
  6 25  2  0  0  0  0
  6 26  1  0  0  0  0
  7 30  1  0  0  0  0
  7 31  1  0  0  0  0
  7 32  1  0  0  0  0
  8 33  1  0  0  0  0
  8 34  1  0  0  0  0
  8 35  1  0  0  0  0
  9 10  1  0  0  0  0
  9 11  1  0  0  0  0
  9 15  1  0  0  0  0
  9 36  1  0  0  0  0
 10 37  1  0  0  0  0
 10 38  1  0  0  0  0
 10 39  1  0  0  0  0
 11 40  1  0  0  0  0
 11 41  1  0  0  0  0
 11 42  1  0  0  0  0
 12 13  2  0  0  0  0
 12 17  1  0  0  0  0
 12 43  1  0  0  0  0
 13 14  1  0  0  0  0
 13 44  1  0  0  0  0
 14 15  2  0  0  0  0
 14 45  1  0  0  0  0
 15 16  1  0  0  0  0
 16 17  2  0  0  0  0
 16 46  1  0  0  0  0
 17 18  1  0  0  0  0
 18 22  2  0  0  0  0
 19 20  2  0  0  0  0
 19 47  1  0  0  0  0
 20 24  1  0  0  0  0
 21 23  1  0  0  0  0
M  END
$$$$
