67B
 OpenBabel04161910373D

 39 41  0  0  0  0  0  0  0  0999 V2000
  -14.9485   -0.3888   10.2155 C   0  0  0  0  0  0  0  0  0  0  0  0
  -15.0874   -0.4408    7.7329 C   0  0  0  0  0  0  0  0  0  0  0  0
  -14.6087    0.1226    5.4192 C   0  0  0  0  0  0  0  0  0  0  0  0
  -14.7069   -1.0153   11.4395 C   0  0  0  0  0  0  0  0  0  0  0  0
  -14.3901   -2.4388    9.0725 C   0  0  0  0  0  0  0  0  0  0  0  0
  -13.6837   -4.4957   10.2724 C   0  0  0  0  0  0  0  0  0  0  0  0
  -14.2990   -2.3516   11.4767 C   0  0  0  0  0  0  0  0  0  0  0  0
  -12.6791   -4.8405   11.1132 C   0  0  0  0  0  0  0  0  0  0  0  0
  -11.0356   -6.3916   12.0729 C   0  0  0  0  0  0  0  0  0  0  0  0
  -12.0620   -8.2843   10.3047 O   0  0  0  0  0  0  0  0  0  0  0  0
  -12.5482   -7.1511   10.2999 C   0  0  0  0  0  0  0  0  0  0  0  0
  -12.1208   -6.1160   11.1505 N   0  3  0  0  0  0  0  0  0  0  0  0
  -13.6151   -6.7650    9.4086 C   0  0  0  0  0  0  0  0  0  0  0  0
  -14.2483   -7.5375    8.4740 N   0  3  0  0  0  0  0  0  0  0  0  0
  -15.2076   -6.7834    7.8389 C   0  0  0  0  0  0  0  0  0  0  0  0
  -15.1901   -5.5172    8.3907 C   0  0  0  0  0  0  0  0  0  0  0  0
  -14.1782   -5.5077    9.3744 C   0  0  0  0  0  0  0  0  0  0  0  0
  -14.1304   -3.0800   10.2898 C   0  0  0  0  0  0  0  0  0  0  0  0
  -14.7714   -1.0979    9.0251 C   0  0  0  0  0  0  0  0  0  0  0  0
  -16.1499    0.1763    7.6655 O   0  0  0  0  0  0  0  0  0  0  0  0
  -14.2045   -0.5326    6.6542 N   0  0  0  0  0  0  0  0  0  0  0  0
  -12.8848   -1.1496    6.6669 C   0  0  0  0  0  0  0  0  0  0  0  0
  -15.2811    0.6455   10.1896 H   0  0  0  0  0  0  0  0  0  0  0  0
  -13.8435    0.0062    4.6467 H   0  0  0  0  0  0  0  0  0  0  0  0
  -14.7749    1.1887    5.6067 H   0  0  0  0  0  0  0  0  0  0  0  0
  -15.5466   -0.3202    5.0698 H   0  0  0  0  0  0  0  0  0  0  0  0
  -14.8476   -0.4651   12.3669 H   0  0  0  0  0  0  0  0  0  0  0  0
  -14.2771   -2.9856    8.1408 H   0  0  0  0  0  0  0  0  0  0  0  0
  -14.1227   -2.8150   12.4452 H   0  0  0  0  0  0  0  0  0  0  0  0
  -12.2383   -4.1200   11.7982 H   0  0  0  0  0  0  0  0  0  0  0  0
  -10.7944   -5.5143   12.6805 H   0  0  0  0  0  0  0  0  0  0  0  0
  -10.1492   -6.6893   11.5029 H   0  0  0  0  0  0  0  0  0  0  0  0
  -11.3264   -7.2155   12.7305 H   0  0  0  0  0  0  0  0  0  0  0  0
  -14.0399   -8.5136    8.2893 H   0  0  0  0  0  0  0  0  0  0  0  0
  -15.8291   -7.1989    7.0575 H   0  0  0  0  0  0  0  0  0  0  0  0
  -15.8442   -4.7080    8.0934 H   0  0  0  0  0  0  0  0  0  0  0  0
  -12.6247   -1.5753    7.6326 H   0  0  0  0  0  0  0  0  0  0  0  0
  -12.1289   -0.3955    6.4333 H   0  0  0  0  0  0  0  0  0  0  0  0
  -12.8663   -1.9420    5.9127 H   0  0  0  0  0  0  0  0  0  0  0  0
  1  4  2  0  0  0  0
  1 19  1  0  0  0  0
  1 23  1  0  0  0  0
  2 19  1  0  0  0  0
  2 20  2  0  0  0  0
  2 21  1  0  0  0  0
  3 21  1  0  0  0  0
  3 24  1  0  0  0  0
  3 25  1  0  0  0  0
  3 26  1  0  0  0  0
  4  7  1  0  0  0  0
  4 27  1  0  0  0  0
  5 18  1  0  0  0  0
  5 19  2  0  0  0  0
  5 28  1  0  0  0  0
  6  8  1  0  0  0  0
  6 17  2  0  0  0  0
  6 18  1  0  0  0  0
  7 18  2  0  0  0  0
  7 29  1  0  0  0  0
  8 12  2  0  0  0  0
  8 30  1  0  0  0  0
  9 12  1  0  0  0  0
  9 31  1  0  0  0  0
  9 32  1  0  0  0  0
  9 33  1  0  0  0  0
 10 11  2  0  0  0  0
 11 12  1  0  0  0  0
 11 13  1  0  0  0  0
 13 14  2  0  0  0  0
 13 17  1  0  0  0  0
 14 15  1  0  0  0  0
 14 34  1  0  0  0  0
 15 16  2  0  0  0  0
 15 35  1  0  0  0  0
 16 17  1  0  0  0  0
 16 36  1  0  0  0  0
 21 22  1  0  0  0  0
 22 37  1  0  0  0  0
 22 38  1  0  0  0  0
 22 39  1  0  0  0  0
M  CHG  2  12   1  14   1
M  END
$$$$
