67B
 OpenBabel04161910343D

 39 41  0  0  0  0  0  0  0  0999 V2000
    7.9789   -7.5980   -3.2092 C   0  0  0  0  0  0  0  0  0  0  0  0
    7.0876   -6.6945   -1.0551 C   0  0  0  0  0  0  0  0  0  0  0  0
    8.1265   -8.7723   -0.0811 C   0  0  0  0  0  0  0  0  0  0  0  0
    7.7406   -8.1825   -4.4515 C   0  0  0  0  0  0  0  0  0  0  0  0
    5.5981   -7.6586   -2.7501 C   0  0  0  0  0  0  0  0  0  0  0  0
    3.9345   -8.5386   -4.4308 C   0  0  0  0  0  0  0  0  0  0  0  0
    6.4350   -8.5277   -4.8263 C   0  0  0  0  0  0  0  0  0  0  0  0
    3.0399   -8.9246   -3.4826 C   0  0  0  0  0  0  0  0  0  0  0  0
    0.7890   -9.4946   -2.6593 C   0  0  0  0  0  0  0  0  0  0  0  0
   -0.0294   -9.3233   -5.3109 O   0  0  0  0  0  0  0  0  0  0  0  0
    1.1483   -9.0984   -5.0442 C   0  0  0  0  0  0  0  0  0  0  0  0
    1.6927   -9.1824   -3.7495 N   0  3  0  0  0  0  0  0  0  0  0  0
    2.1201   -8.7113   -6.0374 C   0  0  0  0  0  0  0  0  0  0  0  0
    1.9010   -8.5347   -7.3755 N   0  3  0  0  0  0  0  0  0  0  0  0
    3.0610   -8.1210   -7.9758 C   0  0  0  0  0  0  0  0  0  0  0  0
    4.0340   -8.0214   -6.9992 C   0  0  0  0  0  0  0  0  0  0  0  0
    3.4447   -8.4225   -5.7799 C   0  0  0  0  0  0  0  0  0  0  0  0
    5.3348   -8.2578   -3.9923 C   0  0  0  0  0  0  0  0  0  0  0  0
    6.9071   -7.3685   -2.3528 C   0  0  0  0  0  0  0  0  0  0  0  0
    6.6068   -5.5672   -0.9425 O   0  0  0  0  0  0  0  0  0  0  0  0
    7.7306   -7.3704   -0.0196 N   0  0  0  0  0  0  0  0  0  0  0  0
    7.7891   -6.7294    1.2827 C   0  0  0  0  0  0  0  0  0  0  0  0
    8.9871   -7.3026   -2.9295 H   0  0  0  0  0  0  0  0  0  0  0  0
    8.6111   -9.0680    0.8544 H   0  0  0  0  0  0  0  0  0  0  0  0
    8.8324   -8.9212   -0.9013 H   0  0  0  0  0  0  0  0  0  0  0  0
    7.2410   -9.3914   -0.2427 H   0  0  0  0  0  0  0  0  0  0  0  0
    8.5614   -8.3567   -5.1426 H   0  0  0  0  0  0  0  0  0  0  0  0
    4.7889   -7.3810   -2.0792 H   0  0  0  0  0  0  0  0  0  0  0  0
    6.2918   -9.0031   -5.7939 H   0  0  0  0  0  0  0  0  0  0  0  0
    3.3270   -9.0499   -2.4430 H   0  0  0  0  0  0  0  0  0  0  0  0
    1.3132   -9.5474   -1.7004 H   0  0  0  0  0  0  0  0  0  0  0  0
    0.3021  -10.4555   -2.8571 H   0  0  0  0  0  0  0  0  0  0  0  0
    0.0198   -8.7175   -2.6038 H   0  0  0  0  0  0  0  0  0  0  0  0
    1.0051   -8.6781   -7.8355 H   0  0  0  0  0  0  0  0  0  0  0  0
    3.0963   -7.9187   -9.0364 H   0  0  0  0  0  0  0  0  0  0  0  0
    5.0469   -7.6912   -7.1759 H   0  0  0  0  0  0  0  0  0  0  0  0
    7.4542   -5.6893    1.2446 H   0  0  0  0  0  0  0  0  0  0  0  0
    8.8230   -6.7508    1.6380 H   0  0  0  0  0  0  0  0  0  0  0  0
    7.1469   -7.2786    1.9771 H   0  0  0  0  0  0  0  0  0  0  0  0
  1  4  2  0  0  0  0
  1 19  1  0  0  0  0
  1 23  1  0  0  0  0
  2 19  1  0  0  0  0
  2 20  2  0  0  0  0
  2 21  1  0  0  0  0
  3 21  1  0  0  0  0
  3 24  1  0  0  0  0
  3 25  1  0  0  0  0
  3 26  1  0  0  0  0
  4  7  1  0  0  0  0
  4 27  1  0  0  0  0
  5 18  1  0  0  0  0
  5 19  2  0  0  0  0
  5 28  1  0  0  0  0
  6  8  1  0  0  0  0
  6 17  2  0  0  0  0
  6 18  1  0  0  0  0
  7 18  2  0  0  0  0
  7 29  1  0  0  0  0
  8 12  2  0  0  0  0
  8 30  1  0  0  0  0
  9 12  1  0  0  0  0
  9 31  1  0  0  0  0
  9 32  1  0  0  0  0
  9 33  1  0  0  0  0
 10 11  2  0  0  0  0
 11 12  1  0  0  0  0
 11 13  1  0  0  0  0
 13 14  2  0  0  0  0
 13 17  1  0  0  0  0
 14 15  1  0  0  0  0
 14 34  1  0  0  0  0
 15 16  2  0  0  0  0
 15 35  1  0  0  0  0
 16 17  1  0  0  0  0
 16 36  1  0  0  0  0
 21 22  1  0  0  0  0
 22 37  1  0  0  0  0
 22 38  1  0  0  0  0
 22 39  1  0  0  0  0
M  CHG  2  12   1  14   1
M  END
$$$$
