67C
 OpenBabel04161910343D

 48 50  0  0  1  0  0  0  0  0999 V2000
   -4.3872   13.7196    8.1786 C   0  0  0  0  0  0  0  0  0  0  0  0
  -10.3492   18.8806    5.4164 N   0  0  0  0  0  0  0  0  0  0  0  0
  -12.0613   20.3864    5.5211 O   0  0  0  0  0  0  0  0  0  0  0  0
   -4.9883   16.0898    8.1854 C   0  0  0  0  0  0  0  0  0  0  0  0
  -10.1316   22.4588    6.4102 N   0  3  0  0  0  0  0  0  0  0  0  0
   -5.1243   17.3919    7.4732 C   0  0  1  0  0  0  0  0  0  0  0  0
   -6.4051   17.8094    7.1169 C   0  0  0  0  0  0  0  0  0  0  0  0
   -6.6235   19.0856    6.5319 C   0  0  2  0  0  0  0  0  0  0  0  0
   -5.5299   19.9070    6.3270 C   0  0  0  0  0  0  0  0  0  0  0  0
   -4.2551   19.4991    6.7271 C   0  0  0  0  0  0  0  0  0  0  0  0
   -4.0352   18.2259    7.2583 C   0  0  0  0  0  0  0  0  0  0  0  0
   -8.0570   19.4956    6.3403 C   0  0  2  0  0  0  0  0  0  0  0  0
   -8.9720   18.5112    5.6783 C   0  0  0  0  0  0  0  0  0  0  0  0
  -10.8412   20.1359    5.6740 C   0  0  0  0  0  0  0  0  0  0  0  0
  -11.1674   17.7699    4.9527 C   0  0  0  0  0  0  0  0  0  0  0  0
  -11.4684   16.8139    6.1114 C   0  0  0  0  0  0  0  0  0  0  0  0
  -12.3330   15.6928    5.6369 C   0  0  0  0  0  0  0  0  0  0  0  0
  -11.9347   14.4197    5.6295 C   0  0  0  0  0  0  0  0  0  0  0  0
   -9.8891   21.1377    6.1139 C   0  0  2  0  0  0  0  0  0  0  0  0
   -8.9356   22.9867    6.8508 C   0  0  0  0  0  0  0  0  0  0  0  0
   -7.9200   22.0618    6.8809 C   0  0  0  0  0  0  0  0  0  0  0  0
   -8.5258   20.8915    6.3873 C   0  0  1  0  0  0  0  0  0  0  0  0
   -5.4437   15.9907    9.2910 O   0  0  0  0  0  0  0  0  0  0  0  0
   -4.3867   15.0296    7.5159 N   0  0  0  0  0  0  0  0  0  0  0  0
   -3.9942   15.0711    6.1266 C   0  0  0  0  0  0  0  0  0  0  0  0
   -3.9169   12.9925    7.5132 H   0  0  0  0  0  0  0  0  0  0  0  0
   -5.4112   13.3986    8.4001 H   0  0  0  0  0  0  0  0  0  0  0  0
   -3.8228   13.7730    9.1151 H   0  0  0  0  0  0  0  0  0  0  0  0
  -11.0171   22.9673    6.3291 H   0  0  0  0  0  0  0  0  0  0  0  0
   -7.2516   17.1563    7.3433 H   0  0  0  0  0  0  0  0  0  0  0  0
   -5.6646   20.8881    5.8858 H   0  0  0  0  0  0  0  0  0  0  0  0
   -3.4328   20.1999    6.6236 H   0  0  0  0  0  0  0  0  0  0  0  0
   -3.0270   17.9039    7.5093 H   0  0  0  0  0  0  0  0  0  0  0  0
   -8.3414   19.2618    7.3589 H   0  0  0  0  0  0  0  0  0  0  0  0
   -8.5609   18.1779    4.7247 H   0  0  0  0  0  0  0  0  0  0  0  0
   -9.0233   17.6779    6.3926 H   0  0  0  0  0  0  0  0  0  0  0  0
  -10.6374   17.2417    4.1370 H   0  0  0  0  0  0  0  0  0  0  0  0
  -12.0863   18.1740    4.5197 H   0  0  0  0  0  0  0  0  0  0  0  0
  -11.9699   17.3545    6.9249 H   0  0  0  0  0  0  0  0  0  0  0  0
  -10.5379   16.4053    6.5370 H   0  0  0  0  0  0  0  0  0  0  0  0
  -13.3200   15.9412    5.2617 H   0  0  0  0  0  0  0  0  0  0  0  0
  -12.5968   13.6461    5.2531 H   0  0  0  0  0  0  0  0  0  0  0  0
  -10.9504   14.1428    5.9942 H   0  0  0  0  0  0  0  0  0  0  0  0
   -8.8925   24.0257    7.1251 H   0  0  0  0  0  0  0  0  0  0  0  0
   -6.9032   22.2506    7.2207 H   0  0  0  0  0  0  0  0  0  0  0  0
   -4.0432   16.0827    5.7281 H   0  0  0  0  0  0  0  0  0  0  0  0
   -4.6607   14.4313    5.5439 H   0  0  0  0  0  0  0  0  0  0  0  0
   -2.9680   14.7093    6.0502 H   0  0  0  0  0  0  0  0  0  0  0  0
  1 24  1  0  0  0  0
  1 26  1  0  0  0  0
  1 27  1  0  0  0  0
  1 28  1  0  0  0  0
  2 13  1  0  0  0  0
  2 14  1  0  0  0  0
  2 15  1  0  0  0  0
  3 14  2  0  0  0  0
  4 23  2  0  0  0  0
  4 24  1  0  0  0  0
  5 20  1  0  0  0  0
  5 29  1  0  0  0  0
  6  4  1  1  0  0  0
  6  7  1  0  0  0  0
  6 11  1  0  0  0  0
  7 30  1  0  0  0  0
  8  7  1  1  0  0  0
  8  9  1  0  0  0  0
  8 12  1  0  0  0  0
  9 10  1  0  0  0  0
  9 31  1  0  0  0  0
 10 11  1  0  0  0  0
 10 32  1  0  0  0  0
 11 33  1  0  0  0  0
 12 13  1  0  0  0  0
 12 22  1  0  0  0  0
 12 34  1  1  0  0  0
 13 35  1  0  0  0  0
 13 36  1  0  0  0  0
 14 19  1  0  0  0  0
 15 16  1  0  0  0  0
 15 37  1  0  0  0  0
 15 38  1  0  0  0  0
 16 17  1  0  0  0  0
 16 39  1  0  0  0  0
 16 40  1  0  0  0  0
 17 18  2  0  0  0  0
 17 41  1  0  0  0  0
 18 42  1  0  0  0  0
 18 43  1  0  0  0  0
 19  5  1  1  0  0  0
 19 22  1  0  0  0  0
 20 21  1  0  0  0  0
 20 44  1  0  0  0  0
 21 45  1  0  0  0  0
 22 21  1  1  0  0  0
 24 25  1  0  0  0  0
 25 46  1  0  0  0  0
 25 47  1  0  0  0  0
 25 48  1  0  0  0  0
M  CHG  1   5   1
M  END
$$$$
