68K
 OpenBabel04161910363D

 86 90  0  0  0  0  0  0  0  0999 V2000
   13.6171   37.4022  -12.7482 C   0  0  0  0  0  0  0  0  0  0  0  0
   12.3615   38.2910  -12.6783 C   0  0  0  0  0  0  0  0  0  0  0  0
   12.3801   39.2758  -13.8599 C   0  0  0  0  0  0  0  0  0  0  0  0
   11.1313   37.3793  -12.7669 C   0  0  0  0  0  0  0  0  0  0  0  0
   12.3540   39.0688  -11.3399 C   0  0  0  0  0  0  0  0  0  0  0  0
   11.1187   39.9279  -11.1130 C   0  0  0  0  0  0  0  0  0  0  0  0
   11.2582   40.7646   -9.9542 N   0  0  0  0  0  0  0  0  0  0  0  0
   11.5962   42.0887  -10.0513 C   0  0  0  0  0  0  0  0  0  0  0  0
   11.7254   42.7018  -11.0980 O   0  0  0  0  0  0  0  0  0  0  0  0
   11.8264   42.7492   -8.7055 C   0  0  0  0  0  0  0  0  0  0  0  0
   13.3102   42.9824   -8.4226 C   0  0  0  0  0  0  0  0  0  0  0  0
   14.1517   41.7497   -8.6117 C   0  0  0  0  0  0  0  0  0  0  0  0
   14.1388   40.6472   -7.7564 C   0  0  0  0  0  0  0  0  0  0  0  0
   14.8311   39.5234   -8.0143 N   0  0  0  0  0  0  0  0  0  0  0  0
   13.2834   40.5949   -6.6706 N   0  0  0  0  0  0  0  0  0  0  0  0
   14.9442   41.6761   -9.7616 C   0  0  0  0  0  0  0  0  0  0  0  0
   15.6450   40.5172  -10.0545 C   0  0  0  0  0  0  0  0  0  0  0  0
   16.4271   40.4396  -11.2100 C   0  0  0  0  0  0  0  0  0  0  0  0
   15.5511   39.4453   -9.1567 C   0  0  0  0  0  0  0  0  0  0  0  0
   16.2848   38.2940   -9.4567 C   0  0  0  0  0  0  0  0  0  0  0  0
   17.0917   38.2163  -10.5988 C   0  0  0  0  0  0  0  0  0  0  0  0
   17.1804   39.2935  -11.4803 C   0  0  0  0  0  0  0  0  0  0  0  0
   18.1482   39.2882  -12.5798 C   0  0  0  0  0  0  0  0  0  0  0  0
   17.8618   38.5894  -13.7675 C   0  0  0  0  0  0  0  0  0  0  0  0
   18.7807   38.5636  -14.8155 C   0  0  0  0  0  0  0  0  0  0  0  0
   19.9957   39.2321  -14.6859 C   0  0  0  0  0  0  0  0  0  0  0  0
   20.2982   39.9283  -13.5119 C   0  0  0  0  0  0  0  0  0  0  0  0
   19.3843   39.9707  -12.4498 C   0  0  0  0  0  0  0  0  0  0  0  0
   19.7519   40.7302  -11.1820 C   0  0  0  0  0  0  0  0  0  0  0  0
   20.2996   39.8245  -10.0715 C   0  0  0  0  0  0  0  0  0  0  0  0
   20.1843   40.4358   -8.6938 C   0  0  0  0  0  0  0  0  0  0  0  0
   18.9404   40.5981   -8.0948 C   0  0  0  0  0  0  0  0  0  0  0  0
   18.8437   41.1342   -6.8132 C   0  0  0  0  0  0  0  0  0  0  0  0
   21.3249   40.7794   -8.0632 N   0  0  0  0  0  0  0  0  0  0  0  0
   21.2134   41.2875   -6.8063 C   0  0  0  0  0  0  0  0  0  0  0  0
   20.0052   41.4865   -6.1405 C   0  0  0  0  0  0  0  0  0  0  0  0
   19.8611   42.0135   -4.8446 N   0  0  0  0  0  0  0  0  0  0  0  0
   20.8885   42.4165   -4.0165 C   0  0  0  0  0  0  0  0  0  0  0  0
   22.0828   42.3857   -4.2816 O   0  0  0  0  0  0  0  0  0  0  0  0
   20.4734   42.9570   -2.6972 C   0  0  0  0  0  0  0  0  0  0  0  0
   19.3056   42.5455   -2.0379 C   0  0  0  0  0  0  0  0  0  0  0  0
   18.9989   43.0700   -0.7815 C   0  0  0  0  0  0  0  0  0  0  0  0
   19.8555   43.9971   -0.1934 C   0  0  0  0  0  0  0  0  0  0  0  0
   19.5609   44.4881    1.0164 F   0  0  0  0  0  0  0  0  0  0  0  0
   21.0146   44.4120   -0.8377 C   0  0  0  0  0  0  0  0  0  0  0  0
   21.3273   43.8886   -2.0895 C   0  0  0  0  0  0  0  0  0  0  0  0
   13.6502   36.8434  -13.6907 H   0  0  0  0  0  0  0  0  0  0  0  0
   13.6273   36.6717  -11.9311 H   0  0  0  0  0  0  0  0  0  0  0  0
   14.5336   37.9955  -12.6790 H   0  0  0  0  0  0  0  0  0  0  0  0
   11.4971   39.9217  -13.8686 H   0  0  0  0  0  0  0  0  0  0  0  0
   12.3930   38.7492  -14.8194 H   0  0  0  0  0  0  0  0  0  0  0  0
   13.2633   39.9241  -13.8169 H   0  0  0  0  0  0  0  0  0  0  0  0
   11.1214   36.6655  -11.9348 H   0  0  0  0  0  0  0  0  0  0  0  0
   11.1299   36.8081  -13.7003 H   0  0  0  0  0  0  0  0  0  0  0  0
   10.1985   37.9496  -12.7322 H   0  0  0  0  0  0  0  0  0  0  0  0
   13.2543   39.7013  -11.3006 H   0  0  0  0  0  0  0  0  0  0  0  0
   12.4549   38.3597  -10.5029 H   0  0  0  0  0  0  0  0  0  0  0  0
   10.2342   39.3102  -10.9353 H   0  0  0  0  0  0  0  0  0  0  0  0
   10.9179   40.5756  -11.9729 H   0  0  0  0  0  0  0  0  0  0  0  0
   11.3169   40.3034   -9.0462 H   0  0  0  0  0  0  0  0  0  0  0  0
   11.3786   42.1414   -7.9144 H   0  0  0  0  0  0  0  0  0  0  0  0
   11.2919   43.7080   -8.6979 H   0  0  0  0  0  0  0  0  0  0  0  0
   13.4456   43.3592   -7.4018 H   0  0  0  0  0  0  0  0  0  0  0  0
   13.6806   43.7826   -9.0774 H   0  0  0  0  0  0  0  0  0  0  0  0
   13.4383   39.8030   -6.0551 H   0  0  0  0  0  0  0  0  0  0  0  0
   12.9063   41.4404   -6.2731 H   0  0  0  0  0  0  0  0  0  0  0  0
   14.9713   42.5178  -10.4551 H   0  0  0  0  0  0  0  0  0  0  0  0
   16.5102   41.3032  -11.8716 H   0  0  0  0  0  0  0  0  0  0  0  0
   16.2618   37.4523   -8.7685 H   0  0  0  0  0  0  0  0  0  0  0  0
   17.7063   37.3326  -10.7647 H   0  0  0  0  0  0  0  0  0  0  0  0
   16.9156   38.0640  -13.8812 H   0  0  0  0  0  0  0  0  0  0  0  0
   18.5521   38.0221  -15.7297 H   0  0  0  0  0  0  0  0  0  0  0  0
   20.7147   39.2128  -15.5016 H   0  0  0  0  0  0  0  0  0  0  0  0
   21.2526   40.4402  -13.4307 H   0  0  0  0  0  0  0  0  0  0  0  0
   18.8837   41.3018  -10.8390 H   0  0  0  0  0  0  0  0  0  0  0  0
   20.4931   41.5058  -11.4221 H   0  0  0  0  0  0  0  0  0  0  0  0
   21.3510   39.6043  -10.2836 H   0  0  0  0  0  0  0  0  0  0  0  0
   19.7968   38.8500  -10.0511 H   0  0  0  0  0  0  0  0  0  0  0  0
   18.0404   40.3055   -8.6109 H   0  0  0  0  0  0  0  0  0  0  0  0
   17.8625   41.2491   -6.3661 H   0  0  0  0  0  0  0  0  0  0  0  0
   22.1689   41.5305   -6.3557 H   0  0  0  0  0  0  0  0  0  0  0  0
   18.9109   42.1405   -4.5270 H   0  0  0  0  0  0  0  0  0  0  0  0
   18.6416   41.7983   -2.4636 H   0  0  0  0  0  0  0  0  0  0  0  0
   18.1086   42.7510   -0.2481 H   0  0  0  0  0  0  0  0  0  0  0  0
   21.6741   45.1312   -0.3597 H   0  0  0  0  0  0  0  0  0  0  0  0
   22.2397   44.2041   -2.5942 H   0  0  0  0  0  0  0  0  0  0  0  0
  1  2  1  0  0  0  0
  1 47  1  0  0  0  0
  1 48  1  0  0  0  0
  1 49  1  0  0  0  0
  2  3  1  0  0  0  0
  2  4  1  0  0  0  0
  2  5  1  0  0  0  0
  3 50  1  0  0  0  0
  3 51  1  0  0  0  0
  3 52  1  0  0  0  0
  4 53  1  0  0  0  0
  4 54  1  0  0  0  0
  4 55  1  0  0  0  0
  5  6  1  0  0  0  0
  5 56  1  0  0  0  0
  5 57  1  0  0  0  0
  6  7  1  0  0  0  0
  6 58  1  0  0  0  0
  6 59  1  0  0  0  0
  7  8  1  0  0  0  0
  7 60  1  0  0  0  0
  8  9  2  0  0  0  0
  8 10  1  0  0  0  0
 10 11  1  0  0  0  0
 10 61  1  0  0  0  0
 10 62  1  0  0  0  0
 11 12  1  0  0  0  0
 11 63  1  0  0  0  0
 11 64  1  0  0  0  0
 12 13  2  0  0  0  0
 12 16  1  0  0  0  0
 13 14  1  0  0  0  0
 13 15  1  0  0  0  0
 14 19  2  0  0  0  0
 15 65  1  0  0  0  0
 15 66  1  0  0  0  0
 16 17  2  0  0  0  0
 16 67  1  0  0  0  0
 17 18  1  0  0  0  0
 17 19  1  0  0  0  0
 18 22  2  0  0  0  0
 18 68  1  0  0  0  0
 19 20  1  0  0  0  0
 20 21  2  0  0  0  0
 20 69  1  0  0  0  0
 21 22  1  0  0  0  0
 21 70  1  0  0  0  0
 22 23  1  0  0  0  0
 23 24  2  0  0  0  0
 23 28  1  0  0  0  0
 24 25  1  0  0  0  0
 24 71  1  0  0  0  0
 25 26  2  0  0  0  0
 25 72  1  0  0  0  0
 26 27  1  0  0  0  0
 26 73  1  0  0  0  0
 27 28  2  0  0  0  0
 27 74  1  0  0  0  0
 28 29  1  0  0  0  0
 29 30  1  0  0  0  0
 29 75  1  0  0  0  0
 29 76  1  0  0  0  0
 30 31  1  0  0  0  0
 30 77  1  0  0  0  0
 30 78  1  0  0  0  0
 31 32  2  0  0  0  0
 31 34  1  0  0  0  0
 32 33  1  0  0  0  0
 32 79  1  0  0  0  0
 33 36  2  0  0  0  0
 33 80  1  0  0  0  0
 34 35  2  0  0  0  0
 35 36  1  0  0  0  0
 35 81  1  0  0  0  0
 36 37  1  0  0  0  0
 37 38  1  0  0  0  0
 37 82  1  0  0  0  0
 38 39  2  0  0  0  0
 38 40  1  0  0  0  0
 40 41  2  0  0  0  0
 40 46  1  0  0  0  0
 41 42  1  0  0  0  0
 41 83  1  0  0  0  0
 42 43  2  0  0  0  0
 42 84  1  0  0  0  0
 43 44  1  0  0  0  0
 43 45  1  0  0  0  0
 45 46  2  0  0  0  0
 45 85  1  0  0  0  0
 46 86  1  0  0  0  0
M  END
$$$$
