68L
 OpenBabel04161910363D

 54 59  0  0  1  0  0  0  0  0999 V2000
   64.3566   52.7146   12.6422 C   0  0  0  0  0  0  0  0  0  0  0  0
   63.1528   53.0349   13.2221 O   0  0  0  0  0  0  0  0  0  0  0  0
   61.9895   52.6407   12.4831 C   0  0  0  0  0  0  0  0  0  0  0  0
   62.1608   51.3869   11.6846 C   0  0  0  0  0  0  0  0  0  0  0  0
   63.3783   51.0042   11.2875 C   0  0  0  0  0  0  0  0  0  0  0  0
   64.5523   51.7623   11.7074 C   0  0  0  0  0  0  0  0  0  0  0  0
   65.9364   51.4753   11.2489 C   0  0  0  0  0  0  0  0  0  0  0  0
   66.1810   50.4719   10.3171 C   0  0  0  0  0  0  0  0  0  0  0  0
   66.9489   52.1973   11.7811 N   0  0  0  0  0  0  0  0  0  0  0  0
   68.2128   51.9175   11.3935 C   0  0  0  0  0  0  0  0  0  0  0  0
   68.5254   50.9401   10.4646 C   0  0  0  0  0  0  0  0  0  0  0  0
   69.8426   50.7726   10.1414 O   0  0  0  0  0  0  0  0  0  0  0  0
   67.4904   50.1969    9.9083 C   0  0  0  0  0  0  0  0  0  0  0  0
   67.7817   49.1393    8.8912 C   0  0  1  0  0  0  0  0  0  0  0  0
   67.3498   47.7143    9.2952 C   0  0  0  0  0  0  0  0  0  0  0  0
   66.5812   47.1819    8.1834 O   0  0  0  0  0  0  0  0  0  0  0  0
   66.3212   48.2300    7.4053 C   0  0  0  0  0  0  0  0  0  0  0  0
   66.9048   49.3541    7.7383 N   0  0  0  0  0  0  0  0  0  0  0  0
   65.5414   48.0520    6.3791 N   0  0  0  0  0  0  0  0  0  0  0  0
   69.2025   49.1928    8.4022 C   0  0  0  0  0  0  0  0  0  0  0  0
   69.6119   48.4312    7.3061 C   0  0  0  0  0  0  0  0  0  0  0  0
   70.1444   49.9748    9.0660 C   0  0  0  0  0  0  0  0  0  0  0  0
   71.4804   49.9818    8.6506 C   0  0  0  0  0  0  0  0  0  0  0  0
   71.8747   49.1958    7.5637 C   0  0  0  0  0  0  0  0  0  0  0  0
   70.9385   48.4251    6.8906 C   0  0  0  0  0  0  0  0  0  0  0  0
   71.2067   47.6450    5.7704 N   0  0  0  0  0  0  0  0  0  0  0  0
   72.4186   47.2240    5.2902 C   0  0  0  0  0  0  0  0  0  0  0  0
   73.5159   47.3594    5.8178 O   0  0  0  0  0  0  0  0  0  0  0  0
   72.2604   46.4709    4.0078 C   0  0  0  0  0  0  0  0  0  0  0  0
   73.1598   45.4769    3.6568 C   0  0  0  0  0  0  0  0  0  0  0  0
   72.9421   44.7948    2.4603 C   0  0  0  0  0  0  0  0  0  0  0  0
   71.8572   45.1449    1.6597 C   0  0  0  0  0  0  0  0  0  0  0  0
   71.5757   44.3526    0.1656 Cl  0  0  0  0  0  0  0  0  0  0  0  0
   71.0009   46.1432    2.1005 C   0  0  0  0  0  0  0  0  0  0  0  0
   71.1477   46.7947    3.2790 N   0  0  0  0  0  0  0  0  0  0  0  0
   65.1419   53.3164   13.0869 H   0  0  0  0  0  0  0  0  0  0  0  0
   61.7540   53.4589   11.7947 H   0  0  0  0  0  0  0  0  0  0  0  0
   61.1566   52.5358   13.1840 H   0  0  0  0  0  0  0  0  0  0  0  0
   61.2802   50.8247   11.3948 H   0  0  0  0  0  0  0  0  0  0  0  0
   63.4693   50.1323   10.6556 H   0  0  0  0  0  0  0  0  0  0  0  0
   65.3674   49.8913    9.9018 H   0  0  0  0  0  0  0  0  0  0  0  0
   68.9867   52.5195   11.8661 H   0  0  0  0  0  0  0  0  0  0  0  0
   66.6954   47.6911   10.1736 H   0  0  0  0  0  0  0  0  0  0  0  0
   68.1955   47.0451    9.4911 H   0  0  0  0  0  0  0  0  0  0  0  0
   66.8010   50.2090    7.2136 H   0  0  0  0  0  0  0  0  0  0  0  0
   65.1704   47.1239    6.2079 H   0  0  0  0  0  0  0  0  0  0  0  0
   68.9066   47.7920    6.7855 H   0  0  0  0  0  0  0  0  0  0  0  0
   72.2104   50.5972    9.1642 H   0  0  0  0  0  0  0  0  0  0  0  0
   72.9159   49.2254    7.2551 H   0  0  0  0  0  0  0  0  0  0  0  0
   70.4188   47.2969    5.2269 H   0  0  0  0  0  0  0  0  0  0  0  0
   73.9934   45.2266    4.3055 H   0  0  0  0  0  0  0  0  0  0  0  0
   73.6208   44.0022    2.1573 H   0  0  0  0  0  0  0  0  0  0  0  0
   70.1523   46.4594    1.4988 H   0  0  0  0  0  0  0  0  0  0  0  0
   65.3007   48.7956    5.7402 H   0  0  0  0  0  0  0  0  0  0  0  0
  1  2  1  0  0  0  0
  1  6  2  0  0  0  0
  1 36  1  0  0  0  0
  2  3  1  0  0  0  0
  3  4  1  0  0  0  0
  3 37  1  0  0  0  0
  3 38  1  0  0  0  0
  4  5  2  0  0  0  0
  4 39  1  0  0  0  0
  5  6  1  0  0  0  0
  5 40  1  0  0  0  0
  6  7  1  0  0  0  0
  7  8  2  0  0  0  0
  7  9  1  0  0  0  0
  8 13  1  0  0  0  0
  8 41  1  0  0  0  0
  9 10  2  0  0  0  0
 10 11  1  0  0  0  0
 10 42  1  0  0  0  0
 11 12  1  0  0  0  0
 11 13  2  0  0  0  0
 12 22  1  0  0  0  0
 14 13  1  1  0  0  0
 14 15  1  0  0  0  0
 14 18  1  0  0  0  0
 14 20  1  0  0  0  0
 15 16  1  0  0  0  0
 15 43  1  0  0  0  0
 15 44  1  0  0  0  0
 16 17  1  0  0  0  0
 17 18  1  0  0  0  0
 17 19  2  0  0  0  0
 18 45  1  0  0  0  0
 19 46  1  0  0  0  0
 19 54  1  0  0  0  0
 20 21  2  0  0  0  0
 20 22  1  0  0  0  0
 21 25  1  0  0  0  0
 21 47  1  0  0  0  0
 22 23  2  0  0  0  0
 23 24  1  0  0  0  0
 23 48  1  0  0  0  0
 24 25  2  0  0  0  0
 24 49  1  0  0  0  0
 25 26  1  0  0  0  0
 26 27  1  0  0  0  0
 26 50  1  0  0  0  0
 27 28  2  0  0  0  0
 27 29  1  0  0  0  0
 29 30  2  0  0  0  0
 29 35  1  0  0  0  0
 30 31  1  0  0  0  0
 30 51  1  0  0  0  0
 31 32  2  0  0  0  0
 31 52  1  0  0  0  0
 32 33  1  0  0  0  0
 32 34  1  0  0  0  0
 34 35  2  0  0  0  0
 34 53  1  0  0  0  0
M  END
$$$$
