68M
 OpenBabel04161910353D

 62 64  0  0  1  0  0  0  0  0999 V2000
   65.4322   50.7566   13.1699 C   0  0  0  0  0  0  0  0  0  0  0  0
   65.1988   51.5177   11.8554 C   0  0  0  0  0  0  0  0  0  0  0  0
   66.3887   52.4657   11.6233 C   0  0  0  0  0  0  0  0  0  0  0  0
   63.9252   52.3660   11.9577 C   0  0  0  0  0  0  0  0  0  0  0  0
   65.1263   50.5258   10.6699 C   0  0  0  0  0  0  0  0  0  0  0  0
   63.9012   49.6077   10.6301 C   0  0  0  0  0  0  0  0  0  0  0  0
   63.9526   48.7683    9.4507 N   0  0  0  0  0  0  0  0  0  0  0  0
   64.2868   47.4312    9.5014 C   0  0  0  0  0  0  0  0  0  0  0  0
   64.4142   46.7892   10.5499 O   0  0  0  0  0  0  0  0  0  0  0  0
   64.5323   46.8157    8.1322 C   0  0  2  0  0  0  0  0  0  0  0  0
   63.6256   45.6140    7.9125 C   0  0  0  0  0  0  0  0  0  0  0  0
   66.0175   46.4542    7.9789 C   0  0  0  0  0  0  0  0  0  0  0  0
   66.9231   47.6446    8.2023 C   0  0  0  0  0  0  0  0  0  0  0  0
   66.9049   48.7529    7.3516 C   0  0  0  0  0  0  0  0  0  0  0  0
   67.6214   49.8676    7.5953 N   0  0  0  0  0  0  0  0  0  0  0  0
   65.9923   48.8344    6.3003 N   0  0  0  0  0  0  0  0  0  0  0  0
   67.7630   47.6799    9.3217 C   0  0  0  0  0  0  0  0  0  0  0  0
   68.5126   48.8272    9.5892 C   0  0  0  0  0  0  0  0  0  0  0  0
   69.3375   48.9201   10.7257 C   0  0  0  0  0  0  0  0  0  0  0  0
   68.4022   49.9089    8.6937 C   0  0  0  0  0  0  0  0  0  0  0  0
   69.1189   51.0632    8.9814 C   0  0  0  0  0  0  0  0  0  0  0  0
   69.9476   51.1573   10.1067 C   0  0  0  0  0  0  0  0  0  0  0  0
   70.0686   50.0880   10.9995 C   0  0  0  0  0  0  0  0  0  0  0  0
   71.0059   50.1356   12.1274 C   0  0  0  0  0  0  0  0  0  0  0  0
   71.9913   49.2036   12.0235 N   0  0  0  0  0  0  0  0  0  0  0  0
   72.9595   49.1950   12.9590 C   0  0  0  0  0  0  0  0  0  0  0  0
   72.9948   50.0684   14.0273 C   0  0  0  0  0  0  0  0  0  0  0  0
   71.9775   51.0024   14.1401 C   0  0  0  0  0  0  0  0  0  0  0  0
   70.9519   51.0553   13.1826 C   0  0  0  0  0  0  0  0  0  0  0  0
   69.8692   52.0772   13.3650 C   0  0  0  0  0  0  0  0  0  0  0  0
   65.5193   51.4464   14.0165 H   0  0  0  0  0  0  0  0  0  0  0  0
   66.3579   50.1703   13.1257 H   0  0  0  0  0  0  0  0  0  0  0  0
   64.6103   50.0687   13.3896 H   0  0  0  0  0  0  0  0  0  0  0  0
   66.2668   53.0507   10.7046 H   0  0  0  0  0  0  0  0  0  0  0  0
   67.3138   51.8955   11.5239 H   0  0  0  0  0  0  0  0  0  0  0  0
   66.5112   53.1695   12.4558 H   0  0  0  0  0  0  0  0  0  0  0  0
   63.0422   51.7503   12.1513 H   0  0  0  0  0  0  0  0  0  0  0  0
   63.7540   52.9249   11.0301 H   0  0  0  0  0  0  0  0  0  0  0  0
   63.9990   53.0913   12.7753 H   0  0  0  0  0  0  0  0  0  0  0  0
   66.0262   49.8996   10.6807 H   0  0  0  0  0  0  0  0  0  0  0  0
   65.1659   51.0886    9.7270 H   0  0  0  0  0  0  0  0  0  0  0  0
   62.9788   50.1894   10.5490 H   0  0  0  0  0  0  0  0  0  0  0  0
   63.8411   48.9866   11.5295 H   0  0  0  0  0  0  0  0  0  0  0  0
   63.9877   49.2412    8.5567 H   0  0  0  0  0  0  0  0  0  0  0  0
   64.2386   47.5432    7.3682 H   0  0  0  0  0  0  0  0  0  0  0  0
   63.8124   45.1629    6.9342 H   0  0  0  0  0  0  0  0  0  0  0  0
   62.5776   45.9298    7.9468 H   0  0  0  0  0  0  0  0  0  0  0  0
   63.7718   44.8505    8.6827 H   0  0  0  0  0  0  0  0  0  0  0  0
   66.2111   46.0547    6.9744 H   0  0  0  0  0  0  0  0  0  0  0  0
   66.2877   45.6464    8.6689 H   0  0  0  0  0  0  0  0  0  0  0  0
   66.2203   49.6175    5.6951 H   0  0  0  0  0  0  0  0  0  0  0  0
   65.8163   47.9693    5.8079 H   0  0  0  0  0  0  0  0  0  0  0  0
   67.7863   46.8365   10.0112 H   0  0  0  0  0  0  0  0  0  0  0  0
   69.4333   48.0694   11.3997 H   0  0  0  0  0  0  0  0  0  0  0  0
   69.0428   51.9133    8.3084 H   0  0  0  0  0  0  0  0  0  0  0  0
   70.5203   52.0681   10.2691 H   0  0  0  0  0  0  0  0  0  0  0  0
   73.7291   48.4435   12.8145 H   0  0  0  0  0  0  0  0  0  0  0  0
   73.8043   50.0170   14.7468 H   0  0  0  0  0  0  0  0  0  0  0  0
   71.9803   51.6978   14.9746 H   0  0  0  0  0  0  0  0  0  0  0  0
   69.1241   52.0452   12.5740 H   0  0  0  0  0  0  0  0  0  0  0  0
   70.2940   53.0866   13.3694 H   0  0  0  0  0  0  0  0  0  0  0  0
   69.3412   51.9074   14.3098 H   0  0  0  0  0  0  0  0  0  0  0  0
  1  2  1  0  0  0  0
  1 31  1  0  0  0  0
  1 32  1  0  0  0  0
  1 33  1  0  0  0  0
  2  3  1  0  0  0  0
  2  4  1  0  0  0  0
  2  5  1  0  0  0  0
  3 34  1  0  0  0  0
  3 35  1  0  0  0  0
  3 36  1  0  0  0  0
  4 37  1  0  0  0  0
  4 38  1  0  0  0  0
  4 39  1  0  0  0  0
  5  6  1  0  0  0  0
  5 40  1  0  0  0  0
  5 41  1  0  0  0  0
  6  7  1  0  0  0  0
  6 42  1  0  0  0  0
  6 43  1  0  0  0  0
  7  8  1  0  0  0  0
  7 44  1  0  0  0  0
  8  9  2  0  0  0  0
  8 10  1  0  0  0  0
 10 11  1  0  0  0  0
 10 12  1  0  0  0  0
 10 45  1  6  0  0  0
 11 46  1  0  0  0  0
 11 47  1  0  0  0  0
 11 48  1  0  0  0  0
 12 13  1  0  0  0  0
 12 49  1  0  0  0  0
 12 50  1  0  0  0  0
 13 14  2  0  0  0  0
 13 17  1  0  0  0  0
 14 15  1  0  0  0  0
 14 16  1  0  0  0  0
 15 20  2  0  0  0  0
 16 51  1  0  0  0  0
 16 52  1  0  0  0  0
 17 18  2  0  0  0  0
 17 53  1  0  0  0  0
 18 19  1  0  0  0  0
 18 20  1  0  0  0  0
 19 23  2  0  0  0  0
 19 54  1  0  0  0  0
 20 21  1  0  0  0  0
 21 22  2  0  0  0  0
 21 55  1  0  0  0  0
 22 23  1  0  0  0  0
 22 56  1  0  0  0  0
 23 24  1  0  0  0  0
 24 25  2  0  0  0  0
 24 29  1  0  0  0  0
 25 26  1  0  0  0  0
 26 27  2  0  0  0  0
 26 57  1  0  0  0  0
 27 28  1  0  0  0  0
 27 58  1  0  0  0  0
 28 29  2  0  0  0  0
 28 59  1  0  0  0  0
 29 30  1  0  0  0  0
 30 60  1  0  0  0  0
 30 61  1  0  0  0  0
 30 62  1  0  0  0  0
M  END
$$$$
