69G
 OpenBabel04161910363D

 46 48  0  0  0  0  0  0  0  0999 V2000
  -19.2236    3.2229    9.7365 C   0  0  0  0  0  0  0  0  0  0  0  0
  -19.1263    4.6403   11.7432 C   0  0  0  0  0  0  0  0  0  0  0  0
  -17.2762    4.6904   10.1140 C   0  0  0  0  0  0  0  0  0  0  0  0
  -16.5763    5.6411   10.7812 C   0  0  0  0  0  0  0  0  0  0  0  0
  -17.1478    6.1450   12.0014 C   0  0  0  0  0  0  0  0  0  0  0  0
  -16.7179    7.0883   12.9593 C   0  0  0  0  0  0  0  0  0  0  0  0
  -17.7158    7.1855   13.9085 C   0  0  0  0  0  0  0  0  0  0  0  0
  -18.3675    5.6550   12.4228 C   0  0  0  0  0  0  0  0  0  0  0  0
  -20.0767    3.9088    8.7047 C   0  0  0  0  0  0  0  0  0  0  0  0
  -21.1637    5.8498    7.5479 C   0  0  0  0  0  0  0  0  0  0  0  0
  -20.2889    5.2297    8.5806 C   0  0  0  0  0  0  0  0  0  0  0  0
  -18.5013    4.1761   10.5681 N   0  3  0  0  0  0  0  0  0  0  0  0
  -18.7178    6.3149   13.5677 N   0  3  0  0  0  0  0  0  0  0  0  0
  -20.2132    4.2455   12.1536 O   0  0  0  0  0  0  0  0  0  0  0  0
  -15.2996    6.1158   10.1796 C   0  0  0  0  0  0  0  0  0  0  0  0
  -14.3562    5.2075    9.6640 C   0  0  0  0  0  0  0  0  0  0  0  0
  -13.1342    5.6531    9.1477 C   0  0  0  0  0  0  0  0  0  0  0  0
  -12.8233    7.0079    9.1652 C   0  0  0  0  0  0  0  0  0  0  0  0
  -13.7421    7.9176    9.6970 C   0  0  0  0  0  0  0  0  0  0  0  0
  -14.9870    7.4809   10.1613 C   0  0  0  0  0  0  0  0  0  0  0  0
  -13.3718    9.3492    9.7561 C   0  0  0  0  0  0  0  0  0  0  0  0
  -13.1244    9.9158    8.6945 O   0  0  0  0  0  0  0  0  0  0  0  0
  -13.2957    9.9765   10.9993 N   0  0  0  0  0  0  0  0  0  0  0  0
  -12.9226   11.3789   11.0133 C   0  0  0  0  0  0  0  0  0  0  0  0
  -13.4405    9.3260   12.2937 C   0  0  0  0  0  0  0  0  0  0  0  0
  -18.5020    2.5606    9.2423 H   0  0  0  0  0  0  0  0  0  0  0  0
  -19.8612    2.5897   10.3674 H   0  0  0  0  0  0  0  0  0  0  0  0
  -16.9347    4.2889    9.1643 H   0  0  0  0  0  0  0  0  0  0  0  0
  -15.7972    7.6510   12.9700 H   0  0  0  0  0  0  0  0  0  0  0  0
  -17.7942    7.8009   14.7965 H   0  0  0  0  0  0  0  0  0  0  0  0
  -20.5766    3.2398    8.0091 H   0  0  0  0  0  0  0  0  0  0  0  0
  -21.1646    6.9389    7.6718 H   0  0  0  0  0  0  0  0  0  0  0  0
  -22.1942    5.5011    7.6528 H   0  0  0  0  0  0  0  0  0  0  0  0
  -20.7976    5.6278    6.5407 H   0  0  0  0  0  0  0  0  0  0  0  0
  -19.8167    5.9349    9.2698 H   0  0  0  0  0  0  0  0  0  0  0  0
  -19.5825    6.1626   14.0741 H   0  0  0  0  0  0  0  0  0  0  0  0
  -14.5554    4.1371    9.6694 H   0  0  0  0  0  0  0  0  0  0  0  0
  -12.4202    4.9380    8.7454 H   0  0  0  0  0  0  0  0  0  0  0  0
  -11.8678    7.3583    8.7799 H   0  0  0  0  0  0  0  0  0  0  0  0
  -15.6992    8.2183   10.5298 H   0  0  0  0  0  0  0  0  0  0  0  0
  -12.8693   11.7557   12.0391 H   0  0  0  0  0  0  0  0  0  0  0  0
  -13.6675   11.9530   10.4548 H   0  0  0  0  0  0  0  0  0  0  0  0
  -11.9469   11.4989   10.5323 H   0  0  0  0  0  0  0  0  0  0  0  0
  -13.6315    8.2569   12.2169 H   0  0  0  0  0  0  0  0  0  0  0  0
  -14.2685    9.8027   12.8259 H   0  0  0  0  0  0  0  0  0  0  0  0
  -12.5154    9.4575   12.8622 H   0  0  0  0  0  0  0  0  0  0  0  0
  1  9  1  0  0  0  0
  1 12  1  0  0  0  0
  1 26  1  0  0  0  0
  1 27  1  0  0  0  0
  2  8  1  0  0  0  0
  2 12  1  0  0  0  0
  2 14  2  0  0  0  0
  3  4  1  0  0  0  0
  3 12  2  0  0  0  0
  3 28  1  0  0  0  0
  4  5  2  0  0  0  0
  4 15  1  0  0  0  0
  5  6  1  0  0  0  0
  5  8  1  0  0  0  0
  6  7  2  0  0  0  0
  6 29  1  0  0  0  0
  7 13  1  0  0  0  0
  7 30  1  0  0  0  0
  8 13  2  0  0  0  0
  9 11  2  0  0  0  0
  9 31  1  0  0  0  0
 10 11  1  0  0  0  0
 10 32  1  0  0  0  0
 10 33  1  0  0  0  0
 10 34  1  0  0  0  0
 11 35  1  0  0  0  0
 13 36  1  0  0  0  0
 15 16  2  0  0  0  0
 15 20  1  0  0  0  0
 16 17  1  0  0  0  0
 16 37  1  0  0  0  0
 17 18  2  0  0  0  0
 17 38  1  0  0  0  0
 18 19  1  0  0  0  0
 18 39  1  0  0  0  0
 19 20  2  0  0  0  0
 19 21  1  0  0  0  0
 20 40  1  0  0  0  0
 21 22  2  0  0  0  0
 21 23  1  0  0  0  0
 23 24  1  0  0  0  0
 23 25  1  0  0  0  0
 24 41  1  0  0  0  0
 24 42  1  0  0  0  0
 24 43  1  0  0  0  0
 25 44  1  0  0  0  0
 25 45  1  0  0  0  0
 25 46  1  0  0  0  0
M  CHG  2  12   1  13   1
M  END
$$$$
