69G
 OpenBabel04161910373D

 46 48  0  0  0  0  0  0  0  0999 V2000
  -10.8121   -6.4258   11.9132 C   0  0  0  0  0  0  0  0  0  0  0  0
  -12.4955   -7.2151   10.3262 C   0  0  0  0  0  0  0  0  0  0  0  0
  -12.6399   -4.9220   11.1989 C   0  0  0  0  0  0  0  0  0  0  0  0
  -13.7343   -4.6144   10.4604 C   0  0  0  0  0  0  0  0  0  0  0  0
  -14.2647   -5.6261    9.5916 C   0  0  0  0  0  0  0  0  0  0  0  0
  -15.3531   -5.6558    8.6931 C   0  0  0  0  0  0  0  0  0  0  0  0
  -15.3553   -6.9040    8.1053 C   0  0  0  0  0  0  0  0  0  0  0  0
  -13.6466   -6.8533    9.5457 C   0  0  0  0  0  0  0  0  0  0  0  0
  -11.0682   -6.3670   13.3864 C   0  0  0  0  0  0  0  0  0  0  0  0
  -10.7258   -5.3086   15.6160 C   0  0  0  0  0  0  0  0  0  0  0  0
  -10.5486   -5.3895   14.1446 C   0  0  0  0  0  0  0  0  0  0  0  0
  -12.0304   -6.1880   11.1657 N   0  3  0  0  0  0  0  0  0  0  0  0
  -14.3122   -7.6266    8.6320 N   0  3  0  0  0  0  0  0  0  0  0  0
  -11.9643   -8.3234   10.2317 O   0  0  0  0  0  0  0  0  0  0  0  0
  -14.2444   -3.2284   10.5274 C   0  0  0  0  0  0  0  0  0  0  0  0
  -14.4230   -2.5570   11.7444 C   0  0  0  0  0  0  0  0  0  0  0  0
  -14.9050   -1.2480   11.7618 C   0  0  0  0  0  0  0  0  0  0  0  0
  -15.2059   -0.5971   10.5664 C   0  0  0  0  0  0  0  0  0  0  0  0
  -15.0196   -1.2507    9.3481 C   0  0  0  0  0  0  0  0  0  0  0  0
  -14.5654   -2.5690    9.3347 C   0  0  0  0  0  0  0  0  0  0  0  0
  -15.3668   -0.5367    8.1014 C   0  0  0  0  0  0  0  0  0  0  0  0
  -16.4486    0.0496    8.0778 O   0  0  0  0  0  0  0  0  0  0  0  0
  -14.4753   -0.5233    7.0286 N   0  0  0  0  0  0  0  0  0  0  0  0
  -14.8868    0.2165    5.8463 C   0  0  0  0  0  0  0  0  0  0  0  0
  -13.1312   -1.0855    7.0198 C   0  0  0  0  0  0  0  0  0  0  0  0
  -10.3792   -7.4006   11.6694 H   0  0  0  0  0  0  0  0  0  0  0  0
  -10.0786   -5.6692   11.6098 H   0  0  0  0  0  0  0  0  0  0  0  0
  -12.1627   -4.1884   11.8453 H   0  0  0  0  0  0  0  0  0  0  0  0
  -16.0603   -4.8663    8.4763 H   0  0  0  0  0  0  0  0  0  0  0  0
  -16.0149   -7.3337    7.3630 H   0  0  0  0  0  0  0  0  0  0  0  0
  -11.6517   -7.1686   13.8366 H   0  0  0  0  0  0  0  0  0  0  0  0
  -10.2164   -4.4176   15.9952 H   0  0  0  0  0  0  0  0  0  0  0  0
  -10.2886   -6.1844   16.1037 H   0  0  0  0  0  0  0  0  0  0  0  0
  -11.7859   -5.2319   15.8716 H   0  0  0  0  0  0  0  0  0  0  0  0
   -9.9576   -4.6082   13.6701 H   0  0  0  0  0  0  0  0  0  0  0  0
  -14.0618   -8.5786    8.3925 H   0  0  0  0  0  0  0  0  0  0  0  0
  -14.2050   -3.0498   12.6894 H   0  0  0  0  0  0  0  0  0  0  0  0
  -15.0513   -0.7351   12.7081 H   0  0  0  0  0  0  0  0  0  0  0  0
  -15.5885    0.4216   10.5808 H   0  0  0  0  0  0  0  0  0  0  0  0
  -14.4379   -3.0788    8.3825 H   0  0  0  0  0  0  0  0  0  0  0  0
  -14.1072    0.1945    5.0794 H   0  0  0  0  0  0  0  0  0  0  0  0
  -15.0958    1.2561    6.1205 H   0  0  0  0  0  0  0  0  0  0  0  0
  -15.8028   -0.2297    5.4470 H   0  0  0  0  0  0  0  0  0  0  0  0
  -12.8598   -1.5650    7.9569 H   0  0  0  0  0  0  0  0  0  0  0  0
  -12.4041   -0.2875    6.8535 H   0  0  0  0  0  0  0  0  0  0  0  0
  -13.0728   -1.8257    6.2161 H   0  0  0  0  0  0  0  0  0  0  0  0
  1  9  1  0  0  0  0
  1 12  1  0  0  0  0
  1 26  1  0  0  0  0
  1 27  1  0  0  0  0
  2  8  1  0  0  0  0
  2 12  1  0  0  0  0
  2 14  2  0  0  0  0
  3  4  1  0  0  0  0
  3 12  2  0  0  0  0
  3 28  1  0  0  0  0
  4  5  2  0  0  0  0
  4 15  1  0  0  0  0
  5  6  1  0  0  0  0
  5  8  1  0  0  0  0
  6  7  2  0  0  0  0
  6 29  1  0  0  0  0
  7 13  1  0  0  0  0
  7 30  1  0  0  0  0
  8 13  2  0  0  0  0
  9 11  2  0  0  0  0
  9 31  1  0  0  0  0
 10 11  1  0  0  0  0
 10 32  1  0  0  0  0
 10 33  1  0  0  0  0
 10 34  1  0  0  0  0
 11 35  1  0  0  0  0
 13 36  1  0  0  0  0
 15 16  2  0  0  0  0
 15 20  1  0  0  0  0
 16 17  1  0  0  0  0
 16 37  1  0  0  0  0
 17 18  2  0  0  0  0
 17 38  1  0  0  0  0
 18 19  1  0  0  0  0
 18 39  1  0  0  0  0
 19 20  2  0  0  0  0
 19 21  1  0  0  0  0
 20 40  1  0  0  0  0
 21 22  2  0  0  0  0
 21 23  1  0  0  0  0
 23 24  1  0  0  0  0
 23 25  1  0  0  0  0
 24 41  1  0  0  0  0
 24 42  1  0  0  0  0
 24 43  1  0  0  0  0
 25 44  1  0  0  0  0
 25 45  1  0  0  0  0
 25 46  1  0  0  0  0
M  CHG  2  12   1  13   1
M  END
$$$$
