6B5
 OpenBabel04161910403D

 33 35  0  0  0  0  0  0  0  0999 V2000
   21.8004  -10.0848    1.1342 C   0  0  0  0  0  0  0  0  0  0  0  0
   19.9458   -3.6089   -1.2299 O   0  0  0  0  0  0  0  0  0  0  0  0
   20.7927   -4.2181   -0.5886 C   0  0  0  0  0  0  0  0  0  0  0  0
   21.9426   -3.6658    0.2069 C   0  0  0  0  0  0  0  0  0  0  0  0
   22.7634   -4.6078    0.8615 C   0  0  0  0  0  0  0  0  0  0  0  0
   22.5603   -5.9710    0.8124 O   0  3  0  0  0  0  0  0  0  0  0  0
   21.5216   -6.4655    0.0491 C   0  0  0  0  0  0  0  0  0  0  0  0
   20.6592   -5.6922   -0.6173 C   0  0  0  0  0  0  0  0  0  0  0  0
   21.4312   -7.9439    0.0180 C   0  0  0  0  0  0  0  0  0  0  0  0
   21.7922   -8.6869    1.1559 C   0  0  0  0  0  0  0  0  0  0  0  0
   21.4458  -10.7518   -0.0292 C   0  0  0  0  0  0  0  0  0  0  0  0
   21.4830  -12.1165   -0.0311 O   0  0  0  0  0  0  0  0  0  0  0  0
   21.0640  -10.0348   -1.1581 C   0  0  0  0  0  0  0  0  0  0  0  0
   20.7111  -10.6878   -2.3055 O   0  0  0  0  0  0  0  0  0  0  0  0
   21.0495   -8.6426   -1.1434 C   0  0  0  0  0  0  0  0  0  0  0  0
   23.8711   -4.2063    1.6176 C   0  0  0  0  0  0  0  0  0  0  0  0
   24.1806   -2.8586    1.7150 C   0  0  0  0  0  0  0  0  0  0  0  0
   25.2726   -2.5237    2.4760 O   0  0  0  0  0  0  0  0  0  0  0  0
   25.9556   -1.3448    2.0464 C   0  0  0  0  0  0  0  0  0  0  0  0
   23.3468   -1.9320    1.0858 C   0  0  0  0  0  0  0  0  0  0  0  0
   22.2130   -2.2712    0.3100 C   0  0  0  0  0  0  0  0  0  0  0  0
   21.5305   -1.3299   -0.2259 O   0  0  0  0  0  0  0  0  0  0  0  0
   22.0854  -10.6413    2.0210 H   0  0  0  0  0  0  0  0  0  0  0  0
   19.8357   -6.0629   -1.2076 H   0  0  0  0  0  0  0  0  0  0  0  0
   22.0778   -8.1734    2.0724 H   0  0  0  0  0  0  0  0  0  0  0  0
   21.0718  -12.4058   -0.8634 H   0  0  0  0  0  0  0  0  0  0  0  0
   21.4983  -11.1812   -2.5945 H   0  0  0  0  0  0  0  0  0  0  0  0
   20.7755   -8.1083   -2.0497 H   0  0  0  0  0  0  0  0  0  0  0  0
   24.4939   -4.9442    2.1136 H   0  0  0  0  0  0  0  0  0  0  0  0
   26.7875   -1.1693    2.7359 H   0  0  0  0  0  0  0  0  0  0  0  0
   25.3325   -0.4462    2.0829 H   0  0  0  0  0  0  0  0  0  0  0  0
   26.3733   -1.4903    1.0444 H   0  0  0  0  0  0  0  0  0  0  0  0
   23.5354   -0.8666    1.1933 H   0  0  0  0  0  0  0  0  0  0  0  0
  1 10  2  0  0  0  0
  1 11  1  0  0  0  0
  1 23  1  0  0  0  0
  2  3  2  0  0  0  0
  3  4  1  0  0  0  0
  3  8  1  0  0  0  0
  4  5  2  0  0  0  0
  4 21  1  0  0  0  0
  5  6  1  0  0  0  0
  5 16  1  0  0  0  0
  6  7  1  0  0  0  0
  7  8  2  0  0  0  0
  7  9  1  0  0  0  0
  8 24  1  0  0  0  0
  9 10  1  0  0  0  0
  9 15  2  0  0  0  0
 10 25  1  0  0  0  0
 11 12  1  0  0  0  0
 11 13  2  0  0  0  0
 12 26  1  0  0  0  0
 13 14  1  0  0  0  0
 13 15  1  0  0  0  0
 14 27  1  0  0  0  0
 15 28  1  0  0  0  0
 16 17  2  0  0  0  0
 16 29  1  0  0  0  0
 17 18  1  0  0  0  0
 17 20  1  0  0  0  0
 18 19  1  0  0  0  0
 19 30  1  0  0  0  0
 19 31  1  0  0  0  0
 19 32  1  0  0  0  0
 20 21  2  0  0  0  0
 20 33  1  0  0  0  0
 21 22  1  0  0  0  0
M  CHG  1   6   1
M  END
$$$$
