6BF
 OpenBabel04161910403D

 66 70  0  0  0  0  0  0  0  0999 V2000
   -6.9463   -7.6138    5.2200 C   0  0  0  0  0  0  0  0  0  0  0  0
   -6.2962   -9.8290    5.3757 C   0  0  0  0  0  0  0  0  0  0  0  0
   -5.6202   -9.8054    4.1693 C   0  0  0  0  0  0  0  0  0  0  0  0
   -4.9298  -10.8708    3.6291 O   0  0  0  0  0  0  0  0  0  0  0  0
   -2.2595   -9.0397   -3.0694 C   0  0  0  0  0  0  0  0  0  0  0  0
   -1.5648  -10.2759   -2.9848 C   0  0  0  0  0  0  0  0  0  0  0  0
   -1.6652  -10.9562   -1.7649 C   0  0  0  0  0  0  0  0  0  0  0  0
   -2.4051  -10.4072   -0.6804 C   0  0  0  0  0  0  0  0  0  0  0  0
    0.1428  -11.8225   -3.9736 C   0  0  0  0  0  0  0  0  0  0  0  0
    0.3461  -12.5477   -5.3195 C   0  0  0  0  0  0  0  0  0  0  0  0
   -0.3404  -10.4856   -6.5303 C   0  0  0  0  0  0  0  0  0  0  0  0
   -0.6025   -9.8072   -5.1931 C   0  0  0  0  0  0  0  0  0  0  0  0
    0.8807  -12.2357   -7.7061 C   0  0  0  0  0  0  0  0  0  0  0  0
   -3.1032  -14.0582    4.4773 C   0  0  0  0  0  0  0  0  0  0  0  0
   -1.9627  -14.8645    3.8700 C   0  0  0  0  0  0  0  0  0  0  0  0
   -1.0346  -12.7683    2.8233 C   0  0  0  0  0  0  0  0  0  0  0  0
   -2.1286  -11.9482    3.5005 C   0  0  0  0  0  0  0  0  0  0  0  0
   -3.4188  -12.7652    3.7073 C   0  0  0  0  0  0  0  0  0  0  0  0
   -4.5221  -11.9577    4.4523 C   0  0  0  0  0  0  0  0  0  0  0  0
   -6.9452   -8.7650    5.9318 N   0  0  0  0  0  0  0  0  0  0  0  0
   -5.6415   -8.5937    3.4416 C   0  0  0  0  0  0  0  0  0  0  0  0
   -6.3124   -7.4816    4.0041 C   0  0  0  0  0  0  0  0  0  0  0  0
   -4.3436   -9.3169    1.3560 C   0  0  0  0  0  0  0  0  0  0  0  0
   -4.9852   -8.3758    2.1659 C   0  0  0  0  0  0  0  0  0  0  0  0
   -4.8438   -7.1756    1.4376 C   0  0  0  0  0  0  0  0  0  0  0  0
   -4.1688   -7.3175    0.2960 N   0  0  0  0  0  0  0  0  0  0  0  0
   -3.8388   -8.6322    0.2647 N   0  3  0  0  0  0  0  0  0  0  0  0
   -3.0648   -9.1674   -0.8155 C   0  0  0  0  0  0  0  0  0  0  0  0
   -2.9769   -8.4647   -2.0030 C   0  0  0  0  0  0  0  0  0  0  0  0
   -0.8773  -10.7698   -4.1051 N   0  0  0  0  0  0  0  0  0  0  0  0
    0.7135  -11.5528   -6.4000 N   0  3  0  0  0  0  0  0  0  0  0  0
   -0.7757  -14.0026    3.6112 N   0  3  0  0  0  0  0  0  0  0  0  0
   -7.5007   -6.7718    5.6518 H   0  0  0  0  0  0  0  0  0  0  0  0
   -6.3685  -10.7470    5.9596 H   0  0  0  0  0  0  0  0  0  0  0  0
   -2.2587   -8.4585   -3.9787 H   0  0  0  0  0  0  0  0  0  0  0  0
   -1.1988  -11.9234   -1.6052 H   0  0  0  0  0  0  0  0  0  0  0  0
   -2.4364  -10.9302    0.2670 H   0  0  0  0  0  0  0  0  0  0  0  0
    1.0991  -11.3816   -3.6684 H   0  0  0  0  0  0  0  0  0  0  0  0
   -0.1555  -12.5786   -3.2517 H   0  0  0  0  0  0  0  0  0  0  0  0
   -0.5780  -13.0392   -5.6545 H   0  0  0  0  0  0  0  0  0  0  0  0
    1.1563  -13.2803   -5.2692 H   0  0  0  0  0  0  0  0  0  0  0  0
    0.0149   -9.7647   -7.2729 H   0  0  0  0  0  0  0  0  0  0  0  0
   -1.2469  -10.9853   -6.9008 H   0  0  0  0  0  0  0  0  0  0  0  0
   -1.4576   -9.1742   -5.3952 H   0  0  0  0  0  0  0  0  0  0  0  0
    0.2588   -9.1838   -4.9251 H   0  0  0  0  0  0  0  0  0  0  0  0
    1.6519  -12.9944   -7.5891 H   0  0  0  0  0  0  0  0  0  0  0  0
    1.1634  -11.4841   -8.4421 H   0  0  0  0  0  0  0  0  0  0  0  0
   -0.0851  -12.6883   -7.9564 H   0  0  0  0  0  0  0  0  0  0  0  0
   -2.8581  -13.8113    5.5171 H   0  0  0  0  0  0  0  0  0  0  0  0
   -3.9963  -14.6952    4.4920 H   0  0  0  0  0  0  0  0  0  0  0  0
   -2.2572  -15.2973    2.9073 H   0  0  0  0  0  0  0  0  0  0  0  0
   -1.6415  -15.6608    4.5454 H   0  0  0  0  0  0  0  0  0  0  0  0
   -0.0930  -12.2158    2.7620 H   0  0  0  0  0  0  0  0  0  0  0  0
   -1.3342  -13.0840    1.8175 H   0  0  0  0  0  0  0  0  0  0  0  0
   -2.3292  -11.0740    2.8752 H   0  0  0  0  0  0  0  0  0  0  0  0
   -1.7587  -11.5891    4.4684 H   0  0  0  0  0  0  0  0  0  0  0  0
   -3.8034  -13.0263    2.7106 H   0  0  0  0  0  0  0  0  0  0  0  0
   -5.3721  -12.6255    4.6421 H   0  0  0  0  0  0  0  0  0  0  0  0
   -4.1152  -11.6035    5.4074 H   0  0  0  0  0  0  0  0  0  0  0  0
   -6.3289   -6.5059    3.5177 H   0  0  0  0  0  0  0  0  0  0  0  0
   -4.2600  -10.3735    1.4656 H   0  0  0  0  0  0  0  0  0  0  0  0
   -5.2300   -6.2027    1.7285 H   0  0  0  0  0  0  0  0  0  0  0  0
   -3.4718   -7.5051   -2.1572 H   0  0  0  0  0  0  0  0  0  0  0  0
   -0.3516  -13.7399    4.5126 H   0  0  0  0  0  0  0  0  0  0  0  0
    1.6069  -11.0941   -6.1312 H   0  0  0  0  0  0  0  0  0  0  0  0
   -0.0600  -14.5708    3.1209 H   0  0  0  0  0  0  0  0  0  0  0  0
  1 20  2  0  0  0  0
  1 22  1  0  0  0  0
  1 33  1  0  0  0  0
  2  3  2  0  0  0  0
  2 20  1  0  0  0  0
  2 34  1  0  0  0  0
  3  4  1  0  0  0  0
  3 21  1  0  0  0  0
  4 19  1  0  0  0  0
  5  6  2  0  0  0  0
  5 29  1  0  0  0  0
  5 35  1  0  0  0  0
  6  7  1  0  0  0  0
  6 30  1  0  0  0  0
  7  8  2  0  0  0  0
  7 36  1  0  0  0  0
  8 28  1  0  0  0  0
  8 37  1  0  0  0  0
  9 10  1  0  0  0  0
  9 30  1  0  0  0  0
  9 38  1  0  0  0  0
  9 39  1  0  0  0  0
 10 31  1  0  0  0  0
 10 40  1  0  0  0  0
 10 41  1  0  0  0  0
 11 12  1  0  0  0  0
 11 31  1  0  0  0  0
 11 42  1  0  0  0  0
 11 43  1  0  0  0  0
 12 30  1  0  0  0  0
 12 44  1  0  0  0  0
 12 45  1  0  0  0  0
 13 31  1  0  0  0  0
 13 46  1  0  0  0  0
 13 47  1  0  0  0  0
 13 48  1  0  0  0  0
 14 15  1  0  0  0  0
 14 18  1  0  0  0  0
 14 49  1  0  0  0  0
 14 50  1  0  0  0  0
 15 32  1  0  0  0  0
 15 51  1  0  0  0  0
 15 52  1  0  0  0  0
 16 17  1  0  0  0  0
 16 32  1  0  0  0  0
 16 53  1  0  0  0  0
 16 54  1  0  0  0  0
 17 18  1  0  0  0  0
 17 55  1  0  0  0  0
 17 56  1  0  0  0  0
 18 19  1  0  0  0  0
 18 57  1  0  0  0  0
 19 58  1  0  0  0  0
 19 59  1  0  0  0  0
 21 22  2  0  0  0  0
 21 24  1  0  0  0  0
 22 60  1  0  0  0  0
 23 24  1  0  0  0  0
 23 27  2  0  0  0  0
 23 61  1  0  0  0  0
 24 25  2  0  0  0  0
 25 26  1  0  0  0  0
 25 62  1  0  0  0  0
 26 27  1  0  0  0  0
 27 28  1  0  0  0  0
 28 29  2  0  0  0  0
 29 63  1  0  0  0  0
 31 65  1  0  0  0  0
 32 64  1  0  0  0  0
 32 66  1  0  0  0  0
M  CHG  3  27   1  31   1  32   1
M  END
$$$$
