6BS
 OpenBabel04161910393D

 60 62  0  0  0  0  0  0  0  0999 V2000
   65.1296   50.8532   10.3849 C   0  0  0  0  0  0  0  0  0  0  0  0
   64.2907   50.9203   11.6597 C   0  0  0  0  0  0  0  0  0  0  0  0
   64.2690   52.3951   12.1093 C   0  0  0  0  0  0  0  0  0  0  0  0
   64.9656   50.0834   12.7584 C   0  0  0  0  0  0  0  0  0  0  0  0
   62.8360   50.4417   11.3957 C   0  0  0  0  0  0  0  0  0  0  0  0
   62.6306   48.9519   11.0775 C   0  0  0  0  0  0  0  0  0  0  0  0
   63.1922   48.5057    9.8192 N   0  0  0  0  0  0  0  0  0  0  0  0
   63.6345   47.2011    9.6510 C   0  0  0  0  0  0  0  0  0  0  0  0
   63.6773   46.3849   10.5571 O   0  0  0  0  0  0  0  0  0  0  0  0
   64.0504   46.8452    8.2431 C   0  0  0  0  0  0  0  0  0  0  0  0
   65.5481   46.5872    8.1230 C   0  0  0  0  0  0  0  0  0  0  0  0
   66.4282   47.7806    8.3699 C   0  0  0  0  0  0  0  0  0  0  0  0
   66.3952   48.9347    7.5828 C   0  0  0  0  0  0  0  0  0  0  0  0
   67.1849   50.0033    7.7986 N   0  0  0  0  0  0  0  0  0  0  0  0
   65.4387   49.1036    6.5839 N   0  0  0  0  0  0  0  0  0  0  0  0
   67.3319   47.7591    9.4370 C   0  0  0  0  0  0  0  0  0  0  0  0
   68.1274   48.8691    9.7098 C   0  0  0  0  0  0  0  0  0  0  0  0
   68.9628   48.9030   10.8385 C   0  0  0  0  0  0  0  0  0  0  0  0
   68.0311   49.9773    8.8460 C   0  0  0  0  0  0  0  0  0  0  0  0
   68.8018   51.0862    9.1356 C   0  0  0  0  0  0  0  0  0  0  0  0
   69.6690   51.1080   10.2333 C   0  0  0  0  0  0  0  0  0  0  0  0
   69.7724   50.0089   11.1140 C   0  0  0  0  0  0  0  0  0  0  0  0
   70.6371   50.0929   12.3137 C   0  0  0  0  0  0  0  0  0  0  0  0
   70.6324   51.3123   13.0323 C   0  0  0  0  0  0  0  0  0  0  0  0
   71.4630   51.5379   14.1296 C   0  0  0  0  0  0  0  0  0  0  0  0
   72.3004   50.5269   14.5685 C   0  0  0  0  0  0  0  0  0  0  0  0
   72.3038   49.3010   13.9091 C   0  0  0  0  0  0  0  0  0  0  0  0
   71.4875   49.0601   12.7828 C   0  0  0  0  0  0  0  0  0  0  0  0
   71.6410   47.6936   12.1649 C   0  0  0  0  0  0  0  0  0  0  0  0
   66.1261   51.2710   10.5551 H   0  0  0  0  0  0  0  0  0  0  0  0
   64.6685   51.4111    9.5635 H   0  0  0  0  0  0  0  0  0  0  0  0
   65.2625   49.8225   10.0649 H   0  0  0  0  0  0  0  0  0  0  0  0
   63.6958   52.5246   13.0331 H   0  0  0  0  0  0  0  0  0  0  0  0
   63.8246   53.0371   11.3408 H   0  0  0  0  0  0  0  0  0  0  0  0
   65.2858   52.7629   12.2962 H   0  0  0  0  0  0  0  0  0  0  0  0
   65.0501   49.0298   12.4747 H   0  0  0  0  0  0  0  0  0  0  0  0
   64.4000   50.1383   13.6960 H   0  0  0  0  0  0  0  0  0  0  0  0
   65.9814   50.4413   12.9604 H   0  0  0  0  0  0  0  0  0  0  0  0
   62.3964   51.0435   10.5918 H   0  0  0  0  0  0  0  0  0  0  0  0
   62.2433   50.6571   12.2956 H   0  0  0  0  0  0  0  0  0  0  0  0
   61.5514   48.7604   11.0050 H   0  0  0  0  0  0  0  0  0  0  0  0
   62.9985   48.3259   11.8985 H   0  0  0  0  0  0  0  0  0  0  0  0
   63.1520   49.1162    9.0107 H   0  0  0  0  0  0  0  0  0  0  0  0
   63.7004   47.6038    7.5388 H   0  0  0  0  0  0  0  0  0  0  0  0
   63.5135   45.9264    7.9798 H   0  0  0  0  0  0  0  0  0  0  0  0
   65.7787   46.2049    7.1241 H   0  0  0  0  0  0  0  0  0  0  0  0
   65.8307   45.7784    8.8150 H   0  0  0  0  0  0  0  0  0  0  0  0
   65.6660   49.9646    6.0900 H   0  0  0  0  0  0  0  0  0  0  0  0
   65.3736   48.3112    5.9641 H   0  0  0  0  0  0  0  0  0  0  0  0
   67.3825   46.8838   10.0842 H   0  0  0  0  0  0  0  0  0  0  0  0
   68.9545   48.0578   11.5216 H   0  0  0  0  0  0  0  0  0  0  0  0
   68.7095   51.9723    8.5105 H   0  0  0  0  0  0  0  0  0  0  0  0
   70.2504   52.0041   10.4041 H   0  0  0  0  0  0  0  0  0  0  0  0
   69.9661   52.1233   12.7344 H   0  0  0  0  0  0  0  0  0  0  0  0
   71.4460   52.5046   14.6319 H   0  0  0  0  0  0  0  0  0  0  0  0
   72.9523   50.6930   15.4209 H   0  0  0  0  0  0  0  0  0  0  0  0
   72.9680   48.5153   14.2789 H   0  0  0  0  0  0  0  0  0  0  0  0
   71.0393   47.5253   11.2733 H   0  0  0  0  0  0  0  0  0  0  0  0
   71.3649   46.9268   12.8991 H   0  0  0  0  0  0  0  0  0  0  0  0
   72.6813   47.5341   11.8670 H   0  0  0  0  0  0  0  0  0  0  0  0
  1  2  1  0  0  0  0
  1 30  1  0  0  0  0
  1 31  1  0  0  0  0
  1 32  1  0  0  0  0
  2  3  1  0  0  0  0
  2  4  1  0  0  0  0
  2  5  1  0  0  0  0
  3 33  1  0  0  0  0
  3 34  1  0  0  0  0
  3 35  1  0  0  0  0
  4 36  1  0  0  0  0
  4 37  1  0  0  0  0
  4 38  1  0  0  0  0
  5  6  1  0  0  0  0
  5 39  1  0  0  0  0
  5 40  1  0  0  0  0
  6  7  1  0  0  0  0
  6 41  1  0  0  0  0
  6 42  1  0  0  0  0
  7  8  1  0  0  0  0
  7 43  1  0  0  0  0
  8  9  2  0  0  0  0
  8 10  1  0  0  0  0
 10 11  1  0  0  0  0
 10 44  1  0  0  0  0
 10 45  1  0  0  0  0
 11 12  1  0  0  0  0
 11 46  1  0  0  0  0
 11 47  1  0  0  0  0
 12 13  2  0  0  0  0
 12 16  1  0  0  0  0
 13 14  1  0  0  0  0
 13 15  1  0  0  0  0
 14 19  2  0  0  0  0
 15 48  1  0  0  0  0
 15 49  1  0  0  0  0
 16 17  2  0  0  0  0
 16 50  1  0  0  0  0
 17 18  1  0  0  0  0
 17 19  1  0  0  0  0
 18 22  2  0  0  0  0
 18 51  1  0  0  0  0
 19 20  1  0  0  0  0
 20 21  2  0  0  0  0
 20 52  1  0  0  0  0
 21 22  1  0  0  0  0
 21 53  1  0  0  0  0
 22 23  1  0  0  0  0
 23 24  2  0  0  0  0
 23 28  1  0  0  0  0
 24 25  1  0  0  0  0
 24 54  1  0  0  0  0
 25 26  2  0  0  0  0
 25 55  1  0  0  0  0
 26 27  1  0  0  0  0
 26 56  1  0  0  0  0
 27 28  2  0  0  0  0
 27 57  1  0  0  0  0
 28 29  1  0  0  0  0
 29 58  1  0  0  0  0
 29 59  1  0  0  0  0
 29 60  1  0  0  0  0
M  END
$$$$
