6C4
 OpenBabel04161910413D

 35 36  0  0  0  0  0  0  0  0999 V2000
   28.8038   15.6272   -1.8826 C   0  0  0  0  0  0  0  0  0  0  0  0
   30.8857   16.6345   -2.6726 C   0  0  0  0  0  0  0  0  0  0  0  0
   28.3216   14.2680   -1.4545 C   0  0  0  0  0  0  0  0  0  0  0  0
   27.2926   12.1746   -2.1573 C   0  0  0  0  0  0  0  0  0  0  0  0
   27.8539   10.9742   -2.8916 C   0  0  0  0  0  0  0  0  0  0  0  0
   28.4494    9.8280   -4.8650 C   0  0  0  0  0  0  0  0  0  0  0  0
   26.9259    9.7583   -2.9462 C   0  0  0  0  0  0  0  0  0  0  0  0
   28.1812   13.9773   -0.2601 O   0  0  0  0  0  0  0  0  0  0  0  0
   29.4585   16.3537   -0.7196 C   0  0  0  0  0  0  0  0  0  0  0  0
   29.8988   15.5032   -2.9308 C   0  0  0  0  0  0  0  0  0  0  0  0
   30.4562   17.2869   -1.3703 C   0  0  0  0  0  0  0  0  0  0  0  0
   27.9808   13.4102   -2.4666 N   0  0  0  0  0  0  0  0  0  0  0  0
   27.4640    8.9343   -4.1148 C   0  0  0  0  0  0  0  0  0  0  0  0
   28.2198   11.2313   -4.3439 C   0  0  0  0  0  0  0  0  0  0  0  0
   27.9579   16.2182   -2.2594 H   0  0  0  0  0  0  0  0  0  0  0  0
   30.8672   17.3473   -3.4953 H   0  0  0  0  0  0  0  0  0  0  0  0
   31.8940   16.2248   -2.5992 H   0  0  0  0  0  0  0  0  0  0  0  0
   27.3810   11.9706   -1.0846 H   0  0  0  0  0  0  0  0  0  0  0  0
   26.2343   12.3420   -2.3769 H   0  0  0  0  0  0  0  0  0  0  0  0
   28.7645   10.6662   -2.3654 H   0  0  0  0  0  0  0  0  0  0  0  0
   28.3070    9.7740   -5.9454 H   0  0  0  0  0  0  0  0  0  0  0  0
   29.4758    9.5197   -4.6330 H   0  0  0  0  0  0  0  0  0  0  0  0
   25.8770   10.0258   -3.1267 H   0  0  0  0  0  0  0  0  0  0  0  0
   26.9613    9.1848   -2.0132 H   0  0  0  0  0  0  0  0  0  0  0  0
   29.9730   15.6630   -0.0377 H   0  0  0  0  0  0  0  0  0  0  0  0
   28.7277   16.9008   -0.1164 H   0  0  0  0  0  0  0  0  0  0  0  0
   29.4822   15.5710   -3.9485 H   0  0  0  0  0  0  0  0  0  0  0  0
   30.4046   14.5314   -2.8736 H   0  0  0  0  0  0  0  0  0  0  0  0
   29.9750   18.2472   -1.5787 H   0  0  0  0  0  0  0  0  0  0  0  0
   31.3135   17.4630   -0.7162 H   0  0  0  0  0  0  0  0  0  0  0  0
   28.1983   13.6560   -3.4274 H   0  0  0  0  0  0  0  0  0  0  0  0
   27.9689    8.0318   -3.7542 H   0  0  0  0  0  0  0  0  0  0  0  0
   26.6511    8.6201   -4.7762 H   0  0  0  0  0  0  0  0  0  0  0  0
   29.1272   11.8395   -4.4245 H   0  0  0  0  0  0  0  0  0  0  0  0
   27.4181   11.7340   -4.8985 H   0  0  0  0  0  0  0  0  0  0  0  0
  1  3  1  0  0  0  0
  1  9  1  0  0  0  0
  1 10  1  0  0  0  0
  1 15  1  0  0  0  0
  2 10  1  0  0  0  0
  2 11  1  0  0  0  0
  2 16  1  0  0  0  0
  2 17  1  0  0  0  0
  3  8  2  0  0  0  0
  3 12  1  0  0  0  0
  4  5  1  0  0  0  0
  4 12  1  0  0  0  0
  4 18  1  0  0  0  0
  4 19  1  0  0  0  0
  5  7  1  0  0  0  0
  5 14  1  0  0  0  0
  5 20  1  0  0  0  0
  6 13  1  0  0  0  0
  6 14  1  0  0  0  0
  6 21  1  0  0  0  0
  6 22  1  0  0  0  0
  7 13  1  0  0  0  0
  7 23  1  0  0  0  0
  7 24  1  0  0  0  0
  9 11  1  0  0  0  0
  9 25  1  0  0  0  0
  9 26  1  0  0  0  0
 10 27  1  0  0  0  0
 10 28  1  0  0  0  0
 11 29  1  0  0  0  0
 11 30  1  0  0  0  0
 12 31  1  0  0  0  0
 13 32  1  0  0  0  0
 13 33  1  0  0  0  0
 14 34  1  0  0  0  0
 14 35  1  0  0  0  0
M  END
$$$$
