6CD
 OpenBabel04161910413D

 51 54  0  0  1  0  0  0  0  0999 V2000
  -22.5681  -30.8067   -2.4120 C   0  0  0  0  0  0  0  0  0  0  0  0
  -21.5004  -31.2836   -1.4700 C   0  0  1  0  0  0  0  0  0  0  0  0
  -21.2901  -30.3297   -0.3963 N   0  0  0  0  0  0  0  0  0  0  0  0
  -21.4512  -30.8756    0.8860 C   0  0  0  0  0  0  0  0  0  0  0  0
  -21.3314  -30.3175    1.9489 O   0  0  0  0  0  0  0  0  0  0  0  0
  -21.8200  -32.2553    0.6786 C   0  0  2  0  0  0  0  0  0  0  0  0
  -22.1528  -33.4602    1.3181 C   0  0  0  0  0  0  0  0  0  0  0  0
  -22.3878  -34.4138    0.3286 C   0  0  2  0  0  0  0  0  0  0  0  0
  -22.1907  -33.7400   -0.8847 N   0  3  0  0  0  0  0  0  0  0  0  0
  -21.8555  -32.4567   -0.6475 C   0  0  2  0  0  0  0  0  0  0  0  0
  -22.8021  -35.8161    0.4800 C   0  0  2  0  0  0  0  0  0  0  0  0
  -23.0110  -36.3710    1.7954 C   0  0  0  0  0  0  0  0  0  0  0  0
  -23.4142  -37.7037    1.9172 C   0  0  0  0  0  0  0  0  0  0  0  0
  -23.5958  -38.4600    0.7552 C   0  0  0  0  0  0  0  0  0  0  0  0
  -23.3836  -37.9153   -0.5286 C   0  0  1  0  0  0  0  0  0  0  0  0
  -23.5826  -38.7116   -1.7451 C   0  0  0  0  0  0  0  0  0  0  0  0
  -23.9359  -39.8719   -1.6237 O   0  0  0  0  0  0  0  0  0  0  0  0
  -23.3669  -38.1455   -3.0418 N   0  0  0  0  0  0  0  0  0  0  0  0
  -23.5878  -38.9891   -4.2190 C   0  0  0  0  0  0  0  0  0  0  0  0
  -22.9891  -36.8783   -3.1786 C   0  0  2  0  0  0  0  0  0  0  0  0
  -22.7636  -36.3266   -4.4131 N   0  0  0  0  0  0  0  0  0  0  0  0
  -22.4563  -34.9109   -4.7441 C   0  0  0  0  0  0  0  0  0  0  0  0
  -21.0815  -34.5312   -4.2040 C   0  0  0  0  0  0  0  0  0  0  0  0
  -23.5480  -33.9859   -4.2270 C   0  0  0  0  0  0  0  0  0  0  0  0
  -22.4200  -34.7585   -6.2667 C   0  0  0  0  0  0  0  0  0  0  0  0
  -22.8058  -36.1679   -2.0438 N   0  0  0  0  0  0  0  0  0  0  0  0
  -22.9888  -36.6173   -0.6891 C   0  0  1  0  0  0  0  0  0  0  0  0
  -22.7399  -31.5603   -3.1746 H   0  0  0  0  0  0  0  0  0  0  0  0
  -22.2408  -29.8870   -2.9101 H   0  0  0  0  0  0  0  0  0  0  0  0
  -23.5146  -30.6026   -1.8998 H   0  0  0  0  0  0  0  0  0  0  0  0
  -20.5559  -31.4372   -1.9855 H   0  0  0  0  0  0  0  0  0  0  0  0
  -21.0245  -29.3620   -0.5384 H   0  0  0  0  0  0  0  0  0  0  0  0
  -22.2375  -33.6634    2.3785 H   0  0  0  0  0  0  0  0  0  0  0  0
  -22.2654  -33.9877   -1.8010 H   0  0  0  0  0  0  0  0  0  0  0  0
  -22.8793  -35.7990    2.7323 H   0  0  0  0  0  0  0  0  0  0  0  0
  -23.5943  -38.1575    2.8950 H   0  0  0  0  0  0  0  0  0  0  0  0
  -23.9120  -39.4934    0.8437 H   0  0  0  0  0  0  0  0  0  0  0  0
  -23.8960  -39.9906   -3.9249 H   0  0  0  0  0  0  0  0  0  0  0  0
  -22.6567  -39.0607   -4.7920 H   0  0  0  0  0  0  0  0  0  0  0  0
  -24.3696  -38.5466   -4.8449 H   0  0  0  0  0  0  0  0  0  0  0  0
  -22.8176  -36.9210   -5.2355 H   0  0  0  0  0  0  0  0  0  0  0  0
  -20.8465  -33.4843   -4.4106 H   0  0  0  0  0  0  0  0  0  0  0  0
  -20.3119  -35.1700   -4.6452 H   0  0  0  0  0  0  0  0  0  0  0  0
  -21.0199  -34.6788   -3.1311 H   0  0  0  0  0  0  0  0  0  0  0  0
  -23.3171  -32.9465   -4.4645 H   0  0  0  0  0  0  0  0  0  0  0  0
  -23.6680  -34.0739   -3.1520 H   0  0  0  0  0  0  0  0  0  0  0  0
  -24.5118  -34.2383   -4.6765 H   0  0  0  0  0  0  0  0  0  0  0  0
  -22.2005  -33.7230   -6.5501 H   0  0  0  0  0  0  0  0  0  0  0  0
  -23.3864  -35.0450   -6.6966 H   0  0  0  0  0  0  0  0  0  0  0  0
  -21.6502  -35.4130   -6.6889 H   0  0  0  0  0  0  0  0  0  0  0  0
  -22.4779  -35.2912   -2.2634 H   0  0  0  0  0  0  0  0  0  0  0  0
  1  2  1  0  0  0  0
  1 28  1  0  0  0  0
  1 29  1  0  0  0  0
  1 30  1  0  0  0  0
  2  3  1  0  0  0  0
  2 10  1  0  0  0  0
  2 31  1  6  0  0  0
  3  4  1  0  0  0  0
  3 32  1  0  0  0  0
  4  5  2  0  0  0  0
  6  4  1  1  0  0  0
  6  7  1  0  0  0  0
  6 10  1  0  0  0  0
  7 33  1  0  0  0  0
  8  7  1  1  0  0  0
  8  9  1  0  0  0  0
  8 11  1  0  0  0  0
  9 34  1  0  0  0  0
 10  9  1  1  0  0  0
 11 12  1  1  0  0  0
 11 27  1  0  0  0  0
 12 13  1  0  0  0  0
 12 35  1  0  0  0  0
 13 14  1  0  0  0  0
 13 36  1  0  0  0  0
 14 37  1  0  0  0  0
 15 14  1  6  0  0  0
 15 16  1  0  0  0  0
 15 27  1  0  0  0  0
 16 17  2  0  0  0  0
 16 18  1  0  0  0  0
 18 19  1  0  0  0  0
 18 20  1  0  0  0  0
 19 38  1  0  0  0  0
 19 39  1  0  0  0  0
 19 40  1  0  0  0  0
 20 21  1  1  0  0  0
 20 26  1  0  0  0  0
 21 22  1  0  0  0  0
 21 41  1  0  0  0  0
 22 23  1  0  0  0  0
 22 24  1  0  0  0  0
 22 25  1  0  0  0  0
 23 42  1  0  0  0  0
 23 43  1  0  0  0  0
 23 44  1  0  0  0  0
 24 45  1  0  0  0  0
 24 46  1  0  0  0  0
 24 47  1  0  0  0  0
 25 48  1  0  0  0  0
 25 49  1  0  0  0  0
 25 50  1  0  0  0  0
 26 51  1  0  0  0  0
 27 26  1  6  0  0  0
M  CHG  1   9   1
M  END
$$$$
