6CE
 OpenBabel04161910413D

 58 62  0  0  1  0  0  0  0  0999 V2000
  -29.6943    6.8797  -28.4235 C   0  0  2  0  0  0  0  0  0  0  0  0
  -29.1900    4.1986  -25.8796 C   0  0  0  0  0  0  0  0  0  0  0  0
  -28.7549    5.2044  -26.9368 C   0  0  2  0  0  0  0  0  0  0  0  0
  -32.2114    7.7927  -24.2161 C   0  0  0  0  0  0  0  0  0  0  0  0
  -34.0791    8.5844  -22.5224 C   0  0  1  0  0  0  0  0  0  0  0  0
  -32.3098    5.3719  -23.8062 N   0  0  0  0  0  0  0  0  0  0  0  0
  -31.5351    3.8567  -23.9383 P   0  0  1  0  0  0  0  0  0  0  0  0
  -30.2928    3.8877  -23.0927 O   0  0  0  0  0  0  0  0  0  0  0  0
  -32.6187    2.8300  -23.7839 O   0  0  0  0  0  0  0  0  0  0  0  0
  -30.9516    3.7998  -25.9482 S   0  0  0  0  0  0  0  0  0  0  0  0
  -29.4773    6.5663  -26.9398 C   0  0  1  0  0  0  0  0  0  0  0  0
  -28.8855    5.7959  -29.1245 C   0  0  1  0  0  0  0  0  0  0  0  0
  -28.8704    4.6594  -28.2651 O   0  0  0  0  0  0  0  0  0  0  0  0
  -29.3517    5.4101  -30.4318 N   0  3  1  0  0  0  0  0  0  0  0  0
  -30.6506    5.1817  -30.8194 C   0  0  0  0  0  0  0  0  0  0  0  0
  -30.7402    4.9145  -32.1107 N   0  0  0  0  0  0  0  0  0  0  0  0
  -29.4508    4.9395  -32.5668 C   0  0  2  0  0  0  0  0  0  0  0  0
  -28.5843    5.2529  -31.5413 C   0  0  1  0  0  0  0  0  0  0  0  0
  -27.2550    5.3679  -31.6868 N   0  3  0  0  0  0  0  0  0  0  0  0
  -26.6835    5.1402  -32.9078 C   0  0  0  0  0  0  0  0  0  0  0  0
  -27.5078    4.8235  -33.9697 N   0  3  0  0  0  0  0  0  0  0  0  0
  -28.9000    4.7067  -33.8962 C   0  0  0  0  0  0  0  0  0  0  0  0
  -25.4133    5.2161  -33.0740 N   0  0  0  0  0  0  0  0  0  0  0  0
  -29.5621    4.4356  -34.8950 O   0  0  0  0  0  0  0  0  0  0  0  0
  -28.7182    7.5800  -26.2781 O   0  0  0  0  0  0  0  0  0  0  0  0
  -29.2997    8.1889  -28.8342 O   0  0  0  0  0  0  0  0  0  0  0  0
  -31.5909    6.5956  -23.4842 C   0  0  0  0  0  0  0  0  0  0  0  0
  -33.6177    8.1357  -23.8032 C   0  0  1  0  0  0  0  0  0  0  0  0
  -34.7279    8.0920  -24.6284 C   0  0  0  0  0  0  0  0  0  0  0  0
  -35.4627    8.7788  -22.6100 C   0  0  1  0  0  0  0  0  0  0  0  0
  -35.8219    8.4579  -23.8958 N   0  3  0  0  0  0  0  0  0  0  0  0
  -33.4526    8.8384  -21.2830 C   0  0  0  0  0  0  0  0  0  0  0  0
  -34.2170    9.2670  -20.1919 C   0  0  0  0  0  0  0  0  0  0  0  0
  -35.5907    9.4504  -20.3130 C   0  0  0  0  0  0  0  0  0  0  0  0
  -36.2446    9.2129  -21.5291 C   0  0  0  0  0  0  0  0  0  0  0  0
  -30.7638    6.7816  -28.6437 H   0  0  0  0  0  0  0  0  0  0  0  0
  -28.9221    4.6001  -24.9007 H   0  0  0  0  0  0  0  0  0  0  0  0
  -28.6494    3.2574  -26.0227 H   0  0  0  0  0  0  0  0  0  0  0  0
  -27.6808    5.3751  -26.7812 H   0  0  0  0  0  0  0  0  0  0  0  0
  -32.2023    7.5927  -25.2952 H   0  0  0  0  0  0  0  0  0  0  0  0
  -31.5790    8.6755  -24.0607 H   0  0  0  0  0  0  0  0  0  0  0  0
  -33.3169    5.3214  -23.6727 H   0  0  0  0  0  0  0  0  0  0  0  0
  -30.4485    6.5188  -26.4429 H   0  0  0  0  0  0  0  0  0  0  0  0
  -27.8469    6.1358  -29.2321 H   0  0  0  0  0  0  0  0  0  0  0  0
  -31.4868    5.2305  -30.1308 H   0  0  0  0  0  0  0  0  0  0  0  0
  -26.5962    5.5521  -30.9379 H   0  0  0  0  0  0  0  0  0  0  0  0
  -27.1233    4.6536  -34.8827 H   0  0  0  0  0  0  0  0  0  0  0  0
  -25.1531    5.0121  -34.0409 H   0  0  0  0  0  0  0  0  0  0  0  0
  -27.8202    7.6054  -26.6382 H   0  0  0  0  0  0  0  0  0  0  0  0
  -28.3851    8.3487  -28.5526 H   0  0  0  0  0  0  0  0  0  0  0  0
  -31.5931    6.7589  -22.4025 H   0  0  0  0  0  0  0  0  0  0  0  0
  -30.5458    6.4962  -23.7967 H   0  0  0  0  0  0  0  0  0  0  0  0
  -34.8216    7.8112  -25.6686 H   0  0  0  0  0  0  0  0  0  0  0  0
  -36.7699    8.4851  -24.2503 H   0  0  0  0  0  0  0  0  0  0  0  0
  -32.3849    8.6871  -21.1724 H   0  0  0  0  0  0  0  0  0  0  0  0
  -33.7273    9.4480  -19.2386 H   0  0  0  0  0  0  0  0  0  0  0  0
  -36.1660    9.7740  -19.4506 H   0  0  0  0  0  0  0  0  0  0  0  0
  -37.3152    9.3447  -21.6162 H   0  0  0  0  0  0  0  0  0  0  0  0
  1 11  1  0  0  0  0
  1 12  1  0  0  0  0
  1 26  1  0  0  0  0
  1 36  1  6  0  0  0
  2  3  1  0  0  0  0
  2 10  1  0  0  0  0
  2 37  1  0  0  0  0
  2 38  1  0  0  0  0
  3 11  1  0  0  0  0
  3 13  1  0  0  0  0
  3 39  1  1  0  0  0
  4 27  1  0  0  0  0
  4 40  1  0  0  0  0
  4 41  1  0  0  0  0
  5 28  1  0  0  0  0
  5 30  1  0  0  0  0
  5 32  1  1  0  0  0
  6 27  1  0  0  0  0
  6 42  1  0  0  0  0
  7  6  1  1  0  0  0
  7  8  2  0  0  0  0
  7  9  1  0  0  0  0
  7 10  1  0  0  0  0
 11 25  1  0  0  0  0
 11 43  1  1  0  0  0
 12 13  1  0  0  0  0
 12 14  1  0  0  0  0
 12 44  1  6  0  0  0
 14 15  1  6  0  0  0
 14 18  1  0  0  0  0
 15 16  1  0  0  0  0
 15 45  1  0  0  0  0
 17 16  1  6  0  0  0
 17 18  1  0  0  0  0
 17 22  1  0  0  0  0
 18 19  1  6  0  0  0
 19 20  1  0  0  0  0
 19 46  1  0  0  0  0
 20 21  1  0  0  0  0
 20 23  2  0  0  0  0
 21 22  1  0  0  0  0
 21 47  1  0  0  0  0
 22 24  2  0  0  0  0
 23 48  1  0  0  0  0
 25 49  1  0  0  0  0
 26 50  1  0  0  0  0
 27 51  1  0  0  0  0
 27 52  1  0  0  0  0
 28  4  1  6  0  0  0
 28 29  1  0  0  0  0
 29 31  1  0  0  0  0
 29 53  1  0  0  0  0
 30 31  1  1  0  0  0
 30 35  1  0  0  0  0
 31 54  1  0  0  0  0
 32 33  1  0  0  0  0
 32 55  1  0  0  0  0
 33 34  1  0  0  0  0
 33 56  1  0  0  0  0
 34 35  1  0  0  0  0
 34 57  1  0  0  0  0
 35 58  1  0  0  0  0
M  CHG  4  14   1  19   1  21   1  31   1
M  END
$$$$
