6DB
 OpenBabel04161910423D

 35 34  0  0  1  0  0  0  0  0999 V2000
  -14.1126   80.5985   -1.0982 O   0  0  0  0  0  0  0  0  0  0  0  0
  -14.9514   81.2556   -0.4091 C   0  0  0  0  0  0  0  0  0  0  0  0
  -16.0824   80.3709    0.2000 C   0  0  1  0  0  0  0  0  0  0  0  0
  -17.2980   80.4174   -0.6993 C   0  0  0  0  0  0  0  0  0  0  0  0
  -15.7441   78.9307    0.4029 N   0  3  0  0  0  0  0  0  0  0  0  0
  -14.4755   78.6259    1.1891 C   0  0  2  0  0  0  0  0  0  0  0  0
  -14.3440   77.1007    1.4699 C   0  0  0  0  0  0  0  0  0  0  0  0
  -15.3727   76.4546    1.0893 O   0  0  0  0  0  0  0  0  0  0  0  0
  -13.3410   76.7476    2.1348 O   0  0  0  0  0  0  0  0  0  0  0  0
  -14.4437   79.3761    2.5371 C   0  0  0  0  0  0  0  0  0  0  0  0
  -15.5858   78.9885    3.4819 C   0  0  0  0  0  0  0  0  0  0  0  0
  -15.5487   79.6624    4.8536 C   0  0  0  0  0  0  0  0  0  0  0  0
  -16.8988   79.5982    5.4762 N   0  0  0  0  0  0  0  0  0  0  0  0
  -17.2776   80.2741    6.5658 C   0  0  0  0  0  0  0  0  0  0  0  0
  -18.5451   80.1641    7.0161 N   0  0  0  0  0  0  0  0  0  0  0  0
  -16.4412   81.0613    7.2359 N   0  0  0  0  0  0  0  0  0  0  0  0
  -14.9858   82.4579   -0.0651 O   0  0  0  0  0  0  0  0  0  0  0  0
  -16.3690   80.7503    1.1852 H   0  0  0  0  0  0  0  0  0  0  0  0
  -18.1037   79.7903   -0.2981 H   0  0  0  0  0  0  0  0  0  0  0  0
  -17.0602   80.0635   -1.7076 H   0  0  0  0  0  0  0  0  0  0  0  0
  -17.6695   81.4418   -0.7673 H   0  0  0  0  0  0  0  0  0  0  0  0
  -16.4882   78.3394    0.7891 H   0  0  0  0  0  0  0  0  0  0  0  0
  -13.6310   78.9353    0.5713 H   0  0  0  0  0  0  0  0  0  0  0  0
  -14.4673   80.4603    2.3672 H   0  0  0  0  0  0  0  0  0  0  0  0
  -13.4854   79.1731    3.0261 H   0  0  0  0  0  0  0  0  0  0  0  0
  -15.5715   77.9064    3.6438 H   0  0  0  0  0  0  0  0  0  0  0  0
  -16.5377   79.2361    3.0039 H   0  0  0  0  0  0  0  0  0  0  0  0
  -15.2564   80.7129    4.7612 H   0  0  0  0  0  0  0  0  0  0  0  0
  -14.8499   79.1375    5.5151 H   0  0  0  0  0  0  0  0  0  0  0  0
  -17.5850   79.0033    5.0198 H   0  0  0  0  0  0  0  0  0  0  0  0
  -18.8594   80.6575    7.8359 H   0  0  0  0  0  0  0  0  0  0  0  0
  -15.4758   81.1270    6.9322 H   0  0  0  0  0  0  0  0  0  0  0  0
  -16.6928   81.5196    8.1032 H   0  0  0  0  0  0  0  0  0  0  0  0
  -15.5373   78.5221   -0.5225 H   0  0  0  0  0  0  0  0  0  0  0  0
  -19.2564   79.6332    6.5273 H   0  0  0  0  0  0  0  0  0  0  0  0
  1  2  2  0  0  0  0
  2  3  1  0  0  0  0
  2 17  1  0  0  0  0
  3  4  1  0  0  0  0
  3  5  1  0  0  0  0
  3 18  1  1  0  0  0
  4 19  1  0  0  0  0
  4 20  1  0  0  0  0
  4 21  1  0  0  0  0
  5  6  1  0  0  0  0
  5 22  1  0  0  0  0
  5 34  1  0  0  0  0
  6  7  1  0  0  0  0
  6 10  1  0  0  0  0
  6 23  1  6  0  0  0
  7  8  2  0  0  0  0
  7  9  1  0  0  0  0
 10 11  1  0  0  0  0
 10 24  1  0  0  0  0
 10 25  1  0  0  0  0
 11 12  1  0  0  0  0
 11 26  1  0  0  0  0
 11 27  1  0  0  0  0
 12 13  1  0  0  0  0
 12 28  1  0  0  0  0
 12 29  1  0  0  0  0
 13 14  1  0  0  0  0
 13 30  1  0  0  0  0
 14 15  2  0  0  0  0
 14 16  1  0  0  0  0
 15 31  1  0  0  0  0
 15 35  1  0  0  0  0
 16 32  1  0  0  0  0
 16 33  1  0  0  0  0
M  CHG  1   5   1
M  END
$$$$
