6DB
 OpenBabel04161910423D

 35 34  0  0  1  0  0  0  0  0999 V2000
   21.3195   -4.8104   -3.1806 O   0  0  0  0  0  0  0  0  0  0  0  0
   20.3128   -5.4044   -2.6989 C   0  0  0  0  0  0  0  0  0  0  0  0
   20.1285   -6.8644   -3.2110 C   0  0  1  0  0  0  0  0  0  0  0  0
   20.7157   -7.7820   -2.1512 C   0  0  0  0  0  0  0  0  0  0  0  0
   18.7120   -7.2947   -3.4908 N   0  3  0  0  0  0  0  0  0  0  0  0
   17.8355   -6.3460   -4.3269 C   0  0  2  0  0  0  0  0  0  0  0  0
   16.4568   -7.0103   -4.6542 C   0  0  0  0  0  0  0  0  0  0  0  0
   15.6114   -6.3091   -5.2595 O   0  0  0  0  0  0  0  0  0  0  0  0
   16.4491   -8.2416   -4.3276 O   0  0  0  0  0  0  0  0  0  0  0  0
   18.5239   -5.9790   -5.6540 C   0  0  0  0  0  0  0  0  0  0  0  0
   18.8842   -7.2027   -6.5022 C   0  0  0  0  0  0  0  0  0  0  0  0
   19.5448   -6.8551   -7.8278 C   0  0  0  0  0  0  0  0  0  0  0  0
   20.2029   -8.0580   -8.3828 N   0  0  0  0  0  0  0  0  0  0  0  0
   20.8989   -8.0859   -9.5238 C   0  0  0  0  0  0  0  0  0  0  0  0
   21.0263   -7.0031  -10.2961 N   0  0  0  0  0  0  0  0  0  0  0  0
   21.4841   -9.2239   -9.9114 N   0  0  0  0  0  0  0  0  0  0  0  0
   19.3889   -5.0030   -1.9507 O   0  0  0  0  0  0  0  0  0  0  0  0
   20.6807   -7.0015   -4.1466 H   0  0  0  0  0  0  0  0  0  0  0  0
   20.6187   -8.8341   -2.4381 H   0  0  0  0  0  0  0  0  0  0  0  0
   20.2313   -7.6455   -1.1779 H   0  0  0  0  0  0  0  0  0  0  0  0
   21.7831   -7.5707   -2.0194 H   0  0  0  0  0  0  0  0  0  0  0  0
   18.5619   -8.2363   -3.8816 H   0  0  0  0  0  0  0  0  0  0  0  0
   17.6595   -5.4558   -3.7168 H   0  0  0  0  0  0  0  0  0  0  0  0
   19.4299   -5.3949   -5.4517 H   0  0  0  0  0  0  0  0  0  0  0  0
   17.8705   -5.3139   -6.2329 H   0  0  0  0  0  0  0  0  0  0  0  0
   17.9863   -7.7939   -6.7130 H   0  0  0  0  0  0  0  0  0  0  0  0
   19.5605   -7.8546   -5.9399 H   0  0  0  0  0  0  0  0  0  0  0  0
   20.3103   -6.0846   -7.6914 H   0  0  0  0  0  0  0  0  0  0  0  0
   18.7902   -6.5178   -8.5452 H   0  0  0  0  0  0  0  0  0  0  0  0
   20.1310   -8.9232   -7.8600 H   0  0  0  0  0  0  0  0  0  0  0  0
   21.5543   -7.0185  -11.1542 H   0  0  0  0  0  0  0  0  0  0  0  0
   21.4130  -10.0687   -9.3585 H   0  0  0  0  0  0  0  0  0  0  0  0
   22.0188   -9.2776  -10.7683 H   0  0  0  0  0  0  0  0  0  0  0  0
   18.2033   -7.3281   -2.5958 H   0  0  0  0  0  0  0  0  0  0  0  0
   20.5906   -6.1313  -10.0295 H   0  0  0  0  0  0  0  0  0  0  0  0
  1  2  2  0  0  0  0
  2  3  1  0  0  0  0
  2 17  1  0  0  0  0
  3  4  1  0  0  0  0
  3  5  1  0  0  0  0
  3 18  1  6  0  0  0
  4 19  1  0  0  0  0
  4 20  1  0  0  0  0
  4 21  1  0  0  0  0
  5  6  1  0  0  0  0
  5 22  1  0  0  0  0
  5 34  1  0  0  0  0
  6  7  1  0  0  0  0
  6 10  1  0  0  0  0
  6 23  1  1  0  0  0
  7  8  2  0  0  0  0
  7  9  1  0  0  0  0
 10 11  1  0  0  0  0
 10 24  1  0  0  0  0
 10 25  1  0  0  0  0
 11 12  1  0  0  0  0
 11 26  1  0  0  0  0
 11 27  1  0  0  0  0
 12 13  1  0  0  0  0
 12 28  1  0  0  0  0
 12 29  1  0  0  0  0
 13 14  1  0  0  0  0
 13 30  1  0  0  0  0
 14 15  2  0  0  0  0
 14 16  1  0  0  0  0
 15 31  1  0  0  0  0
 15 35  1  0  0  0  0
 16 32  1  0  0  0  0
 16 33  1  0  0  0  0
M  CHG  1   5   1
M  END
$$$$
