6DB
 OpenBabel04161911433D

 35 34  0  0  1  0  0  0  0  0999 V2000
    5.7190   19.3058  -12.2703 O   0  0  0  0  0  0  0  0  0  0  0  0
    5.8389   20.4259  -11.7018 C   0  0  0  0  0  0  0  0  0  0  0  0
    4.5040   21.0159  -11.1814 C   0  0  1  0  0  0  0  0  0  0  0  0
    3.9357   22.0214  -12.1708 C   0  0  0  0  0  0  0  0  0  0  0  0
    3.4281   20.0292  -10.8847 N   0  3  0  0  0  0  0  0  0  0  0  0
    3.7408   18.8460   -9.9813 C   0  0  2  0  0  0  0  0  0  0  0  0
    2.4448   18.0117   -9.7063 C   0  0  0  0  0  0  0  0  0  0  0  0
    1.3791   18.6466   -9.9400 O   0  0  0  0  0  0  0  0  0  0  0  0
    2.6510   16.8425   -9.2456 O   0  0  0  0  0  0  0  0  0  0  0  0
    4.3780   19.2819   -8.6555 C   0  0  0  0  0  0  0  0  0  0  0  0
    3.6035   20.3702   -7.9401 C   0  0  0  0  0  0  0  0  0  0  0  0
    3.8360   20.3760   -6.4533 C   0  0  0  0  0  0  0  0  0  0  0  0
    3.1917   21.5815   -5.9379 N   0  0  0  0  0  0  0  0  0  0  0  0
    3.5413   22.1535   -4.7887 C   0  0  0  0  0  0  0  0  0  0  0  0
    2.9472   23.2673   -4.4075 N   0  0  0  0  0  0  0  0  0  0  0  0
    4.4938   21.6230   -4.0299 N   0  0  0  0  0  0  0  0  0  0  0  0
    6.8454   21.1092  -11.3859 O   0  0  0  0  0  0  0  0  0  0  0  0
    4.6831   21.5367  -10.2363 H   0  0  0  0  0  0  0  0  0  0  0  0
    2.9785   22.4358  -11.8218 H   0  0  0  0  0  0  0  0  0  0  0  0
    3.7664   21.5698  -13.1540 H   0  0  0  0  0  0  0  0  0  0  0  0
    4.6304   22.8558  -12.2955 H   0  0  0  0  0  0  0  0  0  0  0  0
    2.5721   20.4560  -10.5236 H   0  0  0  0  0  0  0  0  0  0  0  0
    4.4580   18.2070  -10.5027 H   0  0  0  0  0  0  0  0  0  0  0  0
    5.4013   19.6413   -8.8341 H   0  0  0  0  0  0  0  0  0  0  0  0
    4.4649   18.4109   -7.9954 H   0  0  0  0  0  0  0  0  0  0  0  0
    2.5297   20.2643   -8.1034 H   0  0  0  0  0  0  0  0  0  0  0  0
    3.8913   21.3585   -8.3172 H   0  0  0  0  0  0  0  0  0  0  0  0
    4.9070   20.4044   -6.2286 H   0  0  0  0  0  0  0  0  0  0  0  0
    3.3765   19.5132   -5.9623 H   0  0  0  0  0  0  0  0  0  0  0  0
    2.4800   22.0185   -6.5133 H   0  0  0  0  0  0  0  0  0  0  0  0
    3.1860   23.7140   -3.5289 H   0  0  0  0  0  0  0  0  0  0  0  0
    4.9589   20.7767   -4.3154 H   0  0  0  0  0  0  0  0  0  0  0  0
    4.7630   22.0380   -3.1507 H   0  0  0  0  0  0  0  0  0  0  0  0
    3.1763   19.5716  -11.7760 H   0  0  0  0  0  0  0  0  0  0  0  0
    2.2272   23.6828   -4.9815 H   0  0  0  0  0  0  0  0  0  0  0  0
  1  2  2  0  0  0  0
  2  3  1  0  0  0  0
  2 17  1  0  0  0  0
  3  4  1  0  0  0  0
  3  5  1  0  0  0  0
  3 18  1  1  0  0  0
  4 19  1  0  0  0  0
  4 20  1  0  0  0  0
  4 21  1  0  0  0  0
  5  6  1  0  0  0  0
  5 22  1  0  0  0  0
  5 34  1  0  0  0  0
  6  7  1  0  0  0  0
  6 10  1  0  0  0  0
  6 23  1  6  0  0  0
  7  8  2  0  0  0  0
  7  9  1  0  0  0  0
 10 11  1  0  0  0  0
 10 24  1  0  0  0  0
 10 25  1  0  0  0  0
 11 12  1  0  0  0  0
 11 26  1  0  0  0  0
 11 27  1  0  0  0  0
 12 13  1  0  0  0  0
 12 28  1  0  0  0  0
 12 29  1  0  0  0  0
 13 14  1  0  0  0  0
 13 30  1  0  0  0  0
 14 15  2  0  0  0  0
 14 16  1  0  0  0  0
 15 31  1  0  0  0  0
 15 35  1  0  0  0  0
 16 32  1  0  0  0  0
 16 33  1  0  0  0  0
M  CHG  1   5   1
M  END
$$$$
