6DK
 OpenBabel04161910223D

 42 42  0  0  0  0  0  0  0  0999 V2000
   11.1502   61.0563   21.5346 N   0  0  0  0  0  0  0  0  0  0  0  0
   13.7289   51.7792   22.7183 C   0  0  0  0  0  0  0  0  0  0  0  0
   12.5475   50.9988   22.8395 O   0  0  0  0  0  0  0  0  0  0  0  0
   13.4578   53.2266   23.1851 C   0  0  0  0  0  0  0  0  0  0  0  0
   14.0400   51.7003   21.3347 O   0  0  0  0  0  0  0  0  0  0  0  0
   12.3658   54.0152   22.4562 C   0  0  0  0  0  0  0  0  0  0  0  0
   12.4244   55.4436   23.0034 C   0  0  0  0  0  0  0  0  0  0  0  0
   11.3169   56.3658   22.5407 C   0  0  0  0  0  0  0  0  0  0  0  0
   11.5780   57.7592   23.1247 C   0  0  0  0  0  0  0  0  0  0  0  0
   10.8279   58.7974   22.3185 C   0  0  0  0  0  0  0  0  0  0  0  0
   11.2937   60.2113   22.6218 C   0  0  0  0  0  0  0  0  0  0  0  0
   11.1878   62.4634   21.5360 C   0  0  0  0  0  0  0  0  0  0  0  0
   10.9766   63.0776   20.2954 C   0  0  0  0  0  0  0  0  0  0  0  0
   10.9841   64.4694   20.1818 C   0  0  0  0  0  0  0  0  0  0  0  0
   11.1974   65.2505   21.3128 C   0  0  0  0  0  0  0  0  0  0  0  0
   11.3983   64.6451   22.5538 C   0  0  0  0  0  0  0  0  0  0  0  0
   11.3855   63.2477   22.6664 C   0  0  0  0  0  0  0  0  0  0  0  0
   16.0057   51.9073   23.5071 F   0  0  0  0  0  0  0  0  0  0  0  0
   14.8654   51.1868   23.6040 C   0  0  0  0  0  0  0  0  0  0  0  0
   14.4790   51.1695   24.9048 F   0  0  0  0  0  0  0  0  0  0  0  0
   15.1536   49.9173   23.2388 F   0  0  0  0  0  0  0  0  0  0  0  0
   11.6717   60.5283   23.7241 O   0  0  0  0  0  0  0  0  0  0  0  0
   11.0196   60.6224   20.6336 H   0  0  0  0  0  0  0  0  0  0  0  0
   12.3024   50.9947   23.7654 H   0  0  0  0  0  0  0  0  0  0  0  0
   14.3837   53.8158   23.1011 H   0  0  0  0  0  0  0  0  0  0  0  0
   13.1665   53.2113   24.2480 H   0  0  0  0  0  0  0  0  0  0  0  0
   14.8481   52.1854   21.1570 H   0  0  0  0  0  0  0  0  0  0  0  0
   11.3802   53.5755   22.6463 H   0  0  0  0  0  0  0  0  0  0  0  0
   12.5491   54.0140   21.3766 H   0  0  0  0  0  0  0  0  0  0  0  0
   13.3825   55.8905   22.7048 H   0  0  0  0  0  0  0  0  0  0  0  0
   12.3954   55.4108   24.0996 H   0  0  0  0  0  0  0  0  0  0  0  0
   10.3452   55.9907   22.8818 H   0  0  0  0  0  0  0  0  0  0  0  0
   11.3061   56.4090   21.4462 H   0  0  0  0  0  0  0  0  0  0  0  0
   12.6549   57.9756   23.1069 H   0  0  0  0  0  0  0  0  0  0  0  0
   11.2569   57.7850   24.1753 H   0  0  0  0  0  0  0  0  0  0  0  0
    9.7664   58.7408   22.5559 H   0  0  0  0  0  0  0  0  0  0  0  0
   10.9700   58.5951   21.2506 H   0  0  0  0  0  0  0  0  0  0  0  0
   10.8038   62.4795   19.4094 H   0  0  0  0  0  0  0  0  0  0  0  0
   10.8272   64.9354   19.2149 H   0  0  0  0  0  0  0  0  0  0  0  0
   11.2060   66.3362   21.2310 H   0  0  0  0  0  0  0  0  0  0  0  0
   11.5663   65.2582   23.4337 H   0  0  0  0  0  0  0  0  0  0  0  0
   11.5379   62.8047   23.6454 H   0  0  0  0  0  0  0  0  0  0  0  0
  1 11  1  0  0  0  0
  1 12  1  0  0  0  0
  1 23  1  0  0  0  0
  2  3  1  0  0  0  0
  2  4  1  0  0  0  0
  2  5  1  0  0  0  0
  2 19  1  0  0  0  0
  3 24  1  0  0  0  0
  4  6  1  0  0  0  0
  4 25  1  0  0  0  0
  4 26  1  0  0  0  0
  5 27  1  0  0  0  0
  6  7  1  0  0  0  0
  6 28  1  0  0  0  0
  6 29  1  0  0  0  0
  7  8  1  0  0  0  0
  7 30  1  0  0  0  0
  7 31  1  0  0  0  0
  8  9  1  0  0  0  0
  8 32  1  0  0  0  0
  8 33  1  0  0  0  0
  9 10  1  0  0  0  0
  9 34  1  0  0  0  0
  9 35  1  0  0  0  0
 10 11  1  0  0  0  0
 10 36  1  0  0  0  0
 10 37  1  0  0  0  0
 11 22  2  0  0  0  0
 12 13  2  0  0  0  0
 12 17  1  0  0  0  0
 13 14  1  0  0  0  0
 13 38  1  0  0  0  0
 14 15  2  0  0  0  0
 14 39  1  0  0  0  0
 15 16  1  0  0  0  0
 15 40  1  0  0  0  0
 16 17  2  0  0  0  0
 16 41  1  0  0  0  0
 17 42  1  0  0  0  0
 18 19  1  0  0  0  0
 19 20  1  0  0  0  0
 19 21  1  0  0  0  0
M  END
$$$$
