6E7
 OpenBabel04161910423D

 42 44  0  0  0  0  0  0  0  0999 V2000
  -23.8391   20.1750    2.5726 C   0  0  0  0  0  0  0  0  0  0  0  0
  -23.9894   21.7218    0.2729 C   0  0  0  0  0  0  0  0  0  0  0  0
  -25.9780   25.9194    3.6969 C   0  0  0  0  0  0  0  0  0  0  0  0
  -26.3794   25.0116    4.8399 C   0  0  0  0  0  0  0  0  0  0  0  0
  -27.6515   25.0956    5.4023 C   0  0  0  0  0  0  0  0  0  0  0  0
  -27.1402   23.2754    6.9155 C   0  0  0  0  0  0  0  0  0  0  0  0
  -25.4869   24.0408    5.3245 C   0  0  0  0  0  0  0  0  0  0  0  0
  -24.1502   20.3937    7.8226 O   0  0  0  0  0  0  0  0  0  0  0  0
  -23.5111   19.3256    7.5709 C   0  0  0  0  0  0  0  0  0  0  0  0
  -22.8675   18.6154    8.4035 O   0  0  0  0  0  0  0  0  0  0  0  0
  -23.5227   18.8517    6.1404 C   0  0  0  0  0  0  0  0  0  0  0  0
  -23.3646   17.4995    5.8454 C   0  0  0  0  0  0  0  0  0  0  0  0
  -23.3893   17.1052    4.5253 C   0  0  0  0  0  0  0  0  0  0  0  0
  -23.5544   17.9512    3.4851 N   0  0  0  0  0  0  0  0  0  0  0  0
  -23.6961   19.2795    3.7574 C   0  0  0  0  0  0  0  0  0  0  0  0
  -23.6903   19.7475    5.0756 C   0  0  0  0  0  0  0  0  0  0  0  0
  -24.2452   21.5053    2.6641 C   0  0  0  0  0  0  0  0  0  0  0  0
  -24.3101   22.2747    1.5012 C   0  0  0  0  0  0  0  0  0  0  0  0
  -23.6192   20.3972    0.2519 C   0  0  0  0  0  0  0  0  0  0  0  0
  -23.5396   19.6306    1.3577 N   0  0  0  0  0  0  0  0  0  0  0  0
  -24.6817   23.7033    1.5380 C   0  0  0  0  0  0  0  0  0  0  0  0
  -23.9544   24.5364    1.0106 O   0  0  0  0  0  0  0  0  0  0  0  0
  -25.8840   23.9899    2.1314 N   0  0  0  0  0  0  0  0  0  0  0  0
  -26.3343   25.3551    2.3190 C   0  0  0  0  0  0  0  0  0  0  0  0
  -28.0321   24.2367    6.4376 C   0  0  0  0  0  0  0  0  0  0  0  0
  -25.8709   23.1738    6.3521 C   0  0  0  0  0  0  0  0  0  0  0  0
  -24.0372   22.3043   -0.6400 H   0  0  0  0  0  0  0  0  0  0  0  0
  -24.9024   26.1289    3.7515 H   0  0  0  0  0  0  0  0  0  0  0  0
  -26.4790   26.8890    3.8156 H   0  0  0  0  0  0  0  0  0  0  0  0
  -28.3652   25.8364    5.0452 H   0  0  0  0  0  0  0  0  0  0  0  0
  -27.4207   22.6045    7.7235 H   0  0  0  0  0  0  0  0  0  0  0  0
  -24.4883   23.9436    4.9050 H   0  0  0  0  0  0  0  0  0  0  0  0
  -23.2260   16.7796    6.6471 H   0  0  0  0  0  0  0  0  0  0  0  0
  -23.2716   16.0601    4.2584 H   0  0  0  0  0  0  0  0  0  0  0  0
  -23.7888   20.8012    5.3126 H   0  0  0  0  0  0  0  0  0  0  0  0
  -24.4847   21.9484    3.6210 H   0  0  0  0  0  0  0  0  0  0  0  0
  -23.3697   19.8947   -0.6763 H   0  0  0  0  0  0  0  0  0  0  0  0
  -26.4163   23.2527    2.5821 H   0  0  0  0  0  0  0  0  0  0  0  0
  -25.8884   25.9951    1.5486 H   0  0  0  0  0  0  0  0  0  0  0  0
  -27.4183   25.3609    2.1654 H   0  0  0  0  0  0  0  0  0  0  0  0
  -29.0217   24.3133    6.8722 H   0  0  0  0  0  0  0  0  0  0  0  0
  -25.1810   22.4169    6.7256 H   0  0  0  0  0  0  0  0  0  0  0  0
  1 15  1  0  0  0  0
  1 17  2  0  0  0  0
  1 20  1  0  0  0  0
  2 18  2  0  0  0  0
  2 19  1  0  0  0  0
  2 27  1  0  0  0  0
  3  4  1  0  0  0  0
  3 24  1  0  0  0  0
  3 28  1  0  0  0  0
  3 29  1  0  0  0  0
  4  5  2  0  0  0  0
  4  7  1  0  0  0  0
  5 25  1  0  0  0  0
  5 30  1  0  0  0  0
  6 25  2  0  0  0  0
  6 26  1  0  0  0  0
  6 31  1  0  0  0  0
  7 26  2  0  0  0  0
  7 32  1  0  0  0  0
  8  9  2  0  0  0  0
  9 10  1  0  0  0  0
  9 11  1  0  0  0  0
 11 12  2  0  0  0  0
 11 16  1  0  0  0  0
 12 13  1  0  0  0  0
 12 33  1  0  0  0  0
 13 14  2  0  0  0  0
 13 34  1  0  0  0  0
 14 15  1  0  0  0  0
 15 16  2  0  0  0  0
 16 35  1  0  0  0  0
 17 18  1  0  0  0  0
 17 36  1  0  0  0  0
 18 21  1  0  0  0  0
 19 20  2  0  0  0  0
 19 37  1  0  0  0  0
 21 22  2  0  0  0  0
 21 23  1  0  0  0  0
 23 24  1  0  0  0  0
 23 38  1  0  0  0  0
 24 39  1  0  0  0  0
 24 40  1  0  0  0  0
 25 41  1  0  0  0  0
 26 42  1  0  0  0  0
M  END
$$$$
