6E8
 OpenBabel04161910433D

 28 29  0  0  0  0  0  0  0  0999 V2000
  -23.0051   17.6857    7.2110 C   0  0  0  0  0  0  0  0  0  0  0  0
  -23.7951   19.3757    8.2269 N   0  3  0  0  0  0  0  0  0  0  0  0
  -24.1298   20.2673    9.2583 C   0  0  0  0  0  0  0  0  0  0  0  0
  -23.7561   18.1706    4.8523 C   0  0  0  0  0  0  0  0  0  0  0  0
  -24.2368   22.8822   10.8976 C   0  0  0  0  0  0  0  0  0  0  0  0
  -25.3183   22.4871    9.8855 C   0  0  0  0  0  0  0  0  0  0  0  0
  -26.5393   21.9900   10.6570 C   0  0  0  0  0  0  0  0  0  0  0  0
  -24.9097   21.4845    8.8143 C   0  0  0  0  0  0  0  0  0  0  0  0
  -25.2345   21.5908    7.4957 C   0  0  0  0  0  0  0  0  0  0  0  0
  -26.0412   22.7460    6.9416 C   0  0  0  0  0  0  0  0  0  0  0  0
  -24.8605   20.6347    6.5621 N   0  3  0  0  0  0  0  0  0  0  0  0
  -24.1474   19.5382    6.9045 C   0  0  0  0  0  0  0  0  0  0  0  0
  -23.6473   18.4585    6.2363 C   0  0  0  0  0  0  0  0  0  0  0  0
  -23.0860   18.2274    8.4324 N   0  0  0  0  0  0  0  0  0  0  0  0
  -23.8039   20.0216   10.4098 O   0  0  0  0  0  0  0  0  0  0  0  0
  -23.8534   17.9477    3.7165 N   0  0  0  0  0  0  0  0  0  0  0  0
  -22.4783   16.7427    7.0904 H   0  0  0  0  0  0  0  0  0  0  0  0
  -24.6362   23.6224   11.6014 H   0  0  0  0  0  0  0  0  0  0  0  0
  -23.3633   23.3174   10.4063 H   0  0  0  0  0  0  0  0  0  0  0  0
  -23.9092   22.0378   11.5094 H   0  0  0  0  0  0  0  0  0  0  0  0
  -25.6052   23.4206    9.3870 H   0  0  0  0  0  0  0  0  0  0  0  0
  -27.3470   21.6959    9.9807 H   0  0  0  0  0  0  0  0  0  0  0  0
  -26.9185   22.7844   11.3100 H   0  0  0  0  0  0  0  0  0  0  0  0
  -26.2849   21.1328   11.2894 H   0  0  0  0  0  0  0  0  0  0  0  0
  -26.1911   22.6403    5.8606 H   0  0  0  0  0  0  0  0  0  0  0  0
  -25.5234   23.6976    7.0964 H   0  0  0  0  0  0  0  0  0  0  0  0
  -27.0354   22.7940    7.3980 H   0  0  0  0  0  0  0  0  0  0  0  0
  -25.1548   20.7999    5.5976 H   0  0  0  0  0  0  0  0  0  0  0  0
  1 13  2  0  0  0  0
  1 14  1  0  0  0  0
  1 17  1  0  0  0  0
  2  3  1  0  0  0  0
  2 12  1  0  0  0  0
  2 14  1  0  0  0  0
  3  8  1  0  0  0  0
  3 15  2  0  0  0  0
  4 13  1  0  0  0  0
  4 16  3  0  0  0  0
  5  6  1  0  0  0  0
  5 18  1  0  0  0  0
  5 19  1  0  0  0  0
  5 20  1  0  0  0  0
  6  7  1  0  0  0  0
  6  8  1  0  0  0  0
  6 21  1  0  0  0  0
  7 22  1  0  0  0  0
  7 23  1  0  0  0  0
  7 24  1  0  0  0  0
  8  9  2  0  0  0  0
  9 10  1  0  0  0  0
  9 11  1  0  0  0  0
 10 25  1  0  0  0  0
 10 26  1  0  0  0  0
 10 27  1  0  0  0  0
 11 12  2  0  0  0  0
 11 28  1  0  0  0  0
 12 13  1  0  0  0  0
M  CHG  2   2   1  11   1
M  END
$$$$
