6F3
 OpenBabel04161909393D

 33 35  0  0  0  0  0  0  0  0999 V2000
   12.1425   -5.5921   -3.5914 C   0  0  0  0  0  0  0  0  0  0  0  0
   10.9287   -7.6514   -4.6506 C   0  0  0  0  0  0  0  0  0  0  0  0
   11.1921   -8.9886   -4.9449 C   0  0  0  0  0  0  0  0  0  0  0  0
   10.4945   -9.6213   -5.9805 C   0  0  0  0  0  0  0  0  0  0  0  0
    9.1819   -7.6524   -6.3443 C   0  0  0  0  0  0  0  0  0  0  0  0
   14.1558   -4.7808   -0.4503 N   0  0  0  0  0  0  0  0  0  0  0  0
    9.4921  -12.0569   -6.4763 N   0  0  0  0  0  0  0  0  0  0  0  0
   11.5121  -11.2555   -7.7506 O   0  0  0  0  0  0  0  0  0  0  0  0
   10.9559  -11.2793   -6.3915 S   0  0  0  0  0  0  0  0  0  0  0  0
   11.6714  -11.8350   -5.2726 O   0  0  0  0  0  0  0  0  0  0  0  0
    8.6684  -11.9569   -5.3004 C   0  0  0  0  0  0  0  0  0  0  0  0
    9.4466   -8.9822   -6.6515 C   0  0  0  0  0  0  0  0  0  0  0  0
    9.9478   -6.9905   -5.3881 C   0  0  0  0  0  0  0  0  0  0  0  0
   11.6978   -6.9040   -3.6717 C   0  0  0  0  0  0  0  0  0  0  0  0
   12.0613   -7.5879   -2.5523 O   0  0  0  0  0  0  0  0  0  0  0  0
   12.7616   -6.7153   -1.8061 C   0  0  0  0  0  0  0  0  0  0  0  0
   13.2093   -7.1035   -0.5018 C   0  0  0  0  0  0  0  0  0  0  0  0
   14.0058   -5.9608    0.0667 C   0  0  0  0  0  0  0  0  0  0  0  0
   13.5819   -4.4096   -1.6757 C   0  0  0  0  0  0  0  0  0  0  0  0
   13.6659   -3.2854   -2.1295 O   0  0  0  0  0  0  0  0  0  0  0  0
   12.8678   -5.4890   -2.3799 C   0  0  0  0  0  0  0  0  0  0  0  0
   11.9538   -4.8298   -4.3384 H   0  0  0  0  0  0  0  0  0  0  0  0
   11.9842   -9.5239   -4.4218 H   0  0  0  0  0  0  0  0  0  0  0  0
    8.4072   -7.1078   -6.8685 H   0  0  0  0  0  0  0  0  0  0  0  0
    9.2947  -12.6696   -7.2713 H   0  0  0  0  0  0  0  0  0  0  0  0
    7.7787  -12.5774   -5.3889 H   0  0  0  0  0  0  0  0  0  0  0  0
    8.3429  -10.9195   -5.1857 H   0  0  0  0  0  0  0  0  0  0  0  0
    9.2384  -12.2357   -4.4101 H   0  0  0  0  0  0  0  0  0  0  0  0
    8.8491   -9.4910   -7.4040 H   0  0  0  0  0  0  0  0  0  0  0  0
    9.7847   -5.9262   -5.2248 H   0  0  0  0  0  0  0  0  0  0  0  0
   13.8470   -7.9967   -0.5181 H   0  0  0  0  0  0  0  0  0  0  0  0
   12.3370   -7.2353    0.1481 H   0  0  0  0  0  0  0  0  0  0  0  0
   14.4760   -6.1785    1.0446 H   0  0  0  0  0  0  0  0  0  0  0  0
  1 14  2  0  0  0  0
  1 21  1  0  0  0  0
  1 22  1  0  0  0  0
  2  3  2  0  0  0  0
  2 13  1  0  0  0  0
  2 14  1  0  0  0  0
  3  4  1  0  0  0  0
  3 23  1  0  0  0  0
  4  9  1  0  0  0  0
  4 12  2  0  0  0  0
  5 12  1  0  0  0  0
  5 13  2  0  0  0  0
  5 24  1  0  0  0  0
  6 18  2  0  0  0  0
  6 19  1  0  0  0  0
  7  9  1  0  0  0  0
  7 11  1  0  0  0  0
  7 25  1  0  0  0  0
  8  9  2  0  0  0  0
  9 10  2  0  0  0  0
 11 26  1  0  0  0  0
 11 27  1  0  0  0  0
 11 28  1  0  0  0  0
 12 29  1  0  0  0  0
 13 30  1  0  0  0  0
 14 15  1  0  0  0  0
 15 16  1  0  0  0  0
 16 17  1  0  0  0  0
 16 21  2  0  0  0  0
 17 18  1  0  0  0  0
 17 31  1  0  0  0  0
 17 32  1  0  0  0  0
 18 33  1  0  0  0  0
 19 20  2  0  0  0  0
 19 21  1  0  0  0  0
M  END
$$$$
