6FG
 OpenBabel04161910443D

 25 26  0  0  0  0  0  0  0  0999 V2000
   28.5383   14.4664   16.6280 O   0  0  0  0  0  0  0  0  0  0  0  0
   29.0163   14.6072   15.5337 C   0  0  0  0  0  0  0  0  0  0  0  0
   29.7518   15.7916   15.2934 N   0  3  0  0  0  0  0  0  0  0  0  0
   30.2054   16.6538   16.3060 C   0  0  0  0  0  0  0  0  0  0  0  0
   31.0158   17.6095   15.7360 C   0  0  0  0  0  0  0  0  0  0  0  0
   30.9382   17.3982   14.3475 C   0  0  0  0  0  0  0  0  0  0  0  0
   30.1496   16.3105   14.0785 C   0  0  0  0  0  0  0  0  0  0  0  0
   28.9454   13.6220   14.4347 C   0  0  0  0  0  0  0  0  0  0  0  0
   28.2826   12.3907   15.0425 C   0  0  0  0  0  0  0  0  0  0  0  0
   28.2368   11.3206   14.0179 C   0  0  0  0  0  0  0  0  0  0  0  0
   27.8004   10.0178   14.2346 C   0  0  0  0  0  0  0  0  0  0  0  0
   28.6473   11.4505   12.7264 C   0  0  0  0  0  0  0  0  0  0  0  0
   28.4577   10.2745   12.0965 O   0  0  0  0  0  0  0  0  0  0  0  0
   27.9418    9.4179   13.0154 C   0  0  0  0  0  0  0  0  0  0  0  0
   29.9647   16.4779   17.3509 H   0  0  0  0  0  0  0  0  0  0  0  0
   31.5818   18.3879   16.2427 H   0  0  0  0  0  0  0  0  0  0  0  0
   31.4043   18.0088   13.5866 H   0  0  0  0  0  0  0  0  0  0  0  0
   29.8082   15.8778   13.1448 H   0  0  0  0  0  0  0  0  0  0  0  0
   29.9515   13.3356   14.0760 H   0  0  0  0  0  0  0  0  0  0  0  0
   28.3395   13.9723   13.5862 H   0  0  0  0  0  0  0  0  0  0  0  0
   27.2541   12.6079   15.3723 H   0  0  0  0  0  0  0  0  0  0  0  0
   28.8307   12.0266   15.9270 H   0  0  0  0  0  0  0  0  0  0  0  0
   27.4262    9.5866   15.1538 H   0  0  0  0  0  0  0  0  0  0  0  0
   29.0638   12.3021   12.2035 H   0  0  0  0  0  0  0  0  0  0  0  0
   27.7165    8.4166   12.6919 H   0  0  0  0  0  0  0  0  0  0  0  0
  1  2  2  0  0  0  0
  2  3  1  0  0  0  0
  2  8  1  0  0  0  0
  3  4  1  0  0  0  0
  3  7  1  0  0  0  0
  4  5  2  0  0  0  0
  4 15  1  0  0  0  0
  5  6  1  0  0  0  0
  5 16  1  0  0  0  0
  6  7  2  0  0  0  0
  6 17  1  0  0  0  0
  7 18  1  0  0  0  0
  8  9  1  0  0  0  0
  8 19  1  0  0  0  0
  8 20  1  0  0  0  0
  9 10  1  0  0  0  0
  9 21  1  0  0  0  0
  9 22  1  0  0  0  0
 10 11  1  0  0  0  0
 10 12  2  0  0  0  0
 11 14  2  0  0  0  0
 11 23  1  0  0  0  0
 12 13  1  0  0  0  0
 12 24  1  0  0  0  0
 13 14  1  0  0  0  0
 14 25  1  0  0  0  0
M  CHG  1   3   1
M  END
$$$$
