6JD
 OpenBabel04161910593D

 25 26  0  0  0  0  0  0  0  0999 V2000
  -41.4682   -1.3543   68.4576 O   0  0  0  0  0  0  0  0  0  0  0  0
  -42.3717   -0.2263   68.6634 S   0  0  0  0  0  0  0  0  0  0  0  0
  -41.9816    1.0851   68.1707 O   0  0  0  0  0  0  0  0  0  0  0  0
  -43.9162   -0.6466   67.9008 C   0  0  0  0  0  0  0  0  0  0  0  0
  -44.5167   -1.8781   68.1545 C   0  0  0  0  0  0  0  0  0  0  0  0
  -45.7388   -2.1889   67.5518 C   0  0  0  0  0  0  0  0  0  0  0  0
  -46.3847   -1.3194   66.6558 C   0  0  0  0  0  0  0  0  0  0  0  0
  -47.4884   -1.6159   66.0912 O   0  0  0  0  0  0  0  0  0  0  0  0
  -45.7238   -0.0983   66.4183 C   0  0  0  0  0  0  0  0  0  0  0  0
  -44.5111    0.2482   67.0225 C   0  0  0  0  0  0  0  0  0  0  0  0
  -42.6395   -0.0892   70.4066 C   0  0  0  0  0  0  0  0  0  0  0  0
  -42.2922    1.0746   71.0761 C   0  0  0  0  0  0  0  0  0  0  0  0
  -42.5066    1.1549   72.4585 C   0  0  0  0  0  0  0  0  0  0  0  0
  -43.0628    0.0993   73.2178 C   0  0  0  0  0  0  0  0  0  0  0  0
  -43.2425    0.1845   74.4749 O   0  0  0  0  0  0  0  0  0  0  0  0
  -43.3995   -1.0477   72.4857 C   0  0  0  0  0  0  0  0  0  0  0  0
  -43.1841   -1.1545   71.1125 C   0  0  0  0  0  0  0  0  0  0  0  0
  -44.0653   -2.6141   68.8085 H   0  0  0  0  0  0  0  0  0  0  0  0
  -46.2084   -3.1452   67.7801 H   0  0  0  0  0  0  0  0  0  0  0  0
  -46.1857    0.6071   65.7290 H   0  0  0  0  0  0  0  0  0  0  0  0
  -44.0536    1.2037   66.7918 H   0  0  0  0  0  0  0  0  0  0  0  0
  -41.8577    1.9208   70.5551 H   0  0  0  0  0  0  0  0  0  0  0  0
  -42.2341    2.0681   72.9812 H   0  0  0  0  0  0  0  0  0  0  0  0
  -43.8395   -1.8949   73.0103 H   0  0  0  0  0  0  0  0  0  0  0  0
  -43.4506   -2.0838   70.6300 H   0  0  0  0  0  0  0  0  0  0  0  0
  1  2  2  0  0  0  0
  2  3  2  0  0  0  0
  2  4  1  0  0  0  0
  2 11  1  0  0  0  0
  4  5  2  0  0  0  0
  4 10  1  0  0  0  0
  5  6  1  0  0  0  0
  5 18  1  0  0  0  0
  6  7  2  0  0  0  0
  6 19  1  0  0  0  0
  7  8  1  0  0  0  0
  7  9  1  0  0  0  0
  9 10  2  0  0  0  0
  9 20  1  0  0  0  0
 10 21  1  0  0  0  0
 11 12  2  0  0  0  0
 11 17  1  0  0  0  0
 12 13  1  0  0  0  0
 12 22  1  0  0  0  0
 13 14  2  0  0  0  0
 13 23  1  0  0  0  0
 14 15  1  0  0  0  0
 14 16  1  0  0  0  0
 16 17  2  0  0  0  0
 16 24  1  0  0  0  0
 17 25  1  0  0  0  0
M  END
$$$$
