6KK
 OpenBabel04161910463D

 91 96  0  0  1  0  0  0  0  0999 V2000
   20.7843   27.5805   14.7389 C   0  0  0  0  0  0  0  0  0  0  0  0
   19.4482   27.5291   14.3220 C   0  0  0  0  0  0  0  0  0  0  0  0
   18.6663   26.4000   14.5975 C   0  0  0  0  0  0  0  0  0  0  0  0
   19.2218   25.3399   15.3092 C   0  0  0  0  0  0  0  0  0  0  0  0
   20.5691   25.3672   15.6897 C   0  0  0  0  0  0  0  0  0  0  0  0
   21.3411   26.4877   15.4026 C   0  0  0  0  0  0  0  0  0  0  0  0
   18.2739   23.8788   15.6567 S   0  0  0  0  0  0  0  0  0  0  0  0
   17.2025   23.8224   14.6859 O   0  0  0  0  0  0  0  0  0  0  0  0
   19.2117   22.7922   15.8018 O   0  0  0  0  0  0  0  0  0  0  0  0
   17.6000   24.1875   17.1940 N   0  0  0  0  0  0  0  0  0  0  0  0
   18.5512   24.5749   18.2692 C   0  0  0  0  0  0  0  0  0  0  0  0
   18.1703   23.9694   19.6240 C   0  0  0  0  0  0  0  0  0  0  0  0
   18.1197   22.4422   19.5580 C   0  0  0  0  0  0  0  0  0  0  0  0
   19.1748   24.4010   20.6928 C   0  0  0  0  0  0  0  0  0  0  0  0
   16.2737   24.8428   17.2585 C   0  0  0  0  0  0  0  0  0  0  0  0
   15.1980   23.8961   17.8481 C   0  0  1  0  0  0  0  0  0  0  0  0
   14.0293   24.6645   18.1895 O   0  0  0  0  0  0  0  0  0  0  0  0
   14.7817   22.7345   16.9090 C   0  0  1  0  0  0  0  0  0  0  0  0
   13.8942   21.8318   17.6383 N   0  0  0  0  0  0  0  0  0  0  0  0
   14.2695   20.6236   18.1081 C   0  0  0  0  0  0  0  0  0  0  0  0
   15.3801   20.1176   17.9712 O   0  0  0  0  0  0  0  0  0  0  0  0
   13.2100   20.0307   18.7066 O   0  0  0  0  0  0  0  0  0  0  0  0
   13.3692   18.6510   19.0630 C   0  0  1  0  0  0  0  0  0  0  0  0
   12.8511   18.4770   20.4746 C   0  0  0  0  0  0  0  0  0  0  0  0
   11.4227   18.4369   20.3452 O   0  0  0  0  0  0  0  0  0  0  0  0
   11.1318   17.8093   19.0914 C   0  0  1  0  0  0  0  0  0  0  0  0
   10.1373   18.5153   18.3508 O   0  0  0  0  0  0  0  0  0  0  0  0
   10.7520   19.1001   17.2009 C   0  0  0  0  0  0  0  0  0  0  0  0
   11.9991   18.2914   16.9134 C   0  0  0  0  0  0  0  0  0  0  0  0
   12.4100   17.7763   18.2693 C   0  0  1  0  0  0  0  0  0  0  0  0
   14.0623   23.2532   15.6536 C   0  0  0  0  0  0  0  0  0  0  0  0
   13.8018   22.2534   14.5012 C   0  0  1  0  0  0  0  0  0  0  0  0
   12.5068   21.4513   14.7638 C   0  0  0  0  0  0  0  0  0  0  0  0
   12.1832   20.5254   13.5844 C   0  0  2  0  0  0  0  0  0  0  0  0
   13.3526   19.5544   13.3549 C   0  0  0  0  0  0  0  0  0  0  0  0
   14.6417   20.3356   13.0648 C   0  0  1  0  0  0  0  0  0  0  0  0
   14.4301   21.1796   11.8003 C   0  0  0  0  0  0  0  0  0  0  0  0
   13.2674   22.1625   12.0129 C   0  0  2  0  0  0  0  0  0  0  0  0
   13.5994   23.0783   13.1987 C   0  0  0  0  0  0  0  0  0  0  0  0
   14.9615   21.2596   14.2518 C   0  0  0  0  0  0  0  0  0  0  0  0
   11.9771   21.3919   12.3335 C   0  0  0  0  0  0  0  0  0  0  0  0
   21.4585   28.7385   14.4539 O   0  0  0  0  0  0  0  0  0  0  0  0
   22.8373   28.7345   14.8189 C   0  0  0  0  0  0  0  0  0  0  0  0
   19.0206   28.3630   13.7739 H   0  0  0  0  0  0  0  0  0  0  0  0
   17.6391   26.3559   14.2419 H   0  0  0  0  0  0  0  0  0  0  0  0
   21.0291   24.5287   16.2044 H   0  0  0  0  0  0  0  0  0  0  0  0
   22.3806   26.4640   15.7127 H   0  0  0  0  0  0  0  0  0  0  0  0
   18.5777   25.6701   18.3363 H   0  0  0  0  0  0  0  0  0  0  0  0
   19.5640   24.2450   18.0230 H   0  0  0  0  0  0  0  0  0  0  0  0
   17.1893   24.3490   19.9294 H   0  0  0  0  0  0  0  0  0  0  0  0
   17.8705   22.0237   20.5378 H   0  0  0  0  0  0  0  0  0  0  0  0
   19.0833   22.0294   19.2419 H   0  0  0  0  0  0  0  0  0  0  0  0
   17.3638   22.0921   18.8499 H   0  0  0  0  0  0  0  0  0  0  0  0
   19.2379   25.4922   20.7562 H   0  0  0  0  0  0  0  0  0  0  0  0
   20.1760   24.0127   20.4769 H   0  0  0  0  0  0  0  0  0  0  0  0
   18.8703   24.0247   21.6750 H   0  0  0  0  0  0  0  0  0  0  0  0
   15.9634   25.2289   16.2858 H   0  0  0  0  0  0  0  0  0  0  0  0
   16.3338   25.7435   17.8820 H   0  0  0  0  0  0  0  0  0  0  0  0
   15.5503   23.4592   18.7873 H   0  0  0  0  0  0  0  0  0  0  0  0
   14.2873   25.2906   18.8869 H   0  0  0  0  0  0  0  0  0  0  0  0
   15.6896   22.1808   16.6411 H   0  0  0  0  0  0  0  0  0  0  0  0
   12.9603   22.1550   17.8734 H   0  0  0  0  0  0  0  0  0  0  0  0
   14.4048   18.3088   18.9736 H   0  0  0  0  0  0  0  0  0  0  0  0
   13.1329   19.2981   21.1406 H   0  0  0  0  0  0  0  0  0  0  0  0
   13.1764   17.5254   20.9074 H   0  0  0  0  0  0  0  0  0  0  0  0
   10.7526   16.8036   19.2998 H   0  0  0  0  0  0  0  0  0  0  0  0
   10.9792   20.1459   17.4299 H   0  0  0  0  0  0  0  0  0  0  0  0
   10.0500   19.0847   16.3618 H   0  0  0  0  0  0  0  0  0  0  0  0
   12.7823   18.8645   16.4172 H   0  0  0  0  0  0  0  0  0  0  0  0
   11.7498   17.4549   16.2519 H   0  0  0  0  0  0  0  0  0  0  0  0
   12.8039   16.7542   18.2117 H   0  0  0  0  0  0  0  0  0  0  0  0
   14.6339   24.0848   15.2387 H   0  0  0  0  0  0  0  0  0  0  0  0
   13.0986   23.6863   15.9564 H   0  0  0  0  0  0  0  0  0  0  0  0
   11.6645   22.1332   14.9369 H   0  0  0  0  0  0  0  0  0  0  0  0
   12.6101   20.8549   15.6691 H   0  0  0  0  0  0  0  0  0  0  0  0
   11.2701   19.9603   13.8013 H   0  0  0  0  0  0  0  0  0  0  0  0
   13.1240   18.8903   12.5128 H   0  0  0  0  0  0  0  0  0  0  0  0
   13.4954   18.9152   14.2327 H   0  0  0  0  0  0  0  0  0  0  0  0
   15.4734   19.6383   12.9127 H   0  0  0  0  0  0  0  0  0  0  0  0
   14.2169   20.5242   10.9475 H   0  0  0  0  0  0  0  0  0  0  0  0
   15.3484   21.7294   11.5598 H   0  0  0  0  0  0  0  0  0  0  0  0
   13.1242   22.7656   11.1099 H   0  0  0  0  0  0  0  0  0  0  0  0
   14.5093   23.6499   12.9713 H   0  0  0  0  0  0  0  0  0  0  0  0
   12.7946   23.8113   13.3392 H   0  0  0  0  0  0  0  0  0  0  0  0
   15.1495   20.6405   15.1359 H   0  0  0  0  0  0  0  0  0  0  0  0
   15.8883   21.8028   14.0416 H   0  0  0  0  0  0  0  0  0  0  0  0
   11.1562   22.1004   12.5057 H   0  0  0  0  0  0  0  0  0  0  0  0
   11.6851   20.7660   11.4831 H   0  0  0  0  0  0  0  0  0  0  0  0
   23.2722   29.7071   14.5760 H   0  0  0  0  0  0  0  0  0  0  0  0
   23.3772   27.9696   14.2494 H   0  0  0  0  0  0  0  0  0  0  0  0
   22.9581   28.5814   15.8977 H   0  0  0  0  0  0  0  0  0  0  0  0
  1  2  2  0  0  0  0
  1  6  1  0  0  0  0
  1 42  1  0  0  0  0
  2  3  1  0  0  0  0
  2 44  1  0  0  0  0
  3  4  2  0  0  0  0
  3 45  1  0  0  0  0
  4  5  1  0  0  0  0
  4  7  1  0  0  0  0
  5  6  2  0  0  0  0
  5 46  1  0  0  0  0
  6 47  1  0  0  0  0
  7  8  2  0  0  0  0
  7  9  2  0  0  0  0
  7 10  1  0  0  0  0
 10 11  1  0  0  0  0
 10 15  1  0  0  0  0
 11 12  1  0  0  0  0
 11 48  1  0  0  0  0
 11 49  1  0  0  0  0
 12 13  1  0  0  0  0
 12 14  1  0  0  0  0
 12 50  1  0  0  0  0
 13 51  1  0  0  0  0
 13 52  1  0  0  0  0
 13 53  1  0  0  0  0
 14 54  1  0  0  0  0
 14 55  1  0  0  0  0
 14 56  1  0  0  0  0
 15 16  1  0  0  0  0
 15 57  1  0  0  0  0
 15 58  1  0  0  0  0
 16 17  1  0  0  0  0
 16 18  1  0  0  0  0
 16 59  1  1  0  0  0
 17 60  1  0  0  0  0
 18 19  1  0  0  0  0
 18 31  1  0  0  0  0
 18 61  1  6  0  0  0
 19 20  1  0  0  0  0
 19 62  1  0  0  0  0
 20 21  2  0  0  0  0
 20 22  1  0  0  0  0
 22 23  1  0  0  0  0
 23 24  1  0  0  0  0
 23 30  1  0  0  0  0
 23 63  1  6  0  0  0
 24 25  1  0  0  0  0
 24 64  1  0  0  0  0
 24 65  1  0  0  0  0
 25 26  1  0  0  0  0
 26 27  1  0  0  0  0
 26 30  1  0  0  0  0
 26 66  1  1  0  0  0
 27 28  1  0  0  0  0
 28 29  1  0  0  0  0
 28 67  1  0  0  0  0
 28 68  1  0  0  0  0
 29 30  1  0  0  0  0
 29 69  1  0  0  0  0
 29 70  1  0  0  0  0
 30 71  1  6  0  0  0
 31 72  1  0  0  0  0
 31 73  1  0  0  0  0
 32 31  1  1  0  0  0
 32 33  1  0  0  0  0
 32 39  1  0  0  0  0
 32 40  1  0  0  0  0
 33 34  1  0  0  0  0
 33 74  1  0  0  0  0
 33 75  1  0  0  0  0
 34 35  1  0  0  0  0
 34 41  1  0  0  0  0
 34 76  1  1  0  0  0
 35 36  1  0  0  0  0
 35 77  1  0  0  0  0
 35 78  1  0  0  0  0
 36 37  1  0  0  0  0
 36 40  1  0  0  0  0
 36 79  1  6  0  0  0
 37 38  1  0  0  0  0
 37 80  1  0  0  0  0
 37 81  1  0  0  0  0
 38 39  1  0  0  0  0
 38 41  1  0  0  0  0
 38 82  1  6  0  0  0
 39 83  1  0  0  0  0
 39 84  1  0  0  0  0
 40 85  1  0  0  0  0
 40 86  1  0  0  0  0
 41 87  1  0  0  0  0
 41 88  1  0  0  0  0
 42 43  1  0  0  0  0
 43 89  1  0  0  0  0
 43 90  1  0  0  0  0
 43 91  1  0  0  0  0
M  END
$$$$
