6KQ
 OpenBabel04161910463D

 92 98  0  0  1  0  0  0  0  0999 V2000
   21.2356   27.7298   14.8917 C   0  0  0  0  0  0  0  0  0  0  0  0
   19.1081   26.5687   14.7772 C   0  0  0  0  0  0  0  0  0  0  0  0
   21.0154   25.5284   15.8618 C   0  0  0  0  0  0  0  0  0  0  0  0
   21.7898   26.6387   15.5645 C   0  0  0  0  0  0  0  0  0  0  0  0
   19.6640   23.0048   16.1928 O   0  0  0  0  0  0  0  0  0  0  0  0
   17.9220   24.4963   17.3264 N   0  0  0  0  0  0  0  0  0  0  0  0
   16.5900   25.1260   17.2284 C   0  0  0  0  0  0  0  0  0  0  0  0
   15.4890   24.2048   17.8050 C   0  0  1  0  0  0  0  0  0  0  0  0
   14.2985   24.9710   18.0385 O   0  0  0  0  0  0  0  0  0  0  0  0
   14.6473   20.9005   18.1203 C   0  0  0  0  0  0  0  0  0  0  0  0
   10.4917   18.7792   18.3761 O   0  0  0  0  0  0  0  0  0  0  0  0
   11.1348   19.4375   17.2819 C   0  0  0  0  0  0  0  0  0  0  0  0
   12.3102   18.5566   16.9132 C   0  0  0  0  0  0  0  0  0  0  0  0
   12.7479   18.0055   18.2459 C   0  0  1  0  0  0  0  0  0  0  0  0
   14.5123   23.4677   15.5757 C   0  0  0  0  0  0  0  0  0  0  0  0
   21.9331   28.8645   14.5652 O   0  0  0  0  0  0  0  0  0  0  0  0
   23.2720   28.8930   15.0564 C   0  0  0  0  0  0  0  0  0  0  0  0
   19.8931   27.6907   14.4954 C   0  0  0  0  0  0  0  0  0  0  0  0
   19.6711   25.5043   15.4871 C   0  0  0  0  0  0  0  0  0  0  0  0
   18.7152   24.0650   15.8906 S   0  0  0  0  0  0  0  0  0  0  0  0
   17.7365   23.9058   14.8385 O   0  0  0  0  0  0  0  0  0  0  0  0
   18.7496   24.9547   18.4669 C   0  0  0  0  0  0  0  0  0  0  0  0
   20.5056   23.8863   19.9175 C   0  0  0  0  0  0  0  0  0  0  0  0
   20.9403   22.8805   20.7841 C   0  0  0  0  0  0  0  0  0  0  0  0
   20.0685   21.8610   21.1650 C   0  0  0  0  0  0  0  0  0  0  0  0
   18.7611   21.8544   20.6926 C   0  0  0  0  0  0  0  0  0  0  0  0
   18.3369   22.8485   19.8186 C   0  0  0  0  0  0  0  0  0  0  0  0
   19.2016   23.8680   19.4040 C   0  0  0  0  0  0  0  0  0  0  0  0
   15.1545   22.9961   16.8967 C   0  0  2  0  0  0  0  0  0  0  0  0
   14.2532   22.0906   17.6088 N   0  0  0  0  0  0  0  0  0  0  0  0
   15.7804   20.4409   18.0669 O   0  0  0  0  0  0  0  0  0  0  0  0
   13.5872   20.2577   18.6583 O   0  0  0  0  0  0  0  0  0  0  0  0
   13.7458   18.8678   19.0081 C   0  0  1  0  0  0  0  0  0  0  0  0
   13.2672   18.6939   20.4320 C   0  0  0  0  0  0  0  0  0  0  0  0
   11.8340   18.7049   20.3394 O   0  0  0  0  0  0  0  0  0  0  0  0
   11.4915   18.0621   19.1051 C   0  0  1  0  0  0  0  0  0  0  0  0
   14.2832   22.4115   14.4786 C   0  0  1  0  0  0  0  0  0  0  0  0
   12.9908   21.6138   14.7482 C   0  0  0  0  0  0  0  0  0  0  0  0
   12.7353   20.5957   13.6291 C   0  0  2  0  0  0  0  0  0  0  0  0
   13.9346   19.6414   13.5023 C   0  0  0  0  0  0  0  0  0  0  0  0
   15.2143   20.4320   13.1979 C   0  0  1  0  0  0  0  0  0  0  0  0
   15.0372   21.2010   11.8835 C   0  0  0  0  0  0  0  0  0  0  0  0
   13.8363   22.1503   11.9918 C   0  0  2  0  0  0  0  0  0  0  0  0
   14.1002   23.1552   13.1263 C   0  0  0  0  0  0  0  0  0  0  0  0
   15.4681   21.4266   14.3345 C   0  0  0  0  0  0  0  0  0  0  0  0
   12.5602   21.3629   12.3123 C   0  0  0  0  0  0  0  0  0  0  0  0
   18.0762   26.5258   14.4346 H   0  0  0  0  0  0  0  0  0  0  0  0
   21.4675   24.6945   16.3950 H   0  0  0  0  0  0  0  0  0  0  0  0
   22.8301   26.6071   15.8698 H   0  0  0  0  0  0  0  0  0  0  0  0
   16.3606   25.4148   16.2015 H   0  0  0  0  0  0  0  0  0  0  0  0
   16.5750   26.0831   17.7623 H   0  0  0  0  0  0  0  0  0  0  0  0
   15.7847   23.8295   18.7878 H   0  0  0  0  0  0  0  0  0  0  0  0
   14.5027   25.6135   18.7384 H   0  0  0  0  0  0  0  0  0  0  0  0
   11.4400   20.4317   17.6221 H   0  0  0  0  0  0  0  0  0  0  0  0
   10.4368   19.5745   16.4523 H   0  0  0  0  0  0  0  0  0  0  0  0
   13.1113   19.0859   16.3997 H   0  0  0  0  0  0  0  0  0  0  0  0
   11.9762   17.7474   16.2547 H   0  0  0  0  0  0  0  0  0  0  0  0
   13.1158   16.9738   18.1676 H   0  0  0  0  0  0  0  0  0  0  0  0
   15.1443   24.2421   15.1348 H   0  0  0  0  0  0  0  0  0  0  0  0
   13.5557   23.9606   15.7940 H   0  0  0  0  0  0  0  0  0  0  0  0
   23.7508   29.8209   14.7390 H   0  0  0  0  0  0  0  0  0  0  0  0
   23.8576   28.0632   14.6423 H   0  0  0  0  0  0  0  0  0  0  0  0
   23.2736   28.8663   16.1529 H   0  0  0  0  0  0  0  0  0  0  0  0
   19.4601   28.5341   13.9586 H   0  0  0  0  0  0  0  0  0  0  0  0
   18.2121   25.7070   19.0577 H   0  0  0  0  0  0  0  0  0  0  0  0
   19.6251   25.4931   18.0947 H   0  0  0  0  0  0  0  0  0  0  0  0
   21.2025   24.6713   19.6329 H   0  0  0  0  0  0  0  0  0  0  0  0
   21.9603   22.8843   21.1522 H   0  0  0  0  0  0  0  0  0  0  0  0
   20.4089   21.0653   21.8189 H   0  0  0  0  0  0  0  0  0  0  0  0
   18.0709   21.0654   20.9806 H   0  0  0  0  0  0  0  0  0  0  0  0
   17.3244   22.7847   19.4442 H   0  0  0  0  0  0  0  0  0  0  0  0
   16.0862   22.4590   16.6970 H   0  0  0  0  0  0  0  0  0  0  0  0
   13.2859   22.3595   17.7254 H   0  0  0  0  0  0  0  0  0  0  0  0
   14.7753   18.5217   18.8700 H   0  0  0  0  0  0  0  0  0  0  0  0
   13.5989   19.4957   21.0951 H   0  0  0  0  0  0  0  0  0  0  0  0
   13.5675   17.7236   20.8454 H   0  0  0  0  0  0  0  0  0  0  0  0
   11.1007   17.0675   19.3419 H   0  0  0  0  0  0  0  0  0  0  0  0
   12.1349   22.2964   14.8352 H   0  0  0  0  0  0  0  0  0  0  0  0
   13.0568   21.0864   15.6968 H   0  0  0  0  0  0  0  0  0  0  0  0
   11.8289   20.0262   13.8565 H   0  0  0  0  0  0  0  0  0  0  0  0
   13.7480   18.9123   12.7073 H   0  0  0  0  0  0  0  0  0  0  0  0
   14.0702   19.0719   14.4276 H   0  0  0  0  0  0  0  0  0  0  0  0
   16.0660   19.7469   13.1170 H   0  0  0  0  0  0  0  0  0  0  0  0
   14.8840   20.4971   11.0569 H   0  0  0  0  0  0  0  0  0  0  0  0
   15.9477   21.7691   11.6569 H   0  0  0  0  0  0  0  0  0  0  0  0
   13.7093   22.6856   11.0435 H   0  0  0  0  0  0  0  0  0  0  0  0
   14.9957   23.7451   12.8922 H   0  0  0  0  0  0  0  0  0  0  0  0
   13.2658   23.8648   13.1967 H   0  0  0  0  0  0  0  0  0  0  0  0
   15.6246   20.8608   15.2599 H   0  0  0  0  0  0  0  0  0  0  0  0
   16.3933   21.9723   14.1349 H   0  0  0  0  0  0  0  0  0  0  0  0
   11.7070   22.0483   12.3921 H   0  0  0  0  0  0  0  0  0  0  0  0
   12.3344   20.6633   11.4996 H   0  0  0  0  0  0  0  0  0  0  0  0
  1  4  2  0  0  0  0
  1 16  1  0  0  0  0
  1 18  1  0  0  0  0
  2 18  2  0  0  0  0
  2 19  1  0  0  0  0
  2 47  1  0  0  0  0
  3  4  1  0  0  0  0
  3 19  2  0  0  0  0
  3 48  1  0  0  0  0
  4 49  1  0  0  0  0
  5 20  2  0  0  0  0
  6  7  1  0  0  0  0
  6 20  1  0  0  0  0
  6 22  1  0  0  0  0
  7  8  1  0  0  0  0
  7 50  1  0  0  0  0
  7 51  1  0  0  0  0
  8  9  1  0  0  0  0
  8 29  1  0  0  0  0
  8 52  1  1  0  0  0
  9 53  1  0  0  0  0
 10 30  1  0  0  0  0
 10 31  2  0  0  0  0
 10 32  1  0  0  0  0
 11 12  1  0  0  0  0
 11 36  1  0  0  0  0
 12 13  1  0  0  0  0
 12 54  1  0  0  0  0
 12 55  1  0  0  0  0
 13 14  1  0  0  0  0
 13 56  1  0  0  0  0
 13 57  1  0  0  0  0
 14 33  1  0  0  0  0
 14 36  1  0  0  0  0
 14 58  1  6  0  0  0
 15 29  1  0  0  0  0
 15 59  1  0  0  0  0
 15 60  1  0  0  0  0
 16 17  1  0  0  0  0
 17 61  1  0  0  0  0
 17 62  1  0  0  0  0
 17 63  1  0  0  0  0
 18 64  1  0  0  0  0
 19 20  1  0  0  0  0
 20 21  2  0  0  0  0
 22 28  1  0  0  0  0
 22 65  1  0  0  0  0
 22 66  1  0  0  0  0
 23 24  2  0  0  0  0
 23 28  1  0  0  0  0
 23 67  1  0  0  0  0
 24 25  1  0  0  0  0
 24 68  1  0  0  0  0
 25 26  2  0  0  0  0
 25 69  1  0  0  0  0
 26 27  1  0  0  0  0
 26 70  1  0  0  0  0
 27 28  2  0  0  0  0
 27 71  1  0  0  0  0
 29 30  1  0  0  0  0
 29 72  1  6  0  0  0
 30 73  1  0  0  0  0
 32 33  1  0  0  0  0
 33 34  1  0  0  0  0
 33 74  1  6  0  0  0
 34 35  1  0  0  0  0
 34 75  1  0  0  0  0
 34 76  1  0  0  0  0
 35 36  1  0  0  0  0
 36 77  1  1  0  0  0
 37 15  1  1  0  0  0
 37 38  1  0  0  0  0
 37 44  1  0  0  0  0
 37 45  1  0  0  0  0
 38 39  1  0  0  0  0
 38 78  1  0  0  0  0
 38 79  1  0  0  0  0
 39 40  1  0  0  0  0
 39 46  1  0  0  0  0
 39 80  1  1  0  0  0
 40 41  1  0  0  0  0
 40 81  1  0  0  0  0
 40 82  1  0  0  0  0
 41 42  1  0  0  0  0
 41 45  1  0  0  0  0
 41 83  1  6  0  0  0
 42 43  1  0  0  0  0
 42 84  1  0  0  0  0
 42 85  1  0  0  0  0
 43 44  1  0  0  0  0
 43 46  1  0  0  0  0
 43 86  1  6  0  0  0
 44 87  1  0  0  0  0
 44 88  1  0  0  0  0
 45 89  1  0  0  0  0
 45 90  1  0  0  0  0
 46 91  1  0  0  0  0
 46 92  1  0  0  0  0
M  END
$$$$
