6KR
 OpenBabel04161910473D

 94 99  0  0  1  0  0  0  0  0999 V2000
   19.0911   22.8851   15.8516 O   0  0  0  0  0  0  0  0  0  0  0  0
   18.5058   24.5951   18.3679 C   0  0  0  0  0  0  0  0  0  0  0  0
   18.1691   23.9698   19.7261 C   0  0  0  0  0  0  0  0  0  0  0  0
   18.2132   22.4510   19.6460 C   0  0  0  0  0  0  0  0  0  0  0  0
   19.1620   24.4200   20.7922 C   0  0  0  0  0  0  0  0  0  0  0  0
   16.2412   24.8431   17.4565 C   0  0  0  0  0  0  0  0  0  0  0  0
   15.1383   23.8953   17.9530 C   0  0  2  0  0  0  0  0  0  0  0  0
   14.7357   22.7673   16.9605 C   0  0  1  0  0  0  0  0  0  0  0  0
   14.2449   20.6329   18.1318 C   0  0  0  0  0  0  0  0  0  0  0  0
   13.4732   18.7505   19.4006 C   0  0  2  0  0  0  0  0  0  0  0  0
   12.8958   18.7782   20.8018 C   0  0  0  0  0  0  0  0  0  0  0  0
   10.4359   18.6905   18.6929 O   0  0  0  0  0  0  0  0  0  0  0  0
   20.6978   27.6880   14.8185 C   0  0  0  0  0  0  0  0  0  0  0  0
   19.3602   27.6468   14.4248 C   0  0  0  0  0  0  0  0  0  0  0  0
   18.5755   26.5080   14.6482 C   0  0  0  0  0  0  0  0  0  0  0  0
   19.1302   25.4269   15.3315 C   0  0  0  0  0  0  0  0  0  0  0  0
   20.4814   25.4321   15.6342 C   0  0  0  0  0  0  0  0  0  0  0  0
   21.2793   26.5412   15.3482 C   0  0  0  0  0  0  0  0  0  0  0  0
   18.1510   23.9920   15.7362 S   0  0  0  0  0  0  0  0  0  0  0  0
   17.0957   23.9528   14.7925 O   0  0  0  0  0  0  0  0  0  0  0  0
   17.5418   24.1954   17.3142 N   0  0  0  0  0  0  0  0  0  0  0  0
   14.0014   24.7297   18.2558 O   0  0  0  0  0  0  0  0  0  0  0  0
   13.8331   21.8248   17.6215 N   0  0  0  0  0  0  0  0  0  0  0  0
   15.3595   20.1907   18.0352 O   0  0  0  0  0  0  0  0  0  0  0  0
   13.2003   20.0163   18.7586 O   0  0  0  0  0  0  0  0  0  0  0  0
   11.5089   18.3838   20.7226 O   0  0  0  0  0  0  0  0  0  0  0  0
   11.2700   17.8049   19.4340 C   0  0  2  0  0  0  0  0  0  0  0  0
   10.2198   18.2117   17.3796 C   0  0  0  0  0  0  0  0  0  0  0  0
   11.5323   18.3163   16.6484 C   0  0  0  0  0  0  0  0  0  0  0  0
   12.6445   17.5472   17.3174 C   0  0  0  0  0  0  0  0  0  0  0  0
   12.6463   17.6237   18.8134 C   0  0  1  0  0  0  0  0  0  0  0  0
   14.0167   23.2888   15.7208 C   0  0  0  0  0  0  0  0  0  0  0  0
   13.7428   22.2914   14.5787 C   0  0  1  0  0  0  0  0  0  0  0  0
   12.4283   21.5263   14.7861 C   0  0  0  0  0  0  0  0  0  0  0  0
   12.1408   20.6251   13.5835 C   0  0  2  0  0  0  0  0  0  0  0  0
   13.2650   19.5967   13.4272 C   0  0  0  0  0  0  0  0  0  0  0  0
   14.5810   20.3376   13.1913 C   0  0  1  0  0  0  0  0  0  0  0  0
   14.4560   21.1889   11.9218 C   0  0  0  0  0  0  0  0  0  0  0  0
   13.3340   22.2300   12.0769 C   0  0  2  0  0  0  0  0  0  0  0  0
   13.6185   23.1213   13.2882 C   0  0  0  0  0  0  0  0  0  0  0  0
   14.8730   21.2811   14.3608 C   0  0  0  0  0  0  0  0  0  0  0  0
   12.0165   21.4927   12.3247 C   0  0  0  0  0  0  0  0  0  0  0  0
   21.3387   28.8869   14.6512 O   0  0  0  0  0  0  0  0  0  0  0  0
   22.7141   28.8856   15.0205 C   0  0  0  0  0  0  0  0  0  0  0  0
   19.5130   24.2979   18.0700 H   0  0  0  0  0  0  0  0  0  0  0  0
   18.4783   25.6897   18.4459 H   0  0  0  0  0  0  0  0  0  0  0  0
   17.1677   24.2885   20.0382 H   0  0  0  0  0  0  0  0  0  0  0  0
   17.9801   22.0112   20.6217 H   0  0  0  0  0  0  0  0  0  0  0  0
   19.2122   22.1182   19.3407 H   0  0  0  0  0  0  0  0  0  0  0  0
   17.4852   22.0882   18.9168 H   0  0  0  0  0  0  0  0  0  0  0  0
   19.1571   25.5100   20.8861 H   0  0  0  0  0  0  0  0  0  0  0  0
   20.1743   24.0907   20.5291 H   0  0  0  0  0  0  0  0  0  0  0  0
   18.8968   23.9827   21.7635 H   0  0  0  0  0  0  0  0  0  0  0  0
   16.3498   25.6635   18.1749 H   0  0  0  0  0  0  0  0  0  0  0  0
   15.9546   25.2817   16.5047 H   0  0  0  0  0  0  0  0  0  0  0  0
   15.4555   23.4104   18.8843 H   0  0  0  0  0  0  0  0  0  0  0  0
   15.6625   22.2711   16.6629 H   0  0  0  0  0  0  0  0  0  0  0  0
   14.5473   18.5205   19.3955 H   0  0  0  0  0  0  0  0  0  0  0  0
   12.9569   19.7715   21.2440 H   0  0  0  0  0  0  0  0  0  0  0  0
   13.3957   18.0490   21.4492 H   0  0  0  0  0  0  0  0  0  0  0  0
   18.9279   28.5126   13.9288 H   0  0  0  0  0  0  0  0  0  0  0  0
   17.5371   26.5013   14.3323 H   0  0  0  0  0  0  0  0  0  0  0  0
   20.9048   24.5756   16.1484 H   0  0  0  0  0  0  0  0  0  0  0  0
   22.3438   26.4922   15.5459 H   0  0  0  0  0  0  0  0  0  0  0  0
   13.7119   25.1491   17.4281 H   0  0  0  0  0  0  0  0  0  0  0  0
   12.8572   22.0574   17.7162 H   0  0  0  0  0  0  0  0  0  0  0  0
   10.7649   16.8295   19.5453 H   0  0  0  0  0  0  0  0  0  0  0  0
    9.4630   18.8238   16.8693 H   0  0  0  0  0  0  0  0  0  0  0  0
    9.8606   17.1768   17.4059 H   0  0  0  0  0  0  0  0  0  0  0  0
   11.8258   19.3623   16.6316 H   0  0  0  0  0  0  0  0  0  0  0  0
   11.4284   17.9394   15.6336 H   0  0  0  0  0  0  0  0  0  0  0  0
   13.6051   17.9143   16.9498 H   0  0  0  0  0  0  0  0  0  0  0  0
   12.5373   16.4908   17.0537 H   0  0  0  0  0  0  0  0  0  0  0  0
   13.0790   16.6837   19.1793 H   0  0  0  0  0  0  0  0  0  0  0  0
   14.6116   24.1013   15.2994 H   0  0  0  0  0  0  0  0  0  0  0  0
   13.0490   23.6954   16.0344 H   0  0  0  0  0  0  0  0  0  0  0  0
   11.6009   22.2323   14.9154 H   0  0  0  0  0  0  0  0  0  0  0  0
   12.4988   20.9155   15.6829 H   0  0  0  0  0  0  0  0  0  0  0  0
   11.2051   20.0988   13.7415 H   0  0  0  0  0  0  0  0  0  0  0  0
   13.0484   18.9299   12.5807 H   0  0  0  0  0  0  0  0  0  0  0  0
   13.3327   18.9791   14.3330 H   0  0  0  0  0  0  0  0  0  0  0  0
   15.3978   19.6148   13.0925 H   0  0  0  0  0  0  0  0  0  0  0  0
   14.2415   20.5348   11.0686 H   0  0  0  0  0  0  0  0  0  0  0  0
   15.4069   21.7002   11.7410 H   0  0  0  0  0  0  0  0  0  0  0  0
   13.2588   22.8429   11.1717 H   0  0  0  0  0  0  0  0  0  0  0  0
   14.5605   23.6624   13.1370 H   0  0  0  0  0  0  0  0  0  0  0  0
   12.8145   23.8563   13.4218 H   0  0  0  0  0  0  0  0  0  0  0  0
   15.0123   20.6898   15.2657 H   0  0  0  0  0  0  0  0  0  0  0  0
   15.7899   21.8322   14.1409 H   0  0  0  0  0  0  0  0  0  0  0  0
   11.2033   22.2170   12.4643 H   0  0  0  0  0  0  0  0  0  0  0  0
   11.7704   20.8609   11.4629 H   0  0  0  0  0  0  0  0  0  0  0  0
   23.1343   29.8827   14.8549 H   0  0  0  0  0  0  0  0  0  0  0  0
   23.2654   28.1697   14.4016 H   0  0  0  0  0  0  0  0  0  0  0  0
   22.8291   28.6324   16.0806 H   0  0  0  0  0  0  0  0  0  0  0  0
  1 19  2  0  0  0  0
  2  3  1  0  0  0  0
  2 21  1  0  0  0  0
  2 45  1  0  0  0  0
  2 46  1  0  0  0  0
  3  4  1  0  0  0  0
  3  5  1  0  0  0  0
  3 47  1  0  0  0  0
  4 48  1  0  0  0  0
  4 49  1  0  0  0  0
  4 50  1  0  0  0  0
  5 51  1  0  0  0  0
  5 52  1  0  0  0  0
  5 53  1  0  0  0  0
  6  7  1  0  0  0  0
  6 21  1  0  0  0  0
  6 54  1  0  0  0  0
  6 55  1  0  0  0  0
  7  8  1  0  0  0  0
  7 22  1  0  0  0  0
  7 56  1  1  0  0  0
  8 23  1  0  0  0  0
  8 32  1  0  0  0  0
  8 57  1  6  0  0  0
  9 23  1  0  0  0  0
  9 24  2  0  0  0  0
  9 25  1  0  0  0  0
 10 11  1  0  0  0  0
 10 25  1  0  0  0  0
 10 31  1  0  0  0  0
 10 58  1  1  0  0  0
 11 26  1  0  0  0  0
 11 59  1  0  0  0  0
 11 60  1  0  0  0  0
 12 27  1  0  0  0  0
 12 28  1  0  0  0  0
 13 14  2  0  0  0  0
 13 18  1  0  0  0  0
 13 43  1  0  0  0  0
 14 15  1  0  0  0  0
 14 61  1  0  0  0  0
 15 16  2  0  0  0  0
 15 62  1  0  0  0  0
 16 17  1  0  0  0  0
 16 19  1  0  0  0  0
 17 18  2  0  0  0  0
 17 63  1  0  0  0  0
 18 64  1  0  0  0  0
 19 20  2  0  0  0  0
 19 21  1  0  0  0  0
 22 65  1  0  0  0  0
 23 66  1  0  0  0  0
 26 27  1  0  0  0  0
 27 31  1  0  0  0  0
 27 67  1  1  0  0  0
 28 29  1  0  0  0  0
 28 68  1  0  0  0  0
 28 69  1  0  0  0  0
 29 30  1  0  0  0  0
 29 70  1  0  0  0  0
 29 71  1  0  0  0  0
 30 31  1  0  0  0  0
 30 72  1  0  0  0  0
 30 73  1  0  0  0  0
 31 74  1  1  0  0  0
 32 75  1  0  0  0  0
 32 76  1  0  0  0  0
 33 32  1  1  0  0  0
 33 34  1  0  0  0  0
 33 40  1  0  0  0  0
 33 41  1  0  0  0  0
 34 35  1  0  0  0  0
 34 77  1  0  0  0  0
 34 78  1  0  0  0  0
 35 36  1  0  0  0  0
 35 42  1  0  0  0  0
 35 79  1  1  0  0  0
 36 37  1  0  0  0  0
 36 80  1  0  0  0  0
 36 81  1  0  0  0  0
 37 38  1  0  0  0  0
 37 41  1  0  0  0  0
 37 82  1  6  0  0  0
 38 39  1  0  0  0  0
 38 83  1  0  0  0  0
 38 84  1  0  0  0  0
 39 40  1  0  0  0  0
 39 42  1  0  0  0  0
 39 85  1  6  0  0  0
 40 86  1  0  0  0  0
 40 87  1  0  0  0  0
 41 88  1  0  0  0  0
 41 89  1  0  0  0  0
 42 90  1  0  0  0  0
 42 91  1  0  0  0  0
 43 44  1  0  0  0  0
 44 92  1  0  0  0  0
 44 93  1  0  0  0  0
 44 94  1  0  0  0  0
M  END
$$$$
