6KT
 OpenBabel04161910473D

 20 21  0  0  0  0  0  0  0  0999 V2000
    4.9889    8.1402    9.4501 C   0  0  0  0  0  0  0  0  0  0  0  0
    5.9394    7.7376    7.2658 C   0  0  0  0  0  0  0  0  0  0  0  0
    5.0034    7.4200    8.2460 C   0  0  0  0  0  0  0  0  0  0  0  0
    7.4805   11.0056   10.2162 C   0  0  0  0  0  0  0  0  0  0  0  0
    3.9959    6.3306    8.0465 C   0  0  0  0  0  0  0  0  0  0  0  0
    8.1515   12.0086   10.8096 N   0  0  0  0  0  0  0  0  0  0  0  0
    6.8862    9.4922    8.6615 C   0  0  0  0  0  0  0  0  0  0  0  0
    5.9393    9.1662    9.6305 C   0  0  0  0  0  0  0  0  0  0  0  0
    6.8887    8.7585    7.4528 C   0  0  0  0  0  0  0  0  0  0  0  0
    7.7465   10.5372    9.0136 N   0  0  0  0  0  0  0  0  0  0  0  0
    6.1584   10.2018   10.9911 S   0  0  0  0  0  0  0  0  0  0  0  0
    3.0564    6.2242    8.8588 O   0  0  0  0  0  0  0  0  0  0  0  0
    4.1372    5.4815    6.9962 N   0  0  0  0  0  0  0  0  0  0  0  0
    4.2650    7.9178   10.2314 H   0  0  0  0  0  0  0  0  0  0  0  0
    5.9411    7.1970    6.3284 H   0  0  0  0  0  0  0  0  0  0  0  0
    8.9329   12.4828   10.3518 H   0  0  0  0  0  0  0  0  0  0  0  0
    7.9313   12.3638   11.7413 H   0  0  0  0  0  0  0  0  0  0  0  0
    7.6188    8.9818    6.6754 H   0  0  0  0  0  0  0  0  0  0  0  0
    3.4685    4.7331    6.8469 H   0  0  0  0  0  0  0  0  0  0  0  0
    4.8847    5.5348    6.3319 H   0  0  0  0  0  0  0  0  0  0  0  0
  1  3  2  0  0  0  0
  1  8  1  0  0  0  0
  1 14  1  0  0  0  0
  2  3  1  0  0  0  0
  2  9  2  0  0  0  0
  2 15  1  0  0  0  0
  3  5  1  0  0  0  0
  4  6  1  0  0  0  0
  4 10  2  0  0  0  0
  4 11  1  0  0  0  0
  5 12  2  0  0  0  0
  5 13  1  0  0  0  0
  6 16  1  0  0  0  0
  6 17  1  0  0  0  0
  7  8  2  0  0  0  0
  7  9  1  0  0  0  0
  7 10  1  0  0  0  0
  8 11  1  0  0  0  0
  9 18  1  0  0  0  0
 13 19  1  0  0  0  0
 13 20  1  0  0  0  0
M  END
$$$$
