6MG
 OpenBabel04161910483D

 68 68  0  0  1  0  0  0  0  0999 V2000
   10.0896   38.3987   -3.5834 C   0  0  1  0  0  0  0  0  0  0  0  0
    8.9054   39.3288   -3.9053 C   0  0  0  0  0  0  0  0  0  0  0  0
    6.7212   43.5537   -3.6508 C   0  0  0  0  0  0  0  0  0  0  0  0
    7.5503   44.7340   -4.1886 C   0  0  0  0  0  0  0  0  0  0  0  0
    5.9056   44.1000   -2.4657 C   0  0  0  0  0  0  0  0  0  0  0  0
    5.7468   43.1017   -4.7604 C   0  0  0  0  0  0  0  0  0  0  0  0
    8.6856   42.7822   -2.1583 C   0  0  0  0  0  0  0  0  0  0  0  0
    7.7309   38.9614   -3.8860 O   0  0  0  0  0  0  0  0  0  0  0  0
    9.2701   37.9230   -1.1829 C   0  0  0  0  0  0  0  0  0  0  0  0
    9.1273   36.4066   -1.2999 C   0  0  0  0  0  0  0  0  0  0  0  0
    9.5239   38.3154    0.2718 C   0  0  0  0  0  0  0  0  0  0  0  0
   11.3063   38.8401   -4.2985 N   0  0  0  0  0  0  0  0  0  0  0  0
    9.2557   40.6593   -4.0337 N   0  0  0  0  0  0  0  0  0  0  0  0
    8.2919   41.6609   -4.3938 C   0  0  0  0  0  0  0  0  0  0  0  0
    7.6263   42.3556   -3.1872 C   0  0  2  0  0  0  0  0  0  0  0  0
   10.4045   38.4515   -2.0786 C   0  0  0  0  0  0  0  0  0  0  0  0
   11.4806   38.4639   -5.9656 P   0  0  1  0  0  0  0  0  0  0  0  0
   10.1247   38.1379   -6.5247 O   0  0  0  0  0  0  0  0  0  0  0  0
   11.9831   40.0968   -6.6184 C   0  0  0  0  0  0  0  0  0  0  0  0
   13.6585   41.6325  -10.8199 C   0  0  0  0  0  0  0  0  0  0  0  0
   14.9913   41.1802  -11.3799 C   0  0  0  0  0  0  0  0  0  0  0  0
   15.1000   40.6669  -12.6798 C   0  0  0  0  0  0  0  0  0  0  0  0
   16.3524   40.3189  -13.2097 C   0  0  0  0  0  0  0  0  0  0  0  0
   17.5044   40.4649  -12.4411 C   0  0  0  0  0  0  0  0  0  0  0  0
   17.4124   40.9877  -11.1546 C   0  0  0  0  0  0  0  0  0  0  0  0
   16.1659   41.3441  -10.6266 C   0  0  0  0  0  0  0  0  0  0  0  0
   12.6494   37.5243   -6.0682 O   0  0  0  0  0  0  0  0  0  0  0  0
   12.0356   40.0713   -8.0728 N   0  0  0  0  0  0  0  0  0  0  0  0
   12.9572   40.8050   -8.7500 C   0  0  0  0  0  0  0  0  0  0  0  0
   12.9184   40.6292  -10.0920 O   0  0  0  0  0  0  0  0  0  0  0  0
   13.7219   41.6061   -8.1796 O   0  0  0  0  0  0  0  0  0  0  0  0
    9.8257   37.3853   -3.9000 H   0  0  0  0  0  0  0  0  0  0  0  0
    6.8955   45.5528   -4.5051 H   0  0  0  0  0  0  0  0  0  0  0  0
    8.1621   44.4492   -5.0476 H   0  0  0  0  0  0  0  0  0  0  0  0
    8.2099   45.1437   -3.4166 H   0  0  0  0  0  0  0  0  0  0  0  0
    5.2834   43.3234   -2.0121 H   0  0  0  0  0  0  0  0  0  0  0  0
    5.2536   44.9194   -2.7890 H   0  0  0  0  0  0  0  0  0  0  0  0
    6.5598   44.5117   -1.6890 H   0  0  0  0  0  0  0  0  0  0  0  0
    6.2787   42.7300   -5.6432 H   0  0  0  0  0  0  0  0  0  0  0  0
    5.1285   43.9329   -5.1140 H   0  0  0  0  0  0  0  0  0  0  0  0
    5.0824   42.3053   -4.4073 H   0  0  0  0  0  0  0  0  0  0  0  0
    9.2925   41.9325   -1.8321 H   0  0  0  0  0  0  0  0  0  0  0  0
    8.2227   43.1950   -1.2583 H   0  0  0  0  0  0  0  0  0  0  0  0
    9.3691   43.5281   -2.5731 H   0  0  0  0  0  0  0  0  0  0  0  0
    8.3230   38.3838   -1.4787 H   0  0  0  0  0  0  0  0  0  0  0  0
    8.3173   36.0460   -0.6577 H   0  0  0  0  0  0  0  0  0  0  0  0
   10.0501   35.8977   -1.0008 H   0  0  0  0  0  0  0  0  0  0  0  0
    8.8911   36.1060   -2.3246 H   0  0  0  0  0  0  0  0  0  0  0  0
    9.6243   39.4021    0.3676 H   0  0  0  0  0  0  0  0  0  0  0  0
   10.4376   37.8523    0.6579 H   0  0  0  0  0  0  0  0  0  0  0  0
    8.6868   38.0029    0.9049 H   0  0  0  0  0  0  0  0  0  0  0  0
   12.1048   39.1947   -3.7951 H   0  0  0  0  0  0  0  0  0  0  0  0
   10.2470   40.8615   -4.0399 H   0  0  0  0  0  0  0  0  0  0  0  0
    7.5249   41.1707   -5.0036 H   0  0  0  0  0  0  0  0  0  0  0  0
    8.8108   42.3846   -5.0275 H   0  0  0  0  0  0  0  0  0  0  0  0
    6.9873   41.6119   -2.6878 H   0  0  0  0  0  0  0  0  0  0  0  0
   10.6366   39.4867   -1.7944 H   0  0  0  0  0  0  0  0  0  0  0  0
   11.3177   37.8749   -1.8797 H   0  0  0  0  0  0  0  0  0  0  0  0
   12.9628   40.3730   -6.1948 H   0  0  0  0  0  0  0  0  0  0  0  0
   11.2463   40.8594   -6.3179 H   0  0  0  0  0  0  0  0  0  0  0  0
   13.0205   41.9735  -11.6453 H   0  0  0  0  0  0  0  0  0  0  0  0
   13.8207   42.5372  -10.2188 H   0  0  0  0  0  0  0  0  0  0  0  0
   14.2140   40.5522  -13.3003 H   0  0  0  0  0  0  0  0  0  0  0  0
   16.4233   39.9374  -14.2222 H   0  0  0  0  0  0  0  0  0  0  0  0
   18.4713   40.1670  -12.8399 H   0  0  0  0  0  0  0  0  0  0  0  0
   18.3107   41.1266  -10.5543 H   0  0  0  0  0  0  0  0  0  0  0  0
   16.1133   41.7641   -9.6254 H   0  0  0  0  0  0  0  0  0  0  0  0
   11.4065   39.4318   -8.5377 H   0  0  0  0  0  0  0  0  0  0  0  0
  1  2  1  0  0  0  0
  1 12  1  0  0  0  0
  1 16  1  0  0  0  0
  1 32  1  6  0  0  0
  2  8  2  0  0  0  0
  2 13  1  0  0  0  0
  3  4  1  0  0  0  0
  3  5  1  0  0  0  0
  3  6  1  0  0  0  0
  3 15  1  0  0  0  0
  4 33  1  0  0  0  0
  4 34  1  0  0  0  0
  4 35  1  0  0  0  0
  5 36  1  0  0  0  0
  5 37  1  0  0  0  0
  5 38  1  0  0  0  0
  6 39  1  0  0  0  0
  6 40  1  0  0  0  0
  6 41  1  0  0  0  0
  7 15  1  0  0  0  0
  7 42  1  0  0  0  0
  7 43  1  0  0  0  0
  7 44  1  0  0  0  0
  9 10  1  0  0  0  0
  9 11  1  0  0  0  0
  9 16  1  0  0  0  0
  9 45  1  0  0  0  0
 10 46  1  0  0  0  0
 10 47  1  0  0  0  0
 10 48  1  0  0  0  0
 11 49  1  0  0  0  0
 11 50  1  0  0  0  0
 11 51  1  0  0  0  0
 12 52  1  0  0  0  0
 13 14  1  0  0  0  0
 13 53  1  0  0  0  0
 14 15  1  0  0  0  0
 14 54  1  0  0  0  0
 14 55  1  0  0  0  0
 15 56  1  1  0  0  0
 16 57  1  0  0  0  0
 16 58  1  0  0  0  0
 17 12  1  1  0  0  0
 17 18  2  0  0  0  0
 17 19  1  0  0  0  0
 17 27  1  0  0  0  0
 19 28  1  0  0  0  0
 19 59  1  0  0  0  0
 19 60  1  0  0  0  0
 20 21  1  0  0  0  0
 20 30  1  0  0  0  0
 20 61  1  0  0  0  0
 20 62  1  0  0  0  0
 21 22  2  0  0  0  0
 21 26  1  0  0  0  0
 22 23  1  0  0  0  0
 22 63  1  0  0  0  0
 23 24  2  0  0  0  0
 23 64  1  0  0  0  0
 24 25  1  0  0  0  0
 24 65  1  0  0  0  0
 25 26  2  0  0  0  0
 25 66  1  0  0  0  0
 26 67  1  0  0  0  0
 28 29  1  0  0  0  0
 28 68  1  0  0  0  0
 29 30  1  0  0  0  0
 29 31  2  0  0  0  0
M  END
$$$$
