6MS
 OpenBabel04161910493D

 37 38  0  0  0  0  0  0  0  0999 V2000
   40.7887   22.8726   40.9325 C   0  0  0  0  0  0  0  0  0  0  0  0
   40.6895   30.2846   39.7136 P   0  0  0  0  0  0  0  0  0  0  0  0
   42.8545   21.4852   46.3770 O   0  0  0  0  0  0  0  0  0  0  0  0
   41.9940   21.5064   45.5005 C   0  0  0  0  0  0  0  0  0  0  0  0
   40.7232   20.9726   45.7147 N   0  3  0  0  0  0  0  0  0  0  0  0
   39.6940   20.9450   44.7973 C   0  0  0  0  0  0  0  0  0  0  0  0
   38.6018   20.4062   45.1980 N   0  0  0  0  0  0  0  0  0  0  0  0
   39.9116   21.4799   43.5499 N   0  3  0  0  0  0  0  0  0  0  0  0
   41.1201   22.0088   43.2740 C   0  0  0  0  0  0  0  0  0  0  0  0
   42.1696   22.0553   44.1603 C   0  0  0  0  0  0  0  0  0  0  0  0
   43.2590   22.6566   43.5791 N   0  0  0  0  0  0  0  0  0  0  0  0
   42.8461   23.0126   42.3752 C   0  0  0  0  0  0  0  0  0  0  0  0
   41.5511   22.6176   42.1384 N   0  3  0  0  0  0  0  0  0  0  0  0
   39.8073   24.0309   41.1266 C   0  0  0  0  0  0  0  0  0  0  0  0
   39.9649   25.0756   40.0279 C   0  0  0  0  0  0  0  0  0  0  0  0
   39.2170   26.3780   40.3447 C   0  0  0  0  0  0  0  0  0  0  0  0
   40.1127   27.5589   39.9869 C   0  0  0  0  0  0  0  0  0  0  0  0
   39.4653   28.9212   40.1801 C   0  0  0  0  0  0  0  0  0  0  0  0
   41.7669   30.1298   40.7803 O   0  0  0  0  0  0  0  0  0  0  0  0
   41.1027   29.8870   38.3007 O   0  0  0  0  0  0  0  0  0  0  0  0
   39.8309   31.5376   39.8186 O   0  0  0  0  0  0  0  0  0  0  0  0
   40.2525   21.9475   40.6893 H   0  0  0  0  0  0  0  0  0  0  0  0
   41.5047   23.0504   40.1218 H   0  0  0  0  0  0  0  0  0  0  0  0
   40.5346   20.5878   46.6242 H   0  0  0  0  0  0  0  0  0  0  0  0
   37.9072   20.4406   44.4485 H   0  0  0  0  0  0  0  0  0  0  0  0
   39.1377   21.5210   42.9009 H   0  0  0  0  0  0  0  0  0  0  0  0
   43.4309   23.5624   41.6462 H   0  0  0  0  0  0  0  0  0  0  0  0
   39.9656   24.5090   42.1013 H   0  0  0  0  0  0  0  0  0  0  0  0
   38.7798   23.6479   41.1255 H   0  0  0  0  0  0  0  0  0  0  0  0
   39.6060   24.6690   39.0742 H   0  0  0  0  0  0  0  0  0  0  0  0
   41.0344   25.2812   39.8944 H   0  0  0  0  0  0  0  0  0  0  0  0
   38.9413   26.4357   41.4042 H   0  0  0  0  0  0  0  0  0  0  0  0
   38.2847   26.4150   39.7686 H   0  0  0  0  0  0  0  0  0  0  0  0
   40.4350   27.4621   38.9443 H   0  0  0  0  0  0  0  0  0  0  0  0
   41.0217   27.5157   40.5994 H   0  0  0  0  0  0  0  0  0  0  0  0
   38.5851   29.0405   39.5405 H   0  0  0  0  0  0  0  0  0  0  0  0
   39.1744   29.0886   41.2226 H   0  0  0  0  0  0  0  0  0  0  0  0
  1 13  1  0  0  0  0
  1 14  1  0  0  0  0
  1 22  1  0  0  0  0
  1 23  1  0  0  0  0
  2 18  1  0  0  0  0
  2 19  2  0  0  0  0
  2 20  1  0  0  0  0
  2 21  1  0  0  0  0
  3  4  2  0  0  0  0
  4  5  1  0  0  0  0
  4 10  1  0  0  0  0
  5  6  1  0  0  0  0
  5 24  1  0  0  0  0
  6  7  2  0  0  0  0
  6  8  1  0  0  0  0
  7 25  1  0  0  0  0
  8  9  2  0  0  0  0
  8 26  1  0  0  0  0
  9 10  1  0  0  0  0
  9 13  1  0  0  0  0
 10 11  2  0  0  0  0
 11 12  1  0  0  0  0
 12 13  2  0  0  0  0
 12 27  1  0  0  0  0
 14 15  1  0  0  0  0
 14 28  1  0  0  0  0
 14 29  1  0  0  0  0
 15 16  1  0  0  0  0
 15 30  1  0  0  0  0
 15 31  1  0  0  0  0
 16 17  1  0  0  0  0
 16 32  1  0  0  0  0
 16 33  1  0  0  0  0
 17 18  1  0  0  0  0
 17 34  1  0  0  0  0
 17 35  1  0  0  0  0
 18 36  1  0  0  0  0
 18 37  1  0  0  0  0
M  CHG  3   5   1   8   1  13   1
M  END
$$$$
