6NG
 OpenBabel04161910493D

 68 68  0  0  1  0  0  0  0  0999 V2000
   16.2405   41.3385  -10.6661 C   0  0  0  0  0  0  0  0  0  0  0  0
   17.4977   40.9878  -11.1737 C   0  0  0  0  0  0  0  0  0  0  0  0
   17.5899   40.4508  -12.4523 C   0  0  0  0  0  0  0  0  0  0  0  0
   13.7218   41.5367  -10.8188 C   0  0  0  0  0  0  0  0  0  0  0  0
   12.6913   40.8849   -8.7981 C   0  0  0  0  0  0  0  0  0  0  0  0
   11.9764   40.0809   -6.6296 C   0  0  0  0  0  0  0  0  0  0  0  0
    9.3162   37.9295   -1.1604 C   0  0  0  0  0  0  0  0  0  0  0  0
    9.5915   38.3170    0.2914 C   0  0  0  0  0  0  0  0  0  0  0  0
    9.1851   36.4228   -1.3038 C   0  0  0  0  0  0  0  0  0  0  0  0
    8.8657   39.2302   -3.8950 C   0  0  0  0  0  0  0  0  0  0  0  0
    8.4412   42.6883   -2.0799 C   0  0  0  0  0  0  0  0  0  0  0  0
   11.3221   38.8582   -4.2741 N   0  0  0  0  0  0  0  0  0  0  0  0
   10.1139   38.3856   -3.5676 C   0  0  1  0  0  0  0  0  0  0  0  0
    9.0950   40.5833   -4.0256 N   0  0  0  0  0  0  0  0  0  0  0  0
    8.0001   41.4800   -4.2611 C   0  0  0  0  0  0  0  0  0  0  0  0
    8.2259   42.8421   -3.5967 C   0  0  1  0  0  0  0  0  0  0  0  0
    7.0778   43.8369   -3.9592 C   0  0  0  0  0  0  0  0  0  0  0  0
    5.7392   43.4108   -3.3434 C   0  0  0  0  0  0  0  0  0  0  0  0
    6.8485   43.8984   -5.4802 C   0  0  0  0  0  0  0  0  0  0  0  0
    7.4291   45.2470   -3.4653 C   0  0  0  0  0  0  0  0  0  0  0  0
    7.7528   38.7532   -3.8503 O   0  0  0  0  0  0  0  0  0  0  0  0
   10.4265   38.4601   -2.0672 C   0  0  0  0  0  0  0  0  0  0  0  0
   11.4898   38.4504   -5.9498 P   0  0  1  0  0  0  0  0  0  0  0  0
   15.0649   41.1791  -11.4219 C   0  0  0  0  0  0  0  0  0  0  0  0
   15.1681   40.6330  -12.7005 C   0  0  0  0  0  0  0  0  0  0  0  0
   16.4257   40.2797  -13.2097 C   0  0  0  0  0  0  0  0  0  0  0  0
   10.1512   38.0849   -6.4798 O   0  0  0  0  0  0  0  0  0  0  0  0
   12.6513   37.4955   -6.1021 O   0  0  0  0  0  0  0  0  0  0  0  0
   12.7389   39.9349   -7.8431 N   0  0  0  0  0  0  0  0  0  0  0  0
   13.5312   40.5551   -9.8024 O   0  0  0  0  0  0  0  0  0  0  0  0
   12.0222   41.8987   -8.7549 O   0  0  0  0  0  0  0  0  0  0  0  0
   16.1716   41.7402   -9.6594 H   0  0  0  0  0  0  0  0  0  0  0  0
   18.3904   41.1386  -10.5683 H   0  0  0  0  0  0  0  0  0  0  0  0
   18.5566   40.1633  -12.8615 H   0  0  0  0  0  0  0  0  0  0  0  0
   12.9178   41.4768  -11.5662 H   0  0  0  0  0  0  0  0  0  0  0  0
   13.7436   42.5629  -10.4248 H   0  0  0  0  0  0  0  0  0  0  0  0
   12.5977   40.6302   -5.9128 H   0  0  0  0  0  0  0  0  0  0  0  0
   11.0722   40.6608   -6.8384 H   0  0  0  0  0  0  0  0  0  0  0  0
    8.3679   38.3882   -1.4471 H   0  0  0  0  0  0  0  0  0  0  0  0
    8.7983   37.9363    0.9441 H   0  0  0  0  0  0  0  0  0  0  0  0
    9.6243   39.4088    0.3920 H   0  0  0  0  0  0  0  0  0  0  0  0
   10.5504   37.9093    0.6313 H   0  0  0  0  0  0  0  0  0  0  0  0
    8.9907   36.1580   -2.3468 H   0  0  0  0  0  0  0  0  0  0  0  0
    8.3522   36.0560   -0.6974 H   0  0  0  0  0  0  0  0  0  0  0  0
   10.1048   35.9210   -0.9833 H   0  0  0  0  0  0  0  0  0  0  0  0
    9.2481   41.9783   -1.8612 H   0  0  0  0  0  0  0  0  0  0  0  0
    7.5352   42.3291   -1.5821 H   0  0  0  0  0  0  0  0  0  0  0  0
    8.7244   43.6473   -1.6345 H   0  0  0  0  0  0  0  0  0  0  0  0
   11.9974   39.4032   -3.7562 H   0  0  0  0  0  0  0  0  0  0  0  0
    9.8959   37.3632   -3.8814 H   0  0  0  0  0  0  0  0  0  0  0  0
   10.0554   40.9005   -4.0391 H   0  0  0  0  0  0  0  0  0  0  0  0
    7.0759   41.0262   -3.8901 H   0  0  0  0  0  0  0  0  0  0  0  0
    7.9135   41.6077   -5.3438 H   0  0  0  0  0  0  0  0  0  0  0  0
    9.1685   43.2393   -3.9947 H   0  0  0  0  0  0  0  0  0  0  0  0
    4.9519   44.1242   -3.6127 H   0  0  0  0  0  0  0  0  0  0  0  0
    5.7978   43.3678   -2.2533 H   0  0  0  0  0  0  0  0  0  0  0  0
    5.4395   42.4265   -3.7168 H   0  0  0  0  0  0  0  0  0  0  0  0
    7.7615   44.1932   -6.0081 H   0  0  0  0  0  0  0  0  0  0  0  0
    6.0565   44.6158   -5.7230 H   0  0  0  0  0  0  0  0  0  0  0  0
    6.5218   42.9263   -5.8664 H   0  0  0  0  0  0  0  0  0  0  0  0
    7.6028   45.2567   -2.3847 H   0  0  0  0  0  0  0  0  0  0  0  0
    6.6086   45.9421   -3.6760 H   0  0  0  0  0  0  0  0  0  0  0  0
    8.3326   45.6196   -3.9631 H   0  0  0  0  0  0  0  0  0  0  0  0
   11.3425   37.8835   -1.8825 H   0  0  0  0  0  0  0  0  0  0  0  0
   10.6249   39.5061   -1.8006 H   0  0  0  0  0  0  0  0  0  0  0  0
   14.2748   40.4827  -13.3045 H   0  0  0  0  0  0  0  0  0  0  0  0
   16.4951   39.8665  -14.2112 H   0  0  0  0  0  0  0  0  0  0  0  0
   13.3200   39.1166   -7.9745 H   0  0  0  0  0  0  0  0  0  0  0  0
  1  2  2  0  0  0  0
  1 24  1  0  0  0  0
  1 32  1  0  0  0  0
  2  3  1  0  0  0  0
  2 33  1  0  0  0  0
  3 26  2  0  0  0  0
  3 34  1  0  0  0  0
  4 24  1  0  0  0  0
  4 30  1  0  0  0  0
  4 35  1  0  0  0  0
  4 36  1  0  0  0  0
  5 29  1  0  0  0  0
  5 30  1  0  0  0  0
  5 31  2  0  0  0  0
  6 29  1  0  0  0  0
  6 37  1  0  0  0  0
  6 38  1  0  0  0  0
  7  8  1  0  0  0  0
  7  9  1  0  0  0  0
  7 22  1  0  0  0  0
  7 39  1  0  0  0  0
  8 40  1  0  0  0  0
  8 41  1  0  0  0  0
  8 42  1  0  0  0  0
  9 43  1  0  0  0  0
  9 44  1  0  0  0  0
  9 45  1  0  0  0  0
 10 13  1  0  0  0  0
 10 14  1  0  0  0  0
 10 21  2  0  0  0  0
 11 16  1  0  0  0  0
 11 46  1  0  0  0  0
 11 47  1  0  0  0  0
 11 48  1  0  0  0  0
 12 13  1  0  0  0  0
 12 23  1  0  0  0  0
 12 49  1  0  0  0  0
 13 22  1  0  0  0  0
 13 50  1  6  0  0  0
 14 15  1  0  0  0  0
 14 51  1  0  0  0  0
 15 16  1  0  0  0  0
 15 52  1  0  0  0  0
 15 53  1  0  0  0  0
 16 17  1  0  0  0  0
 16 54  1  6  0  0  0
 17 18  1  0  0  0  0
 17 19  1  0  0  0  0
 17 20  1  0  0  0  0
 18 55  1  0  0  0  0
 18 56  1  0  0  0  0
 18 57  1  0  0  0  0
 19 58  1  0  0  0  0
 19 59  1  0  0  0  0
 19 60  1  0  0  0  0
 20 61  1  0  0  0  0
 20 62  1  0  0  0  0
 20 63  1  0  0  0  0
 22 64  1  0  0  0  0
 22 65  1  0  0  0  0
 23  6  1  6  0  0  0
 23 27  2  0  0  0  0
 23 28  1  0  0  0  0
 24 25  2  0  0  0  0
 25 26  1  0  0  0  0
 25 66  1  0  0  0  0
 26 67  1  0  0  0  0
 29 68  1  0  0  0  0
M  END
$$$$
