6NN
 OpenBabel04161910503D

 62 62  0  0  1  0  0  0  0  0999 V2000
   16.2597   41.5665  -10.6654 C   0  0  0  0  0  0  0  0  0  0  0  0
   17.5224   41.1663  -11.1066 C   0  0  0  0  0  0  0  0  0  0  0  0
   17.6661   40.5608  -12.3511 C   0  0  0  0  0  0  0  0  0  0  0  0
   13.7562   41.7351  -10.9513 C   0  0  0  0  0  0  0  0  0  0  0  0
   12.6711   41.0770   -8.9853 C   0  0  0  0  0  0  0  0  0  0  0  0
   12.0478   40.3082   -6.7511 C   0  0  0  0  0  0  0  0  0  0  0  0
    9.4048   38.1906   -1.2289 C   0  0  0  0  0  0  0  0  0  0  0  0
    9.7207   38.5763    0.2184 C   0  0  0  0  0  0  0  0  0  0  0  0
    9.2538   36.6746   -1.3544 C   0  0  0  0  0  0  0  0  0  0  0  0
    8.9244   39.4970   -3.9631 C   0  0  0  0  0  0  0  0  0  0  0  0
    6.5096   43.5333   -3.6447 C   0  0  0  0  0  0  0  0  0  0  0  0
   12.7317   37.7683   -6.1200 O   0  0  0  0  0  0  0  0  0  0  0  0
   11.5443   38.6941   -6.0451 P   0  0  1  0  0  0  0  0  0  0  0  0
   15.1263   41.3729  -11.4715 C   0  0  0  0  0  0  0  0  0  0  0  0
   16.5479   40.3596  -13.1597 C   0  0  0  0  0  0  0  0  0  0  0  0
   15.2842   40.7614  -12.7224 C   0  0  0  0  0  0  0  0  0  0  0  0
   11.3602   39.1616   -4.3950 N   0  0  0  0  0  0  0  0  0  0  0  0
   10.1829   38.6486   -3.6603 C   0  0  1  0  0  0  0  0  0  0  0  0
   10.5069   38.7338   -2.1585 C   0  0  0  0  0  0  0  0  0  0  0  0
    7.7951   39.0532   -3.9034 O   0  0  0  0  0  0  0  0  0  0  0  0
    9.1813   40.8558   -4.0824 N   0  0  0  0  0  0  0  0  0  0  0  0
    8.1087   41.7774   -4.4054 C   0  0  0  0  0  0  0  0  0  0  0  0
    7.4991   42.4650   -3.1696 C   0  0  1  0  0  0  0  0  0  0  0  0
    8.5744   43.0404   -2.2173 C   0  0  0  0  0  0  0  0  0  0  0  0
    8.1072   44.2410   -1.4022 C   0  0  0  0  0  0  0  0  0  0  0  0
   10.1852   38.3254   -6.5629 O   0  0  0  0  0  0  0  0  0  0  0  0
   12.7090   40.1242   -8.0245 N   0  0  0  0  0  0  0  0  0  0  0  0
   12.1503   42.1793   -8.8582 O   0  0  0  0  0  0  0  0  0  0  0  0
   13.3590   40.6759  -10.0786 O   0  0  0  0  0  0  0  0  0  0  0  0
   16.1529   42.0093   -9.6772 H   0  0  0  0  0  0  0  0  0  0  0  0
   18.3906   41.3100  -10.4681 H   0  0  0  0  0  0  0  0  0  0  0  0
   18.6467   40.2323  -12.6892 H   0  0  0  0  0  0  0  0  0  0  0  0
   13.0433   41.8394  -11.7811 H   0  0  0  0  0  0  0  0  0  0  0  0
   13.8157   42.7053  -10.4404 H   0  0  0  0  0  0  0  0  0  0  0  0
   12.7599   40.7896   -6.0698 H   0  0  0  0  0  0  0  0  0  0  0  0
   11.1699   40.9456   -6.8601 H   0  0  0  0  0  0  0  0  0  0  0  0
    8.4447   38.6531   -1.4800 H   0  0  0  0  0  0  0  0  0  0  0  0
    8.9494   38.2030    0.8996 H   0  0  0  0  0  0  0  0  0  0  0  0
    9.7555   39.6671    0.3231 H   0  0  0  0  0  0  0  0  0  0  0  0
   10.6868   38.1746    0.5363 H   0  0  0  0  0  0  0  0  0  0  0  0
    9.0097   36.3800   -2.3806 H   0  0  0  0  0  0  0  0  0  0  0  0
    8.4441   36.3128   -0.7134 H   0  0  0  0  0  0  0  0  0  0  0  0
   10.1744   36.1583   -1.0643 H   0  0  0  0  0  0  0  0  0  0  0  0
    5.7766   43.1226   -4.3429 H   0  0  0  0  0  0  0  0  0  0  0  0
    7.0397   44.3521   -4.1445 H   0  0  0  0  0  0  0  0  0  0  0  0
    5.9479   43.9504   -2.8023 H   0  0  0  0  0  0  0  0  0  0  0  0
   16.6549   39.8697  -14.1244 H   0  0  0  0  0  0  0  0  0  0  0  0
   14.4179   40.5740  -13.3508 H   0  0  0  0  0  0  0  0  0  0  0  0
   12.1660   39.5190   -3.8965 H   0  0  0  0  0  0  0  0  0  0  0  0
    9.9859   37.6144   -3.9709 H   0  0  0  0  0  0  0  0  0  0  0  0
   11.4425   38.1975   -1.9577 H   0  0  0  0  0  0  0  0  0  0  0  0
   10.7019   39.7849   -1.8960 H   0  0  0  0  0  0  0  0  0  0  0  0
   10.1491   41.1209   -4.1928 H   0  0  0  0  0  0  0  0  0  0  0  0
    7.3209   41.2348   -4.9372 H   0  0  0  0  0  0  0  0  0  0  0  0
    8.5193   42.5169   -5.1072 H   0  0  0  0  0  0  0  0  0  0  0  0
    6.9333   41.7117   -2.6061 H   0  0  0  0  0  0  0  0  0  0  0  0
    9.4684   43.3307   -2.7802 H   0  0  0  0  0  0  0  0  0  0  0  0
    8.8875   42.2485   -1.5231 H   0  0  0  0  0  0  0  0  0  0  0  0
    8.8903   44.5819   -0.7224 H   0  0  0  0  0  0  0  0  0  0  0  0
    7.2189   43.9925   -0.8126 H   0  0  0  0  0  0  0  0  0  0  0  0
    7.8647   45.0858   -2.0571 H   0  0  0  0  0  0  0  0  0  0  0  0
   13.1884   39.2408   -8.1707 H   0  0  0  0  0  0  0  0  0  0  0  0
  1  2  2  0  0  0  0
  1 14  1  0  0  0  0
  1 30  1  0  0  0  0
  2  3  1  0  0  0  0
  2 31  1  0  0  0  0
  3 15  2  0  0  0  0
  3 32  1  0  0  0  0
  4 14  1  0  0  0  0
  4 29  1  0  0  0  0
  4 33  1  0  0  0  0
  4 34  1  0  0  0  0
  5 27  1  0  0  0  0
  5 28  2  0  0  0  0
  5 29  1  0  0  0  0
  6 27  1  0  0  0  0
  6 35  1  0  0  0  0
  6 36  1  0  0  0  0
  7  8  1  0  0  0  0
  7  9  1  0  0  0  0
  7 19  1  0  0  0  0
  7 37  1  0  0  0  0
  8 38  1  0  0  0  0
  8 39  1  0  0  0  0
  8 40  1  0  0  0  0
  9 41  1  0  0  0  0
  9 42  1  0  0  0  0
  9 43  1  0  0  0  0
 10 18  1  0  0  0  0
 10 20  2  0  0  0  0
 10 21  1  0  0  0  0
 11 23  1  0  0  0  0
 11 44  1  0  0  0  0
 11 45  1  0  0  0  0
 11 46  1  0  0  0  0
 12 13  2  0  0  0  0
 13  6  1  6  0  0  0
 13 17  1  0  0  0  0
 13 26  1  0  0  0  0
 14 16  2  0  0  0  0
 15 16  1  0  0  0  0
 15 47  1  0  0  0  0
 16 48  1  0  0  0  0
 17 18  1  0  0  0  0
 17 49  1  0  0  0  0
 18 19  1  0  0  0  0
 18 50  1  6  0  0  0
 19 51  1  0  0  0  0
 19 52  1  0  0  0  0
 21 22  1  0  0  0  0
 21 53  1  0  0  0  0
 22 23  1  0  0  0  0
 22 54  1  0  0  0  0
 22 55  1  0  0  0  0
 23 24  1  0  0  0  0
 23 56  1  1  0  0  0
 24 25  1  0  0  0  0
 24 57  1  0  0  0  0
 24 58  1  0  0  0  0
 25 59  1  0  0  0  0
 25 60  1  0  0  0  0
 25 61  1  0  0  0  0
 27 62  1  0  0  0  0
M  END
$$$$
