6O5
 OpenBabel04161909463D

 17 17  0  0  0  0  0  0  0  0999 V2000
   -2.6805   28.5026  -11.0094 C   0  0  0  0  0  0  0  0  0  0  0  0
   -2.2255   27.2146  -10.8557 C   0  0  0  0  0  0  0  0  0  0  0  0
   -3.3035   26.4198  -10.7069 C   0  0  0  0  0  0  0  0  0  0  0  0
   -4.4535   27.1631  -10.7550 O   0  0  0  0  0  0  0  0  0  0  0  0
   -4.0293   28.4761  -10.9467 C   0  0  0  0  0  0  0  0  0  0  0  0
   -4.9875   29.6211  -11.0780 C   0  0  0  0  0  0  0  0  0  0  0  0
   -5.6972   29.5926  -12.4139 C   0  0  0  0  0  0  0  0  0  0  0  0
   -5.6573   30.9769  -13.0684 C   0  0  0  0  0  0  0  0  0  0  0  0
   -6.6283   31.7349  -12.8046 O   0  0  0  0  0  0  0  0  0  0  0  0
   -4.6563   31.2105  -13.8050 O   0  0  0  0  0  0  0  0  0  0  0  0
   -2.0654   29.3810  -11.1564 H   0  0  0  0  0  0  0  0  0  0  0  0
   -1.1946   26.9054  -10.8568 H   0  0  0  0  0  0  0  0  0  0  0  0
   -3.3068   25.3410  -10.5654 H   0  0  0  0  0  0  0  0  0  0  0  0
   -4.4104   30.5648  -10.9851 H   0  0  0  0  0  0  0  0  0  0  0  0
   -5.7106   29.5863  -10.2597 H   0  0  0  0  0  0  0  0  0  0  0  0
   -6.7407   29.2943  -12.2567 H   0  0  0  0  0  0  0  0  0  0  0  0
   -5.2143   28.8649  -13.0755 H   0  0  0  0  0  0  0  0  0  0  0  0
  1  2  1  0  0  0  0
  1  5  2  0  0  0  0
  1 11  1  0  0  0  0
  2  3  2  0  0  0  0
  2 12  1  0  0  0  0
  3  4  1  0  0  0  0
  3 13  1  0  0  0  0
  4  5  1  0  0  0  0
  5  6  1  0  0  0  0
  6  7  1  0  0  0  0
  6 14  1  0  0  0  0
  6 15  1  0  0  0  0
  7  8  1  0  0  0  0
  7 16  1  0  0  0  0
  7 17  1  0  0  0  0
  8  9  2  0  0  0  0
  8 10  1  0  0  0  0
M  END
$$$$
