6OK
 OpenBabel04161910513D

 47 50  0  0  0  0  0  0  0  0999 V2000
  108.6708   19.6901   20.6075 C   0  0  0  0  0  0  0  0  0  0  0  0
  107.0898   19.2136   18.7942 C   0  0  0  0  0  0  0  0  0  0  0  0
  106.1087   18.8169   19.7059 C   0  0  0  0  0  0  0  0  0  0  0  0
  106.4024   18.8657   21.0782 C   0  0  0  0  0  0  0  0  0  0  0  0
  107.6666   19.3105   21.5066 C   0  0  0  0  0  0  0  0  0  0  0  0
  108.3363   19.6213   19.2608 C   0  0  0  0  0  0  0  0  0  0  0  0
  107.9225   19.3795   22.9637 C   0  0  0  0  0  0  0  0  0  0  0  0
  105.4461   18.4973   22.0229 N   0  3  0  0  0  0  0  0  0  0  0  0
  105.6749   18.5748   23.3521 C   0  0  0  0  0  0  0  0  0  0  0  0
  104.7660   18.2426   24.2006 N   0  0  0  0  0  0  0  0  0  0  0  0
  106.8880   19.0149   23.7955 N   0  3  0  0  0  0  0  0  0  0  0  0
  109.0456   19.9036   18.1242 N   0  3  0  0  0  0  0  0  0  0  0  0
  107.0405   19.2898   17.4243 N   0  0  0  0  0  0  0  0  0  0  0  0
  108.2202   19.7090   17.0510 C   0  0  0  0  0  0  0  0  0  0  0  0
  108.6578   20.0049   15.8137 N   0  0  0  0  0  0  0  0  0  0  0  0
  107.6975   20.0521   14.7131 C   0  0  0  0  0  0  0  0  0  0  0  0
  109.0100   19.7482   23.4051 O   0  0  0  0  0  0  0  0  0  0  0  0
  108.2612   20.9284   13.5838 C   0  0  0  0  0  0  0  0  0  0  0  0
  106.4581   20.5183    9.6417 C   0  0  0  0  0  0  0  0  0  0  0  0
  105.8308   20.3109    8.2806 C   0  0  0  0  0  0  0  0  0  0  0  0
  106.1405   21.3672    7.2197 C   0  0  0  0  0  0  0  0  0  0  0  0
  105.5652   20.9540    5.9778 O   0  0  0  0  0  0  0  0  0  0  0  0
  106.0977   21.5788   10.4828 C   0  0  0  0  0  0  0  0  0  0  0  0
  106.6660   21.7050   11.7631 C   0  0  0  0  0  0  0  0  0  0  0  0
  107.6010   20.7726   12.2326 C   0  0  0  0  0  0  0  0  0  0  0  0
  107.9543   19.7099   11.3942 C   0  0  0  0  0  0  0  0  0  0  0  0
  107.3868   19.5840   10.1206 C   0  0  0  0  0  0  0  0  0  0  0  0
  109.6478   20.0217   20.9500 H   0  0  0  0  0  0  0  0  0  0  0  0
  105.1344   18.4860   19.3463 H   0  0  0  0  0  0  0  0  0  0  0  0
  104.5466   18.1518   21.7229 H   0  0  0  0  0  0  0  0  0  0  0  0
  105.0996   18.3631   25.1559 H   0  0  0  0  0  0  0  0  0  0  0  0
  107.0829   19.0795   24.7791 H   0  0  0  0  0  0  0  0  0  0  0  0
  109.9844   20.2675   18.0857 H   0  0  0  0  0  0  0  0  0  0  0  0
  109.6431   20.0320   15.5820 H   0  0  0  0  0  0  0  0  0  0  0  0
  106.7559   20.4961   15.0618 H   0  0  0  0  0  0  0  0  0  0  0  0
  107.4769   19.0373   14.3625 H   0  0  0  0  0  0  0  0  0  0  0  0
  109.3319   20.7190   13.4601 H   0  0  0  0  0  0  0  0  0  0  0  0
  108.2043   21.9787   13.8983 H   0  0  0  0  0  0  0  0  0  0  0  0
  104.7436   20.2247    8.3980 H   0  0  0  0  0  0  0  0  0  0  0  0
  106.1479   19.3374    7.8825 H   0  0  0  0  0  0  0  0  0  0  0  0
  107.2195   21.4815    7.0750 H   0  0  0  0  0  0  0  0  0  0  0  0
  105.7101   22.3363    7.4887 H   0  0  0  0  0  0  0  0  0  0  0  0
  105.7698   21.6352    5.3138 H   0  0  0  0  0  0  0  0  0  0  0  0
  105.3600   22.3111   10.1610 H   0  0  0  0  0  0  0  0  0  0  0  0
  106.3778   22.5479   12.3886 H   0  0  0  0  0  0  0  0  0  0  0  0
  108.6861   18.9728   11.7176 H   0  0  0  0  0  0  0  0  0  0  0  0
  107.6712   18.7354    9.5019 H   0  0  0  0  0  0  0  0  0  0  0  0
  1  5  2  0  0  0  0
  1  6  1  0  0  0  0
  1 28  1  0  0  0  0
  2  3  2  0  0  0  0
  2  6  1  0  0  0  0
  2 13  1  0  0  0  0
  3  4  1  0  0  0  0
  3 29  1  0  0  0  0
  4  5  1  0  0  0  0
  4  8  2  0  0  0  0
  5  7  1  0  0  0  0
  6 12  2  0  0  0  0
  7 11  1  0  0  0  0
  7 17  2  0  0  0  0
  8  9  1  0  0  0  0
  8 30  1  0  0  0  0
  9 10  2  0  0  0  0
  9 11  1  0  0  0  0
 10 31  1  0  0  0  0
 11 32  1  0  0  0  0
 12 14  1  0  0  0  0
 12 33  1  0  0  0  0
 13 14  2  0  0  0  0
 14 15  1  0  0  0  0
 15 16  1  0  0  0  0
 15 34  1  0  0  0  0
 16 18  1  0  0  0  0
 16 35  1  0  0  0  0
 16 36  1  0  0  0  0
 18 25  1  0  0  0  0
 18 37  1  0  0  0  0
 18 38  1  0  0  0  0
 19 20  1  0  0  0  0
 19 23  2  0  0  0  0
 19 27  1  0  0  0  0
 20 21  1  0  0  0  0
 20 39  1  0  0  0  0
 20 40  1  0  0  0  0
 21 22  1  0  0  0  0
 21 41  1  0  0  0  0
 21 42  1  0  0  0  0
 22 43  1  0  0  0  0
 23 24  1  0  0  0  0
 23 44  1  0  0  0  0
 24 25  2  0  0  0  0
 24 45  1  0  0  0  0
 25 26  1  0  0  0  0
 26 27  2  0  0  0  0
 26 46  1  0  0  0  0
 27 47  1  0  0  0  0
M  CHG  3   8   1  11   1  12   1
M  END
$$$$
