6OX
 OpenBabel04161910513D

 69 72  0  0  1  0  0  0  0  0999 V2000
   33.5863   21.2846   21.5415 C   0  0  0  0  0  0  0  0  0  0  0  0
   33.9238   21.6378   20.2462 C   0  0  0  0  0  0  0  0  0  0  0  0
   35.0460   23.0366   22.3514 C   0  0  0  0  0  0  0  0  0  0  0  0
   35.4333   23.4284   21.0315 C   0  0  0  0  0  0  0  0  0  0  0  0
   36.4518   24.5915   20.8413 C   0  0  0  0  0  0  0  0  0  0  0  0
   34.8269   22.6872   19.9845 C   0  0  0  0  0  0  0  0  0  0  0  0
   37.4968   16.8233   20.9728 C   0  0  0  0  0  0  0  0  0  0  0  0
   37.3356   19.3074   20.7914 C   0  0  0  0  0  0  0  0  0  0  0  0
   37.7760   24.3485   21.6349 C   0  0  1  0  0  0  0  0  0  0  0  0
   38.1097   21.8706   21.5306 C   0  0  0  0  0  0  0  0  0  0  0  0
   38.1432   21.5342   20.1893 C   0  0  0  0  0  0  0  0  0  0  0  0
   39.6909   24.8909   22.7241 C   0  0  2  0  0  0  0  0  0  0  0  0
   39.6077   23.5277   22.6580 C   0  0  0  0  0  0  0  0  0  0  0  0
   35.9335   14.0158   18.8580 C   0  0  0  0  0  0  0  0  0  0  0  0
   38.3978   14.7027   22.9884 C   0  0  0  0  0  0  0  0  0  0  0  0
   37.9345   14.1411   21.3711 S   0  0  0  0  0  0  0  0  0  0  0  0
   36.9017   13.1441   21.5907 O   0  0  0  0  0  0  0  0  0  0  0  0
   39.1522   13.8457   20.6484 O   0  0  0  0  0  0  0  0  0  0  0  0
   37.1646   15.5279   20.5442 C   0  0  0  0  0  0  0  0  0  0  0  0
   36.2568   15.3411   19.4837 C   0  0  0  0  0  0  0  0  0  0  0  0
   36.9979   13.6856   17.9832 O   0  0  0  0  0  0  0  0  0  0  0  0
   35.7020   16.4849   18.9021 C   0  0  0  0  0  0  0  0  0  0  0  0
   34.8456   16.3684   17.8742 F   0  0  0  0  0  0  0  0  0  0  0  0
   36.0154   17.7687   19.3379 C   0  0  0  0  0  0  0  0  0  0  0  0
   36.9319   17.9597   20.3746 C   0  0  0  0  0  0  0  0  0  0  0  0
   37.3468   19.6783   22.1490 C   0  0  0  0  0  0  0  0  0  0  0  0
   37.7595   20.9501   22.5169 C   0  0  0  0  0  0  0  0  0  0  0  0
   37.7751   21.2927   23.8114 F   0  0  0  0  0  0  0  0  0  0  0  0
   37.7574   20.2457   19.8263 C   0  0  0  0  0  0  0  0  0  0  0  0
   38.4792   23.2179   21.9031 N   0  3  0  0  0  0  0  0  0  0  0  0
   40.7092   25.8415   23.2570 C   0  0  0  0  0  0  0  0  0  0  0  0
   41.1820   25.4178   24.6439 C   0  0  0  0  0  0  0  0  0  0  0  0
   41.8828   25.9674   22.2821 C   0  0  0  0  0  0  0  0  0  0  0  0
   40.0475   27.1117   23.3705 O   0  0  0  0  0  0  0  0  0  0  0  0
   38.5214   25.3401   22.1417 N   0  3  0  0  0  0  0  0  0  0  0  0
   36.9260   24.9550   19.4055 C   0  0  0  0  0  0  0  0  0  0  0  0
   35.7323   25.9025   21.2970 C   0  0  0  0  0  0  0  0  0  0  0  0
   35.6853   23.7587   23.7973 Cl  0  0  0  0  0  0  0  0  0  0  0  0
   34.1463   21.9857   22.5934 C   0  0  0  0  0  0  0  0  0  0  0  0
   35.1078   22.9101   18.2945 Cl  0  0  0  0  0  0  0  0  0  0  0  0
   32.8868   20.4717   21.7259 H   0  0  0  0  0  0  0  0  0  0  0  0
   33.4710   21.0850   19.4232 H   0  0  0  0  0  0  0  0  0  0  0  0
   38.2444   16.9729   21.7463 H   0  0  0  0  0  0  0  0  0  0  0  0
   38.4910   22.2270   19.4340 H   0  0  0  0  0  0  0  0  0  0  0  0
   40.2497   22.7284   22.9882 H   0  0  0  0  0  0  0  0  0  0  0  0
   35.0083   14.0719   18.2739 H   0  0  0  0  0  0  0  0  0  0  0  0
   35.7837   13.2176   19.5834 H   0  0  0  0  0  0  0  0  0  0  0  0
   37.5235   15.1198   23.4915 H   0  0  0  0  0  0  0  0  0  0  0  0
   39.2011   15.4382   22.9151 H   0  0  0  0  0  0  0  0  0  0  0  0
   38.7641   13.8413   23.5517 H   0  0  0  0  0  0  0  0  0  0  0  0
   36.7736   12.8297   17.5790 H   0  0  0  0  0  0  0  0  0  0  0  0
   35.5472   18.6092   18.8304 H   0  0  0  0  0  0  0  0  0  0  0  0
   37.0216   18.9883   22.9246 H   0  0  0  0  0  0  0  0  0  0  0  0
   37.8017   19.9633   18.7744 H   0  0  0  0  0  0  0  0  0  0  0  0
   41.8710   26.1571   25.0653 H   0  0  0  0  0  0  0  0  0  0  0  0
   41.6917   24.4472   24.6202 H   0  0  0  0  0  0  0  0  0  0  0  0
   40.3391   25.3393   25.3406 H   0  0  0  0  0  0  0  0  0  0  0  0
   41.5416   26.3135   21.2980 H   0  0  0  0  0  0  0  0  0  0  0  0
   42.4036   25.0142   22.1399 H   0  0  0  0  0  0  0  0  0  0  0  0
   42.6060   26.7103   22.6376 H   0  0  0  0  0  0  0  0  0  0  0  0
   40.3622   27.7000   22.6607 H   0  0  0  0  0  0  0  0  0  0  0  0
   36.1092   25.3126   18.7711 H   0  0  0  0  0  0  0  0  0  0  0  0
   37.4444   24.1270   18.9178 H   0  0  0  0  0  0  0  0  0  0  0  0
   37.6589   25.7729   19.4432 H   0  0  0  0  0  0  0  0  0  0  0  0
   35.4580   25.9126   22.3525 H   0  0  0  0  0  0  0  0  0  0  0  0
   34.8139   26.0672   20.7204 H   0  0  0  0  0  0  0  0  0  0  0  0
   36.3734   26.7801   21.1508 H   0  0  0  0  0  0  0  0  0  0  0  0
   33.8815   21.7062   23.6120 H   0  0  0  0  0  0  0  0  0  0  0  0
   38.2684   26.3291   22.1577 H   0  0  0  0  0  0  0  0  0  0  0  0
  1  2  2  0  0  0  0
  1 39  1  0  0  0  0
  1 41  1  0  0  0  0
  2  6  1  0  0  0  0
  2 42  1  0  0  0  0
  3  4  1  0  0  0  0
  3 38  1  0  0  0  0
  3 39  2  0  0  0  0
  4  5  1  0  0  0  0
  4  6  2  0  0  0  0
  5 36  1  0  0  0  0
  5 37  1  0  0  0  0
  6 40  1  0  0  0  0
  7 19  2  0  0  0  0
  7 25  1  0  0  0  0
  7 43  1  0  0  0  0
  8 25  1  0  0  0  0
  8 26  2  0  0  0  0
  8 29  1  0  0  0  0
  9  5  1  6  0  0  0
  9 30  1  0  0  0  0
  9 35  1  0  0  0  0
 10 11  1  0  0  0  0
 10 27  2  0  0  0  0
 10 30  1  0  0  0  0
 11 29  2  0  0  0  0
 11 44  1  0  0  0  0
 12 13  1  0  0  0  0
 12 31  1  1  0  0  0
 12 35  1  0  0  0  0
 13 30  1  0  0  0  0
 13 45  1  0  0  0  0
 14 20  1  0  0  0  0
 14 21  1  0  0  0  0
 14 46  1  0  0  0  0
 14 47  1  0  0  0  0
 15 16  1  0  0  0  0
 15 48  1  0  0  0  0
 15 49  1  0  0  0  0
 15 50  1  0  0  0  0
 16 17  2  0  0  0  0
 16 18  2  0  0  0  0
 16 19  1  0  0  0  0
 19 20  1  0  0  0  0
 20 22  2  0  0  0  0
 21 51  1  0  0  0  0
 22 23  1  0  0  0  0
 22 24  1  0  0  0  0
 24 25  2  0  0  0  0
 24 52  1  0  0  0  0
 26 27  1  0  0  0  0
 26 53  1  0  0  0  0
 27 28  1  0  0  0  0
 29 54  1  0  0  0  0
 31 32  1  0  0  0  0
 31 33  1  0  0  0  0
 31 34  1  0  0  0  0
 32 55  1  0  0  0  0
 32 56  1  0  0  0  0
 32 57  1  0  0  0  0
 33 58  1  0  0  0  0
 33 59  1  0  0  0  0
 33 60  1  0  0  0  0
 34 61  1  0  0  0  0
 35 69  1  0  0  0  0
 36 62  1  0  0  0  0
 36 63  1  0  0  0  0
 36 64  1  0  0  0  0
 37 65  1  0  0  0  0
 37 66  1  0  0  0  0
 37 67  1  0  0  0  0
 39 68  1  0  0  0  0
M  CHG  2  30   1  35   1
M  END
$$$$
