6P4
 OpenBabel04161910513D

 28 30  0  0  0  0  0  0  0  0999 V2000
   18.0581   13.2629   17.6851 C   0  0  0  0  0  0  0  0  0  0  0  0
   21.6349   16.3140   20.7380 C   0  0  0  0  0  0  0  0  0  0  0  0
   17.5378   12.5857   16.5690 C   0  0  0  0  0  0  0  0  0  0  0  0
   19.6985   15.7493   18.8837 N   0  3  0  0  0  0  0  0  0  0  0  0
   18.6263   15.7357   18.0010 C   0  0  0  0  0  0  0  0  0  0  0  0
   19.7813   17.0413   19.3945 C   0  0  0  0  0  0  0  0  0  0  0  0
   20.5877   14.7349   19.2526 C   0  0  0  0  0  0  0  0  0  0  0  0
   18.1541   14.5823   17.2967 C   0  0  0  0  0  0  0  0  0  0  0  0
   18.1526   17.0424   17.9993 C   0  0  0  0  0  0  0  0  0  0  0  0
   18.8749   17.8319   18.8628 N   0  0  0  0  0  0  0  0  0  0  0  0
   20.7939   17.2979   20.3616 C   0  0  0  0  0  0  0  0  0  0  0  0
   21.5471   14.9730   20.1683 C   0  0  0  0  0  0  0  0  0  0  0  0
   17.6674   14.6118   16.0147 N   0  3  0  0  0  0  0  0  0  0  0  0
   17.0072   17.6256   17.2576 C   0  0  0  0  0  0  0  0  0  0  0  0
   22.5086   13.9155   20.6106 C   0  0  0  0  0  0  0  0  0  0  0  0
   17.2978   13.4072   15.5456 N   0  0  0  0  0  0  0  0  0  0  0  0
   18.3249   12.8368   18.6418 H   0  0  0  0  0  0  0  0  0  0  0  0
   22.4064   16.5124   21.4754 H   0  0  0  0  0  0  0  0  0  0  0  0
   17.3239   11.5295   16.4612 H   0  0  0  0  0  0  0  0  0  0  0  0
   20.4783   13.7713   18.7763 H   0  0  0  0  0  0  0  0  0  0  0  0
   20.8653   18.2948   20.7798 H   0  0  0  0  0  0  0  0  0  0  0  0
   17.5755   15.4132   15.4008 H   0  0  0  0  0  0  0  0  0  0  0  0
   16.8497   18.6730   17.5337 H   0  0  0  0  0  0  0  0  0  0  0  0
   16.0874   17.0753   17.4780 H   0  0  0  0  0  0  0  0  0  0  0  0
   17.1880   17.5876   16.1794 H   0  0  0  0  0  0  0  0  0  0  0  0
   23.2217   14.2898   21.3520 H   0  0  0  0  0  0  0  0  0  0  0  0
   23.0837   13.5394   19.7579 H   0  0  0  0  0  0  0  0  0  0  0  0
   21.9714   13.0756   21.0649 H   0  0  0  0  0  0  0  0  0  0  0  0
  1  3  2  0  0  0  0
  1  8  1  0  0  0  0
  1 17  1  0  0  0  0
  2 11  2  0  0  0  0
  2 12  1  0  0  0  0
  2 18  1  0  0  0  0
  3 16  1  0  0  0  0
  3 19  1  0  0  0  0
  4  5  1  0  0  0  0
  4  6  2  0  0  0  0
  4  7  1  0  0  0  0
  5  8  1  0  0  0  0
  5  9  2  0  0  0  0
  6 10  1  0  0  0  0
  6 11  1  0  0  0  0
  7 12  2  0  0  0  0
  7 20  1  0  0  0  0
  8 13  2  0  0  0  0
  9 10  1  0  0  0  0
  9 14  1  0  0  0  0
 11 21  1  0  0  0  0
 12 15  1  0  0  0  0
 13 16  1  0  0  0  0
 13 22  1  0  0  0  0
 14 23  1  0  0  0  0
 14 24  1  0  0  0  0
 14 25  1  0  0  0  0
 15 26  1  0  0  0  0
 15 27  1  0  0  0  0
 15 28  1  0  0  0  0
M  CHG  2   4   1  13   1
M  END
$$$$
