6P9
 OpenBabel04161910493D

 96101  0  0  0  0  0  0  0  0999 V2000
   11.4276   44.3667   20.1804 C   0  0  0  0  0  0  0  0  0  0  0  0
   13.0392   50.5537   15.7701 C   0  0  0  0  0  0  0  0  0  0  0  0
   13.5328   50.4627   17.1905 C   0  0  0  0  0  0  0  0  0  0  0  0
   13.4067   49.0397   17.5934 C   0  0  0  0  0  0  0  0  0  0  0  0
   12.2450   49.3042   15.4683 C   0  0  0  0  0  0  0  0  0  0  0  0
   12.5593   45.1340   19.5064 C   0  0  0  0  0  0  0  0  0  0  0  0
    8.8171   42.4320   18.4747 O   0  0  0  0  0  0  0  0  0  0  0  0
    9.7381   42.7156   19.3012 C   0  0  0  0  0  0  0  0  0  0  0  0
   10.3653   43.9658   19.2684 N   0  0  0  0  0  0  0  0  0  0  0  0
    9.9803   45.0238   18.3539 C   0  0  0  0  0  0  0  0  0  0  0  0
   11.1085   45.3005   17.3893 C   0  0  0  0  0  0  0  0  0  0  0  0
   12.5231   45.2097   17.9775 C   0  0  0  0  0  0  0  0  0  0  0  0
   13.4157   46.3523   17.5173 C   0  0  0  0  0  0  0  0  0  0  0  0
   12.9136   47.0616   16.2681 C   0  0  0  0  0  0  0  0  0  0  0  0
   12.3394   48.4200   16.6671 N   0  3  0  0  0  0  0  0  0  0  0  0
   10.1634   41.6365   20.2885 C   0  0  0  0  0  0  0  0  0  0  0  0
    9.4092   41.2013   21.4168 C   0  0  0  0  0  0  0  0  0  0  0  0
    8.1182   41.7620   21.7114 N   0  0  0  0  0  0  0  0  0  0  0  0
    7.2230   41.6258   22.8112 C   0  0  0  0  0  0  0  0  0  0  0  0
    5.8341   41.5638   22.6117 C   0  0  0  0  0  0  0  0  0  0  0  0
    4.9189   41.4039   23.6861 C   0  0  0  0  0  0  0  0  0  0  0  0
    5.3671   41.2960   25.0046 C   0  0  0  0  0  0  0  0  0  0  0  0
    6.7448   41.3500   25.2197 C   0  0  0  0  0  0  0  0  0  0  0  0
    7.6496   41.4987   24.1385 C   0  0  0  0  0  0  0  0  0  0  0  0
    9.9816   40.1679   22.2612 C   0  0  0  0  0  0  0  0  0  0  0  0
   11.2323   39.5332   22.0325 C   0  0  0  0  0  0  0  0  0  0  0  0
   11.8459   38.4184   22.9377 C   0  0  0  0  0  0  0  0  0  0  0  0
   11.6886   37.0301   22.6772 N   0  0  0  0  0  0  0  0  0  0  0  0
   12.2683   35.9533   23.5344 C   0  0  0  0  0  0  0  0  0  0  0  0
   12.9987   34.8750   22.6950 C   0  0  0  0  0  0  0  0  0  0  0  0
   12.1117   34.3282   21.5808 C   0  0  0  0  0  0  0  0  0  0  0  0
   12.8394   33.3191   20.7121 C   0  0  0  0  0  0  0  0  0  0  0  0
   11.8738   32.7738   19.6714 C   0  0  0  0  0  0  0  0  0  0  0  0
   12.6399   31.8963   18.7502 N   0  3  0  0  0  0  0  0  0  0  0  0
   13.0939   30.7318   19.5928 C   0  0  0  0  0  0  0  0  0  0  0  0
   13.0993   29.5483   18.6744 C   0  0  0  0  0  0  0  0  0  0  0  0
   12.4221   29.9784   17.3888 C   0  0  0  0  0  0  0  0  0  0  0  0
   11.7477   31.2886   17.6985 C   0  0  0  0  0  0  0  0  0  0  0  0
   11.6370   35.5078   20.7386 C   0  0  0  0  0  0  0  0  0  0  0  0
   10.8716   36.5051   21.5944 C   0  0  0  0  0  0  0  0  0  0  0  0
   12.5597   38.7999   23.9047 O   0  0  0  0  0  0  0  0  0  0  0  0
   11.9308   40.0105   20.9187 C   0  0  0  0  0  0  0  0  0  0  0  0
   11.4088   41.0101   20.0609 C   0  0  0  0  0  0  0  0  0  0  0  0
   10.9622   45.0103   20.9343 H   0  0  0  0  0  0  0  0  0  0  0  0
   11.8234   43.4845   20.6576 H   0  0  0  0  0  0  0  0  0  0  0  0
   13.8797   50.6412   15.0717 H   0  0  0  0  0  0  0  0  0  0  0  0
   12.4040   51.4366   15.6450 H   0  0  0  0  0  0  0  0  0  0  0  0
   12.9326   51.0758   17.8598 H   0  0  0  0  0  0  0  0  0  0  0  0
   14.5781   50.7642   17.2713 H   0  0  0  0  0  0  0  0  0  0  0  0
   13.0971   48.9042   18.6398 H   0  0  0  0  0  0  0  0  0  0  0  0
   14.3496   48.5023   17.4147 H   0  0  0  0  0  0  0  0  0  0  0  0
   12.6752   48.7694   14.6179 H   0  0  0  0  0  0  0  0  0  0  0  0
   11.1937   49.5215   15.2691 H   0  0  0  0  0  0  0  0  0  0  0  0
   13.5063   44.6661   19.8058 H   0  0  0  0  0  0  0  0  0  0  0  0
   12.5651   46.1546   19.9195 H   0  0  0  0  0  0  0  0  0  0  0  0
    9.7800   45.9460   18.9223 H   0  0  0  0  0  0  0  0  0  0  0  0
    9.0803   44.7683   17.7890 H   0  0  0  0  0  0  0  0  0  0  0  0
   10.9095   46.2972   16.9926 H   0  0  0  0  0  0  0  0  0  0  0  0
   11.0554   44.5959   16.5476 H   0  0  0  0  0  0  0  0  0  0  0  0
   12.9852   44.3003   17.5789 H   0  0  0  0  0  0  0  0  0  0  0  0
   14.4395   46.0102   17.3352 H   0  0  0  0  0  0  0  0  0  0  0  0
   13.4891   47.0416   18.3627 H   0  0  0  0  0  0  0  0  0  0  0  0
   12.1484   46.5092   15.7292 H   0  0  0  0  0  0  0  0  0  0  0  0
   13.7162   47.2434   15.5563 H   0  0  0  0  0  0  0  0  0  0  0  0
    7.7879   42.4025   20.9856 H   0  0  0  0  0  0  0  0  0  0  0  0
    5.4120   41.6338   21.6113 H   0  0  0  0  0  0  0  0  0  0  0  0
    3.8479   41.3655   23.4928 H   0  0  0  0  0  0  0  0  0  0  0  0
    4.6773   41.1793   25.8238 H   0  0  0  0  0  0  0  0  0  0  0  0
    7.1225   41.2695   26.2372 H   0  0  0  0  0  0  0  0  0  0  0  0
    8.7038   41.5574   24.3831 H   0  0  0  0  0  0  0  0  0  0  0  0
    9.4116   39.8297   23.1159 H   0  0  0  0  0  0  0  0  0  0  0  0
   11.4521   35.4547   24.0846 H   0  0  0  0  0  0  0  0  0  0  0  0
   12.9742   36.3600   24.2680 H   0  0  0  0  0  0  0  0  0  0  0  0
   13.3171   34.0385   23.3286 H   0  0  0  0  0  0  0  0  0  0  0  0
   13.8917   35.3213   22.2381 H   0  0  0  0  0  0  0  0  0  0  0  0
   11.2477   33.8128   22.0195 H   0  0  0  0  0  0  0  0  0  0  0  0
   13.2175   32.5054   21.3518 H   0  0  0  0  0  0  0  0  0  0  0  0
   13.7020   33.7837   20.2192 H   0  0  0  0  0  0  0  0  0  0  0  0
   11.3990   33.5424   19.0690 H   0  0  0  0  0  0  0  0  0  0  0  0
   11.0920   32.1533   20.1298 H   0  0  0  0  0  0  0  0  0  0  0  0
   12.3587   30.6131   20.4007 H   0  0  0  0  0  0  0  0  0  0  0  0
   14.0676   30.9732   20.0257 H   0  0  0  0  0  0  0  0  0  0  0  0
   12.5597   28.7239   19.1463 H   0  0  0  0  0  0  0  0  0  0  0  0
   14.1284   29.2394   18.4948 H   0  0  0  0  0  0  0  0  0  0  0  0
   11.6853   29.2409   17.0607 H   0  0  0  0  0  0  0  0  0  0  0  0
   13.1598   30.1131   16.5889 H   0  0  0  0  0  0  0  0  0  0  0  0
   11.6743   31.9521   16.8349 H   0  0  0  0  0  0  0  0  0  0  0  0
   10.7593   31.1338   18.1455 H   0  0  0  0  0  0  0  0  0  0  0  0
   10.9691   35.1582   19.9504 H   0  0  0  0  0  0  0  0  0  0  0  0
   12.5059   35.9848   20.2642 H   0  0  0  0  0  0  0  0  0  0  0  0
   10.5335   37.3144   20.9689 H   0  0  0  0  0  0  0  0  0  0  0  0
   10.0260   35.9854   22.0485 H   0  0  0  0  0  0  0  0  0  0  0  0
   12.9057   39.5946   20.6807 H   0  0  0  0  0  0  0  0  0  0  0  0
   12.0101   41.3065   19.2069 H   0  0  0  0  0  0  0  0  0  0  0  0
   11.4510   48.3313   17.1717 H   0  0  0  0  0  0  0  0  0  0  0  0
   13.4345   32.3971   18.3211 H   0  0  0  0  0  0  0  0  0  0  0  0
  1  6  1  0  0  0  0
  1  9  1  0  0  0  0
  1 44  1  0  0  0  0
  1 45  1  0  0  0  0
  2  3  1  0  0  0  0
  2  5  1  0  0  0  0
  2 46  1  0  0  0  0
  2 47  1  0  0  0  0
  3  4  1  0  0  0  0
  3 48  1  0  0  0  0
  3 49  1  0  0  0  0
  4 15  1  0  0  0  0
  4 50  1  0  0  0  0
  4 51  1  0  0  0  0
  5 15  1  0  0  0  0
  5 52  1  0  0  0  0
  5 53  1  0  0  0  0
  6 12  1  0  0  0  0
  6 54  1  0  0  0  0
  6 55  1  0  0  0  0
  7  8  2  0  0  0  0
  8  9  1  0  0  0  0
  8 16  1  0  0  0  0
  9 10  1  0  0  0  0
 10 11  1  0  0  0  0
 10 56  1  0  0  0  0
 10 57  1  0  0  0  0
 11 12  1  0  0  0  0
 11 58  1  0  0  0  0
 11 59  1  0  0  0  0
 12 13  1  0  0  0  0
 12 60  1  0  0  0  0
 13 14  1  0  0  0  0
 13 61  1  0  0  0  0
 13 62  1  0  0  0  0
 14 15  1  0  0  0  0
 14 63  1  0  0  0  0
 14 64  1  0  0  0  0
 15 95  1  0  0  0  0
 16 17  2  0  0  0  0
 16 43  1  0  0  0  0
 17 18  1  0  0  0  0
 17 25  1  0  0  0  0
 18 19  1  0  0  0  0
 18 65  1  0  0  0  0
 19 20  2  0  0  0  0
 19 24  1  0  0  0  0
 20 21  1  0  0  0  0
 20 66  1  0  0  0  0
 21 22  2  0  0  0  0
 21 67  1  0  0  0  0
 22 23  1  0  0  0  0
 22 68  1  0  0  0  0
 23 24  2  0  0  0  0
 23 69  1  0  0  0  0
 24 70  1  0  0  0  0
 25 26  2  0  0  0  0
 25 71  1  0  0  0  0
 26 27  1  0  0  0  0
 26 42  1  0  0  0  0
 27 28  1  0  0  0  0
 27 41  2  0  0  0  0
 28 29  1  0  0  0  0
 28 40  1  0  0  0  0
 29 30  1  0  0  0  0
 29 72  1  0  0  0  0
 29 73  1  0  0  0  0
 30 31  1  0  0  0  0
 30 74  1  0  0  0  0
 30 75  1  0  0  0  0
 31 32  1  0  0  0  0
 31 39  1  0  0  0  0
 31 76  1  0  0  0  0
 32 33  1  0  0  0  0
 32 77  1  0  0  0  0
 32 78  1  0  0  0  0
 33 34  1  0  0  0  0
 33 79  1  0  0  0  0
 33 80  1  0  0  0  0
 34 35  1  0  0  0  0
 34 38  1  0  0  0  0
 34 96  1  0  0  0  0
 35 36  1  0  0  0  0
 35 81  1  0  0  0  0
 35 82  1  0  0  0  0
 36 37  1  0  0  0  0
 36 83  1  0  0  0  0
 36 84  1  0  0  0  0
 37 38  1  0  0  0  0
 37 85  1  0  0  0  0
 37 86  1  0  0  0  0
 38 87  1  0  0  0  0
 38 88  1  0  0  0  0
 39 40  1  0  0  0  0
 39 89  1  0  0  0  0
 39 90  1  0  0  0  0
 40 91  1  0  0  0  0
 40 92  1  0  0  0  0
 42 43  2  0  0  0  0
 42 93  1  0  0  0  0
 43 94  1  0  0  0  0
M  CHG  2  15   1  34   1
M  END
$$$$
