6PC
 OpenBabel04161910263D

 13 13  0  0  0  0  0  0  0  0999 V2000
   37.5002    0.4931    5.0621 C   0  0  0  0  0  0  0  0  0  0  0  0
   37.1364   -1.8101    4.9430 C   0  0  0  0  0  0  0  0  0  0  0  0
   35.7611   -1.6645    4.9948 C   0  0  0  0  0  0  0  0  0  0  0  0
   38.4315    1.7281    5.1144 C   0  0  0  0  0  0  0  0  0  0  0  0
   35.2433   -0.3807    5.0798 C   0  0  0  0  0  0  0  0  0  0  0  0
   36.1167    0.7038    5.1123 C   0  0  0  0  0  0  0  0  0  0  0  0
   39.6913    1.5429    5.0944 O   0  0  0  0  0  0  0  0  0  0  0  0
   37.8654    2.8729    5.1790 O   0  0  0  0  0  0  0  0  0  0  0  0
   38.0063   -0.7795    4.9740 N   0  0  0  0  0  0  0  0  0  0  0  0
   37.5948   -2.7906    4.8750 H   0  0  0  0  0  0  0  0  0  0  0  0
   35.1114   -2.5297    4.9704 H   0  0  0  0  0  0  0  0  0  0  0  0
   34.1727   -0.2138    5.1233 H   0  0  0  0  0  0  0  0  0  0  0  0
   35.7326    1.7186    5.1798 H   0  0  0  0  0  0  0  0  0  0  0  0
  1  4  1  0  0  0  0
  1  6  2  0  0  0  0
  1  9  1  0  0  0  0
  2  3  1  0  0  0  0
  2  9  2  0  0  0  0
  2 10  1  0  0  0  0
  3  5  2  0  0  0  0
  3 11  1  0  0  0  0
  4  7  2  0  0  0  0
  4  8  1  0  0  0  0
  5  6  1  0  0  0  0
  5 12  1  0  0  0  0
  6 13  1  0  0  0  0
M  END
$$$$
