6PD
 OpenBabel04161910493D

113119  0  0  0  0  0  0  0  0999 V2000
   12.7382   -6.1840    3.2282 C   0  0  0  0  0  0  0  0  0  0  0  0
   12.2637   -4.5564    1.3100 C   0  0  0  0  0  0  0  0  0  0  0  0
   13.2786   -7.6092    5.3325 C   0  0  0  0  0  0  0  0  0  0  0  0
   14.5553  -10.8143    4.1085 C   0  0  0  0  0  0  0  0  0  0  0  0
   13.8263  -11.1123    5.3974 C   0  0  0  0  0  0  0  0  0  0  0  0
   12.7483  -10.0616    5.5458 C   0  0  0  0  0  0  0  0  0  0  0  0
   12.6086   -0.1212    4.2902 C   0  0  0  0  0  0  0  0  0  0  0  0
   11.6142    1.4513    5.8108 C   0  0  0  0  0  0  0  0  0  0  0  0
   12.7581    1.3218   -1.7401 O   0  0  0  0  0  0  0  0  0  0  0  0
   12.0346    1.5441   -0.7747 C   0  0  0  0  0  0  0  0  0  0  0  0
   11.4869    0.3347   -0.0940 C   0  0  0  0  0  0  0  0  0  0  0  0
   11.9884   -0.1479    1.1352 C   0  0  0  0  0  0  0  0  0  0  0  0
   11.4511   -1.3674    1.6094 C   0  0  0  0  0  0  0  0  0  0  0  0
   10.5406   -2.1216    0.8924 C   0  0  0  0  0  0  0  0  0  0  0  0
   10.0651   -1.6559   -0.3274 C   0  0  0  0  0  0  0  0  0  0  0  0
   10.5539   -0.4357   -0.8247 C   0  0  0  0  0  0  0  0  0  0  0  0
   10.0173   -3.3545    1.5438 C   0  0  0  0  0  0  0  0  0  0  0  0
   10.9090   -4.3985    1.8465 N   0  0  0  0  0  0  0  0  0  0  0  0
   10.3917   -5.5589    2.5581 C   0  0  0  0  0  0  0  0  0  0  0  0
   11.3103   -5.9155    3.7225 C   0  0  0  0  0  0  0  0  0  0  0  0
   13.2475   -4.9811    2.4067 C   0  0  0  0  0  0  0  0  0  0  0  0
   13.7093   -6.4821    4.3869 C   0  0  0  0  0  0  0  0  0  0  0  0
   13.1331   -8.9275    4.6170 N   0  3  0  0  0  0  0  0  0  0  0  0
   14.3616   -9.3448    3.8432 C   0  0  0  0  0  0  0  0  0  0  0  0
    8.8543   -3.3275    1.9115 O   0  0  0  0  0  0  0  0  0  0  0  0
   12.9467    0.5301    1.9385 N   0  0  0  0  0  0  0  0  0  0  0  0
   12.7080    0.8550    3.2962 C   0  0  0  0  0  0  0  0  0  0  0  0
   12.0464    0.1624    5.5382 C   0  0  0  0  0  0  0  0  0  0  0  0
   11.8740    2.4722    4.9101 C   0  0  0  0  0  0  0  0  0  0  0  0
   12.3735    2.1591    3.6498 C   0  0  0  0  0  0  0  0  0  0  0  0
   10.9475    1.7432    6.9643 O   0  0  0  0  0  0  0  0  0  0  0  0
    9.5451    1.4860    6.8316 C   0  0  0  0  0  0  0  0  0  0  0  0
    8.7451    2.7304    6.6174 N   0  3  0  0  0  0  0  0  0  0  0  0
    8.6644    3.2268    5.2082 C   0  0  0  0  0  0  0  0  0  0  0  0
    7.6192    4.3131    5.2882 C   0  0  0  0  0  0  0  0  0  0  0  0
    6.6494    3.8448    6.3609 C   0  0  0  0  0  0  0  0  0  0  0  0
    7.3088    2.6580    7.0564 C   0  0  0  0  0  0  0  0  0  0  0  0
   11.7347    2.8413   -0.3425 N   0  0  0  0  0  0  0  0  0  0  0  0
   12.2350    3.9664   -1.1298 C   0  0  0  0  0  0  0  0  0  0  0  0
   13.1876    4.7896   -0.2770 C   0  0  0  0  0  0  0  0  0  0  0  0
   12.6804    5.0034    1.1714 C   0  0  0  0  0  0  0  0  0  0  0  0
   11.2067    4.5855    1.3598 C   0  0  0  0  0  0  0  0  0  0  0  0
   10.8264    3.2248    0.7255 C   0  0  0  0  0  0  0  0  0  0  0  0
   12.9044    6.4678    1.5923 C   0  0  0  0  0  0  0  0  0  0  0  0
   13.1482    6.6875    3.0910 C   0  0  0  0  0  0  0  0  0  0  0  0
   14.2410    7.6968    3.3688 N   0  3  0  0  0  0  0  0  0  0  0  0
   14.7389    8.5521    2.2247 C   0  0  0  0  0  0  0  0  0  0  0  0
   15.5812    9.6037    2.8953 C   0  0  0  0  0  0  0  0  0  0  0  0
   14.9996    9.7743    4.2897 C   0  0  0  0  0  0  0  0  0  0  0  0
   13.9310    8.7037    4.4533 C   0  0  0  0  0  0  0  0  0  0  0  0
   12.7133   -7.0552    2.5605 H   0  0  0  0  0  0  0  0  0  0  0  0
   12.6214   -3.6430    0.8296 H   0  0  0  0  0  0  0  0  0  0  0  0
   12.2137   -5.3277    0.5325 H   0  0  0  0  0  0  0  0  0  0  0  0
   12.3122   -7.3900    5.7988 H   0  0  0  0  0  0  0  0  0  0  0  0
   14.0170   -7.7477    6.1301 H   0  0  0  0  0  0  0  0  0  0  0  0
   14.1609  -11.4116    3.2806 H   0  0  0  0  0  0  0  0  0  0  0  0
   15.6238  -11.0450    4.1968 H   0  0  0  0  0  0  0  0  0  0  0  0
   14.5156  -11.0653    6.2481 H   0  0  0  0  0  0  0  0  0  0  0  0
   13.3978  -12.1194    5.3840 H   0  0  0  0  0  0  0  0  0  0  0  0
   12.6825   -9.6864    6.5730 H   0  0  0  0  0  0  0  0  0  0  0  0
   11.7641  -10.4179    5.2259 H   0  0  0  0  0  0  0  0  0  0  0  0
   12.9572   -1.1300    4.0896 H   0  0  0  0  0  0  0  0  0  0  0  0
   11.7797   -1.7723    2.5563 H   0  0  0  0  0  0  0  0  0  0  0  0
    9.3422   -2.2303   -0.8965 H   0  0  0  0  0  0  0  0  0  0  0  0
   10.2240   -0.0992   -1.8094 H   0  0  0  0  0  0  0  0  0  0  0  0
   10.3434   -6.3948    1.8487 H   0  0  0  0  0  0  0  0  0  0  0  0
    9.3798   -5.3888    2.9346 H   0  0  0  0  0  0  0  0  0  0  0  0
   11.3217   -5.0953    4.4522 H   0  0  0  0  0  0  0  0  0  0  0  0
   10.9007   -6.7963    4.2284 H   0  0  0  0  0  0  0  0  0  0  0  0
   14.2155   -5.2257    1.9523 H   0  0  0  0  0  0  0  0  0  0  0  0
   13.4177   -4.1314    3.0800 H   0  0  0  0  0  0  0  0  0  0  0  0
   13.8547   -5.5760    4.9891 H   0  0  0  0  0  0  0  0  0  0  0  0
   14.6970   -6.7033    3.9643 H   0  0  0  0  0  0  0  0  0  0  0  0
   14.1778   -9.1251    2.7872 H   0  0  0  0  0  0  0  0  0  0  0  0
   15.2190   -8.7715    4.2062 H   0  0  0  0  0  0  0  0  0  0  0  0
   13.4231    1.2589    1.4106 H   0  0  0  0  0  0  0  0  0  0  0  0
   11.9428   -0.6335    6.2700 H   0  0  0  0  0  0  0  0  0  0  0  0
   11.6448    3.5022    5.1574 H   0  0  0  0  0  0  0  0  0  0  0  0
   12.4574    2.9383    2.9165 H   0  0  0  0  0  0  0  0  0  0  0  0
    9.2174    1.0657    7.7894 H   0  0  0  0  0  0  0  0  0  0  0  0
    9.2897    0.7608    6.0456 H   0  0  0  0  0  0  0  0  0  0  0  0
    8.3670    2.3963    4.5593 H   0  0  0  0  0  0  0  0  0  0  0  0
    9.6157    3.6469    4.9000 H   0  0  0  0  0  0  0  0  0  0  0  0
    7.1390    4.4899    4.3211 H   0  0  0  0  0  0  0  0  0  0  0  0
    8.0889    5.2548    5.5960 H   0  0  0  0  0  0  0  0  0  0  0  0
    5.6887    3.5523    5.9234 H   0  0  0  0  0  0  0  0  0  0  0  0
    6.4519    4.6573    7.0686 H   0  0  0  0  0  0  0  0  0  0  0  0
    7.2723    2.7164    8.1473 H   0  0  0  0  0  0  0  0  0  0  0  0
    6.8974    1.7074    6.7002 H   0  0  0  0  0  0  0  0  0  0  0  0
   11.3782    4.5839   -1.4322 H   0  0  0  0  0  0  0  0  0  0  0  0
   12.7391    3.6487   -2.0469 H   0  0  0  0  0  0  0  0  0  0  0  0
   13.3909    5.7393   -0.7877 H   0  0  0  0  0  0  0  0  0  0  0  0
   14.1531    4.2711   -0.2198 H   0  0  0  0  0  0  0  0  0  0  0  0
   13.3278    4.3809    1.7995 H   0  0  0  0  0  0  0  0  0  0  0  0
   10.5689    5.3577    0.9110 H   0  0  0  0  0  0  0  0  0  0  0  0
   10.9468    4.5856    2.4256 H   0  0  0  0  0  0  0  0  0  0  0  0
   10.7624    2.4344    1.4729 H   0  0  0  0  0  0  0  0  0  0  0  0
    9.8230    3.3127    0.2919 H   0  0  0  0  0  0  0  0  0  0  0  0
   12.0487    7.0820    1.2859 H   0  0  0  0  0  0  0  0  0  0  0  0
   13.7483    6.8208    1.0036 H   0  0  0  0  0  0  0  0  0  0  0  0
   13.4614    5.7678    3.5988 H   0  0  0  0  0  0  0  0  0  0  0  0
   12.2286    7.0336    3.5789 H   0  0  0  0  0  0  0  0  0  0  0  0
   13.8660    8.9840    1.7238 H   0  0  0  0  0  0  0  0  0  0  0  0
   15.3356    7.9271    1.5541 H   0  0  0  0  0  0  0  0  0  0  0  0
   15.5785   10.5337    2.3187 H   0  0  0  0  0  0  0  0  0  0  0  0
   16.6207    9.2607    2.9591 H   0  0  0  0  0  0  0  0  0  0  0  0
   14.5752   10.7733    4.4247 H   0  0  0  0  0  0  0  0  0  0  0  0
   15.7896    9.6507    5.0374 H   0  0  0  0  0  0  0  0  0  0  0  0
   13.9645    8.1975    5.4222 H   0  0  0  0  0  0  0  0  0  0  0  0
   12.9304    9.1068    4.2612 H   0  0  0  0  0  0  0  0  0  0  0  0
   12.3618   -8.8452    3.9424 H   0  0  0  0  0  0  0  0  0  0  0  0
    9.2154    3.4337    7.1996 H   0  0  0  0  0  0  0  0  0  0  0  0
   15.0620    7.1652    3.6932 H   0  0  0  0  0  0  0  0  0  0  0  0
  1 20  1  0  0  0  0
  1 21  1  0  0  0  0
  1 22  1  0  0  0  0
  1 51  1  0  0  0  0
  2 18  1  0  0  0  0
  2 21  1  0  0  0  0
  2 52  1  0  0  0  0
  2 53  1  0  0  0  0
  3 22  1  0  0  0  0
  3 23  1  0  0  0  0
  3 54  1  0  0  0  0
  3 55  1  0  0  0  0
  4  5  1  0  0  0  0
  4 24  1  0  0  0  0
  4 56  1  0  0  0  0
  4 57  1  0  0  0  0
  5  6  1  0  0  0  0
  5 58  1  0  0  0  0
  5 59  1  0  0  0  0
  6 23  1  0  0  0  0
  6 60  1  0  0  0  0
  6 61  1  0  0  0  0
  7 27  2  0  0  0  0
  7 28  1  0  0  0  0
  7 62  1  0  0  0  0
  8 28  2  0  0  0  0
  8 29  1  0  0  0  0
  8 31  1  0  0  0  0
  9 10  2  0  0  0  0
 10 11  1  0  0  0  0
 10 38  1  0  0  0  0
 11 12  2  0  0  0  0
 11 16  1  0  0  0  0
 12 13  1  0  0  0  0
 12 26  1  0  0  0  0
 13 14  2  0  0  0  0
 13 63  1  0  0  0  0
 14 15  1  0  0  0  0
 14 17  1  0  0  0  0
 15 16  2  0  0  0  0
 15 64  1  0  0  0  0
 16 65  1  0  0  0  0
 17 18  1  0  0  0  0
 17 25  2  0  0  0  0
 18 19  1  0  0  0  0
 19 20  1  0  0  0  0
 19 66  1  0  0  0  0
 19 67  1  0  0  0  0
 20 68  1  0  0  0  0
 20 69  1  0  0  0  0
 21 70  1  0  0  0  0
 21 71  1  0  0  0  0
 22 72  1  0  0  0  0
 22 73  1  0  0  0  0
 23 24  1  0  0  0  0
 23111  1  0  0  0  0
 24 74  1  0  0  0  0
 24 75  1  0  0  0  0
 26 27  1  0  0  0  0
 26 76  1  0  0  0  0
 27 30  1  0  0  0  0
 28 77  1  0  0  0  0
 29 30  2  0  0  0  0
 29 78  1  0  0  0  0
 30 79  1  0  0  0  0
 31 32  1  0  0  0  0
 32 33  1  0  0  0  0
 32 80  1  0  0  0  0
 32 81  1  0  0  0  0
 33 34  1  0  0  0  0
 33 37  1  0  0  0  0
 33112  1  0  0  0  0
 34 35  1  0  0  0  0
 34 82  1  0  0  0  0
 34 83  1  0  0  0  0
 35 36  1  0  0  0  0
 35 84  1  0  0  0  0
 35 85  1  0  0  0  0
 36 37  1  0  0  0  0
 36 86  1  0  0  0  0
 36 87  1  0  0  0  0
 37 88  1  0  0  0  0
 37 89  1  0  0  0  0
 38 39  1  0  0  0  0
 38 43  1  0  0  0  0
 39 40  1  0  0  0  0
 39 90  1  0  0  0  0
 39 91  1  0  0  0  0
 40 41  1  0  0  0  0
 40 92  1  0  0  0  0
 40 93  1  0  0  0  0
 41 42  1  0  0  0  0
 41 44  1  0  0  0  0
 41 94  1  0  0  0  0
 42 43  1  0  0  0  0
 42 95  1  0  0  0  0
 42 96  1  0  0  0  0
 43 97  1  0  0  0  0
 43 98  1  0  0  0  0
 44 45  1  0  0  0  0
 44 99  1  0  0  0  0
 44100  1  0  0  0  0
 45 46  1  0  0  0  0
 45101  1  0  0  0  0
 45102  1  0  0  0  0
 46 47  1  0  0  0  0
 46 50  1  0  0  0  0
 46113  1  0  0  0  0
 47 48  1  0  0  0  0
 47103  1  0  0  0  0
 47104  1  0  0  0  0
 48 49  1  0  0  0  0
 48105  1  0  0  0  0
 48106  1  0  0  0  0
 49 50  1  0  0  0  0
 49107  1  0  0  0  0
 49108  1  0  0  0  0
 50109  1  0  0  0  0
 50110  1  0  0  0  0
M  CHG  3  23   1  33   1  46   1
M  END
$$$$
