6PK
 OpenBabel04161910523D

 70 72  0  0  1  0  0  0  0  0999 V2000
    2.7658    9.8014   25.0612 C   0  0  0  0  0  0  0  0  0  0  0  0
    3.5589    8.8176   25.6753 C   0  0  0  0  0  0  0  0  0  0  0  0
    4.2832    7.8942   24.8895 C   0  0  0  0  0  0  0  0  0  0  0  0
    5.0166    6.9673   22.6108 C   0  0  0  0  0  0  0  0  0  0  0  0
    5.5370    4.8356   19.9808 C   0  0  1  0  0  0  0  0  0  0  0  0
    6.8584    5.5992   19.9946 C   0  0  0  0  0  0  0  0  0  0  0  0
    8.3725    7.3825   19.2294 C   0  0  0  0  0  0  0  0  0  0  0  0
    9.0705    9.9392   22.0377 C   0  0  0  0  0  0  0  0  0  0  0  0
    9.3742    9.1614   23.3289 C   0  0  0  0  0  0  0  0  0  0  0  0
   10.6091    9.3423   23.9821 C   0  0  0  0  0  0  0  0  0  0  0  0
   10.0076    7.6890   25.7257 C   0  0  0  0  0  0  0  0  0  0  0  0
   10.3403    6.9356   26.9714 C   0  0  0  0  0  0  0  0  0  0  0  0
    9.4526    6.2755   27.6668 N   0  0  0  0  0  0  0  0  0  0  0  0
    5.6593    3.4859   19.2271 C   0  0  0  0  0  0  0  0  0  0  0  0
    6.6386    1.2735   19.3682 C   0  0  0  0  0  0  0  0  0  0  0  0
    7.6671    1.0947   18.2470 C   0  0  0  0  0  0  0  0  0  0  0  0
    7.2020    0.9240   16.9188 C   0  0  0  0  0  0  0  0  0  0  0  0
    8.1024    0.7285   15.8522 C   0  0  0  0  0  0  0  0  0  0  0  0
    4.2153    7.9395   23.4758 C   0  0  0  0  0  0  0  0  0  0  0  0
    4.1638    5.4019   22.3431 S   0  0  0  0  0  0  0  0  0  0  0  0
    5.1907    4.5069   21.3945 N   0  0  0  0  0  0  0  0  0  0  0  0
    6.5428    2.5891   19.9349 O   0  0  0  0  0  0  0  0  0  0  0  0
    9.0618    1.0461   18.4921 C   0  0  0  0  0  0  0  0  0  0  0  0
    9.9577    0.8501   17.4186 C   0  0  0  0  0  0  0  0  0  0  0  0
    9.4822    0.6933   16.1049 C   0  0  0  0  0  0  0  0  0  0  0  0
    7.1164    6.6077   19.0821 N   0  0  0  0  0  0  0  0  0  0  0  0
    8.2042    8.3287   20.4281 C   0  0  0  0  0  0  0  0  0  0  0  0
    9.2551    9.1143   20.8390 N   0  0  0  0  0  0  0  0  0  0  0  0
    8.4620    8.2323   23.8892 C   0  0  0  0  0  0  0  0  0  0  0  0
    8.7646    7.5017   25.0699 C   0  0  0  0  0  0  0  0  0  0  0  0
   11.6086    6.9320   27.4217 N   0  0  0  0  0  0  0  0  0  0  0  0
   10.9112    8.6149   25.1604 C   0  0  0  0  0  0  0  0  0  0  0  0
    7.1254    8.3909   21.0138 O   0  0  0  0  0  0  0  0  0  0  0  0
    7.7181    5.3383   20.8736 O   0  0  0  0  0  0  0  0  0  0  0  0
    2.9822    5.5959   21.5464 O   0  0  0  0  0  0  0  0  0  0  0  0
    4.1097    4.6929   23.6137 O   0  0  0  0  0  0  0  0  0  0  0  0
    3.4249    8.9486   22.8701 C   0  0  0  0  0  0  0  0  0  0  0  0
    2.7032    9.8682   23.6603 C   0  0  0  0  0  0  0  0  0  0  0  0
    2.1958   10.5159   25.6717 H   0  0  0  0  0  0  0  0  0  0  0  0
    3.6072    8.7628   26.7756 H   0  0  0  0  0  0  0  0  0  0  0  0
    4.8949    7.1312   25.3814 H   0  0  0  0  0  0  0  0  0  0  0  0
    5.9710    6.7300   23.0877 H   0  0  0  0  0  0  0  0  0  0  0  0
    5.1917    7.3949   21.6237 H   0  0  0  0  0  0  0  0  0  0  0  0
    4.7779    5.4679   19.5135 H   0  0  0  0  0  0  0  0  0  0  0  0
    8.5742    7.9525   18.3178 H   0  0  0  0  0  0  0  0  0  0  0  0
    9.1869    6.6756   19.4204 H   0  0  0  0  0  0  0  0  0  0  0  0
    9.7202   10.8260   21.9482 H   0  0  0  0  0  0  0  0  0  0  0  0
    8.0349   10.3220   22.0511 H   0  0  0  0  0  0  0  0  0  0  0  0
   11.3402   10.0558   23.5776 H   0  0  0  0  0  0  0  0  0  0  0  0
    9.6769    5.7699   28.5200 H   0  0  0  0  0  0  0  0  0  0  0  0
    6.0353    3.6384   18.2122 H   0  0  0  0  0  0  0  0  0  0  0  0
    4.6524    3.0406   19.1738 H   0  0  0  0  0  0  0  0  0  0  0  0
    6.8890    0.5850   20.1909 H   0  0  0  0  0  0  0  0  0  0  0  0
    5.6466    0.9867   18.9999 H   0  0  0  0  0  0  0  0  0  0  0  0
    6.1258    0.9425   16.7136 H   0  0  0  0  0  0  0  0  0  0  0  0
    7.7219    0.6059   14.8266 H   0  0  0  0  0  0  0  0  0  0  0  0
    5.6787    3.6970   21.7859 H   0  0  0  0  0  0  0  0  0  0  0  0
    9.4514    1.1601   19.5099 H   0  0  0  0  0  0  0  0  0  0  0  0
   11.0459    0.8208   17.6100 H   0  0  0  0  0  0  0  0  0  0  0  0
   10.1805    0.5420   15.2727 H   0  0  0  0  0  0  0  0  0  0  0  0
    6.4205    6.9094   18.3987 H   0  0  0  0  0  0  0  0  0  0  0  0
   10.1480    9.0894   20.3572 H   0  0  0  0  0  0  0  0  0  0  0  0
    7.4937    8.0656   23.4059 H   0  0  0  0  0  0  0  0  0  0  0  0
    8.0288    6.7918   25.4565 H   0  0  0  0  0  0  0  0  0  0  0  0
   12.3164    7.4139   26.9104 H   0  0  0  0  0  0  0  0  0  0  0  0
   11.8581    6.4395   28.2568 H   0  0  0  0  0  0  0  0  0  0  0  0
   11.8855    8.8069   25.6303 H   0  0  0  0  0  0  0  0  0  0  0  0
    3.3682    9.0157   21.7775 H   0  0  0  0  0  0  0  0  0  0  0  0
    2.0819   10.6383   23.1698 H   0  0  0  0  0  0  0  0  0  0  0  0
    8.4800    6.2534   27.3732 H   0  0  0  0  0  0  0  0  0  0  0  0
  1  2  2  0  0  0  0
  1 38  1  0  0  0  0
  1 39  1  0  0  0  0
  2  3  1  0  0  0  0
  2 40  1  0  0  0  0
  3 19  2  0  0  0  0
  3 41  1  0  0  0  0
  4 19  1  0  0  0  0
  4 20  1  0  0  0  0
  4 42  1  0  0  0  0
  4 43  1  0  0  0  0
  5  6  1  0  0  0  0
  5 14  1  0  0  0  0
  5 21  1  0  0  0  0
  5 44  1  6  0  0  0
  6 26  1  0  0  0  0
  6 34  2  0  0  0  0
  7 26  1  0  0  0  0
  7 27  1  0  0  0  0
  7 45  1  0  0  0  0
  7 46  1  0  0  0  0
  8  9  1  0  0  0  0
  8 28  1  0  0  0  0
  8 47  1  0  0  0  0
  8 48  1  0  0  0  0
  9 10  2  0  0  0  0
  9 29  1  0  0  0  0
 10 32  1  0  0  0  0
 10 49  1  0  0  0  0
 11 12  1  0  0  0  0
 11 30  1  0  0  0  0
 11 32  2  0  0  0  0
 12 13  2  0  0  0  0
 12 31  1  0  0  0  0
 13 50  1  0  0  0  0
 13 70  1  0  0  0  0
 14 22  1  0  0  0  0
 14 51  1  0  0  0  0
 14 52  1  0  0  0  0
 15 16  1  0  0  0  0
 15 22  1  0  0  0  0
 15 53  1  0  0  0  0
 15 54  1  0  0  0  0
 16 17  2  0  0  0  0
 16 23  1  0  0  0  0
 17 18  1  0  0  0  0
 17 55  1  0  0  0  0
 18 25  2  0  0  0  0
 18 56  1  0  0  0  0
 19 37  1  0  0  0  0
 20 21  1  0  0  0  0
 20 35  2  0  0  0  0
 20 36  2  0  0  0  0
 21 57  1  0  0  0  0
 23 24  2  0  0  0  0
 23 58  1  0  0  0  0
 24 25  1  0  0  0  0
 24 59  1  0  0  0  0
 25 60  1  0  0  0  0
 26 61  1  0  0  0  0
 27 28  1  0  0  0  0
 27 33  2  0  0  0  0
 28 62  1  0  0  0  0
 29 30  2  0  0  0  0
 29 63  1  0  0  0  0
 30 64  1  0  0  0  0
 31 65  1  0  0  0  0
 31 66  1  0  0  0  0
 32 67  1  0  0  0  0
 37 38  2  0  0  0  0
 37 68  1  0  0  0  0
 38 69  1  0  0  0  0
M  END
$$$$
