6Q0
 OpenBabel04161910593D

 42 44  0  0  0  0  0  0  0  0999 V2000
   10.3564   16.3530   17.3543 C   0  0  0  0  0  0  0  0  0  0  0  0
   10.8824   17.5798   17.7525 C   0  0  0  0  0  0  0  0  0  0  0  0
    9.3013   15.7833   18.0563 C   0  0  0  0  0  0  0  0  0  0  0  0
    5.8405   17.8840   17.7279 C   0  0  0  0  0  0  0  0  0  0  0  0
   10.3467   18.2577   18.8498 C   0  0  0  0  0  0  0  0  0  0  0  0
    8.7567   16.4567   19.1406 C   0  0  0  0  0  0  0  0  0  0  0  0
    7.1641   17.8197   15.7050 C   0  0  0  0  0  0  0  0  0  0  0  0
    7.4577   17.2510   14.4135 C   0  0  0  0  0  0  0  0  0  0  0  0
    6.5992   18.9530   18.2031 C   0  0  0  0  0  0  0  0  0  0  0  0
    9.2567   17.7054   19.5177 C   0  0  0  0  0  0  0  0  0  0  0  0
    7.6600   17.8811   13.1617 C   0  0  0  0  0  0  0  0  0  0  0  0
    7.6105   15.9119   14.1298 C   0  0  0  0  0  0  0  0  0  0  0  0
    7.6108   19.3129   12.8192 C   0  0  0  0  0  0  0  0  0  0  0  0
    7.9056   18.9057   16.1688 C   0  0  0  0  0  0  0  0  0  0  0  0
    6.1192   17.3239   16.4842 C   0  0  0  0  0  0  0  0  0  0  0  0
    7.6083   19.4799   17.3985 C   0  0  0  0  0  0  0  0  0  0  0  0
    7.5636   14.6533   14.8890 C   0  0  0  0  0  0  0  0  0  0  0  0
    6.3421   19.5232   19.5690 C   0  0  0  0  0  0  0  0  0  0  0  0
    7.9063   16.9908   12.1965 N   0  0  0  0  0  0  0  0  0  0  0  0
    7.5745   19.7822   20.3267 N   0  0  0  0  0  0  0  0  0  0  0  0
    7.6876   17.5563   21.5683 O   0  0  0  0  0  0  0  0  0  0  0  0
    9.6439   19.1337   21.6370 O   0  0  0  0  0  0  0  0  0  0  0  0
    7.8798   15.7624   12.8079 O   0  0  0  0  0  0  0  0  0  0  0  0
    8.5562   18.5354   20.9216 S   0  0  0  0  0  0  0  0  0  0  0  0
   10.7763   15.8397   16.4952 H   0  0  0  0  0  0  0  0  0  0  0  0
   11.7108   18.0127   17.2044 H   0  0  0  0  0  0  0  0  0  0  0  0
    8.8998   14.8191   17.7594 H   0  0  0  0  0  0  0  0  0  0  0  0
    5.0369   17.4743   18.3343 H   0  0  0  0  0  0  0  0  0  0  0  0
   10.7605   19.2115   19.1601 H   0  0  0  0  0  0  0  0  0  0  0  0
    7.9232   16.0192   19.6832 H   0  0  0  0  0  0  0  0  0  0  0  0
    7.8132   19.4489   11.7526 H   0  0  0  0  0  0  0  0  0  0  0  0
    8.3657   19.8622   13.3881 H   0  0  0  0  0  0  0  0  0  0  0  0
    6.6206   19.7190   13.0460 H   0  0  0  0  0  0  0  0  0  0  0  0
    8.7305   19.3047   15.5868 H   0  0  0  0  0  0  0  0  0  0  0  0
    5.5134   16.4983   16.1244 H   0  0  0  0  0  0  0  0  0  0  0  0
    8.1977   20.3179   17.7583 H   0  0  0  0  0  0  0  0  0  0  0  0
    7.7479   13.8030   14.2233 H   0  0  0  0  0  0  0  0  0  0  0  0
    6.5840   14.5195   15.3554 H   0  0  0  0  0  0  0  0  0  0  0  0
    8.3312   14.6483   15.6629 H   0  0  0  0  0  0  0  0  0  0  0  0
    5.7009   18.8363   20.1286 H   0  0  0  0  0  0  0  0  0  0  0  0
    5.7767   20.4601   19.4284 H   0  0  0  0  0  0  0  0  0  0  0  0
    7.8279   20.7497   20.5269 H   0  0  0  0  0  0  0  0  0  0  0  0
  1  2  2  0  0  0  0
  1  3  1  0  0  0  0
  1 25  1  0  0  0  0
  2  5  1  0  0  0  0
  2 26  1  0  0  0  0
  3  6  2  0  0  0  0
  3 27  1  0  0  0  0
  4  9  2  0  0  0  0
  4 15  1  0  0  0  0
  4 28  1  0  0  0  0
  5 10  2  0  0  0  0
  5 29  1  0  0  0  0
  6 10  1  0  0  0  0
  6 30  1  0  0  0  0
  7  8  1  0  0  0  0
  7 14  1  0  0  0  0
  7 15  2  0  0  0  0
  8 11  1  0  0  0  0
  8 12  2  0  0  0  0
  9 16  1  0  0  0  0
  9 18  1  0  0  0  0
 10 24  1  0  0  0  0
 11 13  1  0  0  0  0
 11 19  2  0  0  0  0
 12 17  1  0  0  0  0
 12 23  1  0  0  0  0
 13 31  1  0  0  0  0
 13 32  1  0  0  0  0
 13 33  1  0  0  0  0
 14 16  2  0  0  0  0
 14 34  1  0  0  0  0
 15 35  1  0  0  0  0
 16 36  1  0  0  0  0
 17 37  1  0  0  0  0
 17 38  1  0  0  0  0
 17 39  1  0  0  0  0
 18 20  1  0  0  0  0
 18 40  1  0  0  0  0
 18 41  1  0  0  0  0
 19 23  1  0  0  0  0
 20 24  1  0  0  0  0
 20 42  1  0  0  0  0
 21 24  2  0  0  0  0
 22 24  2  0  0  0  0
M  END
$$$$
