6Q3
 OpenBabel04161910203D

 26 26  0  0  0  0  0  0  0  0999 V2000
   15.8830   21.6756    4.7911 N   0  0  0  0  0  0  0  0  0  0  0  0
   17.1702   21.3556    4.6493 C   0  0  0  0  0  0  0  0  0  0  0  0
   17.7066   20.4551    5.5309 N   0  0  0  0  0  0  0  0  0  0  0  0
   17.9968   21.8675    3.7343 N   0  0  0  0  0  0  0  0  0  0  0  0
   17.4945   22.7958    2.8922 C   0  0  0  0  0  0  0  0  0  0  0  0
   18.4310   23.3832    1.8794 C   0  0  0  0  0  0  0  0  0  0  0  0
   15.4257   22.6062    3.9359 C   0  0  0  0  0  0  0  0  0  0  0  0
   16.1889   23.2045    2.9602 C   0  0  0  0  0  0  0  0  0  0  0  0
   10.3170   21.5268    4.5618 O   0  0  0  0  0  0  0  0  0  0  0  0
   10.8706   22.3356    5.5912 C   0  0  0  0  0  0  0  0  0  0  0  0
   11.9797   23.1615    4.9857 C   0  0  0  0  0  0  0  0  0  0  0  0
   13.3099   22.4082    4.9765 C   0  0  0  0  0  0  0  0  0  0  0  0
   14.1313   23.0654    4.0120 O   0  0  0  0  0  0  0  0  0  0  0  0
   17.0739   19.9678    6.1390 H   0  0  0  0  0  0  0  0  0  0  0  0
   18.6408   20.1408    5.3394 H   0  0  0  0  0  0  0  0  0  0  0  0
   17.9286   24.1295    1.2539 H   0  0  0  0  0  0  0  0  0  0  0  0
   18.8158   22.5947    1.2283 H   0  0  0  0  0  0  0  0  0  0  0  0
   19.2673   23.8727    2.3869 H   0  0  0  0  0  0  0  0  0  0  0  0
   15.7684   23.9544    2.3036 H   0  0  0  0  0  0  0  0  0  0  0  0
    9.5585   21.0545    4.9455 H   0  0  0  0  0  0  0  0  0  0  0  0
   11.2312   21.6818    6.3889 H   0  0  0  0  0  0  0  0  0  0  0  0
   10.0833   22.9822    5.9863 H   0  0  0  0  0  0  0  0  0  0  0  0
   12.1163   24.0944    5.5471 H   0  0  0  0  0  0  0  0  0  0  0  0
   11.7204   23.4566    3.9575 H   0  0  0  0  0  0  0  0  0  0  0  0
   13.1645   21.3571    4.6987 H   0  0  0  0  0  0  0  0  0  0  0  0
   13.7566   22.4664    5.9776 H   0  0  0  0  0  0  0  0  0  0  0  0
  1  2  2  0  0  0  0
  1  7  1  0  0  0  0
  2  3  1  0  0  0  0
  2  4  1  0  0  0  0
  3 14  1  0  0  0  0
  3 15  1  0  0  0  0
  4  5  2  0  0  0  0
  5  6  1  0  0  0  0
  5  8  1  0  0  0  0
  6 16  1  0  0  0  0
  6 17  1  0  0  0  0
  6 18  1  0  0  0  0
  7  8  2  0  0  0  0
  7 13  1  0  0  0  0
  8 19  1  0  0  0  0
  9 10  1  0  0  0  0
  9 20  1  0  0  0  0
 10 11  1  0  0  0  0
 10 21  1  0  0  0  0
 10 22  1  0  0  0  0
 11 12  1  0  0  0  0
 11 23  1  0  0  0  0
 11 24  1  0  0  0  0
 12 13  1  0  0  0  0
 12 25  1  0  0  0  0
 12 26  1  0  0  0  0
M  END
$$$$
