6RB
 OpenBabel04161911003D

 66 70  0  0  1  0  0  0  0  0999 V2000
    9.6580   17.0888    6.4395 C   0  0  0  0  0  0  0  0  0  0  0  0
   10.9521   17.0265    7.0229 O   0  0  0  0  0  0  0  0  0  0  0  0
   12.0817   17.0894    6.2443 C   0  0  0  0  0  0  0  0  0  0  0  0
   12.0971   17.2235    4.8658 C   0  0  0  0  0  0  0  0  0  0  0  0
   13.3118   17.2310    4.1824 C   0  0  0  0  0  0  0  0  0  0  0  0
   13.3003   16.9666    6.9445 C   0  0  0  0  0  0  0  0  0  0  0  0
   13.2973   16.8051    8.3434 C   0  0  0  0  0  0  0  0  0  0  0  0
   14.4592   16.6677    9.0891 C   0  0  0  0  0  0  0  0  0  0  0  0
   15.6692   16.7399    8.4183 C   0  0  0  0  0  0  0  0  0  0  0  0
   15.7106   16.8582    7.0221 C   0  0  0  0  0  0  0  0  0  0  0  0
   14.5385   16.9820    6.2499 C   0  0  0  0  0  0  0  0  0  0  0  0
   14.5324   17.1182    4.8474 C   0  0  0  0  0  0  0  0  0  0  0  0
   15.7714   17.0626    3.9989 C   0  0  0  0  0  0  0  0  0  0  0  0
   16.1684   15.6431    3.5984 N   0  3  2  0  0  0  0  0  0  0  0  0
   15.4054   15.0980    2.4216 C   0  0  0  0  0  0  0  0  0  0  0  0
   15.7961   13.7123    2.1438 C   0  0  0  0  0  0  0  0  0  0  0  0
   16.1994   14.5679    4.6889 C   0  0  0  0  0  0  0  0  0  0  0  0
   16.9902   13.3106    4.2632 C   0  0  0  0  0  0  0  0  0  0  0  0
   16.5011   12.8887    2.9523 C   0  0  0  0  0  0  0  0  0  0  0  0
   16.5971   11.6636    2.3648 N   0  3  0  0  0  0  0  0  0  0  0  0
   17.2727   10.4509    2.8253 C   0  0  0  0  0  0  0  0  0  0  0  0
   18.6024   10.1903    2.1270 C   0  0  0  0  0  0  0  0  0  0  0  0
   19.3419   11.4075    2.0226 O   0  0  0  0  0  0  0  0  0  0  0  0
   15.9837   11.6973    1.1644 N   0  0  0  0  0  0  0  0  0  0  0  0
   15.4813   12.9325    1.0364 C   0  0  0  0  0  0  0  0  0  0  0  0
   14.7002   13.4099   -0.0831 C   0  0  0  0  0  0  0  0  0  0  0  0
   14.1862   14.4939   -0.1297 O   0  0  0  0  0  0  0  0  0  0  0  0
   14.6278   12.4655   -1.0839 N   0  0  0  0  0  0  0  0  0  0  0  0
   13.7863   12.7155   -2.1931 C   0  0  0  0  0  0  0  0  0  0  0  0
   12.4535   12.0674   -2.0368 C   0  0  0  0  0  0  0  0  0  0  0  0
   11.7077   11.8098   -3.1895 C   0  0  0  0  0  0  0  0  0  0  0  0
   10.4446   11.2411   -3.1008 C   0  0  0  0  0  0  0  0  0  0  0  0
    9.9242   10.9210   -1.8531 C   0  0  0  0  0  0  0  0  0  0  0  0
   10.6481   11.1986   -0.6999 C   0  0  0  0  0  0  0  0  0  0  0  0
   11.9073   11.7753   -0.7871 C   0  0  0  0  0  0  0  0  0  0  0  0
    8.9189   16.9997    7.2520 H   0  0  0  0  0  0  0  0  0  0  0  0
    9.5074   16.2598    5.7439 H   0  0  0  0  0  0  0  0  0  0  0  0
    9.5096   18.0485    5.9400 H   0  0  0  0  0  0  0  0  0  0  0  0
   11.1747   17.3080    4.3005 H   0  0  0  0  0  0  0  0  0  0  0  0
   13.3200   17.3121    3.0990 H   0  0  0  0  0  0  0  0  0  0  0  0
   12.3459   16.8019    8.8742 H   0  0  0  0  0  0  0  0  0  0  0  0
   14.4072   16.5127   10.1663 H   0  0  0  0  0  0  0  0  0  0  0  0
   16.5872   16.7149    8.9948 H   0  0  0  0  0  0  0  0  0  0  0  0
   16.6781   16.8373    6.5380 H   0  0  0  0  0  0  0  0  0  0  0  0
   16.6181   17.5230    4.5292 H   0  0  0  0  0  0  0  0  0  0  0  0
   15.6123   17.6671    3.0811 H   0  0  0  0  0  0  0  0  0  0  0  0
   15.6720   15.6994    1.5656 H   0  0  0  0  0  0  0  0  0  0  0  0
   14.3524   15.1040    2.6684 H   0  0  0  0  0  0  0  0  0  0  0  0
   15.1596   14.3040    4.9081 H   0  0  0  0  0  0  0  0  0  0  0  0
   16.6955   14.9988    5.5417 H   0  0  0  0  0  0  0  0  0  0  0  0
   16.8161   12.4872    4.9542 H   0  0  0  0  0  0  0  0  0  0  0  0
   18.0607   13.5067    4.1564 H   0  0  0  0  0  0  0  0  0  0  0  0
   16.6030    9.6056    2.6414 H   0  0  0  0  0  0  0  0  0  0  0  0
   17.4554   10.5185    3.9082 H   0  0  0  0  0  0  0  0  0  0  0  0
   18.4419    9.7706    1.1258 H   0  0  0  0  0  0  0  0  0  0  0  0
   19.2108    9.4711    2.6999 H   0  0  0  0  0  0  0  0  0  0  0  0
   18.8024   12.0213    1.4927 H   0  0  0  0  0  0  0  0  0  0  0  0
   15.1226   11.5945   -0.9618 H   0  0  0  0  0  0  0  0  0  0  0  0
   14.2950   12.3096   -3.0643 H   0  0  0  0  0  0  0  0  0  0  0  0
   13.6427   13.7933   -2.3043 H   0  0  0  0  0  0  0  0  0  0  0  0
   12.1293   12.0596   -4.1571 H   0  0  0  0  0  0  0  0  0  0  0  0
    9.8653   11.0477   -3.9992 H   0  0  0  0  0  0  0  0  0  0  0  0
    8.9480   10.4527   -1.7708 H   0  0  0  0  0  0  0  0  0  0  0  0
   10.2309   10.9686    0.2721 H   0  0  0  0  0  0  0  0  0  0  0  0
   12.4575   11.9904    0.1213 H   0  0  0  0  0  0  0  0  0  0  0  0
   17.1283   15.7207    3.2667 H   0  0  0  0  0  0  0  0  0  0  0  0
  1  2  1  0  0  0  0
  1 36  1  0  0  0  0
  1 37  1  0  0  0  0
  1 38  1  0  0  0  0
  2  3  1  0  0  0  0
  3  4  2  0  0  0  0
  3  6  1  0  0  0  0
  4  5  1  0  0  0  0
  4 39  1  0  0  0  0
  5 12  2  0  0  0  0
  5 40  1  0  0  0  0
  6  7  2  0  0  0  0
  6 11  1  0  0  0  0
  7  8  1  0  0  0  0
  7 41  1  0  0  0  0
  8  9  2  0  0  0  0
  8 42  1  0  0  0  0
  9 10  1  0  0  0  0
  9 43  1  0  0  0  0
 10 11  2  0  0  0  0
 10 44  1  0  0  0  0
 11 12  1  0  0  0  0
 12 13  1  0  0  0  0
 13 14  1  0  0  0  0
 13 45  1  0  0  0  0
 13 46  1  0  0  0  0
 14 15  1  0  0  0  0
 14 17  1  0  0  0  0
 14 66  1  6  0  0  0
 15 16  1  0  0  0  0
 15 47  1  0  0  0  0
 15 48  1  0  0  0  0
 16 19  1  0  0  0  0
 16 25  2  0  0  0  0
 17 18  1  0  0  0  0
 17 49  1  0  0  0  0
 17 50  1  0  0  0  0
 18 19  1  0  0  0  0
 18 51  1  0  0  0  0
 18 52  1  0  0  0  0
 19 20  2  0  0  0  0
 20 21  1  0  0  0  0
 20 24  1  0  0  0  0
 21 22  1  0  0  0  0
 21 53  1  0  0  0  0
 21 54  1  0  0  0  0
 22 23  1  0  0  0  0
 22 55  1  0  0  0  0
 22 56  1  0  0  0  0
 23 57  1  0  0  0  0
 24 25  1  0  0  0  0
 25 26  1  0  0  0  0
 26 27  2  0  0  0  0
 26 28  1  0  0  0  0
 28 29  1  0  0  0  0
 28 58  1  0  0  0  0
 29 30  1  0  0  0  0
 29 59  1  0  0  0  0
 29 60  1  0  0  0  0
 30 31  2  0  0  0  0
 30 35  1  0  0  0  0
 31 32  1  0  0  0  0
 31 61  1  0  0  0  0
 32 33  2  0  0  0  0
 32 62  1  0  0  0  0
 33 34  1  0  0  0  0
 33 63  1  0  0  0  0
 34 35  2  0  0  0  0
 34 64  1  0  0  0  0
 35 65  1  0  0  0  0
M  CHG  2  14   1  20   1
M  END
$$$$
