6RL
 OpenBabel04161910553D

 47 49  0  0  1  0  0  0  0  0999 V2000
   43.9570   32.3919   14.4670 C   0  0  0  0  0  0  0  0  0  0  0  0
   43.4342   33.6162   14.6321 C   0  0  0  0  0  0  0  0  0  0  0  0
   44.8666   35.4340   15.2457 C   0  0  0  0  0  0  0  0  0  0  0  0
   45.3381   35.8904   17.6416 C   0  0  0  0  0  0  0  0  0  0  0  0
   40.3984   35.4543   13.9952 C   0  0  0  0  0  0  0  0  0  0  0  0
   37.5924   35.6184   14.0220 C   0  0  0  0  0  0  0  0  0  0  0  0
   38.2405   34.7206   14.8623 C   0  0  0  0  0  0  0  0  0  0  0  0
   40.2517   33.6881   15.7037 C   0  0  0  0  0  0  0  0  0  0  0  0
   42.1065   33.3520   12.6401 C   0  0  0  0  0  0  0  0  0  0  0  0
   42.2587   31.2926   11.3292 C   0  0  0  0  0  0  0  0  0  0  0  0
   42.6472   32.1061   12.4679 N   0  3  0  0  0  0  0  0  0  0  0  0
   43.5540   31.5732   13.3372 C   0  0  0  0  0  0  0  0  0  0  0  0
   44.0467   30.4484   13.1982 O   0  0  0  0  0  0  0  0  0  0  0  0
   43.8610   34.4331   15.6754 N   0  0  0  0  0  0  0  0  0  0  0  0
   44.9431   36.5260   16.3020 C   0  0  0  0  0  0  0  0  0  0  0  0
   44.3277   34.8173   18.0450 C   0  0  1  0  0  0  0  0  0  0  0  0
   43.0020   35.4783   18.2223 N   0  3  0  0  0  0  0  0  0  0  0  0
   44.2289   33.7675   16.9411 C   0  0  0  0  0  0  0  0  0  0  0  0
   42.4992   34.0843   13.7364 N   0  3  0  0  0  0  0  0  0  0  0  0
   41.9113   35.4211   13.9138 C   0  0  0  0  0  0  0  0  0  0  0  0
   39.7303   36.3653   13.1649 C   0  0  0  0  0  0  0  0  0  0  0  0
   38.3433   36.4323   13.1848 C   0  0  0  0  0  0  0  0  0  0  0  0
   37.7224   37.3103   12.3913 F   0  0  0  0  0  0  0  0  0  0  0  0
   39.6208   34.6374   14.8425 C   0  0  0  0  0  0  0  0  0  0  0  0
   40.7556   32.9778   16.4820 N   0  0  0  0  0  0  0  0  0  0  0  0
   41.2712   33.8136   11.8452 O   0  0  0  0  0  0  0  0  0  0  0  0
   44.7021   31.9682   15.1369 H   0  0  0  0  0  0  0  0  0  0  0  0
   44.5876   35.8556   14.2708 H   0  0  0  0  0  0  0  0  0  0  0  0
   45.8315   34.9289   15.1349 H   0  0  0  0  0  0  0  0  0  0  0  0
   45.4122   36.6547   18.4215 H   0  0  0  0  0  0  0  0  0  0  0  0
   46.3226   35.4134   17.5377 H   0  0  0  0  0  0  0  0  0  0  0  0
   36.5095   35.6817   14.0160 H   0  0  0  0  0  0  0  0  0  0  0  0
   37.6529   34.0842   15.5223 H   0  0  0  0  0  0  0  0  0  0  0  0
   41.5317   31.8120   10.7055 H   0  0  0  0  0  0  0  0  0  0  0  0
   41.8217   30.3484   11.6793 H   0  0  0  0  0  0  0  0  0  0  0  0
   43.1448   31.0566   10.7255 H   0  0  0  0  0  0  0  0  0  0  0  0
   43.9688   37.0268   16.3959 H   0  0  0  0  0  0  0  0  0  0  0  0
   45.6698   37.2846   16.0063 H   0  0  0  0  0  0  0  0  0  0  0  0
   44.5871   34.3564   18.9972 H   0  0  0  0  0  0  0  0  0  0  0  0
   42.2796   34.7916   18.4694 H   0  0  0  0  0  0  0  0  0  0  0  0
   43.0419   36.2037   18.9441 H   0  0  0  0  0  0  0  0  0  0  0  0
   45.1970   33.2750   16.8170 H   0  0  0  0  0  0  0  0  0  0  0  0
   43.4777   33.0079   17.1961 H   0  0  0  0  0  0  0  0  0  0  0  0
   42.2746   35.8877   14.8370 H   0  0  0  0  0  0  0  0  0  0  0  0
   42.2439   36.0595   13.0802 H   0  0  0  0  0  0  0  0  0  0  0  0
   40.2873   37.0124   12.4902 H   0  0  0  0  0  0  0  0  0  0  0  0
   42.6972   35.9075   17.3355 H   0  0  0  0  0  0  0  0  0  0  0  0
  1  2  2  0  0  0  0
  1 12  1  0  0  0  0
  1 27  1  0  0  0  0
  2 14  1  0  0  0  0
  2 19  1  0  0  0  0
  3 14  1  0  0  0  0
  3 15  1  0  0  0  0
  3 28  1  0  0  0  0
  3 29  1  0  0  0  0
  4 15  1  0  0  0  0
  4 16  1  0  0  0  0
  4 30  1  0  0  0  0
  4 31  1  0  0  0  0
  5 20  1  0  0  0  0
  5 21  2  0  0  0  0
  5 24  1  0  0  0  0
  6  7  1  0  0  0  0
  6 22  2  0  0  0  0
  6 32  1  0  0  0  0
  7 24  2  0  0  0  0
  7 33  1  0  0  0  0
  8 24  1  0  0  0  0
  8 25  3  0  0  0  0
  9 11  1  0  0  0  0
  9 19  1  0  0  0  0
  9 26  2  0  0  0  0
 10 11  1  0  0  0  0
 10 34  1  0  0  0  0
 10 35  1  0  0  0  0
 10 36  1  0  0  0  0
 11 12  1  0  0  0  0
 12 13  2  0  0  0  0
 14 18  1  0  0  0  0
 15 37  1  0  0  0  0
 15 38  1  0  0  0  0
 16 17  1  0  0  0  0
 16 18  1  0  0  0  0
 16 39  1  1  0  0  0
 17 40  1  0  0  0  0
 17 41  1  0  0  0  0
 17 47  1  0  0  0  0
 18 42  1  0  0  0  0
 18 43  1  0  0  0  0
 19 20  1  0  0  0  0
 20 44  1  0  0  0  0
 20 45  1  0  0  0  0
 21 22  1  0  0  0  0
 21 46  1  0  0  0  0
 22 23  1  0  0  0  0
M  CHG  3  11   1  17   1  19   1
M  END
$$$$
