6UR
 OpenBabel04161910553D

 57 61  0  0  1  0  0  0  0  0999 V2000
  -31.5623    6.7094  -23.2787 C   0  0  0  0  0  0  0  0  0  0  0  0
  -26.4075    5.1049  -32.5558 C   0  0  0  0  0  0  0  0  0  0  0  0
  -32.1531    7.9548  -23.9574 C   0  0  0  0  0  0  0  0  0  0  0  0
  -28.3329    5.2454  -31.4720 C   0  0  0  0  0  0  0  0  0  0  0  0
  -29.0663    4.9462  -32.6095 C   0  0  0  0  0  0  0  0  0  0  0  0
  -28.3336    4.7258  -33.7942 C   0  0  0  0  0  0  0  0  0  0  0  0
  -33.5900    8.2424  -23.6121 C   0  0  1  0  0  0  0  0  0  0  0  0
  -26.9822    4.8111  -33.7411 N   0  0  0  0  0  0  0  0  0  0  0  0
  -26.9963    5.3480  -31.3697 N   0  0  0  0  0  0  0  0  0  0  0  0
  -30.4988    5.1869  -31.0301 C   0  0  0  0  0  0  0  0  0  0  0  0
  -28.9775    5.7190  -29.1038 C   0  0  1  0  0  0  0  0  0  0  0  0
  -29.8318    6.8264  -28.4940 C   0  0  1  0  0  0  0  0  0  0  0  0
  -29.7444    6.5191  -26.9954 C   0  0  1  0  0  0  0  0  0  0  0  0
  -29.3519    5.0254  -26.9483 C   0  0  1  0  0  0  0  0  0  0  0  0
  -30.3492    4.1600  -26.1881 C   0  0  0  0  0  0  0  0  0  0  0  0
  -32.1460    2.9493  -24.2695 O   0  0  0  0  0  0  0  0  0  0  0  0
  -31.2508    4.0302  -23.7342 P   0  0  1  0  0  0  0  0  0  0  0  0
  -32.1604    5.4821  -23.8001 N   0  0  0  0  0  0  0  0  0  0  0  0
  -30.5710    3.9548  -22.3980 O   0  0  0  0  0  0  0  0  0  0  0  0
  -30.1130    4.3846  -24.8208 O   0  0  0  0  0  0  0  0  0  0  0  0
  -28.7851    7.3703  -26.3568 O   0  0  0  0  0  0  0  0  0  0  0  0
  -29.4048    8.1329  -28.8698 O   0  0  0  0  0  0  0  0  0  0  0  0
  -29.2456    4.5629  -28.3102 O   0  0  0  0  0  0  0  0  0  0  0  0
  -29.2659    5.4086  -30.4824 N   0  3  0  0  0  0  0  0  0  0  0  0
  -30.4214    4.9272  -32.3263 N   0  0  0  0  0  0  0  0  0  0  0  0
  -28.9220    4.4314  -35.0030 N   0  0  0  0  0  0  0  0  0  0  0  0
  -34.1357    8.6754  -22.3569 C   0  0  1  0  0  0  0  0  0  0  0  0
  -35.5070    8.8201  -22.5073 C   0  0  1  0  0  0  0  0  0  0  0  0
  -35.7951    8.5004  -23.8175 N   0  3  0  0  0  0  0  0  0  0  0  0
  -34.6630    8.1732  -24.4942 C   0  0  0  0  0  0  0  0  0  0  0  0
  -33.5551    8.9269  -21.0809 C   0  0  0  0  0  0  0  0  0  0  0  0
  -34.3823    9.3236  -20.0290 C   0  0  0  0  0  0  0  0  0  0  0  0
  -35.7538    9.4675  -20.2084 C   0  0  0  0  0  0  0  0  0  0  0  0
  -36.3445    9.2165  -21.4582 C   0  0  0  0  0  0  0  0  0  0  0  0
  -31.6676    6.7776  -22.1922 H   0  0  0  0  0  0  0  0  0  0  0  0
  -30.4921    6.6742  -23.5078 H   0  0  0  0  0  0  0  0  0  0  0  0
  -25.3177    5.1553  -32.5608 H   0  0  0  0  0  0  0  0  0  0  0  0
  -32.0550    7.8579  -25.0432 H   0  0  0  0  0  0  0  0  0  0  0  0
  -31.5489    8.8232  -23.6695 H   0  0  0  0  0  0  0  0  0  0  0  0
  -31.4146    5.2264  -30.4576 H   0  0  0  0  0  0  0  0  0  0  0  0
  -27.9114    5.9661  -29.0151 H   0  0  0  0  0  0  0  0  0  0  0  0
  -30.8773    6.7211  -28.7994 H   0  0  0  0  0  0  0  0  0  0  0  0
  -30.7076    6.7003  -26.5099 H   0  0  0  0  0  0  0  0  0  0  0  0
  -28.3579    4.9212  -26.4928 H   0  0  0  0  0  0  0  0  0  0  0  0
  -30.1753    3.1032  -26.4187 H   0  0  0  0  0  0  0  0  0  0  0  0
  -31.3776    4.4014  -26.4806 H   0  0  0  0  0  0  0  0  0  0  0  0
  -33.1723    5.3902  -23.8586 H   0  0  0  0  0  0  0  0  0  0  0  0
  -27.8963    7.1721  -26.6874 H   0  0  0  0  0  0  0  0  0  0  0  0
  -28.4843    8.2550  -28.5798 H   0  0  0  0  0  0  0  0  0  0  0  0
  -28.3307    4.2748  -35.8067 H   0  0  0  0  0  0  0  0  0  0  0  0
  -29.9250    4.3469  -35.0482 H   0  0  0  0  0  0  0  0  0  0  0  0
  -36.7357    8.5137  -24.2063 H   0  0  0  0  0  0  0  0  0  0  0  0
  -34.6891    7.9003  -25.5368 H   0  0  0  0  0  0  0  0  0  0  0  0
  -32.4987    8.8000  -20.9242 H   0  0  0  0  0  0  0  0  0  0  0  0
  -33.9426    9.5018  -19.0489 H   0  0  0  0  0  0  0  0  0  0  0  0
  -36.3743    9.7612  -19.3753 H   0  0  0  0  0  0  0  0  0  0  0  0
  -37.4152    9.3173  -21.5900 H   0  0  0  0  0  0  0  0  0  0  0  0
  1  3  1  0  0  0  0
  1 18  1  0  0  0  0
  1 35  1  0  0  0  0
  1 36  1  0  0  0  0
  2  8  2  0  0  0  0
  2  9  1  0  0  0  0
  2 37  1  0  0  0  0
  3 38  1  0  0  0  0
  3 39  1  0  0  0  0
  4  5  1  0  0  0  0
  4  9  2  0  0  0  0
  4 24  1  0  0  0  0
  5  6  2  0  0  0  0
  5 25  1  0  0  0  0
  6  8  1  0  0  0  0
  6 26  1  0  0  0  0
  7  3  1  6  0  0  0
  7 27  1  0  0  0  0
  7 30  1  0  0  0  0
 10 24  2  0  0  0  0
 10 25  1  0  0  0  0
 10 40  1  0  0  0  0
 11 12  1  0  0  0  0
 11 23  1  0  0  0  0
 11 24  1  0  0  0  0
 11 41  1  1  0  0  0
 12 13  1  0  0  0  0
 12 22  1  0  0  0  0
 12 42  1  6  0  0  0
 13 14  1  0  0  0  0
 13 21  1  0  0  0  0
 13 43  1  1  0  0  0
 14 15  1  0  0  0  0
 14 23  1  0  0  0  0
 14 44  1  1  0  0  0
 15 20  1  0  0  0  0
 15 45  1  0  0  0  0
 15 46  1  0  0  0  0
 17 16  2  6  0  0  0
 17 18  1  0  0  0  0
 17 19  1  0  0  0  0
 17 20  1  0  0  0  0
 18 47  1  0  0  0  0
 21 48  1  0  0  0  0
 22 49  1  0  0  0  0
 26 50  1  0  0  0  0
 26 51  1  0  0  0  0
 27 28  1  0  0  0  0
 27 31  1  1  0  0  0
 28 29  1  1  0  0  0
 28 34  1  0  0  0  0
 29 30  1  0  0  0  0
 29 52  1  0  0  0  0
 30 53  1  0  0  0  0
 31 32  1  0  0  0  0
 31 54  1  0  0  0  0
 32 33  1  0  0  0  0
 32 55  1  0  0  0  0
 33 34  1  0  0  0  0
 33 56  1  0  0  0  0
 34 57  1  0  0  0  0
M  CHG  2  24   1  29   1
M  END
$$$$
