6VD
 OpenBabel04161910243D

 24 25  0  0  1  0  0  0  0  0999 V2000
  -27.1983    4.1867  -30.2962 C   0  0  0  0  0  0  0  0  0  0  0  0
  -27.3126    2.8389  -30.6257 C   0  0  0  0  0  0  0  0  0  0  0  0
  -26.9339    5.1247  -31.2799 C   0  0  0  0  0  0  0  0  0  0  0  0
  -27.1831    2.4181  -31.9432 C   0  0  0  0  0  0  0  0  0  0  0  0
  -26.7935    4.6976  -32.5904 C   0  0  2  0  0  0  0  0  0  0  0  0
  -26.9182    3.3404  -32.9440 C   0  0  1  0  0  0  0  0  0  0  0  0
  -26.3641    5.1938  -35.0227 C   0  0  0  0  0  0  0  0  0  0  0  0
  -26.5011    5.6813  -33.6420 C   0  0  0  0  0  0  0  0  0  0  0  0
  -26.5028    3.8735  -35.2506 C   0  0  1  0  0  0  0  0  0  0  0  0
  -27.6443    3.0647  -37.3035 C   0  0  0  0  0  0  0  0  0  0  0  0
  -26.3200    3.3559  -36.6363 C   0  0  0  0  0  0  0  0  0  0  0  0
  -26.7709    2.9508  -34.2711 N   0  3  0  0  0  0  0  0  0  0  0  0
  -26.3662    6.8790  -33.3705 O   0  0  0  0  0  0  0  0  0  0  0  0
  -27.3170    4.5057  -29.2698 H   0  0  0  0  0  0  0  0  0  0  0  0
  -27.5037    2.1140  -29.8434 H   0  0  0  0  0  0  0  0  0  0  0  0
  -26.8379    6.1823  -31.0278 H   0  0  0  0  0  0  0  0  0  0  0  0
  -27.2858    1.3631  -32.1884 H   0  0  0  0  0  0  0  0  0  0  0  0
  -26.1491    5.8942  -35.8137 H   0  0  0  0  0  0  0  0  0  0  0  0
  -27.4666    2.6870  -38.3140 H   0  0  0  0  0  0  0  0  0  0  0  0
  -28.2475    3.9764  -37.3676 H   0  0  0  0  0  0  0  0  0  0  0  0
  -28.2001    2.3107  -36.7373 H   0  0  0  0  0  0  0  0  0  0  0  0
  -25.7232    2.4388  -36.5954 H   0  0  0  0  0  0  0  0  0  0  0  0
  -25.7743    4.0952  -37.2325 H   0  0  0  0  0  0  0  0  0  0  0  0
  -26.8533    1.9624  -34.5105 H   0  0  0  0  0  0  0  0  0  0  0  0
  1  2  1  0  0  0  0
  1  3  1  0  0  0  0
  1 14  1  0  0  0  0
  2  4  1  0  0  0  0
  2 15  1  0  0  0  0
  3 16  1  0  0  0  0
  4 17  1  0  0  0  0
  5  3  1  1  0  0  0
  5  6  1  0  0  0  0
  5  8  1  0  0  0  0
  6  4  1  1  0  0  0
  6 12  1  0  0  0  0
  7  8  1  0  0  0  0
  7  9  1  0  0  0  0
  7 18  1  0  0  0  0
  8 13  2  0  0  0  0
  9 11  1  1  0  0  0
  9 12  1  0  0  0  0
 10 11  1  0  0  0  0
 10 19  1  0  0  0  0
 10 20  1  0  0  0  0
 10 21  1  0  0  0  0
 11 22  1  0  0  0  0
 11 23  1  0  0  0  0
 12 24  1  0  0  0  0
M  CHG  1  12   1
M  END
$$$$
