6XC
 OpenBabel04161909323D

 38 40  0  0  0  0  0  0  0  0999 V2000
  -23.6358   44.6746    9.8876 C   0  0  0  0  0  0  0  0  0  0  0  0
  -24.9856   44.6465   10.5226 C   0  0  0  0  0  0  0  0  0  0  0  0
  -25.9844   45.4614   10.1273 C   0  0  0  0  0  0  0  0  0  0  0  0
  -27.2955   45.4112   10.7732 C   0  0  0  0  0  0  0  0  0  0  0  0
  -28.3330   46.2378   10.3843 C   0  0  0  0  0  0  0  0  0  0  0  0
  -29.5397   46.1060   11.0546 C   0  0  0  0  0  0  0  0  0  0  0  0
  -29.7770   45.2250   12.0577 N   0  0  0  0  0  0  0  0  0  0  0  0
  -28.7613   44.4344   12.4576 C   0  0  0  0  0  0  0  0  0  0  0  0
  -29.0079   43.4889   13.4483 N   0  0  0  0  0  0  0  0  0  0  0  0
  -30.3563   43.2679   13.9413 C   0  0  0  0  0  0  0  0  0  0  0  0
  -30.3079   42.7961   15.3990 C   0  0  0  0  0  0  0  0  0  0  0  0
  -31.6915   42.4231   15.8954 C   0  0  0  0  0  0  0  0  0  0  0  0
  -32.2516   41.3656   15.0067 N   0  3  0  0  0  0  0  0  0  0  0  0
  -32.3893   41.8292   13.5948 C   0  0  0  0  0  0  0  0  0  0  0  0
  -31.0225   42.2033   13.0652 C   0  0  0  0  0  0  0  0  0  0  0  0
  -27.5092   44.5015   11.8163 C   0  0  0  0  0  0  0  0  0  0  0  0
  -26.4480   43.6585   12.1951 N   0  3  0  0  0  0  0  0  0  0  0  0
  -25.2161   43.6743   11.6296 C   0  0  0  0  0  0  0  0  0  0  0  0
  -24.3376   42.9061   12.0230 O   0  0  0  0  0  0  0  0  0  0  0  0
  -23.5982   45.4245    9.0947 H   0  0  0  0  0  0  0  0  0  0  0  0
  -23.3994   43.7042    9.4412 H   0  0  0  0  0  0  0  0  0  0  0  0
  -22.8659   44.9264   10.6230 H   0  0  0  0  0  0  0  0  0  0  0  0
  -25.8226   46.1725    9.3215 H   0  0  0  0  0  0  0  0  0  0  0  0
  -28.2275   46.9655    9.5859 H   0  0  0  0  0  0  0  0  0  0  0  0
  -30.3852   46.7354   10.7872 H   0  0  0  0  0  0  0  0  0  0  0  0
  -28.2205   43.1059   13.9494 H   0  0  0  0  0  0  0  0  0  0  0  0
  -30.9630   44.1833   13.9145 H   0  0  0  0  0  0  0  0  0  0  0  0
  -29.9080   43.5925   16.0348 H   0  0  0  0  0  0  0  0  0  0  0  0
  -29.6406   41.9292   15.4951 H   0  0  0  0  0  0  0  0  0  0  0  0
  -32.3786   43.2745   15.8620 H   0  0  0  0  0  0  0  0  0  0  0  0
  -31.6575   42.0155   16.9093 H   0  0  0  0  0  0  0  0  0  0  0  0
  -31.6549   40.5252   15.0409 H   0  0  0  0  0  0  0  0  0  0  0  0
  -33.0721   42.6845   13.5987 H   0  0  0  0  0  0  0  0  0  0  0  0
  -32.8289   41.0084   13.0223 H   0  0  0  0  0  0  0  0  0  0  0  0
  -30.3882   41.3072   13.0178 H   0  0  0  0  0  0  0  0  0  0  0  0
  -31.1332   42.5814   12.0439 H   0  0  0  0  0  0  0  0  0  0  0  0
  -26.5854   42.9903   12.9312 H   0  0  0  0  0  0  0  0  0  0  0  0
  -33.1713   41.0668   15.3622 H   0  0  0  0  0  0  0  0  0  0  0  0
  1  2  1  0  0  0  0
  1 20  1  0  0  0  0
  1 21  1  0  0  0  0
  1 22  1  0  0  0  0
  2  3  2  0  0  0  0
  2 18  1  0  0  0  0
  3  4  1  0  0  0  0
  3 23  1  0  0  0  0
  4  5  2  0  0  0  0
  4 16  1  0  0  0  0
  5  6  1  0  0  0  0
  5 24  1  0  0  0  0
  6  7  2  0  0  0  0
  6 25  1  0  0  0  0
  7  8  1  0  0  0  0
  8  9  1  0  0  0  0
  8 16  2  0  0  0  0
  9 10  1  0  0  0  0
  9 26  1  0  0  0  0
 10 11  1  0  0  0  0
 10 15  1  0  0  0  0
 10 27  1  0  0  0  0
 11 12  1  0  0  0  0
 11 28  1  0  0  0  0
 11 29  1  0  0  0  0
 12 13  1  0  0  0  0
 12 30  1  0  0  0  0
 12 31  1  0  0  0  0
 13 14  1  0  0  0  0
 13 32  1  0  0  0  0
 13 38  1  0  0  0  0
 14 15  1  0  0  0  0
 14 33  1  0  0  0  0
 14 34  1  0  0  0  0
 15 35  1  0  0  0  0
 15 36  1  0  0  0  0
 16 17  1  0  0  0  0
 17 18  1  0  0  0  0
 17 37  1  0  0  0  0
 18 19  2  0  0  0  0
M  CHG  2  13   1  17   1
M  END
$$$$
