6XO
 OpenBabel04161911023D

 71 72  0  0  1  0  0  0  0  0999 V2000
   17.3829   40.0413  -12.2921 C   0  0  0  0  0  0  0  0  0  0  0  0
   17.2928   40.6261  -11.0327 C   0  0  0  0  0  0  0  0  0  0  0  0
   16.0601   41.0705  -10.5630 C   0  0  0  0  0  0  0  0  0  0  0  0
   13.5776   41.3113  -10.7891 C   0  0  0  0  0  0  0  0  0  0  0  0
   12.5324   40.6267   -8.8639 C   0  0  0  0  0  0  0  0  0  0  0  0
   11.8221   39.8452   -6.6669 C   0  0  0  0  0  0  0  0  0  0  0  0
   10.0207   38.1273   -3.6413 C   0  0  2  0  0  0  0  0  0  0  0  0
    8.7847   38.9936   -3.9006 C   0  0  0  0  0  0  0  0  0  0  0  0
   10.3711   38.1927   -2.1386 C   0  0  0  0  0  0  0  0  0  0  0  0
    9.2613   37.7106   -1.1956 C   0  0  0  0  0  0  0  0  0  0  0  0
    9.5859   38.1121    0.2428 C   0  0  0  0  0  0  0  0  0  0  0  0
    7.3120   43.3972   -2.4830 C   0  0  0  0  0  0  0  0  0  0  0  0
    6.8339   46.1049   -1.3765 C   0  0  0  0  0  0  0  0  0  0  0  0
    6.3589   44.8550   -0.6477 C   0  0  0  0  0  0  0  0  0  0  0  0
    7.2728   43.6790   -0.9679 C   0  0  0  0  0  0  0  0  0  0  0  0
    8.1634   42.2529   -5.3025 C   0  0  0  0  0  0  0  0  0  0  0  0
   14.9140   40.9402  -11.3604 C   0  0  0  0  0  0  0  0  0  0  0  0
   11.3944   38.1943   -6.0075 P   0  0  1  0  0  0  0  0  0  0  0  0
   10.0493   37.7481   -6.5156 O   0  0  0  0  0  0  0  0  0  0  0  0
   12.6185   37.3129   -6.1519 O   0  0  0  0  0  0  0  0  0  0  0  0
   11.2701   38.5085   -4.3252 N   0  0  0  0  0  0  0  0  0  0  0  0
    9.0855   36.1980   -1.3021 C   0  0  0  0  0  0  0  0  0  0  0  0
    7.6365   38.5514   -3.8124 O   0  0  0  0  0  0  0  0  0  0  0  0
    9.0661   40.3366   -3.9382 N   0  0  0  0  0  0  0  0  0  0  0  0
    8.0456   41.3982   -4.0058 C   0  0  1  0  0  0  0  0  0  0  0  0
    9.3556   42.5140   -5.6515 O   0  0  0  0  0  0  0  0  0  0  0  0
    7.0689   42.6496   -5.8019 O   0  0  0  0  0  0  0  0  0  0  0  0
    8.2714   42.2290   -2.7359 C   0  0  0  0  0  0  0  0  0  0  0  0
    6.8999   45.8693   -2.8800 C   0  0  0  0  0  0  0  0  0  0  0  0
    7.7765   44.6684   -3.2132 C   0  0  0  0  0  0  0  0  0  0  0  0
   15.0087   40.3469  -12.6216 C   0  0  0  0  0  0  0  0  0  0  0  0
   16.2436   39.9003  -13.0866 C   0  0  0  0  0  0  0  0  0  0  0  0
   13.2493   40.2290   -9.9155 O   0  0  0  0  0  0  0  0  0  0  0  0
   12.0221   41.7440   -8.7487 O   0  0  0  0  0  0  0  0  0  0  0  0
   12.5307   39.6657   -7.9109 N   0  0  0  0  0  0  0  0  0  0  0  0
   18.3392   39.6723  -12.6492 H   0  0  0  0  0  0  0  0  0  0  0  0
   18.1711   40.7129  -10.3973 H   0  0  0  0  0  0  0  0  0  0  0  0
   15.9775   41.4790   -9.5563 H   0  0  0  0  0  0  0  0  0  0  0  0
   12.8135   41.4208  -11.5669 H   0  0  0  0  0  0  0  0  0  0  0  0
   13.6779   42.2717  -10.2650 H   0  0  0  0  0  0  0  0  0  0  0  0
   12.5149   40.3483   -5.9813 H   0  0  0  0  0  0  0  0  0  0  0  0
   10.9359   40.4697   -6.8041 H   0  0  0  0  0  0  0  0  0  0  0  0
    9.7768   37.1065   -3.9500 H   0  0  0  0  0  0  0  0  0  0  0  0
   10.6422   39.2264   -1.8786 H   0  0  0  0  0  0  0  0  0  0  0  0
   11.2784   37.5973   -1.9623 H   0  0  0  0  0  0  0  0  0  0  0  0
    8.3128   38.1940   -1.4484 H   0  0  0  0  0  0  0  0  0  0  0  0
    8.7917   37.7856    0.9213 H   0  0  0  0  0  0  0  0  0  0  0  0
    9.6686   39.2020    0.3293 H   0  0  0  0  0  0  0  0  0  0  0  0
   10.5301   37.6718    0.5769 H   0  0  0  0  0  0  0  0  0  0  0  0
    6.3002   43.1255   -2.8134 H   0  0  0  0  0  0  0  0  0  0  0  0
    7.8300   46.3825   -1.0084 H   0  0  0  0  0  0  0  0  0  0  0  0
    6.1631   46.9438   -1.1599 H   0  0  0  0  0  0  0  0  0  0  0  0
    5.3311   44.6144   -0.9474 H   0  0  0  0  0  0  0  0  0  0  0  0
    6.3477   45.0322    0.4333 H   0  0  0  0  0  0  0  0  0  0  0  0
    8.2878   43.9052   -0.6129 H   0  0  0  0  0  0  0  0  0  0  0  0
    6.9360   42.7922   -0.4188 H   0  0  0  0  0  0  0  0  0  0  0  0
   11.8034   39.2892   -3.9562 H   0  0  0  0  0  0  0  0  0  0  0  0
    8.8414   35.8962   -2.3252 H   0  0  0  0  0  0  0  0  0  0  0  0
    8.2740   35.8564   -0.6550 H   0  0  0  0  0  0  0  0  0  0  0  0
   10.0031   35.6776   -1.0073 H   0  0  0  0  0  0  0  0  0  0  0  0
    9.9902   40.6129   -4.2464 H   0  0  0  0  0  0  0  0  0  0  0  0
    7.0496   40.9394   -3.9762 H   0  0  0  0  0  0  0  0  0  0  0  0
    8.2086   41.5348   -1.8854 H   0  0  0  0  0  0  0  0  0  0  0  0
    9.3034   42.6062   -2.7252 H   0  0  0  0  0  0  0  0  0  0  0  0
    7.2974   46.7582   -3.3808 H   0  0  0  0  0  0  0  0  0  0  0  0
    5.8903   45.6991   -3.2731 H   0  0  0  0  0  0  0  0  0  0  0  0
    7.7713   44.5363   -4.2954 H   0  0  0  0  0  0  0  0  0  0  0  0
    8.8149   44.8915   -2.9345 H   0  0  0  0  0  0  0  0  0  0  0  0
   14.1143   40.1992  -13.2194 H   0  0  0  0  0  0  0  0  0  0  0  0
   16.3071   39.4184  -14.0557 H   0  0  0  0  0  0  0  0  0  0  0  0
   13.0213   38.7788   -8.0438 H   0  0  0  0  0  0  0  0  0  0  0  0
  1  2  2  0  0  0  0
  1 32  1  0  0  0  0
  1 36  1  0  0  0  0
  2  3  1  0  0  0  0
  2 37  1  0  0  0  0
  3 17  2  0  0  0  0
  3 38  1  0  0  0  0
  4 17  1  0  0  0  0
  4 33  1  0  0  0  0
  4 39  1  0  0  0  0
  4 40  1  0  0  0  0
  5 33  1  0  0  0  0
  5 34  2  0  0  0  0
  5 35  1  0  0  0  0
  6 35  1  0  0  0  0
  6 41  1  0  0  0  0
  6 42  1  0  0  0  0
  7  8  1  0  0  0  0
  7  9  1  0  0  0  0
  7 21  1  0  0  0  0
  7 43  1  6  0  0  0
  8 23  2  0  0  0  0
  8 24  1  0  0  0  0
  9 10  1  0  0  0  0
  9 44  1  0  0  0  0
  9 45  1  0  0  0  0
 10 11  1  0  0  0  0
 10 22  1  0  0  0  0
 10 46  1  0  0  0  0
 11 47  1  0  0  0  0
 11 48  1  0  0  0  0
 11 49  1  0  0  0  0
 12 15  1  0  0  0  0
 12 28  1  0  0  0  0
 12 30  1  0  0  0  0
 12 50  1  0  0  0  0
 13 14  1  0  0  0  0
 13 29  1  0  0  0  0
 13 51  1  0  0  0  0
 13 52  1  0  0  0  0
 14 15  1  0  0  0  0
 14 53  1  0  0  0  0
 14 54  1  0  0  0  0
 15 55  1  0  0  0  0
 15 56  1  0  0  0  0
 16 25  1  0  0  0  0
 16 26  2  0  0  0  0
 16 27  1  0  0  0  0
 17 31  1  0  0  0  0
 18  6  1  6  0  0  0
 18 19  2  0  0  0  0
 18 20  1  0  0  0  0
 18 21  1  0  0  0  0
 21 57  1  0  0  0  0
 22 58  1  0  0  0  0
 22 59  1  0  0  0  0
 22 60  1  0  0  0  0
 24 25  1  0  0  0  0
 24 61  1  0  0  0  0
 25 28  1  0  0  0  0
 25 62  1  1  0  0  0
 28 63  1  0  0  0  0
 28 64  1  0  0  0  0
 29 30  1  0  0  0  0
 29 65  1  0  0  0  0
 29 66  1  0  0  0  0
 30 67  1  0  0  0  0
 30 68  1  0  0  0  0
 31 32  2  0  0  0  0
 31 69  1  0  0  0  0
 32 70  1  0  0  0  0
 35 71  1  0  0  0  0
M  END
$$$$
