70A
 OpenBabel04161910583D

 80 86  0  0  1  0  0  0  0  0999 V2000
    7.4908   37.6811   24.4169 C   0  0  0  0  0  0  0  0  0  0  0  0
    9.6039   32.9449   27.4946 C   0  0  0  0  0  0  0  0  0  0  0  0
    9.4259   33.3335   28.8439 C   0  0  0  0  0  0  0  0  0  0  0  0
    8.7619   34.5502   29.0953 C   0  0  0  0  0  0  0  0  0  0  0  0
    8.3059   35.3310   28.0200 C   0  0  0  0  0  0  0  0  0  0  0  0
    9.1808   33.7478   26.4496 C   0  0  0  0  0  0  0  0  0  0  0  0
    8.5820   34.9712   30.4095 C   0  0  0  0  0  0  0  0  0  0  0  0
    9.1315   34.2082   31.4204 C   0  0  0  0  0  0  0  0  0  0  0  0
    9.8848   32.5955   29.9522 C   0  0  0  0  0  0  0  0  0  0  0  0
    0.9153   35.2957   27.1383 C   0  0  0  0  0  0  0  0  0  0  0  0
    6.0802   39.2781   22.1340 C   0  0  0  0  0  0  0  0  0  0  0  0
    1.5047   35.6021   25.7626 C   0  0  1  0  0  0  0  0  0  0  0  0
    0.8064   36.8248   25.1315 C   0  0  0  0  0  0  0  0  0  0  0  0
    3.0193   35.7793   25.7950 C   0  0  0  0  0  0  0  0  0  0  0  0
    3.6048   36.5634   26.8058 C   0  0  0  0  0  0  0  0  0  0  0  0
    4.9627   36.8731   26.7914 C   0  0  0  0  0  0  0  0  0  0  0  0
    5.7819   36.4160   25.7585 C   0  0  0  0  0  0  0  0  0  0  0  0
    5.2169   35.5962   24.7706 C   0  0  0  0  0  0  0  0  0  0  0  0
    3.8498   35.2682   24.7759 C   0  0  0  0  0  0  0  0  0  0  0  0
    3.3561   34.3934   23.6579 C   0  0  0  0  0  0  0  0  0  0  0  0
    7.2346   36.8500   25.6789 C   0  0  1  0  0  0  0  0  0  0  0  0
    8.0950   35.6731   25.6170 N   0  0  0  0  0  0  0  0  0  0  0  0
    8.5394   34.9607   26.6952 C   0  0  0  0  0  0  0  0  0  0  0  0
    9.7734   33.0325   31.2231 N   0  0  0  0  0  0  0  0  0  0  0  0
    8.0164   37.1276   23.4266 O   0  0  0  0  0  0  0  0  0  0  0  0
    7.1224   39.0043   24.3942 N   0  0  0  0  0  0  0  0  0  0  0  0
    7.1823   39.7021   23.0993 C   0  0  0  0  0  0  0  0  0  0  0  0
    6.2420   39.4704   20.7412 C   0  0  0  0  0  0  0  0  0  0  0  0
    5.1444   39.1604   19.9132 C   0  0  0  0  0  0  0  0  0  0  0  0
    3.9659   38.6055   20.4173 C   0  0  0  0  0  0  0  0  0  0  0  0
    3.8146   38.4302   21.7859 C   0  0  0  0  0  0  0  0  0  0  0  0
    4.8650   38.7685   22.6294 C   0  0  0  0  0  0  0  0  0  0  0  0
    2.6219   37.8735   22.2740 N   0  0  0  0  0  0  0  0  0  0  0  0
    1.2018   37.0053   23.7577 O   0  0  0  0  0  0  0  0  0  0  0  0
    2.1949   37.9256   23.5739 C   0  0  0  0  0  0  0  0  0  0  0  0
    2.6014   38.6695   24.4516 O   0  0  0  0  0  0  0  0  0  0  0  0
    6.6061   39.7602   25.5225 C   0  0  0  0  0  0  0  0  0  0  0  0
   10.5487   31.3910   29.7891 N   0  0  0  0  0  0  0  0  0  0  0  0
    7.5615   39.9524   20.1323 C   0  0  0  0  0  0  0  0  0  0  0  0
    7.9437   41.4332   20.3975 C   0  0  0  0  0  0  0  0  0  0  0  0
    9.1957   41.9129   20.2317 N   0  0  0  0  0  0  0  0  0  0  0  0
    9.0873   43.2246   20.5429 N   0  0  0  0  0  0  0  0  0  0  0  0
    7.8046   43.5045   20.8687 N   0  0  0  0  0  0  0  0  0  0  0  0
    7.0689   42.3682   20.8226 N   0  0  0  0  0  0  0  0  0  0  0  0
    8.0142   39.3881   18.7785 C   0  0  0  0  0  0  0  0  0  0  0  0
    8.6985   38.9246   20.0161 C   0  0  0  0  0  0  0  0  0  0  0  0
   10.0888   32.0102   27.2368 H   0  0  0  0  0  0  0  0  0  0  0  0
    7.7994   36.2713   28.2394 H   0  0  0  0  0  0  0  0  0  0  0  0
    9.3458   33.4291   25.4212 H   0  0  0  0  0  0  0  0  0  0  0  0
    8.0468   35.8845   30.6532 H   0  0  0  0  0  0  0  0  0  0  0  0
    9.0512   34.5313   32.4559 H   0  0  0  0  0  0  0  0  0  0  0  0
   -0.1665   35.1445   27.0630 H   0  0  0  0  0  0  0  0  0  0  0  0
    1.0810   36.1101   27.8480 H   0  0  0  0  0  0  0  0  0  0  0  0
    1.3578   34.3831   27.5526 H   0  0  0  0  0  0  0  0  0  0  0  0
    1.2554   34.7275   25.1621 H   0  0  0  0  0  0  0  0  0  0  0  0
    0.9726   37.7274   25.7306 H   0  0  0  0  0  0  0  0  0  0  0  0
   -0.2765   36.6596   25.1178 H   0  0  0  0  0  0  0  0  0  0  0  0
    3.0023   36.9805   27.6074 H   0  0  0  0  0  0  0  0  0  0  0  0
    5.3637   37.5046   27.5788 H   0  0  0  0  0  0  0  0  0  0  0  0
    5.8531   35.2256   23.9659 H   0  0  0  0  0  0  0  0  0  0  0  0
    2.2902   34.1838   23.7071 H   0  0  0  0  0  0  0  0  0  0  0  0
    3.8649   33.4261   23.6976 H   0  0  0  0  0  0  0  0  0  0  0  0
    3.5322   34.8675   22.6885 H   0  0  0  0  0  0  0  0  0  0  0  0
    7.5226   37.4511   26.5460 H   0  0  0  0  0  0  0  0  0  0  0  0
    8.4812   35.4928   24.6917 H   0  0  0  0  0  0  0  0  0  0  0  0
    7.1153   40.7667   23.2788 H   0  0  0  0  0  0  0  0  0  0  0  0
    8.1569   39.4667   22.6690 H   0  0  0  0  0  0  0  0  0  0  0  0
    5.2187   39.3587   18.8457 H   0  0  0  0  0  0  0  0  0  0  0  0
    3.1727   38.3434   19.7253 H   0  0  0  0  0  0  0  0  0  0  0  0
    4.7734   38.5908   23.6941 H   0  0  0  0  0  0  0  0  0  0  0  0
    2.0040   37.4146   21.6254 H   0  0  0  0  0  0  0  0  0  0  0  0
    6.5927   39.1746   26.4378 H   0  0  0  0  0  0  0  0  0  0  0  0
    5.5818   40.0846   25.3130 H   0  0  0  0  0  0  0  0  0  0  0  0
    7.2493   40.6208   25.6907 H   0  0  0  0  0  0  0  0  0  0  0  0
   10.8003   30.8920   30.6304 H   0  0  0  0  0  0  0  0  0  0  0  0
   10.5284   30.9073   28.9087 H   0  0  0  0  0  0  0  0  0  0  0  0
    8.5348   40.0692   18.1126 H   0  0  0  0  0  0  0  0  0  0  0  0
    7.3610   38.7026   18.2558 H   0  0  0  0  0  0  0  0  0  0  0  0
    8.5202   37.9130   20.3615 H   0  0  0  0  0  0  0  0  0  0  0  0
    9.7117   39.2642   20.2047 H   0  0  0  0  0  0  0  0  0  0  0  0
  1 21  1  0  0  0  0
  1 25  2  0  0  0  0
  1 26  1  0  0  0  0
  2  3  2  0  0  0  0
  2  6  1  0  0  0  0
  2 47  1  0  0  0  0
  3  4  1  0  0  0  0
  3  9  1  0  0  0  0
  4  5  2  0  0  0  0
  4  7  1  0  0  0  0
  5 23  1  0  0  0  0
  5 48  1  0  0  0  0
  6 23  2  0  0  0  0
  6 49  1  0  0  0  0
  7  8  2  0  0  0  0
  7 50  1  0  0  0  0
  8 24  1  0  0  0  0
  8 51  1  0  0  0  0
  9 24  2  0  0  0  0
  9 38  1  0  0  0  0
 10 12  1  0  0  0  0
 10 52  1  0  0  0  0
 10 53  1  0  0  0  0
 10 54  1  0  0  0  0
 11 27  1  0  0  0  0
 11 28  2  0  0  0  0
 11 32  1  0  0  0  0
 12 13  1  0  0  0  0
 12 14  1  0  0  0  0
 12 55  1  6  0  0  0
 13 34  1  0  0  0  0
 13 56  1  0  0  0  0
 13 57  1  0  0  0  0
 14 15  2  0  0  0  0
 14 19  1  0  0  0  0
 15 16  1  0  0  0  0
 15 58  1  0  0  0  0
 16 17  2  0  0  0  0
 16 59  1  0  0  0  0
 17 18  1  0  0  0  0
 17 21  1  0  0  0  0
 18 19  2  0  0  0  0
 18 60  1  0  0  0  0
 19 20  1  0  0  0  0
 20 61  1  0  0  0  0
 20 62  1  0  0  0  0
 20 63  1  0  0  0  0
 21 22  1  0  0  0  0
 21 64  1  1  0  0  0
 22 23  1  0  0  0  0
 22 65  1  0  0  0  0
 26 27  1  0  0  0  0
 26 37  1  0  0  0  0
 27 66  1  0  0  0  0
 27 67  1  0  0  0  0
 28 29  1  0  0  0  0
 28 39  1  0  0  0  0
 29 30  2  0  0  0  0
 29 68  1  0  0  0  0
 30 31  1  0  0  0  0
 30 69  1  0  0  0  0
 31 32  2  0  0  0  0
 31 33  1  0  0  0  0
 32 70  1  0  0  0  0
 33 35  1  0  0  0  0
 33 71  1  0  0  0  0
 34 35  1  0  0  0  0
 35 36  2  0  0  0  0
 37 72  1  0  0  0  0
 37 73  1  0  0  0  0
 37 74  1  0  0  0  0
 38 75  1  0  0  0  0
 38 76  1  0  0  0  0
 39 40  1  0  0  0  0
 39 45  1  0  0  0  0
 39 46  1  0  0  0  0
 40 41  1  0  0  0  0
 40 44  2  0  0  0  0
 41 42  1  0  0  0  0
 42 43  2  0  0  0  0
 43 44  1  0  0  0  0
 45 46  1  0  0  0  0
 45 77  1  0  0  0  0
 45 78  1  0  0  0  0
 46 79  1  0  0  0  0
 46 80  1  0  0  0  0
M  END
$$$$
