71Q
 OpenBabel04161911463D

 46 48  0  0  0  0  0  0  0  0999 V2000
   -8.4730  -10.6108   -2.6649 N   0  3  0  0  0  0  0  0  0  0  0  0
  -13.5304  -14.4102   -1.6661 C   0  0  0  0  0  0  0  0  0  0  0  0
   -8.2211   -8.2638   -4.1879 N   0  0  0  0  0  0  0  0  0  0  0  0
  -13.9011  -15.8323   -1.3162 C   0  0  0  0  0  0  0  0  0  0  0  0
   -7.5942   -9.5037   -2.1827 C   0  0  0  0  0  0  0  0  0  0  0  0
   -8.1196  -11.9394   -2.0590 C   0  0  0  0  0  0  0  0  0  0  0  0
   -9.3250  -12.8848   -2.0104 C   0  0  0  0  0  0  0  0  0  0  0  0
  -11.8372  -12.7258   -2.0954 C   0  0  0  0  0  0  0  0  0  0  0  0
  -12.1824  -14.0383   -1.8118 C   0  0  0  0  0  0  0  0  0  0  0  0
   -8.1367   -8.1907   -2.7242 C   0  0  0  0  0  0  0  0  0  0  0  0
   -7.7460   -7.2745   -6.3943 C   0  0  0  0  0  0  0  0  0  0  0  0
   -8.0134   -6.2892   -7.3462 C   0  0  0  0  0  0  0  0  0  0  0  0
   -7.7186   -6.8435   -8.5988 C   0  0  0  0  0  0  0  0  0  0  0  0
   -7.2828   -8.1360   -8.3786 C   0  0  0  0  0  0  0  0  0  0  0  0
   -8.9922   -9.3728   -4.7287 C   0  0  0  0  0  0  0  0  0  0  0  0
   -8.4863  -10.6838   -4.1728 C   0  0  0  0  0  0  0  0  0  0  0  0
  -10.5277  -12.2711   -2.2039 N   0  0  0  0  0  0  0  0  0  0  0  0
  -12.8633  -11.7776   -2.2755 C   0  0  0  0  0  0  0  0  0  0  0  0
   -7.3010   -8.4073   -7.0457 O   0  0  0  0  0  0  0  0  0  0  0  0
  -12.4797  -10.1376   -2.6814 Cl  0  0  0  0  0  0  0  0  0  0  0  0
  -14.1996  -12.1297   -2.1239 C   0  0  0  0  0  0  0  0  0  0  0  0
   -7.4710   -6.1389   -4.3734 O   0  0  0  0  0  0  0  0  0  0  0  0
  -14.5339  -13.4422   -1.8193 C   0  0  0  0  0  0  0  0  0  0  0  0
   -9.1321  -14.0579   -1.7908 O   0  0  0  0  0  0  0  0  0  0  0  0
   -7.7926   -7.1627   -4.9399 C   0  0  0  0  0  0  0  0  0  0  0  0
  -13.1654  -16.7401   -2.0137 F   0  0  0  0  0  0  0  0  0  0  0  0
  -13.7088  -16.1021    0.0039 F   0  0  0  0  0  0  0  0  0  0  0  0
  -15.2078  -16.1172   -1.5772 F   0  0  0  0  0  0  0  0  0  0  0  0
   -6.6017   -9.7227   -2.5688 H   0  0  0  0  0  0  0  0  0  0  0  0
   -7.6193   -9.5192   -1.0923 H   0  0  0  0  0  0  0  0  0  0  0  0
   -7.7625  -11.7448   -1.0454 H   0  0  0  0  0  0  0  0  0  0  0  0
   -7.3245  -12.3568   -2.6808 H   0  0  0  0  0  0  0  0  0  0  0  0
  -11.4158  -14.8037   -1.6971 H   0  0  0  0  0  0  0  0  0  0  0  0
   -9.1413   -8.0155   -2.3304 H   0  0  0  0  0  0  0  0  0  0  0  0
   -7.4628   -7.4044   -2.4017 H   0  0  0  0  0  0  0  0  0  0  0  0
   -8.3684   -5.2923   -7.1522 H   0  0  0  0  0  0  0  0  0  0  0  0
   -7.7876   -6.3955   -9.5761 H   0  0  0  0  0  0  0  0  0  0  0  0
   -6.9598   -8.8724   -9.0861 H   0  0  0  0  0  0  0  0  0  0  0  0
   -8.9260   -9.4183   -5.8050 H   0  0  0  0  0  0  0  0  0  0  0  0
  -10.0372   -9.2256   -4.4393 H   0  0  0  0  0  0  0  0  0  0  0  0
   -9.1361  -11.5094   -4.4653 H   0  0  0  0  0  0  0  0  0  0  0  0
   -7.4523  -10.8677   -4.4677 H   0  0  0  0  0  0  0  0  0  0  0  0
  -10.5568  -11.3363   -2.4857 H   0  0  0  0  0  0  0  0  0  0  0  0
  -14.9875  -11.3910   -2.2410 H   0  0  0  0  0  0  0  0  0  0  0  0
  -15.5807  -13.7258   -1.7098 H   0  0  0  0  0  0  0  0  0  0  0  0
   -9.3920  -10.3142   -2.3343 H   0  0  0  0  0  0  0  0  0  0  0  0
  1  5  1  0  0  0  0
  1  6  1  0  0  0  0
  1 16  1  0  0  0  0
  1 46  1  0  0  0  0
  2  4  1  0  0  0  0
  2  9  2  0  0  0  0
  2 23  1  0  0  0  0
  3 10  1  0  0  0  0
  3 15  1  0  0  0  0
  3 25  1  0  0  0  0
  4 26  1  0  0  0  0
  4 27  1  0  0  0  0
  4 28  1  0  0  0  0
  5 10  1  0  0  0  0
  5 29  1  0  0  0  0
  5 30  1  0  0  0  0
  6  7  1  0  0  0  0
  6 31  1  0  0  0  0
  6 32  1  0  0  0  0
  7 17  1  0  0  0  0
  7 24  2  0  0  0  0
  8  9  1  0  0  0  0
  8 17  1  0  0  0  0
  8 18  2  0  0  0  0
  9 33  1  0  0  0  0
 10 34  1  0  0  0  0
 10 35  1  0  0  0  0
 11 12  2  0  0  0  0
 11 19  1  0  0  0  0
 11 25  1  0  0  0  0
 12 13  1  0  0  0  0
 12 36  1  0  0  0  0
 13 14  2  0  0  0  0
 13 37  1  0  0  0  0
 14 19  1  0  0  0  0
 14 38  1  0  0  0  0
 15 16  1  0  0  0  0
 15 39  1  0  0  0  0
 15 40  1  0  0  0  0
 16 41  1  0  0  0  0
 16 42  1  0  0  0  0
 17 43  1  0  0  0  0
 18 20  1  0  0  0  0
 18 21  1  0  0  0  0
 21 23  2  0  0  0  0
 21 44  1  0  0  0  0
 22 25  2  0  0  0  0
 23 45  1  0  0  0  0
M  CHG  1   1   1
M  END
$$$$
