72E
 OpenBabel04161911483D

 30 31  0  0  0  0  0  0  0  0999 V2000
   16.3110    7.7770   15.3926 C   0  0  0  0  0  0  0  0  0  0  0  0
   17.4971    7.4266   14.5290 C   0  0  0  0  0  0  0  0  0  0  0  0
   18.2192    8.5067   13.9933 C   0  0  0  0  0  0  0  0  0  0  0  0
   19.3567    8.3077   13.2099 C   0  0  0  0  0  0  0  0  0  0  0  0
   19.7847    7.0170   12.9477 C   0  0  0  0  0  0  0  0  0  0  0  0
   19.0777    5.9346   13.4627 C   0  0  0  0  0  0  0  0  0  0  0  0
   17.9244    6.1029   14.2709 C   0  0  0  0  0  0  0  0  0  0  0  0
   17.2843    4.8904   14.8420 C   0  0  0  0  0  0  0  0  0  0  0  0
   15.8904    4.7246   14.9153 C   0  0  0  0  0  0  0  0  0  0  0  0
   15.3160    3.6051   15.5254 C   0  0  0  0  0  0  0  0  0  0  0  0
   16.1395    2.6017   16.0350 C   0  0  0  0  0  0  0  0  0  0  0  0
   15.4300    1.2282   16.8875 S   0  0  0  0  0  0  0  0  0  0  0  0
   15.9772    1.2134   18.2241 O   0  0  0  0  0  0  0  0  0  0  0  0
   14.0063    1.2095   16.6422 O   0  0  0  0  0  0  0  0  0  0  0  0
   16.0466   -0.0929   16.0853 N   0  0  0  0  0  0  0  0  0  0  0  0
   17.5249    2.7063   15.9302 C   0  0  0  0  0  0  0  0  0  0  0  0
   18.0831    3.8468   15.3458 C   0  0  0  0  0  0  0  0  0  0  0  0
   16.1950    8.8626   15.4859 H   0  0  0  0  0  0  0  0  0  0  0  0
   16.4272    7.3716   16.4021 H   0  0  0  0  0  0  0  0  0  0  0  0
   15.3802    7.4298   14.9413 H   0  0  0  0  0  0  0  0  0  0  0  0
   17.9050    9.5285   14.1999 H   0  0  0  0  0  0  0  0  0  0  0  0
   19.8962    9.1565   12.8178 H   0  0  0  0  0  0  0  0  0  0  0  0
   20.6794    6.8506   12.3495 H   0  0  0  0  0  0  0  0  0  0  0  0
   19.4492    4.9369   13.2373 H   0  0  0  0  0  0  0  0  0  0  0  0
   15.2185    5.4686   14.5025 H   0  0  0  0  0  0  0  0  0  0  0  0
   14.2322    3.5432   15.6132 H   0  0  0  0  0  0  0  0  0  0  0  0
   15.8192   -1.0061   16.4723 H   0  0  0  0  0  0  0  0  0  0  0  0
   16.7289    0.0134   15.3428 H   0  0  0  0  0  0  0  0  0  0  0  0
   18.1787    1.9369   16.3293 H   0  0  0  0  0  0  0  0  0  0  0  0
   19.1704    3.9250   15.3097 H   0  0  0  0  0  0  0  0  0  0  0  0
  1  2  1  0  0  0  0
  1 18  1  0  0  0  0
  1 19  1  0  0  0  0
  1 20  1  0  0  0  0
  2  3  2  0  0  0  0
  2  7  1  0  0  0  0
  3  4  1  0  0  0  0
  3 21  1  0  0  0  0
  4  5  2  0  0  0  0
  4 22  1  0  0  0  0
  5  6  1  0  0  0  0
  5 23  1  0  0  0  0
  6  7  2  0  0  0  0
  6 24  1  0  0  0  0
  7  8  1  0  0  0  0
  8  9  2  0  0  0  0
  8 17  1  0  0  0  0
  9 10  1  0  0  0  0
  9 25  1  0  0  0  0
 10 11  2  0  0  0  0
 10 26  1  0  0  0  0
 11 12  1  0  0  0  0
 11 16  1  0  0  0  0
 12 13  2  0  0  0  0
 12 14  2  0  0  0  0
 12 15  1  0  0  0  0
 15 27  1  0  0  0  0
 15 28  1  0  0  0  0
 16 17  2  0  0  0  0
 16 29  1  0  0  0  0
 17 30  1  0  0  0  0
M  END
$$$$
