72E
 OpenBabel04161911473D

 30 31  0  0  0  0  0  0  0  0999 V2000
    1.8189    5.5319   81.9269 C   0  0  0  0  0  0  0  0  0  0  0  0
    1.5876    6.8029   82.6998 C   0  0  0  0  0  0  0  0  0  0  0  0
    2.3099    7.9495   82.3049 C   0  0  0  0  0  0  0  0  0  0  0  0
    2.1435    9.1669   82.9594 C   0  0  0  0  0  0  0  0  0  0  0  0
    1.2489    9.2638   84.0143 C   0  0  0  0  0  0  0  0  0  0  0  0
    0.5253    8.1394   84.4170 C   0  0  0  0  0  0  0  0  0  0  0  0
    0.6774    6.8888   83.7836 C   0  0  0  0  0  0  0  0  0  0  0  0
   -0.0784    5.7327   84.3215 C   0  0  0  0  0  0  0  0  0  0  0  0
   -1.4879    5.7536   84.4184 C   0  0  0  0  0  0  0  0  0  0  0  0
   -2.1852    4.7110   85.0248 C   0  0  0  0  0  0  0  0  0  0  0  0
   -1.4926    3.6098   85.5433 C   0  0  0  0  0  0  0  0  0  0  0  0
   -2.3679    2.3186   86.3862 S   0  0  0  0  0  0  0  0  0  0  0  0
   -1.8178    2.2185   87.7177 O   0  0  0  0  0  0  0  0  0  0  0  0
   -3.7803    2.4871   86.1506 O   0  0  0  0  0  0  0  0  0  0  0  0
   -1.9461    0.9261   85.5632 N   0  0  0  0  0  0  0  0  0  0  0  0
   -0.0966    3.5579   85.4414 C   0  0  0  0  0  0  0  0  0  0  0  0
    0.5888    4.6166   84.8494 C   0  0  0  0  0  0  0  0  0  0  0  0
    2.5635    5.6741   81.1370 H   0  0  0  0  0  0  0  0  0  0  0  0
    0.8899    5.2012   81.4475 H   0  0  0  0  0  0  0  0  0  0  0  0
    2.2040    4.7411   82.5750 H   0  0  0  0  0  0  0  0  0  0  0  0
    3.0158    7.8949   81.4787 H   0  0  0  0  0  0  0  0  0  0  0  0
    2.7152   10.0376   82.6448 H   0  0  0  0  0  0  0  0  0  0  0  0
    1.1184   10.2089   84.5348 H   0  0  0  0  0  0  0  0  0  0  0  0
   -0.1565    8.2391   85.2618 H   0  0  0  0  0  0  0  0  0  0  0  0
   -2.0467    6.6081   84.0428 H   0  0  0  0  0  0  0  0  0  0  0  0
   -3.2745    4.7626   85.1209 H   0  0  0  0  0  0  0  0  0  0  0  0
   -2.0878    0.0749   86.1064 H   0  0  0  0  0  0  0  0  0  0  0  0
   -1.1500    0.9520   84.9342 H   0  0  0  0  0  0  0  0  0  0  0  0
    0.4590    2.7320   85.8778 H   0  0  0  0  0  0  0  0  0  0  0  0
    1.6796    4.5860   84.8256 H   0  0  0  0  0  0  0  0  0  0  0  0
  1  2  1  0  0  0  0
  1 18  1  0  0  0  0
  1 19  1  0  0  0  0
  1 20  1  0  0  0  0
  2  3  2  0  0  0  0
  2  7  1  0  0  0  0
  3  4  1  0  0  0  0
  3 21  1  0  0  0  0
  4  5  2  0  0  0  0
  4 22  1  0  0  0  0
  5  6  1  0  0  0  0
  5 23  1  0  0  0  0
  6  7  2  0  0  0  0
  6 24  1  0  0  0  0
  7  8  1  0  0  0  0
  8  9  2  0  0  0  0
  8 17  1  0  0  0  0
  9 10  1  0  0  0  0
  9 25  1  0  0  0  0
 10 11  2  0  0  0  0
 10 26  1  0  0  0  0
 11 12  1  0  0  0  0
 11 16  1  0  0  0  0
 12 13  2  0  0  0  0
 12 14  2  0  0  0  0
 12 15  1  0  0  0  0
 15 27  1  0  0  0  0
 15 28  1  0  0  0  0
 16 17  2  0  0  0  0
 16 29  1  0  0  0  0
 17 30  1  0  0  0  0
M  END
$$$$
