72G
 OpenBabel04161911473D

 29 30  0  0  0  0  0  0  0  0999 V2000
   18.4136   -5.3879   77.9028 O   0  0  0  0  0  0  0  0  0  0  0  0
   18.7764   -4.4516   77.1371 C   0  0  0  0  0  0  0  0  0  0  0  0
   18.6951   -3.0606   77.5958 C   0  0  0  0  0  0  0  0  0  0  0  0
   17.9339   -2.6840   78.7141 C   0  0  0  0  0  0  0  0  0  0  0  0
   19.3974   -2.0877   76.8926 C   0  0  0  0  0  0  0  0  0  0  0  0
   19.3510   -0.7550   77.2918 C   0  0  0  0  0  0  0  0  0  0  0  0
   18.5907   -0.3899   78.3964 C   0  0  0  0  0  0  0  0  0  0  0  0
   17.8601   -1.3342   79.1258 C   0  0  0  0  0  0  0  0  0  0  0  0
   17.0319   -0.8709   80.2605 C   0  0  0  0  0  0  0  0  0  0  0  0
   16.7801   -1.7133   81.3629 C   0  0  0  0  0  0  0  0  0  0  0  0
   15.9771   -1.2702   82.4342 C   0  0  0  0  0  0  0  0  0  0  0  0
   15.4256    0.0287   82.4145 C   0  0  0  0  0  0  0  0  0  0  0  0
   14.4277    0.5057   83.8032 S   0  0  0  0  0  0  0  0  0  0  0  0
   13.4297   -0.5216   84.0827 O   0  0  0  0  0  0  0  0  0  0  0  0
   15.2973    0.8552   84.9274 O   0  0  0  0  0  0  0  0  0  0  0  0
   13.6081    1.9208   83.3556 N   0  0  0  0  0  0  0  0  0  0  0  0
   15.6690    0.8813   81.3252 C   0  0  0  0  0  0  0  0  0  0  0  0
   16.4660    0.4303   80.2617 C   0  0  0  0  0  0  0  0  0  0  0  0
   19.1566   -4.7091   76.1393 H   0  0  0  0  0  0  0  0  0  0  0  0
   17.3702   -3.4446   79.2526 H   0  0  0  0  0  0  0  0  0  0  0  0
   19.9977   -2.3565   76.0324 H   0  0  0  0  0  0  0  0  0  0  0  0
   19.9013    0.0065   76.7500 H   0  0  0  0  0  0  0  0  0  0  0  0
   18.5564    0.6552   78.6946 H   0  0  0  0  0  0  0  0  0  0  0  0
   17.2266   -2.7154   81.3578 H   0  0  0  0  0  0  0  0  0  0  0  0
   15.7698   -1.9122   83.2982 H   0  0  0  0  0  0  0  0  0  0  0  0
   12.9835    2.3869   84.0180 H   0  0  0  0  0  0  0  0  0  0  0  0
   13.7301    2.3364   82.4363 H   0  0  0  0  0  0  0  0  0  0  0  0
   15.2769    1.8937   81.2576 H   0  0  0  0  0  0  0  0  0  0  0  0
   16.6199    1.1197   79.4198 H   0  0  0  0  0  0  0  0  0  0  0  0
  1  2  2  0  0  0  0
  2  3  1  0  0  0  0
  2 19  1  0  0  0  0
  3  4  2  0  0  0  0
  3  5  1  0  0  0  0
  4  8  1  0  0  0  0
  4 20  1  0  0  0  0
  5  6  2  0  0  0  0
  5 21  1  0  0  0  0
  6  7  1  0  0  0  0
  6 22  1  0  0  0  0
  7  8  2  0  0  0  0
  7 23  1  0  0  0  0
  8  9  1  0  0  0  0
  9 10  2  0  0  0  0
  9 18  1  0  0  0  0
 10 11  1  0  0  0  0
 10 24  1  0  0  0  0
 11 12  2  0  0  0  0
 11 25  1  0  0  0  0
 12 13  1  0  0  0  0
 12 17  1  0  0  0  0
 13 14  2  0  0  0  0
 13 15  2  0  0  0  0
 13 16  1  0  0  0  0
 16 26  1  0  0  0  0
 16 27  1  0  0  0  0
 17 18  2  0  0  0  0
 17 28  1  0  0  0  0
 18 29  1  0  0  0  0
M  END
$$$$
