72H
 OpenBabel04161911483D

 32 34  0  0  0  0  0  0  0  0999 V2000
    0.3865    5.9764   84.4147 C   0  0  0  0  0  0  0  0  0  0  0  0
    1.3337    6.8698   83.9076 C   0  0  0  0  0  0  0  0  0  0  0  0
    1.6113    8.0729   84.5729 C   0  0  0  0  0  0  0  0  0  0  0  0
    2.5495    8.9586   84.0543 C   0  0  0  0  0  0  0  0  0  0  0  0
    3.2237    8.6355   82.8794 C   0  0  0  0  0  0  0  0  0  0  0  0
    2.9594    7.4243   82.2308 C   0  0  0  0  0  0  0  0  0  0  0  0
    2.0154    6.5311   82.7229 C   0  0  0  0  0  0  0  0  0  0  0  0
    1.7891    5.3718   82.0735 N   0  0  0  0  0  0  0  0  0  0  0  0
    0.8682    4.5310   82.6000 C   0  0  0  0  0  0  0  0  0  0  0  0
    0.1341    4.7718   83.7605 C   0  0  0  0  0  0  0  0  0  0  0  0
   -0.6554    3.7233   84.3814 C   0  0  0  0  0  0  0  0  0  0  0  0
    0.0547    2.6217   84.8988 C   0  0  0  0  0  0  0  0  0  0  0  0
   -0.5788    1.5703   85.5409 C   0  0  0  0  0  0  0  0  0  0  0  0
   -1.9602    1.5942   85.6814 C   0  0  0  0  0  0  0  0  0  0  0  0
   -2.7030    0.2327   86.5425 S   0  0  0  0  0  0  0  0  0  0  0  0
   -4.1278    0.2320   86.2895 O   0  0  0  0  0  0  0  0  0  0  0  0
   -2.1554    0.2205   87.8755 O   0  0  0  0  0  0  0  0  0  0  0  0
   -2.0983   -1.1056   85.7403 N   0  0  0  0  0  0  0  0  0  0  0  0
   -2.7067    2.6733   85.1856 C   0  0  0  0  0  0  0  0  0  0  0  0
   -2.0483    3.7419   84.5485 C   0  0  0  0  0  0  0  0  0  0  0  0
   -0.1002    6.1838   85.3659 H   0  0  0  0  0  0  0  0  0  0  0  0
    1.0957    8.3225   85.4976 H   0  0  0  0  0  0  0  0  0  0  0  0
    2.7518    9.8964   84.5645 H   0  0  0  0  0  0  0  0  0  0  0  0
    3.9550    9.3243   82.4644 H   0  0  0  0  0  0  0  0  0  0  0  0
    3.4973    7.1726   81.3193 H   0  0  0  0  0  0  0  0  0  0  0  0
    0.7717    3.5833   82.0713 H   0  0  0  0  0  0  0  0  0  0  0  0
    1.1417    2.5943   84.8099 H   0  0  0  0  0  0  0  0  0  0  0  0
    0.0187    0.7575   85.9423 H   0  0  0  0  0  0  0  0  0  0  0  0
   -2.2052   -1.9942   86.2239 H   0  0  0  0  0  0  0  0  0  0  0  0
   -1.3552   -0.9982   85.0564 H   0  0  0  0  0  0  0  0  0  0  0  0
   -3.7901    2.6945   85.3126 H   0  0  0  0  0  0  0  0  0  0  0  0
   -2.6261    4.5903   84.1658 H   0  0  0  0  0  0  0  0  0  0  0  0
  1  2  2  0  0  0  0
  1 10  1  0  0  0  0
  1 21  1  0  0  0  0
  2  3  1  0  0  0  0
  2  7  1  0  0  0  0
  3  4  2  0  0  0  0
  3 22  1  0  0  0  0
  4  5  1  0  0  0  0
  4 23  1  0  0  0  0
  5  6  2  0  0  0  0
  5 24  1  0  0  0  0
  6  7  1  0  0  0  0
  6 25  1  0  0  0  0
  7  8  2  0  0  0  0
  8  9  1  0  0  0  0
  9 10  2  0  0  0  0
  9 26  1  0  0  0  0
 10 11  1  0  0  0  0
 11 12  2  0  0  0  0
 11 20  1  0  0  0  0
 12 13  1  0  0  0  0
 12 27  1  0  0  0  0
 13 14  2  0  0  0  0
 13 28  1  0  0  0  0
 14 15  1  0  0  0  0
 14 19  1  0  0  0  0
 15 16  2  0  0  0  0
 15 17  2  0  0  0  0
 15 18  1  0  0  0  0
 18 29  1  0  0  0  0
 18 30  1  0  0  0  0
 19 20  2  0  0  0  0
 19 31  1  0  0  0  0
 20 32  1  0  0  0  0
M  END
$$$$
