72H
 OpenBabel04161911493D

 32 34  0  0  0  0  0  0  0  0999 V2000
    0.2077    9.5096   84.9259 C   0  0  0  0  0  0  0  0  0  0  0  0
    0.7862   10.6982   84.4573 C   0  0  0  0  0  0  0  0  0  0  0  0
    0.2353   11.9515   84.7789 C   0  0  0  0  0  0  0  0  0  0  0  0
    0.8380   13.1215   84.3132 C   0  0  0  0  0  0  0  0  0  0  0  0
    1.9847   13.0346   83.5318 C   0  0  0  0  0  0  0  0  0  0  0  0
    2.5231   11.7858   83.2122 C   0  0  0  0  0  0  0  0  0  0  0  0
    1.9404   10.6051   83.6592 C   0  0  0  0  0  0  0  0  0  0  0  0
    2.4840    9.4287   83.3232 N   0  0  0  0  0  0  0  0  0  0  0  0
    1.8892    8.2982   83.7916 C   0  0  0  0  0  0  0  0  0  0  0  0
    0.7574    8.2610   84.6024 C   0  0  0  0  0  0  0  0  0  0  0  0
    0.1838    7.0004   85.1149 C   0  0  0  0  0  0  0  0  0  0  0  0
    1.0085    5.9333   85.5258 C   0  0  0  0  0  0  0  0  0  0  0  0
    0.4714    4.7641   86.0774 C   0  0  0  0  0  0  0  0  0  0  0  0
   -0.9106    4.6435   86.2206 C   0  0  0  0  0  0  0  0  0  0  0  0
   -1.5998    3.2202   87.0164 S   0  0  0  0  0  0  0  0  0  0  0  0
   -3.0305    3.2126   86.7902 O   0  0  0  0  0  0  0  0  0  0  0  0
   -1.0335    3.1374   88.3370 O   0  0  0  0  0  0  0  0  0  0  0  0
   -1.0099    1.9371   86.1339 N   0  0  0  0  0  0  0  0  0  0  0  0
   -1.7544    5.6729   85.8037 C   0  0  0  0  0  0  0  0  0  0  0  0
   -1.2078    6.8369   85.2559 C   0  0  0  0  0  0  0  0  0  0  0  0
   -0.6677    9.5660   85.5692 H   0  0  0  0  0  0  0  0  0  0  0  0
   -0.6580   12.0268   85.3901 H   0  0  0  0  0  0  0  0  0  0  0  0
    0.4152   14.0883   84.5606 H   0  0  0  0  0  0  0  0  0  0  0  0
    2.4674   13.9423   83.1660 H   0  0  0  0  0  0  0  0  0  0  0  0
    3.4215   11.7278   82.6020 H   0  0  0  0  0  0  0  0  0  0  0  0
    2.3833    7.3850   83.4685 H   0  0  0  0  0  0  0  0  0  0  0  0
    2.0923    6.0205   85.4604 H   0  0  0  0  0  0  0  0  0  0  0  0
    1.1388    3.9793   86.4256 H   0  0  0  0  0  0  0  0  0  0  0  0
   -1.1816    1.0165   86.5300 H   0  0  0  0  0  0  0  0  0  0  0  0
   -0.3192    2.0716   85.4046 H   0  0  0  0  0  0  0  0  0  0  0  0
   -2.8329    5.5950   85.9264 H   0  0  0  0  0  0  0  0  0  0  0  0
   -1.8907    7.6286   84.9502 H   0  0  0  0  0  0  0  0  0  0  0  0
  1  2  2  0  0  0  0
  1 10  1  0  0  0  0
  1 21  1  0  0  0  0
  2  3  1  0  0  0  0
  2  7  1  0  0  0  0
  3  4  2  0  0  0  0
  3 22  1  0  0  0  0
  4  5  1  0  0  0  0
  4 23  1  0  0  0  0
  5  6  2  0  0  0  0
  5 24  1  0  0  0  0
  6  7  1  0  0  0  0
  6 25  1  0  0  0  0
  7  8  2  0  0  0  0
  8  9  1  0  0  0  0
  9 10  2  0  0  0  0
  9 26  1  0  0  0  0
 10 11  1  0  0  0  0
 11 12  2  0  0  0  0
 11 20  1  0  0  0  0
 12 13  1  0  0  0  0
 12 27  1  0  0  0  0
 13 14  2  0  0  0  0
 13 28  1  0  0  0  0
 14 15  1  0  0  0  0
 14 19  1  0  0  0  0
 15 16  2  0  0  0  0
 15 17  2  0  0  0  0
 15 18  1  0  0  0  0
 18 29  1  0  0  0  0
 18 30  1  0  0  0  0
 19 20  2  0  0  0  0
 19 31  1  0  0  0  0
 20 32  1  0  0  0  0
M  END
$$$$
