73K
 OpenBabel04161912173D

 41 44  0  0  0  0  0  0  0  0999 V2000
   17.7156  -18.9403  -20.8860 C   0  0  0  0  0  0  0  0  0  0  0  0
   18.5304  -19.8773  -21.4283 C   0  0  0  0  0  0  0  0  0  0  0  0
   19.8873  -19.4890  -21.5870 C   0  0  0  0  0  0  0  0  0  0  0  0
   21.5727  -18.1120  -21.4698 C   0  0  0  0  0  0  0  0  0  0  0  0
   19.0627  -15.0926  -18.2018 C   0  0  0  0  0  0  0  0  0  0  0  0
   18.1255  -15.4189  -17.2444 C   0  0  0  0  0  0  0  0  0  0  0  0
   18.7628  -15.2705  -15.9926 C   0  0  0  0  0  0  0  0  0  0  0  0
   20.0468  -14.8573  -16.2628 C   0  0  0  0  0  0  0  0  0  0  0  0
   18.3152  -21.6399  -23.1744 C   0  0  0  0  0  0  0  0  0  0  0  0
   17.8220  -22.8561  -23.6508 C   0  0  0  0  0  0  0  0  0  0  0  0
   16.9869  -23.6209  -22.8368 C   0  0  0  0  0  0  0  0  0  0  0  0
   16.6461  -23.1844  -21.5552 C   0  0  0  0  0  0  0  0  0  0  0  0
   17.1578  -21.9706  -21.0797 C   0  0  0  0  0  0  0  0  0  0  0  0
   17.8147  -26.1853  -23.5181 C   0  0  0  0  0  0  0  0  0  0  0  0
   20.2377  -18.2225  -21.2038 N   0  3  0  0  0  0  0  0  0  0  0  0
   19.3345  -17.2983  -20.6697 C   0  0  0  0  0  0  0  0  0  0  0  0
   18.0884  -17.6643  -20.4981 N   0  0  0  0  0  0  0  0  0  0  0  0
   17.9832  -21.1744  -21.8896 C   0  0  0  0  0  0  0  0  0  0  0  0
   19.7911  -16.0381  -20.3721 N   0  0  0  0  0  0  0  0  0  0  0  0
   18.9909  -15.0442  -19.6852 C   0  0  0  0  0  0  0  0  0  0  0  0
   20.9536  -20.1067  -22.0613 N   0  0  0  0  0  0  0  0  0  0  0  0
   22.0168  -19.2375  -21.9906 N   0  0  0  0  0  0  0  0  0  0  0  0
   20.2419  -14.7464  -17.6049 O   0  0  0  0  0  0  0  0  0  0  0  0
   16.3626  -25.1641  -23.4596 S   0  0  0  0  0  0  0  0  0  0  0  0
   15.9109  -24.9256  -24.8168 O   0  0  0  0  0  0  0  0  0  0  0  0
   15.4654  -25.7161  -22.4616 O   0  0  0  0  0  0  0  0  0  0  0  0
   16.6545  -19.1453  -20.7564 H   0  0  0  0  0  0  0  0  0  0  0  0
   22.1649  -17.2321  -21.2775 H   0  0  0  0  0  0  0  0  0  0  0  0
   17.1087  -15.7262  -17.4454 H   0  0  0  0  0  0  0  0  0  0  0  0
   18.3408  -15.4424  -15.0125 H   0  0  0  0  0  0  0  0  0  0  0  0
   20.8954  -14.6141  -15.6375 H   0  0  0  0  0  0  0  0  0  0  0  0
   18.9658  -21.0528  -23.8222 H   0  0  0  0  0  0  0  0  0  0  0  0
   18.0898  -23.1882  -24.6514 H   0  0  0  0  0  0  0  0  0  0  0  0
   15.9890  -23.7766  -20.9216 H   0  0  0  0  0  0  0  0  0  0  0  0
   16.9113  -21.6601  -20.0662 H   0  0  0  0  0  0  0  0  0  0  0  0
   17.5318  -27.1729  -23.8878 H   0  0  0  0  0  0  0  0  0  0  0  0
   18.2307  -26.2675  -22.5121 H   0  0  0  0  0  0  0  0  0  0  0  0
   18.5385  -25.7328  -24.1987 H   0  0  0  0  0  0  0  0  0  0  0  0
   20.7786  -15.8239  -20.3838 H   0  0  0  0  0  0  0  0  0  0  0  0
   19.3198  -14.0554  -20.0244 H   0  0  0  0  0  0  0  0  0  0  0  0
   17.9441  -15.1324  -19.9957 H   0  0  0  0  0  0  0  0  0  0  0  0
  1  2  2  0  0  0  0
  1 17  1  0  0  0  0
  1 27  1  0  0  0  0
  2  3  1  0  0  0  0
  2 18  1  0  0  0  0
  3 15  2  0  0  0  0
  3 21  1  0  0  0  0
  4 15  1  0  0  0  0
  4 22  2  0  0  0  0
  4 28  1  0  0  0  0
  5  6  2  0  0  0  0
  5 20  1  0  0  0  0
  5 23  1  0  0  0  0
  6  7  1  0  0  0  0
  6 29  1  0  0  0  0
  7  8  2  0  0  0  0
  7 30  1  0  0  0  0
  8 23  1  0  0  0  0
  8 31  1  0  0  0  0
  9 10  2  0  0  0  0
  9 18  1  0  0  0  0
  9 32  1  0  0  0  0
 10 11  1  0  0  0  0
 10 33  1  0  0  0  0
 11 12  2  0  0  0  0
 11 24  1  0  0  0  0
 12 13  1  0  0  0  0
 12 34  1  0  0  0  0
 13 18  2  0  0  0  0
 13 35  1  0  0  0  0
 14 24  1  0  0  0  0
 14 36  1  0  0  0  0
 14 37  1  0  0  0  0
 14 38  1  0  0  0  0
 15 16  1  0  0  0  0
 16 17  2  0  0  0  0
 16 19  1  0  0  0  0
 19 20  1  0  0  0  0
 19 39  1  0  0  0  0
 20 40  1  0  0  0  0
 20 41  1  0  0  0  0
 21 22  1  0  0  0  0
 24 25  2  0  0  0  0
 24 26  2  0  0  0  0
M  CHG  1  15   1
M  END
$$$$
