73U
 OpenBabel04161911493D

 40 42  0  0  0  0  0  0  0  0999 V2000
   -1.4169   67.2200    0.3950 C   0  0  0  0  0  0  0  0  0  0  0  0
   -1.3813   61.4207    2.5575 C   0  0  0  0  0  0  0  0  0  0  0  0
   -0.0127   59.4267    1.8109 C   0  0  0  0  0  0  0  0  0  0  0  0
   -0.3040   62.9438    0.4503 C   0  0  0  0  0  0  0  0  0  0  0  0
   -3.5588   59.2659    4.7535 C   0  0  0  0  0  0  0  0  0  0  0  0
   -3.7303   69.5602    1.8813 C   0  0  0  0  0  0  0  0  0  0  0  0
   -3.1585   68.8457    0.7655 N   0  0  0  0  0  0  0  0  0  0  0  0
   -2.6770   67.5619    0.8989 C   0  0  0  0  0  0  0  0  0  0  0  0
   -3.4150   66.5783    1.5447 C   0  0  0  0  0  0  0  0  0  0  0  0
   -2.9209   65.2869    1.6604 C   0  0  0  0  0  0  0  0  0  0  0  0
   -1.6544   64.9304    1.1760 C   0  0  0  0  0  0  0  0  0  0  0  0
   -0.9042   65.9242    0.5358 C   0  0  0  0  0  0  0  0  0  0  0  0
   -1.1911   63.5454    1.3451 C   0  0  0  0  0  0  0  0  0  0  0  0
   -1.7037   62.7603    2.4055 C   0  0  0  0  0  0  0  0  0  0  0  0
   -0.4570   60.8477    1.6747 C   0  0  0  0  0  0  0  0  0  0  0  0
    0.0700   61.6146    0.6211 C   0  0  0  0  0  0  0  0  0  0  0  0
   -2.0174   60.6584    3.5899 N   0  0  0  0  0  0  0  0  0  0  0  0
   -3.3829   60.1048    3.4889 C   0  0  0  0  0  0  0  0  0  0  0  0
   -4.5165   58.5570    4.9855 O   0  0  0  0  0  0  0  0  0  0  0  0
   -2.4733   59.4267    5.6220 N   0  0  0  0  0  0  0  0  0  0  0  0
   -1.3436   60.5348    5.0986 S   0  0  0  0  0  0  0  0  0  0  0  0
   -0.0520   59.9116    4.9987 O   0  0  0  0  0  0  0  0  0  0  0  0
   -1.5614   61.7830    5.8236 O   0  0  0  0  0  0  0  0  0  0  0  0
   -0.8084   67.9753   -0.0954 H   0  0  0  0  0  0  0  0  0  0  0  0
    0.6829   59.1577    1.0093 H   0  0  0  0  0  0  0  0  0  0  0  0
   -0.8748   58.7594    1.7550 H   0  0  0  0  0  0  0  0  0  0  0  0
    0.5169   59.2771    2.7522 H   0  0  0  0  0  0  0  0  0  0  0  0
    0.0896   63.4962   -0.4018 H   0  0  0  0  0  0  0  0  0  0  0  0
   -4.0737   70.5446    1.5477 H   0  0  0  0  0  0  0  0  0  0  0  0
   -2.9717   69.7163    2.6558 H   0  0  0  0  0  0  0  0  0  0  0  0
   -4.5857   69.0372    2.3174 H   0  0  0  0  0  0  0  0  0  0  0  0
   -3.1443   69.2815   -0.1466 H   0  0  0  0  0  0  0  0  0  0  0  0
   -4.4102   66.7818    1.9229 H   0  0  0  0  0  0  0  0  0  0  0  0
   -3.5593   64.5461    2.1307 H   0  0  0  0  0  0  0  0  0  0  0  0
    0.0878   65.7042    0.1439 H   0  0  0  0  0  0  0  0  0  0  0  0
   -2.3851   63.2024    3.1249 H   0  0  0  0  0  0  0  0  0  0  0  0
    0.7645   61.1682   -0.0876 H   0  0  0  0  0  0  0  0  0  0  0  0
   -4.1615   60.8666    3.4960 H   0  0  0  0  0  0  0  0  0  0  0  0
   -3.4617   59.4256    2.6404 H   0  0  0  0  0  0  0  0  0  0  0  0
   -2.3907   59.0112    6.5348 H   0  0  0  0  0  0  0  0  0  0  0  0
  1  8  2  0  0  0  0
  1 12  1  0  0  0  0
  1 24  1  0  0  0  0
  2 14  2  0  0  0  0
  2 15  1  0  0  0  0
  2 17  1  0  0  0  0
  3 15  1  0  0  0  0
  3 25  1  0  0  0  0
  3 26  1  0  0  0  0
  3 27  1  0  0  0  0
  4 13  2  0  0  0  0
  4 16  1  0  0  0  0
  4 28  1  0  0  0  0
  5 18  1  0  0  0  0
  5 19  2  0  0  0  0
  5 20  1  0  0  0  0
  6  7  1  0  0  0  0
  6 29  1  0  0  0  0
  6 30  1  0  0  0  0
  6 31  1  0  0  0  0
  7  8  1  0  0  0  0
  7 32  1  0  0  0  0
  8  9  1  0  0  0  0
  9 10  2  0  0  0  0
  9 33  1  0  0  0  0
 10 11  1  0  0  0  0
 10 34  1  0  0  0  0
 11 12  2  0  0  0  0
 11 13  1  0  0  0  0
 12 35  1  0  0  0  0
 13 14  1  0  0  0  0
 14 36  1  0  0  0  0
 15 16  2  0  0  0  0
 16 37  1  0  0  0  0
 17 18  1  0  0  0  0
 17 21  1  0  0  0  0
 18 38  1  0  0  0  0
 18 39  1  0  0  0  0
 20 21  1  0  0  0  0
 20 40  1  0  0  0  0
 21 22  2  0  0  0  0
 21 23  2  0  0  0  0
M  END
$$$$
