76X
 OpenBabel04161911053D

 15 15  0  0  0  0  0  0  0  0999 V2000
   -5.7715   22.3211   -9.1524 N   0  0  0  0  0  0  0  0  0  0  0  0
   -5.1226   21.2966   -8.4249 C   0  0  0  0  0  0  0  0  0  0  0  0
   -5.6057   19.9576   -8.4237 C   0  0  0  0  0  0  0  0  0  0  0  0
   -6.9219   19.6838   -8.7679 N   0  0  0  0  0  0  0  0  0  0  0  0
   -3.8520   21.5327   -7.9100 C   0  0  0  0  0  0  0  0  0  0  0  0
   -3.1077   20.4868   -7.3569 C   0  0  0  0  0  0  0  0  0  0  0  0
   -3.6612   19.2194   -7.3988 C   0  0  0  0  0  0  0  0  0  0  0  0
   -4.8760   18.9310   -7.9138 N   0  0  0  0  0  0  0  0  0  0  0  0
   -5.4914   23.2571   -8.9010 H   0  0  0  0  0  0  0  0  0  0  0  0
   -6.7771   22.2088   -9.2225 H   0  0  0  0  0  0  0  0  0  0  0  0
   -7.0476   18.6889   -8.8795 H   0  0  0  0  0  0  0  0  0  0  0  0
   -7.2970   20.2474   -9.5068 H   0  0  0  0  0  0  0  0  0  0  0  0
   -3.4315   22.5322   -7.9182 H   0  0  0  0  0  0  0  0  0  0  0  0
   -2.1324   20.6644   -6.9165 H   0  0  0  0  0  0  0  0  0  0  0  0
   -3.1148   18.3715   -6.9935 H   0  0  0  0  0  0  0  0  0  0  0  0
  1  2  1  0  0  0  0
  1  9  1  0  0  0  0
  1 10  1  0  0  0  0
  2  3  2  0  0  0  0
  2  5  1  0  0  0  0
  3  4  1  0  0  0  0
  3  8  1  0  0  0  0
  4 11  1  0  0  0  0
  4 12  1  0  0  0  0
  5  6  2  0  0  0  0
  5 13  1  0  0  0  0
  6  7  1  0  0  0  0
  6 14  1  0  0  0  0
  7  8  2  0  0  0  0
  7 15  1  0  0  0  0
M  END
$$$$
