76Z
 OpenBabel04161911493D

 41 43  0  0  1  0  0  0  0  0999 V2000
   42.2494   19.5167    2.0571 C   0  0  0  0  0  0  0  0  0  0  0  0
   42.9595   17.1565   -0.6127 C   0  0  0  0  0  0  0  0  0  0  0  0
   42.5886   18.3365    1.4025 C   0  0  0  0  0  0  0  0  0  0  0  0
   42.9176   17.2239    2.1404 C   0  0  0  0  0  0  0  0  0  0  0  0
   43.0142   16.9449   -4.2436 C   0  0  0  0  0  0  0  0  0  0  0  0
   43.2652   16.0622    1.4689 C   0  0  0  0  0  0  0  0  0  0  0  0
   43.3049   16.0124    0.0752 C   0  0  0  0  0  0  0  0  0  0  0  0
   44.4863   14.7754   -1.6217 C   0  0  0  0  0  0  0  0  0  0  0  0
   43.6124   14.9323   -2.8417 C   0  0  0  0  0  0  0  0  0  0  0  0
   42.6292   18.2398   -4.0062 C   0  0  2  0  0  0  0  0  0  0  0  0
   42.9275   17.2311   -2.0603 C   0  0  1  0  0  0  0  0  0  0  0  0
   42.5924   18.3691   -2.6675 N   0  3  0  0  0  0  0  0  0  0  0  0
   42.0113   20.4670   -4.4013 N   0  0  0  0  0  0  0  0  0  0  0  0
   42.0047   20.5341    2.5862 C   0  0  0  0  0  0  0  0  0  0  0  0
   42.3313   19.0855   -6.1626 O   0  0  0  0  0  0  0  0  0  0  0  0
   42.3270   19.2428   -4.9529 C   0  0  0  0  0  0  0  0  0  0  0  0
   43.1982   16.3283   -3.0192 N   0  3  2  0  0  0  0  0  0  0  0  0
   43.6378   14.8066   -0.4622 O   0  0  0  0  0  0  0  0  0  0  0  0
   42.6076   18.3294    0.0360 C   0  0  0  0  0  0  0  0  0  0  0  0
   41.7483   21.8117    3.2831 C   0  0  0  0  0  0  0  0  0  0  0  0
   42.3046   21.7647    4.5739 O   0  0  0  0  0  0  0  0  0  0  0  0
   40.2653   22.0365    3.3753 C   0  0  0  0  0  0  0  0  0  0  0  0
   42.4331   22.9202    2.5002 C   0  0  0  0  0  0  0  0  0  0  0  0
   42.9033   17.2644    3.2252 H   0  0  0  0  0  0  0  0  0  0  0  0
   43.1708   16.4216   -5.1743 H   0  0  0  0  0  0  0  0  0  0  0  0
   43.5227   15.1832    2.0556 H   0  0  0  0  0  0  0  0  0  0  0  0
   45.2449   15.5610   -1.5708 H   0  0  0  0  0  0  0  0  0  0  0  0
   44.9955   13.7940   -1.6565 H   0  0  0  0  0  0  0  0  0  0  0  0
   42.7096   14.3182   -2.7449 H   0  0  0  0  0  0  0  0  0  0  0  0
   44.1652   14.6270   -3.7398 H   0  0  0  0  0  0  0  0  0  0  0  0
   41.7795   21.2537   -5.0157 H   0  0  0  0  0  0  0  0  0  0  0  0
   41.9991   20.6307   -3.4110 H   0  0  0  0  0  0  0  0  0  0  0  0
   42.3516   19.2360   -0.4953 H   0  0  0  0  0  0  0  0  0  0  0  0
   41.8741   21.0486    5.0730 H   0  0  0  0  0  0  0  0  0  0  0  0
   39.8093   22.0691    2.3800 H   0  0  0  0  0  0  0  0  0  0  0  0
   40.0814   22.9868    3.8914 H   0  0  0  0  0  0  0  0  0  0  0  0
   39.8013   21.2267    3.9567 H   0  0  0  0  0  0  0  0  0  0  0  0
   42.0451   22.9742    1.4757 H   0  0  0  0  0  0  0  0  0  0  0  0
   43.5190   22.7469    2.4613 H   0  0  0  0  0  0  0  0  0  0  0  0
   42.2512   23.8769    3.0060 H   0  0  0  0  0  0  0  0  0  0  0  0
   42.3362   19.2305   -2.2142 H   0  0  0  0  0  0  0  0  0  0  0  0
  1  3  1  0  0  0  0
  1 14  3  0  0  0  0
  2  7  2  0  0  0  0
  2 19  1  0  0  0  0
  3  4  1  0  0  0  0
  3 19  2  0  0  0  0
  4  6  2  0  0  0  0
  4 24  1  0  0  0  0
  5 10  1  0  0  0  0
  5 25  1  0  0  0  0
  6  7  1  0  0  0  0
  6 26  1  0  0  0  0
  7 18  1  0  0  0  0
  8  9  1  0  0  0  0
  8 18  1  0  0  0  0
  8 27  1  0  0  0  0
  8 28  1  0  0  0  0
  9 17  1  0  0  0  0
  9 29  1  0  0  0  0
  9 30  1  0  0  0  0
 10 12  1  0  0  0  0
 10 16  1  1  0  0  0
 11  2  1  1  0  0  0
 11 12  1  0  0  0  0
 11 17  1  0  0  0  0
 12 41  1  0  0  0  0
 13 16  1  0  0  0  0
 13 31  1  0  0  0  0
 13 32  1  0  0  0  0
 14 20  1  0  0  0  0
 15 16  2  0  0  0  0
 17  5  1  6  0  0  0
 19 33  1  0  0  0  0
 20 21  1  0  0  0  0
 20 22  1  0  0  0  0
 20 23  1  0  0  0  0
 21 34  1  0  0  0  0
 22 35  1  0  0  0  0
 22 36  1  0  0  0  0
 22 37  1  0  0  0  0
 23 38  1  0  0  0  0
 23 39  1  0  0  0  0
 23 40  1  0  0  0  0
M  CHG  2  12   1  17   1
M  END
$$$$
