774
 OpenBabel04161911503D

 27 29  0  0  0  0  0  0  0  0999 V2000
   28.7344   55.2614   -4.4564 C   0  0  0  0  0  0  0  0  0  0  0  0
   29.1567   54.2151   -5.2655 C   0  0  0  0  0  0  0  0  0  0  0  0
   28.6375   53.5849    1.2474 C   0  0  0  0  0  0  0  0  0  0  0  0
   29.3677   52.4289    1.1298 C   0  0  0  0  0  0  0  0  0  0  0  0
   28.4140   54.2345   -0.0146 C   0  0  0  0  0  0  0  0  0  0  0  0
   28.6346   55.0716   -3.0750 C   0  0  0  0  0  0  0  0  0  0  0  0
   29.0252   53.8455   -2.5188 C   0  0  0  0  0  0  0  0  0  0  0  0
   29.0013   53.5391   -1.0697 C   0  0  0  0  0  0  0  0  0  0  0  0
   29.4966   53.0254   -4.6453 C   0  0  0  0  0  0  0  0  0  0  0  0
   29.9604   51.8560   -5.4511 C   0  0  0  0  0  0  0  0  0  0  0  0
   27.6286   55.5123   -0.1183 C   0  0  0  0  0  0  0  0  0  0  0  0
   27.0825   55.7796   -1.5101 C   0  0  0  0  0  0  0  0  0  0  0  0
   29.4515   52.8244   -3.3000 N   0  0  0  0  0  0  0  0  0  0  0  0
   30.4063   50.7966   -4.7089 N   0  0  0  0  0  0  0  0  0  0  0  0
   29.9446   51.8427   -6.6742 O   0  0  0  0  0  0  0  0  0  0  0  0
   28.1531   56.1484   -2.3838 O   0  0  0  0  0  0  0  0  0  0  0  0
   29.7971   52.1178   -0.4852 S   0  0  0  0  0  0  0  0  0  0  0  0
   28.4558   56.2157   -4.8960 H   0  0  0  0  0  0  0  0  0  0  0  0
   29.2154   54.3244   -6.3432 H   0  0  0  0  0  0  0  0  0  0  0  0
   28.2746   53.9555    2.1993 H   0  0  0  0  0  0  0  0  0  0  0  0
   29.6708   51.7534    1.9180 H   0  0  0  0  0  0  0  0  0  0  0  0
   28.2816   56.3372    0.1911 H   0  0  0  0  0  0  0  0  0  0  0  0
   26.7864   55.4671    0.5830 H   0  0  0  0  0  0  0  0  0  0  0  0
   26.4049   56.6391   -1.4730 H   0  0  0  0  0  0  0  0  0  0  0  0
   26.4963   54.9374   -1.9053 H   0  0  0  0  0  0  0  0  0  0  0  0
   30.7344   49.9581   -5.1655 H   0  0  0  0  0  0  0  0  0  0  0  0
   30.3845   50.8631   -3.6960 H   0  0  0  0  0  0  0  0  0  0  0  0
  1  2  2  0  0  0  0
  1  6  1  0  0  0  0
  1 18  1  0  0  0  0
  2  9  1  0  0  0  0
  2 19  1  0  0  0  0
  3  4  2  0  0  0  0
  3  5  1  0  0  0  0
  3 20  1  0  0  0  0
  4 17  1  0  0  0  0
  4 21  1  0  0  0  0
  5  8  2  0  0  0  0
  5 11  1  0  0  0  0
  6  7  2  0  0  0  0
  6 16  1  0  0  0  0
  7  8  1  0  0  0  0
  7 13  1  0  0  0  0
  8 17  1  0  0  0  0
  9 10  1  0  0  0  0
  9 13  2  0  0  0  0
 10 14  1  0  0  0  0
 10 15  2  0  0  0  0
 11 12  1  0  0  0  0
 11 22  1  0  0  0  0
 11 23  1  0  0  0  0
 12 16  1  0  0  0  0
 12 24  1  0  0  0  0
 12 25  1  0  0  0  0
 14 26  1  0  0  0  0
 14 27  1  0  0  0  0
M  END
$$$$
