777
 OpenBabel04161910563D

 44 46  0  0  1  0  0  0  0  0999 V2000
  -31.6694    6.5346  -23.9651 C   0  0  0  0  0  0  0  0  0  0  0  0
  -31.8368    7.1817  -22.6121 C   0  0  0  0  0  0  0  0  0  0  0  0
  -32.2503    5.2092  -24.0276 N   0  0  0  0  0  0  0  0  0  0  0  0
  -31.2618    3.8140  -23.9034 P   0  0  2  0  0  0  0  0  0  0  0  0
  -32.0908    2.6754  -24.4191 O   0  0  0  0  0  0  0  0  0  0  0  0
  -30.6312    3.8231  -22.5423 O   0  0  0  0  0  0  0  0  0  0  0  0
  -30.1005    4.1693  -24.9672 O   0  0  0  0  0  0  0  0  0  0  0  0
  -30.3399    3.9951  -26.3412 C   0  0  0  0  0  0  0  0  0  0  0  0
  -29.3441    4.8780  -27.0832 C   0  0  1  0  0  0  0  0  0  0  0  0
  -29.2430    4.4363  -28.4491 O   0  0  0  0  0  0  0  0  0  0  0  0
  -29.7584    6.3641  -27.1002 C   0  0  1  0  0  0  0  0  0  0  0  0
  -28.8114    7.2158  -26.4505 O   0  0  0  0  0  0  0  0  0  0  0  0
  -29.8880    6.7083  -28.5816 C   0  0  1  0  0  0  0  0  0  0  0  0
  -29.4395    8.0105  -28.9507 O   0  0  0  0  0  0  0  0  0  0  0  0
  -29.0861    5.6021  -29.2516 C   0  0  2  0  0  0  0  0  0  0  0  0
  -29.5021    5.2930  -30.5941 N   0  3  0  0  0  0  0  0  0  0  0  0
  -28.6959    5.1401  -31.6778 C   0  0  0  0  0  0  0  0  0  0  0  0
  -27.3561    5.2300  -31.7606 N   0  3  0  0  0  0  0  0  0  0  0  0
  -26.7511    5.0181  -32.9665 C   0  0  0  0  0  0  0  0  0  0  0  0
  -25.4571    5.0865  -33.0866 N   0  0  0  0  0  0  0  0  0  0  0  0
  -27.5260    4.7296  -34.0618 N   0  3  0  0  0  0  0  0  0  0  0  0
  -30.7909    5.0910  -31.0426 C   0  0  0  0  0  0  0  0  0  0  0  0
  -30.8377    4.8391  -32.3370 N   0  0  0  0  0  0  0  0  0  0  0  0
  -29.5218    4.8573  -32.7385 C   0  0  0  0  0  0  0  0  0  0  0  0
  -28.9222    4.6335  -34.0534 C   0  0  0  0  0  0  0  0  0  0  0  0
  -29.5506    4.3837  -35.0800 O   0  0  0  0  0  0  0  0  0  0  0  0
  -30.6059    6.4812  -24.2063 H   0  0  0  0  0  0  0  0  0  0  0  0
  -32.1538    7.1529  -24.7279 H   0  0  0  0  0  0  0  0  0  0  0  0
  -31.3746    8.1763  -22.6175 H   0  0  0  0  0  0  0  0  0  0  0  0
  -31.3537    6.5874  -21.8322 H   0  0  0  0  0  0  0  0  0  0  0  0
  -32.8933    7.2996  -22.3562 H   0  0  0  0  0  0  0  0  0  0  0  0
  -33.2550    5.0624  -23.9913 H   0  0  0  0  0  0  0  0  0  0  0  0
  -31.3662    4.2624  -26.6165 H   0  0  0  0  0  0  0  0  0  0  0  0
  -30.1823    2.9452  -26.6093 H   0  0  0  0  0  0  0  0  0  0  0  0
  -28.3477    4.7753  -26.6331 H   0  0  0  0  0  0  0  0  0  0  0  0
  -30.7218    6.5154  -26.6072 H   0  0  0  0  0  0  0  0  0  0  0  0
  -27.9208    7.0485  -26.7919 H   0  0  0  0  0  0  0  0  0  0  0  0
  -30.9428    6.6386  -28.8585 H   0  0  0  0  0  0  0  0  0  0  0  0
  -28.5130    8.1180  -28.6774 H   0  0  0  0  0  0  0  0  0  0  0  0
  -28.0223    5.8637  -29.2677 H   0  0  0  0  0  0  0  0  0  0  0  0
  -26.7345    5.4120  -30.9907 H   0  0  0  0  0  0  0  0  0  0  0  0
  -25.1722    4.9006  -34.0567 H   0  0  0  0  0  0  0  0  0  0  0  0
  -27.1044    4.5828  -34.9623 H   0  0  0  0  0  0  0  0  0  0  0  0
  -31.6532    5.1522  -30.3870 H   0  0  0  0  0  0  0  0  0  0  0  0
  1  2  1  0  0  0  0
  1  3  1  0  0  0  0
  1 27  1  0  0  0  0
  1 28  1  0  0  0  0
  2 29  1  0  0  0  0
  2 30  1  0  0  0  0
  2 31  1  0  0  0  0
  3 32  1  0  0  0  0
  4  3  1  6  0  0  0
  4  5  2  0  0  0  0
  4  6  1  0  0  0  0
  4  7  1  0  0  0  0
  7  8  1  0  0  0  0
  8  9  1  0  0  0  0
  8 33  1  0  0  0  0
  8 34  1  0  0  0  0
  9 10  1  0  0  0  0
  9 11  1  0  0  0  0
  9 35  1  1  0  0  0
 10 15  1  0  0  0  0
 11 12  1  0  0  0  0
 11 13  1  0  0  0  0
 11 36  1  1  0  0  0
 12 37  1  0  0  0  0
 13 14  1  0  0  0  0
 13 15  1  0  0  0  0
 13 38  1  6  0  0  0
 14 39  1  0  0  0  0
 15 16  1  0  0  0  0
 15 40  1  6  0  0  0
 16 17  1  0  0  0  0
 16 22  2  0  0  0  0
 17 18  2  0  0  0  0
 17 24  1  0  0  0  0
 18 19  1  0  0  0  0
 18 41  1  0  0  0  0
 19 20  2  0  0  0  0
 19 21  1  0  0  0  0
 20 42  1  0  0  0  0
 21 25  1  0  0  0  0
 21 43  1  0  0  0  0
 22 23  1  0  0  0  0
 22 44  1  0  0  0  0
 23 24  2  0  0  0  0
 24 25  1  0  0  0  0
 25 26  2  0  0  0  0
M  CHG  3  16   1  18   1  21   1
M  END
$$$$
