78E
 OpenBabel04161911503D

 82 84  0  0  1  0  0  0  0  0999 V2000
    5.7158  -19.6564   -0.8502 N   0  0  0  0  0  0  0  0  0  0  0  0
    6.3384  -19.4912    1.9870 C   0  0  0  0  0  0  0  0  0  0  0  0
    6.4464  -20.6443   -0.1601 N   0  0  0  0  0  0  0  0  0  0  0  0
    4.8193  -18.8982    0.0394 C   0  0  2  0  0  0  0  0  0  0  0  0
    4.2177  -17.7122   -0.7316 C   0  0  0  0  0  0  0  0  0  0  0  0
    2.2075  -16.3478   -0.8071 C   0  0  0  0  0  0  0  0  0  0  0  0
    1.6272  -17.7648   -2.8201 C   0  0  0  0  0  0  0  0  0  0  0  0
    5.0136  -25.0600   -5.4966 C   0  0  0  0  0  0  0  0  0  0  0  0
    2.0594  -16.4109   -2.3264 C   0  0  0  0  0  0  0  0  0  0  0  0
    2.3059  -18.4555   -3.7474 C   0  0  0  0  0  0  0  0  0  0  0  0
    5.5193  -18.3930    1.3002 C   0  0  0  0  0  0  0  0  0  0  0  0
    7.2498  -20.1775    0.9756 C   0  0  0  0  0  0  0  0  0  0  0  0
    1.8790  -19.7564   -4.2072 C   0  0  0  0  0  0  0  0  0  0  0  0
    2.9640  -17.4412   -0.2444 O   0  0  0  0  0  0  0  0  0  0  0  0
    2.5473  -20.4618   -5.1288 C   0  0  0  0  0  0  0  0  0  0  0  0
    4.8066  -17.0768   -1.5916 O   0  0  0  0  0  0  0  0  0  0  0  0
    4.6796  -25.6031   -4.4622 O   0  0  0  0  0  0  0  0  0  0  0  0
    2.1056  -21.8205   -5.6106 C   0  0  0  0  0  0  0  0  0  0  0  0
    3.3067  -22.7435   -5.8293 C   0  0  0  0  0  0  0  0  0  0  0  0
    2.9571  -24.0165   -6.6019 C   0  0  0  0  0  0  0  0  0  0  0  0
    4.0947  -25.0379   -6.7154 C   0  0  0  0  0  0  0  0  0  0  0  0
    6.1938  -24.3822   -5.6603 N   0  0  0  0  0  0  0  0  0  0  0  0
    7.1881  -24.2304   -4.5909 C   0  0  2  0  0  0  0  0  0  0  0  0
    6.7842  -22.9614   -3.7743 C   0  0  0  0  0  0  0  0  0  0  0  0
    6.9923  -21.8286   -4.1352 O   0  0  0  0  0  0  0  0  0  0  0  0
    8.6588  -24.2111   -5.0621 C   0  0  0  0  0  0  0  0  0  0  0  0
    9.0055  -25.3469   -6.0385 C   0  0  0  0  0  0  0  0  0  0  0  0
    9.5954  -24.2931   -3.8455 C   0  0  0  0  0  0  0  0  0  0  0  0
    6.0442  -23.2686   -2.6615 N   0  0  0  0  0  0  0  0  0  0  0  0
    5.4342  -22.2936   -1.7528 C   0  0  1  0  0  0  0  0  0  0  0  0
    4.1526  -22.9729   -1.2574 C   0  0  0  0  0  0  0  0  0  0  0  0
    3.3029  -22.1728   -0.3140 C   0  0  0  0  0  0  0  0  0  0  0  0
    2.3691  -21.2419   -0.7955 C   0  0  0  0  0  0  0  0  0  0  0  0
    1.5936  -20.4896    0.1011 C   0  0  0  0  0  0  0  0  0  0  0  0
    3.4515  -22.3512    1.0700 C   0  0  0  0  0  0  0  0  0  0  0  0
    2.6866  -21.5972    1.9565 C   0  0  0  0  0  0  0  0  0  0  0  0
    1.7576  -20.6653    1.4824 C   0  0  0  0  0  0  0  0  0  0  0  0
    2.8455  -21.7667    3.3038 O   0  0  0  0  0  0  0  0  0  0  0  0
    6.3771  -21.9786   -0.5588 C   0  0  0  0  0  0  0  0  0  0  0  0
    6.9850  -22.8805    0.0360 O   0  0  0  0  0  0  0  0  0  0  0  0
    6.3778  -19.0292   -1.3132 H   0  0  0  0  0  0  0  0  0  0  0  0
    5.6562  -20.2307    2.4260 H   0  0  0  0  0  0  0  0  0  0  0  0
    6.9364  -19.0568    2.7967 H   0  0  0  0  0  0  0  0  0  0  0  0
    4.0070  -19.5556    0.3204 H   0  0  0  0  0  0  0  0  0  0  0  0
    1.2089  -16.3843   -0.3442 H   0  0  0  0  0  0  0  0  0  0  0  0
    2.6798  -15.4036   -0.5033 H   0  0  0  0  0  0  0  0  0  0  0  0
    0.7289  -18.1958   -2.3890 H   0  0  0  0  0  0  0  0  0  0  0  0
    3.0175  -16.1382   -2.7795 H   0  0  0  0  0  0  0  0  0  0  0  0
    1.3241  -15.6599   -2.6396 H   0  0  0  0  0  0  0  0  0  0  0  0
    3.2127  -18.0280   -4.1763 H   0  0  0  0  0  0  0  0  0  0  0  0
    6.1873  -17.5596    1.0476 H   0  0  0  0  0  0  0  0  0  0  0  0
    4.7649  -18.0164    2.0025 H   0  0  0  0  0  0  0  0  0  0  0  0
    7.7802  -21.0127    1.4457 H   0  0  0  0  0  0  0  0  0  0  0  0
    7.9927  -19.4602    0.6004 H   0  0  0  0  0  0  0  0  0  0  0  0
    0.9702  -20.1758   -3.7794 H   0  0  0  0  0  0  0  0  0  0  0  0
    3.4556  -20.0415   -5.5578 H   0  0  0  0  0  0  0  0  0  0  0  0
    1.5572  -21.7053   -6.5529 H   0  0  0  0  0  0  0  0  0  0  0  0
    1.4313  -22.2744   -4.8714 H   0  0  0  0  0  0  0  0  0  0  0  0
    3.7032  -23.0165   -4.8463 H   0  0  0  0  0  0  0  0  0  0  0  0
    4.0787  -22.1990   -6.3824 H   0  0  0  0  0  0  0  0  0  0  0  0
    2.6484  -23.7381   -7.6191 H   0  0  0  0  0  0  0  0  0  0  0  0
    2.1041  -24.5044   -6.1145 H   0  0  0  0  0  0  0  0  0  0  0  0
    3.6708  -26.0470   -6.8242 H   0  0  0  0  0  0  0  0  0  0  0  0
    4.6878  -24.8369   -7.6170 H   0  0  0  0  0  0  0  0  0  0  0  0
    6.3773  -23.9393   -6.5452 H   0  0  0  0  0  0  0  0  0  0  0  0
    7.0888  -25.0790   -3.9204 H   0  0  0  0  0  0  0  0  0  0  0  0
    8.8737  -23.2752   -5.5855 H   0  0  0  0  0  0  0  0  0  0  0  0
   10.0701  -25.3114   -6.3155 H   0  0  0  0  0  0  0  0  0  0  0  0
    8.4206  -25.2506   -6.9608 H   0  0  0  0  0  0  0  0  0  0  0  0
    8.8031  -26.3324   -5.6001 H   0  0  0  0  0  0  0  0  0  0  0  0
    9.3591  -23.4951   -3.1338 H   0  0  0  0  0  0  0  0  0  0  0  0
   10.6437  -24.1794   -4.1486 H   0  0  0  0  0  0  0  0  0  0  0  0
    9.4919  -25.2563   -3.3269 H   0  0  0  0  0  0  0  0  0  0  0  0
    5.8982  -24.2431   -2.4479 H   0  0  0  0  0  0  0  0  0  0  0  0
    5.2127  -21.3815   -2.3093 H   0  0  0  0  0  0  0  0  0  0  0  0
    4.4287  -23.9253   -0.7710 H   0  0  0  0  0  0  0  0  0  0  0  0
    3.5506  -23.2462   -2.1386 H   0  0  0  0  0  0  0  0  0  0  0  0
    2.2529  -21.0963   -1.8666 H   0  0  0  0  0  0  0  0  0  0  0  0
    0.8798  -19.7570   -0.2776 H   0  0  0  0  0  0  0  0  0  0  0  0
    4.1651  -23.0827    1.4457 H   0  0  0  0  0  0  0  0  0  0  0  0
    1.1615  -20.0816    2.1767 H   0  0  0  0  0  0  0  0  0  0  0  0
    3.5252  -22.4481    3.4550 H   0  0  0  0  0  0  0  0  0  0  0  0
  1  3  1  0  0  0  0
  1  4  1  0  0  0  0
  1 41  1  0  0  0  0
  2 11  1  0  0  0  0
  2 12  1  0  0  0  0
  2 42  1  0  0  0  0
  2 43  1  0  0  0  0
  3 12  1  0  0  0  0
  3 39  1  0  0  0  0
  4  5  1  0  0  0  0
  4 11  1  0  0  0  0
  4 44  1  1  0  0  0
  5 14  1  0  0  0  0
  5 16  2  0  0  0  0
  6  9  1  0  0  0  0
  6 14  1  0  0  0  0
  6 45  1  0  0  0  0
  6 46  1  0  0  0  0
  7  9  1  0  0  0  0
  7 10  2  0  0  0  0
  7 47  1  0  0  0  0
  8 17  2  0  0  0  0
  8 21  1  0  0  0  0
  8 22  1  0  0  0  0
  9 48  1  0  0  0  0
  9 49  1  0  0  0  0
 10 13  1  0  0  0  0
 10 50  1  0  0  0  0
 11 51  1  0  0  0  0
 11 52  1  0  0  0  0
 12 53  1  0  0  0  0
 12 54  1  0  0  0  0
 13 15  2  0  0  0  0
 13 55  1  0  0  0  0
 15 18  1  0  0  0  0
 15 56  1  0  0  0  0
 18 19  1  0  0  0  0
 18 57  1  0  0  0  0
 18 58  1  0  0  0  0
 19 20  1  0  0  0  0
 19 59  1  0  0  0  0
 19 60  1  0  0  0  0
 20 21  1  0  0  0  0
 20 61  1  0  0  0  0
 20 62  1  0  0  0  0
 21 63  1  0  0  0  0
 21 64  1  0  0  0  0
 22 23  1  0  0  0  0
 22 65  1  0  0  0  0
 23 24  1  0  0  0  0
 23 26  1  0  0  0  0
 23 66  1  1  0  0  0
 24 25  2  0  0  0  0
 24 29  1  0  0  0  0
 26 27  1  0  0  0  0
 26 28  1  0  0  0  0
 26 67  1  0  0  0  0
 27 68  1  0  0  0  0
 27 69  1  0  0  0  0
 27 70  1  0  0  0  0
 28 71  1  0  0  0  0
 28 72  1  0  0  0  0
 28 73  1  0  0  0  0
 29 30  1  0  0  0  0
 29 74  1  0  0  0  0
 30 31  1  0  0  0  0
 30 39  1  0  0  0  0
 30 75  1  6  0  0  0
 31 32  1  0  0  0  0
 31 76  1  0  0  0  0
 31 77  1  0  0  0  0
 32 33  2  0  0  0  0
 32 35  1  0  0  0  0
 33 34  1  0  0  0  0
 33 78  1  0  0  0  0
 34 37  2  0  0  0  0
 34 79  1  0  0  0  0
 35 36  2  0  0  0  0
 35 80  1  0  0  0  0
 36 37  1  0  0  0  0
 36 38  1  0  0  0  0
 37 81  1  0  0  0  0
 38 82  1  0  0  0  0
 39 40  2  0  0  0  0
M  END
$$$$
