78L
 OpenBabel04161911513D

 73 78  0  0  0  0  0  0  0  0999 V2000
   20.4240   11.5681  -28.0352 C   0  0  0  0  0  0  0  0  0  0  0  0
   21.7393   11.9275  -28.7229 C   0  0  0  0  0  0  0  0  0  0  0  0
   22.7306   12.3789  -27.7885 O   0  0  0  0  0  0  0  0  0  0  0  0
   22.9918   11.4511  -26.7271 C   0  0  0  0  0  0  0  0  0  0  0  0
   21.7153   11.1380  -25.9551 C   0  0  0  0  0  0  0  0  0  0  0  0
   20.7081   10.5957  -26.9325 N   0  0  0  0  0  0  0  0  0  0  0  0
   19.5069   10.2348  -26.2520 C   0  0  0  0  0  0  0  0  0  0  0  0
   19.1891    8.9324  -26.2882 C   0  0  0  0  0  0  0  0  0  0  0  0
   19.7661    8.0725  -27.1596 N   0  0  0  0  0  0  0  0  0  0  0  0
   19.6630    6.7363  -27.3851 C   0  0  0  0  0  0  0  0  0  0  0  0
   20.3612    6.3014  -28.2915 O   0  0  0  0  0  0  0  0  0  0  0  0
   18.8050    5.8562  -26.5668 C   0  0  0  0  0  0  0  0  0  0  0  0
   19.1377    4.5090  -26.5621 C   0  0  0  0  0  0  0  0  0  0  0  0
   18.4074    3.6115  -25.7823 C   0  0  0  0  0  0  0  0  0  0  0  0
   18.8039    2.2027  -25.8505 C   0  0  0  0  0  0  0  0  0  0  0  0
   19.1321    1.7767  -26.9574 O   0  0  0  0  0  0  0  0  0  0  0  0
   17.7053    6.2922  -25.8329 C   0  0  0  0  0  0  0  0  0  0  0  0
   16.9944    5.4133  -25.0357 C   0  0  0  0  0  0  0  0  0  0  0  0
   17.3401    4.0694  -25.0138 C   0  0  0  0  0  0  0  0  0  0  0  0
   16.5913    3.1679  -24.0939 C   0  0  0  0  0  0  0  0  0  0  0  0
   17.5615    2.7722  -23.0009 C   0  0  0  0  0  0  0  0  0  0  0  0
   18.3515    1.5658  -23.3995 C   0  0  0  0  0  0  0  0  0  0  0  0
   18.5439    0.6321  -22.3822 C   0  0  0  0  0  0  0  0  0  0  0  0
   18.8775    1.3077  -24.6693 C   0  0  0  0  0  0  0  0  0  0  0  0
   19.5431    0.0994  -24.9003 C   0  0  0  0  0  0  0  0  0  0  0  0
   19.6893   -0.8361  -23.8844 C   0  0  0  0  0  0  0  0  0  0  0  0
   19.1977   -0.5691  -22.6108 C   0  0  0  0  0  0  0  0  0  0  0  0
   19.3416   -1.4146  -21.5190 N   0  0  0  0  0  0  0  0  0  0  0  0
   20.1085   -2.5643  -21.3631 C   0  0  0  0  0  0  0  0  0  0  0  0
   19.4909   -3.6494  -20.7485 C   0  0  0  0  0  0  0  0  0  0  0  0
   21.4257   -2.6998  -21.8179 C   0  0  0  0  0  0  0  0  0  0  0  0
   22.0615   -1.6769  -22.4086 F   0  0  0  0  0  0  0  0  0  0  0  0
   22.1403   -3.8688  -21.6159 C   0  0  0  0  0  0  0  0  0  0  0  0
   21.5188   -4.9262  -20.9765 C   0  0  0  0  0  0  0  0  0  0  0  0
   22.1949   -6.0717  -20.8038 F   0  0  0  0  0  0  0  0  0  0  0  0
   20.1911   -4.8322  -20.5583 C   0  0  0  0  0  0  0  0  0  0  0  0
   19.5999   -5.9234  -19.9083 N   0  0  0  0  0  0  0  0  0  0  0  0
   18.2725   -6.2884  -20.0764 C   0  0  0  0  0  0  0  0  0  0  0  0
   17.4793   -5.6648  -20.7953 O   0  0  0  0  0  0  0  0  0  0  0  0
   17.8967   -7.4704  -19.3506 C   0  0  0  0  0  0  0  0  0  0  0  0
   16.6386   -8.4888  -19.9089 S   0  0  0  0  0  0  0  0  0  0  0  0
   16.7816   -9.5122  -18.5485 C   0  0  0  0  0  0  0  0  0  0  0  0
   17.7635   -9.0793  -17.6899 C   0  0  0  0  0  0  0  0  0  0  0  0
   18.4119   -7.9088  -18.1510 C   0  0  0  0  0  0  0  0  0  0  0  0
   19.7208   11.1017  -28.7347 H   0  0  0  0  0  0  0  0  0  0  0  0
   19.9744   12.4469  -27.5563 H   0  0  0  0  0  0  0  0  0  0  0  0
   21.5484   12.7425  -29.4247 H   0  0  0  0  0  0  0  0  0  0  0  0
   22.1336   11.0752  -29.2910 H   0  0  0  0  0  0  0  0  0  0  0  0
   23.7083   11.9095  -26.0408 H   0  0  0  0  0  0  0  0  0  0  0  0
   23.4469   10.5397  -27.1364 H   0  0  0  0  0  0  0  0  0  0  0  0
   21.2722   12.0452  -25.5275 H   0  0  0  0  0  0  0  0  0  0  0  0
   21.8933   10.3785  -25.1844 H   0  0  0  0  0  0  0  0  0  0  0  0
   18.9240   10.9387  -25.6544 H   0  0  0  0  0  0  0  0  0  0  0  0
   18.4459    8.6494  -25.5341 H   0  0  0  0  0  0  0  0  0  0  0  0
   20.3163    8.4198  -27.9237 H   0  0  0  0  0  0  0  0  0  0  0  0
   19.9703    4.1429  -27.1594 H   0  0  0  0  0  0  0  0  0  0  0  0
   17.3213    7.2952  -25.8468 H   0  0  0  0  0  0  0  0  0  0  0  0
   16.1686    5.7793  -24.4285 H   0  0  0  0  0  0  0  0  0  0  0  0
   16.1817    2.3178  -24.6519 H   0  0  0  0  0  0  0  0  0  0  0  0
   15.7425    3.7111  -23.6662 H   0  0  0  0  0  0  0  0  0  0  0  0
   16.9852    2.5404  -22.0974 H   0  0  0  0  0  0  0  0  0  0  0  0
   18.2707    3.5670  -22.7342 H   0  0  0  0  0  0  0  0  0  0  0  0
   18.1558    0.8355  -21.3854 H   0  0  0  0  0  0  0  0  0  0  0  0
   19.9561   -0.1210  -25.8827 H   0  0  0  0  0  0  0  0  0  0  0  0
   20.1869   -1.7733  -24.1149 H   0  0  0  0  0  0  0  0  0  0  0  0
   18.7382   -1.2046  -20.7316 H   0  0  0  0  0  0  0  0  0  0  0  0
   18.4661   -3.5410  -20.4004 H   0  0  0  0  0  0  0  0  0  0  0  0
   23.1639   -3.9389  -21.9506 H   0  0  0  0  0  0  0  0  0  0  0  0
   20.2414   -6.5755  -19.4674 H   0  0  0  0  0  0  0  0  0  0  0  0
   16.1431  -10.3772  -18.4144 H   0  0  0  0  0  0  0  0  0  0  0  0
   18.0032   -9.5703  -16.7561 H   0  0  0  0  0  0  0  0  0  0  0  0
   19.1851   -7.3879  -17.6022 H   0  0  0  0  0  0  0  0  0  0  0  0
   21.1877    9.7787  -27.3276 H   0  0  0  0  0  0  0  0  0  0  0  0
  1  2  1  0  0  0  0
  1  6  1  0  0  0  0
  1 45  1  0  0  0  0
  1 46  1  0  0  0  0
  2  3  1  0  0  0  0
  2 47  1  0  0  0  0
  2 48  1  0  0  0  0
  3  4  1  0  0  0  0
  4  5  1  0  0  0  0
  4 49  1  0  0  0  0
  4 50  1  0  0  0  0
  5  6  1  0  0  0  0
  5 51  1  0  0  0  0
  5 52  1  0  0  0  0
  6  7  1  0  0  0  0
  6 73  1  0  0  0  0
  7  8  2  0  0  0  0
  7 53  1  0  0  0  0
  8  9  1  0  0  0  0
  8 54  1  0  0  0  0
  9 10  1  0  0  0  0
  9 55  1  0  0  0  0
 10 11  2  0  0  0  0
 10 12  1  0  0  0  0
 12 13  2  0  0  0  0
 12 17  1  0  0  0  0
 13 14  1  0  0  0  0
 13 56  1  0  0  0  0
 14 15  1  0  0  0  0
 14 19  2  0  0  0  0
 15 16  2  0  0  0  0
 15 24  1  0  0  0  0
 17 18  2  0  0  0  0
 17 57  1  0  0  0  0
 18 19  1  0  0  0  0
 18 58  1  0  0  0  0
 19 20  1  0  0  0  0
 20 21  1  0  0  0  0
 20 59  1  0  0  0  0
 20 60  1  0  0  0  0
 21 22  1  0  0  0  0
 21 61  1  0  0  0  0
 21 62  1  0  0  0  0
 22 23  2  0  0  0  0
 22 24  1  0  0  0  0
 23 27  1  0  0  0  0
 23 63  1  0  0  0  0
 24 25  2  0  0  0  0
 25 26  1  0  0  0  0
 25 64  1  0  0  0  0
 26 27  2  0  0  0  0
 26 65  1  0  0  0  0
 27 28  1  0  0  0  0
 28 29  1  0  0  0  0
 28 66  1  0  0  0  0
 29 30  2  0  0  0  0
 29 31  1  0  0  0  0
 30 36  1  0  0  0  0
 30 67  1  0  0  0  0
 31 32  1  0  0  0  0
 31 33  2  0  0  0  0
 33 34  1  0  0  0  0
 33 68  1  0  0  0  0
 34 35  1  0  0  0  0
 34 36  2  0  0  0  0
 36 37  1  0  0  0  0
 37 38  1  0  0  0  0
 37 69  1  0  0  0  0
 38 39  2  0  0  0  0
 38 40  1  0  0  0  0
 40 41  1  0  0  0  0
 40 44  2  0  0  0  0
 41 42  1  0  0  0  0
 42 43  2  0  0  0  0
 42 70  1  0  0  0  0
 43 44  1  0  0  0  0
 43 71  1  0  0  0  0
 44 72  1  0  0  0  0
M  END
$$$$
