78R
 OpenBabel04161911503D

 92 95  0  0  1  0  0  0  0  0999 V2000
   15.6514   -5.7147   14.9015 N   0  0  0  0  0  0  0  0  0  0  0  0
   14.9141   -5.5691   13.7073 N   0  0  0  0  0  0  0  0  0  0  0  0
   17.5694   -4.5915   13.7944 C   0  0  0  0  0  0  0  0  0  0  0  0
   15.2398   -4.4008   12.8861 C   0  0  0  0  0  0  0  0  0  0  0  0
   17.0990   -5.7873   14.6319 C   0  0  1  0  0  0  0  0  0  0  0  0
   16.7239   -4.4542   12.5259 C   0  0  0  0  0  0  0  0  0  0  0  0
   10.4341  -10.7397   16.0946 C   0  0  0  0  0  0  0  0  0  0  0  0
   10.2619  -11.5508   17.3649 C   0  0  2  0  0  0  0  0  0  0  0  0
    8.8171  -12.0217   17.4589 C   0  0  0  0  0  0  0  0  0  0  0  0
   10.7282  -10.7782   18.6157 C   0  0  1  0  0  0  0  0  0  0  0  0
   12.1722  -10.2616   18.4227 C   0  0  0  0  0  0  0  0  0  0  0  0
   13.0697  -10.7334   19.5638 C   0  0  0  0  0  0  0  0  0  0  0  0
   17.8032   -5.7431   15.9759 C   0  0  0  0  0  0  0  0  0  0  0  0
   19.1905   -6.8551   17.4840 C   0  0  0  0  0  0  0  0  0  0  0  0
   18.2622   -7.3056   18.5828 C   0  0  0  0  0  0  0  0  0  0  0  0
   17.1187   -8.0763   18.3133 C   0  0  0  0  0  0  0  0  0  0  0  0
   16.2663   -8.5096   19.3314 C   0  0  0  0  0  0  0  0  0  0  0  0
   16.5857   -8.1591   20.6511 C   0  0  0  0  0  0  0  0  0  0  0  0
   17.7110   -7.3931   20.9382 C   0  0  0  0  0  0  0  0  0  0  0  0
   18.5489   -6.9731   19.9145 C   0  0  0  0  0  0  0  0  0  0  0  0
   15.0933   -9.3132   18.9626 C   0  0  0  0  0  0  0  0  0  0  0  0
   14.2458   -9.8691   19.8496 C   0  0  0  0  0  0  0  0  0  0  0  0
    9.8866   -9.0678   20.1034 C   0  0  0  0  0  0  0  0  0  0  0  0
   10.8805  -11.2595   15.0682 O   0  0  0  0  0  0  0  0  0  0  0  0
   17.6690   -4.8080   16.7634 O   0  0  0  0  0  0  0  0  0  0  0  0
    9.8098   -9.6886   18.8272 O   0  0  0  0  0  0  0  0  0  0  0  0
   18.5645   -6.8448   16.1875 O   0  0  0  0  0  0  0  0  0  0  0  0
   10.0041   -9.4405   16.1271 N   0  0  0  0  0  0  0  0  0  0  0  0
   10.2178   -8.5501   14.9981 C   0  0  2  0  0  0  0  0  0  0  0  0
   11.5951   -7.8766   15.1529 C   0  0  0  0  0  0  0  0  0  0  0  0
   11.8591   -7.0831   16.0531 O   0  0  0  0  0  0  0  0  0  0  0  0
    9.1114   -7.4920   14.8848 C   0  0  0  0  0  0  0  0  0  0  0  0
    9.3337   -6.6296   13.6359 C   0  0  0  0  0  0  0  0  0  0  0  0
    7.7348   -8.1584   14.7947 C   0  0  0  0  0  0  0  0  0  0  0  0
   12.5177   -8.2960   14.2224 N   0  0  0  0  0  0  0  0  0  0  0  0
   13.8830   -7.7875   14.2163 C   0  0  1  0  0  0  0  0  0  0  0  0
   14.8564   -8.8310   13.6412 C   0  0  0  0  0  0  0  0  0  0  0  0
   15.1474   -9.9916   14.5654 C   0  0  0  0  0  0  0  0  0  0  0  0
   14.1840  -10.9773   14.8184 C   0  0  0  0  0  0  0  0  0  0  0  0
   14.4614  -12.0533   15.6643 C   0  0  0  0  0  0  0  0  0  0  0  0
   16.4065  -10.1162   15.1651 C   0  0  0  0  0  0  0  0  0  0  0  0
   16.6738  -11.1926   16.0097 C   0  0  0  0  0  0  0  0  0  0  0  0
   15.7070  -12.1537   16.2743 C   0  0  0  0  0  0  0  0  0  0  0  0
   17.8914  -11.3353   16.6048 O   0  0  0  0  0  0  0  0  0  0  0  0
   13.9756   -6.5291   13.3203 C   0  0  0  0  0  0  0  0  0  0  0  0
   13.3297   -6.4369   12.2712 O   0  0  0  0  0  0  0  0  0  0  0  0
   15.4583   -4.9070   15.5091 H   0  0  0  0  0  0  0  0  0  0  0  0
   18.6275   -4.7140   13.5340 H   0  0  0  0  0  0  0  0  0  0  0  0
   17.4987   -3.6635   14.3780 H   0  0  0  0  0  0  0  0  0  0  0  0
   15.0125   -3.5034   13.4732 H   0  0  0  0  0  0  0  0  0  0  0  0
   14.6264   -4.3760   11.9798 H   0  0  0  0  0  0  0  0  0  0  0  0
   17.3349   -6.7276   14.1215 H   0  0  0  0  0  0  0  0  0  0  0  0
   16.9090   -5.3248   11.8859 H   0  0  0  0  0  0  0  0  0  0  0  0
   17.0209   -3.5613   11.9689 H   0  0  0  0  0  0  0  0  0  0  0  0
   10.9086  -12.4351   17.2647 H   0  0  0  0  0  0  0  0  0  0  0  0
    8.5361  -12.5665   16.5506 H   0  0  0  0  0  0  0  0  0  0  0  0
    8.1198  -11.1841   17.5633 H   0  0  0  0  0  0  0  0  0  0  0  0
    8.6812  -12.6945   18.3115 H   0  0  0  0  0  0  0  0  0  0  0  0
   10.6567  -11.4615   19.4726 H   0  0  0  0  0  0  0  0  0  0  0  0
   12.1771   -9.1691   18.3269 H   0  0  0  0  0  0  0  0  0  0  0  0
   12.6062  -10.6574   17.4983 H   0  0  0  0  0  0  0  0  0  0  0  0
   13.4204  -11.7525   19.3617 H   0  0  0  0  0  0  0  0  0  0  0  0
   12.4892  -10.7797   20.4873 H   0  0  0  0  0  0  0  0  0  0  0  0
   20.0380   -7.5471   17.4290 H   0  0  0  0  0  0  0  0  0  0  0  0
   19.6001   -5.8607   17.7053 H   0  0  0  0  0  0  0  0  0  0  0  0
   16.8801   -8.3304   17.2857 H   0  0  0  0  0  0  0  0  0  0  0  0
   15.9621   -8.4647   21.4836 H   0  0  0  0  0  0  0  0  0  0  0  0
   17.9294   -7.1248   21.9710 H   0  0  0  0  0  0  0  0  0  0  0  0
   19.4215   -6.3723   20.1562 H   0  0  0  0  0  0  0  0  0  0  0  0
   14.9316   -9.4808   17.8991 H   0  0  0  0  0  0  0  0  0  0  0  0
   14.4082   -9.7089   20.9154 H   0  0  0  0  0  0  0  0  0  0  0  0
    9.1476   -8.2610   20.1190 H   0  0  0  0  0  0  0  0  0  0  0  0
   10.8719   -8.6284   20.2773 H   0  0  0  0  0  0  0  0  0  0  0  0
    9.6354   -9.7761   20.8982 H   0  0  0  0  0  0  0  0  0  0  0  0
    9.7976   -9.0367   17.0437 H   0  0  0  0  0  0  0  0  0  0  0  0
   10.2199   -9.1600   14.0875 H   0  0  0  0  0  0  0  0  0  0  0  0
    9.1223   -6.8400   15.7676 H   0  0  0  0  0  0  0  0  0  0  0  0
    8.5282   -5.9046   13.5140 H   0  0  0  0  0  0  0  0  0  0  0  0
    9.3735   -7.2543   12.7353 H   0  0  0  0  0  0  0  0  0  0  0  0
   10.2759   -6.0743   13.6979 H   0  0  0  0  0  0  0  0  0  0  0  0
    7.5296   -8.7740   15.6768 H   0  0  0  0  0  0  0  0  0  0  0  0
    7.6703   -8.8027   13.9108 H   0  0  0  0  0  0  0  0  0  0  0  0
    6.9467   -7.4047   14.7278 H   0  0  0  0  0  0  0  0  0  0  0  0
   12.2171   -8.8696   13.4440 H   0  0  0  0  0  0  0  0  0  0  0  0
   14.1432   -7.5438   15.2507 H   0  0  0  0  0  0  0  0  0  0  0  0
   15.8047   -8.3494   13.3742 H   0  0  0  0  0  0  0  0  0  0  0  0
   14.4658   -9.2315   12.6959 H   0  0  0  0  0  0  0  0  0  0  0  0
   13.2004  -10.9216   14.3593 H   0  0  0  0  0  0  0  0  0  0  0  0
   13.7001  -12.8088   15.8432 H   0  0  0  0  0  0  0  0  0  0  0  0
   17.1696   -9.3687   14.9741 H   0  0  0  0  0  0  0  0  0  0  0  0
   15.9238  -12.9753   16.9499 H   0  0  0  0  0  0  0  0  0  0  0  0
   18.4600  -10.6008   16.3243 H   0  0  0  0  0  0  0  0  0  0  0  0
  1  2  1  0  0  0  0
  1  5  1  0  0  0  0
  1 47  1  0  0  0  0
  2  4  1  0  0  0  0
  2 45  1  0  0  0  0
  3  5  1  0  0  0  0
  3  6  1  0  0  0  0
  3 48  1  0  0  0  0
  3 49  1  0  0  0  0
  4  6  1  0  0  0  0
  4 50  1  0  0  0  0
  4 51  1  0  0  0  0
  5 13  1  0  0  0  0
  5 52  1  6  0  0  0
  6 53  1  0  0  0  0
  6 54  1  0  0  0  0
  7  8  1  0  0  0  0
  7 24  2  0  0  0  0
  7 28  1  0  0  0  0
  8  9  1  0  0  0  0
  8 10  1  0  0  0  0
  8 55  1  6  0  0  0
  9 56  1  0  0  0  0
  9 57  1  0  0  0  0
  9 58  1  0  0  0  0
 10 11  1  0  0  0  0
 10 26  1  0  0  0  0
 10 59  1  1  0  0  0
 11 12  1  0  0  0  0
 11 60  1  0  0  0  0
 11 61  1  0  0  0  0
 12 22  1  0  0  0  0
 12 62  1  0  0  0  0
 12 63  1  0  0  0  0
 13 25  2  0  0  0  0
 13 27  1  0  0  0  0
 14 15  1  0  0  0  0
 14 27  1  0  0  0  0
 14 64  1  0  0  0  0
 14 65  1  0  0  0  0
 15 16  2  0  0  0  0
 15 20  1  0  0  0  0
 16 17  1  0  0  0  0
 16 66  1  0  0  0  0
 17 18  2  0  0  0  0
 17 21  1  0  0  0  0
 18 19  1  0  0  0  0
 18 67  1  0  0  0  0
 19 20  2  0  0  0  0
 19 68  1  0  0  0  0
 20 69  1  0  0  0  0
 21 22  2  0  0  0  0
 21 70  1  0  0  0  0
 22 71  1  0  0  0  0
 23 26  1  0  0  0  0
 23 72  1  0  0  0  0
 23 73  1  0  0  0  0
 23 74  1  0  0  0  0
 28 29  1  0  0  0  0
 28 75  1  0  0  0  0
 29 30  1  0  0  0  0
 29 32  1  0  0  0  0
 29 76  1  6  0  0  0
 30 31  2  0  0  0  0
 30 35  1  0  0  0  0
 32 33  1  0  0  0  0
 32 34  1  0  0  0  0
 32 77  1  0  0  0  0
 33 78  1  0  0  0  0
 33 79  1  0  0  0  0
 33 80  1  0  0  0  0
 34 81  1  0  0  0  0
 34 82  1  0  0  0  0
 34 83  1  0  0  0  0
 35 36  1  0  0  0  0
 35 84  1  0  0  0  0
 36 37  1  0  0  0  0
 36 45  1  0  0  0  0
 36 85  1  1  0  0  0
 37 38  1  0  0  0  0
 37 86  1  0  0  0  0
 37 87  1  0  0  0  0
 38 39  2  0  0  0  0
 38 41  1  0  0  0  0
 39 40  1  0  0  0  0
 39 88  1  0  0  0  0
 40 43  2  0  0  0  0
 40 89  1  0  0  0  0
 41 42  2  0  0  0  0
 41 90  1  0  0  0  0
 42 43  1  0  0  0  0
 42 44  1  0  0  0  0
 43 91  1  0  0  0  0
 44 92  1  0  0  0  0
 45 46  2  0  0  0  0
M  END
$$$$
