78X
 OpenBabel04161911513D

 95 98  0  0  1  0  0  0  0  0999 V2000
   14.9272   -5.4647   13.6319 N   0  0  0  0  0  0  0  0  0  0  0  0
   15.6370   -5.6419   14.8259 N   0  0  0  0  0  0  0  0  0  0  0  0
   17.5590   -4.5086   13.7627 C   0  0  0  0  0  0  0  0  0  0  0  0
   16.6989   -4.3027   12.5126 C   0  0  0  0  0  0  0  0  0  0  0  0
   15.2257   -4.2412   12.8935 C   0  0  0  0  0  0  0  0  0  0  0  0
   17.0898   -5.6919   14.6135 C   0  0  1  0  0  0  0  0  0  0  0  0
   10.4937  -10.6450   16.1695 C   0  0  0  0  0  0  0  0  0  0  0  0
   10.3050  -11.4315   17.4854 C   0  0  2  0  0  0  0  0  0  0  0  0
    8.8530  -11.8997   17.5816 C   0  0  0  0  0  0  0  0  0  0  0  0
   10.7257  -10.6419   18.7501 C   0  0  1  0  0  0  0  0  0  0  0  0
   12.0986   -9.9758   18.6037 C   0  0  0  0  0  0  0  0  0  0  0  0
   13.2729  -10.8198   19.0576 C   0  0  0  0  0  0  0  0  0  0  0  0
   17.7288   -5.6101   15.9910 C   0  0  0  0  0  0  0  0  0  0  0  0
   19.3089   -6.6014   17.4442 C   0  0  1  0  0  0  0  0  0  0  0  0
   18.4016   -7.1969   18.5085 C   0  0  0  0  0  0  0  0  0  0  0  0
   17.3042   -8.0083   18.1542 C   0  0  0  0  0  0  0  0  0  0  0  0
   16.4322   -8.5382   19.1130 C   0  0  0  0  0  0  0  0  0  0  0  0
   16.6802   -8.2413   20.4562 C   0  0  0  0  0  0  0  0  0  0  0  0
   17.7553   -7.4379   20.8341 C   0  0  0  0  0  0  0  0  0  0  0  0
   18.6140   -6.9172   19.8660 C   0  0  0  0  0  0  0  0  0  0  0  0
   15.3026   -9.3863   18.6936 C   0  0  0  0  0  0  0  0  0  0  0  0
   14.4144   -9.9556   19.5244 C   0  0  0  0  0  0  0  0  0  0  0  0
    9.9112   -8.9214   20.2165 C   0  0  0  0  0  0  0  0  0  0  0  0
   20.6059   -7.3823   17.2499 C   0  0  0  0  0  0  0  0  0  0  0  0
   10.9122  -11.1994   15.1531 O   0  0  0  0  0  0  0  0  0  0  0  0
   17.4289   -4.7441   16.8332 O   0  0  0  0  0  0  0  0  0  0  0  0
    9.7200   -9.6330   18.9977 O   0  0  0  0  0  0  0  0  0  0  0  0
   18.6560   -6.5780   16.1578 O   0  0  0  0  0  0  0  0  0  0  0  0
   12.5795   -8.1845   14.1600 N   0  0  0  0  0  0  0  0  0  0  0  0
   13.9561   -7.7071   14.1259 C   0  0  1  0  0  0  0  0  0  0  0  0
   14.9122   -8.7774   13.5650 C   0  0  0  0  0  0  0  0  0  0  0  0
   15.1918   -9.9479   14.4803 C   0  0  0  0  0  0  0  0  0  0  0  0
   14.1648  -10.8282   14.8426 C   0  0  0  0  0  0  0  0  0  0  0  0
   14.4098  -11.9165   15.6796 C   0  0  0  0  0  0  0  0  0  0  0  0
   16.4836  -10.1966   14.9587 C   0  0  0  0  0  0  0  0  0  0  0  0
   16.7241  -11.2916   15.7900 C   0  0  0  0  0  0  0  0  0  0  0  0
   15.6965  -12.1540   16.1584 C   0  0  0  0  0  0  0  0  0  0  0  0
   17.9755  -11.5350   16.2668 O   0  0  0  0  0  0  0  0  0  0  0  0
   14.0403   -6.4611   13.2060 C   0  0  0  0  0  0  0  0  0  0  0  0
   13.4333   -6.3945   12.1529 O   0  0  0  0  0  0  0  0  0  0  0  0
   10.1079   -9.3218   16.1584 N   0  0  0  0  0  0  0  0  0  0  0  0
   10.2869   -8.4421   15.0037 C   0  0  2  0  0  0  0  0  0  0  0  0
   11.6727   -7.7690   15.1182 C   0  0  0  0  0  0  0  0  0  0  0  0
   11.9573   -6.9910   16.0110 O   0  0  0  0  0  0  0  0  0  0  0  0
    9.1788   -7.3725   14.8974 C   0  0  0  0  0  0  0  0  0  0  0  0
    9.3722   -6.5597   13.6162 C   0  0  0  0  0  0  0  0  0  0  0  0
    7.7801   -7.9905   14.8589 C   0  0  0  0  0  0  0  0  0  0  0  0
   15.4108   -4.8584   15.4473 H   0  0  0  0  0  0  0  0  0  0  0  0
   17.5257   -3.5951   14.3693 H   0  0  0  0  0  0  0  0  0  0  0  0
   18.5990   -4.6769   13.4637 H   0  0  0  0  0  0  0  0  0  0  0  0
   16.8518   -5.1452   11.8281 H   0  0  0  0  0  0  0  0  0  0  0  0
   16.9984   -3.3801   12.0060 H   0  0  0  0  0  0  0  0  0  0  0  0
   15.0427   -3.3797   13.5537 H   0  0  0  0  0  0  0  0  0  0  0  0
   14.5931   -4.1368   12.0072 H   0  0  0  0  0  0  0  0  0  0  0  0
   17.3614   -6.6404   14.1308 H   0  0  0  0  0  0  0  0  0  0  0  0
   10.9423  -12.3258   17.4227 H   0  0  0  0  0  0  0  0  0  0  0  0
    8.5660  -12.4642   16.6857 H   0  0  0  0  0  0  0  0  0  0  0  0
    8.1747  -11.0460   17.6689 H   0  0  0  0  0  0  0  0  0  0  0  0
    8.7090  -12.5480   18.4546 H   0  0  0  0  0  0  0  0  0  0  0  0
   10.7339  -11.3347   19.6064 H   0  0  0  0  0  0  0  0  0  0  0  0
   12.1277   -9.0506   19.1647 H   0  0  0  0  0  0  0  0  0  0  0  0
   12.2561   -9.6789   17.5681 H   0  0  0  0  0  0  0  0  0  0  0  0
   13.6039  -11.4495   18.2334 H   0  0  0  0  0  0  0  0  0  0  0  0
   12.9720  -11.4779   19.8784 H   0  0  0  0  0  0  0  0  0  0  0  0
   19.5829   -5.5768   17.7289 H   0  0  0  0  0  0  0  0  0  0  0  0
   17.1261   -8.2204   17.1049 H   0  0  0  0  0  0  0  0  0  0  0  0
   16.0313   -8.6380   21.2292 H   0  0  0  0  0  0  0  0  0  0  0  0
   17.9153   -7.2243   21.8878 H   0  0  0  0  0  0  0  0  0  0  0  0
   19.4463   -6.2928   20.1805 H   0  0  0  0  0  0  0  0  0  0  0  0
   15.1828   -9.5518   17.6265 H   0  0  0  0  0  0  0  0  0  0  0  0
   14.4907   -9.7976   20.5952 H   0  0  0  0  0  0  0  0  0  0  0  0
    9.1270   -8.1713   20.3155 H   0  0  0  0  0  0  0  0  0  0  0  0
   10.8534   -8.3769   20.2272 H   0  0  0  0  0  0  0  0  0  0  0  0
    9.8825   -9.6043   21.0673 H   0  0  0  0  0  0  0  0  0  0  0  0
   21.2165   -6.9189   16.4607 H   0  0  0  0  0  0  0  0  0  0  0  0
   20.4046   -8.4148   16.9357 H   0  0  0  0  0  0  0  0  0  0  0  0
   21.2011   -7.4076   18.1691 H   0  0  0  0  0  0  0  0  0  0  0  0
   12.2765   -8.8251   13.4335 H   0  0  0  0  0  0  0  0  0  0  0  0
   14.2485   -7.4514   15.1492 H   0  0  0  0  0  0  0  0  0  0  0  0
   15.8681   -8.3044   13.3128 H   0  0  0  0  0  0  0  0  0  0  0  0
   14.4898   -9.1734   12.6320 H   0  0  0  0  0  0  0  0  0  0  0  0
   13.1584  -10.6694   14.4718 H   0  0  0  0  0  0  0  0  0  0  0  0
   13.5908  -12.5731   15.9653 H   0  0  0  0  0  0  0  0  0  0  0  0
   17.3036   -9.5375   14.6911 H   0  0  0  0  0  0  0  0  0  0  0  0
   15.8913  -12.9976   16.8097 H   0  0  0  0  0  0  0  0  0  0  0  0
   18.5740  -10.8395   15.9184 H   0  0  0  0  0  0  0  0  0  0  0  0
    9.7916   -8.9090   17.0331 H   0  0  0  0  0  0  0  0  0  0  0  0
   10.2636   -9.0447   14.0885 H   0  0  0  0  0  0  0  0  0  0  0  0
    9.2252   -6.6920   15.7573 H   0  0  0  0  0  0  0  0  0  0  0  0
    8.5821   -5.8090   13.5064 H   0  0  0  0  0  0  0  0  0  0  0  0
    9.3480   -7.2168   12.7390 H   0  0  0  0  0  0  0  0  0  0  0  0
   10.3354   -6.0431   13.6328 H   0  0  0  0  0  0  0  0  0  0  0  0
    7.5887   -8.5742   15.7636 H   0  0  0  0  0  0  0  0  0  0  0  0
    7.6685   -8.6486   13.9895 H   0  0  0  0  0  0  0  0  0  0  0  0
    7.0127   -7.2086   14.7923 H   0  0  0  0  0  0  0  0  0  0  0  0
  1  2  1  0  0  0  0
  1  5  1  0  0  0  0
  1 39  1  0  0  0  0
  2  6  1  0  0  0  0
  2 48  1  0  0  0  0
  3  4  1  0  0  0  0
  3  6  1  0  0  0  0
  3 49  1  0  0  0  0
  3 50  1  0  0  0  0
  4  5  1  0  0  0  0
  4 51  1  0  0  0  0
  4 52  1  0  0  0  0
  5 53  1  0  0  0  0
  5 54  1  0  0  0  0
  6 13  1  0  0  0  0
  6 55  1  6  0  0  0
  7  8  1  0  0  0  0
  7 25  2  0  0  0  0
  7 41  1  0  0  0  0
  8  9  1  0  0  0  0
  8 10  1  0  0  0  0
  8 56  1  6  0  0  0
  9 57  1  0  0  0  0
  9 58  1  0  0  0  0
  9 59  1  0  0  0  0
 10 11  1  0  0  0  0
 10 27  1  0  0  0  0
 10 60  1  1  0  0  0
 11 12  1  0  0  0  0
 11 61  1  0  0  0  0
 11 62  1  0  0  0  0
 12 22  1  0  0  0  0
 12 63  1  0  0  0  0
 12 64  1  0  0  0  0
 13 26  2  0  0  0  0
 13 28  1  0  0  0  0
 14 15  1  0  0  0  0
 14 24  1  0  0  0  0
 14 28  1  0  0  0  0
 14 65  1  1  0  0  0
 15 16  2  0  0  0  0
 15 20  1  0  0  0  0
 16 17  1  0  0  0  0
 16 66  1  0  0  0  0
 17 18  2  0  0  0  0
 17 21  1  0  0  0  0
 18 19  1  0  0  0  0
 18 67  1  0  0  0  0
 19 20  2  0  0  0  0
 19 68  1  0  0  0  0
 20 69  1  0  0  0  0
 21 22  2  0  0  0  0
 21 70  1  0  0  0  0
 22 71  1  0  0  0  0
 23 27  1  0  0  0  0
 23 72  1  0  0  0  0
 23 73  1  0  0  0  0
 23 74  1  0  0  0  0
 24 75  1  0  0  0  0
 24 76  1  0  0  0  0
 24 77  1  0  0  0  0
 29 30  1  0  0  0  0
 29 43  1  0  0  0  0
 29 78  1  0  0  0  0
 30 31  1  0  0  0  0
 30 39  1  0  0  0  0
 30 79  1  1  0  0  0
 31 32  1  0  0  0  0
 31 80  1  0  0  0  0
 31 81  1  0  0  0  0
 32 33  2  0  0  0  0
 32 35  1  0  0  0  0
 33 34  1  0  0  0  0
 33 82  1  0  0  0  0
 34 37  2  0  0  0  0
 34 83  1  0  0  0  0
 35 36  2  0  0  0  0
 35 84  1  0  0  0  0
 36 37  1  0  0  0  0
 36 38  1  0  0  0  0
 37 85  1  0  0  0  0
 38 86  1  0  0  0  0
 39 40  2  0  0  0  0
 41 42  1  0  0  0  0
 41 87  1  0  0  0  0
 42 43  1  0  0  0  0
 42 45  1  0  0  0  0
 42 88  1  6  0  0  0
 43 44  2  0  0  0  0
 45 46  1  0  0  0  0
 45 47  1  0  0  0  0
 45 89  1  0  0  0  0
 46 90  1  0  0  0  0
 46 91  1  0  0  0  0
 46 92  1  0  0  0  0
 47 93  1  0  0  0  0
 47 94  1  0  0  0  0
 47 95  1  0  0  0  0
M  END
$$$$
