78Y
 OpenBabel04161911063D

 25 26  0  0  0  0  0  0  0  0999 V2000
  -10.8795   17.7864   80.0357 C   0  0  0  0  0  0  0  0  0  0  0  0
  -11.7952   16.7385   80.1645 C   0  0  0  0  0  0  0  0  0  0  0  0
  -12.1926   16.3257   81.4364 C   0  0  0  0  0  0  0  0  0  0  0  0
   -9.6506   19.2783   78.5917 N   0  0  0  0  0  0  0  0  0  0  0  0
  -11.6764   16.9501   82.5696 C   0  0  0  0  0  0  0  0  0  0  0  0
  -10.7403   17.9729   82.4388 C   0  0  0  0  0  0  0  0  0  0  0  0
  -10.5536   18.2813   78.7558 N   0  0  0  0  0  0  0  0  0  0  0  0
  -10.3264   18.3829   81.1729 C   0  0  0  0  0  0  0  0  0  0  0  0
  -11.1751   17.8343   77.6331 N   0  0  0  0  0  0  0  0  0  0  0  0
   -8.8296   20.6325   75.3769 O   0  0  0  0  0  0  0  0  0  0  0  0
   -8.8484   20.4348   76.5859 C   0  0  0  0  0  0  0  0  0  0  0  0
   -8.0152   21.1462   77.4055 N   0  0  0  0  0  0  0  0  0  0  0  0
   -9.6932   19.4755   77.2621 C   0  0  0  0  0  0  0  0  0  0  0  0
  -10.6345   18.6006   76.6837 C   0  0  0  0  0  0  0  0  0  0  0  0
  -11.0252   18.4414   75.2721 C   0  0  0  0  0  0  0  0  0  0  0  0
  -12.2098   16.2512   79.2891 H   0  0  0  0  0  0  0  0  0  0  0  0
  -12.9137   15.5215   81.5437 H   0  0  0  0  0  0  0  0  0  0  0  0
  -11.9999   16.6340   83.5571 H   0  0  0  0  0  0  0  0  0  0  0  0
  -10.3383   18.4539   83.3247 H   0  0  0  0  0  0  0  0  0  0  0  0
   -9.5969   19.1826   81.0840 H   0  0  0  0  0  0  0  0  0  0  0  0
   -8.0417   20.9777   78.4046 H   0  0  0  0  0  0  0  0  0  0  0  0
   -7.3796   21.8151   77.0017 H   0  0  0  0  0  0  0  0  0  0  0  0
  -10.4912   19.1421   74.6282 H   0  0  0  0  0  0  0  0  0  0  0  0
  -12.0976   18.6226   75.1515 H   0  0  0  0  0  0  0  0  0  0  0  0
  -10.7980   17.4270   74.9301 H   0  0  0  0  0  0  0  0  0  0  0  0
  1  2  2  0  0  0  0
  1  7  1  0  0  0  0
  1  8  1  0  0  0  0
  2  3  1  0  0  0  0
  2 16  1  0  0  0  0
  3  5  2  0  0  0  0
  3 17  1  0  0  0  0
  4  7  1  0  0  0  0
  4 13  2  0  0  0  0
  5  6  1  0  0  0  0
  5 18  1  0  0  0  0
  6  8  2  0  0  0  0
  6 19  1  0  0  0  0
  7  9  1  0  0  0  0
  8 20  1  0  0  0  0
  9 14  2  0  0  0  0
 10 11  2  0  0  0  0
 11 12  1  0  0  0  0
 11 13  1  0  0  0  0
 12 21  1  0  0  0  0
 12 22  1  0  0  0  0
 13 14  1  0  0  0  0
 14 15  1  0  0  0  0
 15 23  1  0  0  0  0
 15 24  1  0  0  0  0
 15 25  1  0  0  0  0
M  END
$$$$
