79E
 OpenBabel04161911063D

 54 54  0  0  1  0  0  0  0  0999 V2000
   11.9793   42.1532   -8.9446 O   0  0  0  0  0  0  0  0  0  0  0  0
    8.1375   41.8660   -4.2887 C   0  0  0  0  0  0  0  0  0  0  0  0
    8.8988   39.5401   -3.9597 C   0  0  0  0  0  0  0  0  0  0  0  0
   13.2996   40.7081  -10.1084 O   0  0  0  0  0  0  0  0  0  0  0  0
   10.1400   38.6701   -3.6900 C   0  0  1  0  0  0  0  0  0  0  0  0
   11.3230   39.1280   -4.4396 N   0  0  0  0  0  0  0  0  0  0  0  0
   10.5128   38.7506   -2.1972 C   0  0  0  0  0  0  0  0  0  0  0  0
    9.4325   38.2404   -1.2289 C   0  0  0  0  0  0  0  0  0  0  0  0
   12.6138   40.1143   -8.0919 N   0  0  0  0  0  0  0  0  0  0  0  0
    9.8112   38.6130    0.2049 C   0  0  0  0  0  0  0  0  0  0  0  0
    9.5742   42.9229   -5.9418 O   0  0  0  0  0  0  0  0  0  0  0  0
    9.2360   36.7313   -1.3539 C   0  0  0  0  0  0  0  0  0  0  0  0
   11.9699   40.2930   -6.8122 C   0  0  0  0  0  0  0  0  0  0  0  0
   12.5556   41.0703   -9.0467 C   0  0  0  0  0  0  0  0  0  0  0  0
    7.3684   43.3846   -6.0386 N   0  0  0  0  0  0  0  0  0  0  0  0
   13.6683   41.7926  -10.9562 C   0  0  0  0  0  0  0  0  0  0  0  0
   15.0247   41.4142  -11.4821 C   0  0  0  0  0  0  0  0  0  0  0  0
   15.1493   40.7745  -12.7194 C   0  0  0  0  0  0  0  0  0  0  0  0
    8.4437   42.7252   -5.5097 C   0  0  0  0  0  0  0  0  0  0  0  0
    9.1750   40.8894   -4.0668 N   0  0  0  0  0  0  0  0  0  0  0  0
    7.7434   39.1202   -3.8710 O   0  0  0  0  0  0  0  0  0  0  0  0
   11.4902   38.6831   -6.0906 P   0  0  2  0  0  0  0  0  0  0  0  0
   10.1159   38.2899   -6.5792 O   0  0  0  0  0  0  0  0  0  0  0  0
   12.6784   37.7639   -6.1643 O   0  0  0  0  0  0  0  0  0  0  0  0
   16.1589   41.5784  -10.6730 C   0  0  0  0  0  0  0  0  0  0  0  0
   17.4020   41.1200  -11.1050 C   0  0  0  0  0  0  0  0  0  0  0  0
   17.5169   40.4844  -12.3400 C   0  0  0  0  0  0  0  0  0  0  0  0
   16.3924   40.3115  -13.1466 C   0  0  0  0  0  0  0  0  0  0  0  0
    7.1555   41.3941   -4.3969 H   0  0  0  0  0  0  0  0  0  0  0  0
    8.1212   42.5238   -3.4147 H   0  0  0  0  0  0  0  0  0  0  0  0
    9.9102   37.6433   -3.9882 H   0  0  0  0  0  0  0  0  0  0  0  0
   12.0413   39.6919   -4.0014 H   0  0  0  0  0  0  0  0  0  0  0  0
   10.7503   39.7936   -1.9429 H   0  0  0  0  0  0  0  0  0  0  0  0
   11.4389   38.1834   -2.0305 H   0  0  0  0  0  0  0  0  0  0  0  0
    8.4781   38.7324   -1.4449 H   0  0  0  0  0  0  0  0  0  0  0  0
   13.1652   39.2689   -8.2254 H   0  0  0  0  0  0  0  0  0  0  0  0
    9.0580   38.2531    0.9130 H   0  0  0  0  0  0  0  0  0  0  0  0
    9.8757   39.7017    0.3125 H   0  0  0  0  0  0  0  0  0  0  0  0
   10.7802   38.1876    0.4863 H   0  0  0  0  0  0  0  0  0  0  0  0
    8.9592   36.4482   -2.3734 H   0  0  0  0  0  0  0  0  0  0  0  0
    8.4329   36.3916   -0.6922 H   0  0  0  0  0  0  0  0  0  0  0  0
   10.1493   36.1890   -1.0871 H   0  0  0  0  0  0  0  0  0  0  0  0
   11.0906   40.9284   -6.9151 H   0  0  0  0  0  0  0  0  0  0  0  0
   12.6932   40.7824   -6.1507 H   0  0  0  0  0  0  0  0  0  0  0  0
    7.5246   43.9105   -6.8881 H   0  0  0  0  0  0  0  0  0  0  0  0
    6.4246   43.2403   -5.7105 H   0  0  0  0  0  0  0  0  0  0  0  0
   13.7405   42.7514  -10.4235 H   0  0  0  0  0  0  0  0  0  0  0  0
   12.9430   41.9072  -11.7718 H   0  0  0  0  0  0  0  0  0  0  0  0
   14.2699   40.6073  -13.3368 H   0  0  0  0  0  0  0  0  0  0  0  0
   10.1302   41.1198   -4.3241 H   0  0  0  0  0  0  0  0  0  0  0  0
   16.0655   42.0328   -9.6885 H   0  0  0  0  0  0  0  0  0  0  0  0
   18.2732   41.2408  -10.4676 H   0  0  0  0  0  0  0  0  0  0  0  0
   18.4819   40.1107  -12.6691 H   0  0  0  0  0  0  0  0  0  0  0  0
   16.4767   39.7986  -14.0997 H   0  0  0  0  0  0  0  0  0  0  0  0
  1 14  2  0  0  0  0
  2 19  1  0  0  0  0
  2 20  1  0  0  0  0
  2 29  1  0  0  0  0
  2 30  1  0  0  0  0
  3  5  1  0  0  0  0
  3 20  1  0  0  0  0
  3 21  2  0  0  0  0
  4 14  1  0  0  0  0
  4 16  1  0  0  0  0
  5  6  1  0  0  0  0
  5  7  1  0  0  0  0
  5 31  1  6  0  0  0
  6 32  1  0  0  0  0
  7  8  1  0  0  0  0
  7 33  1  0  0  0  0
  7 34  1  0  0  0  0
  8 10  1  0  0  0  0
  8 12  1  0  0  0  0
  8 35  1  0  0  0  0
  9 13  1  0  0  0  0
  9 14  1  0  0  0  0
  9 36  1  0  0  0  0
 10 37  1  0  0  0  0
 10 38  1  0  0  0  0
 10 39  1  0  0  0  0
 11 19  2  0  0  0  0
 12 40  1  0  0  0  0
 12 41  1  0  0  0  0
 12 42  1  0  0  0  0
 13 22  1  0  0  0  0
 13 43  1  0  0  0  0
 13 44  1  0  0  0  0
 15 19  1  0  0  0  0
 15 45  1  0  0  0  0
 15 46  1  0  0  0  0
 16 17  1  0  0  0  0
 16 47  1  0  0  0  0
 16 48  1  0  0  0  0
 17 18  2  0  0  0  0
 17 25  1  0  0  0  0
 18 28  1  0  0  0  0
 18 49  1  0  0  0  0
 20 50  1  0  0  0  0
 22  6  1  1  0  0  0
 22 23  2  0  0  0  0
 22 24  1  0  0  0  0
 25 26  2  0  0  0  0
 25 51  1  0  0  0  0
 26 27  1  0  0  0  0
 26 52  1  0  0  0  0
 27 28  2  0  0  0  0
 27 53  1  0  0  0  0
 28 54  1  0  0  0  0
M  END
$$$$
