79T
 OpenBabel04161911073D

 58 62  0  0  1  0  0  0  0  0999 V2000
   40.9214   23.1446   53.7562 C   0  0  0  0  0  0  0  0  0  0  0  0
   37.1804   22.6964   55.4550 C   0  0  0  0  0  0  0  0  0  0  0  0
   37.5236   21.6051   56.2429 C   0  0  0  0  0  0  0  0  0  0  0  0
   38.8475   21.3026   56.0189 N   0  3  0  0  0  0  0  0  0  0  0  0
   38.9552   25.5578   52.1782 C   0  0  0  0  0  0  0  0  0  0  0  0
   38.7579   26.5792   51.1925 C   0  0  0  0  0  0  0  0  0  0  0  0
   38.0105   24.9840   53.0375 N   0  3  0  0  0  0  0  0  0  0  0  0
   39.5950   27.6391   50.8620 C   0  0  0  0  0  0  0  0  0  0  0  0
   38.9652   28.3814   49.8294 C   0  0  0  0  0  0  0  0  0  0  0  0
   37.7926   27.7267   49.5685 C   0  0  0  0  0  0  0  0  0  0  0  0
   36.6849   27.9256   48.6282 C   0  0  0  0  0  0  0  0  0  0  0  0
   40.1474   25.0287   52.3499 N   0  0  0  0  0  0  0  0  0  0  0  0
   36.6091   29.2525   47.9331 C   0  0  2  0  0  0  0  0  0  0  0  0
   36.5338   30.5525   48.6824 C   0  0  0  0  0  0  0  0  0  0  0  0
   37.2483   32.9083   48.6124 C   0  0  0  0  0  0  0  0  0  0  0  0
   37.1945   31.6087   47.9699 N   0  0  0  0  0  0  0  0  0  0  0  0
   35.3127   29.0031   45.6689 N   0  0  0  0  0  0  0  0  0  0  0  0
   35.7488   29.1661   46.7555 C   0  0  0  0  0  0  0  0  0  0  0  0
   36.0307   30.6713   49.8096 O   0  0  0  0  0  0  0  0  0  0  0  0
   37.9622   31.4771   46.7340 C   0  0  0  0  0  0  0  0  0  0  0  0
   37.6808   26.6230   50.3516 O   0  0  0  0  0  0  0  0  0  0  0  0
   39.9735   24.0467   53.2736 C   0  0  0  0  0  0  0  0  0  0  0  0
   40.6275   22.1757   54.6588 N   0  0  0  0  0  0  0  0  0  0  0  0
   38.6717   23.9960   53.7405 C   0  0  0  0  0  0  0  0  0  0  0  0
   38.3478   23.0486   54.7010 C   0  0  0  0  0  0  0  0  0  0  0  0
   39.3571   22.1704   55.1044 C   0  0  0  0  0  0  0  0  0  0  0  0
   36.6141   25.4081   53.0871 C   0  0  0  0  0  0  0  0  0  0  0  0
   36.2353   26.0045   54.4424 C   0  0  0  0  0  0  0  0  0  0  0  0
   34.7571   26.4006   54.4844 C   0  0  0  0  0  0  0  0  0  0  0  0
   33.8534   25.2441   54.0924 C   0  0  0  0  0  0  0  0  0  0  0  0
   34.2130   24.7271   52.7081 C   0  0  0  0  0  0  0  0  0  0  0  0
   35.6694   24.2912   52.6433 C   0  0  0  0  0  0  0  0  0  0  0  0
   41.9401   23.1990   53.3977 H   0  0  0  0  0  0  0  0  0  0  0  0
   36.1915   23.1211   55.4709 H   0  0  0  0  0  0  0  0  0  0  0  0
   36.9377   21.0158   56.9443 H   0  0  0  0  0  0  0  0  0  0  0  0
   39.3960   20.5668   56.4425 H   0  0  0  0  0  0  0  0  0  0  0  0
   40.5414   27.8853   51.3255 H   0  0  0  0  0  0  0  0  0  0  0  0
   39.3112   29.2887   49.3426 H   0  0  0  0  0  0  0  0  0  0  0  0
   35.7544   27.6861   49.1387 H   0  0  0  0  0  0  0  0  0  0  0  0
   36.9146   27.2248   47.8054 H   0  0  0  0  0  0  0  0  0  0  0  0
   37.6026   29.2497   47.5232 H   0  0  0  0  0  0  0  0  0  0  0  0
   37.7749   33.6015   47.9566 H   0  0  0  0  0  0  0  0  0  0  0  0
   37.7465   32.8339   49.5804 H   0  0  0  0  0  0  0  0  0  0  0  0
   36.2168   33.2356   48.7530 H   0  0  0  0  0  0  0  0  0  0  0  0
   37.9537   30.4850   46.2844 H   0  0  0  0  0  0  0  0  0  0  0  0
   39.0124   31.7226   46.9087 H   0  0  0  0  0  0  0  0  0  0  0  0
   37.5334   32.1525   45.9972 H   0  0  0  0  0  0  0  0  0  0  0  0
   36.4802   26.2236   52.3677 H   0  0  0  0  0  0  0  0  0  0  0  0
   36.8499   26.8803   54.6530 H   0  0  0  0  0  0  0  0  0  0  0  0
   36.4214   25.2825   55.2393 H   0  0  0  0  0  0  0  0  0  0  0  0
   34.5890   27.2358   53.7928 H   0  0  0  0  0  0  0  0  0  0  0  0
   34.4948   26.7414   55.4904 H   0  0  0  0  0  0  0  0  0  0  0  0
   32.8100   25.5711   54.1053 H   0  0  0  0  0  0  0  0  0  0  0  0
   33.9615   24.4326   54.8229 H   0  0  0  0  0  0  0  0  0  0  0  0
   34.0357   25.5192   51.9678 H   0  0  0  0  0  0  0  0  0  0  0  0
   33.5620   23.8836   52.4516 H   0  0  0  0  0  0  0  0  0  0  0  0
   35.7971   23.4166   53.2836 H   0  0  0  0  0  0  0  0  0  0  0  0
   35.9154   23.9809   51.6239 H   0  0  0  0  0  0  0  0  0  0  0  0
  1 22  2  0  0  0  0
  1 23  1  0  0  0  0
  1 33  1  0  0  0  0
  2  3  2  0  0  0  0
  2 25  1  0  0  0  0
  2 34  1  0  0  0  0
  3  4  1  0  0  0  0
  3 35  1  0  0  0  0
  4 26  2  0  0  0  0
  4 36  1  0  0  0  0
  5  6  1  0  0  0  0
  5  7  2  0  0  0  0
  5 12  1  0  0  0  0
  6  8  2  0  0  0  0
  6 21  1  0  0  0  0
  7 24  1  0  0  0  0
  7 27  1  0  0  0  0
  8  9  1  0  0  0  0
  8 37  1  0  0  0  0
  9 10  2  0  0  0  0
  9 38  1  0  0  0  0
 10 11  1  0  0  0  0
 10 21  1  0  0  0  0
 11 13  1  0  0  0  0
 11 39  1  0  0  0  0
 11 40  1  0  0  0  0
 12 22  1  0  0  0  0
 13 14  1  0  0  0  0
 13 18  1  0  0  0  0
 13 41  1  6  0  0  0
 14 16  1  0  0  0  0
 14 19  2  0  0  0  0
 15 16  1  0  0  0  0
 15 42  1  0  0  0  0
 15 43  1  0  0  0  0
 15 44  1  0  0  0  0
 16 20  1  0  0  0  0
 17 18  3  0  0  0  0
 20 45  1  0  0  0  0
 20 46  1  0  0  0  0
 20 47  1  0  0  0  0
 22 24  1  0  0  0  0
 23 26  1  0  0  0  0
 24 25  2  0  0  0  0
 25 26  1  0  0  0  0
 27 28  1  0  0  0  0
 27 32  1  0  0  0  0
 27 48  1  0  0  0  0
 28 29  1  0  0  0  0
 28 49  1  0  0  0  0
 28 50  1  0  0  0  0
 29 30  1  0  0  0  0
 29 51  1  0  0  0  0
 29 52  1  0  0  0  0
 30 31  1  0  0  0  0
 30 53  1  0  0  0  0
 30 54  1  0  0  0  0
 31 32  1  0  0  0  0
 31 55  1  0  0  0  0
 31 56  1  0  0  0  0
 32 57  1  0  0  0  0
 32 58  1  0  0  0  0
M  CHG  2   4   1   7   1
M  END
$$$$
