79V
 OpenBabel04161911523D

 36 38  0  0  1  0  0  0  0  0999 V2000
   69.5500   -8.4725   24.3830 C   0  0  0  0  0  0  0  0  0  0  0  0
   71.4167  -10.9903   21.2133 C   0  0  0  0  0  0  0  0  0  0  0  0
   70.7162  -10.1482   22.1750 C   0  0  1  0  0  0  0  0  0  0  0  0
   70.1631   -9.8743   24.1740 C   0  0  1  0  0  0  0  0  0  0  0  0
   68.0779  -10.7557   22.6419 C   0  0  0  0  0  0  0  0  0  0  0  0
   67.6229  -10.3426   21.3786 C   0  0  0  0  0  0  0  0  0  0  0  0
   66.2539  -10.3513   21.0309 C   0  0  0  0  0  0  0  0  0  0  0  0
   69.6158  -10.8156   23.0447 C   0  0  1  0  0  0  0  0  0  0  0  0
   61.4498  -10.2995   22.0470 C   0  0  0  0  0  0  0  0  0  0  0  0
   61.0297  -11.0277   20.9394 C   0  0  0  0  0  0  0  0  0  0  0  0
   61.9808  -11.6550   20.1433 C   0  0  0  0  0  0  0  0  0  0  0  0
   63.3506  -11.5566   20.4616 C   0  0  0  0  0  0  0  0  0  0  0  0
   63.8110  -10.8325   21.5753 C   0  0  0  0  0  0  0  0  0  0  0  0
   62.8178  -10.2081   22.3614 C   0  0  0  0  0  0  0  0  0  0  0  0
   65.2610  -10.7710   21.9329 C   0  0  0  0  0  0  0  0  0  0  0  0
   65.7102  -11.1727   23.2012 C   0  0  0  0  0  0  0  0  0  0  0  0
   67.0771  -11.1690   23.5415 C   0  0  0  0  0  0  0  0  0  0  0  0
   71.4762   -9.8870   23.4430 N   0  0  0  0  0  0  0  0  0  0  0  0
   71.9511  -11.6408   20.4210 N   0  0  0  0  0  0  0  0  0  0  0  0
   70.2682   -7.4197   23.7380 O   0  0  0  0  0  0  0  0  0  0  0  0
   64.2178  -12.1980   19.6711 F   0  0  0  0  0  0  0  0  0  0  0  0
   69.5541   -8.2309   25.4514 H   0  0  0  0  0  0  0  0  0  0  0  0
   68.5085   -8.4466   24.0534 H   0  0  0  0  0  0  0  0  0  0  0  0
   70.3802   -9.2186   21.6995 H   0  0  0  0  0  0  0  0  0  0  0  0
   70.1893  -10.3791   25.1519 H   0  0  0  0  0  0  0  0  0  0  0  0
   68.3473  -10.0238   20.6286 H   0  0  0  0  0  0  0  0  0  0  0  0
   65.9835  -10.0308   20.0251 H   0  0  0  0  0  0  0  0  0  0  0  0
   69.8664  -11.8659   23.2758 H   0  0  0  0  0  0  0  0  0  0  0  0
   60.7042   -9.7990   22.6715 H   0  0  0  0  0  0  0  0  0  0  0  0
   59.9675  -11.1091   20.6965 H   0  0  0  0  0  0  0  0  0  0  0  0
   61.6742  -12.2396   19.2791 H   0  0  0  0  0  0  0  0  0  0  0  0
   63.1003   -9.6254   23.2360 H   0  0  0  0  0  0  0  0  0  0  0  0
   64.9963  -11.5324   23.9402 H   0  0  0  0  0  0  0  0  0  0  0  0
   67.3690  -11.5226   24.5314 H   0  0  0  0  0  0  0  0  0  0  0  0
   72.0827  -10.6634   23.7201 H   0  0  0  0  0  0  0  0  0  0  0  0
   70.2562   -7.5575   22.7803 H   0  0  0  0  0  0  0  0  0  0  0  0
  1  4  1  0  0  0  0
  1 20  1  0  0  0  0
  1 22  1  0  0  0  0
  1 23  1  0  0  0  0
  2  3  1  0  0  0  0
  2 19  3  0  0  0  0
  3  8  1  0  0  0  0
  3 18  1  0  0  0  0
  3 24  1  6  0  0  0
  4  8  1  0  0  0  0
  4 18  1  0  0  0  0
  4 25  1  1  0  0  0
  5  6  2  0  0  0  0
  5  8  1  0  0  0  0
  5 17  1  0  0  0  0
  6  7  1  0  0  0  0
  6 26  1  0  0  0  0
  7 15  2  0  0  0  0
  7 27  1  0  0  0  0
  8 28  1  1  0  0  0
  9 10  2  0  0  0  0
  9 14  1  0  0  0  0
  9 29  1  0  0  0  0
 10 11  1  0  0  0  0
 10 30  1  0  0  0  0
 11 12  2  0  0  0  0
 11 31  1  0  0  0  0
 12 13  1  0  0  0  0
 12 21  1  0  0  0  0
 13 14  2  0  0  0  0
 13 15  1  0  0  0  0
 14 32  1  0  0  0  0
 15 16  1  0  0  0  0
 16 17  2  0  0  0  0
 16 33  1  0  0  0  0
 17 34  1  0  0  0  0
 18 35  1  0  0  0  0
 20 36  1  0  0  0  0
M  END
$$$$
