7AF
 OpenBabel04161910503D

 47 47  0  0  1  0  0  0  0  0999 V2000
   15.0704   40.7078  -12.6878 C   0  0  0  0  0  0  0  0  0  0  0  0
   16.3086   40.3135  -13.1933 C   0  0  0  0  0  0  0  0  0  0  0  0
   17.4590   40.4482  -12.4170 C   0  0  0  0  0  0  0  0  0  0  0  0
   13.6301   41.5766  -10.8042 C   0  0  0  0  0  0  0  0  0  0  0  0
   12.6168   40.9323   -8.7951 C   0  0  0  0  0  0  0  0  0  0  0  0
   11.9394   40.1002   -6.5949 C   0  0  0  0  0  0  0  0  0  0  0  0
    9.2637   37.8913   -1.1627 C   0  0  0  0  0  0  0  0  0  0  0  0
    9.1112   36.3764   -1.2863 C   0  0  0  0  0  0  0  0  0  0  0  0
    9.5437   38.2813    0.2887 C   0  0  0  0  0  0  0  0  0  0  0  0
    8.9180   39.3184   -3.8879 C   0  0  0  0  0  0  0  0  0  0  0  0
   10.1180   38.0810   -6.4606 O   0  0  0  0  0  0  0  0  0  0  0  0
   11.4791   38.4481   -5.9463 P   0  0  2  0  0  0  0  0  0  0  0  0
   14.9731   41.2416  -11.4005 C   0  0  0  0  0  0  0  0  0  0  0  0
   17.3745   40.9835  -11.1332 C   0  0  0  0  0  0  0  0  0  0  0  0
   16.1365   41.3738  -10.6238 C   0  0  0  0  0  0  0  0  0  0  0  0
   11.3124   38.8087   -4.2737 N   0  0  0  0  0  0  0  0  0  0  0  0
   10.0822   38.3654   -3.5751 C   0  0  1  0  0  0  0  0  0  0  0  0
   10.3925   38.4109   -2.0693 C   0  0  0  0  0  0  0  0  0  0  0  0
    7.7217   38.9819   -3.8908 O   0  0  0  0  0  0  0  0  0  0  0  0
    9.2573   40.6498   -3.9369 N   0  0  0  0  0  0  0  0  0  0  0  0
   12.6818   37.5508   -6.0835 O   0  0  0  0  0  0  0  0  0  0  0  0
   12.6452   39.9683   -7.8486 N   0  0  0  0  0  0  0  0  0  0  0  0
   12.0269   42.0008   -8.7097 O   0  0  0  0  0  0  0  0  0  0  0  0
   13.3881   40.5577   -9.8327 O   0  0  0  0  0  0  0  0  0  0  0  0
   14.1757   40.5688  -13.2893 H   0  0  0  0  0  0  0  0  0  0  0  0
   16.3719   39.8860  -14.1904 H   0  0  0  0  0  0  0  0  0  0  0  0
   18.4192   40.1235  -12.8069 H   0  0  0  0  0  0  0  0  0  0  0  0
   12.8396   41.5463  -11.5627 H   0  0  0  0  0  0  0  0  0  0  0  0
   13.6614   42.5867  -10.3757 H   0  0  0  0  0  0  0  0  0  0  0  0
   12.6078   40.5921   -5.8951 H   0  0  0  0  0  0  0  0  0  0  0  0
   11.0436   40.7122   -6.7242 H   0  0  0  0  0  0  0  0  0  0  0  0
    8.3145   38.3602   -1.4454 H   0  0  0  0  0  0  0  0  0  0  0  0
    8.3110   36.0116   -0.6373 H   0  0  0  0  0  0  0  0  0  0  0  0
   10.0385   35.8635   -1.0066 H   0  0  0  0  0  0  0  0  0  0  0  0
    8.8626   36.0865   -2.3122 H   0  0  0  0  0  0  0  0  0  0  0  0
    9.6463   39.3697    0.3837 H   0  0  0  0  0  0  0  0  0  0  0  0
   10.4673   37.8226    0.6563 H   0  0  0  0  0  0  0  0  0  0  0  0
    8.7216   37.9702    0.9412 H   0  0  0  0  0  0  0  0  0  0  0  0
   18.2670   41.0821  -10.5216 H   0  0  0  0  0  0  0  0  0  0  0  0
   16.0711   41.7478   -9.6029 H   0  0  0  0  0  0  0  0  0  0  0  0
   12.0943   39.1885   -3.7490 H   0  0  0  0  0  0  0  0  0  0  0  0
    9.8246   37.3580   -3.9100 H   0  0  0  0  0  0  0  0  0  0  0  0
   11.3060   37.8315   -1.8691 H   0  0  0  0  0  0  0  0  0  0  0  0
   10.6279   39.4469   -1.7841 H   0  0  0  0  0  0  0  0  0  0  0  0
    8.5516   41.2736   -4.2828 H   0  0  0  0  0  0  0  0  0  0  0  0
   10.2327   40.8677   -4.0908 H   0  0  0  0  0  0  0  0  0  0  0  0
   13.1439   39.0993   -8.0077 H   0  0  0  0  0  0  0  0  0  0  0  0
  1  2  2  0  0  0  0
  1 13  1  0  0  0  0
  1 25  1  0  0  0  0
  2  3  1  0  0  0  0
  2 26  1  0  0  0  0
  3 14  2  0  0  0  0
  3 27  1  0  0  0  0
  4 13  1  0  0  0  0
  4 24  1  0  0  0  0
  4 28  1  0  0  0  0
  4 29  1  0  0  0  0
  5 22  1  0  0  0  0
  5 23  2  0  0  0  0
  5 24  1  0  0  0  0
  6 22  1  0  0  0  0
  6 30  1  0  0  0  0
  6 31  1  0  0  0  0
  7  8  1  0  0  0  0
  7  9  1  0  0  0  0
  7 18  1  0  0  0  0
  7 32  1  0  0  0  0
  8 33  1  0  0  0  0
  8 34  1  0  0  0  0
  8 35  1  0  0  0  0
  9 36  1  0  0  0  0
  9 37  1  0  0  0  0
  9 38  1  0  0  0  0
 10 17  1  0  0  0  0
 10 19  2  0  0  0  0
 10 20  1  0  0  0  0
 11 12  2  0  0  0  0
 12  6  1  6  0  0  0
 12 16  1  0  0  0  0
 12 21  1  0  0  0  0
 13 15  2  0  0  0  0
 14 15  1  0  0  0  0
 14 39  1  0  0  0  0
 15 40  1  0  0  0  0
 16 17  1  0  0  0  0
 16 41  1  0  0  0  0
 17 18  1  0  0  0  0
 17 42  1  6  0  0  0
 18 43  1  0  0  0  0
 18 44  1  0  0  0  0
 20 45  1  0  0  0  0
 20 46  1  0  0  0  0
 22 47  1  0  0  0  0
M  END
$$$$
