7DC
 OpenBabel04161911093D

103104  0  0  1  0  0  0  0  0999 V2000
  -19.1339   17.2074   14.0062 C   0  0  0  0  0  0  0  0  0  0  0  0
  -18.8698   18.3183   14.5206 O   0  0  0  0  0  0  0  0  0  0  0  0
  -17.9438   16.5391   13.2340 C   0  0  2  0  0  0  0  0  0  0  0  0
  -17.1683   15.5970   14.1990 C   0  0  0  0  0  0  0  0  0  0  0  0
  -16.3476   14.5646   13.4196 C   0  0  0  0  0  0  0  0  0  0  0  0
  -16.2408   16.3716   15.1351 C   0  0  0  0  0  0  0  0  0  0  0  0
  -16.9673   17.5169   12.6577 N   0  0  0  0  0  0  0  0  0  0  0  0
  -16.8543   17.8039   11.3150 C   0  0  0  0  0  0  0  0  0  0  0  0
  -17.4898   17.2143   10.4559 O   0  0  0  0  0  0  0  0  0  0  0  0
  -15.8283   18.8647   10.9038 C   0  0  0  0  0  0  0  0  0  0  0  0
  -15.8161   19.4077    9.6013 C   0  0  0  0  0  0  0  0  0  0  0  0
  -14.8384   20.3738    9.1928 C   0  0  0  0  0  0  0  0  0  0  0  0
  -14.8248   19.3120   11.7734 C   0  0  0  0  0  0  0  0  0  0  0  0
  -13.8491   20.2711   11.3517 C   0  0  0  0  0  0  0  0  0  0  0  0
  -13.8105   20.8164   10.0388 C   0  0  0  0  0  0  0  0  0  0  0  0
  -12.8250   21.8218    9.6656 N   0  0  0  0  0  0  0  0  0  0  0  0
  -12.3826   21.7915    8.4710 N   0  0  0  0  0  0  0  0  0  0  0  0
  -11.4145   22.8355    8.1449 C   0  0  0  0  0  0  0  0  0  0  0  0
  -11.0828   23.1782    6.8058 C   0  0  0  0  0  0  0  0  0  0  0  0
  -10.1589   24.2113    6.4883 C   0  0  0  0  0  0  0  0  0  0  0  0
  -10.7225   23.5684    9.1255 C   0  0  0  0  0  0  0  0  0  0  0  0
   -9.7995   24.5901    8.8206 C   0  0  0  0  0  0  0  0  0  0  0  0
   -9.5075   24.9389    7.4956 C   0  0  0  0  0  0  0  0  0  0  0  0
   -8.5008   26.0430    7.2458 C   0  0  0  0  0  0  0  0  0  0  0  0
   -8.3127   26.4069    5.8588 N   0  0  0  0  0  0  0  0  0  0  0  0
   -7.3378   25.7589    5.1299 C   0  0  0  0  0  0  0  0  0  0  0  0
   -6.4899   25.0437    5.6709 O   0  0  0  0  0  0  0  0  0  0  0  0
   -7.2203   26.0475    3.6311 C   0  0  2  0  0  0  0  0  0  0  0  0
   -5.9508   26.8374    3.3179 C   0  0  0  0  0  0  0  0  0  0  0  0
   -8.4258   26.6257    3.0532 N   0  0  0  0  0  0  0  0  0  0  0  0
   -9.5055   25.7924    2.8199 C   0  0  0  0  0  0  0  0  0  0  0  0
   -9.4251   24.5728    2.9195 O   0  0  0  0  0  0  0  0  0  0  0  0
  -10.7559   26.4145    2.1752 C   0  0  2  0  0  0  0  0  0  0  0  0
  -10.5863   26.4120    0.6493 C   0  0  0  0  0  0  0  0  0  0  0  0
  -10.4422   25.0023    0.0749 C   0  0  0  0  0  0  0  0  0  0  0  0
  -10.3961   24.9572   -1.4476 C   0  0  0  0  0  0  0  0  0  0  0  0
  -11.4724   25.7577   -2.0973 N   0  0  0  0  0  0  0  0  0  0  0  0
  -12.6016   25.2088   -2.6413 C   0  0  0  0  0  0  0  0  0  0  0  0
  -12.8058   23.8912   -2.5414 N   0  0  0  0  0  0  0  0  0  0  0  0
  -13.5314   25.9675   -3.2672 N   0  0  0  0  0  0  0  0  0  0  0  0
  -10.9541   27.7738    2.6443 N   0  0  0  0  0  0  0  0  0  0  0  0
  -11.1430   27.9875    4.0000 C   0  0  0  0  0  0  0  0  0  0  0  0
  -11.1351   27.0932    4.7943 O   0  0  0  0  0  0  0  0  0  0  0  0
  -11.3398   29.4539    4.4264 C   0  0  2  0  0  0  0  0  0  0  0  0
  -12.7952   29.8285    4.2271 C   0  0  0  0  0  0  0  0  0  0  0  0
  -10.4798   30.3261    3.5955 N   0  0  0  0  0  0  0  0  0  0  0  0
   -9.1050   30.2704    3.6760 C   0  0  0  0  0  0  0  0  0  0  0  0
   -8.5164   29.4892    4.4228 O   0  0  0  0  0  0  0  0  0  0  0  0
   -8.2690   31.2024    2.7611 C   0  0  1  0  0  0  0  0  0  0  0  0
   -7.3111   31.9645    3.5978 N   0  3  0  0  0  0  0  0  0  0  0  0
   -7.4608   30.3224    1.8051 C   0  0  0  0  0  0  0  0  0  0  0  0
   -8.3355   29.3543    1.2388 O   0  0  0  0  0  0  0  0  0  0  0  0
  -20.2126   16.5236   14.0889 O   0  0  0  0  0  0  0  0  0  0  0  0
  -18.3558   15.9417   12.4211 H   0  0  0  0  0  0  0  0  0  0  0  0
  -17.8780   15.0518   14.8292 H   0  0  0  0  0  0  0  0  0  0  0  0
  -15.7826   13.9193   14.1026 H   0  0  0  0  0  0  0  0  0  0  0  0
  -15.6329   15.0426   12.7396 H   0  0  0  0  0  0  0  0  0  0  0  0
  -17.0131   13.9291   12.8278 H   0  0  0  0  0  0  0  0  0  0  0  0
  -16.8105   17.1222   15.6877 H   0  0  0  0  0  0  0  0  0  0  0  0
  -15.4411   16.8748   14.5802 H   0  0  0  0  0  0  0  0  0  0  0  0
  -15.7670   15.6956   15.8508 H   0  0  0  0  0  0  0  0  0  0  0  0
  -16.5518   18.0914   13.3751 H   0  0  0  0  0  0  0  0  0  0  0  0
  -16.5706   19.0868    8.8797 H   0  0  0  0  0  0  0  0  0  0  0  0
  -14.8858   20.7884    8.1878 H   0  0  0  0  0  0  0  0  0  0  0  0
  -14.7736   18.9094   12.7839 H   0  0  0  0  0  0  0  0  0  0  0  0
  -13.1086   20.5739   12.0909 H   0  0  0  0  0  0  0  0  0  0  0  0
  -11.5398   22.6477    5.9698 H   0  0  0  0  0  0  0  0  0  0  0  0
   -9.9530   24.4457    5.4424 H   0  0  0  0  0  0  0  0  0  0  0  0
  -10.9072   23.3360   10.1687 H   0  0  0  0  0  0  0  0  0  0  0  0
   -9.3053   25.1147    9.6422 H   0  0  0  0  0  0  0  0  0  0  0  0
   -7.5270   25.7342    7.6456 H   0  0  0  0  0  0  0  0  0  0  0  0
   -8.8108   26.9469    7.7794 H   0  0  0  0  0  0  0  0  0  0  0  0
   -9.0283   26.9781    5.4161 H   0  0  0  0  0  0  0  0  0  0  0  0
   -7.0765   25.0717    3.1577 H   0  0  0  0  0  0  0  0  0  0  0  0
   -5.8772   27.0234    2.2408 H   0  0  0  0  0  0  0  0  0  0  0  0
   -5.0597   26.2625    3.6121 H   0  0  0  0  0  0  0  0  0  0  0  0
   -5.9140   27.7958    3.8451 H   0  0  0  0  0  0  0  0  0  0  0  0
   -8.5163   27.6305    2.9976 H   0  0  0  0  0  0  0  0  0  0  0  0
  -11.6336   25.8180    2.4654 H   0  0  0  0  0  0  0  0  0  0  0  0
   -9.7031   27.0063    0.3858 H   0  0  0  0  0  0  0  0  0  0  0  0
  -11.4579   26.9018    0.1983 H   0  0  0  0  0  0  0  0  0  0  0  0
  -11.2714   24.3790    0.4278 H   0  0  0  0  0  0  0  0  0  0  0  0
   -9.5145   24.5494    0.4488 H   0  0  0  0  0  0  0  0  0  0  0  0
  -10.4608   23.9171   -1.7742 H   0  0  0  0  0  0  0  0  0  0  0  0
   -9.4226   25.3111   -1.8047 H   0  0  0  0  0  0  0  0  0  0  0  0
  -11.3127   26.7531   -2.1845 H   0  0  0  0  0  0  0  0  0  0  0  0
  -13.6185   23.4145   -2.9109 H   0  0  0  0  0  0  0  0  0  0  0  0
  -13.4440   26.9687   -3.3865 H   0  0  0  0  0  0  0  0  0  0  0  0
  -14.3778   25.5678   -3.6710 H   0  0  0  0  0  0  0  0  0  0  0  0
  -11.0015   28.5224    1.9713 H   0  0  0  0  0  0  0  0  0  0  0  0
  -11.0465   29.5348    5.4813 H   0  0  0  0  0  0  0  0  0  0  0  0
  -12.9617   30.8585    4.5496 H   0  0  0  0  0  0  0  0  0  0  0  0
  -13.4675   29.1702    4.7886 H   0  0  0  0  0  0  0  0  0  0  0  0
  -13.0640   29.7558    3.1666 H   0  0  0  0  0  0  0  0  0  0  0  0
  -10.9800   30.9657    2.9892 H   0  0  0  0  0  0  0  0  0  0  0  0
   -8.8677   31.9224    2.1920 H   0  0  0  0  0  0  0  0  0  0  0  0
   -6.7173   32.6061    3.0623 H   0  0  0  0  0  0  0  0  0  0  0  0
   -7.8275   32.4891    4.3147 H   0  0  0  0  0  0  0  0  0  0  0  0
   -6.6511   29.8124    2.3444 H   0  0  0  0  0  0  0  0  0  0  0  0
   -6.9908   30.9086    1.0018 H   0  0  0  0  0  0  0  0  0  0  0  0
   -9.0439   29.8174    0.7644 H   0  0  0  0  0  0  0  0  0  0  0  0
  -12.1448   23.2959   -2.0704 H   0  0  0  0  0  0  0  0  0  0  0  0
   -6.7077   31.2929    4.1041 H   0  0  0  0  0  0  0  0  0  0  0  0
  1  2  2  0  0  0  0
  1  3  1  0  0  0  0
  1 53  1  0  0  0  0
  3  4  1  0  0  0  0
  3  7  1  0  0  0  0
  3 54  1  6  0  0  0
  4  5  1  0  0  0  0
  4  6  1  0  0  0  0
  4 55  1  0  0  0  0
  5 56  1  0  0  0  0
  5 57  1  0  0  0  0
  5 58  1  0  0  0  0
  6 59  1  0  0  0  0
  6 60  1  0  0  0  0
  6 61  1  0  0  0  0
  7  8  1  0  0  0  0
  7 62  1  0  0  0  0
  8  9  2  0  0  0  0
  8 10  1  0  0  0  0
 10 11  2  0  0  0  0
 10 13  1  0  0  0  0
 11 12  1  0  0  0  0
 11 63  1  0  0  0  0
 12 15  2  0  0  0  0
 12 64  1  0  0  0  0
 13 14  2  0  0  0  0
 13 65  1  0  0  0  0
 14 15  1  0  0  0  0
 14 66  1  0  0  0  0
 15 16  1  0  0  0  0
 16 17  2  0  0  0  0
 17 18  1  0  0  0  0
 18 19  2  0  0  0  0
 18 21  1  0  0  0  0
 19 20  1  0  0  0  0
 19 67  1  0  0  0  0
 20 23  2  0  0  0  0
 20 68  1  0  0  0  0
 21 22  2  0  0  0  0
 21 69  1  0  0  0  0
 22 23  1  0  0  0  0
 22 70  1  0  0  0  0
 23 24  1  0  0  0  0
 24 25  1  0  0  0  0
 24 71  1  0  0  0  0
 24 72  1  0  0  0  0
 25 26  1  0  0  0  0
 25 73  1  0  0  0  0
 26 27  2  0  0  0  0
 26 28  1  0  0  0  0
 28 29  1  0  0  0  0
 28 30  1  0  0  0  0
 28 74  1  6  0  0  0
 29 75  1  0  0  0  0
 29 76  1  0  0  0  0
 29 77  1  0  0  0  0
 30 31  1  0  0  0  0
 30 78  1  0  0  0  0
 31 32  2  0  0  0  0
 31 33  1  0  0  0  0
 33 34  1  0  0  0  0
 33 41  1  0  0  0  0
 33 79  1  1  0  0  0
 34 35  1  0  0  0  0
 34 80  1  0  0  0  0
 34 81  1  0  0  0  0
 35 36  1  0  0  0  0
 35 82  1  0  0  0  0
 35 83  1  0  0  0  0
 36 37  1  0  0  0  0
 36 84  1  0  0  0  0
 36 85  1  0  0  0  0
 37 38  1  0  0  0  0
 37 86  1  0  0  0  0
 38 39  2  0  0  0  0
 38 40  1  0  0  0  0
 39 87  1  0  0  0  0
 39102  1  0  0  0  0
 40 88  1  0  0  0  0
 40 89  1  0  0  0  0
 41 42  1  0  0  0  0
 41 90  1  0  0  0  0
 42 43  2  0  0  0  0
 42 44  1  0  0  0  0
 44 45  1  0  0  0  0
 44 46  1  0  0  0  0
 44 91  1  1  0  0  0
 45 92  1  0  0  0  0
 45 93  1  0  0  0  0
 45 94  1  0  0  0  0
 46 47  1  0  0  0  0
 46 95  1  0  0  0  0
 47 48  2  0  0  0  0
 47 49  1  0  0  0  0
 49 50  1  0  0  0  0
 49 51  1  0  0  0  0
 49 96  1  6  0  0  0
 50 97  1  0  0  0  0
 50 98  1  0  0  0  0
 50103  1  0  0  0  0
 51 52  1  0  0  0  0
 51 99  1  0  0  0  0
 51100  1  0  0  0  0
 52101  1  0  0  0  0
M  CHG  1  50   1
M  END
$$$$
