7H1
 OpenBabel04161910233D

 39 39  0  0  0  0  0  0  0  0999 V2000
   51.7115   12.1604  -23.3048 O   0  0  0  0  0  0  0  0  0  0  0  0
   52.7956   12.6864  -22.9912 C   0  0  0  0  0  0  0  0  0  0  0  0
   52.8723   13.6639  -22.0412 N   0  0  0  0  0  0  0  0  0  0  0  0
   51.6575   14.1438  -21.5237 O   0  0  0  0  0  0  0  0  0  0  0  0
   54.1804   12.4448  -23.6504 C   0  0  0  0  0  0  0  0  0  0  0  0
   54.8127   13.6617  -23.7654 F   0  0  0  0  0  0  0  0  0  0  0  0
   54.0700   11.9522  -24.8991 F   0  0  0  0  0  0  0  0  0  0  0  0
   55.0846   11.5687  -22.7970 C   0  0  0  0  0  0  0  0  0  0  0  0
   54.4238   10.3936  -22.5627 F   0  0  0  0  0  0  0  0  0  0  0  0
   55.2401   12.1579  -21.5699 F   0  0  0  0  0  0  0  0  0  0  0  0
   56.4733   11.2055  -23.3518 C   0  0  0  0  0  0  0  0  0  0  0  0
   56.3078   10.3965  -24.4383 F   0  0  0  0  0  0  0  0  0  0  0  0
   57.0713   10.4130  -22.4027 F   0  0  0  0  0  0  0  0  0  0  0  0
   57.4291   12.3457  -23.7293 C   0  0  0  0  0  0  0  0  0  0  0  0
   57.3486   13.3493  -22.8087 F   0  0  0  0  0  0  0  0  0  0  0  0
   57.0238   12.8793  -24.9075 F   0  0  0  0  0  0  0  0  0  0  0  0
   58.8897   11.9014  -23.8071 C   0  0  0  0  0  0  0  0  0  0  0  0
   58.9966   10.6965  -24.4283 F   0  0  0  0  0  0  0  0  0  0  0  0
   59.3257   11.7168  -22.5215 F   0  0  0  0  0  0  0  0  0  0  0  0
   59.8051   12.9190  -24.4998 C   0  0  0  0  0  0  0  0  0  0  0  0
   59.4625   14.2099  -24.2221 F   0  0  0  0  0  0  0  0  0  0  0  0
   59.7119   12.7984  -25.8578 F   0  0  0  0  0  0  0  0  0  0  0  0
   61.2196   12.6584  -24.0071 C   0  0  0  0  0  0  0  0  0  0  0  0
   61.6465   11.4882  -23.9099 O   0  0  0  0  0  0  0  0  0  0  0  0
   61.9893   13.7725  -23.7547 N   0  0  0  0  0  0  0  0  0  0  0  0
   63.3420   13.7729  -23.3559 C   0  0  0  0  0  0  0  0  0  0  0  0
   64.0427   14.9724  -23.4796 C   0  0  0  0  0  0  0  0  0  0  0  0
   65.3993   15.0406  -23.1544 C   0  0  0  0  0  0  0  0  0  0  0  0
   66.0658   13.9164  -22.6768 C   0  0  0  0  0  0  0  0  0  0  0  0
   65.3698   12.7224  -22.5250 C   0  0  0  0  0  0  0  0  0  0  0  0
   64.0145   12.6531  -22.8602 C   0  0  0  0  0  0  0  0  0  0  0  0
   53.7604   14.0369  -21.7360 H   0  0  0  0  0  0  0  0  0  0  0  0
   51.9296   14.8219  -20.8909 H   0  0  0  0  0  0  0  0  0  0  0  0
   61.5660   14.6809  -23.9115 H   0  0  0  0  0  0  0  0  0  0  0  0
   63.5469   15.8581  -23.8669 H   0  0  0  0  0  0  0  0  0  0  0  0
   65.9354   15.9769  -23.2812 H   0  0  0  0  0  0  0  0  0  0  0  0
   67.1220   13.9718  -22.4221 H   0  0  0  0  0  0  0  0  0  0  0  0
   65.8794   11.8372  -22.1530 H   0  0  0  0  0  0  0  0  0  0  0  0
   63.4990   11.7103  -22.7138 H   0  0  0  0  0  0  0  0  0  0  0  0
  1  2  2  0  0  0  0
  2  3  1  0  0  0  0
  2  5  1  0  0  0  0
  3  4  1  0  0  0  0
  3 32  1  0  0  0  0
  4 33  1  0  0  0  0
  5  6  1  0  0  0  0
  5  7  1  0  0  0  0
  5  8  1  0  0  0  0
  8  9  1  0  0  0  0
  8 10  1  0  0  0  0
  8 11  1  0  0  0  0
 11 12  1  0  0  0  0
 11 13  1  0  0  0  0
 11 14  1  0  0  0  0
 14 15  1  0  0  0  0
 14 16  1  0  0  0  0
 14 17  1  0  0  0  0
 17 18  1  0  0  0  0
 17 19  1  0  0  0  0
 17 20  1  0  0  0  0
 20 21  1  0  0  0  0
 20 22  1  0  0  0  0
 20 23  1  0  0  0  0
 23 24  2  0  0  0  0
 23 25  1  0  0  0  0
 25 26  1  0  0  0  0
 25 34  1  0  0  0  0
 26 27  2  0  0  0  0
 26 31  1  0  0  0  0
 27 28  1  0  0  0  0
 27 35  1  0  0  0  0
 28 29  2  0  0  0  0
 28 36  1  0  0  0  0
 29 30  1  0  0  0  0
 29 37  1  0  0  0  0
 30 31  2  0  0  0  0
 30 38  1  0  0  0  0
 31 39  1  0  0  0  0
M  END
$$$$
