7HG
 OpenBabel04161911503D

 96 98  0  0  1  0  0  0  0  0999 V2000
   72.8483   51.6803   66.8482 C   0  0  2  0  0  0  0  0  0  0  0  0
   73.4548   51.9933   65.4402 C   0  0  1  0  0  0  0  0  0  0  0  0
   72.7382   53.1327   64.6508 C   0  0  2  0  0  0  0  0  0  0  0  0
   73.3662   53.2993   63.2356 C   0  0  2  0  0  0  0  0  0  0  0  0
   72.7573   54.4937   62.5323 C   0  0  0  0  0  0  0  0  0  0  0  0
   75.2864   61.6427   64.7326 C   0  0  0  0  0  0  0  0  0  0  0  0
   75.2186   62.0384   66.2145 C   0  0  0  0  0  0  0  0  0  0  0  0
   75.7854   60.9495   67.1124 C   0  0  0  0  0  0  0  0  0  0  0  0
   75.1912   59.6664   66.7553 N   0  0  0  0  0  0  0  0  0  0  0  0
   75.3728   59.2349   65.4301 N   0  0  0  0  0  0  0  0  0  0  0  0
   74.8508   60.2060   64.4564 C   0  0  2  0  0  0  0  0  0  0  0  0
   75.2104   59.7313   63.0445 C   0  0  0  0  0  0  0  0  0  0  0  0
   74.3661   60.2608   62.1082 O   0  0  0  0  0  0  0  0  0  0  0  0
   76.1584   58.9828   62.7855 O   0  0  0  0  0  0  0  0  0  0  0  0
   74.6543   59.8642   60.7539 C   0  0  0  0  0  0  0  0  0  0  0  0
   73.6381   58.8381   60.2550 C   0  0  0  0  0  0  0  0  0  0  0  0
   73.9258   57.5210   60.9023 C   0  0  0  0  0  0  0  0  0  0  0  0
   73.0288   56.6701   61.4109 C   0  0  0  0  0  0  0  0  0  0  0  0
   73.5213   55.4674   62.0288 C   0  0  0  0  0  0  0  0  0  0  0  0
   73.0810   52.7645   67.8990 C   0  0  0  0  0  0  0  0  0  0  0  0
   72.1692   53.1363   68.6677 O   0  0  0  0  0  0  0  0  0  0  0  0
   73.4082   50.3801   67.4408 C   0  0  0  0  0  0  0  0  0  0  0  0
   72.7285   54.4936   65.3539 C   0  0  0  0  0  0  0  0  0  0  0  0
   73.1220   52.1076   62.4675 O   0  0  0  0  0  0  0  0  0  0  0  0
   74.8618   52.2969   65.5396 O   0  0  0  0  0  0  0  0  0  0  0  0
   74.0637   51.9184   61.4086 C   0  0  0  0  0  0  0  0  0  0  0  0
   75.6916   51.3839   64.8268 C   0  0  0  0  0  0  0  0  0  0  0  0
   74.3718   53.2247   68.0075 N   0  0  0  0  0  0  0  0  0  0  0  0
   74.7443   54.3431   68.8688 C   0  0  2  0  0  0  0  0  0  0  0  0
   74.9580   55.5152   67.8910 C   0  0  0  0  0  0  0  0  0  0  0  0
   75.8114   55.5334   67.0387 O   0  0  0  0  0  0  0  0  0  0  0  0
   75.9770   54.1149   69.7619 C   0  0  0  0  0  0  0  0  0  0  0  0
   76.2252   55.3611   70.6303 C   0  0  0  0  0  0  0  0  0  0  0  0
   75.7586   52.8968   70.6607 C   0  0  0  0  0  0  0  0  0  0  0  0
   74.4297   58.9189   67.6658 C   0  0  0  0  0  0  0  0  0  0  0  0
   73.8113   57.6088   67.1185 C   0  0  2  0  0  0  0  0  0  0  0  0
   74.2277   59.2964   68.8125 O   0  0  0  0  0  0  0  0  0  0  0  0
   72.3173   57.7312   66.8391 C   0  0  0  0  0  0  0  0  0  0  0  0
   71.8822   58.9092   66.0248 C   0  0  0  0  0  0  0  0  0  0  0  0
   71.8352   58.8453   64.6235 C   0  0  0  0  0  0  0  0  0  0  0  0
   71.4617   59.9803   63.8948 C   0  0  0  0  0  0  0  0  0  0  0  0
   71.1213   61.1579   64.5699 C   0  0  0  0  0  0  0  0  0  0  0  0
   71.1465   61.2056   65.9605 C   0  0  0  0  0  0  0  0  0  0  0  0
   71.5286   60.0946   66.6934 C   0  0  0  0  0  0  0  0  0  0  0  0
   70.7660   62.3579   66.5805 O   0  0  0  0  0  0  0  0  0  0  0  0
   73.9855   56.4879   68.0171 N   0  0  0  0  0  0  0  0  0  0  0  0
   71.7605   51.5424   66.7241 H   0  0  0  0  0  0  0  0  0  0  0  0
   73.3362   51.0739   64.8489 H   0  0  0  0  0  0  0  0  0  0  0  0
   71.6909   52.8250   64.5314 H   0  0  0  0  0  0  0  0  0  0  0  0
   74.4516   53.4460   63.3311 H   0  0  0  0  0  0  0  0  0  0  0  0
   71.6761   54.5984   62.5325 H   0  0  0  0  0  0  0  0  0  0  0  0
   76.3114   61.7910   64.3789 H   0  0  0  0  0  0  0  0  0  0  0  0
   74.6302   62.3222   64.1712 H   0  0  0  0  0  0  0  0  0  0  0  0
   74.1737   62.2219   66.4967 H   0  0  0  0  0  0  0  0  0  0  0  0
   75.7806   62.9676   66.3720 H   0  0  0  0  0  0  0  0  0  0  0  0
   75.5779   61.1806   68.1607 H   0  0  0  0  0  0  0  0  0  0  0  0
   76.8736   60.8850   66.9809 H   0  0  0  0  0  0  0  0  0  0  0  0
   76.3598   59.0410   65.2569 H   0  0  0  0  0  0  0  0  0  0  0  0
   73.7799   60.1860   64.5282 H   0  0  0  0  0  0  0  0  0  0  0  0
   75.6661   59.4487   60.6789 H   0  0  0  0  0  0  0  0  0  0  0  0
   74.6175   60.7565   60.1228 H   0  0  0  0  0  0  0  0  0  0  0  0
   73.7351   58.7220   59.1668 H   0  0  0  0  0  0  0  0  0  0  0  0
   72.6191   59.1645   60.4865 H   0  0  0  0  0  0  0  0  0  0  0  0
   74.9812   57.2594   60.9962 H   0  0  0  0  0  0  0  0  0  0  0  0
   71.9627   56.8721   61.3514 H   0  0  0  0  0  0  0  0  0  0  0  0
   74.6032   55.3370   62.0686 H   0  0  0  0  0  0  0  0  0  0  0  0
   72.9603   50.1771   68.4248 H   0  0  0  0  0  0  0  0  0  0  0  0
   74.4919   50.4576   67.5744 H   0  0  0  0  0  0  0  0  0  0  0  0
   73.1942   49.5277   66.7864 H   0  0  0  0  0  0  0  0  0  0  0  0
   72.2769   54.4349   66.3432 H   0  0  0  0  0  0  0  0  0  0  0  0
   72.1240   55.2176   64.7891 H   0  0  0  0  0  0  0  0  0  0  0  0
   73.7392   54.9027   65.4400 H   0  0  0  0  0  0  0  0  0  0  0  0
   73.8267   50.9886   60.8763 H   0  0  0  0  0  0  0  0  0  0  0  0
   75.0809   51.8338   61.8035 H   0  0  0  0  0  0  0  0  0  0  0  0
   74.0188   52.7498   60.7029 H   0  0  0  0  0  0  0  0  0  0  0  0
   76.7351   51.6990   64.9235 H   0  0  0  0  0  0  0  0  0  0  0  0
   75.4347   51.3672   63.7690 H   0  0  0  0  0  0  0  0  0  0  0  0
   75.5792   50.3819   65.2415 H   0  0  0  0  0  0  0  0  0  0  0  0
   75.0414   52.9221   67.2970 H   0  0  0  0  0  0  0  0  0  0  0  0
   73.9074   54.5491   69.5456 H   0  0  0  0  0  0  0  0  0  0  0  0
   76.8756   53.9405   69.1588 H   0  0  0  0  0  0  0  0  0  0  0  0
   77.0936   55.2256   71.2871 H   0  0  0  0  0  0  0  0  0  0  0  0
   75.3505   55.5815   71.2576 H   0  0  0  0  0  0  0  0  0  0  0  0
   76.4151   56.2338   69.9938 H   0  0  0  0  0  0  0  0  0  0  0  0
   75.5914   52.0082   70.0441 H   0  0  0  0  0  0  0  0  0  0  0  0
   74.8822   53.0428   71.3046 H   0  0  0  0  0  0  0  0  0  0  0  0
   76.6318   52.7151   71.2989 H   0  0  0  0  0  0  0  0  0  0  0  0
   74.3266   57.3694   66.1962 H   0  0  0  0  0  0  0  0  0  0  0  0
   71.7580   57.7456   67.7875 H   0  0  0  0  0  0  0  0  0  0  0  0
   72.0069   56.8243   66.3118 H   0  0  0  0  0  0  0  0  0  0  0  0
   72.1282   57.9347   64.1026 H   0  0  0  0  0  0  0  0  0  0  0  0
   71.4633   59.9549   62.8067 H   0  0  0  0  0  0  0  0  0  0  0  0
   70.8358   62.0407   64.0068 H   0  0  0  0  0  0  0  0  0  0  0  0
   71.5459   60.1211   67.7786 H   0  0  0  0  0  0  0  0  0  0  0  0
   71.4969   62.6642   67.1438 H   0  0  0  0  0  0  0  0  0  0  0  0
   73.3177   56.3753   68.7627 H   0  0  0  0  0  0  0  0  0  0  0  0
  1  2  1  0  0  0  0
  1 20  1  0  0  0  0
  1 22  1  0  0  0  0
  1 47  1  6  0  0  0
  2  3  1  0  0  0  0
  2 25  1  0  0  0  0
  2 48  1  6  0  0  0
  3  4  1  0  0  0  0
  3 23  1  0  0  0  0
  3 49  1  6  0  0  0
  4  5  1  0  0  0  0
  4 24  1  0  0  0  0
  4 50  1  1  0  0  0
  5 19  2  0  0  0  0
  5 51  1  0  0  0  0
  6  7  1  0  0  0  0
  6 11  1  0  0  0  0
  6 52  1  0  0  0  0
  6 53  1  0  0  0  0
  7  8  1  0  0  0  0
  7 54  1  0  0  0  0
  7 55  1  0  0  0  0
  8  9  1  0  0  0  0
  8 56  1  0  0  0  0
  8 57  1  0  0  0  0
  9 10  1  0  0  0  0
  9 35  1  0  0  0  0
 10 11  1  0  0  0  0
 10 58  1  0  0  0  0
 11 12  1  0  0  0  0
 11 59  1  1  0  0  0
 12 13  1  0  0  0  0
 12 14  2  0  0  0  0
 13 15  1  0  0  0  0
 15 16  1  0  0  0  0
 15 60  1  0  0  0  0
 15 61  1  0  0  0  0
 16 17  1  0  0  0  0
 16 62  1  0  0  0  0
 16 63  1  0  0  0  0
 17 18  2  0  0  0  0
 17 64  1  0  0  0  0
 18 19  1  0  0  0  0
 18 65  1  0  0  0  0
 19 66  1  0  0  0  0
 20 21  2  0  0  0  0
 20 28  1  0  0  0  0
 22 67  1  0  0  0  0
 22 68  1  0  0  0  0
 22 69  1  0  0  0  0
 23 70  1  0  0  0  0
 23 71  1  0  0  0  0
 23 72  1  0  0  0  0
 24 26  1  0  0  0  0
 25 27  1  0  0  0  0
 26 73  1  0  0  0  0
 26 74  1  0  0  0  0
 26 75  1  0  0  0  0
 27 76  1  0  0  0  0
 27 77  1  0  0  0  0
 27 78  1  0  0  0  0
 28 29  1  0  0  0  0
 28 79  1  0  0  0  0
 29 30  1  0  0  0  0
 29 32  1  0  0  0  0
 29 80  1  1  0  0  0
 30 31  2  0  0  0  0
 30 46  1  0  0  0  0
 32 33  1  0  0  0  0
 32 34  1  0  0  0  0
 32 81  1  0  0  0  0
 33 82  1  0  0  0  0
 33 83  1  0  0  0  0
 33 84  1  0  0  0  0
 34 85  1  0  0  0  0
 34 86  1  0  0  0  0
 34 87  1  0  0  0  0
 35 36  1  0  0  0  0
 35 37  2  0  0  0  0
 36 38  1  0  0  0  0
 36 46  1  0  0  0  0
 36 88  1  6  0  0  0
 38 39  1  0  0  0  0
 38 89  1  0  0  0  0
 38 90  1  0  0  0  0
 39 40  2  0  0  0  0
 39 44  1  0  0  0  0
 40 41  1  0  0  0  0
 40 91  1  0  0  0  0
 41 42  2  0  0  0  0
 41 92  1  0  0  0  0
 42 43  1  0  0  0  0
 42 93  1  0  0  0  0
 43 44  2  0  0  0  0
 43 45  1  0  0  0  0
 44 94  1  0  0  0  0
 45 95  1  0  0  0  0
 46 96  1  0  0  0  0
M  END
$$$$
