7K0
 OpenBabel04161911123D

 58 58  0  0  1  0  0  0  0  0999 V2000
   15.0141   41.1759  -11.4595 C   0  0  0  0  0  0  0  0  0  0  0  0
   13.6118   41.4671  -10.9107 C   0  0  0  0  0  0  0  0  0  0  0  0
   16.1127   41.3536  -10.6422 C   0  0  0  0  0  0  0  0  0  0  0  0
   17.4027   41.0329  -11.0959 C   0  0  0  0  0  0  0  0  0  0  0  0
   17.5710   40.5220  -12.3727 C   0  0  0  0  0  0  0  0  0  0  0  0
   16.4689   40.3463  -13.2052 C   0  0  0  0  0  0  0  0  0  0  0  0
   15.1888   40.6658  -12.7528 C   0  0  0  0  0  0  0  0  0  0  0  0
    7.8852   41.5908   -4.2590 C   0  0  2  0  0  0  0  0  0  0  0  0
    7.2956   42.2038   -2.9783 C   0  0  0  0  0  0  0  0  0  0  0  0
    8.2744   43.1018   -2.1891 C   0  0  0  0  0  0  0  0  0  0  0  0
    7.5272   44.1583   -1.3741 C   0  0  0  0  0  0  0  0  0  0  0  0
    9.3923   37.9791   -1.1925 N   0  3  0  0  0  0  0  0  0  0  0  0
   11.8585   40.2593   -6.6435 C   0  0  0  0  0  0  0  0  0  0  0  0
   11.3887   38.6266   -5.9265 P   0  0  2  0  0  0  0  0  0  0  0  0
   12.5725   37.7008   -6.0158 O   0  0  0  0  0  0  0  0  0  0  0  0
   10.0051   38.2015   -6.3336 O   0  0  0  0  0  0  0  0  0  0  0  0
   11.3016   38.9593   -4.2500 N   0  0  0  0  0  0  0  0  0  0  0  0
   10.0960   38.5313   -3.5522 C   0  0  2  0  0  0  0  0  0  0  0  0
    8.8369   39.3547   -3.7372 C   0  0  0  0  0  0  0  0  0  0  0  0
    9.0159   40.7011   -3.9360 N   0  0  0  0  0  0  0  0  0  0  0  0
    9.1253   42.2718   -1.2296 C   0  0  0  0  0  0  0  0  0  0  0  0
    7.7455   38.8776   -3.4116 O   0  0  0  0  0  0  0  0  0  0  0  0
    8.2451   42.6691   -5.3378 C   0  0  0  0  0  0  0  0  0  0  0  0
    9.4838   42.7234   -5.6094 O   0  0  0  0  0  0  0  0  0  0  0  0
    7.2791   43.3656   -5.7587 O   0  0  0  0  0  0  0  0  0  0  0  0
   13.3215   40.4713   -9.9415 O   0  0  0  0  0  0  0  0  0  0  0  0
   12.5223   40.9051   -8.9328 C   0  0  0  0  0  0  0  0  0  0  0  0
   12.5651   40.0351   -7.8934 N   0  0  0  0  0  0  0  0  0  0  0  0
   11.9216   41.9672   -8.9466 O   0  0  0  0  0  0  0  0  0  0  0  0
   10.4493   38.5407   -2.0641 C   0  0  0  0  0  0  0  0  0  0  0  0
   12.8791   41.4372  -11.7308 H   0  0  0  0  0  0  0  0  0  0  0  0
   13.6183   42.4888  -10.5075 H   0  0  0  0  0  0  0  0  0  0  0  0
   15.9862   41.7158   -9.6127 H   0  0  0  0  0  0  0  0  0  0  0  0
   18.2594   41.1667  -10.4305 H   0  0  0  0  0  0  0  0  0  0  0  0
   18.5653   40.2362  -12.7167 H   0  0  0  0  0  0  0  0  0  0  0  0
   16.5980   39.9371  -14.1934 H   0  0  0  0  0  0  0  0  0  0  0  0
   14.3371   40.5229  -13.4014 H   0  0  0  0  0  0  0  0  0  0  0  0
    7.1076   40.9722   -4.7172 H   0  0  0  0  0  0  0  0  0  0  0  0
    6.9615   41.3855   -2.3255 H   0  0  0  0  0  0  0  0  0  0  0  0
    6.3950   42.7735   -3.2398 H   0  0  0  0  0  0  0  0  0  0  0  0
    8.9351   43.6277   -2.8870 H   0  0  0  0  0  0  0  0  0  0  0  0
    8.2387   44.7872   -0.8267 H   0  0  0  0  0  0  0  0  0  0  0  0
    6.8536   43.6982   -0.6432 H   0  0  0  0  0  0  0  0  0  0  0  0
    6.9365   44.8121   -2.0235 H   0  0  0  0  0  0  0  0  0  0  0  0
    9.6658   38.0059   -0.2084 H   0  0  0  0  0  0  0  0  0  0  0  0
    8.5194   38.5162   -1.3289 H   0  0  0  0  0  0  0  0  0  0  0  0
   12.5645   40.7426   -5.9540 H   0  0  0  0  0  0  0  0  0  0  0  0
   10.9908   40.9068   -6.7751 H   0  0  0  0  0  0  0  0  0  0  0  0
   11.9373   39.6530   -3.8784 H   0  0  0  0  0  0  0  0  0  0  0  0
    9.8459   37.5080   -3.8591 H   0  0  0  0  0  0  0  0  0  0  0  0
    9.9083   41.0570   -4.2853 H   0  0  0  0  0  0  0  0  0  0  0  0
    9.6829   41.4991   -1.7520 H   0  0  0  0  0  0  0  0  0  0  0  0
    8.5036   41.7815   -0.4723 H   0  0  0  0  0  0  0  0  0  0  0  0
    9.8610   42.9007   -0.7154 H   0  0  0  0  0  0  0  0  0  0  0  0
   13.0575   39.1547   -7.9790 H   0  0  0  0  0  0  0  0  0  0  0  0
   11.3510   37.9386   -1.8827 H   0  0  0  0  0  0  0  0  0  0  0  0
   10.6568   39.5530   -1.6993 H   0  0  0  0  0  0  0  0  0  0  0  0
    9.1855   37.0159   -1.4764 H   0  0  0  0  0  0  0  0  0  0  0  0
  1  2  1  0  0  0  0
  1  3  2  0  0  0  0
  1  7  1  0  0  0  0
  2 26  1  0  0  0  0
  2 31  1  0  0  0  0
  2 32  1  0  0  0  0
  3  4  1  0  0  0  0
  3 33  1  0  0  0  0
  4  5  2  0  0  0  0
  4 34  1  0  0  0  0
  5  6  1  0  0  0  0
  5 35  1  0  0  0  0
  6  7  2  0  0  0  0
  6 36  1  0  0  0  0
  7 37  1  0  0  0  0
  8  9  1  0  0  0  0
  8 20  1  0  0  0  0
  8 23  1  0  0  0  0
  8 38  1  6  0  0  0
  9 10  1  0  0  0  0
  9 39  1  0  0  0  0
  9 40  1  0  0  0  0
 10 11  1  0  0  0  0
 10 21  1  0  0  0  0
 10 41  1  0  0  0  0
 11 42  1  0  0  0  0
 11 43  1  0  0  0  0
 11 44  1  0  0  0  0
 12 30  1  0  0  0  0
 12 45  1  0  0  0  0
 12 46  1  0  0  0  0
 12 58  1  0  0  0  0
 13 28  1  0  0  0  0
 13 47  1  0  0  0  0
 13 48  1  0  0  0  0
 14 13  1  6  0  0  0
 14 15  2  0  0  0  0
 14 16  1  0  0  0  0
 14 17  1  0  0  0  0
 17 18  1  0  0  0  0
 17 49  1  0  0  0  0
 18 19  1  0  0  0  0
 18 30  1  0  0  0  0
 18 50  1  6  0  0  0
 19 20  1  0  0  0  0
 19 22  2  0  0  0  0
 20 51  1  0  0  0  0
 21 52  1  0  0  0  0
 21 53  1  0  0  0  0
 21 54  1  0  0  0  0
 23 24  2  0  0  0  0
 23 25  1  0  0  0  0
 26 27  1  0  0  0  0
 27 28  1  0  0  0  0
 27 29  2  0  0  0  0
 28 55  1  0  0  0  0
 30 56  1  0  0  0  0
 30 57  1  0  0  0  0
M  CHG  1  12   1
M  END
$$$$
