7K4
 OpenBabel04161911083D

 44 46  0  0  1  0  0  0  0  0999 V2000
   27.5612    1.7742   -4.0840 C   0  0  0  0  0  0  0  0  0  0  0  0
   27.7913    1.6782   -2.5700 C   0  0  2  0  0  0  0  0  0  0  0  0
   26.8561    2.6389   -1.8213 C   0  0  0  0  0  0  0  0  0  0  0  0
   27.5596    3.8972   -1.8093 N   0  0  0  0  0  0  0  0  0  0  0  0
   26.9507    5.1621   -1.4655 C   0  0  0  0  0  0  0  0  0  0  0  0
   26.2610    5.8229   -2.6502 C   0  0  0  0  0  0  0  0  0  0  0  0
   24.7450    7.6280   -3.0237 C   0  0  0  0  0  0  0  0  0  0  0  0
   23.7968    8.1424   -5.1808 C   0  0  0  0  0  0  0  0  0  0  0  0
   23.0738    9.1778   -4.6034 C   0  0  0  0  0  0  0  0  0  0  0  0
   23.1758    9.4483   -3.2472 C   0  0  0  0  0  0  0  0  0  0  0  0
   22.4238   10.5150   -2.6818 C   0  0  0  0  0  0  0  0  0  0  0  0
   24.0131    8.6724   -2.4561 C   0  0  0  0  0  0  0  0  0  0  0  0
   29.1754    2.2742   -2.2234 C   0  0  0  0  0  0  0  0  0  0  0  0
   28.6192   -0.6647   -2.0352 C   0  0  0  0  0  0  0  0  0  0  0  0
   28.3919   -1.9870   -1.6698 C   0  0  0  0  0  0  0  0  0  0  0  0
   27.0994   -2.4343   -1.4473 C   0  0  0  0  0  0  0  0  0  0  0  0
   26.0327   -1.5622   -1.5897 C   0  0  0  0  0  0  0  0  0  0  0  0
   26.2607   -0.2423   -1.9545 C   0  0  0  0  0  0  0  0  0  0  0  0
   25.5270    6.9408   -2.1464 O   0  0  0  0  0  0  0  0  0  0  0  0
   24.6354    7.3652   -4.3854 C   0  0  0  0  0  0  0  0  0  0  0  0
   22.2719    9.9168   -5.3758 F   0  0  0  0  0  0  0  0  0  0  0  0
   21.8073   11.3914   -2.2081 N   0  0  0  0  0  0  0  0  0  0  0  0
   28.9049    3.7572   -2.0795 C   0  0  0  0  0  0  0  0  0  0  0  0
   29.7112    4.6678   -2.1671 O   0  0  0  0  0  0  0  0  0  0  0  0
   27.5610    0.2323   -2.1736 C   0  0  0  0  0  0  0  0  0  0  0  0
   27.7222    2.8008   -4.4273 H   0  0  0  0  0  0  0  0  0  0  0  0
   26.5335    1.4763   -4.3278 H   0  0  0  0  0  0  0  0  0  0  0  0
   28.2547    1.1092   -4.6169 H   0  0  0  0  0  0  0  0  0  0  0  0
   26.6919    2.3044   -0.7875 H   0  0  0  0  0  0  0  0  0  0  0  0
   25.8942    2.7469   -2.3277 H   0  0  0  0  0  0  0  0  0  0  0  0
   27.7222    5.8486   -1.0871 H   0  0  0  0  0  0  0  0  0  0  0  0
   26.2207    4.9825   -0.6752 H   0  0  0  0  0  0  0  0  0  0  0  0
   25.5832    5.0983   -3.1137 H   0  0  0  0  0  0  0  0  0  0  0  0
   27.0129    6.1496   -3.3742 H   0  0  0  0  0  0  0  0  0  0  0  0
   23.7058    7.9450   -6.2434 H   0  0  0  0  0  0  0  0  0  0  0  0
   24.1019    8.8741   -1.3933 H   0  0  0  0  0  0  0  0  0  0  0  0
   29.9026    2.1080   -3.0156 H   0  0  0  0  0  0  0  0  0  0  0  0
   29.5472    1.8801   -1.2736 H   0  0  0  0  0  0  0  0  0  0  0  0
   29.6363   -0.3360   -2.2046 H   0  0  0  0  0  0  0  0  0  0  0  0
   29.2238   -2.6716   -1.5582 H   0  0  0  0  0  0  0  0  0  0  0  0
   26.9230   -3.4642   -1.1631 H   0  0  0  0  0  0  0  0  0  0  0  0
   25.0234   -1.9131   -1.4164 H   0  0  0  0  0  0  0  0  0  0  0  0
   25.4119    0.4237   -2.0610 H   0  0  0  0  0  0  0  0  0  0  0  0
   25.1950    6.5617   -4.8441 H   0  0  0  0  0  0  0  0  0  0  0  0
  1 26  1  0  0  0  0
  1 27  1  0  0  0  0
  1 28  1  0  0  0  0
  2  1  1  6  0  0  0
  2  3  1  0  0  0  0
  2 13  1  0  0  0  0
  2 25  1  0  0  0  0
  3  4  1  0  0  0  0
  3 29  1  0  0  0  0
  3 30  1  0  0  0  0
  4  5  1  0  0  0  0
  4 23  1  0  0  0  0
  5  6  1  0  0  0  0
  5 31  1  0  0  0  0
  5 32  1  0  0  0  0
  6 19  1  0  0  0  0
  6 33  1  0  0  0  0
  6 34  1  0  0  0  0
  7 12  2  0  0  0  0
  7 19  1  0  0  0  0
  7 20  1  0  0  0  0
  8  9  1  0  0  0  0
  8 20  2  0  0  0  0
  8 35  1  0  0  0  0
  9 10  2  0  0  0  0
  9 21  1  0  0  0  0
 10 11  1  0  0  0  0
 10 12  1  0  0  0  0
 11 22  3  0  0  0  0
 12 36  1  0  0  0  0
 13 23  1  0  0  0  0
 13 37  1  0  0  0  0
 13 38  1  0  0  0  0
 14 15  2  0  0  0  0
 14 25  1  0  0  0  0
 14 39  1  0  0  0  0
 15 16  1  0  0  0  0
 15 40  1  0  0  0  0
 16 17  2  0  0  0  0
 16 41  1  0  0  0  0
 17 18  1  0  0  0  0
 17 42  1  0  0  0  0
 18 25  2  0  0  0  0
 18 43  1  0  0  0  0
 20 44  1  0  0  0  0
 23 24  2  0  0  0  0
M  END
$$$$
