7LT
 OpenBabel04161911133D

105110  0  0  1  0  0  0  0  0999 V2000
  -10.6037    0.0714  -28.2203 C   0  0  0  0  0  0  0  0  0  0  0  0
   -9.6446    1.1888  -27.8589 C   0  0  0  0  0  0  0  0  0  0  0  0
   -8.4511    0.7414  -27.0567 C   0  0  0  0  0  0  0  0  0  0  0  0
  -11.1586   -4.4655  -23.7899 C   0  0  1  0  0  0  0  0  0  0  0  0
  -11.7697   -5.0480  -22.5247 C   0  0  0  0  0  0  0  0  0  0  0  0
  -12.0008   -6.5551  -22.6076 C   0  0  0  0  0  0  0  0  0  0  0  0
  -11.1387   -7.2777  -23.6111 C   0  0  0  0  0  0  0  0  0  0  0  0
  -10.3162   -8.2889  -23.1165 C   0  0  0  0  0  0  0  0  0  0  0  0
   -9.4994   -9.0262  -23.9639 C   0  0  0  0  0  0  0  0  0  0  0  0
   -9.4919   -8.7584  -25.3263 C   0  0  0  0  0  0  0  0  0  0  0  0
  -10.3139   -7.7640  -25.8450 C   0  0  0  0  0  0  0  0  0  0  0  0
  -11.1484   -7.0240  -24.9973 C   0  0  0  0  0  0  0  0  0  0  0  0
  -12.0813   -4.7460  -24.9895 C   0  0  0  0  0  0  0  0  0  0  0  0
  -10.6386   -3.9291  -28.9204 C   0  0  1  0  0  0  0  0  0  0  0  0
  -11.3999   -2.6065  -28.9273 C   0  0  0  0  0  0  0  0  0  0  0  0
  -10.9768   -1.6288  -30.0274 C   0  0  0  0  0  0  0  0  0  0  0  0
   -9.1364   -3.7012  -28.7153 C   0  0  0  0  0  0  0  0  0  0  0  0
   -7.9484   -5.4584  -27.3416 C   0  0  0  0  0  0  0  0  0  0  0  0
   -7.2101   -6.8564  -29.6687 C   0  0  0  0  0  0  0  0  0  0  0  0
   -5.5010   -7.3483  -31.5422 C   0  0  0  0  0  0  0  0  0  0  0  0
   -5.0509   -8.5101  -32.4024 C   0  0  0  0  0  0  0  0  0  0  0  0
   -5.5829   -8.7073  -33.6803 C   0  0  0  0  0  0  0  0  0  0  0  0
   -5.2148   -9.8171  -34.4405 C   0  0  0  0  0  0  0  0  0  0  0  0
   -4.3057  -10.7404  -33.9385 C   0  0  0  0  0  0  0  0  0  0  0  0
   -3.7730  -10.5580  -32.6685 C   0  0  0  0  0  0  0  0  0  0  0  0
   -6.2609   -6.5538  -22.9311 Cl  0  0  0  0  0  0  0  0  0  0  0  0
   -6.5919   -4.8971  -23.2352 C   0  0  0  0  0  0  0  0  0  0  0  0
   -6.2549   -4.3373  -24.4596 C   0  0  0  0  0  0  0  0  0  0  0  0
   -6.5105   -2.9870  -24.7032 C   0  0  0  0  0  0  0  0  0  0  0  0
   -7.1942   -4.1180  -22.2554 C   0  0  0  0  0  0  0  0  0  0  0  0
   -7.4534   -2.7692  -22.5018 C   0  0  0  0  0  0  0  0  0  0  0  0
   -7.1108   -2.1897  -23.7264 C   0  0  0  0  0  0  0  0  0  0  0  0
   -7.4302   -0.7455  -24.0061 C   0  0  0  0  0  0  0  0  0  0  0  0
   -8.6355   -0.6053  -24.9416 C   0  0  2  0  0  0  0  0  0  0  0  0
   -8.6614    0.7677  -25.5709 N   0  3  0  0  0  0  0  0  0  0  0  0
   -9.9658   -0.8900  -24.2647 C   0  0  0  0  0  0  0  0  0  0  0  0
  -10.2955   -2.3298  -24.6242 C   0  0  0  0  0  0  0  0  0  0  0  0
  -10.0643   -2.7851  -25.7173 O   0  0  0  0  0  0  0  0  0  0  0  0
  -10.8732   -3.0395  -23.6169 N   0  0  0  0  0  0  0  0  0  0  0  0
  -12.8144   -3.8697  -25.4799 O   0  0  0  0  0  0  0  0  0  0  0  0
  -11.9543   -6.0013  -25.5535 N   0  0  0  0  0  0  0  0  0  0  0  0
  -12.7510   -6.2998  -26.7419 C   0  0  0  0  0  0  0  0  0  0  0  0
  -12.2998   -5.5325  -27.9983 C   0  0  0  0  0  0  0  0  0  0  0  0
  -12.9181   -5.6124  -29.0352 O   0  0  0  0  0  0  0  0  0  0  0  0
  -11.1555   -4.7941  -27.8616 N   0  0  0  0  0  0  0  0  0  0  0  0
  -10.9789   -1.9710  -31.1865 O   0  0  0  0  0  0  0  0  0  0  0  0
  -10.5747   -0.3559  -29.6124 N   0  0  0  0  0  0  0  0  0  0  0  0
  -10.2056    0.6175  -30.6416 C   0  0  0  0  0  0  0  0  0  0  0  0
   -8.3247   -4.9644  -28.5905 C   0  0  0  0  0  0  0  0  0  0  0  0
   -7.9589   -5.6755  -29.7365 C   0  0  0  0  0  0  0  0  0  0  0  0
   -6.8519   -7.3326  -28.4021 C   0  0  0  0  0  0  0  0  0  0  0  0
   -5.9479   -8.7883  -28.2142 Cl  0  0  0  0  0  0  0  0  0  0  0  0
   -7.2211   -6.6415  -27.2453 C   0  0  0  0  0  0  0  0  0  0  0  0
   -6.9038   -7.5876  -30.9604 C   0  0  0  0  0  0  0  0  0  0  0  0
   -4.1353   -9.4481  -31.9082 C   0  0  0  0  0  0  0  0  0  0  0  0
  -11.6284    0.3792  -27.9909 H   0  0  0  0  0  0  0  0  0  0  0  0
  -10.3382   -0.7728  -27.5938 H   0  0  0  0  0  0  0  0  0  0  0  0
  -10.1978    1.9729  -27.3476 H   0  0  0  0  0  0  0  0  0  0  0  0
   -9.2368    1.6278  -28.7644 H   0  0  0  0  0  0  0  0  0  0  0  0
   -7.6170    1.4189  -27.2458 H   0  0  0  0  0  0  0  0  0  0  0  0
   -8.1729   -0.2761  -27.3324 H   0  0  0  0  0  0  0  0  0  0  0  0
  -10.1933   -4.9527  -23.9770 H   0  0  0  0  0  0  0  0  0  0  0  0
  -12.7278   -4.5544  -22.3100 H   0  0  0  0  0  0  0  0  0  0  0  0
  -11.0993   -4.8379  -21.6806 H   0  0  0  0  0  0  0  0  0  0  0  0
  -13.0577   -6.7440  -22.8482 H   0  0  0  0  0  0  0  0  0  0  0  0
  -11.8192   -6.9810  -21.6128 H   0  0  0  0  0  0  0  0  0  0  0  0
  -10.3103   -8.5103  -22.0498 H   0  0  0  0  0  0  0  0  0  0  0  0
   -8.8714   -9.8115  -23.5573 H   0  0  0  0  0  0  0  0  0  0  0  0
   -8.8451   -9.3369  -25.9824 H   0  0  0  0  0  0  0  0  0  0  0  0
  -10.2725   -7.5540  -26.9125 H   0  0  0  0  0  0  0  0  0  0  0  0
  -10.8028   -4.4351  -29.8749 H   0  0  0  0  0  0  0  0  0  0  0  0
  -11.2967   -2.1679  -27.9453 H   0  0  0  0  0  0  0  0  0  0  0  0
  -12.4666   -2.7921  -29.0579 H   0  0  0  0  0  0  0  0  0  0  0  0
   -8.9733   -3.1002  -27.8154 H   0  0  0  0  0  0  0  0  0  0  0  0
   -8.7492   -3.1305  -29.5645 H   0  0  0  0  0  0  0  0  0  0  0  0
   -8.2309   -4.9244  -26.4373 H   0  0  0  0  0  0  0  0  0  0  0  0
   -5.4949   -6.4385  -32.1572 H   0  0  0  0  0  0  0  0  0  0  0  0
   -4.7722   -7.2054  -30.7380 H   0  0  0  0  0  0  0  0  0  0  0  0
   -6.2988   -7.9997  -34.0840 H   0  0  0  0  0  0  0  0  0  0  0  0
   -5.6428   -9.9650  -35.4282 H   0  0  0  0  0  0  0  0  0  0  0  0
   -4.0119  -11.5985  -34.5358 H   0  0  0  0  0  0  0  0  0  0  0  0
   -3.0726  -11.2852  -32.2679 H   0  0  0  0  0  0  0  0  0  0  0  0
   -5.7940   -4.9501  -25.2311 H   0  0  0  0  0  0  0  0  0  0  0  0
   -6.2422   -2.5658  -25.6698 H   0  0  0  0  0  0  0  0  0  0  0  0
   -7.4588   -4.5569  -21.2975 H   0  0  0  0  0  0  0  0  0  0  0  0
   -7.9311   -2.1729  -21.7289 H   0  0  0  0  0  0  0  0  0  0  0  0
   -6.5472   -0.2778  -24.4619 H   0  0  0  0  0  0  0  0  0  0  0  0
   -7.6330   -0.2301  -23.0595 H   0  0  0  0  0  0  0  0  0  0  0  0
   -8.4899   -1.2950  -25.7692 H   0  0  0  0  0  0  0  0  0  0  0  0
   -7.9125    1.3386  -25.1547 H   0  0  0  0  0  0  0  0  0  0  0  0
  -10.7643   -0.2416  -24.6433 H   0  0  0  0  0  0  0  0  0  0  0  0
   -9.8914   -0.7599  -23.1809 H   0  0  0  0  0  0  0  0  0  0  0  0
  -11.0446   -2.6171  -22.7229 H   0  0  0  0  0  0  0  0  0  0  0  0
  -13.7926   -6.0190  -26.5438 H   0  0  0  0  0  0  0  0  0  0  0  0
  -12.7066   -7.3716  -26.9564 H   0  0  0  0  0  0  0  0  0  0  0  0
  -10.6784   -4.8156  -26.9719 H   0  0  0  0  0  0  0  0  0  0  0  0
  -10.2337    0.1870  -31.6413 H   0  0  0  0  0  0  0  0  0  0  0  0
   -9.1762    0.9366  -30.4631 H   0  0  0  0  0  0  0  0  0  0  0  0
  -10.8749    1.4820  -30.5864 H   0  0  0  0  0  0  0  0  0  0  0  0
   -8.2891   -5.3148  -30.7101 H   0  0  0  0  0  0  0  0  0  0  0  0
   -6.9377   -7.0208  -26.2660 H   0  0  0  0  0  0  0  0  0  0  0  0
   -7.6538   -7.2809  -31.7018 H   0  0  0  0  0  0  0  0  0  0  0  0
   -7.0605   -8.6582  -30.7848 H   0  0  0  0  0  0  0  0  0  0  0  0
   -3.7171   -9.3254  -30.9142 H   0  0  0  0  0  0  0  0  0  0  0  0
   -9.5441    1.2409  -25.3509 H   0  0  0  0  0  0  0  0  0  0  0  0
  1  2  1  0  0  0  0
  1 47  1  0  0  0  0
  1 56  1  0  0  0  0
  1 57  1  0  0  0  0
  2  3  1  0  0  0  0
  2 58  1  0  0  0  0
  2 59  1  0  0  0  0
  3 35  1  0  0  0  0
  3 60  1  0  0  0  0
  3 61  1  0  0  0  0
  4  5  1  0  0  0  0
  4 13  1  0  0  0  0
  4 39  1  0  0  0  0
  4 62  1  6  0  0  0
  5  6  1  0  0  0  0
  5 63  1  0  0  0  0
  5 64  1  0  0  0  0
  6  7  1  0  0  0  0
  6 65  1  0  0  0  0
  6 66  1  0  0  0  0
  7  8  2  0  0  0  0
  7 12  1  0  0  0  0
  8  9  1  0  0  0  0
  8 67  1  0  0  0  0
  9 10  2  0  0  0  0
  9 68  1  0  0  0  0
 10 11  1  0  0  0  0
 10 69  1  0  0  0  0
 11 12  2  0  0  0  0
 11 70  1  0  0  0  0
 12 41  1  0  0  0  0
 13 40  2  0  0  0  0
 13 41  1  0  0  0  0
 14 15  1  0  0  0  0
 14 17  1  0  0  0  0
 14 45  1  0  0  0  0
 14 71  1  6  0  0  0
 15 16  1  0  0  0  0
 15 72  1  0  0  0  0
 15 73  1  0  0  0  0
 16 46  2  0  0  0  0
 16 47  1  0  0  0  0
 17 49  1  0  0  0  0
 17 74  1  0  0  0  0
 17 75  1  0  0  0  0
 18 49  2  0  0  0  0
 18 53  1  0  0  0  0
 18 76  1  0  0  0  0
 19 50  2  0  0  0  0
 19 51  1  0  0  0  0
 19 54  1  0  0  0  0
 20 21  1  0  0  0  0
 20 54  1  0  0  0  0
 20 77  1  0  0  0  0
 20 78  1  0  0  0  0
 21 22  2  0  0  0  0
 21 55  1  0  0  0  0
 22 23  1  0  0  0  0
 22 79  1  0  0  0  0
 23 24  2  0  0  0  0
 23 80  1  0  0  0  0
 24 25  1  0  0  0  0
 24 81  1  0  0  0  0
 25 55  2  0  0  0  0
 25 82  1  0  0  0  0
 26 27  1  0  0  0  0
 27 28  2  0  0  0  0
 27 30  1  0  0  0  0
 28 29  1  0  0  0  0
 28 83  1  0  0  0  0
 29 32  2  0  0  0  0
 29 84  1  0  0  0  0
 30 31  2  0  0  0  0
 30 85  1  0  0  0  0
 31 32  1  0  0  0  0
 31 86  1  0  0  0  0
 32 33  1  0  0  0  0
 33 34  1  0  0  0  0
 33 87  1  0  0  0  0
 33 88  1  0  0  0  0
 34 35  1  0  0  0  0
 34 36  1  0  0  0  0
 34 89  1  6  0  0  0
 35 90  1  0  0  0  0
 35105  1  0  0  0  0
 36 37  1  0  0  0  0
 36 91  1  0  0  0  0
 36 92  1  0  0  0  0
 37 38  2  0  0  0  0
 37 39  1  0  0  0  0
 39 93  1  0  0  0  0
 41 42  1  0  0  0  0
 42 43  1  0  0  0  0
 42 94  1  0  0  0  0
 42 95  1  0  0  0  0
 43 44  2  0  0  0  0
 43 45  1  0  0  0  0
 45 96  1  0  0  0  0
 47 48  1  0  0  0  0
 48 97  1  0  0  0  0
 48 98  1  0  0  0  0
 48 99  1  0  0  0  0
 49 50  1  0  0  0  0
 50100  1  0  0  0  0
 51 52  1  0  0  0  0
 51 53  2  0  0  0  0
 53101  1  0  0  0  0
 54102  1  0  0  0  0
 54103  1  0  0  0  0
 55104  1  0  0  0  0
M  CHG  1  35   1
M  END
$$$$
