7M8
 OpenBabel04161911143D

 55 59  0  0  0  0  0  0  0  0999 V2000
   23.0326   68.6054   17.3888 C   0  0  0  0  0  0  0  0  0  0  0  0
   22.3243   69.6854   16.8819 C   0  0  0  0  0  0  0  0  0  0  0  0
   21.0369   69.9589   17.3568 C   0  0  0  0  0  0  0  0  0  0  0  0
   20.4489   69.1666   18.3534 C   0  0  0  0  0  0  0  0  0  0  0  0
   20.3450   65.0636   21.2663 C   0  0  0  0  0  0  0  0  0  0  0  0
   21.0027   63.7206   21.5127 C   0  0  0  0  0  0  0  0  0  0  0  0
   19.1733   69.4657   18.8490 C   0  0  0  0  0  0  0  0  0  0  0  0
   18.5697   68.6694   19.8145 C   0  0  0  0  0  0  0  0  0  0  0  0
   19.2282   67.5543   20.2992 C   0  0  0  0  0  0  0  0  0  0  0  0
   18.4257   70.6349   18.3479 C   0  0  0  0  0  0  0  0  0  0  0  0
   18.2236   72.3219   16.6548 C   0  0  0  0  0  0  0  0  0  0  0  0
   18.1856   73.6470   17.1600 C   0  0  0  0  0  0  0  0  0  0  0  0
   17.4220   74.6181   16.4842 C   0  0  0  0  0  0  0  0  0  0  0  0
   16.7099   74.2273   15.3649 C   0  0  0  0  0  0  0  0  0  0  0  0
   16.7414   72.9117   14.8974 C   0  0  0  0  0  0  0  0  0  0  0  0
   17.4924   71.9428   15.5178 C   0  0  0  0  0  0  0  0  0  0  0  0
   15.3538   74.0972   13.5211 C   0  0  0  0  0  0  0  0  0  0  0  0
   15.5495   76.3502   14.6142 C   0  0  0  0  0  0  0  0  0  0  0  0
   20.2807   71.0837   16.7629 C   0  0  0  0  0  0  0  0  0  0  0  0
   20.8018   71.7403   15.8636 O   0  0  0  0  0  0  0  0  0  0  0  0
   19.0043   71.3185   17.2768 N   0  3  0  0  0  0  0  0  0  0  0  0
   17.3570   70.9369   18.8742 O   0  0  0  0  0  0  0  0  0  0  0  0
   20.5106   67.2127   19.8352 C   0  0  0  0  0  0  0  0  0  0  0  0
   21.2039   65.9735   20.3785 C   0  0  0  0  0  0  0  0  0  0  0  0
   22.3085   63.9287   22.0240 O   0  0  0  0  0  0  0  0  0  0  0  0
   21.1452   68.0372   18.8586 C   0  0  0  0  0  0  0  0  0  0  0  0
   22.4472   67.7921   18.3583 C   0  0  0  0  0  0  0  0  0  0  0  0
   15.9127   72.8268   13.7711 N   0  3  0  0  0  0  0  0  0  0  0  0
   15.6680   71.6620   12.9744 C   0  0  0  0  0  0  0  0  0  0  0  0
   14.5816   74.3943   12.6217 O   0  0  0  0  0  0  0  0  0  0  0  0
   15.8652   74.9574   14.5189 N   0  3  0  0  0  0  0  0  0  0  0  0
   18.9245   74.0513   18.4076 C   0  0  0  0  0  0  0  0  0  0  0  0
   24.0344   68.3881   17.0265 H   0  0  0  0  0  0  0  0  0  0  0  0
   22.7775   70.3104   16.1131 H   0  0  0  0  0  0  0  0  0  0  0  0
   20.1830   65.5668   22.2277 H   0  0  0  0  0  0  0  0  0  0  0  0
   19.3648   64.8783   20.8128 H   0  0  0  0  0  0  0  0  0  0  0  0
   21.0673   63.1485   20.5817 H   0  0  0  0  0  0  0  0  0  0  0  0
   20.4241   63.1445   22.2408 H   0  0  0  0  0  0  0  0  0  0  0  0
   17.5710   68.9008   20.1879 H   0  0  0  0  0  0  0  0  0  0  0  0
   18.7128   66.9622   21.0480 H   0  0  0  0  0  0  0  0  0  0  0  0
   17.3932   75.6406   16.8436 H   0  0  0  0  0  0  0  0  0  0  0  0
   17.5183   70.9229   15.1572 H   0  0  0  0  0  0  0  0  0  0  0  0
   16.0590   76.8286   15.4552 H   0  0  0  0  0  0  0  0  0  0  0  0
   14.4684   76.4608   14.7325 H   0  0  0  0  0  0  0  0  0  0  0  0
   15.8453   76.8432   13.6838 H   0  0  0  0  0  0  0  0  0  0  0  0
   21.5623   65.3784   19.5278 H   0  0  0  0  0  0  0  0  0  0  0  0
   22.0802   66.3072   20.9507 H   0  0  0  0  0  0  0  0  0  0  0  0
   22.7064   63.0526   22.1561 H   0  0  0  0  0  0  0  0  0  0  0  0
   23.0310   66.9487   18.7237 H   0  0  0  0  0  0  0  0  0  0  0  0
   16.1983   70.7852   13.3555 H   0  0  0  0  0  0  0  0  0  0  0  0
   15.9921   71.8614   11.9487 H   0  0  0  0  0  0  0  0  0  0  0  0
   14.5937   71.4573   12.9619 H   0  0  0  0  0  0  0  0  0  0  0  0
   19.4934   73.2289   18.8501 H   0  0  0  0  0  0  0  0  0  0  0  0
   18.2124   74.3951   19.1647 H   0  0  0  0  0  0  0  0  0  0  0  0
   19.6347   74.8530   18.1853 H   0  0  0  0  0  0  0  0  0  0  0  0
  1  2  2  0  0  0  0
  1 27  1  0  0  0  0
  1 33  1  0  0  0  0
  2  3  1  0  0  0  0
  2 34  1  0  0  0  0
  3  4  2  0  0  0  0
  3 19  1  0  0  0  0
  4  7  1  0  0  0  0
  4 26  1  0  0  0  0
  5  6  1  0  0  0  0
  5 24  1  0  0  0  0
  5 35  1  0  0  0  0
  5 36  1  0  0  0  0
  6 25  1  0  0  0  0
  6 37  1  0  0  0  0
  6 38  1  0  0  0  0
  7  8  2  0  0  0  0
  7 10  1  0  0  0  0
  8  9  1  0  0  0  0
  8 39  1  0  0  0  0
  9 23  2  0  0  0  0
  9 40  1  0  0  0  0
 10 21  1  0  0  0  0
 10 22  2  0  0  0  0
 11 12  2  0  0  0  0
 11 16  1  0  0  0  0
 11 21  1  0  0  0  0
 12 13  1  0  0  0  0
 12 32  1  0  0  0  0
 13 14  2  0  0  0  0
 13 41  1  0  0  0  0
 14 15  1  0  0  0  0
 14 31  1  0  0  0  0
 15 16  2  0  0  0  0
 15 28  1  0  0  0  0
 16 42  1  0  0  0  0
 17 28  1  0  0  0  0
 17 30  2  0  0  0  0
 17 31  1  0  0  0  0
 18 31  1  0  0  0  0
 18 43  1  0  0  0  0
 18 44  1  0  0  0  0
 18 45  1  0  0  0  0
 19 20  2  0  0  0  0
 19 21  1  0  0  0  0
 23 24  1  0  0  0  0
 23 26  1  0  0  0  0
 24 46  1  0  0  0  0
 24 47  1  0  0  0  0
 25 48  1  0  0  0  0
 26 27  2  0  0  0  0
 27 49  1  0  0  0  0
 28 29  1  0  0  0  0
 29 50  1  0  0  0  0
 29 51  1  0  0  0  0
 29 52  1  0  0  0  0
 32 53  1  0  0  0  0
 32 54  1  0  0  0  0
 32 55  1  0  0  0  0
M  CHG  3  21   1  28   1  31   1
M  END
$$$$
