7MA
 OpenBabel04161912173D

 58 60  0  0  0  0  0  0  0  0999 V2000
   36.6040   38.3572  -49.9454 C   0  0  0  0  0  0  0  0  0  0  0  0
   39.8086   39.0097  -55.1298 C   0  0  0  0  0  0  0  0  0  0  0  0
   41.3572   40.6719  -54.0500 C   0  0  0  0  0  0  0  0  0  0  0  0
   41.4646   41.8513  -54.7871 C   0  0  0  0  0  0  0  0  0  0  0  0
   42.2605   44.1073  -50.7090 C   0  0  0  0  0  0  0  0  0  0  0  0
   43.3967   39.7586  -56.3236 C   0  0  0  0  0  0  0  0  0  0  0  0
   43.7958   40.6675  -58.5480 C   0  0  0  0  0  0  0  0  0  0  0  0
   44.8710   40.5575  -54.3731 C   0  0  0  0  0  0  0  0  0  0  0  0
   44.4300   40.5691  -55.8089 C   0  0  0  0  0  0  0  0  0  0  0  0
   45.1048   41.4458  -56.6822 C   0  0  0  0  0  0  0  0  0  0  0  0
   44.7884   41.4973  -58.0375 C   0  0  0  0  0  0  0  0  0  0  0  0
   43.1019   39.7991  -57.7012 C   0  0  0  0  0  0  0  0  0  0  0  0
   42.4931   38.5686  -55.3154 S   0  0  0  0  0  0  0  0  0  0  0  0
   41.9868   37.5546  -56.2227 O   0  0  0  0  0  0  0  0  0  0  0  0
   43.3339   38.1654  -54.2094 O   0  0  0  0  0  0  0  0  0  0  0  0
   41.1552   39.3977  -54.6732 N   0  0  0  0  0  0  0  0  0  0  0  0
   41.5326   40.7620  -52.6749 C   0  0  0  0  0  0  0  0  0  0  0  0
   41.8124   41.9081  -52.0125 N   0  0  0  0  0  0  0  0  0  0  0  0
   41.7909   43.0449  -54.1328 C   0  0  0  0  0  0  0  0  0  0  0  0
   41.9427   43.0263  -52.7539 C   0  0  0  0  0  0  0  0  0  0  0  0
   42.2840   44.2110  -52.1339 O   0  0  0  0  0  0  0  0  0  0  0  0
   38.7117   39.0803  -54.0725 C   0  0  0  0  0  0  0  0  0  0  0  0
   37.9948   40.0859  -54.0233 O   0  0  0  0  0  0  0  0  0  0  0  0
   38.5003   38.0056  -53.2077 N   0  0  0  0  0  0  0  0  0  0  0  0
   39.3473   36.8086  -53.0998 C   0  0  0  0  0  0  0  0  0  0  0  0
   38.7827   35.6220  -53.8664 C   0  0  0  0  0  0  0  0  0  0  0  0
   37.3311   38.0597  -52.3226 C   0  0  0  0  0  0  0  0  0  0  0  0
   37.6116   38.4716  -50.9027 C   0  0  0  0  0  0  0  0  0  0  0  0
   36.8442   38.7259  -48.6253 C   0  0  0  0  0  0  0  0  0  0  0  0
   38.1069   39.2119  -48.3052 C   0  0  0  0  0  0  0  0  0  0  0  0
   39.1036   39.3462  -49.1985 N   0  0  0  0  0  0  0  0  0  0  0  0
   38.8226   38.9888  -50.4699 C   0  0  0  0  0  0  0  0  0  0  0  0
   35.6205   37.9801  -50.2220 H   0  0  0  0  0  0  0  0  0  0  0  0
   39.7888   37.9929  -55.5283 H   0  0  0  0  0  0  0  0  0  0  0  0
   39.5157   39.6671  -55.9559 H   0  0  0  0  0  0  0  0  0  0  0  0
   41.3521   41.8520  -55.8676 H   0  0  0  0  0  0  0  0  0  0  0  0
   42.5430   45.0786  -50.2911 H   0  0  0  0  0  0  0  0  0  0  0  0
   42.9867   43.3712  -50.3438 H   0  0  0  0  0  0  0  0  0  0  0  0
   41.2520   43.8718  -50.3500 H   0  0  0  0  0  0  0  0  0  0  0  0
   43.5729   40.6897  -59.6136 H   0  0  0  0  0  0  0  0  0  0  0  0
   45.6510   41.3031  -54.1849 H   0  0  0  0  0  0  0  0  0  0  0  0
   45.2883   39.5854  -54.1026 H   0  0  0  0  0  0  0  0  0  0  0  0
   44.0465   40.8090  -53.7104 H   0  0  0  0  0  0  0  0  0  0  0  0
   45.8981   42.0907  -56.3065 H   0  0  0  0  0  0  0  0  0  0  0  0
   45.3349   42.1703  -58.6962 H   0  0  0  0  0  0  0  0  0  0  0  0
   42.3492   39.1426  -58.1319 H   0  0  0  0  0  0  0  0  0  0  0  0
   41.4848   39.8823  -52.0456 H   0  0  0  0  0  0  0  0  0  0  0  0
   41.9389   43.9641  -54.6916 H   0  0  0  0  0  0  0  0  0  0  0  0
   39.4368   36.5421  -52.0395 H   0  0  0  0  0  0  0  0  0  0  0  0
   40.3548   37.0330  -53.4547 H   0  0  0  0  0  0  0  0  0  0  0  0
   39.4374   34.7519  -53.7526 H   0  0  0  0  0  0  0  0  0  0  0  0
   38.6899   35.8494  -54.9317 H   0  0  0  0  0  0  0  0  0  0  0  0
   37.7907   35.3393  -53.4982 H   0  0  0  0  0  0  0  0  0  0  0  0
   36.8741   37.0660  -52.3137 H   0  0  0  0  0  0  0  0  0  0  0  0
   36.5792   38.7449  -52.7376 H   0  0  0  0  0  0  0  0  0  0  0  0
   36.0775   38.6441  -47.8736 H   0  0  0  0  0  0  0  0  0  0  0  0
   38.3467   39.5145  -47.2909 H   0  0  0  0  0  0  0  0  0  0  0  0
   39.6564   39.1227  -51.1580 H   0  0  0  0  0  0  0  0  0  0  0  0
  1 28  2  0  0  0  0
  1 29  1  0  0  0  0
  1 33  1  0  0  0  0
  2 16  1  0  0  0  0
  2 22  1  0  0  0  0
  2 34  1  0  0  0  0
  2 35  1  0  0  0  0
  3  4  2  0  0  0  0
  3 16  1  0  0  0  0
  3 17  1  0  0  0  0
  4 19  1  0  0  0  0
  4 36  1  0  0  0  0
  5 21  1  0  0  0  0
  5 37  1  0  0  0  0
  5 38  1  0  0  0  0
  5 39  1  0  0  0  0
  6  9  2  0  0  0  0
  6 12  1  0  0  0  0
  6 13  1  0  0  0  0
  7 11  1  0  0  0  0
  7 12  2  0  0  0  0
  7 40  1  0  0  0  0
  8  9  1  0  0  0  0
  8 41  1  0  0  0  0
  8 42  1  0  0  0  0
  8 43  1  0  0  0  0
  9 10  1  0  0  0  0
 10 11  2  0  0  0  0
 10 44  1  0  0  0  0
 11 45  1  0  0  0  0
 12 46  1  0  0  0  0
 13 14  2  0  0  0  0
 13 15  2  0  0  0  0
 13 16  1  0  0  0  0
 17 18  2  0  0  0  0
 17 47  1  0  0  0  0
 18 20  1  0  0  0  0
 19 20  2  0  0  0  0
 19 48  1  0  0  0  0
 20 21  1  0  0  0  0
 22 23  2  0  0  0  0
 22 24  1  0  0  0  0
 24 25  1  0  0  0  0
 24 27  1  0  0  0  0
 25 26  1  0  0  0  0
 25 49  1  0  0  0  0
 25 50  1  0  0  0  0
 26 51  1  0  0  0  0
 26 52  1  0  0  0  0
 26 53  1  0  0  0  0
 27 28  1  0  0  0  0
 27 54  1  0  0  0  0
 27 55  1  0  0  0  0
 28 32  1  0  0  0  0
 29 30  2  0  0  0  0
 29 56  1  0  0  0  0
 30 31  1  0  0  0  0
 30 57  1  0  0  0  0
 31 32  2  0  0  0  0
 32 58  1  0  0  0  0
M  END
$$$$
