7MX
 OpenBabel04161911153D

 26 26  0  0  0  0  0  0  0  0999 V2000
   40.8178  -38.6873   30.3101 C   0  0  0  0  0  0  0  0  0  0  0  0
   40.1959  -39.7563   29.4323 C   0  0  0  0  0  0  0  0  0  0  0  0
   38.7512  -39.7466   29.5849 O   0  0  0  0  0  0  0  0  0  0  0  0
   38.1347  -40.6621   28.7767 C   0  0  0  0  0  0  0  0  0  0  0  0
   38.7737  -41.5192   28.1829 O   0  0  0  0  0  0  0  0  0  0  0  0
   36.6525  -40.4390   28.5897 C   0  0  0  0  0  0  0  0  0  0  0  0
   36.0904  -39.1428   29.0911 C   0  0  0  0  0  0  0  0  0  0  0  0
   34.6553  -38.9261   28.8531 N   0  0  0  0  0  0  0  0  0  0  0  0
   34.0874  -37.6684   29.3428 C   0  0  0  0  0  0  0  0  0  0  0  0
   33.8034  -39.8089   28.1978 C   0  0  0  0  0  0  0  0  0  0  0  0
   32.6101  -39.5971   28.0156 O   0  0  0  0  0  0  0  0  0  0  0  0
   34.4044  -41.1128   27.6876 C   0  0  0  0  0  0  0  0  0  0  0  0
   35.8674  -41.3226   27.9404 C   0  0  0  0  0  0  0  0  0  0  0  0
   36.4217  -42.8477   27.3039 Cl  0  0  0  0  0  0  0  0  0  0  0  0
   41.9021  -38.6290   30.1596 H   0  0  0  0  0  0  0  0  0  0  0  0
   40.6225  -38.9008   31.3647 H   0  0  0  0  0  0  0  0  0  0  0  0
   40.3797  -37.7121   30.0806 H   0  0  0  0  0  0  0  0  0  0  0  0
   40.6353  -40.7311   29.6912 H   0  0  0  0  0  0  0  0  0  0  0  0
   40.4349  -39.5279   28.3864 H   0  0  0  0  0  0  0  0  0  0  0  0
   36.6131  -38.3095   28.6069 H   0  0  0  0  0  0  0  0  0  0  0  0
   36.2410  -39.0740   30.1717 H   0  0  0  0  0  0  0  0  0  0  0  0
   33.0221  -37.5858   29.1312 H   0  0  0  0  0  0  0  0  0  0  0  0
   34.6012  -36.8278   28.8603 H   0  0  0  0  0  0  0  0  0  0  0  0
   34.2353  -37.6014   30.4234 H   0  0  0  0  0  0  0  0  0  0  0  0
   34.2054  -41.1493   26.6052 H   0  0  0  0  0  0  0  0  0  0  0  0
   33.8343  -41.9274   28.1579 H   0  0  0  0  0  0  0  0  0  0  0  0
  1  2  1  0  0  0  0
  1 15  1  0  0  0  0
  1 16  1  0  0  0  0
  1 17  1  0  0  0  0
  2  3  1  0  0  0  0
  2 18  1  0  0  0  0
  2 19  1  0  0  0  0
  3  4  1  0  0  0  0
  4  5  2  0  0  0  0
  4  6  1  0  0  0  0
  6  7  1  0  0  0  0
  6 13  2  0  0  0  0
  7  8  1  0  0  0  0
  7 20  1  0  0  0  0
  7 21  1  0  0  0  0
  8  9  1  0  0  0  0
  8 10  1  0  0  0  0
  9 22  1  0  0  0  0
  9 23  1  0  0  0  0
  9 24  1  0  0  0  0
 10 11  2  0  0  0  0
 10 12  1  0  0  0  0
 12 13  1  0  0  0  0
 12 25  1  0  0  0  0
 12 26  1  0  0  0  0
 13 14  1  0  0  0  0
M  END
$$$$
