7MX
 OpenBabel04161911143D

 26 26  0  0  0  0  0  0  0  0999 V2000
  -30.9726  -11.8797    0.1108 C   0  0  0  0  0  0  0  0  0  0  0  0
  -30.3010  -10.6270    0.6495 C   0  0  0  0  0  0  0  0  0  0  0  0
  -28.9536  -10.4492    0.1510 O   0  0  0  0  0  0  0  0  0  0  0  0
  -28.6244   -9.1550   -0.1358 C   0  0  0  0  0  0  0  0  0  0  0  0
  -29.4264   -8.3359   -0.5530 O   0  0  0  0  0  0  0  0  0  0  0  0
  -27.1892   -8.8503    0.2188 C   0  0  0  0  0  0  0  0  0  0  0  0
  -26.2759  -10.0276    0.3768 C   0  0  0  0  0  0  0  0  0  0  0  0
  -24.8670   -9.7087    0.7040 N   0  0  0  0  0  0  0  0  0  0  0  0
  -23.9605  -10.8450    0.8433 C   0  0  0  0  0  0  0  0  0  0  0  0
  -24.3692   -8.4402    0.8799 C   0  0  0  0  0  0  0  0  0  0  0  0
  -23.1886   -8.2272    1.1508 O   0  0  0  0  0  0  0  0  0  0  0  0
  -25.3169   -7.2567    0.7302 C   0  0  0  0  0  0  0  0  0  0  0  0
  -26.7353   -7.5944    0.3944 C   0  0  0  0  0  0  0  0  0  0  0  0
  -27.7187   -6.1684    0.2659 Cl  0  0  0  0  0  0  0  0  0  0  0  0
  -31.9525  -12.0272    0.5849 H   0  0  0  0  0  0  0  0  0  0  0  0
  -30.3633  -12.7662    0.3029 H   0  0  0  0  0  0  0  0  0  0  0  0
  -31.1247  -11.8043   -0.9693 H   0  0  0  0  0  0  0  0  0  0  0  0
  -30.1919  -10.7359    1.7325 H   0  0  0  0  0  0  0  0  0  0  0  0
  -30.9503   -9.7656    0.4631 H   0  0  0  0  0  0  0  0  0  0  0  0
  -26.2565  -10.5920   -0.5650 H   0  0  0  0  0  0  0  0  0  0  0  0
  -26.6380  -10.6804    1.1792 H   0  0  0  0  0  0  0  0  0  0  0  0
  -22.9424  -10.5260    1.0857 H   0  0  0  0  0  0  0  0  0  0  0  0
  -23.9242  -11.4084   -0.0945 H   0  0  0  0  0  0  0  0  0  0  0  0
  -24.3080  -11.5046    1.6453 H   0  0  0  0  0  0  0  0  0  0  0  0
  -24.8918   -6.6176   -0.0543 H   0  0  0  0  0  0  0  0  0  0  0  0
  -25.2728   -6.7003    1.6743 H   0  0  0  0  0  0  0  0  0  0  0  0
  1  2  1  0  0  0  0
  1 15  1  0  0  0  0
  1 16  1  0  0  0  0
  1 17  1  0  0  0  0
  2  3  1  0  0  0  0
  2 18  1  0  0  0  0
  2 19  1  0  0  0  0
  3  4  1  0  0  0  0
  4  5  2  0  0  0  0
  4  6  1  0  0  0  0
  6  7  1  0  0  0  0
  6 13  2  0  0  0  0
  7  8  1  0  0  0  0
  7 20  1  0  0  0  0
  7 21  1  0  0  0  0
  8  9  1  0  0  0  0
  8 10  1  0  0  0  0
  9 22  1  0  0  0  0
  9 23  1  0  0  0  0
  9 24  1  0  0  0  0
 10 11  2  0  0  0  0
 10 12  1  0  0  0  0
 12 13  1  0  0  0  0
 12 25  1  0  0  0  0
 12 26  1  0  0  0  0
 13 14  1  0  0  0  0
M  END
$$$$
