7P0
 OpenBabel04161909583D

 63 67  0  0  1  0  0  0  0  0999 V2000
   43.0128  -20.9924   29.3040 C   0  0  0  0  0  0  0  0  0  0  0  0
   43.2797  -20.7520   28.1365 O   0  0  0  0  0  0  0  0  0  0  0  0
   44.0696  -21.3244   30.3067 C   0  0  0  0  0  0  0  0  0  0  0  0
   43.7678  -22.0177   31.4868 C   0  0  0  0  0  0  0  0  0  0  0  0
   44.7813  -22.3437   32.3869 C   0  0  0  0  0  0  0  0  0  0  0  0
   46.1071  -22.0079   32.0950 C   0  0  0  0  0  0  0  0  0  0  0  0
   46.4487  -21.3384   30.9061 C   0  0  0  0  0  0  0  0  0  0  0  0
   45.4004  -20.9879   30.0294 C   0  0  0  0  0  0  0  0  0  0  0  0
   47.8906  -21.0374   30.5676 C   0  0  0  0  0  0  0  0  0  0  0  0
   48.7667  -21.4496   31.5125 C   0  0  0  0  0  0  0  0  0  0  0  0
   48.4246  -22.1180   32.7849 C   0  0  0  0  0  0  0  0  0  0  0  0
   49.2842  -22.4462   33.6001 O   0  0  0  0  0  0  0  0  0  0  0  0
   47.1031  -22.3683   33.0056 N   0  3  0  0  0  0  0  0  0  0  0  0
   48.2084  -20.4671   29.4843 O   0  0  0  0  0  0  0  0  0  0  0  0
   41.7179  -20.9914   29.7751 N   0  0  0  0  0  0  0  0  0  0  0  0
   40.5793  -20.7465   28.9050 C   0  0  2  0  0  0  0  0  0  0  0  0
   39.8679  -19.4919   29.4240 C   0  0  0  0  0  0  0  0  0  0  0  0
   39.9445  -19.1098   30.5911 O   0  0  0  0  0  0  0  0  0  0  0  0
   39.5718  -21.9158   28.9208 C   0  0  0  0  0  0  0  0  0  0  0  0
   40.2376  -23.2710   28.9092 C   0  0  0  0  0  0  0  0  0  0  0  0
   40.1673  -24.0960   30.0391 C   0  0  0  0  0  0  0  0  0  0  0  0
   41.0336  -23.6623   27.8243 C   0  0  0  0  0  0  0  0  0  0  0  0
   40.9387  -25.2547   30.1148 C   0  0  0  0  0  0  0  0  0  0  0  0
   41.8009  -24.8240   27.9010 C   0  0  0  0  0  0  0  0  0  0  0  0
   41.7682  -25.6082   29.0522 C   0  0  0  0  0  0  0  0  0  0  0  0
   36.7002  -13.6265   27.2354 C   0  0  0  0  0  0  0  0  0  0  0  0
   35.6030  -13.4074   28.0675 C   0  0  0  0  0  0  0  0  0  0  0  0
   35.0801  -14.4589   28.8285 C   0  0  0  0  0  0  0  0  0  0  0  0
   35.6507  -15.7281   28.7636 C   0  0  0  0  0  0  0  0  0  0  0  0
   36.7442  -15.9713   27.9168 C   0  0  0  0  0  0  0  0  0  0  0  0
   37.2784  -14.9028   27.1689 C   0  0  0  0  0  0  0  0  0  0  0  0
   33.7186  -14.1893   29.8438 Cl  0  0  0  0  0  0  0  0  0  0  0  0
   38.4098  -15.0775   26.3566 N   0  3  0  0  0  0  0  0  0  0  0  0
   38.4769  -15.1062   24.9906 C   0  0  0  0  0  0  0  0  0  0  0  0
   39.7099  -15.3846   24.6311 N   0  0  0  0  0  0  0  0  0  0  0  0
   40.4147  -15.5257   25.8005 N   0  0  0  0  0  0  0  0  0  0  0  0
   39.6248  -15.3669   26.8537 N   0  0  0  0  0  0  0  0  0  0  0  0
   37.2689  -17.3777   27.8126 C   0  0  0  0  0  0  0  0  0  0  0  0
   38.3684  -17.6590   28.8223 C   0  0  0  0  0  0  0  0  0  0  0  0
   39.0189  -18.9105   28.5067 N   0  0  0  0  0  0  0  0  0  0  0  0
   42.7623  -22.3546   31.7084 H   0  0  0  0  0  0  0  0  0  0  0  0
   44.5365  -22.8779   33.2970 H   0  0  0  0  0  0  0  0  0  0  0  0
   45.6412  -20.4549   29.1094 H   0  0  0  0  0  0  0  0  0  0  0  0
   49.8288  -21.3012   31.3536 H   0  0  0  0  0  0  0  0  0  0  0  0
   46.8816  -22.8446   33.8639 H   0  0  0  0  0  0  0  0  0  0  0  0
   41.5362  -21.0049   30.7682 H   0  0  0  0  0  0  0  0  0  0  0  0
   40.9263  -20.5642   27.8815 H   0  0  0  0  0  0  0  0  0  0  0  0
   38.8957  -21.8360   28.0602 H   0  0  0  0  0  0  0  0  0  0  0  0
   38.9294  -21.8360   29.8078 H   0  0  0  0  0  0  0  0  0  0  0  0
   39.5441  -23.8183   30.8877 H   0  0  0  0  0  0  0  0  0  0  0  0
   41.1137  -23.0341   26.9402 H   0  0  0  0  0  0  0  0  0  0  0  0
   40.9157  -25.8661   31.0120 H   0  0  0  0  0  0  0  0  0  0  0  0
   42.4556  -25.0920   27.0761 H   0  0  0  0  0  0  0  0  0  0  0  0
   42.4027  -26.4871   29.1249 H   0  0  0  0  0  0  0  0  0  0  0  0
   37.1276  -12.7897   26.6927 H   0  0  0  0  0  0  0  0  0  0  0  0
   35.1591  -12.4216   28.1335 H   0  0  0  0  0  0  0  0  0  0  0  0
   35.2357  -16.5344   29.3665 H   0  0  0  0  0  0  0  0  0  0  0  0
   37.6284  -14.9791   24.3380 H   0  0  0  0  0  0  0  0  0  0  0  0
   37.6119  -17.5701   26.7882 H   0  0  0  0  0  0  0  0  0  0  0  0
   36.4479  -18.0921   27.9629 H   0  0  0  0  0  0  0  0  0  0  0  0
   37.9515  -17.7180   29.8353 H   0  0  0  0  0  0  0  0  0  0  0  0
   39.1290  -16.8724   28.8440 H   0  0  0  0  0  0  0  0  0  0  0  0
   39.1397  -19.1605   27.5313 H   0  0  0  0  0  0  0  0  0  0  0  0
  1  2  2  0  0  0  0
  1  3  1  0  0  0  0
  1 15  1  0  0  0  0
  3  4  2  0  0  0  0
  3  8  1  0  0  0  0
  4  5  1  0  0  0  0
  4 41  1  0  0  0  0
  5  6  2  0  0  0  0
  5 42  1  0  0  0  0
  6  7  1  0  0  0  0
  6 13  1  0  0  0  0
  7  8  2  0  0  0  0
  7  9  1  0  0  0  0
  8 43  1  0  0  0  0
  9 10  2  0  0  0  0
  9 14  1  0  0  0  0
 10 11  1  0  0  0  0
 10 44  1  0  0  0  0
 11 12  2  0  0  0  0
 11 13  1  0  0  0  0
 13 45  1  0  0  0  0
 15 16  1  0  0  0  0
 15 46  1  0  0  0  0
 16 17  1  0  0  0  0
 16 19  1  0  0  0  0
 16 47  1  6  0  0  0
 17 18  2  0  0  0  0
 17 40  1  0  0  0  0
 19 20  1  0  0  0  0
 19 48  1  0  0  0  0
 19 49  1  0  0  0  0
 20 21  2  0  0  0  0
 20 22  1  0  0  0  0
 21 23  1  0  0  0  0
 21 50  1  0  0  0  0
 22 24  2  0  0  0  0
 22 51  1  0  0  0  0
 23 25  2  0  0  0  0
 23 52  1  0  0  0  0
 24 25  1  0  0  0  0
 24 53  1  0  0  0  0
 25 54  1  0  0  0  0
 26 27  2  0  0  0  0
 26 31  1  0  0  0  0
 26 55  1  0  0  0  0
 27 28  1  0  0  0  0
 27 56  1  0  0  0  0
 28 29  2  0  0  0  0
 28 32  1  0  0  0  0
 29 30  1  0  0  0  0
 29 57  1  0  0  0  0
 30 31  2  0  0  0  0
 30 38  1  0  0  0  0
 31 33  1  0  0  0  0
 33 34  2  0  0  0  0
 33 37  1  0  0  0  0
 34 35  1  0  0  0  0
 34 58  1  0  0  0  0
 35 36  1  0  0  0  0
 36 37  2  0  0  0  0
 38 39  1  0  0  0  0
 38 59  1  0  0  0  0
 38 60  1  0  0  0  0
 39 40  1  0  0  0  0
 39 61  1  0  0  0  0
 39 62  1  0  0  0  0
 40 63  1  0  0  0  0
M  CHG  2  13   1  33   1
M  END
$$$$
