7PS
 OpenBabel04161911573D

 27 28  0  0  0  0  0  0  0  0999 V2000
    9.4497    0.5404   24.4474 C   0  0  0  0  0  0  0  0  0  0  0  0
    9.8540    0.1893   25.7137 C   0  0  0  0  0  0  0  0  0  0  0  0
   10.2581    1.5051   23.7293 C   0  0  0  0  0  0  0  0  0  0  0  0
   11.6613    1.4864   25.7383 C   0  0  0  0  0  0  0  0  0  0  0  0
    8.0284   -0.8808   25.1163 C   0  0  0  0  0  0  0  0  0  0  0  0
    6.2435   -2.7847   22.6074 C   0  0  0  0  0  0  0  0  0  0  0  0
    5.1018   -3.8232   20.6510 C   0  0  0  0  0  0  0  0  0  0  0  0
    5.8542   -1.7553   23.6661 C   0  0  0  0  0  0  0  0  0  0  0  0
   10.9287    0.6236   26.4083 N   0  0  0  0  0  0  0  0  0  0  0  0
    8.9284   -0.7216   26.1438 N   0  3  0  0  0  0  0  0  0  0  0  0
   11.3583    1.9161   24.4618 N   0  3  0  0  0  0  0  0  0  0  0  0
    8.3025   -0.1156   24.0814 N   0  0  0  0  0  0  0  0  0  0  0  0
   12.7706    1.9931   26.3082 N   0  0  0  0  0  0  0  0  0  0  0  0
    5.4090   -2.6969   21.4980 N   0  0  0  0  0  0  0  0  0  0  0  0
    7.0994   -3.6529   22.7304 O   0  0  0  0  0  0  0  0  0  0  0  0
   10.0166    1.9389   22.6059 O   0  0  0  0  0  0  0  0  0  0  0  0
    6.6931   -1.9635   25.2663 S   0  0  0  0  0  0  0  0  0  0  0  0
    4.4494   -3.4796   19.8428 H   0  0  0  0  0  0  0  0  0  0  0  0
    4.5580   -4.5628   21.2484 H   0  0  0  0  0  0  0  0  0  0  0  0
    6.0085   -4.2750   20.2461 H   0  0  0  0  0  0  0  0  0  0  0  0
    4.7831   -1.9158   23.8573 H   0  0  0  0  0  0  0  0  0  0  0  0
    5.9614   -0.7457   23.2630 H   0  0  0  0  0  0  0  0  0  0  0  0
    8.9183   -1.1860   27.0344 H   0  0  0  0  0  0  0  0  0  0  0  0
   11.9555    2.5907   23.9997 H   0  0  0  0  0  0  0  0  0  0  0  0
   12.9812    1.7037   27.2576 H   0  0  0  0  0  0  0  0  0  0  0  0
   13.3606    2.6921   25.8828 H   0  0  0  0  0  0  0  0  0  0  0  0
    5.0161   -1.7956   21.2608 H   0  0  0  0  0  0  0  0  0  0  0  0
  1  2  2  0  0  0  0
  1  3  1  0  0  0  0
  1 12  1  0  0  0  0
  2  9  1  0  0  0  0
  2 10  1  0  0  0  0
  3 11  1  0  0  0  0
  3 16  2  0  0  0  0
  4  9  2  0  0  0  0
  4 11  1  0  0  0  0
  4 13  1  0  0  0  0
  5 10  2  0  0  0  0
  5 12  1  0  0  0  0
  5 17  1  0  0  0  0
  6  8  1  0  0  0  0
  6 14  1  0  0  0  0
  6 15  2  0  0  0  0
  7 14  1  0  0  0  0
  7 18  1  0  0  0  0
  7 19  1  0  0  0  0
  7 20  1  0  0  0  0
  8 17  1  0  0  0  0
  8 21  1  0  0  0  0
  8 22  1  0  0  0  0
 10 23  1  0  0  0  0
 11 24  1  0  0  0  0
 13 25  1  0  0  0  0
 13 26  1  0  0  0  0
 14 27  1  0  0  0  0
M  CHG  2  10   1  11   1
M  END
$$$$
