7Q1
 OpenBabel04161911553D

 19 20  0  0  1  0  0  0  0  0999 V2000
   16.4777    5.8320   13.9487 C   0  0  0  0  0  0  0  0  0  0  0  0
   17.7346    5.2383   13.9125 C   0  0  0  0  0  0  0  0  0  0  0  0
   17.9480    4.0166   14.5483 C   0  0  0  0  0  0  0  0  0  0  0  0
   16.9001    3.3595   15.2057 C   0  0  0  0  0  0  0  0  0  0  0  0
   15.6275    3.9501   15.2058 C   0  0  0  0  0  0  0  0  0  0  0  0
   15.4183    5.1721   14.5652 C   0  0  0  0  0  0  0  0  0  0  0  0
   17.1326    1.9998   15.8233 C   0  0  2  0  0  0  0  0  0  0  0  0
   16.4647    0.8945   15.0613 C   0  0  0  0  0  0  0  0  0  0  0  0
   16.7286    0.6100   13.8950 O   0  0  0  0  0  0  0  0  0  0  0  0
   15.5589    0.3156   15.8333 N   0  0  0  0  0  0  0  0  0  0  0  0
   15.6021    0.9033   17.0241 C   0  0  0  0  0  0  0  0  0  0  0  0
   14.8776    0.6527   17.9845 O   0  0  0  0  0  0  0  0  0  0  0  0
   16.5382    1.8904   17.1042 O   0  0  0  0  0  0  0  0  0  0  0  0
   16.3213    6.8057   13.4959 H   0  0  0  0  0  0  0  0  0  0  0  0
   18.5475    5.7197   13.3791 H   0  0  0  0  0  0  0  0  0  0  0  0
   18.9377    3.5690   14.5255 H   0  0  0  0  0  0  0  0  0  0  0  0
   14.7971    3.4493   15.6993 H   0  0  0  0  0  0  0  0  0  0  0  0
   14.4242    5.6024   14.5405 H   0  0  0  0  0  0  0  0  0  0  0  0
   18.2076    1.7886   15.9139 H   0  0  0  0  0  0  0  0  0  0  0  0
  1  2  2  0  0  0  0
  1  6  1  0  0  0  0
  1 14  1  0  0  0  0
  2  3  1  0  0  0  0
  2 15  1  0  0  0  0
  3  4  2  0  0  0  0
  3 16  1  0  0  0  0
  4  5  1  0  0  0  0
  4  7  1  0  0  0  0
  5  6  2  0  0  0  0
  5 17  1  0  0  0  0
  6 18  1  0  0  0  0
  7  8  1  0  0  0  0
  7 13  1  0  0  0  0
  7 19  1  1  0  0  0
  8  9  2  0  0  0  0
  8 10  1  0  0  0  0
 10 11  1  0  0  0  0
 11 12  2  0  0  0  0
 11 13  1  0  0  0  0
M  END
$$$$
