7QS
 OpenBabel04161911563D

 19 20  0  0  1  0  0  0  0  0999 V2000
   -4.4794    5.7393   13.6095 C   0  0  0  0  0  0  0  0  0  0  0  0
   -3.2612    5.2097   14.0332 C   0  0  0  0  0  0  0  0  0  0  0  0
   -5.6717    5.1330   13.9922 C   0  0  0  0  0  0  0  0  0  0  0  0
   -3.2356    4.0872   14.8566 C   0  0  0  0  0  0  0  0  0  0  0  0
   -5.6468    4.0079   14.8107 C   0  0  0  0  0  0  0  0  0  0  0  0
   -4.4270    3.4843   15.2756 C   0  0  0  0  0  0  0  0  0  0  0  0
   -4.8080    1.0028   15.4855 C   0  0  0  0  0  0  0  0  0  0  0  0
   -6.4541    1.1150   16.9940 C   0  0  0  0  0  0  0  0  0  0  0  0
   -4.3850    2.2776   16.1867 C   0  0  2  0  0  0  0  0  0  0  0  0
   -5.8655    0.4080   16.0417 N   0  0  0  0  0  0  0  0  0  0  0  0
   -4.2062    0.5844   14.4958 O   0  0  0  0  0  0  0  0  0  0  0  0
   -7.5680    0.9107   17.4694 O   0  0  0  0  0  0  0  0  0  0  0  0
   -5.4850    2.4316   17.5941 S   0  0  0  0  0  0  0  0  0  0  0  0
   -4.5053    6.6148   12.9719 H   0  0  0  0  0  0  0  0  0  0  0  0
   -2.3269    5.6662   13.7194 H   0  0  0  0  0  0  0  0  0  0  0  0
   -6.6251    5.5258   13.6570 H   0  0  0  0  0  0  0  0  0  0  0  0
   -2.2805    3.6668   15.1668 H   0  0  0  0  0  0  0  0  0  0  0  0
   -6.5863    3.5349   15.0936 H   0  0  0  0  0  0  0  0  0  0  0  0
   -3.3762    2.1229   16.5879 H   0  0  0  0  0  0  0  0  0  0  0  0
  1  2  2  0  0  0  0
  1  3  1  0  0  0  0
  1 14  1  0  0  0  0
  2  4  1  0  0  0  0
  2 15  1  0  0  0  0
  3  5  2  0  0  0  0
  3 16  1  0  0  0  0
  4  6  2  0  0  0  0
  4 17  1  0  0  0  0
  5  6  1  0  0  0  0
  5 18  1  0  0  0  0
  6  9  1  0  0  0  0
  7  9  1  0  0  0  0
  7 10  1  0  0  0  0
  7 11  2  0  0  0  0
  8 10  1  0  0  0  0
  8 12  2  0  0  0  0
  8 13  1  0  0  0  0
  9 13  1  0  0  0  0
  9 19  1  1  0  0  0
M  END
$$$$
