7QV
 OpenBabel04161911553D

 27 28  0  0  1  0  0  0  0  0999 V2000
   -2.9877    3.8784   14.7381 C   0  0  0  0  0  0  0  0  0  0  0  0
   -3.0831    5.1488   14.1666 C   0  0  0  0  0  0  0  0  0  0  0  0
   -5.4666    5.1121   14.4828 C   0  0  0  0  0  0  0  0  0  0  0  0
   -4.1310    3.1964   15.1834 C   0  0  0  0  0  0  0  0  0  0  0  0
   -4.3238    5.7685   14.0285 C   0  0  0  0  0  0  0  0  0  0  0  0
   -5.3697    3.8428   15.0640 C   0  0  0  0  0  0  0  0  0  0  0  0
   -4.6600    0.7172   14.9705 C   0  0  0  0  0  0  0  0  0  0  0  0
   -5.4253    0.6689   16.9767 C   0  0  0  0  0  0  0  0  0  0  0  0
   -3.9605    1.7992   15.7347 C   0  0  2  0  0  0  0  0  0  0  0  0
   -3.4009    7.5815   12.8307 C   0  0  0  0  0  0  0  0  0  0  0  0
   -7.0258    3.6432   16.6605 C   0  0  0  0  0  0  0  0  0  0  0  0
   -5.4749    0.0681   15.7928 N   0  0  0  0  0  0  0  0  0  0  0  0
   -4.4486    0.4712   13.7857 O   0  0  0  0  0  0  0  0  0  0  0  0
   -6.1102    0.4024   17.9601 O   0  0  0  0  0  0  0  0  0  0  0  0
   -4.5024    1.6710   17.0317 O   0  0  0  0  0  0  0  0  0  0  0  0
   -4.5326    7.0005   13.4666 O   0  0  0  0  0  0  0  0  0  0  0  0
   -6.5340    3.2030   15.3962 O   0  0  0  0  0  0  0  0  0  0  0  0
   -2.0101    3.4081   14.8127 H   0  0  0  0  0  0  0  0  0  0  0  0
   -2.1642    5.6096   13.8253 H   0  0  0  0  0  0  0  0  0  0  0  0
   -6.4438    5.5679   14.3563 H   0  0  0  0  0  0  0  0  0  0  0  0
   -2.8973    1.5331   15.7976 H   0  0  0  0  0  0  0  0  0  0  0  0
   -3.6994    8.5502   12.4207 H   0  0  0  0  0  0  0  0  0  0  0  0
   -3.0557    6.9554   12.0004 H   0  0  0  0  0  0  0  0  0  0  0  0
   -2.5948    7.7650   13.5491 H   0  0  0  0  0  0  0  0  0  0  0  0
   -7.8873    3.0204   16.9210 H   0  0  0  0  0  0  0  0  0  0  0  0
   -7.3675    4.6817   16.6026 H   0  0  0  0  0  0  0  0  0  0  0  0
   -6.2784    3.5409   17.4538 H   0  0  0  0  0  0  0  0  0  0  0  0
  1  2  2  0  0  0  0
  1  4  1  0  0  0  0
  1 18  1  0  0  0  0
  2  5  1  0  0  0  0
  2 19  1  0  0  0  0
  3  5  2  0  0  0  0
  3  6  1  0  0  0  0
  3 20  1  0  0  0  0
  4  6  2  0  0  0  0
  4  9  1  0  0  0  0
  5 16  1  0  0  0  0
  6 17  1  0  0  0  0
  7  9  1  0  0  0  0
  7 12  1  0  0  0  0
  7 13  2  0  0  0  0
  8 12  1  0  0  0  0
  8 14  2  0  0  0  0
  8 15  1  0  0  0  0
  9 15  1  0  0  0  0
  9 21  1  1  0  0  0
 10 16  1  0  0  0  0
 10 22  1  0  0  0  0
 10 23  1  0  0  0  0
 10 24  1  0  0  0  0
 11 17  1  0  0  0  0
 11 25  1  0  0  0  0
 11 26  1  0  0  0  0
 11 27  1  0  0  0  0
M  END
$$$$
