7QY
 OpenBabel04161911573D

 30 31  0  0  1  0  0  0  0  0999 V2000
   -4.9890    5.3690   15.0658 C   0  0  0  0  0  0  0  0  0  0  0  0
   -4.4979    6.6343   15.3694 C   0  0  0  0  0  0  0  0  0  0  0  0
   -2.5308    6.1971   14.1048 C   0  0  0  0  0  0  0  0  0  0  0  0
   -4.2456    4.4895   14.2783 C   0  0  0  0  0  0  0  0  0  0  0  0
   -3.2716    7.0672   14.8908 C   0  0  0  0  0  0  0  0  0  0  0  0
   -2.9984    4.9057   13.7985 C   0  0  0  0  0  0  0  0  0  0  0  0
   -4.7674    0.7433   14.8791 C   0  0  0  0  0  0  0  0  0  0  0  0
   -5.7937    1.0392   16.8020 C   0  0  0  0  0  0  0  0  0  0  0  0
   -4.2814    2.1538   15.1319 C   0  0  1  0  0  0  0  0  0  0  0  0
   -1.6241    8.7556   14.7746 C   0  0  0  0  0  0  0  0  0  0  0  0
   -1.1433    4.5728   12.4034 C   0  0  0  0  0  0  0  0  0  0  0  0
   -4.8250    3.1077   14.0736 C   0  0  0  0  0  0  0  0  0  0  0  0
   -5.5577    0.2279   15.8044 N   0  0  0  0  0  0  0  0  0  0  0  0
   -4.4413    0.1631   13.8612 O   0  0  0  0  0  0  0  0  0  0  0  0
   -6.5874    0.8439   17.7145 O   0  0  0  0  0  0  0  0  0  0  0  0
   -2.9043    8.3381   15.2375 O   0  0  0  0  0  0  0  0  0  0  0  0
   -2.2905    4.0184   13.0297 O   0  0  0  0  0  0  0  0  0  0  0  0
   -4.8484    2.4881   16.7989 S   0  0  0  0  0  0  0  0  0  0  0  0
   -5.9542    5.0498   15.4541 H   0  0  0  0  0  0  0  0  0  0  0  0
   -5.1013    7.2789   15.9916 H   0  0  0  0  0  0  0  0  0  0  0  0
   -1.5752    6.5248   13.7204 H   0  0  0  0  0  0  0  0  0  0  0  0
   -3.1944    2.1751   15.1146 H   0  0  0  0  0  0  0  0  0  0  0  0
   -1.4226    9.7843   15.1027 H   0  0  0  0  0  0  0  0  0  0  0  0
   -1.5917    8.7365   13.6797 H   0  0  0  0  0  0  0  0  0  0  0  0
   -0.8425    8.1071   15.1852 H   0  0  0  0  0  0  0  0  0  0  0  0
   -0.6397    3.8055   11.8104 H   0  0  0  0  0  0  0  0  0  0  0  0
   -0.4359    4.9372   13.1568 H   0  0  0  0  0  0  0  0  0  0  0  0
   -1.4380    5.3927   11.7368 H   0  0  0  0  0  0  0  0  0  0  0  0
   -4.5744    2.7633   13.0586 H   0  0  0  0  0  0  0  0  0  0  0  0
   -5.9266    3.1700   14.1162 H   0  0  0  0  0  0  0  0  0  0  0  0
  1  2  2  0  0  0  0
  1  4  1  0  0  0  0
  1 19  1  0  0  0  0
  2  5  1  0  0  0  0
  2 20  1  0  0  0  0
  3  5  2  0  0  0  0
  3  6  1  0  0  0  0
  3 21  1  0  0  0  0
  4  6  2  0  0  0  0
  4 12  1  0  0  0  0
  5 16  1  0  0  0  0
  6 17  1  0  0  0  0
  7  9  1  0  0  0  0
  7 13  1  0  0  0  0
  7 14  2  0  0  0  0
  8 13  1  0  0  0  0
  8 15  2  0  0  0  0
  8 18  1  0  0  0  0
  9 12  1  0  0  0  0
  9 18  1  0  0  0  0
  9 22  1  6  0  0  0
 10 16  1  0  0  0  0
 10 23  1  0  0  0  0
 10 24  1  0  0  0  0
 10 25  1  0  0  0  0
 11 17  1  0  0  0  0
 11 26  1  0  0  0  0
 11 27  1  0  0  0  0
 11 28  1  0  0  0  0
 12 29  1  0  0  0  0
 12 30  1  0  0  0  0
M  END
$$$$
