7R1
 OpenBabel04161911563D

 30 31  0  0  1  0  0  0  0  0999 V2000
   18.7220    4.4770   13.4683 C   0  0  0  0  0  0  0  0  0  0  0  0
   19.0476    5.7963   13.7731 C   0  0  0  0  0  0  0  0  0  0  0  0
   16.9350    6.1501   14.8398 C   0  0  0  0  0  0  0  0  0  0  0  0
   17.5220    3.9732   13.8590 C   0  0  0  0  0  0  0  0  0  0  0  0
   18.1452    6.6339   14.4426 C   0  0  0  0  0  0  0  0  0  0  0  0
   16.6682    4.8253   14.5796 C   0  0  0  0  0  0  0  0  0  0  0  0
   16.5312    0.3988   14.6532 C   0  0  0  0  0  0  0  0  0  0  0  0
   15.6453    1.0319   16.5859 C   0  0  0  0  0  0  0  0  0  0  0  0
   17.2900    1.6663   14.7751 C   0  0  1  0  0  0  0  0  0  0  0  0
   19.7380    8.2845   14.5753 C   0  0  0  0  0  0  0  0  0  0  0  0
   14.9745    4.5635   13.4126 C   0  0  0  0  0  0  0  0  0  0  0  0
   17.0059    2.5682   13.5939 C   0  0  0  0  0  0  0  0  0  0  0  0
   15.6743    0.1165   15.6094 N   0  0  0  0  0  0  0  0  0  0  0  0
   16.7293   -0.3556   13.6436 O   0  0  0  0  0  0  0  0  0  0  0  0
   18.3780    7.9358   14.7706 O   0  0  0  0  0  0  0  0  0  0  0  0
   15.3862    4.4100   14.7509 O   0  0  0  0  0  0  0  0  0  0  0  0
   14.7045    0.9699   17.9583 S   0  0  0  0  0  0  0  0  0  0  0  0
   16.7911    2.3017   16.3798 S   0  0  0  0  0  0  0  0  0  0  0  0
   19.4439    3.8295   12.9442 H   0  0  0  0  0  0  0  0  0  0  0  0
   20.0241    6.1509   13.4900 H   0  0  0  0  0  0  0  0  0  0  0  0
   16.1820    6.7644   15.3325 H   0  0  0  0  0  0  0  0  0  0  0  0
   18.3607    1.4934   14.7908 H   0  0  0  0  0  0  0  0  0  0  0  0
   19.8783    9.3287   14.8559 H   0  0  0  0  0  0  0  0  0  0  0  0
   20.0009    8.1780   13.5214 H   0  0  0  0  0  0  0  0  0  0  0  0
   20.3752    7.6567   15.2028 H   0  0  0  0  0  0  0  0  0  0  0  0
   13.9887    4.1736   13.2796 H   0  0  0  0  0  0  0  0  0  0  0  0
   15.6098    4.0654   12.6818 H   0  0  0  0  0  0  0  0  0  0  0  0
   15.0754    5.6158   13.1557 H   0  0  0  0  0  0  0  0  0  0  0  0
   17.4402    2.1896   12.6558 H   0  0  0  0  0  0  0  0  0  0  0  0
   15.9266    2.4887   13.4307 H   0  0  0  0  0  0  0  0  0  0  0  0
  1  2  2  0  0  0  0
  1  4  1  0  0  0  0
  1 19  1  0  0  0  0
  2  5  1  0  0  0  0
  2 20  1  0  0  0  0
  3  5  2  0  0  0  0
  3  6  1  0  0  0  0
  3 21  1  0  0  0  0
  4  6  2  0  0  0  0
  4 12  1  0  0  0  0
  5 15  1  0  0  0  0
  6 16  1  0  0  0  0
  7  9  1  0  0  0  0
  7 13  1  0  0  0  0
  7 14  2  0  0  0  0
  8 13  1  0  0  0  0
  8 17  2  0  0  0  0
  8 18  1  0  0  0  0
  9 12  1  0  0  0  0
  9 18  1  0  0  0  0
  9 22  1  1  0  0  0
 10 15  1  0  0  0  0
 10 23  1  0  0  0  0
 10 24  1  0  0  0  0
 10 25  1  0  0  0  0
 11 16  1  0  0  0  0
 11 26  1  0  0  0  0
 11 27  1  0  0  0  0
 11 28  1  0  0  0  0
 12 29  1  0  0  0  0
 12 30  1  0  0  0  0
M  END
$$$$
