7R4
 OpenBabel04161911563D

 22 23  0  0  1  0  0  0  0  0999 V2000
   -3.1075    6.9153   14.0449 C   0  0  0  0  0  0  0  0  0  0  0  0
   -4.4532    6.5918   14.2036 C   0  0  0  0  0  0  0  0  0  0  0  0
   -2.1811    5.9158   13.7366 C   0  0  0  0  0  0  0  0  0  0  0  0
   -4.8726    5.2737   14.0562 C   0  0  0  0  0  0  0  0  0  0  0  0
   -2.6000    4.5932   13.5892 C   0  0  0  0  0  0  0  0  0  0  0  0
   -3.9536    4.2640   13.7509 C   0  0  0  0  0  0  0  0  0  0  0  0
   -4.6165    0.6114   14.7856 C   0  0  0  0  0  0  0  0  0  0  0  0
   -5.7005    1.2798   16.6367 C   0  0  0  0  0  0  0  0  0  0  0  0
   -4.0018    1.9864   14.8933 C   0  0  1  0  0  0  0  0  0  0  0  0
   -4.4252    2.8282   13.6853 C   0  0  0  0  0  0  0  0  0  0  0  0
   -5.5415    0.3435   15.7111 N   0  0  0  0  0  0  0  0  0  0  0  0
   -4.2866   -0.1541   13.8754 O   0  0  0  0  0  0  0  0  0  0  0  0
   -6.8264    1.2160   17.8726 S   0  0  0  0  0  0  0  0  0  0  0  0
   -4.6054    2.6202   16.4666 S   0  0  0  0  0  0  0  0  0  0  0  0
   -2.7773    7.9403   14.1777 H   0  0  0  0  0  0  0  0  0  0  0  0
   -5.1764    7.3595   14.4644 H   0  0  0  0  0  0  0  0  0  0  0  0
   -1.1292    6.1647   13.6306 H   0  0  0  0  0  0  0  0  0  0  0  0
   -5.9165    5.0204   14.2213 H   0  0  0  0  0  0  0  0  0  0  0  0
   -1.8688    3.8165   13.3742 H   0  0  0  0  0  0  0  0  0  0  0  0
   -2.9129    1.8866   14.9513 H   0  0  0  0  0  0  0  0  0  0  0  0
   -4.0369    2.3808   12.7603 H   0  0  0  0  0  0  0  0  0  0  0  0
   -5.5179    2.8049   13.5648 H   0  0  0  0  0  0  0  0  0  0  0  0
  1  2  2  0  0  0  0
  1  3  1  0  0  0  0
  1 15  1  0  0  0  0
  2  4  1  0  0  0  0
  2 16  1  0  0  0  0
  3  5  2  0  0  0  0
  3 17  1  0  0  0  0
  4  6  2  0  0  0  0
  4 18  1  0  0  0  0
  5  6  1  0  0  0  0
  5 19  1  0  0  0  0
  6 10  1  0  0  0  0
  7  9  1  0  0  0  0
  7 11  1  0  0  0  0
  7 12  2  0  0  0  0
  8 11  1  0  0  0  0
  8 13  2  0  0  0  0
  8 14  1  0  0  0  0
  9 10  1  0  0  0  0
  9 14  1  0  0  0  0
  9 20  1  1  0  0  0
 10 21  1  0  0  0  0
 10 22  1  0  0  0  0
M  END
$$$$
