7R7
 OpenBabel04161911563D

 27 28  0  0  1  0  0  0  0  0999 V2000
   -2.6392    4.0065   14.4241 C   0  0  0  0  0  0  0  0  0  0  0  0
   -2.6812    5.2798   13.8460 C   0  0  0  0  0  0  0  0  0  0  0  0
   -5.0552    5.3205   14.1448 C   0  0  0  0  0  0  0  0  0  0  0  0
   -3.8040    3.3655   14.8682 C   0  0  0  0  0  0  0  0  0  0  0  0
   -3.8973    5.9411   13.6949 C   0  0  0  0  0  0  0  0  0  0  0  0
   -5.0082    4.0559   14.7394 C   0  0  0  0  0  0  0  0  0  0  0  0
   -4.5351    0.9125   14.7981 C   0  0  0  0  0  0  0  0  0  0  0  0
   -5.2941    1.0781   16.7830 C   0  0  0  0  0  0  0  0  0  0  0  0
   -3.7239    1.9888   15.4827 C   0  0  2  0  0  0  0  0  0  0  0  0
   -2.9227    7.7331   12.5238 C   0  0  0  0  0  0  0  0  0  0  0  0
   -6.8116    4.0811   16.1941 C   0  0  0  0  0  0  0  0  0  0  0  0
   -5.4130    0.4025   15.6406 N   0  0  0  0  0  0  0  0  0  0  0  0
   -4.3493    0.5828   13.6239 O   0  0  0  0  0  0  0  0  0  0  0  0
   -4.2661    1.9613   16.7925 O   0  0  0  0  0  0  0  0  0  0  0  0
   -4.0757    7.1821   13.1433 O   0  0  0  0  0  0  0  0  0  0  0  0
   -6.1683    3.4312   15.1095 O   0  0  0  0  0  0  0  0  0  0  0  0
   -6.2130    0.9737   18.1584 S   0  0  0  0  0  0  0  0  0  0  0  0
   -1.6841    3.4965   14.5284 H   0  0  0  0  0  0  0  0  0  0  0  0
   -1.7512    5.7266   13.5233 H   0  0  0  0  0  0  0  0  0  0  0  0
   -6.0087    5.8179   14.0224 H   0  0  0  0  0  0  0  0  0  0  0  0
   -2.6783    1.6720   15.5326 H   0  0  0  0  0  0  0  0  0  0  0  0
   -3.1634    8.7180   12.1123 H   0  0  0  0  0  0  0  0  0  0  0  0
   -2.5929    7.0886   11.7045 H   0  0  0  0  0  0  0  0  0  0  0  0
   -2.1238    7.8608   13.2581 H   0  0  0  0  0  0  0  0  0  0  0  0
   -7.7046    3.5003   16.4479 H   0  0  0  0  0  0  0  0  0  0  0  0
   -7.1294    5.0839   15.9037 H   0  0  0  0  0  0  0  0  0  0  0  0
   -6.1685    4.1351   17.0803 H   0  0  0  0  0  0  0  0  0  0  0  0
  1  2  2  0  0  0  0
  1  4  1  0  0  0  0
  1 18  1  0  0  0  0
  2  5  1  0  0  0  0
  2 19  1  0  0  0  0
  3  5  2  0  0  0  0
  3  6  1  0  0  0  0
  3 20  1  0  0  0  0
  4  6  2  0  0  0  0
  4  9  1  0  0  0  0
  5 15  1  0  0  0  0
  6 16  1  0  0  0  0
  7  9  1  0  0  0  0
  7 12  1  0  0  0  0
  7 13  2  0  0  0  0
  8 12  1  0  0  0  0
  8 14  1  0  0  0  0
  8 17  2  0  0  0  0
  9 14  1  0  0  0  0
  9 21  1  1  0  0  0
 10 15  1  0  0  0  0
 10 22  1  0  0  0  0
 10 23  1  0  0  0  0
 10 24  1  0  0  0  0
 11 16  1  0  0  0  0
 11 25  1  0  0  0  0
 11 26  1  0  0  0  0
 11 27  1  0  0  0  0
M  END
$$$$
