82E
 OpenBabel04161910163D

 34 36  0  0  0  0  0  0  0  0999 V2000
  -27.2408   -6.4446   -0.6934 N   0  0  0  0  0  0  0  0  0  0  0  0
  -27.1449   -5.2487   -1.8357 S   0  0  0  0  0  0  0  0  0  0  0  0
  -25.9758   -4.4607   -1.5257 O   0  0  0  0  0  0  0  0  0  0  0  0
  -27.3684   -5.8774   -3.1150 O   0  0  0  0  0  0  0  0  0  0  0  0
  -28.5780   -4.2378   -1.5677 C   0  0  0  0  0  0  0  0  0  0  0  0
  -29.9049   -4.5671   -1.3623 C   0  0  0  0  0  0  0  0  0  0  0  0
  -30.7415   -3.4126   -1.2859 C   0  0  0  0  0  0  0  0  0  0  0  0
  -30.0100   -2.2522   -1.4035 C   0  0  0  0  0  0  0  0  0  0  0  0
  -28.3394   -2.5535   -1.5639 S   0  0  0  0  0  0  0  0  0  0  0  0
  -30.5500   -0.8723   -1.4080 C   0  0  0  0  0  0  0  0  0  0  0  0
  -29.7767    0.2436   -1.2686 N   0  0  0  0  0  0  0  0  0  0  0  0
  -30.5766    1.2991   -1.2627 N   0  0  0  0  0  0  0  0  0  0  0  0
  -31.8311    0.8685   -1.5168 N   0  3  0  0  0  0  0  0  0  0  0  0
  -31.8631   -0.5034   -1.5623 C   0  0  0  0  0  0  0  0  0  0  0  0
  -32.9012    1.7721   -1.7223 C   0  0  0  0  0  0  0  0  0  0  0  0
  -34.0244    1.3650   -2.4492 C   0  0  0  0  0  0  0  0  0  0  0  0
  -35.0660    2.2654   -2.6726 C   0  0  0  0  0  0  0  0  0  0  0  0
  -35.0071    3.5582   -2.1495 C   0  0  0  0  0  0  0  0  0  0  0  0
  -33.8832    3.9510   -1.4165 C   0  0  0  0  0  0  0  0  0  0  0  0
  -32.8188    3.0680   -1.2162 C   0  0  0  0  0  0  0  0  0  0  0  0
  -35.9681    4.5185   -2.2982 O   0  0  0  0  0  0  0  0  0  0  0  0
  -37.1730    4.1199   -2.9434 C   0  0  0  0  0  0  0  0  0  0  0  0
  -27.1115   -6.1982    0.2818 H   0  0  0  0  0  0  0  0  0  0  0  0
  -27.4759   -7.3758   -1.0141 H   0  0  0  0  0  0  0  0  0  0  0  0
  -30.2534   -5.5915   -1.3082 H   0  0  0  0  0  0  0  0  0  0  0  0
  -31.8160   -3.4544   -1.1450 H   0  0  0  0  0  0  0  0  0  0  0  0
  -32.7734   -1.0649   -1.6926 H   0  0  0  0  0  0  0  0  0  0  0  0
  -34.0903    0.3806   -2.9019 H   0  0  0  0  0  0  0  0  0  0  0  0
  -35.9047    1.9303   -3.2757 H   0  0  0  0  0  0  0  0  0  0  0  0
  -33.8337    4.9537   -0.9957 H   0  0  0  0  0  0  0  0  0  0  0  0
  -31.9595    3.3983   -0.6335 H   0  0  0  0  0  0  0  0  0  0  0  0
  -37.8375    4.9872   -2.9816 H   0  0  0  0  0  0  0  0  0  0  0  0
  -37.6794    3.3331   -2.3738 H   0  0  0  0  0  0  0  0  0  0  0  0
  -36.9863    3.8013   -3.9746 H   0  0  0  0  0  0  0  0  0  0  0  0
  1  2  1  0  0  0  0
  1 23  1  0  0  0  0
  1 24  1  0  0  0  0
  2  3  2  0  0  0  0
  2  4  2  0  0  0  0
  2  5  1  0  0  0  0
  5  6  2  0  0  0  0
  5  9  1  0  0  0  0
  6  7  1  0  0  0  0
  6 25  1  0  0  0  0
  7  8  2  0  0  0  0
  7 26  1  0  0  0  0
  8  9  1  0  0  0  0
  8 10  1  0  0  0  0
 10 11  1  0  0  0  0
 10 14  2  0  0  0  0
 11 12  1  0  0  0  0
 12 13  2  0  0  0  0
 13 14  1  0  0  0  0
 13 15  1  0  0  0  0
 14 27  1  0  0  0  0
 15 16  2  0  0  0  0
 15 20  1  0  0  0  0
 16 17  1  0  0  0  0
 16 28  1  0  0  0  0
 17 18  2  0  0  0  0
 17 29  1  0  0  0  0
 18 19  1  0  0  0  0
 18 21  1  0  0  0  0
 19 20  2  0  0  0  0
 19 30  1  0  0  0  0
 20 31  1  0  0  0  0
 21 22  1  0  0  0  0
 22 32  1  0  0  0  0
 22 33  1  0  0  0  0
 22 34  1  0  0  0  0
M  CHG  1  13   1
M  END
$$$$
