82V
 OpenBabel04161911583D

 43 47  0  0  0  0  0  0  0  0999 V2000
  -16.8548    4.7029    8.7880 C   0  0  0  0  0  0  0  0  0  0  0  0
  -17.5413    2.8102    3.9939 C   0  0  0  0  0  0  0  0  0  0  0  0
  -16.4123    1.2103    2.5221 C   0  0  0  0  0  0  0  0  0  0  0  0
  -14.7697    0.2414    4.1470 C   0  0  0  0  0  0  0  0  0  0  0  0
  -12.6608   -1.5265    4.8273 C   0  0  0  0  0  0  0  0  0  0  0  0
  -11.8739   -3.7080    4.9760 C   0  0  0  0  0  0  0  0  0  0  0  0
  -14.7223   -1.0716    3.6374 C   0  0  0  0  0  0  0  0  0  0  0  0
  -19.3012    4.4186    4.1601 O   0  0  0  0  0  0  0  0  0  0  0  0
  -18.3562    3.7906    4.6500 C   0  0  0  0  0  0  0  0  0  0  0  0
  -17.9772    4.0424    6.0757 C   0  0  0  0  0  0  0  0  0  0  0  0
  -16.9615    3.3538    6.6461 C   0  0  0  0  0  0  0  0  0  0  0  0
  -16.5231    3.5151    7.9721 N   0  0  0  0  0  0  0  0  0  0  0  0
  -15.5726    2.5213    8.5329 C   0  0  0  0  0  0  0  0  0  0  0  0
  -14.9615    2.8255    9.9025 C   0  0  0  0  0  0  0  0  0  0  0  0
  -14.9248    4.2150   10.2132 O   0  0  0  0  0  0  0  0  0  0  0  0
  -16.2633    4.7062   10.2005 C   0  0  0  0  0  0  0  0  0  0  0  0
  -16.2568    2.3719    5.9255 O   0  3  0  0  0  0  0  0  0  0  0  0
  -16.5316    2.1257    4.6294 C   0  0  0  0  0  0  0  0  0  0  0  0
  -17.6986    2.3444    2.3730 S   0  0  0  0  0  0  0  0  0  0  0  0
  -15.8705    1.1613    3.7995 C   0  0  0  0  0  0  0  0  0  0  0  0
  -13.7365    0.6458    5.0052 C   0  0  0  0  0  0  0  0  0  0  0  0
  -12.6903   -0.2294    5.3361 C   0  0  0  0  0  0  0  0  0  0  0  0
  -11.6063   -2.3203    5.1948 O   0  0  0  0  0  0  0  0  0  0  0  0
  -12.5399   -3.9694    3.6345 C   0  0  0  0  0  0  0  0  0  0  0  0
  -13.7379   -3.2099    3.4422 O   0  0  0  0  0  0  0  0  0  0  0  0
  -13.6783   -1.9475    3.9734 C   0  0  0  0  0  0  0  0  0  0  0  0
  -17.9428    4.7817    8.8840 H   0  0  0  0  0  0  0  0  0  0  0  0
  -16.5042    5.6018    8.2655 H   0  0  0  0  0  0  0  0  0  0  0  0
  -16.1235    0.6380    1.6509 H   0  0  0  0  0  0  0  0  0  0  0  0
  -12.4893   -4.0807    5.8042 H   0  0  0  0  0  0  0  0  0  0  0  0
  -10.9163   -4.2399    5.0164 H   0  0  0  0  0  0  0  0  0  0  0  0
  -15.5043   -1.4366    2.9775 H   0  0  0  0  0  0  0  0  0  0  0  0
  -18.5757    4.7730    6.5993 H   0  0  0  0  0  0  0  0  0  0  0  0
  -14.7425    2.3669    7.8319 H   0  0  0  0  0  0  0  0  0  0  0  0
  -16.1014    1.5621    8.6044 H   0  0  0  0  0  0  0  0  0  0  0  0
  -13.9374    2.4381    9.9457 H   0  0  0  0  0  0  0  0  0  0  0  0
  -15.5168    2.3006   10.6910 H   0  0  0  0  0  0  0  0  0  0  0  0
  -16.8777    4.1024   10.8796 H   0  0  0  0  0  0  0  0  0  0  0  0
  -16.2539    5.7243   10.6027 H   0  0  0  0  0  0  0  0  0  0  0  0
  -13.7237    1.6521    5.4219 H   0  0  0  0  0  0  0  0  0  0  0  0
  -11.8988    0.1058    6.0048 H   0  0  0  0  0  0  0  0  0  0  0  0
  -12.8154   -5.0286    3.5727 H   0  0  0  0  0  0  0  0  0  0  0  0
  -11.8535   -3.7613    2.8044 H   0  0  0  0  0  0  0  0  0  0  0  0
  1 12  1  0  0  0  0
  1 16  1  0  0  0  0
  1 27  1  0  0  0  0
  1 28  1  0  0  0  0
  2  9  1  0  0  0  0
  2 18  2  0  0  0  0
  2 19  1  0  0  0  0
  3 19  1  0  0  0  0
  3 20  2  0  0  0  0
  3 29  1  0  0  0  0
  4  7  2  0  0  0  0
  4 20  1  0  0  0  0
  4 21  1  0  0  0  0
  5 22  1  0  0  0  0
  5 23  1  0  0  0  0
  5 26  2  0  0  0  0
  6 23  1  0  0  0  0
  6 24  1  0  0  0  0
  6 30  1  0  0  0  0
  6 31  1  0  0  0  0
  7 26  1  0  0  0  0
  7 32  1  0  0  0  0
  8  9  2  0  0  0  0
  9 10  1  0  0  0  0
 10 11  2  0  0  0  0
 10 33  1  0  0  0  0
 11 12  1  0  0  0  0
 11 17  1  0  0  0  0
 12 13  1  0  0  0  0
 13 14  1  0  0  0  0
 13 34  1  0  0  0  0
 13 35  1  0  0  0  0
 14 15  1  0  0  0  0
 14 36  1  0  0  0  0
 14 37  1  0  0  0  0
 15 16  1  0  0  0  0
 16 38  1  0  0  0  0
 16 39  1  0  0  0  0
 17 18  1  0  0  0  0
 18 20  1  0  0  0  0
 21 22  2  0  0  0  0
 21 40  1  0  0  0  0
 22 41  1  0  0  0  0
 24 25  1  0  0  0  0
 24 42  1  0  0  0  0
 24 43  1  0  0  0  0
 25 26  1  0  0  0  0
M  CHG  1  17   1
M  END
$$$$
