838
 OpenBabel04161911513D

 84 86  0  0  1  0  0  0  0  0999 V2000
    3.7009   16.9966    1.9605 N   0  0  0  0  0  0  0  0  0  0  0  0
    4.0965   15.6911    1.6363 N   0  0  0  0  0  0  0  0  0  0  0  0
    2.2118   14.8473    3.0098 C   0  0  0  0  0  0  0  0  0  0  0  0
    1.7988   16.2903    3.3013 C   0  0  0  0  0  0  0  0  0  0  0  0
    2.2570   17.1837    2.1543 C   0  0  0  0  0  0  0  0  0  0  0  0
    3.7043   14.7488    2.6947 C   0  0  1  0  0  0  0  0  0  0  0  0
   10.4285   19.1969    0.1990 C   0  0  0  0  0  0  0  0  0  0  0  0
   11.6649   18.5433   -0.4074 C   0  0  2  0  0  0  0  0  0  0  0  0
   12.4573   19.6259   -1.1601 C   0  0  0  0  0  0  0  0  0  0  0  0
   11.3573   17.3135   -1.3050 C   0  0  1  0  0  0  0  0  0  0  0  0
   10.7637   16.0635   -0.5871 C   0  0  0  0  0  0  0  0  0  0  0  0
    9.3964   16.2264    0.0904 C   0  0  0  0  0  0  0  0  0  0  0  0
    4.0219   13.3531    2.1872 C   0  0  0  0  0  0  0  0  0  0  0  0
    5.2421   11.3891    2.7542 C   0  0  1  0  0  0  0  0  0  0  0  0
    6.3028   11.3920    1.6609 C   0  0  0  0  0  0  0  0  0  0  0  0
    7.0911   12.5265    1.3835 C   0  0  0  0  0  0  0  0  0  0  0  0
    8.0486   12.5453    0.3507 C   0  0  0  0  0  0  0  0  0  0  0  0
    8.2291   11.3863   -0.4117 C   0  0  0  0  0  0  0  0  0  0  0  0
    7.4488   10.2524   -0.1616 C   0  0  0  0  0  0  0  0  0  0  0  0
    6.4978   10.2548    0.8670 C   0  0  0  0  0  0  0  0  0  0  0  0
    8.8892   13.7273    0.0776 C   0  0  0  0  0  0  0  0  0  0  0  0
    8.5636   14.9927    0.3739 C   0  0  0  0  0  0  0  0  0  0  0  0
   10.7894   16.9539   -3.6235 C   0  0  0  0  0  0  0  0  0  0  0  0
    5.7384   10.8220    4.0830 C   0  0  0  0  0  0  0  0  0  0  0  0
   10.3756   19.5036    1.4006 O   0  0  0  0  0  0  0  0  0  0  0  0
    3.6178   12.8933    1.1171 O   0  0  0  0  0  0  0  0  0  0  0  0
   10.5815   17.7323   -2.4455 O   0  0  0  0  0  0  0  0  0  0  0  0
    4.8024   12.7170    3.0855 O   0  0  0  0  0  0  0  0  0  0  0  0
    9.4192   19.4791   -0.6841 N   0  0  0  0  0  0  0  0  0  0  0  0
    8.1358   20.0492   -0.2783 C   0  0  2  0  0  0  0  0  0  0  0  0
    7.1533   18.8977    0.0253 C   0  0  0  0  0  0  0  0  0  0  0  0
    6.6989   18.1672   -0.8414 O   0  0  0  0  0  0  0  0  0  0  0  0
    7.5582   21.0266   -1.3193 C   0  0  0  0  0  0  0  0  0  0  0  0
    6.3485   21.7631   -0.7360 C   0  0  0  0  0  0  0  0  0  0  0  0
    8.5996   22.0615   -1.7450 C   0  0  0  0  0  0  0  0  0  0  0  0
    6.9539   18.6705    1.3721 N   0  0  0  0  0  0  0  0  0  0  0  0
    6.1320   17.5814    1.8766 C   0  0  2  0  0  0  0  0  0  0  0  0
    4.6574   18.0013    2.0987 C   0  0  0  0  0  0  0  0  0  0  0  0
    4.3749   19.1375    2.4296 O   0  0  0  0  0  0  0  0  0  0  0  0
    6.7366   17.0434    3.1648 C   0  0  0  0  0  0  0  0  0  0  0  0
    3.6471   15.4286    0.7561 H   0  0  0  0  0  0  0  0  0  0  0  0
    1.6324   14.4764    2.1549 H   0  0  0  0  0  0  0  0  0  0  0  0
    1.9803   14.2176    3.8765 H   0  0  0  0  0  0  0  0  0  0  0  0
    2.2728   16.6239    4.2327 H   0  0  0  0  0  0  0  0  0  0  0  0
    0.7122   16.3501    3.4218 H   0  0  0  0  0  0  0  0  0  0  0  0
    1.7433   16.8795    1.2301 H   0  0  0  0  0  0  0  0  0  0  0  0
    2.0132   18.2289    2.3634 H   0  0  0  0  0  0  0  0  0  0  0  0
    4.2874   14.9566    3.6007 H   0  0  0  0  0  0  0  0  0  0  0  0
   12.3056   18.2000    0.4152 H   0  0  0  0  0  0  0  0  0  0  0  0
   12.6703   20.4783   -0.4995 H   0  0  0  0  0  0  0  0  0  0  0  0
   11.8950   20.0017   -2.0226 H   0  0  0  0  0  0  0  0  0  0  0  0
   13.4167   19.2298   -1.5180 H   0  0  0  0  0  0  0  0  0  0  0  0
   12.3319   16.9761   -1.6778 H   0  0  0  0  0  0  0  0  0  0  0  0
   11.4844   15.7337    0.1751 H   0  0  0  0  0  0  0  0  0  0  0  0
   10.6866   15.2680   -1.3367 H   0  0  0  0  0  0  0  0  0  0  0  0
    8.7919   16.8713   -0.5424 H   0  0  0  0  0  0  0  0  0  0  0  0
    9.5610   16.7163    1.0556 H   0  0  0  0  0  0  0  0  0  0  0  0
    4.3806   10.7851    2.4359 H   0  0  0  0  0  0  0  0  0  0  0  0
    6.9559   13.4191    1.9855 H   0  0  0  0  0  0  0  0  0  0  0  0
    8.9659   11.3572   -1.2132 H   0  0  0  0  0  0  0  0  0  0  0  0
    7.5801    9.3582   -0.7682 H   0  0  0  0  0  0  0  0  0  0  0  0
    5.9133    9.3549    1.0445 H   0  0  0  0  0  0  0  0  0  0  0  0
    9.8410   13.5446   -0.4105 H   0  0  0  0  0  0  0  0  0  0  0  0
    7.5983   15.1770    0.8467 H   0  0  0  0  0  0  0  0  0  0  0  0
   10.1708   17.3685   -4.4289 H   0  0  0  0  0  0  0  0  0  0  0  0
   10.4947   15.9143   -3.4593 H   0  0  0  0  0  0  0  0  0  0  0  0
   11.8385   16.9983   -3.9383 H   0  0  0  0  0  0  0  0  0  0  0  0
    4.9350   10.8599    4.8377 H   0  0  0  0  0  0  0  0  0  0  0  0
    6.5723   11.4218    4.4722 H   0  0  0  0  0  0  0  0  0  0  0  0
    6.0654    9.7839    3.9794 H   0  0  0  0  0  0  0  0  0  0  0  0
    9.5334   19.1604   -1.6451 H   0  0  0  0  0  0  0  0  0  0  0  0
    8.3033   20.6150    0.6398 H   0  0  0  0  0  0  0  0  0  0  0  0
    7.2300   20.4826   -2.2131 H   0  0  0  0  0  0  0  0  0  0  0  0
    5.9450   22.4807   -1.4598 H   0  0  0  0  0  0  0  0  0  0  0  0
    6.6295   22.3125    0.1721 H   0  0  0  0  0  0  0  0  0  0  0  0
    5.5571   21.0524   -0.4781 H   0  0  0  0  0  0  0  0  0  0  0  0
    9.4755   21.5651   -2.1721 H   0  0  0  0  0  0  0  0  0  0  0  0
    8.9230   22.6622   -0.8864 H   0  0  0  0  0  0  0  0  0  0  0  0
    8.1853   22.7353   -2.5034 H   0  0  0  0  0  0  0  0  0  0  0  0
    7.3467   19.3264    2.0318 H   0  0  0  0  0  0  0  0  0  0  0  0
    6.1497   16.7829    1.1340 H   0  0  0  0  0  0  0  0  0  0  0  0
    6.1318   16.2291    3.5686 H   0  0  0  0  0  0  0  0  0  0  0  0
    6.8063   17.8302    3.9257 H   0  0  0  0  0  0  0  0  0  0  0  0
    7.7452   16.6614    2.9724 H   0  0  0  0  0  0  0  0  0  0  0  0
  1  2  1  0  0  0  0
  1  5  1  0  0  0  0
  1 38  1  0  0  0  0
  2  6  1  0  0  0  0
  2 41  1  0  0  0  0
  3  4  1  0  0  0  0
  3  6  1  0  0  0  0
  3 42  1  0  0  0  0
  3 43  1  0  0  0  0
  4  5  1  0  0  0  0
  4 44  1  0  0  0  0
  4 45  1  0  0  0  0
  5 46  1  0  0  0  0
  5 47  1  0  0  0  0
  6 13  1  0  0  0  0
  6 48  1  1  0  0  0
  7  8  1  0  0  0  0
  7 25  2  0  0  0  0
  7 29  1  0  0  0  0
  8  9  1  0  0  0  0
  8 10  1  0  0  0  0
  8 49  1  1  0  0  0
  9 50  1  0  0  0  0
  9 51  1  0  0  0  0
  9 52  1  0  0  0  0
 10 11  1  0  0  0  0
 10 27  1  0  0  0  0
 10 53  1  6  0  0  0
 11 12  1  0  0  0  0
 11 54  1  0  0  0  0
 11 55  1  0  0  0  0
 12 22  1  0  0  0  0
 12 56  1  0  0  0  0
 12 57  1  0  0  0  0
 13 26  2  0  0  0  0
 13 28  1  0  0  0  0
 14 15  1  0  0  0  0
 14 24  1  0  0  0  0
 14 28  1  0  0  0  0
 14 58  1  6  0  0  0
 15 16  2  0  0  0  0
 15 20  1  0  0  0  0
 16 17  1  0  0  0  0
 16 59  1  0  0  0  0
 17 18  2  0  0  0  0
 17 21  1  0  0  0  0
 18 19  1  0  0  0  0
 18 60  1  0  0  0  0
 19 20  2  0  0  0  0
 19 61  1  0  0  0  0
 20 62  1  0  0  0  0
 21 22  2  0  0  0  0
 21 63  1  0  0  0  0
 22 64  1  0  0  0  0
 23 27  1  0  0  0  0
 23 65  1  0  0  0  0
 23 66  1  0  0  0  0
 23 67  1  0  0  0  0
 24 68  1  0  0  0  0
 24 69  1  0  0  0  0
 24 70  1  0  0  0  0
 29 30  1  0  0  0  0
 29 71  1  0  0  0  0
 30 31  1  0  0  0  0
 30 33  1  0  0  0  0
 30 72  1  1  0  0  0
 31 32  2  0  0  0  0
 31 36  1  0  0  0  0
 33 34  1  0  0  0  0
 33 35  1  0  0  0  0
 33 73  1  0  0  0  0
 34 74  1  0  0  0  0
 34 75  1  0  0  0  0
 34 76  1  0  0  0  0
 35 77  1  0  0  0  0
 35 78  1  0  0  0  0
 35 79  1  0  0  0  0
 36 37  1  0  0  0  0
 36 80  1  0  0  0  0
 37 38  1  0  0  0  0
 37 40  1  0  0  0  0
 37 81  1  6  0  0  0
 38 39  2  0  0  0  0
 40 82  1  0  0  0  0
 40 83  1  0  0  0  0
 40 84  1  0  0  0  0
M  END
$$$$
