84J
 OpenBabel04161912003D

 43 45  0  0  1  0  0  0  0  0999 V2000
  -11.2780   19.0627  -49.0409 C   0  0  2  0  0  0  0  0  0  0  0  0
  -10.9204   20.2470  -48.1772 C   0  0  0  0  0  0  0  0  0  0  0  0
  -10.9820   19.3760  -50.4023 N   0  3  0  0  0  0  0  0  0  0  0  0
   -9.5646   19.3859  -50.8774 C   0  0  2  0  0  0  0  0  0  0  0  0
   -9.5946   19.7659  -52.7775 P   0  0  0  0  0  0  0  0  0  0  0  0
  -10.4254   18.5765  -53.2491 O   0  0  0  0  0  0  0  0  0  0  0  0
   -8.1271   19.8405  -53.1444 O   0  0  0  0  0  0  0  0  0  0  0  0
  -10.3820   21.0707  -52.7324 O   0  0  0  0  0  0  0  0  0  0  0  0
   -8.8001   18.1798  -50.4275 C   0  0  0  0  0  0  0  0  0  0  0  0
   -9.2914   16.8843  -50.5543 C   0  0  0  0  0  0  0  0  0  0  0  0
  -10.5165   16.6480  -51.1725 N   0  3  0  0  0  0  0  0  0  0  0  0
  -11.0730   15.4294  -51.4199 C   0  0  0  0  0  0  0  0  0  0  0  0
  -12.1507   15.2772  -51.8986 O   0  0  0  0  0  0  0  0  0  0  0  0
  -10.3007   14.2549  -50.8047 C   0  0  0  0  0  0  0  0  0  0  0  0
  -10.7620   13.1321  -50.8403 O   0  0  0  0  0  0  0  0  0  0  0  0
   -9.1360   14.5388  -50.1457 N   0  3  0  0  0  0  0  0  0  0  0  0
   -8.5980   15.8137  -50.0201 C   0  0  0  0  0  0  0  0  0  0  0  0
   -7.3880   16.0185  -49.3550 C   0  0  0  0  0  0  0  0  0  0  0  0
   -6.8991   17.3171  -49.2239 C   0  0  0  0  0  0  0  0  0  0  0  0
   -7.5913   18.3885  -49.7624 C   0  0  0  0  0  0  0  0  0  0  0  0
  -13.7552   19.6012  -48.8810 C   0  0  0  0  0  0  0  0  0  0  0  0
  -15.0882   19.1917  -48.8772 C   0  0  0  0  0  0  0  0  0  0  0  0
  -15.3967   17.8411  -49.0270 C   0  0  0  0  0  0  0  0  0  0  0  0
  -17.1957   17.2603  -49.0264 Br  0  0  0  0  0  0  0  0  0  0  0  0
  -14.3834   16.9042  -49.1852 C   0  0  0  0  0  0  0  0  0  0  0  0
  -13.0573   17.3186  -49.1819 C   0  0  0  0  0  0  0  0  0  0  0  0
  -12.7275   18.6625  -48.9978 C   0  0  0  0  0  0  0  0  0  0  0  0
  -10.6585   18.2161  -48.7313 H   0  0  0  0  0  0  0  0  0  0  0  0
  -11.1456   20.0095  -47.1405 H   0  0  0  0  0  0  0  0  0  0  0  0
  -11.4885   21.1351  -48.4729 H   0  0  0  0  0  0  0  0  0  0  0  0
   -9.8547   20.4910  -48.2581 H   0  0  0  0  0  0  0  0  0  0  0  0
  -11.4524   18.7367  -51.0374 H   0  0  0  0  0  0  0  0  0  0  0  0
   -9.1099   20.2605  -50.4114 H   0  0  0  0  0  0  0  0  0  0  0  0
  -10.9919   17.3596  -51.7073 H   0  0  0  0  0  0  0  0  0  0  0  0
   -8.6444   13.7263  -49.7880 H   0  0  0  0  0  0  0  0  0  0  0  0
   -6.8196   15.1935  -48.9662 H   0  0  0  0  0  0  0  0  0  0  0  0
   -5.9664   17.4954  -48.7032 H   0  0  0  0  0  0  0  0  0  0  0  0
   -7.2014   19.4011  -49.6868 H   0  0  0  0  0  0  0  0  0  0  0  0
  -13.5231   20.6606  -48.7866 H   0  0  0  0  0  0  0  0  0  0  0  0
  -15.8749   19.9314  -48.7601 H   0  0  0  0  0  0  0  0  0  0  0  0
  -14.6117   15.8497  -49.3136 H   0  0  0  0  0  0  0  0  0  0  0  0
  -12.2734   16.5781  -49.3196 H   0  0  0  0  0  0  0  0  0  0  0  0
  -11.3550   20.2723  -50.7447 H   0  0  0  0  0  0  0  0  0  0  0  0
  1  2  1  0  0  0  0
  1  3  1  0  0  0  0
  1 27  1  0  0  0  0
  1 28  1  1  0  0  0
  2 29  1  0  0  0  0
  2 30  1  0  0  0  0
  2 31  1  0  0  0  0
  3  4  1  0  0  0  0
  3 32  1  0  0  0  0
  3 43  1  0  0  0  0
  4  5  1  0  0  0  0
  4  9  1  0  0  0  0
  4 33  1  1  0  0  0
  5  6  2  0  0  0  0
  5  7  1  0  0  0  0
  5  8  1  0  0  0  0
  9 10  2  0  0  0  0
  9 20  1  0  0  0  0
 10 11  1  0  0  0  0
 10 17  1  0  0  0  0
 11 12  1  0  0  0  0
 11 34  1  0  0  0  0
 12 13  2  0  0  0  0
 12 14  1  0  0  0  0
 14 15  2  0  0  0  0
 14 16  1  0  0  0  0
 16 17  1  0  0  0  0
 16 35  1  0  0  0  0
 17 18  2  0  0  0  0
 18 19  1  0  0  0  0
 18 36  1  0  0  0  0
 19 20  2  0  0  0  0
 19 37  1  0  0  0  0
 20 38  1  0  0  0  0
 21 22  2  0  0  0  0
 21 27  1  0  0  0  0
 21 39  1  0  0  0  0
 22 23  1  0  0  0  0
 22 40  1  0  0  0  0
 23 24  1  0  0  0  0
 23 25  2  0  0  0  0
 25 26  1  0  0  0  0
 25 41  1  0  0  0  0
 26 27  2  0  0  0  0
 26 42  1  0  0  0  0
M  CHG  3   3   1  11   1  16   1
M  END
$$$$
