88J
 OpenBabel04161912013D

 58 62  0  0  1  0  0  0  0  0999 V2000
   18.1019   14.0446  -22.1371 C   0  0  0  0  0  0  0  0  0  0  0  0
   17.1169   15.0162  -22.3168 C   0  0  0  0  0  0  0  0  0  0  0  0
   18.7533   13.9239  -20.9123 C   0  0  0  0  0  0  0  0  0  0  0  0
   16.7826   15.8574  -21.2634 C   0  0  0  0  0  0  0  0  0  0  0  0
   18.4360   14.7798  -19.8639 C   0  0  0  0  0  0  0  0  0  0  0  0
   16.8233   20.6723  -15.8570 C   0  0  0  0  0  0  0  0  0  0  0  0
   16.5289   19.3079  -15.7548 C   0  0  0  0  0  0  0  0  0  0  0  0
   20.1545   22.6458  -16.5088 C   0  0  0  0  0  0  0  0  0  0  0  0
   18.5703   23.6004  -14.9753 C   0  0  0  0  0  0  0  0  0  0  0  0
   17.4868   20.3269  -18.1239 C   0  0  0  0  0  0  0  0  0  0  0  0
   21.1426   22.9347  -15.5845 C   0  0  0  0  0  0  0  0  0  0  0  0
   19.6288   23.8553  -14.1220 C   0  0  0  0  0  0  0  0  0  0  0  0
   15.2002   23.4407  -16.8513 C   0  0  0  0  0  0  0  0  0  0  0  0
   15.3904   25.5287  -17.2156 C   0  0  0  0  0  0  0  0  0  0  0  0
   17.1981   18.9560  -18.0251 C   0  0  0  0  0  0  0  0  0  0  0  0
   17.4490   15.7592  -20.0273 C   0  0  0  0  0  0  0  0  0  0  0  0
   17.1330   16.6865  -18.9334 C   0  0  0  0  0  0  0  0  0  0  0  0
   17.3065   21.2090  -17.0574 C   0  0  0  0  0  0  0  0  0  0  0  0
   18.8279   23.0016  -16.2168 C   0  0  0  0  0  0  0  0  0  0  0  0
   16.7064   18.4393  -16.8250 C   0  0  0  0  0  0  0  0  0  0  0  0
   17.4123   18.0574  -19.0790 C   0  0  0  0  0  0  0  0  0  0  0  0
   16.5396   23.6328  -17.1393 C   0  0  0  0  0  0  0  0  0  0  0  0
   16.6270   16.2609  -17.6837 C   0  0  0  0  0  0  0  0  0  0  0  0
   17.8066   25.7296  -17.7896 C   0  0  0  0  0  0  0  0  0  0  0  0
   15.3276   14.3016  -18.2451 C   0  0  0  0  0  0  0  0  0  0  0  0
   16.2290   14.5984  -15.9906 C   0  0  0  0  0  0  0  0  0  0  0  0
   17.7050   22.6809  -17.2016 C   0  0  2  0  0  0  0  0  0  0  0  0
   20.9099   23.5418  -14.4018 N   0  0  0  0  0  0  0  0  0  0  0  0
   14.5054   24.6196  -16.8896 N   0  0  0  0  0  0  0  0  0  0  0  0
   16.4260   17.1403  -16.6682 N   0  0  0  0  0  0  0  0  0  0  0  0
   16.6311   24.9892  -17.3974 N   0  3  0  0  0  0  0  0  0  0  0  0
   16.3803   14.8941  -17.4161 N   0  0  0  0  0  0  0  0  0  0  0  0
   18.2341   22.9000  -18.5202 O   0  0  0  0  0  0  0  0  0  0  0  0
   18.1123   18.6573  -20.5768 Cl  0  0  0  0  0  0  0  0  0  0  0  0
   18.3654   13.3838  -22.9532 H   0  0  0  0  0  0  0  0  0  0  0  0
   16.6171   15.1236  -23.2749 H   0  0  0  0  0  0  0  0  0  0  0  0
   19.5147   13.1604  -20.7705 H   0  0  0  0  0  0  0  0  0  0  0  0
   16.0132   16.6156  -21.4127 H   0  0  0  0  0  0  0  0  0  0  0  0
   18.9518   14.6817  -18.9115 H   0  0  0  0  0  0  0  0  0  0  0  0
   16.6883   21.3014  -14.9794 H   0  0  0  0  0  0  0  0  0  0  0  0
   16.1723   18.9100  -14.8065 H   0  0  0  0  0  0  0  0  0  0  0  0
   20.4106   22.1482  -17.4393 H   0  0  0  0  0  0  0  0  0  0  0  0
   17.5638   23.8731  -14.6726 H   0  0  0  0  0  0  0  0  0  0  0  0
   17.8997   20.7080  -19.0532 H   0  0  0  0  0  0  0  0  0  0  0  0
   22.1791   22.6741  -15.7777 H   0  0  0  0  0  0  0  0  0  0  0  0
   19.4632   24.3323  -13.1611 H   0  0  0  0  0  0  0  0  0  0  0  0
   14.6944   22.5146  -16.6098 H   0  0  0  0  0  0  0  0  0  0  0  0
   15.1854   26.5851  -17.3353 H   0  0  0  0  0  0  0  0  0  0  0  0
   17.5518   26.7870  -17.8941 H   0  0  0  0  0  0  0  0  0  0  0  0
   18.1637   25.3501  -18.7493 H   0  0  0  0  0  0  0  0  0  0  0  0
   18.5717   25.6215  -17.0201 H   0  0  0  0  0  0  0  0  0  0  0  0
   15.1852   13.2512  -17.9667 H   0  0  0  0  0  0  0  0  0  0  0  0
   15.5681   14.2849  -19.3082 H   0  0  0  0  0  0  0  0  0  0  0  0
   14.3741   14.8243  -18.1142 H   0  0  0  0  0  0  0  0  0  0  0  0
   17.0497   15.0167  -15.3968 H   0  0  0  0  0  0  0  0  0  0  0  0
   16.2596   13.5131  -15.8386 H   0  0  0  0  0  0  0  0  0  0  0  0
   15.2717   14.9652  -15.6012 H   0  0  0  0  0  0  0  0  0  0  0  0
   17.4829   22.8002  -19.1314 H   0  0  0  0  0  0  0  0  0  0  0  0
  1  2  2  0  0  0  0
  1  3  1  0  0  0  0
  1 35  1  0  0  0  0
  2  4  1  0  0  0  0
  2 36  1  0  0  0  0
  3  5  2  0  0  0  0
  3 37  1  0  0  0  0
  4 16  2  0  0  0  0
  4 38  1  0  0  0  0
  5 16  1  0  0  0  0
  5 39  1  0  0  0  0
  6  7  2  0  0  0  0
  6 18  1  0  0  0  0
  6 40  1  0  0  0  0
  7 20  1  0  0  0  0
  7 41  1  0  0  0  0
  8 11  2  0  0  0  0
  8 19  1  0  0  0  0
  8 42  1  0  0  0  0
  9 12  1  0  0  0  0
  9 19  2  0  0  0  0
  9 43  1  0  0  0  0
 10 15  1  0  0  0  0
 10 18  2  0  0  0  0
 10 44  1  0  0  0  0
 11 28  1  0  0  0  0
 11 45  1  0  0  0  0
 12 28  2  0  0  0  0
 12 46  1  0  0  0  0
 13 22  2  0  0  0  0
 13 29  1  0  0  0  0
 13 47  1  0  0  0  0
 14 29  1  0  0  0  0
 14 31  2  0  0  0  0
 14 48  1  0  0  0  0
 15 20  2  0  0  0  0
 15 21  1  0  0  0  0
 16 17  1  0  0  0  0
 17 21  2  0  0  0  0
 17 23  1  0  0  0  0
 19 27  1  0  0  0  0
 20 30  1  0  0  0  0
 21 34  1  0  0  0  0
 22 27  1  0  0  0  0
 22 31  1  0  0  0  0
 23 30  2  0  0  0  0
 23 32  1  0  0  0  0
 24 31  1  0  0  0  0
 24 49  1  0  0  0  0
 24 50  1  0  0  0  0
 24 51  1  0  0  0  0
 25 32  1  0  0  0  0
 25 52  1  0  0  0  0
 25 53  1  0  0  0  0
 25 54  1  0  0  0  0
 26 32  1  0  0  0  0
 26 55  1  0  0  0  0
 26 56  1  0  0  0  0
 26 57  1  0  0  0  0
 27 18  1  1  0  0  0
 27 33  1  0  0  0  0
 33 58  1  0  0  0  0
M  CHG  1  31   1
M  END
$$$$
