8B7
 OpenBabel04161912013D

 65 67  0  0  1  0  0  0  0  0999 V2000
    9.4405    6.5998   25.3758 C   0  0  1  0  0  0  0  0  0  0  0  0
    8.1041    6.9948   25.6827 O   0  0  0  0  0  0  0  0  0  0  0  0
   10.1983    6.4853   26.7058 C   0  0  1  0  0  0  0  0  0  0  0  0
   10.1086    7.7342   27.4299 O   0  0  0  0  0  0  0  0  0  0  0  0
    9.5727    5.3956   27.5469 C   0  0  2  0  0  0  0  0  0  0  0  0
   10.3810    5.1810   28.7329 O   0  0  0  0  0  0  0  0  0  0  0  0
    9.4673    4.0975   26.7756 C   0  0  2  0  0  0  0  0  0  0  0  0
   10.7714    3.5208   26.6357 O   0  0  0  0  0  0  0  0  0  0  0  0
    8.8399    4.2912   25.3938 C   0  0  1  0  0  0  0  0  0  0  0  0
    9.4104    5.3837   24.6519 O   0  0  0  0  0  0  0  0  0  0  0  0
    9.0018    3.0314   24.5659 C   0  0  0  0  0  0  0  0  0  0  0  0
    6.1318    7.5311   24.4529 C   0  0  1  0  0  0  0  0  0  0  0  0
    6.1881    6.3024   23.7566 O   0  0  0  0  0  0  0  0  0  0  0  0
    7.5839    7.9025   24.7151 C   0  0  1  0  0  0  0  0  0  0  0  0
    7.6492    9.2681   25.3506 C   0  0  1  0  0  0  0  0  0  0  0  0
    8.9908    9.6865   25.5456 O   0  0  0  0  0  0  0  0  0  0  0  0
    6.9311   10.3051   24.5354 C   0  0  1  0  0  0  0  0  0  0  0  0
    7.6562   10.6229   23.3363 O   0  0  0  0  0  0  0  0  0  0  0  0
    5.5137    9.8250   24.2178 C   0  0  2  0  0  0  0  0  0  0  0  0
    5.4926    8.5037   23.6382 O   0  0  0  0  0  0  0  0  0  0  0  0
    4.8786   10.7593   23.2178 C   0  0  0  0  0  0  0  0  0  0  0  0
    3.6096   10.2307   22.8813 O   0  0  0  0  0  0  0  0  0  0  0  0
    4.2200    2.8912   22.9615 C   0  0  1  0  0  0  0  0  0  0  0  0
    3.3489    1.8032   22.7040 O   0  0  0  0  0  0  0  0  0  0  0  0
    3.8163    4.0625   22.0842 C   0  0  2  0  0  0  0  0  0  0  0  0
    3.7027    3.6378   20.7233 O   0  0  0  0  0  0  0  0  0  0  0  0
    4.8906    5.1165   22.2402 C   0  0  1  0  0  0  0  0  0  0  0  0
    4.6006    6.2133   21.3660 O   0  0  0  0  0  0  0  0  0  0  0  0
    4.9597    5.5875   23.6767 C   0  0  1  0  0  0  0  0  0  0  0  0
    5.0336    4.3839   24.6317 C   0  0  2  0  0  0  0  0  0  0  0  0
    4.1323    3.3086   24.3143 O   0  0  0  0  0  0  0  0  0  0  0  0
    4.7101    4.8411   26.0347 C   0  0  0  0  0  0  0  0  0  0  0  0
    5.6561    4.2255   26.8895 O   0  0  0  0  0  0  0  0  0  0  0  0
    9.9380    7.3711   24.7823 H   0  0  0  0  0  0  0  0  0  0  0  0
   11.2645    6.2631   26.5132 H   0  0  0  0  0  0  0  0  0  0  0  0
   10.6812    8.3763   27.0136 H   0  0  0  0  0  0  0  0  0  0  0  0
    8.5687    5.7165   27.8907 H   0  0  0  0  0  0  0  0  0  0  0  0
    9.9631    4.4876   29.2445 H   0  0  0  0  0  0  0  0  0  0  0  0
    8.8591    3.3891   27.3484 H   0  0  0  0  0  0  0  0  0  0  0  0
   11.1374    3.4277   27.5334 H   0  0  0  0  0  0  0  0  0  0  0  0
    7.7739    4.4781   25.5290 H   0  0  0  0  0  0  0  0  0  0  0  0
    8.5534    3.1541   23.5791 H   0  0  0  0  0  0  0  0  0  0  0  0
    8.5386    2.1775   25.0691 H   0  0  0  0  0  0  0  0  0  0  0  0
   10.0650    2.8090   24.4130 H   0  0  0  0  0  0  0  0  0  0  0  0
    5.6077    7.4242   25.4040 H   0  0  0  0  0  0  0  0  0  0  0  0
    8.1406    7.8583   23.7696 H   0  0  0  0  0  0  0  0  0  0  0  0
    7.1743    9.2040   26.3418 H   0  0  0  0  0  0  0  0  0  0  0  0
    9.3545    8.9904   26.1297 H   0  0  0  0  0  0  0  0  0  0  0  0
    6.8785   11.2147   25.1166 H   0  0  0  0  0  0  0  0  0  0  0  0
    7.7888    9.8241   22.7970 H   0  0  0  0  0  0  0  0  0  0  0  0
    4.8901    9.8246   25.1243 H   0  0  0  0  0  0  0  0  0  0  0  0
    5.4851   10.8077   22.2974 H   0  0  0  0  0  0  0  0  0  0  0  0
    4.7922   11.7635   23.6367 H   0  0  0  0  0  0  0  0  0  0  0  0
    3.7656    9.3267   22.6062 H   0  0  0  0  0  0  0  0  0  0  0  0
    5.2421    2.5607   22.7319 H   0  0  0  0  0  0  0  0  0  0  0  0
    3.4148    1.6504   21.7403 H   0  0  0  0  0  0  0  0  0  0  0  0
    2.8543    4.4694   22.4196 H   0  0  0  0  0  0  0  0  0  0  0  0
    3.4878    4.4404   20.2136 H   0  0  0  0  0  0  0  0  0  0  0  0
    5.8708    4.7044   21.9470 H   0  0  0  0  0  0  0  0  0  0  0  0
    5.2947    6.8825   21.5224 H   0  0  0  0  0  0  0  0  0  0  0  0
    4.1060    6.2383   23.9159 H   0  0  0  0  0  0  0  0  0  0  0  0
    6.0447    3.9810   24.6245 H   0  0  0  0  0  0  0  0  0  0  0  0
    3.6832    4.5432   26.3222 H   0  0  0  0  0  0  0  0  0  0  0  0
    4.7809    5.9078   26.1777 H   0  0  0  0  0  0  0  0  0  0  0  0
    5.3234    4.3852   27.8050 H   0  0  0  0  0  0  0  0  0  0  0  0
  1  2  1  0  0  0  0
  1  3  1  0  0  0  0
  1 10  1  0  0  0  0
  1 34  1  6  0  0  0
  2 14  1  0  0  0  0
  3  4  1  0  0  0  0
  3  5  1  0  0  0  0
  3 35  1  6  0  0  0
  4 36  1  0  0  0  0
  5  6  1  0  0  0  0
  5  7  1  0  0  0  0
  5 37  1  1  0  0  0
  6 38  1  0  0  0  0
  7  8  1  0  0  0  0
  7  9  1  0  0  0  0
  7 39  1  1  0  0  0
  8 40  1  0  0  0  0
  9 10  1  0  0  0  0
  9 11  1  0  0  0  0
  9 41  1  1  0  0  0
 11 42  1  0  0  0  0
 11 43  1  0  0  0  0
 11 44  1  0  0  0  0
 12 13  1  0  0  0  0
 12 14  1  0  0  0  0
 12 20  1  0  0  0  0
 12 45  1  1  0  0  0
 13 29  1  0  0  0  0
 14 15  1  0  0  0  0
 14 46  1  6  0  0  0
 15 16  1  0  0  0  0
 15 17  1  0  0  0  0
 15 47  1  1  0  0  0
 16 48  1  0  0  0  0
 17 18  1  0  0  0  0
 17 19  1  0  0  0  0
 17 49  1  1  0  0  0
 18 50  1  0  0  0  0
 19 20  1  0  0  0  0
 19 21  1  0  0  0  0
 19 51  1  1  0  0  0
 21 22  1  0  0  0  0
 21 52  1  0  0  0  0
 21 53  1  0  0  0  0
 22 54  1  0  0  0  0
 23 24  1  0  0  0  0
 23 25  1  0  0  0  0
 23 31  1  0  0  0  0
 23 55  1  6  0  0  0
 24 56  1  0  0  0  0
 25 26  1  0  0  0  0
 25 27  1  0  0  0  0
 25 57  1  1  0  0  0
 26 58  1  0  0  0  0
 27 28  1  0  0  0  0
 27 29  1  0  0  0  0
 27 59  1  6  0  0  0
 28 60  1  0  0  0  0
 29 30  1  0  0  0  0
 29 61  1  1  0  0  0
 30 31  1  0  0  0  0
 30 32  1  0  0  0  0
 30 62  1  6  0  0  0
 32 33  1  0  0  0  0
 32 63  1  0  0  0  0
 32 64  1  0  0  0  0
 33 65  1  0  0  0  0
M  END
$$$$
