8F3
 OpenBabel04161911233D

 50 53  0  0  1  0  0  0  0  0999 V2000
   -4.2345    2.9590   13.7692 C   0  0  0  0  0  0  0  0  0  0  0  0
   -4.6718    1.9293   14.5932 C   0  0  0  0  0  0  0  0  0  0  0  0
   -5.5083    2.2112   15.6665 C   0  0  0  0  0  0  0  0  0  0  0  0
   -6.0730    0.9844   16.8053 S   0  0  0  0  0  0  0  0  0  0  0  0
   -7.4980    0.9231   16.7037 O   0  0  0  0  0  0  0  0  0  0  0  0
   -5.3840    1.2056   18.0622 O   0  0  0  0  0  0  0  0  0  0  0  0
   -5.4971   -0.4644   16.2251 N   0  0  0  0  0  0  0  0  0  0  0  0
   -5.9681    3.5180   15.8906 C   0  0  0  0  0  0  0  0  0  0  0  0
   -5.5322    4.5475   15.0625 C   0  0  0  0  0  0  0  0  0  0  0  0
   -4.6092    4.2722   14.0492 C   0  0  0  0  0  0  0  0  0  0  0  0
   -4.0833    5.3895   13.2442 C   0  0  0  0  0  0  0  0  0  0  0  0
   -4.8991    6.2406   12.8702 O   0  0  0  0  0  0  0  0  0  0  0  0
   -2.7279    5.4885   12.9823 N   0  0  0  0  0  0  0  0  0  0  0  0
   -1.6558    4.6129   13.4555 C   0  0  0  0  0  0  0  0  0  0  0  0
   -1.0033    3.9001   12.2729 C   0  0  0  0  0  0  0  0  0  0  0  0
   -0.7930    4.8091   11.0851 C   0  0  0  0  0  0  0  0  0  0  0  0
   -0.0306    4.3559    9.9910 C   0  0  0  0  0  0  0  0  0  0  0  0
    0.0744    5.1387    8.8423 C   0  0  0  0  0  0  0  0  0  0  0  0
    0.7652    4.6625    7.7646 O   0  0  0  0  0  0  0  0  0  0  0  0
   -0.5608    6.3694    8.7717 C   0  0  0  0  0  0  0  0  0  0  0  0
   -0.5623    7.0844    7.6090 O   0  0  0  0  0  0  0  0  0  0  0  0
   -1.2833    6.8477    9.8520 C   0  0  0  0  0  0  0  0  0  0  0  0
   -1.4266    6.0677   11.0117 C   0  0  0  0  0  0  0  0  0  0  0  0
   -2.2567    6.6172   12.1734 C   0  0  2  0  0  0  0  0  0  0  0  0
   -1.5022    7.6051   13.0723 C   0  0  0  0  0  0  0  0  0  0  0  0
   -0.2520    8.1259   12.7080 C   0  0  0  0  0  0  0  0  0  0  0  0
    0.4611    8.9563   13.5646 C   0  0  0  0  0  0  0  0  0  0  0  0
   -0.0731    9.3044   14.7973 C   0  0  0  0  0  0  0  0  0  0  0  0
   -1.3118    8.8012   15.1848 C   0  0  0  0  0  0  0  0  0  0  0  0
   -2.0251    7.9628   14.3288 C   0  0  0  0  0  0  0  0  0  0  0  0
   -3.5849    2.7437   12.9307 H   0  0  0  0  0  0  0  0  0  0  0  0
   -4.3270    0.9291   14.3654 H   0  0  0  0  0  0  0  0  0  0  0  0
   -5.7423   -1.2977   16.7496 H   0  0  0  0  0  0  0  0  0  0  0  0
   -5.0128   -0.5335   15.3483 H   0  0  0  0  0  0  0  0  0  0  0  0
   -6.6501    3.7245   16.7133 H   0  0  0  0  0  0  0  0  0  0  0  0
   -5.9090    5.5560   15.2113 H   0  0  0  0  0  0  0  0  0  0  0  0
   -2.0209    3.8910   14.1836 H   0  0  0  0  0  0  0  0  0  0  0  0
   -0.9025    5.2099   13.9855 H   0  0  0  0  0  0  0  0  0  0  0  0
   -1.6562    3.0771   11.9577 H   0  0  0  0  0  0  0  0  0  0  0  0
   -0.0491    3.4731   12.5963 H   0  0  0  0  0  0  0  0  0  0  0  0
    0.4385    3.3816   10.0313 H   0  0  0  0  0  0  0  0  0  0  0  0
    0.6754    5.3233    7.0537 H   0  0  0  0  0  0  0  0  0  0  0  0
    0.3561    7.2063    7.3215 H   0  0  0  0  0  0  0  0  0  0  0  0
   -1.7532    7.8261    9.8080 H   0  0  0  0  0  0  0  0  0  0  0  0
   -3.1114    7.1505   11.7288 H   0  0  0  0  0  0  0  0  0  0  0  0
    0.2004    7.8675   11.7563 H   0  0  0  0  0  0  0  0  0  0  0  0
    1.4376    9.3258   13.2661 H   0  0  0  0  0  0  0  0  0  0  0  0
    0.4760    9.9668   15.4568 H   0  0  0  0  0  0  0  0  0  0  0  0
   -1.7199    9.0619   16.1575 H   0  0  0  0  0  0  0  0  0  0  0  0
   -2.9795    7.5583   14.6612 H   0  0  0  0  0  0  0  0  0  0  0  0
  1  2  2  0  0  0  0
  1 10  1  0  0  0  0
  1 31  1  0  0  0  0
  2  3  1  0  0  0  0
  2 32  1  0  0  0  0
  3  4  1  0  0  0  0
  3  8  2  0  0  0  0
  4  5  2  0  0  0  0
  4  6  2  0  0  0  0
  4  7  1  0  0  0  0
  7 33  1  0  0  0  0
  7 34  1  0  0  0  0
  8  9  1  0  0  0  0
  8 35  1  0  0  0  0
  9 10  2  0  0  0  0
  9 36  1  0  0  0  0
 10 11  1  0  0  0  0
 11 12  2  0  0  0  0
 11 13  1  0  0  0  0
 13 14  1  0  0  0  0
 13 24  1  0  0  0  0
 14 15  1  0  0  0  0
 14 37  1  0  0  0  0
 14 38  1  0  0  0  0
 15 16  1  0  0  0  0
 15 39  1  0  0  0  0
 15 40  1  0  0  0  0
 16 17  2  0  0  0  0
 16 23  1  0  0  0  0
 17 18  1  0  0  0  0
 17 41  1  0  0  0  0
 18 19  1  0  0  0  0
 18 20  2  0  0  0  0
 19 42  1  0  0  0  0
 20 21  1  0  0  0  0
 20 22  1  0  0  0  0
 21 43  1  0  0  0  0
 22 23  2  0  0  0  0
 22 44  1  0  0  0  0
 23 24  1  0  0  0  0
 24 25  1  0  0  0  0
 24 45  1  6  0  0  0
 25 26  2  0  0  0  0
 25 30  1  0  0  0  0
 26 27  1  0  0  0  0
 26 46  1  0  0  0  0
 27 28  2  0  0  0  0
 27 47  1  0  0  0  0
 28 29  1  0  0  0  0
 28 48  1  0  0  0  0
 29 30  2  0  0  0  0
 29 49  1  0  0  0  0
 30 50  1  0  0  0  0
M  END
$$$$
