8FM
 OpenBabel04161912033D

 81 85  0  0  1  0  0  0  0  0999 V2000
   21.1642   25.7244   15.5079 C   0  0  0  0  0  0  0  0  0  0  0  0
   19.7895   25.7764   15.2369 C   0  0  0  0  0  0  0  0  0  0  0  0
   19.1970   26.9170   14.6790 C   0  0  0  0  0  0  0  0  0  0  0  0
   19.9944   28.0380   14.3996 C   0  0  0  0  0  0  0  0  0  0  0  0
   18.6064   24.3352   19.5032 C   0  0  0  0  0  0  0  0  0  0  0  0
   19.6216   24.7516   20.5632 C   0  0  0  0  0  0  0  0  0  0  0  0
   15.7060   24.4405   17.6110 C   0  0  1  0  0  0  0  0  0  0  0  0
   14.7463   21.0520   17.4051 C   0  0  0  0  0  0  0  0  0  0  0  0
   13.6396   18.9292   17.5673 C   0  0  1  0  0  0  0  0  0  0  0  0
   15.3310   23.2925   16.6614 C   0  0  1  0  0  0  0  0  0  0  0  0
   19.0918   24.8364   18.1422 C   0  0  0  0  0  0  0  0  0  0  0  0
   18.4406   22.8174   19.5155 C   0  0  0  0  0  0  0  0  0  0  0  0
   16.8716   25.3180   17.1303 C   0  0  0  0  0  0  0  0  0  0  0  0
   21.9412   26.8173   15.1653 C   0  0  0  0  0  0  0  0  0  0  0  0
   21.3645   27.9912   14.6667 C   0  0  0  0  0  0  0  0  0  0  0  0
   22.0972   29.1305   14.4282 O   0  0  0  0  0  0  0  0  0  0  0  0
   23.3769   29.0917   15.0617 C   0  0  0  0  0  0  0  0  0  0  0  0
   18.8008   24.3138   15.5157 S   0  0  0  0  0  0  0  0  0  0  0  0
   17.7225   24.3400   14.5535 O   0  0  0  0  0  0  0  0  0  0  0  0
   19.7092   23.1982   15.6027 O   0  0  0  0  0  0  0  0  0  0  0  0
   18.1287   24.5517   17.0579 N   0  0  0  0  0  0  0  0  0  0  0  0
   14.5638   25.2717   17.8672 O   0  0  0  0  0  0  0  0  0  0  0  0
   14.4419   22.3727   17.3821 N   0  0  0  0  0  0  0  0  0  0  0  0
   15.7756   20.5461   17.0163 O   0  0  0  0  0  0  0  0  0  0  0  0
   13.7029   20.3294   17.8897 O   0  0  0  0  0  0  0  0  0  0  0  0
   14.6623   23.7780   15.3606 C   0  0  0  0  0  0  0  0  0  0  0  0
   13.0736   22.1205   14.3339 C   0  0  0  0  0  0  0  0  0  0  0  0
   12.8190   20.9846   13.5698 C   0  0  0  0  0  0  0  0  0  0  0  0
   13.8524   20.3729   12.8647 C   0  0  0  0  0  0  0  0  0  0  0  0
   15.1439   20.8898   12.9341 C   0  0  0  0  0  0  0  0  0  0  0  0
   15.4054   22.0091   13.7193 C   0  0  0  0  0  0  0  0  0  0  0  0
   14.3719   22.6316   14.4274 C   0  0  0  0  0  0  0  0  0  0  0  0
   13.3985   18.0783   18.8240 C   0  0  2  0  0  0  0  0  0  0  0  0
   12.7029   16.8263   18.2783 C   0  0  0  0  0  0  0  0  0  0  0  0
   11.6624   17.4969   17.3963 C   0  0  1  0  0  0  0  0  0  0  0  0
   10.6580   18.2574   18.2703 C   0  0  2  0  0  0  0  0  0  0  0  0
   10.4918   19.5686   17.7289 O   0  0  0  0  0  0  0  0  0  0  0  0
   11.4076   19.7553   16.6503 C   0  0  0  0  0  0  0  0  0  0  0  0
   12.4092   18.6234   16.6811 C   0  0  1  0  0  0  0  0  0  0  0  0
   12.4220   18.8334   19.7459 C   0  0  0  0  0  0  0  0  0  0  0  0
   11.0953   18.3091   19.6356 O   0  0  0  0  0  0  0  0  0  0  0  0
   21.6199   24.8463   15.9269 H   0  0  0  0  0  0  0  0  0  0  0  0
   18.1354   26.9562   14.4438 H   0  0  0  0  0  0  0  0  0  0  0  0
   19.5520   28.9353   13.9628 H   0  0  0  0  0  0  0  0  0  0  0  0
   17.6456   24.7989   19.7542 H   0  0  0  0  0  0  0  0  0  0  0  0
   19.3091   24.4144   21.5553 H   0  0  0  0  0  0  0  0  0  0  0  0
   19.7279   25.8412   20.5885 H   0  0  0  0  0  0  0  0  0  0  0  0
   20.6046   24.3200   20.3461 H   0  0  0  0  0  0  0  0  0  0  0  0
   15.9694   23.9906   18.5728 H   0  0  0  0  0  0  0  0  0  0  0  0
   14.5479   18.5953   17.0484 H   0  0  0  0  0  0  0  0  0  0  0  0
   16.2437   22.7431   16.3990 H   0  0  0  0  0  0  0  0  0  0  0  0
   20.0545   24.3654   17.9192 H   0  0  0  0  0  0  0  0  0  0  0  0
   19.2513   25.9212   18.1810 H   0  0  0  0  0  0  0  0  0  0  0  0
   18.0934   22.4787   20.4968 H   0  0  0  0  0  0  0  0  0  0  0  0
   19.3909   22.3205   19.2960 H   0  0  0  0  0  0  0  0  0  0  0  0
   17.7103   22.4860   18.7720 H   0  0  0  0  0  0  0  0  0  0  0  0
   16.9852   26.1669   17.8125 H   0  0  0  0  0  0  0  0  0  0  0  0
   16.6253   25.7655   16.1660 H   0  0  0  0  0  0  0  0  0  0  0  0
   23.0044   26.6988   15.3089 H   0  0  0  0  0  0  0  0  0  0  0  0
   23.9249   30.0145   14.8832 H   0  0  0  0  0  0  0  0  0  0  0  0
   23.9813   28.2834   14.6354 H   0  0  0  0  0  0  0  0  0  0  0  0
   23.2508   28.9579   16.1457 H   0  0  0  0  0  0  0  0  0  0  0  0
   14.3348   25.7301   17.0407 H   0  0  0  0  0  0  0  0  0  0  0  0
   13.5459   22.6975   17.7246 H   0  0  0  0  0  0  0  0  0  0  0  0
   15.2851   24.5109   14.8376 H   0  0  0  0  0  0  0  0  0  0  0  0
   13.7262   24.3002   15.5901 H   0  0  0  0  0  0  0  0  0  0  0  0
   12.2613   22.5945   14.8786 H   0  0  0  0  0  0  0  0  0  0  0  0
   11.8144   20.5758   13.5284 H   0  0  0  0  0  0  0  0  0  0  0  0
   13.6527   19.4966   12.2559 H   0  0  0  0  0  0  0  0  0  0  0  0
   15.9541   20.4190   12.3850 H   0  0  0  0  0  0  0  0  0  0  0  0
   16.4257   22.3785   13.7906 H   0  0  0  0  0  0  0  0  0  0  0  0
   14.3424   17.8539   19.3311 H   0  0  0  0  0  0  0  0  0  0  0  0
   12.2411   16.2304   19.0752 H   0  0  0  0  0  0  0  0  0  0  0  0
   13.3713   16.1793   17.7037 H   0  0  0  0  0  0  0  0  0  0  0  0
   11.1554   16.8179   16.7024 H   0  0  0  0  0  0  0  0  0  0  0  0
    9.6824   17.7633   18.2614 H   0  0  0  0  0  0  0  0  0  0  0  0
   11.8633   20.7428   16.7451 H   0  0  0  0  0  0  0  0  0  0  0  0
   10.8411   19.7597   15.7185 H   0  0  0  0  0  0  0  0  0  0  0  0
   12.7391   18.3349   15.6761 H   0  0  0  0  0  0  0  0  0  0  0  0
   12.3446   19.8989   19.5220 H   0  0  0  0  0  0  0  0  0  0  0  0
   12.7607   18.7712   20.7826 H   0  0  0  0  0  0  0  0  0  0  0  0
  1  2  2  0  0  0  0
  1 14  1  0  0  0  0
  1 42  1  0  0  0  0
  2  3  1  0  0  0  0
  2 18  1  0  0  0  0
  3  4  2  0  0  0  0
  3 43  1  0  0  0  0
  4 15  1  0  0  0  0
  4 44  1  0  0  0  0
  5  6  1  0  0  0  0
  5 11  1  0  0  0  0
  5 12  1  0  0  0  0
  5 45  1  0  0  0  0
  6 46  1  0  0  0  0
  6 47  1  0  0  0  0
  6 48  1  0  0  0  0
  7 10  1  0  0  0  0
  7 13  1  0  0  0  0
  7 22  1  0  0  0  0
  7 49  1  1  0  0  0
  8 23  1  0  0  0  0
  8 24  2  0  0  0  0
  8 25  1  0  0  0  0
  9 25  1  0  0  0  0
  9 33  1  0  0  0  0
  9 39  1  0  0  0  0
  9 50  1  6  0  0  0
 10 23  1  0  0  0  0
 10 26  1  0  0  0  0
 10 51  1  6  0  0  0
 11 21  1  0  0  0  0
 11 52  1  0  0  0  0
 11 53  1  0  0  0  0
 12 54  1  0  0  0  0
 12 55  1  0  0  0  0
 12 56  1  0  0  0  0
 13 21  1  0  0  0  0
 13 57  1  0  0  0  0
 13 58  1  0  0  0  0
 14 15  2  0  0  0  0
 14 59  1  0  0  0  0
 15 16  1  0  0  0  0
 16 17  1  0  0  0  0
 17 60  1  0  0  0  0
 17 61  1  0  0  0  0
 17 62  1  0  0  0  0
 18 19  2  0  0  0  0
 18 20  2  0  0  0  0
 18 21  1  0  0  0  0
 22 63  1  0  0  0  0
 23 64  1  0  0  0  0
 26 32  1  0  0  0  0
 26 65  1  0  0  0  0
 26 66  1  0  0  0  0
 27 28  2  0  0  0  0
 27 32  1  0  0  0  0
 27 67  1  0  0  0  0
 28 29  1  0  0  0  0
 28 68  1  0  0  0  0
 29 30  2  0  0  0  0
 29 69  1  0  0  0  0
 30 31  1  0  0  0  0
 30 70  1  0  0  0  0
 31 32  2  0  0  0  0
 31 71  1  0  0  0  0
 33 34  1  0  0  0  0
 33 40  1  0  0  0  0
 33 72  1  1  0  0  0
 34 35  1  0  0  0  0
 34 73  1  0  0  0  0
 34 74  1  0  0  0  0
 35 36  1  0  0  0  0
 35 39  1  0  0  0  0
 35 75  1  6  0  0  0
 36 37  1  0  0  0  0
 36 41  1  0  0  0  0
 36 76  1  6  0  0  0
 37 38  1  0  0  0  0
 38 39  1  0  0  0  0
 38 77  1  0  0  0  0
 38 78  1  0  0  0  0
 39 79  1  6  0  0  0
 40 41  1  0  0  0  0
 40 80  1  0  0  0  0
 40 81  1  0  0  0  0
M  END
$$$$
