8FP
 OpenBabel04161912043D

 93 97  0  0  1  0  0  0  0  0999 V2000
   20.8593   27.7617   14.8632 C   0  0  0  0  0  0  0  0  0  0  0  0
   21.4998   28.9366   14.5848 O   0  0  0  0  0  0  0  0  0  0  0  0
   22.8683   28.9606   14.9745 C   0  0  0  0  0  0  0  0  0  0  0  0
   21.4807   26.6407   15.4469 C   0  0  0  0  0  0  0  0  0  0  0  0
   20.7330   25.4879   15.7077 C   0  0  0  0  0  0  0  0  0  0  0  0
   19.3562   25.4843   15.4417 C   0  0  0  0  0  0  0  0  0  0  0  0
   18.7513   26.5751   14.8212 C   0  0  0  0  0  0  0  0  0  0  0  0
   19.5122   27.7008   14.5235 C   0  0  0  0  0  0  0  0  0  0  0  0
   18.4067   24.0210   15.7825 S   0  0  0  0  0  0  0  0  0  0  0  0
   17.3536   23.9594   14.8101 O   0  0  0  0  0  0  0  0  0  0  0  0
   19.3518   22.9293   15.9404 O   0  0  0  0  0  0  0  0  0  0  0  0
   17.7345   24.3317   17.3135 N   0  0  0  0  0  0  0  0  0  0  0  0
   18.6887   24.6294   18.4117 C   0  0  0  0  0  0  0  0  0  0  0  0
   18.3709   23.9469   19.7484 C   0  0  0  0  0  0  0  0  0  0  0  0
   18.4913   22.4286   19.6403 C   0  0  0  0  0  0  0  0  0  0  0  0
   19.3817   24.4523   20.7832 C   0  0  0  0  0  0  0  0  0  0  0  0
   16.4261   25.0112   17.3572 C   0  0  0  0  0  0  0  0  0  0  0  0
   15.3523   24.0498   17.9076 C   0  0  1  0  0  0  0  0  0  0  0  0
   14.1936   24.8068   18.2938 O   0  0  0  0  0  0  0  0  0  0  0  0
   14.9769   22.9147   16.9221 C   0  0  1  0  0  0  0  0  0  0  0  0
   14.1556   21.8939   17.6064 N   0  0  0  0  0  0  0  0  0  0  0  0
   14.6651   20.7103   18.0781 C   0  0  0  0  0  0  0  0  0  0  0  0
   15.8488   20.4103   18.0912 O   0  0  0  0  0  0  0  0  0  0  0  0
   14.2004   23.4279   15.6915 C   0  0  0  0  0  0  0  0  0  0  0  0
   12.5481   21.8710   14.6049 C   0  0  0  0  0  0  0  0  0  0  0  0
   12.2578   20.7561   13.8231 C   0  0  0  0  0  0  0  0  0  0  0  0
   13.2800   20.0765   13.1637 C   0  0  0  0  0  0  0  0  0  0  0  0
   14.5889   20.5438   13.2388 C   0  0  0  0  0  0  0  0  0  0  0  0
   14.8850   21.6471   14.0351 C   0  0  0  0  0  0  0  0  0  0  0  0
   13.8696   22.3066   14.7395 C   0  0  0  0  0  0  0  0  0  0  0  0
   13.6504   19.7637   18.6017 C   0  0  0  0  0  0  0  0  0  0  0  0
   13.8564   19.1266   19.8307 C   0  0  0  0  0  0  0  0  0  0  0  0
   12.8896   18.2525   20.3347 C   0  0  0  0  0  0  0  0  0  0  0  0
   11.7314   17.9839   19.6032 C   0  0  0  0  0  0  0  0  0  0  0  0
   11.5530   18.5944   18.3554 C   0  0  0  0  0  0  0  0  0  0  0  0
   12.4966   19.4990   17.8659 C   0  0  0  0  0  0  0  0  0  0  0  0
   10.2835   18.4456   17.6217 C   0  0  0  0  0  0  0  0  0  0  0  0
    9.2443   18.7063   18.2170 O   0  0  0  0  0  0  0  0  0  0  0  0
   10.3170   18.1134   16.2787 N   0  0  0  0  0  0  0  0  0  0  0  0
   11.3914   17.4055   15.5914 C   0  0  0  0  0  0  0  0  0  0  0  0
   10.8216   17.0145   14.2396 C   0  0  0  0  0  0  0  0  0  0  0  0
    9.3082   17.0968   14.3999 C   0  0  0  0  0  0  0  0  0  0  0  0
    9.0745   18.1264   15.5130 C   0  0  2  0  0  0  0  0  0  0  0  0
    8.7618   19.5316   14.9795 C   0  0  0  0  0  0  0  0  0  0  0  0
    8.3747   19.7966   13.7425 N   0  0  0  0  0  0  0  0  0  0  0  0
    8.1327   21.1522   13.5785 C   0  0  0  0  0  0  0  0  0  0  0  0
    8.3582   21.9285   14.6927 C   0  0  0  0  0  0  0  0  0  0  0  0
    8.8575   20.9428   15.9888 S   0  0  0  0  0  0  0  0  0  0  0  0
    7.5970   21.6511   12.2923 C   0  0  0  0  0  0  0  0  0  0  0  0
   23.2904   29.9387   14.7334 H   0  0  0  0  0  0  0  0  0  0  0  0
   23.4306   28.2023   14.4187 H   0  0  0  0  0  0  0  0  0  0  0  0
   22.9617   28.8090   16.0564 H   0  0  0  0  0  0  0  0  0  0  0  0
   22.5279   26.6259   15.7023 H   0  0  0  0  0  0  0  0  0  0  0  0
   21.2308   24.6200   16.1068 H   0  0  0  0  0  0  0  0  0  0  0  0
   17.6996   26.5482   14.5543 H   0  0  0  0  0  0  0  0  0  0  0  0
   19.0521   28.5490   14.0147 H   0  0  0  0  0  0  0  0  0  0  0  0
   18.7532   25.7149   18.5525 H   0  0  0  0  0  0  0  0  0  0  0  0
   19.6842   24.2853   18.1137 H   0  0  0  0  0  0  0  0  0  0  0  0
   17.3648   24.2050   20.0961 H   0  0  0  0  0  0  0  0  0  0  0  0
   18.2696   21.9487   20.5998 H   0  0  0  0  0  0  0  0  0  0  0  0
   19.5078   22.1417   19.3492 H   0  0  0  0  0  0  0  0  0  0  0  0
   17.7996   22.0320   18.8943 H   0  0  0  0  0  0  0  0  0  0  0  0
   19.3057   25.5386   20.8977 H   0  0  0  0  0  0  0  0  0  0  0  0
   20.4049   24.2200   20.4652 H   0  0  0  0  0  0  0  0  0  0  0  0
   19.2194   23.9929   21.7630 H   0  0  0  0  0  0  0  0  0  0  0  0
   16.1266   25.3517   16.3620 H   0  0  0  0  0  0  0  0  0  0  0  0
   16.4650   25.9320   17.9505 H   0  0  0  0  0  0  0  0  0  0  0  0
   15.7258   23.5858   18.8270 H   0  0  0  0  0  0  0  0  0  0  0  0
   13.8603   25.2741   17.5099 H   0  0  0  0  0  0  0  0  0  0  0  0
   15.9002   22.4242   16.5931 H   0  0  0  0  0  0  0  0  0  0  0  0
   13.1672   22.0898   17.7039 H   0  0  0  0  0  0  0  0  0  0  0  0
   14.7580   24.1950   15.1488 H   0  0  0  0  0  0  0  0  0  0  0  0
   13.2664   23.9032   16.0165 H   0  0  0  0  0  0  0  0  0  0  0  0
   11.7464   22.3843   15.1291 H   0  0  0  0  0  0  0  0  0  0  0  0
   11.2327   20.4140   13.7271 H   0  0  0  0  0  0  0  0  0  0  0  0
   13.0544   19.1862   12.5848 H   0  0  0  0  0  0  0  0  0  0  0  0
   15.3816   20.0505   12.6835 H   0  0  0  0  0  0  0  0  0  0  0  0
   15.9177   21.9769   14.1223 H   0  0  0  0  0  0  0  0  0  0  0  0
   14.7566   19.3369   20.4028 H   0  0  0  0  0  0  0  0  0  0  0  0
   13.0344   17.7948   21.3162 H   0  0  0  0  0  0  0  0  0  0  0  0
   10.9676   17.3226   20.0101 H   0  0  0  0  0  0  0  0  0  0  0  0
   12.3199   20.0017   16.9205 H   0  0  0  0  0  0  0  0  0  0  0  0
   11.6679   16.5280   16.1833 H   0  0  0  0  0  0  0  0  0  0  0  0
   12.2699   18.0458   15.4807 H   0  0  0  0  0  0  0  0  0  0  0  0
   11.1488   16.0112   13.9463 H   0  0  0  0  0  0  0  0  0  0  0  0
   11.1499   17.7144   13.4653 H   0  0  0  0  0  0  0  0  0  0  0  0
    8.9289   16.1131   14.7056 H   0  0  0  0  0  0  0  0  0  0  0  0
    8.8195   17.3516   13.4552 H   0  0  0  0  0  0  0  0  0  0  0  0
    8.2435   17.7855   16.1470 H   0  0  0  0  0  0  0  0  0  0  0  0
    8.2086   22.9959   14.7864 H   0  0  0  0  0  0  0  0  0  0  0  0
    7.5459   22.7458   12.2903 H   0  0  0  0  0  0  0  0  0  0  0  0
    6.5825   21.2654   12.1612 H   0  0  0  0  0  0  0  0  0  0  0  0
    8.2169   21.3339   11.4500 H   0  0  0  0  0  0  0  0  0  0  0  0
  1  2  1  0  0  0  0
  1  4  2  0  0  0  0
  1  8  1  0  0  0  0
  2  3  1  0  0  0  0
  3 50  1  0  0  0  0
  3 51  1  0  0  0  0
  3 52  1  0  0  0  0
  4  5  1  0  0  0  0
  4 53  1  0  0  0  0
  5  6  2  0  0  0  0
  5 54  1  0  0  0  0
  6  7  1  0  0  0  0
  6  9  1  0  0  0  0
  7  8  2  0  0  0  0
  7 55  1  0  0  0  0
  8 56  1  0  0  0  0
  9 10  2  0  0  0  0
  9 11  2  0  0  0  0
  9 12  1  0  0  0  0
 12 13  1  0  0  0  0
 12 17  1  0  0  0  0
 13 14  1  0  0  0  0
 13 57  1  0  0  0  0
 13 58  1  0  0  0  0
 14 15  1  0  0  0  0
 14 16  1  0  0  0  0
 14 59  1  0  0  0  0
 15 60  1  0  0  0  0
 15 61  1  0  0  0  0
 15 62  1  0  0  0  0
 16 63  1  0  0  0  0
 16 64  1  0  0  0  0
 16 65  1  0  0  0  0
 17 18  1  0  0  0  0
 17 66  1  0  0  0  0
 17 67  1  0  0  0  0
 18 19  1  0  0  0  0
 18 20  1  0  0  0  0
 18 68  1  1  0  0  0
 19 69  1  0  0  0  0
 20 21  1  0  0  0  0
 20 24  1  0  0  0  0
 20 70  1  6  0  0  0
 21 22  1  0  0  0  0
 21 71  1  0  0  0  0
 22 23  2  0  0  0  0
 22 31  1  0  0  0  0
 24 30  1  0  0  0  0
 24 72  1  0  0  0  0
 24 73  1  0  0  0  0
 25 26  2  0  0  0  0
 25 30  1  0  0  0  0
 25 74  1  0  0  0  0
 26 27  1  0  0  0  0
 26 75  1  0  0  0  0
 27 28  2  0  0  0  0
 27 76  1  0  0  0  0
 28 29  1  0  0  0  0
 28 77  1  0  0  0  0
 29 30  2  0  0  0  0
 29 78  1  0  0  0  0
 31 32  2  0  0  0  0
 31 36  1  0  0  0  0
 32 33  1  0  0  0  0
 32 79  1  0  0  0  0
 33 34  2  0  0  0  0
 33 80  1  0  0  0  0
 34 35  1  0  0  0  0
 34 81  1  0  0  0  0
 35 36  2  0  0  0  0
 35 37  1  0  0  0  0
 36 82  1  0  0  0  0
 37 38  2  0  0  0  0
 37 39  1  0  0  0  0
 39 40  1  0  0  0  0
 39 43  1  0  0  0  0
 40 41  1  0  0  0  0
 40 83  1  0  0  0  0
 40 84  1  0  0  0  0
 41 42  1  0  0  0  0
 41 85  1  0  0  0  0
 41 86  1  0  0  0  0
 42 43  1  0  0  0  0
 42 87  1  0  0  0  0
 42 88  1  0  0  0  0
 43 44  1  0  0  0  0
 43 89  1  1  0  0  0
 44 45  2  0  0  0  0
 44 48  1  0  0  0  0
 45 46  1  0  0  0  0
 46 47  2  0  0  0  0
 46 49  1  0  0  0  0
 47 48  1  0  0  0  0
 47 90  1  0  0  0  0
 49 91  1  0  0  0  0
 49 92  1  0  0  0  0
 49 93  1  0  0  0  0
M  END
$$$$
