8FV
 OpenBabel04161912033D

 54 59  0  0  0  0  0  0  0  0999 V2000
   14.3955   -3.3483    5.7383 C   0  0  0  0  0  0  0  0  0  0  0  0
   14.6171   -4.8001    5.6020 C   0  0  0  0  0  0  0  0  0  0  0  0
   15.5817   -5.6729    6.0480 C   0  0  0  0  0  0  0  0  0  0  0  0
   15.1657   -6.9363    5.5548 C   0  0  0  0  0  0  0  0  0  0  0  0
   15.8498   -8.2425    5.7089 C   0  0  0  0  0  0  0  0  0  0  0  0
   21.8277   -2.6022    8.1350 N   0  0  0  0  0  0  0  0  0  0  0  0
   16.8878   -5.9328    8.1307 C   0  0  0  0  0  0  0  0  0  0  0  0
   16.2102   -7.6500    9.6631 C   0  0  0  0  0  0  0  0  0  0  0  0
   17.9938   -5.6003    8.9091 C   0  0  0  0  0  0  0  0  0  0  0  0
   18.9295   -4.6480    8.4576 C   0  0  0  0  0  0  0  0  0  0  0  0
   20.1138   -4.0879    9.0252 C   0  0  0  0  0  0  0  0  0  0  0  0
   20.6651   -3.2631    8.0606 C   0  0  0  0  0  0  0  0  0  0  0  0
   18.7489   -4.0711    7.2001 C   0  0  0  0  0  0  0  0  0  0  0  0
   20.8112   -4.1753   10.2383 C   0  0  0  0  0  0  0  0  0  0  0  0
   18.1691   -3.6514   11.6602 C   0  0  0  0  0  0  0  0  0  0  0  0
   16.9111   -3.5200   12.2454 C   0  0  0  0  0  0  0  0  0  0  0  0
   20.6275   -6.7691   12.9111 C   0  0  0  0  0  0  0  0  0  0  0  0
   18.6642   -5.5641   13.0693 C   0  0  0  0  0  0  0  0  0  0  0  0
   17.4175   -5.3919   13.6639 C   0  0  0  0  0  0  0  0  0  0  0  0
   16.5333   -4.3927   13.2510 C   0  0  0  0  0  0  0  0  0  0  0  0
   21.1049   -5.9964   11.8721 C   0  0  0  0  0  0  0  0  0  0  0  0
   14.0242   -6.8355    4.8626 N   0  0  0  0  0  0  0  0  0  0  0  0
   13.6797   -5.4949    4.8995 O   0  0  0  0  0  0  0  0  0  0  0  0
   16.7150   -5.3178    6.8775 C   0  0  0  0  0  0  0  0  0  0  0  0
   17.6510   -4.3823    6.3881 C   0  0  0  0  0  0  0  0  0  0  0  0
   19.8149   -3.2252    6.9895 N   0  3  0  0  0  0  0  0  0  0  0  0
   22.4730   -2.8292    9.2978 C   0  0  0  0  0  0  0  0  0  0  0  0
   23.8442   -2.2404    9.4385 C   0  0  0  0  0  0  0  0  0  0  0  0
   22.0210   -3.5660   10.3407 N   0  0  0  0  0  0  0  0  0  0  0  0
   15.9220   -6.8169    8.5441 O   0  0  0  0  0  0  0  0  0  0  0  0
   20.3180   -4.9411   11.3936 C   0  0  0  0  0  0  0  0  0  0  0  0
   19.4338   -6.5807   13.4987 N   0  0  0  0  0  0  0  0  0  0  0  0
   19.0624   -4.6954   12.0282 C   0  0  0  0  0  0  0  0  0  0  0  0
   13.4727   -3.0339    5.2420 H   0  0  0  0  0  0  0  0  0  0  0  0
   15.2234   -2.7919    5.2873 H   0  0  0  0  0  0  0  0  0  0  0  0
   14.3286   -3.0672    6.7939 H   0  0  0  0  0  0  0  0  0  0  0  0
   15.3021   -9.0484    5.2102 H   0  0  0  0  0  0  0  0  0  0  0  0
   15.9491   -8.5202    6.7592 H   0  0  0  0  0  0  0  0  0  0  0  0
   16.8549   -8.1936    5.2765 H   0  0  0  0  0  0  0  0  0  0  0  0
   15.3703   -8.3407    9.7880 H   0  0  0  0  0  0  0  0  0  0  0  0
   16.2929   -7.0624   10.5820 H   0  0  0  0  0  0  0  0  0  0  0  0
   17.1102   -8.2522    9.4926 H   0  0  0  0  0  0  0  0  0  0  0  0
   18.1451   -6.0590    9.8766 H   0  0  0  0  0  0  0  0  0  0  0  0
   18.4351   -2.9405   10.8818 H   0  0  0  0  0  0  0  0  0  0  0  0
   16.2326   -2.7409   11.9072 H   0  0  0  0  0  0  0  0  0  0  0  0
   21.2101   -7.5985   13.3042 H   0  0  0  0  0  0  0  0  0  0  0  0
   17.1188   -6.0627   14.4661 H   0  0  0  0  0  0  0  0  0  0  0  0
   15.5572   -4.2993   13.7199 H   0  0  0  0  0  0  0  0  0  0  0  0
   22.0699   -6.2214   11.4280 H   0  0  0  0  0  0  0  0  0  0  0  0
   17.5344   -3.9296    5.4074 H   0  0  0  0  0  0  0  0  0  0  0  0
   19.9775   -2.6691    6.1640 H   0  0  0  0  0  0  0  0  0  0  0  0
   24.1069   -1.6401    8.5615 H   0  0  0  0  0  0  0  0  0  0  0  0
   24.5809   -3.0433    9.5381 H   0  0  0  0  0  0  0  0  0  0  0  0
   23.8915   -1.6016   10.3248 H   0  0  0  0  0  0  0  0  0  0  0  0
  1  2  1  0  0  0  0
  1 34  1  0  0  0  0
  1 35  1  0  0  0  0
  1 36  1  0  0  0  0
  2  3  2  0  0  0  0
  2 23  1  0  0  0  0
  3  4  1  0  0  0  0
  3 24  1  0  0  0  0
  4  5  1  0  0  0  0
  4 22  2  0  0  0  0
  5 37  1  0  0  0  0
  5 38  1  0  0  0  0
  5 39  1  0  0  0  0
  6 12  1  0  0  0  0
  6 27  1  0  0  0  0
  7  9  2  0  0  0  0
  7 24  1  0  0  0  0
  7 30  1  0  0  0  0
  8 30  1  0  0  0  0
  8 40  1  0  0  0  0
  8 41  1  0  0  0  0
  8 42  1  0  0  0  0
  9 10  1  0  0  0  0
  9 43  1  0  0  0  0
 10 11  1  0  0  0  0
 10 13  2  0  0  0  0
 11 12  1  0  0  0  0
 11 14  2  0  0  0  0
 12 26  2  0  0  0  0
 13 25  1  0  0  0  0
 13 26  1  0  0  0  0
 14 29  1  0  0  0  0
 14 31  1  0  0  0  0
 15 16  2  0  0  0  0
 15 33  1  0  0  0  0
 15 44  1  0  0  0  0
 16 20  1  0  0  0  0
 16 45  1  0  0  0  0
 17 21  2  0  0  0  0
 17 32  1  0  0  0  0
 17 46  1  0  0  0  0
 18 19  1  0  0  0  0
 18 32  2  0  0  0  0
 18 33  1  0  0  0  0
 19 20  2  0  0  0  0
 19 47  1  0  0  0  0
 20 48  1  0  0  0  0
 21 31  1  0  0  0  0
 21 49  1  0  0  0  0
 22 23  1  0  0  0  0
 24 25  2  0  0  0  0
 25 50  1  0  0  0  0
 26 51  1  0  0  0  0
 27 28  1  0  0  0  0
 27 29  2  0  0  0  0
 28 52  1  0  0  0  0
 28 53  1  0  0  0  0
 28 54  1  0  0  0  0
 31 33  2  0  0  0  0
M  CHG  1  26   1
M  END
$$$$
