8GH
 OpenBabel04161911253D

 37 39  0  0  0  0  0  0  0  0999 V2000
   -3.6843    2.0644   15.5463 C   0  0  0  0  0  0  0  0  0  0  0  0
   -3.0260    3.1307   14.9358 C   0  0  0  0  0  0  0  0  0  0  0  0
   -3.7109    4.3141   14.6044 C   0  0  0  0  0  0  0  0  0  0  0  0
   -5.0887    4.3767   14.8447 C   0  0  0  0  0  0  0  0  0  0  0  0
   -5.7561    3.3170   15.4628 C   0  0  0  0  0  0  0  0  0  0  0  0
   -2.2788   10.2030   11.6606 C   0  0  0  0  0  0  0  0  0  0  0  0
   -2.7840   11.4647   11.8587 C   0  0  0  0  0  0  0  0  0  0  0  0
   -5.0470    2.1736   15.8326 C   0  0  0  0  0  0  0  0  0  0  0  0
   -2.9540    5.4698   14.1006 C   0  0  0  0  0  0  0  0  0  0  0  0
   -3.1094    6.7357   14.6853 C   0  0  0  0  0  0  0  0  0  0  0  0
   -2.3131    7.8087   14.2882 C   0  0  0  0  0  0  0  0  0  0  0  0
   -1.3627    7.6537   13.2684 C   0  0  0  0  0  0  0  0  0  0  0  0
   -1.1971    6.3968   12.6835 C   0  0  0  0  0  0  0  0  0  0  0  0
   -1.9878    5.3207   13.0924 C   0  0  0  0  0  0  0  0  0  0  0  0
   -0.5149    8.8248   12.8280 C   0  0  0  0  0  0  0  0  0  0  0  0
   -2.0762   11.9622   12.9678 C   0  0  0  0  0  0  0  0  0  0  0  0
   -5.7779    0.8395   16.7416 S   0  0  0  0  0  0  0  0  0  0  0  0
   -1.3182   10.0227   12.6192 N   0  3  0  0  0  0  0  0  0  0  0  0
   -1.1830   11.0880   13.4381 N   0  0  0  0  0  0  0  0  0  0  0  0
   -5.4664   -0.3884   16.0521 O   0  0  0  0  0  0  0  0  0  0  0  0
   -5.4918    1.0556   18.1448 O   0  0  0  0  0  0  0  0  0  0  0  0
   -7.4382    1.0656   16.5835 N   0  0  0  0  0  0  0  0  0  0  0  0
   -3.1211    1.1786   15.8270 H   0  0  0  0  0  0  0  0  0  0  0  0
   -1.9541    3.0528   14.7664 H   0  0  0  0  0  0  0  0  0  0  0  0
   -5.6556    5.2690   14.5768 H   0  0  0  0  0  0  0  0  0  0  0  0
   -6.8104    3.4385   15.6799 H   0  0  0  0  0  0  0  0  0  0  0  0
   -2.5233    9.4245   10.9510 H   0  0  0  0  0  0  0  0  0  0  0  0
   -3.5608   11.9529   11.2888 H   0  0  0  0  0  0  0  0  0  0  0  0
   -3.8268    6.8926   15.4881 H   0  0  0  0  0  0  0  0  0  0  0  0
   -2.4396    8.7693   14.7852 H   0  0  0  0  0  0  0  0  0  0  0  0
   -0.4480    6.2296   11.9122 H   0  0  0  0  0  0  0  0  0  0  0  0
   -1.8345    4.3487   12.6272 H   0  0  0  0  0  0  0  0  0  0  0  0
   -0.0180    8.6197   11.8725 H   0  0  0  0  0  0  0  0  0  0  0  0
    0.2534    9.0391   13.5796 H   0  0  0  0  0  0  0  0  0  0  0  0
   -2.1763   12.9244   13.4531 H   0  0  0  0  0  0  0  0  0  0  0  0
   -8.0054    0.3211   16.9598 H   0  0  0  0  0  0  0  0  0  0  0  0
   -7.8162    1.6938   15.8800 H   0  0  0  0  0  0  0  0  0  0  0  0
  1  2  2  0  0  0  0
  1  8  1  0  0  0  0
  1 23  1  0  0  0  0
  2  3  1  0  0  0  0
  2 24  1  0  0  0  0
  3  4  2  0  0  0  0
  3  9  1  0  0  0  0
  4  5  1  0  0  0  0
  4 25  1  0  0  0  0
  5  8  2  0  0  0  0
  5 26  1  0  0  0  0
  6  7  1  0  0  0  0
  6 18  2  0  0  0  0
  6 27  1  0  0  0  0
  7 16  2  0  0  0  0
  7 28  1  0  0  0  0
  8 17  1  0  0  0  0
  9 10  2  0  0  0  0
  9 14  1  0  0  0  0
 10 11  1  0  0  0  0
 10 29  1  0  0  0  0
 11 12  2  0  0  0  0
 11 30  1  0  0  0  0
 12 13  1  0  0  0  0
 12 15  1  0  0  0  0
 13 14  2  0  0  0  0
 13 31  1  0  0  0  0
 14 32  1  0  0  0  0
 15 18  1  0  0  0  0
 15 33  1  0  0  0  0
 15 34  1  0  0  0  0
 16 19  1  0  0  0  0
 16 35  1  0  0  0  0
 17 20  2  0  0  0  0
 17 21  2  0  0  0  0
 17 22  1  0  0  0  0
 18 19  1  0  0  0  0
 22 36  1  0  0  0  0
 22 37  1  0  0  0  0
M  CHG  1  18   1
M  END
$$$$
