8GQ
 OpenBabel04161911253D

 61 66  0  0  1  0  0  0  0  0999 V2000
    4.6411   -2.4984  -11.9451 C   0  0  0  0  0  0  0  0  0  0  0  0
    5.2268   -2.1058  -13.1594 C   0  0  0  0  0  0  0  0  0  0  0  0
    4.9779   -2.8118  -14.3378 C   0  0  0  0  0  0  0  0  0  0  0  0
    4.9642   -1.8936  -10.7280 N   0  0  0  0  0  0  0  0  0  0  0  0
    1.9850   -5.8469  -14.4240 C   0  0  0  0  0  0  0  0  0  0  0  0
    2.8095   -5.5101  -15.6385 C   0  0  0  0  0  0  0  0  0  0  0  0
    6.5265   -1.4971  -15.6355 C   0  0  0  0  0  0  0  0  0  0  0  0
    7.8892   -2.0959  -15.4207 C   0  0  0  0  0  0  0  0  0  0  0  0
    8.9732   -1.4221  -14.9966 C   0  0  0  0  0  0  0  0  0  0  0  0
   10.3506   -2.0387  -14.9075 C   0  0  0  0  0  0  0  0  0  0  0  0
   10.9944   -3.1669  -12.8570 C   0  0  1  0  0  0  0  0  0  0  0  0
   11.9558   -3.0258  -11.6667 C   0  0  0  0  0  0  0  0  0  0  0  0
   11.1436   -2.2804  -10.6021 C   0  0  1  0  0  0  0  0  0  0  0  0
    9.6688   -3.4295  -12.1611 C   0  0  0  0  0  0  0  0  0  0  0  0
    6.2477   -1.7511  -10.2365 C   0  0  0  0  0  0  0  0  0  0  0  0
    7.7850   -0.6240   -8.7452 C   0  0  0  0  0  0  0  0  0  0  0  0
    7.7057    0.2986   -7.7318 C   0  0  0  0  0  0  0  0  0  0  0  0
    6.3414    0.5094   -7.5324 C   0  0  0  0  0  0  0  0  0  0  0  0
   11.5224   -0.7884  -10.5523 C   0  0  0  0  0  0  0  0  0  0  0  0
    9.6972    1.3590   -6.4601 N   0  0  0  0  0  0  0  0  0  0  0  0
    8.7930    0.8694   -7.0418 C   0  0  0  0  0  0  0  0  0  0  0  0
    5.5761   -0.1544   -8.4063 N   0  0  0  0  0  0  0  0  0  0  0  0
    6.4776   -0.8758   -9.1526 N   0  3  0  0  0  0  0  0  0  0  0  0
    7.3017   -2.3828  -10.7755 C   0  0  0  0  0  0  0  0  0  0  0  0
    8.8599   -1.2151   -9.3233 N   0  0  0  0  0  0  0  0  0  0  0  0
    8.6653   -2.0335  -10.3236 C   0  0  0  0  0  0  0  0  0  0  0  0
    9.7462   -2.5662  -10.9763 N   0  0  0  0  0  0  0  0  0  0  0  0
   11.2927   -0.2135   -9.2575 O   0  0  0  0  0  0  0  0  0  0  0  0
   10.9265   -1.9274  -13.6007 O   0  0  0  0  0  0  0  0  0  0  0  0
    5.5134   -2.5057  -15.5663 O   0  0  0  0  0  0  0  0  0  0  0  0
    4.0752   -3.8858  -14.3040 C   0  0  0  0  0  0  0  0  0  0  0  0
    3.7676   -4.5521  -15.4937 N   0  0  0  0  0  0  0  0  0  0  0  0
    2.5752   -6.0138  -16.7380 O   0  0  0  0  0  0  0  0  0  0  0  0
    2.5803   -5.4789  -13.0779 C   0  0  0  0  0  0  0  0  0  0  0  0
    3.4719   -4.2818  -13.1144 C   0  0  0  0  0  0  0  0  0  0  0  0
    3.7810   -3.5962  -11.9360 C   0  0  0  0  0  0  0  0  0  0  0  0
    5.8716   -1.2326  -13.1631 H   0  0  0  0  0  0  0  0  0  0  0  0
    4.2091   -1.5043  -10.1706 H   0  0  0  0  0  0  0  0  0  0  0  0
    1.8142   -6.9275  -14.4336 H   0  0  0  0  0  0  0  0  0  0  0  0
    1.0298   -5.3266  -14.5306 H   0  0  0  0  0  0  0  0  0  0  0  0
    6.4933   -1.0541  -16.6429 H   0  0  0  0  0  0  0  0  0  0  0  0
    6.3410   -0.7032  -14.9196 H   0  0  0  0  0  0  0  0  0  0  0  0
    7.9888   -3.1576  -15.6107 H   0  0  0  0  0  0  0  0  0  0  0  0
    8.8728   -0.3717  -14.7464 H   0  0  0  0  0  0  0  0  0  0  0  0
   11.0037   -1.4981  -15.6100 H   0  0  0  0  0  0  0  0  0  0  0  0
   10.2979   -3.0845  -15.2173 H   0  0  0  0  0  0  0  0  0  0  0  0
   11.3022   -3.9903  -13.5041 H   0  0  0  0  0  0  0  0  0  0  0  0
   12.8648   -2.4884  -11.9420 H   0  0  0  0  0  0  0  0  0  0  0  0
   12.2348   -4.0185  -11.2758 H   0  0  0  0  0  0  0  0  0  0  0  0
   11.3322   -2.6907   -9.6091 H   0  0  0  0  0  0  0  0  0  0  0  0
    9.5727   -4.4874  -11.8709 H   0  0  0  0  0  0  0  0  0  0  0  0
    8.8322   -3.1656  -12.8126 H   0  0  0  0  0  0  0  0  0  0  0  0
    5.9149    1.1439   -6.7654 H   0  0  0  0  0  0  0  0  0  0  0  0
   10.9639   -0.2164  -11.2915 H   0  0  0  0  0  0  0  0  0  0  0  0
   12.5975   -0.6812  -10.7400 H   0  0  0  0  0  0  0  0  0  0  0  0
    7.2009   -3.1212  -11.5448 H   0  0  0  0  0  0  0  0  0  0  0  0
   10.3309   -0.3087   -9.0753 H   0  0  0  0  0  0  0  0  0  0  0  0
    4.2759   -4.2835  -16.3295 H   0  0  0  0  0  0  0  0  0  0  0  0
    3.1545   -6.3343  -12.7035 H   0  0  0  0  0  0  0  0  0  0  0  0
    1.7479   -5.2878  -12.3853 H   0  0  0  0  0  0  0  0  0  0  0  0
    3.3737   -3.9391  -10.9862 H   0  0  0  0  0  0  0  0  0  0  0  0
  1  2  2  0  0  0  0
  1  4  1  0  0  0  0
  1 36  1  0  0  0  0
  2  3  1  0  0  0  0
  2 37  1  0  0  0  0
  3 30  1  0  0  0  0
  3 31  2  0  0  0  0
  4 15  1  0  0  0  0
  4 38  1  0  0  0  0
  5  6  1  0  0  0  0
  5 34  1  0  0  0  0
  5 39  1  0  0  0  0
  5 40  1  0  0  0  0
  6 32  1  0  0  0  0
  6 33  2  0  0  0  0
  7  8  1  0  0  0  0
  7 30  1  0  0  0  0
  7 41  1  0  0  0  0
  7 42  1  0  0  0  0
  8  9  2  0  0  0  0
  8 43  1  0  0  0  0
  9 10  1  0  0  0  0
  9 44  1  0  0  0  0
 10 29  1  0  0  0  0
 10 45  1  0  0  0  0
 10 46  1  0  0  0  0
 11 12  1  0  0  0  0
 11 14  1  0  0  0  0
 11 29  1  0  0  0  0
 11 47  1  6  0  0  0
 12 13  1  0  0  0  0
 12 48  1  0  0  0  0
 12 49  1  0  0  0  0
 13 19  1  0  0  0  0
 13 27  1  0  0  0  0
 13 50  1  1  0  0  0
 14 27  1  0  0  0  0
 14 51  1  0  0  0  0
 14 52  1  0  0  0  0
 15 23  2  0  0  0  0
 15 24  1  0  0  0  0
 16 17  1  0  0  0  0
 16 23  1  0  0  0  0
 16 25  2  0  0  0  0
 17 18  2  0  0  0  0
 17 21  1  0  0  0  0
 18 22  1  0  0  0  0
 18 53  1  0  0  0  0
 19 28  1  0  0  0  0
 19 54  1  0  0  0  0
 19 55  1  0  0  0  0
 20 21  3  0  0  0  0
 22 23  1  0  0  0  0
 24 26  2  0  0  0  0
 24 56  1  0  0  0  0
 25 26  1  0  0  0  0
 26 27  1  0  0  0  0
 28 57  1  0  0  0  0
 31 32  1  0  0  0  0
 31 35  1  0  0  0  0
 32 58  1  0  0  0  0
 34 35  1  0  0  0  0
 34 59  1  0  0  0  0
 34 60  1  0  0  0  0
 35 36  2  0  0  0  0
 36 61  1  0  0  0  0
M  CHG  1  23   1
M  END
$$$$
