8HK
 OpenBabel04161911263D

 26 27  0  0  0  0  0  0  0  0999 V2000
   -3.0858    3.1162   14.8730 C   0  0  0  0  0  0  0  0  0  0  0  0
   -5.1267    2.1779   15.7401 C   0  0  0  0  0  0  0  0  0  0  0  0
   -5.1501    4.3468   14.6738 C   0  0  0  0  0  0  0  0  0  0  0  0
   -5.4215    0.9963   18.0356 O   0  0  0  0  0  0  0  0  0  0  0  0
   -3.0038    5.4279   13.9386 C   0  0  0  0  0  0  0  0  0  0  0  0
   -1.9766    5.2646   13.0082 C   0  0  0  0  0  0  0  0  0  0  0  0
   -2.4145    7.7801   13.9438 C   0  0  0  0  0  0  0  0  0  0  0  0
   -5.8329    3.2989   15.3006 C   0  0  0  0  0  0  0  0  0  0  0  0
   -3.7623    4.2853   14.4753 C   0  0  0  0  0  0  0  0  0  0  0  0
   -1.4117    7.4917   13.0360 C   0  0  0  0  0  0  0  0  0  0  0  0
   -5.4605   -0.4989   16.0359 N   0  0  0  0  0  0  0  0  0  0  0  0
   -3.2212    6.7365   14.3923 C   0  0  0  0  0  0  0  0  0  0  0  0
   -5.9569    0.9407   16.6962 S   0  0  0  0  0  0  0  0  0  0  0  0
   -3.7574    2.0685   15.5064 C   0  0  0  0  0  0  0  0  0  0  0  0
   -7.3752    1.0313   16.4317 O   0  0  0  0  0  0  0  0  0  0  0  0
   -1.1754    6.2559   12.5490 N   0  0  0  0  0  0  0  0  0  0  0  0
   -2.0074    3.0358   14.7416 H   0  0  0  0  0  0  0  0  0  0  0  0
   -5.7123    5.2244   14.3608 H   0  0  0  0  0  0  0  0  0  0  0  0
   -1.7503    4.2838   12.5943 H   0  0  0  0  0  0  0  0  0  0  0  0
   -2.5574    8.7914   14.3070 H   0  0  0  0  0  0  0  0  0  0  0  0
   -6.9042    3.3873   15.4801 H   0  0  0  0  0  0  0  0  0  0  0  0
   -0.7490    8.2704   12.6701 H   0  0  0  0  0  0  0  0  0  0  0  0
   -5.8330   -1.3397   16.4635 H   0  0  0  0  0  0  0  0  0  0  0  0
   -4.8262   -0.5358   15.2464 H   0  0  0  0  0  0  0  0  0  0  0  0
   -3.9970    6.9482   15.1245 H   0  0  0  0  0  0  0  0  0  0  0  0
   -3.1928    1.2059   15.8529 H   0  0  0  0  0  0  0  0  0  0  0  0
  1  9  2  0  0  0  0
  1 14  1  0  0  0  0
  1 17  1  0  0  0  0
  2  8  1  0  0  0  0
  2 13  1  0  0  0  0
  2 14  2  0  0  0  0
  3  8  2  0  0  0  0
  3  9  1  0  0  0  0
  3 18  1  0  0  0  0
  4 13  2  0  0  0  0
  5  6  2  0  0  0  0
  5  9  1  0  0  0  0
  5 12  1  0  0  0  0
  6 16  1  0  0  0  0
  6 19  1  0  0  0  0
  7 10  1  0  0  0  0
  7 12  2  0  0  0  0
  7 20  1  0  0  0  0
  8 21  1  0  0  0  0
 10 16  2  0  0  0  0
 10 22  1  0  0  0  0
 11 13  1  0  0  0  0
 11 23  1  0  0  0  0
 11 24  1  0  0  0  0
 12 25  1  0  0  0  0
 13 15  2  0  0  0  0
 14 26  1  0  0  0  0
M  END
$$$$
