8HY
 OpenBabel04161912043D

 53 56  0  0  0  0  0  0  0  0999 V2000
   14.2293    3.0719   -2.5961 N   0  0  0  0  0  0  0  0  0  0  0  0
   14.1795    5.2155   -1.4081 C   0  0  0  0  0  0  0  0  0  0  0  0
   13.5175    6.4278   -1.1995 C   0  0  0  0  0  0  0  0  0  0  0  0
   13.9262    7.2991   -0.1877 C   0  0  0  0  0  0  0  0  0  0  0  0
   13.5844    4.2743   -2.4078 C   0  0  0  0  0  0  0  0  0  0  0  0
   13.7471    2.0539   -3.4996 C   0  0  0  0  0  0  0  0  0  0  0  0
   14.8365    3.3528   -5.4137 C   0  0  0  0  0  0  0  0  0  0  0  0
   17.1346    3.0549   -8.4278 C   0  0  0  0  0  0  0  0  0  0  0  0
   14.8649    2.7803   -9.1948 C   0  0  0  0  0  0  0  0  0  0  0  0
   15.9119    8.5622    4.4516 C   0  0  0  0  0  0  0  0  0  0  0  0
   15.4170    9.0354    8.0161 C   0  0  0  0  0  0  0  0  0  0  0  0
   14.3458    9.9935    7.9061 C   0  0  0  0  0  0  0  0  0  0  0  0
   13.8491   10.4910    6.6817 C   0  0  0  0  0  0  0  0  0  0  0  0
   14.2915   10.1269    4.2984 C   0  0  0  0  0  0  0  0  0  0  0  0
   12.5558    4.5731   -3.0074 O   0  0  0  0  0  0  0  0  0  0  0  0
   13.6504    2.4884   -4.9637 C   0  0  0  0  0  0  0  0  0  0  0  0
   15.2976    3.1420   -6.8346 C   0  0  0  0  0  0  0  0  0  0  0  0
   14.3989    2.9416   -7.8905 C   0  0  0  0  0  0  0  0  0  0  0  0
   16.2320    2.8342   -9.4659 C   0  0  0  0  0  0  0  0  0  0  0  0
   16.6695    3.2113   -7.1227 C   0  0  0  0  0  0  0  0  0  0  0  0
   15.3215    4.9372   -0.6451 C   0  0  0  0  0  0  0  0  0  0  0  0
   15.7377    5.8201    0.3647 C   0  0  0  0  0  0  0  0  0  0  0  0
   15.0184    6.9917    0.6235 C   0  0  0  0  0  0  0  0  0  0  0  0
   15.4003    7.7675    1.7410 N   0  0  0  0  0  0  0  0  0  0  0  0
   14.6937    8.8522    2.2237 C   0  0  0  0  0  0  0  0  0  0  0  0
   13.7982    9.4855    1.6846 O   0  0  0  0  0  0  0  0  0  0  0  0
   15.0078    9.1669    3.5708 N   0  3  0  0  0  0  0  0  0  0  0  0
   14.5277    9.9071    5.6205 C   0  0  0  0  0  0  0  0  0  0  0  0
   15.5653    8.9507    5.7222 C   0  0  0  0  0  0  0  0  0  0  0  0
   16.0896    8.4602    6.9108 C   0  0  0  0  0  0  0  0  0  0  0  0
   15.0442    2.8354   -2.0491 H   0  0  0  0  0  0  0  0  0  0  0  0
   12.6573    6.7008   -1.8089 H   0  0  0  0  0  0  0  0  0  0  0  0
   13.3398    8.2016   -0.0528 H   0  0  0  0  0  0  0  0  0  0  0  0
   12.7730    1.7066   -3.1395 H   0  0  0  0  0  0  0  0  0  0  0  0
   14.4500    1.2166   -3.4175 H   0  0  0  0  0  0  0  0  0  0  0  0
   15.6914    3.1702   -4.7513 H   0  0  0  0  0  0  0  0  0  0  0  0
   14.5723    4.4129   -5.3010 H   0  0  0  0  0  0  0  0  0  0  0  0
   18.1992    3.1117   -8.6353 H   0  0  0  0  0  0  0  0  0  0  0  0
   14.1596    2.6161  -10.0050 H   0  0  0  0  0  0  0  0  0  0  0  0
   16.6552    7.8536    4.1196 H   0  0  0  0  0  0  0  0  0  0  0  0
   15.7172    8.7258    9.0176 H   0  0  0  0  0  0  0  0  0  0  0  0
   13.8850   10.3493    8.8284 H   0  0  0  0  0  0  0  0  0  0  0  0
   13.0308   11.1908    6.6008 H   0  0  0  0  0  0  0  0  0  0  0  0
   13.6022   10.7826    3.7781 H   0  0  0  0  0  0  0  0  0  0  0  0
   12.7231    3.0548   -5.1166 H   0  0  0  0  0  0  0  0  0  0  0  0
   13.5553    1.5803   -5.5714 H   0  0  0  0  0  0  0  0  0  0  0  0
   13.3274    2.9131   -7.7052 H   0  0  0  0  0  0  0  0  0  0  0  0
   16.5897    2.7137  -10.4817 H   0  0  0  0  0  0  0  0  0  0  0  0
   17.3902    3.3931   -6.3285 H   0  0  0  0  0  0  0  0  0  0  0  0
   15.9081    4.0378   -0.7878 H   0  0  0  0  0  0  0  0  0  0  0  0
   16.6069    5.5525    0.9603 H   0  0  0  0  0  0  0  0  0  0  0  0
   16.1792    7.4101    2.2719 H   0  0  0  0  0  0  0  0  0  0  0  0
   16.8716    7.7230    7.0085 H   0  0  0  0  0  0  0  0  0  0  0  0
  1  5  1  0  0  0  0
  1  6  1  0  0  0  0
  1 31  1  0  0  0  0
  2  3  2  0  0  0  0
  2  5  1  0  0  0  0
  2 21  1  0  0  0  0
  3  4  1  0  0  0  0
  3 32  1  0  0  0  0
  4 23  2  0  0  0  0
  4 33  1  0  0  0  0
  5 15  2  0  0  0  0
  6 16  1  0  0  0  0
  6 34  1  0  0  0  0
  6 35  1  0  0  0  0
  7 16  1  0  0  0  0
  7 17  1  0  0  0  0
  7 36  1  0  0  0  0
  7 37  1  0  0  0  0
  8 19  2  0  0  0  0
  8 20  1  0  0  0  0
  8 38  1  0  0  0  0
  9 18  2  0  0  0  0
  9 19  1  0  0  0  0
  9 39  1  0  0  0  0
 10 27  1  0  0  0  0
 10 29  2  0  0  0  0
 10 40  1  0  0  0  0
 11 12  1  0  0  0  0
 11 30  2  0  0  0  0
 11 41  1  0  0  0  0
 12 13  2  0  0  0  0
 12 42  1  0  0  0  0
 13 28  1  0  0  0  0
 13 43  1  0  0  0  0
 14 27  1  0  0  0  0
 14 28  2  0  0  0  0
 14 44  1  0  0  0  0
 16 45  1  0  0  0  0
 16 46  1  0  0  0  0
 17 18  1  0  0  0  0
 17 20  2  0  0  0  0
 18 47  1  0  0  0  0
 19 48  1  0  0  0  0
 20 49  1  0  0  0  0
 21 22  2  0  0  0  0
 21 50  1  0  0  0  0
 22 23  1  0  0  0  0
 22 51  1  0  0  0  0
 23 24  1  0  0  0  0
 24 25  1  0  0  0  0
 24 52  1  0  0  0  0
 25 26  2  0  0  0  0
 25 27  1  0  0  0  0
 28 29  1  0  0  0  0
 29 30  1  0  0  0  0
 30 53  1  0  0  0  0
M  CHG  1  27   1
M  END
$$$$
