8HZ
 OpenBabel04161911243D

 44 47  0  0  0  0  0  0  0  0999 V2000
   59.2421    7.2465   33.5233 C   0  0  0  0  0  0  0  0  0  0  0  0
   58.9692    5.8376   33.6364 C   0  0  0  0  0  0  0  0  0  0  0  0
   60.8618    5.3984   32.1320 C   0  0  0  0  0  0  0  0  0  0  0  0
   59.7540    4.9656   32.9748 C   0  0  0  0  0  0  0  0  0  0  0  0
   59.3109    9.4068   33.6134 C   0  0  0  0  0  0  0  0  0  0  0  0
   58.9215   10.7708   33.9950 C   0  0  0  0  0  0  0  0  0  0  0  0
   57.5584   11.0696   34.1586 C   0  0  0  0  0  0  0  0  0  0  0  0
   57.1261   12.3552   34.5107 C   0  0  0  0  0  0  0  0  0  0  0  0
   59.8489   11.8028   34.2238 C   0  0  0  0  0  0  0  0  0  0  0  0
   59.4199   13.0917   34.5839 C   0  0  0  0  0  0  0  0  0  0  0  0
   62.6418    9.6760   32.2818 C   0  0  0  0  0  0  0  0  0  0  0  0
   63.4773   10.3561   31.3950 C   0  0  0  0  0  0  0  0  0  0  0  0
   63.2267    8.8643   33.2684 C   0  0  0  0  0  0  0  0  0  0  0  0
   64.6080    8.7239   33.3588 C   0  0  0  0  0  0  0  0  0  0  0  0
   65.4335    9.4128   32.4692 C   0  0  0  0  0  0  0  0  0  0  0  0
   66.9179    9.2745   32.5712 C   0  0  0  0  0  0  0  0  0  0  0  0
   57.6715   14.6221   35.0644 O   0  0  0  0  0  0  0  0  0  0  0  0
   58.0622   13.3613   34.7208 C   0  0  0  0  0  0  0  0  0  0  0  0
   60.3522    9.0215   32.7832 C   0  0  0  0  0  0  0  0  0  0  0  0
   61.2490    9.7274   32.0523 N   0  0  0  0  0  0  0  0  0  0  0  0
   64.8604   10.2320   31.4916 C   0  0  0  0  0  0  0  0  0  0  0  0
   58.6280    8.2875   34.0514 N   0  0  0  0  0  0  0  0  0  0  0  0
   60.3052    7.6302   32.7206 N   0  3  0  0  0  0  0  0  0  0  0  0
   61.1034    6.7117   32.0186 C   0  0  0  0  0  0  0  0  0  0  0  0
   57.8249    5.3343   34.4716 C   0  0  0  0  0  0  0  0  0  0  0  0
   61.4666    4.6538   31.6191 H   0  0  0  0  0  0  0  0  0  0  0  0
   59.5836    3.8896   33.0297 H   0  0  0  0  0  0  0  0  0  0  0  0
   56.8155   10.2903   34.0042 H   0  0  0  0  0  0  0  0  0  0  0  0
   56.0651   12.5529   34.6174 H   0  0  0  0  0  0  0  0  0  0  0  0
   60.9187   11.6213   34.1473 H   0  0  0  0  0  0  0  0  0  0  0  0
   60.1437   13.8858   34.7650 H   0  0  0  0  0  0  0  0  0  0  0  0
   63.0513   10.9771   30.6121 H   0  0  0  0  0  0  0  0  0  0  0  0
   62.6147    8.3166   33.9814 H   0  0  0  0  0  0  0  0  0  0  0  0
   65.0282    8.0730   34.1223 H   0  0  0  0  0  0  0  0  0  0  0  0
   67.4192    9.8817   31.8114 H   0  0  0  0  0  0  0  0  0  0  0  0
   67.2094    8.2306   32.4213 H   0  0  0  0  0  0  0  0  0  0  0  0
   67.2553    9.6136   33.5552 H   0  0  0  0  0  0  0  0  0  0  0  0
   56.7053   14.6435   35.1265 H   0  0  0  0  0  0  0  0  0  0  0  0
   60.9500   10.6120   31.6468 H   0  0  0  0  0  0  0  0  0  0  0  0
   65.4878   10.7734   30.7887 H   0  0  0  0  0  0  0  0  0  0  0  0
   61.9071    7.0989   31.4047 H   0  0  0  0  0  0  0  0  0  0  0  0
   57.2975    6.1738   34.9363 H   0  0  0  0  0  0  0  0  0  0  0  0
   58.1849    4.6854   35.2742 H   0  0  0  0  0  0  0  0  0  0  0  0
   57.1036    4.7952   33.8530 H   0  0  0  0  0  0  0  0  0  0  0  0
  1  2  2  0  0  0  0
  1 22  1  0  0  0  0
  1 23  1  0  0  0  0
  2  4  1  0  0  0  0
  2 25  1  0  0  0  0
  3  4  2  0  0  0  0
  3 24  1  0  0  0  0
  3 26  1  0  0  0  0
  4 27  1  0  0  0  0
  5  6  1  0  0  0  0
  5 19  2  0  0  0  0
  5 22  1  0  0  0  0
  6  7  2  0  0  0  0
  6  9  1  0  0  0  0
  7  8  1  0  0  0  0
  7 28  1  0  0  0  0
  8 18  2  0  0  0  0
  8 29  1  0  0  0  0
  9 10  2  0  0  0  0
  9 30  1  0  0  0  0
 10 18  1  0  0  0  0
 10 31  1  0  0  0  0
 11 12  2  0  0  0  0
 11 13  1  0  0  0  0
 11 20  1  0  0  0  0
 12 21  1  0  0  0  0
 12 32  1  0  0  0  0
 13 14  2  0  0  0  0
 13 33  1  0  0  0  0
 14 15  1  0  0  0  0
 14 34  1  0  0  0  0
 15 16  1  0  0  0  0
 15 21  2  0  0  0  0
 16 35  1  0  0  0  0
 16 36  1  0  0  0  0
 16 37  1  0  0  0  0
 17 18  1  0  0  0  0
 17 38  1  0  0  0  0
 19 20  1  0  0  0  0
 19 23  1  0  0  0  0
 20 39  1  0  0  0  0
 21 40  1  0  0  0  0
 23 24  2  0  0  0  0
 24 41  1  0  0  0  0
 25 42  1  0  0  0  0
 25 43  1  0  0  0  0
 25 44  1  0  0  0  0
M  CHG  1  23   1
M  END
$$$$
