8JQ
 OpenBabel04161911283D

 56 56  0  0  1  0  0  0  0  0999 V2000
   12.8576   40.1440   -9.2695 C   0  0  0  0  0  0  0  0  0  0  0  0
   13.8365   40.0958  -11.4478 C   0  0  0  0  0  0  0  0  0  0  0  0
   15.3304   40.3021  -11.5396 C   0  0  0  0  0  0  0  0  0  0  0  0
   15.9822   41.0860  -10.5853 C   0  0  0  0  0  0  0  0  0  0  0  0
   17.3546   41.3078  -10.6627 C   0  0  0  0  0  0  0  0  0  0  0  0
   18.1055   40.7539  -11.6902 C   0  0  0  0  0  0  0  0  0  0  0  0
   17.4789   39.9464  -12.6312 C   0  0  0  0  0  0  0  0  0  0  0  0
   12.4571   37.3387   -6.0424 O   0  0  0  0  0  0  0  0  0  0  0  0
   11.4171   38.4262   -6.0487 P   0  0  2  0  0  0  0  0  0  0  0  0
   11.1911   39.0478   -4.4446 N   0  0  0  0  0  0  0  0  0  0  0  0
   10.0587   38.5440   -3.6560 C   0  0  1  0  0  0  0  0  0  0  0  0
   10.4429   38.6212   -2.1797 C   0  0  0  0  0  0  0  0  0  0  0  0
    9.3673   38.0605   -1.2467 C   0  0  0  0  0  0  0  0  0  0  0  0
    9.2530   36.5499   -1.3746 C   0  0  0  0  0  0  0  0  0  0  0  0
    9.6719   38.4490    0.1914 C   0  0  0  0  0  0  0  0  0  0  0  0
    8.8058   39.3761   -3.9242 C   0  0  0  0  0  0  0  0  0  0  0  0
    7.6561   38.9343   -3.7863 O   0  0  0  0  0  0  0  0  0  0  0  0
   10.0428   38.1162   -6.5734 O   0  0  0  0  0  0  0  0  0  0  0  0
   12.1038   39.8988   -6.9213 C   0  0  0  0  0  0  0  0  0  0  0  0
   12.7829   39.4456   -8.1315 N   0  0  0  0  0  0  0  0  0  0  0  0
   13.5048   39.4271  -10.2148 O   0  0  0  0  0  0  0  0  0  0  0  0
   16.0973   39.7301  -12.5635 C   0  0  0  0  0  0  0  0  0  0  0  0
   12.4399   41.3113   -9.4022 O   0  0  0  0  0  0  0  0  0  0  0  0
    9.0369   40.7181   -4.1601 N   0  0  0  0  0  0  0  0  0  0  0  0
    7.9820   41.6799   -4.3218 C   0  0  0  0  0  0  0  0  0  0  0  0
    7.9560   42.4693   -3.0301 C   0  0  0  0  0  0  0  0  0  0  0  0
    6.8614   43.4412   -2.9700 N   0  3  0  0  0  0  0  0  0  0  0  0
   13.5011   39.4717  -12.2862 H   0  0  0  0  0  0  0  0  0  0  0  0
   13.3231   41.0599  -11.5080 H   0  0  0  0  0  0  0  0  0  0  0  0
   15.4242   41.5317   -9.7653 H   0  0  0  0  0  0  0  0  0  0  0  0
   17.8367   41.9196   -9.9081 H   0  0  0  0  0  0  0  0  0  0  0  0
   19.1716   40.9529  -11.7484 H   0  0  0  0  0  0  0  0  0  0  0  0
   18.0709   39.4861  -13.4167 H   0  0  0  0  0  0  0  0  0  0  0  0
   11.8362   39.7226   -4.0639 H   0  0  0  0  0  0  0  0  0  0  0  0
    9.8457   37.5174   -3.9429 H   0  0  0  0  0  0  0  0  0  0  0  0
   10.6300   39.6680   -1.9058 H   0  0  0  0  0  0  0  0  0  0  0  0
   11.3701   38.0534   -2.0349 H   0  0  0  0  0  0  0  0  0  0  0  0
    8.4043   38.4994   -1.5099 H   0  0  0  0  0  0  0  0  0  0  0  0
    8.4831   36.1732   -0.6937 H   0  0  0  0  0  0  0  0  0  0  0  0
   10.2077   36.0703   -1.1305 H   0  0  0  0  0  0  0  0  0  0  0  0
    8.9738   36.2785   -2.3967 H   0  0  0  0  0  0  0  0  0  0  0  0
    9.7555   39.5391    0.2740 H   0  0  0  0  0  0  0  0  0  0  0  0
   10.6134   37.9964    0.5202 H   0  0  0  0  0  0  0  0  0  0  0  0
    8.8645   38.1098    0.8485 H   0  0  0  0  0  0  0  0  0  0  0  0
   12.8343   40.4242   -6.2887 H   0  0  0  0  0  0  0  0  0  0  0  0
   11.2938   40.5821   -7.1800 H   0  0  0  0  0  0  0  0  0  0  0  0
   13.1819   38.5073   -8.0903 H   0  0  0  0  0  0  0  0  0  0  0  0
   15.6246   39.1061  -13.3166 H   0  0  0  0  0  0  0  0  0  0  0  0
   10.0122   40.9901   -4.2502 H   0  0  0  0  0  0  0  0  0  0  0  0
    7.0264   41.1743   -4.5006 H   0  0  0  0  0  0  0  0  0  0  0  0
    8.2066   42.3267   -5.1790 H   0  0  0  0  0  0  0  0  0  0  0  0
    8.8827   43.0383   -2.9187 H   0  0  0  0  0  0  0  0  0  0  0  0
    7.8269   41.7988   -2.1795 H   0  0  0  0  0  0  0  0  0  0  0  0
    6.8853   43.9476   -2.0748 H   0  0  0  0  0  0  0  0  0  0  0  0
    6.9380   44.1242   -3.7330 H   0  0  0  0  0  0  0  0  0  0  0  0
    5.9546   42.9611   -3.0438 H   0  0  0  0  0  0  0  0  0  0  0  0
  1 20  1  0  0  0  0
  1 21  1  0  0  0  0
  1 23  2  0  0  0  0
  2  3  1  0  0  0  0
  2 21  1  0  0  0  0
  2 28  1  0  0  0  0
  2 29  1  0  0  0  0
  3  4  2  0  0  0  0
  3 22  1  0  0  0  0
  4  5  1  0  0  0  0
  4 30  1  0  0  0  0
  5  6  2  0  0  0  0
  5 31  1  0  0  0  0
  6  7  1  0  0  0  0
  6 32  1  0  0  0  0
  7 22  2  0  0  0  0
  7 33  1  0  0  0  0
  9  8  2  6  0  0  0
  9 10  1  0  0  0  0
  9 18  1  0  0  0  0
  9 19  1  0  0  0  0
 10 11  1  0  0  0  0
 10 34  1  0  0  0  0
 11 12  1  0  0  0  0
 11 16  1  0  0  0  0
 11 35  1  6  0  0  0
 12 13  1  0  0  0  0
 12 36  1  0  0  0  0
 12 37  1  0  0  0  0
 13 14  1  0  0  0  0
 13 15  1  0  0  0  0
 13 38  1  0  0  0  0
 14 39  1  0  0  0  0
 14 40  1  0  0  0  0
 14 41  1  0  0  0  0
 15 42  1  0  0  0  0
 15 43  1  0  0  0  0
 15 44  1  0  0  0  0
 16 17  2  0  0  0  0
 16 24  1  0  0  0  0
 19 20  1  0  0  0  0
 19 45  1  0  0  0  0
 19 46  1  0  0  0  0
 20 47  1  0  0  0  0
 22 48  1  0  0  0  0
 24 25  1  0  0  0  0
 24 49  1  0  0  0  0
 25 26  1  0  0  0  0
 25 50  1  0  0  0  0
 25 51  1  0  0  0  0
 26 27  1  0  0  0  0
 26 52  1  0  0  0  0
 26 53  1  0  0  0  0
 27 54  1  0  0  0  0
 27 55  1  0  0  0  0
 27 56  1  0  0  0  0
M  CHG  1  27   1
M  END
$$$$
