8JS
 OpenBabel04161912163D

 34 35  0  0  0  0  0  0  0  0999 V2000
    1.7126    9.4801   82.5663 C   0  0  0  0  0  0  0  0  0  0  0  0
    0.9346    8.6137   84.6730 C   0  0  0  0  0  0  0  0  0  0  0  0
   -2.3541    5.0420   84.9391 C   0  0  0  0  0  0  0  0  0  0  0  0
   -0.1785    4.0060   84.9700 C   0  0  0  0  0  0  0  0  0  0  0  0
    2.6958   10.2150   83.2345 C   0  0  0  0  0  0  0  0  0  0  0  0
    1.9216    9.3439   85.3442 C   0  0  0  0  0  0  0  0  0  0  0  0
   -2.8789    3.9804   85.6651 C   0  0  0  0  0  0  0  0  0  0  0  0
   -0.6876    2.9408   85.7173 C   0  0  0  0  0  0  0  0  0  0  0  0
    0.8086    8.6800   83.2687 C   0  0  0  0  0  0  0  0  0  0  0  0
   -1.0026    5.0493   84.5488 C   0  0  0  0  0  0  0  0  0  0  0  0
    2.7907   10.1419   84.6181 C   0  0  0  0  0  0  0  0  0  0  0  0
   -2.0433    2.9332   86.0516 C   0  0  0  0  0  0  0  0  0  0  0  0
   -0.9801    6.8713   82.9781 C   0  0  0  0  0  0  0  0  0  0  0  0
   -2.1786    0.2550   86.2720 N   0  0  0  0  0  0  0  0  0  0  0  0
   -0.1334    7.9212   82.5490 N   0  0  0  0  0  0  0  0  0  0  0  0
   -0.4316    6.0670   83.8672 N   0  0  0  0  0  0  0  0  0  0  0  0
   -2.0747    1.6902   88.3208 O   0  0  0  0  0  0  0  0  0  0  0  0
   -4.1554    1.6353   86.8821 O   0  0  0  0  0  0  0  0  0  0  0  0
    3.7304   10.8446   85.2530 F   0  0  0  0  0  0  0  0  0  0  0  0
   -2.4998    6.6858   82.1888 S   0  0  0  0  0  0  0  0  0  0  0  0
   -2.7213    1.6250   87.0361 S   0  0  0  0  0  0  0  0  0  0  0  0
    1.6676    9.5398   81.4840 H   0  0  0  0  0  0  0  0  0  0  0  0
    0.2528    8.0247   85.2841 H   0  0  0  0  0  0  0  0  0  0  0  0
   -3.0066    5.8838   84.7347 H   0  0  0  0  0  0  0  0  0  0  0  0
    0.8814    4.0087   84.7182 H   0  0  0  0  0  0  0  0  0  0  0  0
    3.3883   10.8415   82.6822 H   0  0  0  0  0  0  0  0  0  0  0  0
    2.0113    9.3001   86.4259 H   0  0  0  0  0  0  0  0  0  0  0  0
   -3.9303    3.9952   85.9527 H   0  0  0  0  0  0  0  0  0  0  0  0
   -0.0252    2.1428   86.0482 H   0  0  0  0  0  0  0  0  0  0  0  0
   -2.4202   -0.6281   86.7142 H   0  0  0  0  0  0  0  0  0  0  0  0
   -1.5751    0.2889   85.4590 H   0  0  0  0  0  0  0  0  0  0  0  0
   -0.3904    8.3129   81.6492 H   0  0  0  0  0  0  0  0  0  0  0  0
   -2.6012    7.8561   81.5487 H   0  0  0  0  0  0  0  0  0  0  0  0
    0.5620    6.2168   83.9779 H   0  0  0  0  0  0  0  0  0  0  0  0
  1  5  2  0  0  0  0
  1  9  1  0  0  0  0
  1 22  1  0  0  0  0
  2  6  1  0  0  0  0
  2  9  2  0  0  0  0
  2 23  1  0  0  0  0
  3  7  2  0  0  0  0
  3 10  1  0  0  0  0
  3 24  1  0  0  0  0
  4  8  1  0  0  0  0
  4 10  2  0  0  0  0
  4 25  1  0  0  0  0
  5 11  1  0  0  0  0
  5 26  1  0  0  0  0
  6 11  2  0  0  0  0
  6 27  1  0  0  0  0
  7 12  1  0  0  0  0
  7 28  1  0  0  0  0
  8 12  2  0  0  0  0
  8 29  1  0  0  0  0
  9 15  1  0  0  0  0
 10 16  1  0  0  0  0
 11 19  1  0  0  0  0
 12 21  1  0  0  0  0
 13 15  1  0  0  0  0
 13 16  2  0  0  0  0
 13 20  1  0  0  0  0
 14 21  1  0  0  0  0
 14 30  1  0  0  0  0
 14 31  1  0  0  0  0
 15 32  1  0  0  0  0
 16 34  1  0  0  0  0
 17 21  2  0  0  0  0
 18 21  2  0  0  0  0
 20 33  1  0  0  0  0
M  END
$$$$
