8L2
 OpenBabel04161911283D

 58 58  0  0  1  0  0  0  0  0999 V2000
   12.1114   40.0175   -6.8828 C   0  0  0  0  0  0  0  0  0  0  0  0
   13.7986   40.3593  -11.3816 C   0  0  0  0  0  0  0  0  0  0  0  0
   15.2959   40.4888  -11.5339 C   0  0  0  0  0  0  0  0  0  0  0  0
   15.9784   39.8661  -12.5831 C   0  0  0  0  0  0  0  0  0  0  0  0
   17.3630   40.0086  -12.7006 C   0  0  0  0  0  0  0  0  0  0  0  0
   18.0671   40.7604  -11.7620 C   0  0  0  0  0  0  0  0  0  0  0  0
   17.4050   41.3753  -10.7111 C   0  0  0  0  0  0  0  0  0  0  0  0
   16.0203   41.2385  -10.5928 C   0  0  0  0  0  0  0  0  0  0  0  0
   10.0647   38.5879   -3.6805 C   0  0  1  0  0  0  0  0  0  0  0  0
    9.6327   38.4820    0.1927 C   0  0  0  0  0  0  0  0  0  0  0  0
    9.2148   36.5640   -1.3825 C   0  0  0  0  0  0  0  0  0  0  0  0
    8.8399   39.4933   -3.9164 C   0  0  0  0  0  0  0  0  0  0  0  0
    9.1645   40.8357   -4.0211 N   0  0  0  0  0  0  0  0  0  0  0  0
    8.1546   41.8359   -4.4243 C   0  0  2  0  0  0  0  0  0  0  0  0
    7.5952   42.2536   -2.0974 N   0  3  0  0  0  0  0  0  0  0  0  0
   11.4272   38.5310   -6.0413 P   0  0  1  0  0  0  0  0  0  0  0  0
   12.5090   37.4792   -5.9980 O   0  0  0  0  0  0  0  0  0  0  0  0
   12.7991   39.5872   -8.0889 N   0  0  0  0  0  0  0  0  0  0  0  0
   12.8708   40.3286   -9.2204 C   0  0  0  0  0  0  0  0  0  0  0  0
   12.4407   41.4681   -9.3456 O   0  0  0  0  0  0  0  0  0  0  0  0
   13.5213   39.6398  -10.1781 O   0  0  0  0  0  0  0  0  0  0  0  0
   11.2478   39.0671   -4.4169 N   0  0  0  0  0  0  0  0  0  0  0  0
   10.4277   38.6312   -2.1863 C   0  0  0  0  0  0  0  0  0  0  0  0
    9.3363   38.0794   -1.2504 C   0  0  0  0  0  0  0  0  0  0  0  0
    7.6723   39.1449   -3.7350 O   0  0  0  0  0  0  0  0  0  0  0  0
   10.0420   38.2258   -6.5340 O   0  0  0  0  0  0  0  0  0  0  0  0
    8.5417   42.7352   -5.6008 C   0  0  0  0  0  0  0  0  0  0  0  0
    9.7732   42.7269   -5.8740 O   0  0  0  0  0  0  0  0  0  0  0  0
    7.6063   43.4751   -6.0129 O   0  0  0  0  0  0  0  0  0  0  0  0
    8.0723   42.9131   -3.3559 C   0  0  0  0  0  0  0  0  0  0  0  0
   12.8614   40.4751   -6.2315 H   0  0  0  0  0  0  0  0  0  0  0  0
   11.3260   40.7423   -7.1055 H   0  0  0  0  0  0  0  0  0  0  0  0
   13.3725   39.7847  -12.2205 H   0  0  0  0  0  0  0  0  0  0  0  0
   13.3485   41.3593  -11.4237 H   0  0  0  0  0  0  0  0  0  0  0  0
   15.4338   39.2694  -13.3112 H   0  0  0  0  0  0  0  0  0  0  0  0
   17.8865   39.5182  -13.5160 H   0  0  0  0  0  0  0  0  0  0  0  0
   19.1491   40.8604  -11.8585 H   0  0  0  0  0  0  0  0  0  0  0  0
   17.9542   41.9562   -9.9764 H   0  0  0  0  0  0  0  0  0  0  0  0
   15.5012   41.7208   -9.7579 H   0  0  0  0  0  0  0  0  0  0  0  0
    9.8218   37.5739   -4.0116 H   0  0  0  0  0  0  0  0  0  0  0  0
    8.8644   38.0941    0.8699 H   0  0  0  0  0  0  0  0  0  0  0  0
    9.6402   39.5726    0.2923 H   0  0  0  0  0  0  0  0  0  0  0  0
   10.6065   38.1041    0.5224 H   0  0  0  0  0  0  0  0  0  0  0  0
    8.9934   36.2680   -2.4119 H   0  0  0  0  0  0  0  0  0  0  0  0
    8.4029   36.1845   -0.7532 H   0  0  0  0  0  0  0  0  0  0  0  0
   10.1423   36.0663   -1.0799 H   0  0  0  0  0  0  0  0  0  0  0  0
   10.0762   40.9803   -4.4619 H   0  0  0  0  0  0  0  0  0  0  0  0
    7.1846   41.3593   -4.5950 H   0  0  0  0  0  0  0  0  0  0  0  0
    7.5598   42.9061   -1.3094 H   0  0  0  0  0  0  0  0  0  0  0  0
    6.6743   41.8353   -2.2658 H   0  0  0  0  0  0  0  0  0  0  0  0
   13.1790   38.6486   -8.0754 H   0  0  0  0  0  0  0  0  0  0  0  0
   11.8883   39.7523   -4.0352 H   0  0  0  0  0  0  0  0  0  0  0  0
   10.6487   39.6703   -1.9037 H   0  0  0  0  0  0  0  0  0  0  0  0
   11.3596   38.0725   -2.0232 H   0  0  0  0  0  0  0  0  0  0  0  0
    8.3668   38.5233   -1.5002 H   0  0  0  0  0  0  0  0  0  0  0  0
    7.3634   43.7264   -3.5605 H   0  0  0  0  0  0  0  0  0  0  0  0
    9.0530   43.3346   -3.1087 H   0  0  0  0  0  0  0  0  0  0  0  0
    8.2343   41.4721   -1.8992 H   0  0  0  0  0  0  0  0  0  0  0  0
  1 18  1  0  0  0  0
  1 31  1  0  0  0  0
  1 32  1  0  0  0  0
  2  3  1  0  0  0  0
  2 21  1  0  0  0  0
  2 33  1  0  0  0  0
  2 34  1  0  0  0  0
  3  4  2  0  0  0  0
  3  8  1  0  0  0  0
  4  5  1  0  0  0  0
  4 35  1  0  0  0  0
  5  6  2  0  0  0  0
  5 36  1  0  0  0  0
  6  7  1  0  0  0  0
  6 37  1  0  0  0  0
  7  8  2  0  0  0  0
  7 38  1  0  0  0  0
  8 39  1  0  0  0  0
  9 12  1  0  0  0  0
  9 22  1  0  0  0  0
  9 23  1  0  0  0  0
  9 40  1  6  0  0  0
 10 24  1  0  0  0  0
 10 41  1  0  0  0  0
 10 42  1  0  0  0  0
 10 43  1  0  0  0  0
 11 24  1  0  0  0  0
 11 44  1  0  0  0  0
 11 45  1  0  0  0  0
 11 46  1  0  0  0  0
 12 13  1  0  0  0  0
 12 25  2  0  0  0  0
 13 14  1  0  0  0  0
 13 47  1  0  0  0  0
 14 27  1  0  0  0  0
 14 30  1  0  0  0  0
 14 48  1  6  0  0  0
 15 30  1  0  0  0  0
 15 49  1  0  0  0  0
 15 50  1  0  0  0  0
 15 58  1  0  0  0  0
 16  1  1  6  0  0  0
 16 17  2  0  0  0  0
 16 22  1  0  0  0  0
 16 26  1  0  0  0  0
 18 19  1  0  0  0  0
 18 51  1  0  0  0  0
 19 20  2  0  0  0  0
 19 21  1  0  0  0  0
 22 52  1  0  0  0  0
 23 24  1  0  0  0  0
 23 53  1  0  0  0  0
 23 54  1  0  0  0  0
 24 55  1  0  0  0  0
 27 28  2  0  0  0  0
 27 29  1  0  0  0  0
 30 56  1  0  0  0  0
 30 57  1  0  0  0  0
M  CHG  1  15   1
M  END
$$$$
