8L5
 OpenBabel04161911283D

 53 53  0  0  1  0  0  0  0  0999 V2000
   13.8776   40.1548  -11.4842 C   0  0  0  0  0  0  0  0  0  0  0  0
   15.3659   40.3765  -11.5561 C   0  0  0  0  0  0  0  0  0  0  0  0
   16.0066   41.1770  -10.6089 C   0  0  0  0  0  0  0  0  0  0  0  0
   17.3772   41.4029  -10.6845 C   0  0  0  0  0  0  0  0  0  0  0  0
   18.1247   40.8357  -11.7070 C   0  0  0  0  0  0  0  0  0  0  0  0
   17.5049   40.0219  -12.6444 C   0  0  0  0  0  0  0  0  0  0  0  0
   16.1321   39.7966  -12.5714 C   0  0  0  0  0  0  0  0  0  0  0  0
   10.0826   38.2146   -6.5942 O   0  0  0  0  0  0  0  0  0  0  0  0
   11.4586   38.5194   -6.0755 P   0  0  1  0  0  0  0  0  0  0  0  0
   11.2165   39.1573   -4.4749 N   0  0  0  0  0  0  0  0  0  0  0  0
   10.1021   38.6165   -3.6856 C   0  0  1  0  0  0  0  0  0  0  0  0
   10.4918   38.7002   -2.2082 C   0  0  0  0  0  0  0  0  0  0  0  0
    9.4245   38.1530   -1.2550 C   0  0  0  0  0  0  0  0  0  0  0  0
    9.3072   36.6415   -1.3697 C   0  0  0  0  0  0  0  0  0  0  0  0
    9.7538   38.5418    0.1794 C   0  0  0  0  0  0  0  0  0  0  0  0
    8.8494   39.4743   -3.9204 C   0  0  0  0  0  0  0  0  0  0  0  0
    7.7000   39.0151   -3.8191 O   0  0  0  0  0  0  0  0  0  0  0  0
   12.4870   37.4234   -6.0518 O   0  0  0  0  0  0  0  0  0  0  0  0
   12.1662   39.9827   -6.9513 C   0  0  0  0  0  0  0  0  0  0  0  0
   12.8267   39.5161   -8.1620 N   0  0  0  0  0  0  0  0  0  0  0  0
   12.9107   40.2080   -9.3051 C   0  0  0  0  0  0  0  0  0  0  0  0
   13.5425   39.4843  -10.2549 O   0  0  0  0  0  0  0  0  0  0  0  0
   12.5022   41.3792   -9.4373 O   0  0  0  0  0  0  0  0  0  0  0  0
    9.0490   40.8475   -3.9976 N   0  0  0  0  0  0  0  0  0  0  0  0
    8.0060   41.7786   -4.1950 C   0  0  0  0  0  0  0  0  0  0  0  0
    7.5219   42.1653   -2.8725 N   0  3  0  0  0  0  0  0  0  0  0  0
   13.5655   39.5208  -12.3257 H   0  0  0  0  0  0  0  0  0  0  0  0
   13.3565   41.1115  -11.5582 H   0  0  0  0  0  0  0  0  0  0  0  0
   15.4370   41.6278   -9.8023 H   0  0  0  0  0  0  0  0  0  0  0  0
   17.8622   42.0244   -9.9410 H   0  0  0  0  0  0  0  0  0  0  0  0
   19.1900   41.0261  -11.7718 H   0  0  0  0  0  0  0  0  0  0  0  0
   18.0942   39.5640  -13.4309 H   0  0  0  0  0  0  0  0  0  0  0  0
   15.6612   39.1604  -13.3130 H   0  0  0  0  0  0  0  0  0  0  0  0
   11.8265   39.8656   -4.1073 H   0  0  0  0  0  0  0  0  0  0  0  0
    9.9023   37.5843   -3.9800 H   0  0  0  0  0  0  0  0  0  0  0  0
   10.6769   39.7514   -1.9490 H   0  0  0  0  0  0  0  0  0  0  0  0
   11.4197   38.1367   -2.0579 H   0  0  0  0  0  0  0  0  0  0  0  0
    8.4600   38.5979   -1.5058 H   0  0  0  0  0  0  0  0  0  0  0  0
    8.5463   36.2701   -0.6754 H   0  0  0  0  0  0  0  0  0  0  0  0
   10.2653   36.1635   -1.1327 H   0  0  0  0  0  0  0  0  0  0  0  0
    9.0165   36.3628   -2.3863 H   0  0  0  0  0  0  0  0  0  0  0  0
    9.8407   39.6315    0.2632 H   0  0  0  0  0  0  0  0  0  0  0  0
   10.7000   38.0863    0.4920 H   0  0  0  0  0  0  0  0  0  0  0  0
    8.9570   38.2015    0.8500 H   0  0  0  0  0  0  0  0  0  0  0  0
   12.9135   40.4924   -6.3254 H   0  0  0  0  0  0  0  0  0  0  0  0
   11.3707   40.6834   -7.2087 H   0  0  0  0  0  0  0  0  0  0  0  0
   13.2053   38.5684   -8.1169 H   0  0  0  0  0  0  0  0  0  0  0  0
   10.0134   41.1416   -4.0965 H   0  0  0  0  0  0  0  0  0  0  0  0
    7.1555   41.3711   -4.7403 H   0  0  0  0  0  0  0  0  0  0  0  0
    8.3741   42.6957   -4.6588 H   0  0  0  0  0  0  0  0  0  0  0  0
    6.7635   42.8489   -2.9561 H   0  0  0  0  0  0  0  0  0  0  0  0
    7.1611   41.3282   -2.3953 H   0  0  0  0  0  0  0  0  0  0  0  0
    8.2809   42.5651   -2.3162 H   0  0  0  0  0  0  0  0  0  0  0  0
  1  2  1  0  0  0  0
  1 22  1  0  0  0  0
  1 27  1  0  0  0  0
  1 28  1  0  0  0  0
  2  3  2  0  0  0  0
  2  7  1  0  0  0  0
  3  4  1  0  0  0  0
  3 29  1  0  0  0  0
  4  5  2  0  0  0  0
  4 30  1  0  0  0  0
  5  6  1  0  0  0  0
  5 31  1  0  0  0  0
  6  7  2  0  0  0  0
  6 32  1  0  0  0  0
  7 33  1  0  0  0  0
  9  8  2  6  0  0  0
  9 10  1  0  0  0  0
  9 18  1  0  0  0  0
  9 19  1  0  0  0  0
 10 11  1  0  0  0  0
 10 34  1  0  0  0  0
 11 12  1  0  0  0  0
 11 16  1  0  0  0  0
 11 35  1  6  0  0  0
 12 13  1  0  0  0  0
 12 36  1  0  0  0  0
 12 37  1  0  0  0  0
 13 14  1  0  0  0  0
 13 15  1  0  0  0  0
 13 38  1  0  0  0  0
 14 39  1  0  0  0  0
 14 40  1  0  0  0  0
 14 41  1  0  0  0  0
 15 42  1  0  0  0  0
 15 43  1  0  0  0  0
 15 44  1  0  0  0  0
 16 17  2  0  0  0  0
 16 24  1  0  0  0  0
 19 20  1  0  0  0  0
 19 45  1  0  0  0  0
 19 46  1  0  0  0  0
 20 21  1  0  0  0  0
 20 47  1  0  0  0  0
 21 22  1  0  0  0  0
 21 23  2  0  0  0  0
 24 25  1  0  0  0  0
 24 48  1  0  0  0  0
 25 26  1  0  0  0  0
 25 49  1  0  0  0  0
 25 50  1  0  0  0  0
 26 51  1  0  0  0  0
 26 52  1  0  0  0  0
 26 53  1  0  0  0  0
M  CHG  1  26   1
M  END
$$$$
