8LB
 OpenBabel04161911273D

 64 64  0  0  1  0  0  0  0  0999 V2000
   38.2640   36.4210   -1.2304 C   0  0  0  0  0  0  0  0  0  0  0  0
   39.3929   35.4237   -1.4255 C   0  0  0  0  0  0  0  0  0  0  0  0
   38.0238   37.6345   -5.5652 C   0  0  0  0  0  0  0  0  0  0  0  0
   34.2323   40.2707   -6.8862 C   0  0  0  0  0  0  0  0  0  0  0  0
   33.5926   39.9799   -9.2694 C   0  0  0  0  0  0  0  0  0  0  0  0
   32.5921   39.9459  -11.4342 C   0  0  0  0  0  0  0  0  0  0  0  0
   31.0866   39.8217  -11.5682 C   0  0  0  0  0  0  0  0  0  0  0  0
   28.2970   39.5332  -11.7909 C   0  0  0  0  0  0  0  0  0  0  0  0
   28.9928   40.3057  -12.7182 C   0  0  0  0  0  0  0  0  0  0  0  0
   30.3826   40.4496  -12.6064 C   0  0  0  0  0  0  0  0  0  0  0  0
   36.2979   42.1053   -6.6083 O   0  0  0  0  0  0  0  0  0  0  0  0
   34.9255   41.7840   -6.0759 P   0  0  2  0  0  0  0  0  0  0  0  0
   35.0685   41.2928   -4.4320 N   0  0  0  0  0  0  0  0  0  0  0  0
   36.2551   41.7416   -3.6905 C   0  0  1  0  0  0  0  0  0  0  0  0
   35.9005   41.6489   -2.1979 C   0  0  0  0  0  0  0  0  0  0  0  0
   36.9924   42.1752   -1.2588 C   0  0  0  0  0  0  0  0  0  0  0  0
   36.6896   41.7845    0.1818 C   0  0  0  0  0  0  0  0  0  0  0  0
   37.1459   43.6851   -1.3622 C   0  0  0  0  0  0  0  0  0  0  0  0
   37.4942   40.9039   -3.9758 C   0  0  0  0  0  0  0  0  0  0  0  0
   37.2786   39.5587   -4.0977 N   0  0  0  0  0  0  0  0  0  0  0  0
   38.3726   38.6442   -4.4318 C   0  0  1  0  0  0  0  0  0  0  0  0
   36.8052   37.6211   -5.9237 O   0  0  0  0  0  0  0  0  0  0  0  0
   38.9799   36.8945   -5.9463 O   0  0  0  0  0  0  0  0  0  0  0  0
   38.6335   41.4106   -3.8494 O   0  0  0  0  0  0  0  0  0  0  0  0
   33.8598   42.8558   -6.0973 O   0  0  0  0  0  0  0  0  0  0  0  0
   33.5491   40.6761   -8.1031 N   0  0  0  0  0  0  0  0  0  0  0  0
   32.9086   40.6639  -10.2273 O   0  0  0  0  0  0  0  0  0  0  0  0
   30.3688   39.0614  -10.6368 C   0  0  0  0  0  0  0  0  0  0  0  0
   28.9851   38.9183  -10.7470 C   0  0  0  0  0  0  0  0  0  0  0  0
   34.0235   38.8487   -9.3993 O   0  0  0  0  0  0  0  0  0  0  0  0
   38.8463   37.9644   -3.1464 C   0  0  0  0  0  0  0  0  0  0  0  0
   37.7884   37.0482   -2.5385 C   0  0  0  0  0  0  0  0  0  0  0  0
   38.6029   37.2090   -0.5487 H   0  0  0  0  0  0  0  0  0  0  0  0
   37.4208   35.9053   -0.7582 H   0  0  0  0  0  0  0  0  0  0  0  0
   39.6935   35.0007   -0.4617 H   0  0  0  0  0  0  0  0  0  0  0  0
   40.2698   35.9034   -1.8671 H   0  0  0  0  0  0  0  0  0  0  0  0
   39.0754   34.6058   -2.0792 H   0  0  0  0  0  0  0  0  0  0  0  0
   33.4840   39.8034   -6.2391 H   0  0  0  0  0  0  0  0  0  0  0  0
   35.0272   39.5516   -7.0991 H   0  0  0  0  0  0  0  0  0  0  0  0
   32.9870   40.5130  -12.2871 H   0  0  0  0  0  0  0  0  0  0  0  0
   33.0437   38.9474  -11.4656 H   0  0  0  0  0  0  0  0  0  0  0  0
   27.2207   39.4129  -11.8749 H   0  0  0  0  0  0  0  0  0  0  0  0
   28.4566   40.7977  -13.5255 H   0  0  0  0  0  0  0  0  0  0  0  0
   30.9101   41.0621  -13.3301 H   0  0  0  0  0  0  0  0  0  0  0  0
   34.4813   40.5709   -4.0287 H   0  0  0  0  0  0  0  0  0  0  0  0
   36.4668   42.7770   -3.9695 H   0  0  0  0  0  0  0  0  0  0  0  0
   35.7024   40.5975   -1.9484 H   0  0  0  0  0  0  0  0  0  0  0  0
   34.9714   42.2078   -2.0237 H   0  0  0  0  0  0  0  0  0  0  0  0
   37.9450   41.7148   -1.5264 H   0  0  0  0  0  0  0  0  0  0  0  0
   37.4691   42.1679    0.8481 H   0  0  0  0  0  0  0  0  0  0  0  0
   36.6622   40.6946    0.2814 H   0  0  0  0  0  0  0  0  0  0  0  0
   35.7252   42.1878    0.5064 H   0  0  0  0  0  0  0  0  0  0  0  0
   37.3600   43.9852   -2.3907 H   0  0  0  0  0  0  0  0  0  0  0  0
   37.9782   44.0210   -0.7359 H   0  0  0  0  0  0  0  0  0  0  0  0
   36.2356   44.1970   -1.0331 H   0  0  0  0  0  0  0  0  0  0  0  0
   36.3356   39.2023   -4.2502 H   0  0  0  0  0  0  0  0  0  0  0  0
   39.2164   39.2439   -4.7913 H   0  0  0  0  0  0  0  0  0  0  0  0
   33.1537   41.6138   -8.0981 H   0  0  0  0  0  0  0  0  0  0  0  0
   30.8971   38.5842   -9.8126 H   0  0  0  0  0  0  0  0  0  0  0  0
   28.4498   38.3250  -10.0105 H   0  0  0  0  0  0  0  0  0  0  0  0
   39.1168   38.7271   -2.4016 H   0  0  0  0  0  0  0  0  0  0  0  0
   39.7454   37.3817   -3.3620 H   0  0  0  0  0  0  0  0  0  0  0  0
   36.8795   37.6292   -2.3426 H   0  0  0  0  0  0  0  0  0  0  0  0
   37.5348   36.2614   -3.2564 H   0  0  0  0  0  0  0  0  0  0  0  0
  1  2  1  0  0  0  0
  1 32  1  0  0  0  0
  1 33  1  0  0  0  0
  1 34  1  0  0  0  0
  2 35  1  0  0  0  0
  2 36  1  0  0  0  0
  2 37  1  0  0  0  0
  3 21  1  0  0  0  0
  3 22  2  0  0  0  0
  3 23  1  0  0  0  0
  4 26  1  0  0  0  0
  4 38  1  0  0  0  0
  4 39  1  0  0  0  0
  5 26  1  0  0  0  0
  5 27  1  0  0  0  0
  5 30  2  0  0  0  0
  6  7  1  0  0  0  0
  6 27  1  0  0  0  0
  6 40  1  0  0  0  0
  6 41  1  0  0  0  0
  7 10  2  0  0  0  0
  7 28  1  0  0  0  0
  8  9  2  0  0  0  0
  8 29  1  0  0  0  0
  8 42  1  0  0  0  0
  9 10  1  0  0  0  0
  9 43  1  0  0  0  0
 10 44  1  0  0  0  0
 11 12  2  0  0  0  0
 12  4  1  6  0  0  0
 12 13  1  0  0  0  0
 12 25  1  0  0  0  0
 13 14  1  0  0  0  0
 13 45  1  0  0  0  0
 14 15  1  0  0  0  0
 14 19  1  0  0  0  0
 14 46  1  6  0  0  0
 15 16  1  0  0  0  0
 15 47  1  0  0  0  0
 15 48  1  0  0  0  0
 16 17  1  0  0  0  0
 16 18  1  0  0  0  0
 16 49  1  0  0  0  0
 17 50  1  0  0  0  0
 17 51  1  0  0  0  0
 17 52  1  0  0  0  0
 18 53  1  0  0  0  0
 18 54  1  0  0  0  0
 18 55  1  0  0  0  0
 19 20  1  0  0  0  0
 19 24  2  0  0  0  0
 20 21  1  0  0  0  0
 20 56  1  0  0  0  0
 21 31  1  0  0  0  0
 21 57  1  6  0  0  0
 26 58  1  0  0  0  0
 28 29  2  0  0  0  0
 28 59  1  0  0  0  0
 29 60  1  0  0  0  0
 31 32  1  0  0  0  0
 31 61  1  0  0  0  0
 31 62  1  0  0  0  0
 32 63  1  0  0  0  0
 32 64  1  0  0  0  0
M  END
$$$$
