8MY
 OpenBabel04161912063D

 36 38  0  0  0  0  0  0  0  0999 V2000
  -28.9525   16.5910   75.7093 C   0  0  0  0  0  0  0  0  0  0  0  0
  -29.2960   14.5119   76.7735 C   0  0  0  0  0  0  0  0  0  0  0  0
  -29.5773   12.2267   77.6434 C   0  0  0  0  0  0  0  0  0  0  0  0
  -27.4378   11.6387   77.5711 C   0  0  0  0  0  0  0  0  0  0  0  0
  -34.7125   16.1304   76.9907 C   0  0  0  0  0  0  0  0  0  0  0  0
  -36.8816   13.8291   78.9402 C   0  0  0  0  0  0  0  0  0  0  0  0
  -35.7071   14.4206   78.3964 C   0  0  0  0  0  0  0  0  0  0  0  0
  -34.4287   13.9244   78.6845 C   0  0  0  0  0  0  0  0  0  0  0  0
  -33.2946   14.5307   78.1217 C   0  0  0  0  0  0  0  0  0  0  0  0
  -33.4338   15.6514   77.2875 C   0  0  0  0  0  0  0  0  0  0  0  0
  -31.0329   15.9755   76.5273 C   0  0  0  0  0  0  0  0  0  0  0  0
  -28.4466   15.3875   76.1441 C   0  0  0  0  0  0  0  0  0  0  0  0
  -28.7241   11.1927   77.8903 C   0  0  0  0  0  0  0  0  0  0  0  0
  -26.1842   10.8116   77.6600 C   0  0  0  0  0  0  0  0  0  0  0  0
  -35.8357   15.5232   77.5430 C   0  0  0  0  0  0  0  0  0  0  0  0
  -37.8858   13.3580   79.3722 N   0  0  0  0  0  0  0  0  0  0  0  0
  -32.3674   16.3292   76.6927 N   0  0  0  0  0  0  0  0  0  0  0  0
  -30.2478   16.8835   75.9063 N   0  0  0  0  0  0  0  0  0  0  0  0
  -28.1212   17.5040   75.0561 N   0  0  0  0  0  0  0  0  0  0  0  0
  -28.8027   13.2549   77.1936 N   0  3  0  0  0  0  0  0  0  0  0  0
  -27.4842   12.9045   77.1247 N   0  0  0  0  0  0  0  0  0  0  0  0
  -30.5942   14.7858   76.9615 N   0  0  0  0  0  0  0  0  0  0  0  0
  -25.4849   10.8550   76.4194 O   0  0  0  0  0  0  0  0  0  0  0  0
  -30.6492   12.2887   77.7421 H   0  0  0  0  0  0  0  0  0  0  0  0
  -34.8239   16.9887   76.3321 H   0  0  0  0  0  0  0  0  0  0  0  0
  -34.3177   13.0667   79.3410 H   0  0  0  0  0  0  0  0  0  0  0  0
  -32.3068   14.1427   78.3604 H   0  0  0  0  0  0  0  0  0  0  0  0
  -27.4185   15.1177   75.9887 H   0  0  0  0  0  0  0  0  0  0  0  0
  -28.9952   10.2296   78.2609 H   0  0  0  0  0  0  0  0  0  0  0  0
  -26.4168    9.7516   77.8886 H   0  0  0  0  0  0  0  0  0  0  0  0
  -25.5166   11.1758   78.4549 H   0  0  0  0  0  0  0  0  0  0  0  0
  -36.8193   15.9075   77.3082 H   0  0  0  0  0  0  0  0  0  0  0  0
  -32.5771   17.2515   76.3267 H   0  0  0  0  0  0  0  0  0  0  0  0
  -28.4749   18.4009   74.7311 H   0  0  0  0  0  0  0  0  0  0  0  0
  -27.1427   17.2884   74.8884 H   0  0  0  0  0  0  0  0  0  0  0  0
  -26.1073   10.5374   75.7407 H   0  0  0  0  0  0  0  0  0  0  0  0
  1 12  2  0  0  0  0
  1 18  1  0  0  0  0
  1 19  1  0  0  0  0
  2 12  1  0  0  0  0
  2 20  1  0  0  0  0
  2 22  2  0  0  0  0
  3 13  1  0  0  0  0
  3 20  2  0  0  0  0
  3 24  1  0  0  0  0
  4 13  2  0  0  0  0
  4 14  1  0  0  0  0
  4 21  1  0  0  0  0
  5 10  2  0  0  0  0
  5 15  1  0  0  0  0
  5 25  1  0  0  0  0
  6  7  1  0  0  0  0
  6 16  3  0  0  0  0
  7  8  1  0  0  0  0
  7 15  2  0  0  0  0
  8  9  2  0  0  0  0
  8 26  1  0  0  0  0
  9 10  1  0  0  0  0
  9 27  1  0  0  0  0
 10 17  1  0  0  0  0
 11 17  1  0  0  0  0
 11 18  2  0  0  0  0
 11 22  1  0  0  0  0
 12 28  1  0  0  0  0
 13 29  1  0  0  0  0
 14 23  1  0  0  0  0
 14 30  1  0  0  0  0
 14 31  1  0  0  0  0
 15 32  1  0  0  0  0
 17 33  1  0  0  0  0
 19 34  1  0  0  0  0
 19 35  1  0  0  0  0
 20 21  1  0  0  0  0
 23 36  1  0  0  0  0
M  CHG  1  20   1
M  END
$$$$
