8Q5
 OpenBabel04161911293D

 50 53  0  0  0  0  0  0  0  0999 V2000
   40.7540   38.1544   38.4180 O   0  0  0  0  0  0  0  0  0  0  0  0
   39.7383   38.2872   37.6944 C   0  0  0  0  0  0  0  0  0  0  0  0
   39.3840   37.3337   36.7704 N   0  0  0  0  0  0  0  0  0  0  0  0
   40.1287   36.0961   36.5661 C   0  0  0  0  0  0  0  0  0  0  0  0
   39.8387   35.4283   35.2263 C   0  0  0  0  0  0  0  0  0  0  0  0
   41.2332   35.9273   35.5208 C   0  0  0  0  0  0  0  0  0  0  0  0
   38.9257   39.5405   37.9005 C   0  0  0  0  0  0  0  0  0  0  0  0
   38.0226   40.0629   36.9638 C   0  0  0  0  0  0  0  0  0  0  0  0
   37.3352   41.2617   37.2050 C   0  0  0  0  0  0  0  0  0  0  0  0
   37.5392   41.9454   38.3898 C   0  0  0  0  0  0  0  0  0  0  0  0
   38.4213   41.4473   39.3453 C   0  0  0  0  0  0  0  0  0  0  0  0
   39.1245   40.2597   39.0989 C   0  0  0  0  0  0  0  0  0  0  0  0
   36.7518   43.1657   38.6412 C   0  0  0  0  0  0  0  0  0  0  0  0
   36.1486   43.5105   39.8280 N   0  3  0  0  0  0  0  0  0  0  0  0
   36.1557   42.8380   41.0508 C   0  0  0  0  0  0  0  0  0  0  0  0
   35.4821   43.3998   42.0864 C   0  0  0  0  0  0  0  0  0  0  0  0
   34.7814   44.5804   42.0001 N   0  0  0  0  0  0  0  0  0  0  0  0
   34.7781   45.1976   40.8276 C   0  0  0  0  0  0  0  0  0  0  0  0
   35.4642   44.6630   39.6827 C   0  0  0  0  0  0  0  0  0  0  0  0
   35.6166   45.0662   38.3973 N   0  3  0  0  0  0  0  0  0  0  0  0
   36.4003   44.1484   37.7091 C   0  0  0  0  0  0  0  0  0  0  0  0
   34.1286   46.4051   40.6582 N   0  0  0  0  0  0  0  0  0  0  0  0
   33.5486   47.1564   41.7897 C   0  0  0  0  0  0  0  0  0  0  0  0
   34.5831   48.0532   42.5020 C   0  0  0  0  0  0  0  0  0  0  0  0
   35.0530   49.2121   41.6241 C   0  0  0  0  0  0  0  0  0  0  0  0
   34.0458   48.5965   43.8317 C   0  0  0  0  0  0  0  0  0  0  0  0
   38.5697   37.4783   36.1984 H   0  0  0  0  0  0  0  0  0  0  0  0
   40.2169   35.5026   37.4917 H   0  0  0  0  0  0  0  0  0  0  0  0
   39.2185   35.9729   34.5081 H   0  0  0  0  0  0  0  0  0  0  0  0
   39.6322   34.3647   35.1703 H   0  0  0  0  0  0  0  0  0  0  0  0
   42.0374   35.1972   35.6650 H   0  0  0  0  0  0  0  0  0  0  0  0
   41.6248   36.8049   35.0064 H   0  0  0  0  0  0  0  0  0  0  0  0
   37.8497   39.5549   36.0246 H   0  0  0  0  0  0  0  0  0  0  0  0
   36.6246   41.6531   36.4821 H   0  0  0  0  0  0  0  0  0  0  0  0
   38.5942   41.9810   40.2797 H   0  0  0  0  0  0  0  0  0  0  0  0
   39.8310   39.8898   39.8471 H   0  0  0  0  0  0  0  0  0  0  0  0
   36.6899   41.9054   41.1709 H   0  0  0  0  0  0  0  0  0  0  0  0
   35.4855   42.9006   43.0736 H   0  0  0  0  0  0  0  0  0  0  0  0
   36.6655   44.2480   36.6573 H   0  0  0  0  0  0  0  0  0  0  0  0
   34.0225   46.8136   39.7381 H   0  0  0  0  0  0  0  0  0  0  0  0
   33.1429   46.4388   42.5195 H   0  0  0  0  0  0  0  0  0  0  0  0
   32.7222   47.7737   41.4197 H   0  0  0  0  0  0  0  0  0  0  0  0
   35.4561   47.4396   42.7372 H   0  0  0  0  0  0  0  0  0  0  0  0
   35.7786   49.8326   42.1696 H   0  0  0  0  0  0  0  0  0  0  0  0
   34.2063   49.8438   41.3273 H   0  0  0  0  0  0  0  0  0  0  0  0
   35.5383   48.8219   40.7221 H   0  0  0  0  0  0  0  0  0  0  0  0
   33.7051   47.7694   44.4676 H   0  0  0  0  0  0  0  0  0  0  0  0
   33.2069   49.2825   43.6619 H   0  0  0  0  0  0  0  0  0  0  0  0
   34.8403   49.1392   44.3657 H   0  0  0  0  0  0  0  0  0  0  0  0
   35.2176   45.9122   37.9948 H   0  0  0  0  0  0  0  0  0  0  0  0
  1  2  2  0  0  0  0
  2  3  1  0  0  0  0
  2  7  1  0  0  0  0
  3  4  1  0  0  0  0
  3 27  1  0  0  0  0
  4  5  1  0  0  0  0
  4  6  1  0  0  0  0
  4 28  1  0  0  0  0
  5  6  1  0  0  0  0
  5 29  1  0  0  0  0
  5 30  1  0  0  0  0
  6 31  1  0  0  0  0
  6 32  1  0  0  0  0
  7  8  2  0  0  0  0
  7 12  1  0  0  0  0
  8  9  1  0  0  0  0
  8 33  1  0  0  0  0
  9 10  2  0  0  0  0
  9 34  1  0  0  0  0
 10 11  1  0  0  0  0
 10 13  1  0  0  0  0
 11 12  2  0  0  0  0
 11 35  1  0  0  0  0
 12 36  1  0  0  0  0
 13 14  2  0  0  0  0
 13 21  1  0  0  0  0
 14 15  1  0  0  0  0
 14 19  1  0  0  0  0
 15 16  2  0  0  0  0
 15 37  1  0  0  0  0
 16 17  1  0  0  0  0
 16 38  1  0  0  0  0
 17 18  1  0  0  0  0
 18 19  2  0  0  0  0
 18 22  1  0  0  0  0
 19 20  1  0  0  0  0
 20 21  2  0  0  0  0
 20 50  1  0  0  0  0
 21 39  1  0  0  0  0
 22 23  1  0  0  0  0
 22 40  1  0  0  0  0
 23 24  1  0  0  0  0
 23 41  1  0  0  0  0
 23 42  1  0  0  0  0
 24 25  1  0  0  0  0
 24 26  1  0  0  0  0
 24 43  1  0  0  0  0
 25 44  1  0  0  0  0
 25 45  1  0  0  0  0
 25 46  1  0  0  0  0
 26 47  1  0  0  0  0
 26 48  1  0  0  0  0
 26 49  1  0  0  0  0
M  CHG  2  14   1  20   1
M  END
$$$$
