8RN
 OpenBabel04161911293D

 54 57  0  0  1  0  0  0  0  0999 V2000
   33.9530   14.2968   -6.8099 N   0  0  0  0  0  0  0  0  0  0  0  0
   34.6690   13.0862   -8.7852 C   0  0  0  0  0  0  0  0  0  0  0  0
   33.1331   11.6554   -9.8683 O   0  0  0  0  0  0  0  0  0  0  0  0
   26.2563   13.9250  -12.0197 O   0  0  0  0  0  0  0  0  0  0  0  0
   27.4767   13.9525  -12.2021 C   0  0  0  0  0  0  0  0  0  0  0  0
   28.0012   13.8584  -13.6323 C   0  0  0  0  0  0  0  0  0  0  0  0
   27.8239   12.4436  -14.2169 C   0  0  1  0  0  0  0  0  0  0  0  0
   28.2878   12.4139  -15.6810 C   0  0  0  0  0  0  0  0  0  0  0  0
   28.5032   11.3771  -13.3697 C   0  0  0  0  0  0  0  0  0  0  0  0
   27.7352   10.6778  -12.4225 C   0  0  0  0  0  0  0  0  0  0  0  0
   28.3171    9.7216  -11.5904 C   0  0  0  0  0  0  0  0  0  0  0  0
   29.6766    9.4454  -11.6952 C   0  0  0  0  0  0  0  0  0  0  0  0
   30.4523   10.1261  -12.6314 C   0  0  0  0  0  0  0  0  0  0  0  0
   29.8719   11.0900  -13.4609 C   0  0  0  0  0  0  0  0  0  0  0  0
   28.3767   13.9803  -11.1425 N   0  0  0  0  0  0  0  0  0  0  0  0
   29.7578   14.4338  -11.2254 C   0  0  0  0  0  0  0  0  0  0  0  0
   30.6829   13.5716  -10.3769 C   0  0  0  0  0  0  0  0  0  0  0  0
   27.8543   13.9114   -9.7783 C   0  0  0  0  0  0  0  0  0  0  0  0
   28.7208   12.9985   -8.9038 C   0  0  0  0  0  0  0  0  0  0  0  0
   30.1997   13.4247   -8.9260 C   0  0  2  0  0  0  0  0  0  0  0  0
   30.2737   14.6966   -8.2602 O   0  0  0  0  0  0  0  0  0  0  0  0
   31.0686   12.4010   -8.1367 C   0  0  0  0  0  0  0  0  0  0  0  0
   32.4646   12.8361   -8.0026 N   0  3  0  0  0  0  0  0  0  0  0  0
   32.8101   13.7121   -6.9845 C   0  0  0  0  0  0  0  0  0  0  0  0
   33.4007   12.4415   -8.9595 C   0  0  0  0  0  0  0  0  0  0  0  0
   36.0064   12.8768   -9.8121 S   0  0  0  0  0  0  0  0  0  0  0  0
   36.9491   13.9792   -8.8850 C   0  0  0  0  0  0  0  0  0  0  0  0
   36.2319   14.4887   -7.8258 C   0  0  0  0  0  0  0  0  0  0  0  0
   34.9194   13.9697   -7.7716 C   0  0  0  0  0  0  0  0  0  0  0  0
   36.9150   15.7345   -6.5855 Br  0  0  0  0  0  0  0  0  0  0  0  0
   29.0330   14.1846  -13.7399 H   0  0  0  0  0  0  0  0  0  0  0  0
   27.4134   14.5723  -14.2251 H   0  0  0  0  0  0  0  0  0  0  0  0
   26.7490   12.2145  -14.2374 H   0  0  0  0  0  0  0  0  0  0  0  0
   28.1953   11.4076  -16.1046 H   0  0  0  0  0  0  0  0  0  0  0  0
   29.3317   12.7285  -15.7889 H   0  0  0  0  0  0  0  0  0  0  0  0
   27.6798   13.0909  -16.2909 H   0  0  0  0  0  0  0  0  0  0  0  0
   26.6721   10.8899  -12.3171 H   0  0  0  0  0  0  0  0  0  0  0  0
   27.7060    9.1976  -10.8603 H   0  0  0  0  0  0  0  0  0  0  0  0
   30.1336    8.7010  -11.0487 H   0  0  0  0  0  0  0  0  0  0  0  0
   31.5155    9.9119  -12.7097 H   0  0  0  0  0  0  0  0  0  0  0  0
   30.5079   11.6110  -14.1712 H   0  0  0  0  0  0  0  0  0  0  0  0
   29.7765   15.4727  -10.8746 H   0  0  0  0  0  0  0  0  0  0  0  0
   30.1394   14.4481  -12.2433 H   0  0  0  0  0  0  0  0  0  0  0  0
   31.6772   14.0303  -10.4091 H   0  0  0  0  0  0  0  0  0  0  0  0
   30.7555   12.5792  -10.8357 H   0  0  0  0  0  0  0  0  0  0  0  0
   26.8230   13.5430   -9.7688 H   0  0  0  0  0  0  0  0  0  0  0  0
   27.8356   14.9329   -9.3788 H   0  0  0  0  0  0  0  0  0  0  0  0
   28.6246   11.9653   -9.2601 H   0  0  0  0  0  0  0  0  0  0  0  0
   28.3314   13.0323   -7.8788 H   0  0  0  0  0  0  0  0  0  0  0  0
   31.1515   15.0842   -8.4238 H   0  0  0  0  0  0  0  0  0  0  0  0
   31.0338   11.4176   -8.6213 H   0  0  0  0  0  0  0  0  0  0  0  0
   30.6660   12.2873   -7.1230 H   0  0  0  0  0  0  0  0  0  0  0  0
   31.9917   13.9156   -6.2745 H   0  0  0  0  0  0  0  0  0  0  0  0
   37.9712   14.1922   -9.1672 H   0  0  0  0  0  0  0  0  0  0  0  0
  1 24  2  0  0  0  0
  1 29  1  0  0  0  0
  2 25  1  0  0  0  0
  2 26  1  0  0  0  0
  2 29  2  0  0  0  0
  3 25  2  0  0  0  0
  4  5  2  0  0  0  0
  5  6  1  0  0  0  0
  5 15  1  0  0  0  0
  6  7  1  0  0  0  0
  6 31  1  0  0  0  0
  6 32  1  0  0  0  0
  7  8  1  0  0  0  0
  7  9  1  0  0  0  0
  7 33  1  1  0  0  0
  8 34  1  0  0  0  0
  8 35  1  0  0  0  0
  8 36  1  0  0  0  0
  9 10  2  0  0  0  0
  9 14  1  0  0  0  0
 10 11  1  0  0  0  0
 10 37  1  0  0  0  0
 11 12  2  0  0  0  0
 11 38  1  0  0  0  0
 12 13  1  0  0  0  0
 12 39  1  0  0  0  0
 13 14  2  0  0  0  0
 13 40  1  0  0  0  0
 14 41  1  0  0  0  0
 15 16  1  0  0  0  0
 15 18  1  0  0  0  0
 16 17  1  0  0  0  0
 16 42  1  0  0  0  0
 16 43  1  0  0  0  0
 17 20  1  0  0  0  0
 17 44  1  0  0  0  0
 17 45  1  0  0  0  0
 18 19  1  0  0  0  0
 18 46  1  0  0  0  0
 18 47  1  0  0  0  0
 19 20  1  0  0  0  0
 19 48  1  0  0  0  0
 19 49  1  0  0  0  0
 20 21  1  1  0  0  0
 20 22  1  0  0  0  0
 21 50  1  0  0  0  0
 22 23  1  0  0  0  0
 22 51  1  0  0  0  0
 22 52  1  0  0  0  0
 23 24  1  0  0  0  0
 23 25  1  0  0  0  0
 24 53  1  0  0  0  0
 26 27  1  0  0  0  0
 27 28  2  0  0  0  0
 27 54  1  0  0  0  0
 28 29  1  0  0  0  0
 28 30  1  0  0  0  0
M  CHG  1  23   1
M  END
$$$$
