8SK
 OpenBabel04161911303D

 33 37  0  0  0  0  0  0  0  0999 V2000
   13.1518  -32.0678    4.5139 C   0  0  0  0  0  0  0  0  0  0  0  0
   13.0514  -33.2768    3.8255 C   0  0  0  0  0  0  0  0  0  0  0  0
   12.4289  -34.4008    4.4046 C   0  0  0  0  0  0  0  0  0  0  0  0
   11.9035  -34.2650    5.7187 C   0  0  0  0  0  0  0  0  0  0  0  0
   12.0065  -33.0304    6.4287 C   0  0  0  0  0  0  0  0  0  0  0  0
   12.6380  -31.9341    5.8056 C   0  0  0  0  0  0  0  0  0  0  0  0
   12.7508  -30.7155    6.4798 C   0  0  0  0  0  0  0  0  0  0  0  0
   12.2539  -30.5487    7.7747 C   0  0  0  0  0  0  0  0  0  0  0  0
   12.3962  -29.3042    8.4130 C   0  0  0  0  0  0  0  0  0  0  0  0
   11.9207  -29.0995    9.7048 C   0  0  0  0  0  0  0  0  0  0  0  0
   11.2946  -30.1392   10.3733 C   0  0  0  0  0  0  0  0  0  0  0  0
   11.1445  -31.3798    9.7466 C   0  0  0  0  0  0  0  0  0  0  0  0
   11.6163  -31.6287    8.4314 C   0  0  0  0  0  0  0  0  0  0  0  0
   11.4878  -32.8880    7.7452 C   0  0  0  0  0  0  0  0  0  0  0  0
   10.8638  -34.0215    8.3108 C   0  0  0  0  0  0  0  0  0  0  0  0
   10.7548  -35.2328    7.6253 C   0  0  0  0  0  0  0  0  0  0  0  0
   11.2682  -35.3687    6.3371 C   0  0  0  0  0  0  0  0  0  0  0  0
   11.1565  -36.5887    5.6610 C   0  0  0  0  0  0  0  0  0  0  0  0
   11.6690  -36.7298    4.3777 C   0  0  0  0  0  0  0  0  0  0  0  0
   12.2958  -35.6533    3.7584 C   0  0  0  0  0  0  0  0  0  0  0  0
   12.7598  -35.9158    2.4961 O   0  0  0  0  0  0  0  0  0  0  0  0
   13.6411  -31.2277    4.0245 H   0  0  0  0  0  0  0  0  0  0  0  0
   13.4743  -33.3085    2.8268 H   0  0  0  0  0  0  0  0  0  0  0  0
   13.2400  -29.8774    5.9853 H   0  0  0  0  0  0  0  0  0  0  0  0
   12.8856  -28.4766    7.9032 H   0  0  0  0  0  0  0  0  0  0  0  0
   12.0410  -28.1323   10.1846 H   0  0  0  0  0  0  0  0  0  0  0  0
   10.9207  -29.9929   11.3832 H   0  0  0  0  0  0  0  0  0  0  0  0
   10.6466  -32.1583   10.3171 H   0  0  0  0  0  0  0  0  0  0  0  0
   10.4421  -33.9883    9.3112 H   0  0  0  0  0  0  0  0  0  0  0  0
   10.2619  -36.0687    8.1172 H   0  0  0  0  0  0  0  0  0  0  0  0
   10.6699  -37.4417    6.1284 H   0  0  0  0  0  0  0  0  0  0  0  0
   11.5815  -37.6796    3.8572 H   0  0  0  0  0  0  0  0  0  0  0  0
   13.1826  -35.1264    2.1313 H   0  0  0  0  0  0  0  0  0  0  0  0
  1  2  2  0  0  0  0
  1  6  1  0  0  0  0
  1 22  1  0  0  0  0
  2  3  1  0  0  0  0
  2 23  1  0  0  0  0
  3  4  2  0  0  0  0
  3 20  1  0  0  0  0
  4  5  1  0  0  0  0
  4 17  1  0  0  0  0
  5  6  2  0  0  0  0
  5 14  1  0  0  0  0
  6  7  1  0  0  0  0
  7  8  2  0  0  0  0
  7 24  1  0  0  0  0
  8  9  1  0  0  0  0
  8 13  1  0  0  0  0
  9 10  2  0  0  0  0
  9 25  1  0  0  0  0
 10 11  1  0  0  0  0
 10 26  1  0  0  0  0
 11 12  2  0  0  0  0
 11 27  1  0  0  0  0
 12 13  1  0  0  0  0
 12 28  1  0  0  0  0
 13 14  2  0  0  0  0
 14 15  1  0  0  0  0
 15 16  2  0  0  0  0
 15 29  1  0  0  0  0
 16 17  1  0  0  0  0
 16 30  1  0  0  0  0
 17 18  2  0  0  0  0
 18 19  1  0  0  0  0
 18 31  1  0  0  0  0
 19 20  2  0  0  0  0
 19 32  1  0  0  0  0
 20 21  1  0  0  0  0
 21 33  1  0  0  0  0
M  END
$$$$
