8V5
 OpenBabel04161911313D

 35 37  0  0  0  0  0  0  0  0999 V2000
   -5.8455    0.9715   16.5768 S   0  0  0  0  0  0  0  0  0  0  0  0
   -4.9448    2.1497   15.6105 C   0  0  0  0  0  0  0  0  0  0  0  0
   -5.7662    3.4179   14.8222 S   0  0  0  0  0  0  0  0  0  0  0  0
   -4.2972    4.0944   14.2336 C   0  0  0  0  0  0  0  0  0  0  0  0
   -3.2104    3.3281   14.5952 C   0  0  0  0  0  0  0  0  0  0  0  0
   -3.5862    2.2024   15.3748 C   0  0  0  0  0  0  0  0  0  0  0  0
   -4.2692    5.2837   13.4428 C   0  0  0  0  0  0  0  0  0  0  0  0
   -3.2517    6.1838   13.1706 C   0  0  0  0  0  0  0  0  0  0  0  0
   -3.6883    7.1706   12.3244 N   0  0  0  0  0  0  0  0  0  0  0  0
   -4.9467    6.8262   12.0656 C   0  0  0  0  0  0  0  0  0  0  0  0
   -5.3613    5.7114   12.7512 O   0  0  0  0  0  0  0  0  0  0  0  0
   -5.8976    7.4273   11.1488 C   0  0  0  0  0  0  0  0  0  0  0  0
   -7.2516    1.1225   16.2997 O   0  0  0  0  0  0  0  0  0  0  0  0
   -5.2837    1.0726   17.9034 O   0  0  0  0  0  0  0  0  0  0  0  0
   -5.3786   -0.5159   15.9925 N   0  0  0  0  0  0  0  0  0  0  0  0
   -6.9982    6.9410   10.8975 O   0  0  0  0  0  0  0  0  0  0  0  0
   -5.5719    8.6171   10.5095 N   0  0  0  0  0  0  0  0  0  0  0  0
   -5.2901    9.7867   11.2959 C   0  0  0  0  0  0  0  0  0  0  0  0
   -3.8332   10.2327   11.2139 C   0  0  0  0  0  0  0  0  0  0  0  0
   -2.9729    9.2709   10.5992 O   0  0  0  0  0  0  0  0  0  0  0  0
   -3.4246    8.8179    9.3166 C   0  0  0  0  0  0  0  0  0  0  0  0
   -4.9315    8.5623    9.2187 C   0  0  0  0  0  0  0  0  0  0  0  0
   -2.1909    3.5595   14.3177 H   0  0  0  0  0  0  0  0  0  0  0  0
   -2.9050    1.4681   15.7745 H   0  0  0  0  0  0  0  0  0  0  0  0
   -2.2284    6.1783   13.5357 H   0  0  0  0  0  0  0  0  0  0  0  0
   -5.8123   -1.3349   16.4046 H   0  0  0  0  0  0  0  0  0  0  0  0
   -4.7807   -0.5711   15.1761 H   0  0  0  0  0  0  0  0  0  0  0  0
   -5.5904    9.5997   12.3303 H   0  0  0  0  0  0  0  0  0  0  0  0
   -5.9372   10.5781   10.8993 H   0  0  0  0  0  0  0  0  0  0  0  0
   -3.4785   10.4304   12.2331 H   0  0  0  0  0  0  0  0  0  0  0  0
   -3.7612   11.1719   10.6580 H   0  0  0  0  0  0  0  0  0  0  0  0
   -2.8959    7.8863    9.0837 H   0  0  0  0  0  0  0  0  0  0  0  0
   -3.1291    9.5556    8.5641 H   0  0  0  0  0  0  0  0  0  0  0  0
   -5.3896    9.3358    8.5913 H   0  0  0  0  0  0  0  0  0  0  0  0
   -5.1261    7.5929    8.7465 H   0  0  0  0  0  0  0  0  0  0  0  0
  1  2  1  0  0  0  0
  1 13  2  0  0  0  0
  1 14  2  0  0  0  0
  1 15  1  0  0  0  0
  2  3  1  0  0  0  0
  2  6  2  0  0  0  0
  3  4  1  0  0  0  0
  4  5  2  0  0  0  0
  4  7  1  0  0  0  0
  5  6  1  0  0  0  0
  5 23  1  0  0  0  0
  6 24  1  0  0  0  0
  7  8  2  0  0  0  0
  7 11  1  0  0  0  0
  8  9  1  0  0  0  0
  8 25  1  0  0  0  0
  9 10  2  0  0  0  0
 10 11  1  0  0  0  0
 10 12  1  0  0  0  0
 12 16  2  0  0  0  0
 12 17  1  0  0  0  0
 15 26  1  0  0  0  0
 15 27  1  0  0  0  0
 17 18  1  0  0  0  0
 17 22  1  0  0  0  0
 18 19  1  0  0  0  0
 18 28  1  0  0  0  0
 18 29  1  0  0  0  0
 19 20  1  0  0  0  0
 19 30  1  0  0  0  0
 19 31  1  0  0  0  0
 20 21  1  0  0  0  0
 21 22  1  0  0  0  0
 21 32  1  0  0  0  0
 21 33  1  0  0  0  0
 22 34  1  0  0  0  0
 22 35  1  0  0  0  0
M  END
$$$$
