8V8
 OpenBabel04161911313D

 26 27  0  0  0  0  0  0  0  0999 V2000
   -3.3021    3.3084   14.8550 C   0  0  0  0  0  0  0  0  0  0  0  0
   -5.4918    4.2934   14.5948 C   0  0  0  0  0  0  0  0  0  0  0  0
   -6.0599    3.2345   15.3067 C   0  0  0  0  0  0  0  0  0  0  0  0
   -3.8630    2.2433   15.5677 C   0  0  0  0  0  0  0  0  0  0  0  0
   -4.1044    4.3493   14.3628 C   0  0  0  0  0  0  0  0  0  0  0  0
   -3.5372    5.4725   13.6382 C   0  0  0  0  0  0  0  0  0  0  0  0
   -4.0408    6.4647   12.8137 C   0  0  0  0  0  0  0  0  0  0  0  0
   -3.0488    7.3386   12.4559 N   0  0  0  0  0  0  0  0  0  0  0  0
   -1.9927    6.8644   13.0836 C   0  0  0  0  0  0  0  0  0  0  0  0
   -2.1992    5.7289   13.8030 O   0  0  0  0  0  0  0  0  0  0  0  0
   -0.6274    7.4410   13.1315 C   0  0  0  0  0  0  0  0  0  0  0  0
   -5.2432    2.2169   15.7953 C   0  0  0  0  0  0  0  0  0  0  0  0
   -5.9525    0.9295   16.7858 S   0  0  0  0  0  0  0  0  0  0  0  0
   -5.3813    1.0363   18.1166 O   0  0  0  0  0  0  0  0  0  0  0  0
   -7.3722    0.8957   16.5600 O   0  0  0  0  0  0  0  0  0  0  0  0
   -5.3328   -0.4713   16.1273 N   0  0  0  0  0  0  0  0  0  0  0  0
   -2.2294    3.3235   14.6963 H   0  0  0  0  0  0  0  0  0  0  0  0
   -6.1432    5.1003   14.2513 H   0  0  0  0  0  0  0  0  0  0  0  0
   -7.1324    3.2342   15.4990 H   0  0  0  0  0  0  0  0  0  0  0  0
   -3.2217    1.4659   15.9715 H   0  0  0  0  0  0  0  0  0  0  0  0
   -5.0539    6.5851   12.4682 H   0  0  0  0  0  0  0  0  0  0  0  0
   -0.6024    8.4201   12.6424 H   0  0  0  0  0  0  0  0  0  0  0  0
    0.0871    6.7836   12.6275 H   0  0  0  0  0  0  0  0  0  0  0  0
   -0.3088    7.5731   14.1704 H   0  0  0  0  0  0  0  0  0  0  0  0
   -5.7999   -1.3268   16.4244 H   0  0  0  0  0  0  0  0  0  0  0  0
   -4.8617   -0.4468   15.2259 H   0  0  0  0  0  0  0  0  0  0  0  0
  1  4  2  0  0  0  0
  1  5  1  0  0  0  0
  1 17  1  0  0  0  0
  2  3  1  0  0  0  0
  2  5  2  0  0  0  0
  2 18  1  0  0  0  0
  3 12  2  0  0  0  0
  3 19  1  0  0  0  0
  4 12  1  0  0  0  0
  4 20  1  0  0  0  0
  5  6  1  0  0  0  0
  6  7  2  0  0  0  0
  6 10  1  0  0  0  0
  7  8  1  0  0  0  0
  7 21  1  0  0  0  0
  8  9  2  0  0  0  0
  9 10  1  0  0  0  0
  9 11  1  0  0  0  0
 11 22  1  0  0  0  0
 11 23  1  0  0  0  0
 11 24  1  0  0  0  0
 12 13  1  0  0  0  0
 13 14  2  0  0  0  0
 13 15  2  0  0  0  0
 13 16  1  0  0  0  0
 16 25  1  0  0  0  0
 16 26  1  0  0  0  0
M  END
$$$$
