8VE
 OpenBabel04161911323D

 25 26  0  0  1  0  0  0  0  0999 V2000
  -31.2294   84.1596   33.6293 N   0  0  0  0  0  0  0  0  0  0  0  0
  -33.3602   85.0906   31.6622 N   0  3  0  0  0  0  0  0  0  0  0  0
  -31.2247   86.0550   32.1935 C   0  0  1  0  0  0  0  0  0  0  0  0
  -32.5415   86.3991   31.5114 C   0  0  1  0  0  0  0  0  0  0  0  0
  -30.3522   83.0602   34.0347 C   0  0  0  0  0  0  0  0  0  0  0  0
  -31.0898   87.6709   34.3151 C   0  0  0  0  0  0  0  0  0  0  0  0
  -32.3935   86.7609   29.9856 C   0  0  0  0  0  0  0  0  0  0  0  0
  -31.1795   86.3104   33.6807 C   0  0  0  0  0  0  0  0  0  0  0  0
  -31.1867   85.2423   34.4337 N   0  0  0  0  0  0  0  0  0  0  0  0
  -32.3440   84.0203   31.4537 C   0  0  0  0  0  0  0  0  0  0  0  0
  -31.1174   84.5217   32.2052 C   0  0  2  0  0  0  0  0  0  0  0  0
  -31.3144   87.7638   35.5608 O   0  0  0  0  0  0  0  0  0  0  0  0
  -33.1319   86.0472   29.2528 O   0  0  0  0  0  0  0  0  0  0  0  0
  -30.8463   88.6202   33.5083 O   0  0  0  0  0  0  0  0  0  0  0  0
  -31.5418   87.6308   29.6872 O   0  0  0  0  0  0  0  0  0  0  0  0
  -33.7721   85.0577   32.5917 H   0  0  0  0  0  0  0  0  0  0  0  0
  -30.3636   86.5325   31.7147 H   0  0  0  0  0  0  0  0  0  0  0  0
  -33.1011   87.1894   32.0162 H   0  0  0  0  0  0  0  0  0  0  0  0
  -30.4745   82.1860   33.3875 H   0  0  0  0  0  0  0  0  0  0  0  0
  -30.5806   82.7376   35.0582 H   0  0  0  0  0  0  0  0  0  0  0  0
  -29.3029   83.3705   34.0105 H   0  0  0  0  0  0  0  0  0  0  0  0
  -32.1487   83.9124   30.3800 H   0  0  0  0  0  0  0  0  0  0  0  0
  -32.7587   83.0851   31.8395 H   0  0  0  0  0  0  0  0  0  0  0  0
  -30.1883   84.1707   31.7526 H   0  0  0  0  0  0  0  0  0  0  0  0
  -34.0510   85.1065   30.8885 H   0  0  0  0  0  0  0  0  0  0  0  0
  1  5  1  0  0  0  0
  1  9  1  0  0  0  0
  1 11  1  0  0  0  0
  2  4  1  0  0  0  0
  2 10  1  0  0  0  0
  2 16  1  0  0  0  0
  2 25  1  0  0  0  0
  3  4  1  0  0  0  0
  3  8  1  0  0  0  0
  3 11  1  0  0  0  0
  3 17  1  6  0  0  0
  4  7  1  0  0  0  0
  4 18  1  1  0  0  0
  5 19  1  0  0  0  0
  5 20  1  0  0  0  0
  5 21  1  0  0  0  0
  6  8  1  0  0  0  0
  6 12  2  0  0  0  0
  6 14  1  0  0  0  0
  7 13  2  0  0  0  0
  7 15  1  0  0  0  0
  8  9  2  0  0  0  0
 10 11  1  0  0  0  0
 10 22  1  0  0  0  0
 10 23  1  0  0  0  0
 11 24  1  6  0  0  0
M  CHG  1   2   1
M  END
$$$$
