8W4
 OpenBabel04161912073D

 91 96  0  0  1  0  0  0  0  0999 V2000
   -3.6532  -15.4024   30.9450 C   0  0  0  0  0  0  0  0  0  0  0  0
   -2.2996  -13.3973   30.9500 C   0  0  0  0  0  0  0  0  0  0  0  0
   -2.7719  -21.9889   36.9675 C   0  0  0  0  0  0  0  0  0  0  0  0
   -2.6485  -22.4520   35.5305 C   0  0  0  0  0  0  0  0  0  0  0  0
   -2.5658  -20.1403   34.6832 C   0  0  2  0  0  0  0  0  0  0  0  0
    0.1176  -14.7884   28.1640 C   0  0  0  0  0  0  0  0  0  0  0  0
   -0.9931  -15.5598   27.4971 C   0  0  0  0  0  0  0  0  0  0  0  0
   -0.5562  -17.8738   32.8412 C   0  0  0  0  0  0  0  0  0  0  0  0
    0.3819  -17.7061   31.7390 C   0  0  1  0  0  0  0  0  0  0  0  0
    1.1106  -16.5251   29.7839 C   0  0  2  0  0  0  0  0  0  0  0  0
    2.3582  -17.1499   29.8765 C   0  0  2  0  0  0  0  0  0  0  0  0
   -3.4074  -15.6144   32.3069 C   0  0  0  0  0  0  0  0  0  0  0  0
   -3.9741  -16.8299   33.0118 C   0  0  0  0  0  0  0  0  0  0  0  0
   -2.9002  -17.8090   33.5453 C   0  0  1  0  0  0  0  0  0  0  0  0
   -2.0416  -13.6009   32.3048 C   0  0  0  0  0  0  0  0  0  0  0  0
   -3.4856  -19.1866   33.9084 C   0  0  2  0  0  0  0  0  0  0  0  0
    3.2821  -19.8296   28.6822 O   0  0  0  0  0  0  0  0  0  0  0  0
    4.3835  -19.4907   29.4962 S   0  0  0  0  0  0  0  0  0  0  0  0
    5.2852  -18.1839   28.6571 C   0  0  0  0  0  0  0  0  0  0  0  0
    5.6619  -18.5999   27.2455 C   0  0  0  0  0  0  0  0  0  0  0  0
    6.6219  -17.8613   29.3252 C   0  0  0  0  0  0  0  0  0  0  0  0
    4.5051  -16.8812   28.5102 C   0  0  0  0  0  0  0  0  0  0  0  0
    3.1175  -16.6890   28.8163 N   0  3  2  0  0  0  0  0  0  0  0  0
    2.4007  -15.7815   28.0894 C   0  0  0  0  0  0  0  0  0  0  0  0
    1.1665  -15.6750   28.6611 C   0  0  2  0  0  0  0  0  0  0  0  0
    0.1036  -16.7945   30.7276 C   0  0  0  0  0  0  0  0  0  0  0  0
   -1.8824  -17.9707   32.5230 N   0  0  0  0  0  0  0  0  0  0  0  0
   -3.1133  -14.3004   30.2749 C   0  0  0  0  0  0  0  0  0  0  0  0
   -2.6006  -14.6950   32.9809 C   0  0  0  0  0  0  0  0  0  0  0  0
   -4.6721  -19.0886   34.6992 O   0  0  0  0  0  0  0  0  0  0  0  0
   -3.3265  -21.4650   34.6749 N   0  3  0  0  0  0  0  0  0  0  0  0
   -2.4010  -20.5801   37.1542 N   0  0  0  0  0  0  0  0  0  0  0  0
   -2.2267  -20.1069   38.5296 C   0  0  0  0  0  0  0  0  0  0  0  0
   -3.5448  -20.0651   39.2437 C   0  0  0  0  0  0  0  0  0  0  0  0
   -4.4668  -19.0595   38.9519 C   0  0  0  0  0  0  0  0  0  0  0  0
   -5.7063  -19.0359   39.5823 C   0  0  0  0  0  0  0  0  0  0  0  0
   -6.0624  -20.0435   40.4695 C   0  0  0  0  0  0  0  0  0  0  0  0
   -5.1578  -21.0620   40.7468 C   0  0  0  0  0  0  0  0  0  0  0  0
   -3.8989  -21.0655   40.1498 C   0  0  0  0  0  0  0  0  0  0  0  0
   -2.3185  -19.6440   36.1231 C   0  0  0  0  0  0  0  0  0  0  0  0
   -2.0230  -18.4726   36.3400 O   0  0  0  0  0  0  0  0  0  0  0  0
   -0.1222  -17.9417   33.9878 O   0  0  0  0  0  0  0  0  0  0  0  0
    1.6210  -18.3328   31.8422 C   0  0  0  0  0  0  0  0  0  0  0  0
    2.6220  -18.0680   30.9013 C   0  0  1  0  0  0  0  0  0  0  0  0
    3.8521  -18.7709   30.9211 N   0  0  0  0  0  0  0  0  0  0  0  0
    4.5741  -19.0072   32.1685 C   0  0  0  0  0  0  0  0  0  0  0  0
    5.3626  -20.5008   29.8734 O   0  0  0  0  0  0  0  0  0  0  0  0
   -4.2719  -16.0955   30.3840 H   0  0  0  0  0  0  0  0  0  0  0  0
   -1.8746  -12.5453   30.4181 H   0  0  0  0  0  0  0  0  0  0  0  0
   -2.0963  -22.5961   37.5728 H   0  0  0  0  0  0  0  0  0  0  0  0
   -3.8030  -22.1533   37.3074 H   0  0  0  0  0  0  0  0  0  0  0  0
   -3.1364  -23.4113   35.3612 H   0  0  0  0  0  0  0  0  0  0  0  0
   -1.6014  -22.4870   35.2138 H   0  0  0  0  0  0  0  0  0  0  0  0
   -1.6177  -20.3392   34.1778 H   0  0  0  0  0  0  0  0  0  0  0  0
   -0.2614  -14.2268   29.0172 H   0  0  0  0  0  0  0  0  0  0  0  0
    0.5688  -14.0967   27.4455 H   0  0  0  0  0  0  0  0  0  0  0  0
   -1.7485  -14.8509   27.1549 H   0  0  0  0  0  0  0  0  0  0  0  0
   -1.4555  -16.2631   28.1977 H   0  0  0  0  0  0  0  0  0  0  0  0
   -0.6171  -16.1286   26.6394 H   0  0  0  0  0  0  0  0  0  0  0  0
   -4.6217  -17.3667   32.3036 H   0  0  0  0  0  0  0  0  0  0  0  0
   -4.6054  -16.4920   33.8414 H   0  0  0  0  0  0  0  0  0  0  0  0
   -2.4618  -17.3690   34.4436 H   0  0  0  0  0  0  0  0  0  0  0  0
   -1.4067  -12.9030   32.8447 H   0  0  0  0  0  0  0  0  0  0  0  0
   -3.7743  -19.7040   32.9792 H   0  0  0  0  0  0  0  0  0  0  0  0
    6.1888  -17.7760   26.7348 H   0  0  0  0  0  0  0  0  0  0  0  0
    4.7736  -18.8425   26.6554 H   0  0  0  0  0  0  0  0  0  0  0  0
    6.3381  -19.4618   27.2561 H   0  0  0  0  0  0  0  0  0  0  0  0
    7.1326  -17.0658   28.7629 H   0  0  0  0  0  0  0  0  0  0  0  0
    7.2666  -18.7460   29.3145 H   0  0  0  0  0  0  0  0  0  0  0  0
    6.4805  -17.5231   30.3492 H   0  0  0  0  0  0  0  0  0  0  0  0
    4.5894  -16.6129   27.4451 H   0  0  0  0  0  0  0  0  0  0  0  0
    5.0414  -16.1072   29.0661 H   0  0  0  0  0  0  0  0  0  0  0  0
    2.7906  -15.2499   27.2255 H   0  0  0  0  0  0  0  0  0  0  0  0
   -0.8361  -16.2541   30.7113 H   0  0  0  0  0  0  0  0  0  0  0  0
   -2.1629  -17.8624   31.5549 H   0  0  0  0  0  0  0  0  0  0  0  0
   -3.3309  -14.1532   29.2213 H   0  0  0  0  0  0  0  0  0  0  0  0
   -2.3994  -14.8328   34.0401 H   0  0  0  0  0  0  0  0  0  0  0  0
   -5.2975  -18.5152   34.2263 H   0  0  0  0  0  0  0  0  0  0  0  0
   -3.4145  -21.7921   33.7105 H   0  0  0  0  0  0  0  0  0  0  0  0
   -1.7732  -19.1085   38.5539 H   0  0  0  0  0  0  0  0  0  0  0  0
   -1.5348  -20.7857   39.0399 H   0  0  0  0  0  0  0  0  0  0  0  0
   -4.2234  -18.2907   38.2243 H   0  0  0  0  0  0  0  0  0  0  0  0
   -6.3957  -18.2258   39.3805 H   0  0  0  0  0  0  0  0  0  0  0  0
   -7.0411  -20.0271   40.9412 H   0  0  0  0  0  0  0  0  0  0  0  0
   -5.4298  -21.8529   41.4361 H   0  0  0  0  0  0  0  0  0  0  0  0
   -3.2010  -21.8620   40.3862 H   0  0  0  0  0  0  0  0  0  0  0  0
    1.7867  -19.0200   32.6732 H   0  0  0  0  0  0  0  0  0  0  0  0
    4.1136  -18.5147   33.0345 H   0  0  0  0  0  0  0  0  0  0  0  0
    5.5909  -18.6219   32.0691 H   0  0  0  0  0  0  0  0  0  0  0  0
    4.6121  -20.0821   32.3705 H   0  0  0  0  0  0  0  0  0  0  0  0
   -4.2741  -21.2490   35.0368 H   0  0  0  0  0  0  0  0  0  0  0  0
  1 12  2  0  0  0  0
  1 28  1  0  0  0  0
  1 48  1  0  0  0  0
  2 15  1  0  0  0  0
  2 28  2  0  0  0  0
  2 49  1  0  0  0  0
  3  4  1  0  0  0  0
  3 32  1  0  0  0  0
  3 50  1  0  0  0  0
  3 51  1  0  0  0  0
  4 31  1  0  0  0  0
  4 52  1  0  0  0  0
  4 53  1  0  0  0  0
  5 16  1  0  0  0  0
  5 31  1  0  0  0  0
  5 40  1  0  0  0  0
  5 54  1  6  0  0  0
  6  7  1  0  0  0  0
  6 55  1  0  0  0  0
  6 56  1  0  0  0  0
  7 57  1  0  0  0  0
  7 58  1  0  0  0  0
  7 59  1  0  0  0  0
  8 27  1  0  0  0  0
  8 42  2  0  0  0  0
  9  8  1  1  0  0  0
  9 26  1  0  0  0  0
  9 43  1  0  0  0  0
 10 25  1  0  0  0  0
 10 26  1  1  0  0  0
 11 10  1  6  0  0  0
 11 23  1  0  0  0  0
 11 44  1  0  0  0  0
 12 13  1  0  0  0  0
 12 29  1  0  0  0  0
 13 14  1  0  0  0  0
 13 60  1  0  0  0  0
 13 61  1  0  0  0  0
 14 16  1  0  0  0  0
 14 27  1  0  0  0  0
 14 62  1  1  0  0  0
 15 29  2  0  0  0  0
 15 63  1  0  0  0  0
 16 30  1  0  0  0  0
 16 64  1  6  0  0  0
 17 18  2  0  0  0  0
 18 19  1  0  0  0  0
 18 45  1  0  0  0  0
 18 47  2  0  0  0  0
 19 20  1  0  0  0  0
 19 21  1  0  0  0  0
 19 22  1  0  0  0  0
 20 65  1  0  0  0  0
 20 66  1  0  0  0  0
 20 67  1  0  0  0  0
 21 68  1  0  0  0  0
 21 69  1  0  0  0  0
 21 70  1  0  0  0  0
 22 71  1  0  0  0  0
 22 72  1  0  0  0  0
 23 22  1  1  0  0  0
 23 24  1  0  0  0  0
 24 25  1  0  0  0  0
 24 73  1  0  0  0  0
 25  6  1  1  0  0  0
 26 74  1  0  0  0  0
 27 75  1  0  0  0  0
 28 76  1  0  0  0  0
 29 77  1  0  0  0  0
 30 78  1  0  0  0  0
 31 79  1  0  0  0  0
 31 91  1  0  0  0  0
 32 33  1  0  0  0  0
 32 40  1  0  0  0  0
 33 34  1  0  0  0  0
 33 80  1  0  0  0  0
 33 81  1  0  0  0  0
 34 35  1  0  0  0  0
 34 39  1  0  0  0  0
 35 36  1  0  0  0  0
 35 82  1  0  0  0  0
 36 37  1  0  0  0  0
 36 83  1  0  0  0  0
 37 38  1  0  0  0  0
 37 84  1  0  0  0  0
 38 39  1  0  0  0  0
 38 85  1  0  0  0  0
 39 86  1  0  0  0  0
 40 41  2  0  0  0  0
 43 87  1  0  0  0  0
 44 43  1  6  0  0  0
 44 45  1  0  0  0  0
 45 46  1  0  0  0  0
 46 88  1  0  0  0  0
 46 89  1  0  0  0  0
 46 90  1  0  0  0  0
M  CHG  2  23   1  31   1
M  END
$$$$
