8X7
 OpenBabel04161912103D

 70 74  0  0  1  0  0  0  0  0999 V2000
   -9.1668    9.2507    3.4439 C   0  0  0  0  0  0  0  0  0  0  0  0
   -9.3946    8.0596    2.5669 N   0  3  2  0  0  0  0  0  0  0  0  0
  -10.8693    7.8876    2.2001 C   0  0  0  0  0  0  0  0  0  0  0  0
  -11.0394    6.6915    1.2420 C   0  0  0  0  0  0  0  0  0  0  0  0
  -10.4939    5.4772    1.8762 N   0  0  0  0  0  0  0  0  0  0  0  0
   -9.0630    5.5751    2.2209 C   0  0  0  0  0  0  0  0  0  0  0  0
   -8.8332    6.7728    3.1710 C   0  0  0  0  0  0  0  0  0  0  0  0
  -11.1877    4.2768    1.8828 C   0  0  0  0  0  0  0  0  0  0  0  0
  -12.5807    4.2135    1.7370 C   0  0  0  0  0  0  0  0  0  0  0  0
  -13.2918    3.0003    1.7691 C   0  0  0  0  0  0  0  0  0  0  0  0
  -12.6565    1.7752    1.9511 C   0  0  0  0  0  0  0  0  0  0  0  0
  -13.3002    0.5437    2.0597 N   0  0  0  0  0  0  0  0  0  0  0  0
  -14.6381    0.2095    2.2495 C   0  0  0  0  0  0  0  0  0  0  0  0
  -14.9498   -1.1102    2.2300 N   0  0  0  0  0  0  0  0  0  0  0  0
  -16.2491   -1.4589    2.4013 C   0  0  0  0  0  0  0  0  0  0  0  0
  -17.1987   -0.5091    2.5934 C   0  0  0  0  0  0  0  0  0  0  0  0
  -18.6423   -0.5225    2.7156 C   0  0  0  0  0  0  0  0  0  0  0  0
  -19.3001   -1.5438    2.7578 O   0  0  0  0  0  0  0  0  0  0  0  0
  -19.0416    0.8114    2.7838 N   0  3  0  0  0  0  0  0  0  0  0  0
  -20.3886    1.2149    3.1232 C   0  0  0  0  0  0  0  0  0  0  0  0
  -20.7236    0.8061    4.5257 C   0  0  0  0  0  0  0  0  0  0  0  0
  -21.7647    0.0159    4.8242 C   0  0  0  0  0  0  0  0  0  0  0  0
  -17.8969    1.6417    2.9700 N   0  3  0  0  0  0  0  0  0  0  0  0
  -16.7964    0.7922    2.6811 C   0  0  0  0  0  0  0  0  0  0  0  0
  -15.5293    1.1721    2.4926 N   0  0  0  0  0  0  0  0  0  0  0  0
  -17.9156    3.0438    2.7980 C   0  0  0  0  0  0  0  0  0  0  0  0
  -18.9684    3.6531    2.2250 N   0  0  0  0  0  0  0  0  0  0  0  0
  -18.9944    5.0016    2.0894 C   0  0  0  0  0  0  0  0  0  0  0  0
  -17.9609    5.8015    2.5673 C   0  0  0  0  0  0  0  0  0  0  0  0
  -16.8668    5.1902    3.1608 C   0  0  0  0  0  0  0  0  0  0  0  0
  -16.8433    3.8049    3.2682 C   0  0  0  0  0  0  0  0  0  0  0  0
  -20.2420    5.5675    1.4202 C   0  0  0  0  0  0  0  0  0  0  0  0
  -21.4099    5.5746    2.4139 C   0  0  0  0  0  0  0  0  0  0  0  0
  -20.6146    4.7132    0.1995 C   0  0  0  0  0  0  0  0  0  0  0  0
  -20.0230    6.9022    0.9463 O   0  0  0  0  0  0  0  0  0  0  0  0
  -11.2659    1.8239    2.1203 C   0  0  0  0  0  0  0  0  0  0  0  0
  -10.5606    3.0362    2.0807 C   0  0  0  0  0  0  0  0  0  0  0  0
   -9.5930   10.1236    2.9430 H   0  0  0  0  0  0  0  0  0  0  0  0
   -8.0881    9.3806    3.5619 H   0  0  0  0  0  0  0  0  0  0  0  0
   -9.6510    9.0790    4.4088 H   0  0  0  0  0  0  0  0  0  0  0  0
  -11.1939    8.8167    1.7235 H   0  0  0  0  0  0  0  0  0  0  0  0
  -11.4191    7.7319    3.1361 H   0  0  0  0  0  0  0  0  0  0  0  0
  -10.4835    6.8838    0.3146 H   0  0  0  0  0  0  0  0  0  0  0  0
  -12.0901    6.6259    0.9539 H   0  0  0  0  0  0  0  0  0  0  0  0
   -8.4824    5.7137    1.2996 H   0  0  0  0  0  0  0  0  0  0  0  0
   -8.6666    4.6932    2.7279 H   0  0  0  0  0  0  0  0  0  0  0  0
   -9.3429    6.6159    4.1288 H   0  0  0  0  0  0  0  0  0  0  0  0
   -7.7639    6.9335    3.3398 H   0  0  0  0  0  0  0  0  0  0  0  0
  -13.1899    5.1041    1.6139 H   0  0  0  0  0  0  0  0  0  0  0  0
  -14.3687    3.0494    1.6284 H   0  0  0  0  0  0  0  0  0  0  0  0
  -12.7435   -0.2905    1.9618 H   0  0  0  0  0  0  0  0  0  0  0  0
  -16.4812   -2.5155    2.3747 H   0  0  0  0  0  0  0  0  0  0  0  0
  -21.0565    0.7309    2.4018 H   0  0  0  0  0  0  0  0  0  0  0  0
  -20.5466    2.2869    3.0288 H   0  0  0  0  0  0  0  0  0  0  0  0
  -20.0840    1.1754    5.3218 H   0  0  0  0  0  0  0  0  0  0  0  0
  -21.9753   -0.2757    5.8461 H   0  0  0  0  0  0  0  0  0  0  0  0
  -22.4194   -0.3708    4.0468 H   0  0  0  0  0  0  0  0  0  0  0  0
  -17.9859    6.8815    2.4831 H   0  0  0  0  0  0  0  0  0  0  0  0
  -16.0403    5.7789    3.5452 H   0  0  0  0  0  0  0  0  0  0  0  0
  -15.9925    3.3239    3.7414 H   0  0  0  0  0  0  0  0  0  0  0  0
  -22.3098    5.9961    1.9517 H   0  0  0  0  0  0  0  0  0  0  0  0
  -21.1834    6.1991    3.2869 H   0  0  0  0  0  0  0  0  0  0  0  0
  -21.6475    4.5684    2.7733 H   0  0  0  0  0  0  0  0  0  0  0  0
  -19.7920    4.6859   -0.5249 H   0  0  0  0  0  0  0  0  0  0  0  0
  -21.4839    5.1289   -0.3210 H   0  0  0  0  0  0  0  0  0  0  0  0
  -20.8527    3.6789    0.4765 H   0  0  0  0  0  0  0  0  0  0  0  0
  -19.9403    7.4775    1.7237 H   0  0  0  0  0  0  0  0  0  0  0  0
  -10.7109    0.9050    2.2992 H   0  0  0  0  0  0  0  0  0  0  0  0
   -9.4856    2.9509    2.2035 H   0  0  0  0  0  0  0  0  0  0  0  0
   -8.8868    8.2209    1.6883 H   0  0  0  0  0  0  0  0  0  0  0  0
  1  2  1  0  0  0  0
  1 38  1  0  0  0  0
  1 39  1  0  0  0  0
  1 40  1  0  0  0  0
  2  3  1  0  0  0  0
  2  7  1  0  0  0  0
  2 70  1  6  0  0  0
  3  4  1  0  0  0  0
  3 41  1  0  0  0  0
  3 42  1  0  0  0  0
  4  5  1  0  0  0  0
  4 43  1  0  0  0  0
  4 44  1  0  0  0  0
  5  6  1  0  0  0  0
  5  8  1  0  0  0  0
  6  7  1  0  0  0  0
  6 45  1  0  0  0  0
  6 46  1  0  0  0  0
  7 47  1  0  0  0  0
  7 48  1  0  0  0  0
  8  9  2  0  0  0  0
  8 37  1  0  0  0  0
  9 10  1  0  0  0  0
  9 49  1  0  0  0  0
 10 11  2  0  0  0  0
 10 50  1  0  0  0  0
 11 12  1  0  0  0  0
 11 36  1  0  0  0  0
 12 13  1  0  0  0  0
 12 51  1  0  0  0  0
 13 14  1  0  0  0  0
 13 25  2  0  0  0  0
 14 15  1  0  0  0  0
 15 16  2  0  0  0  0
 15 52  1  0  0  0  0
 16 17  1  0  0  0  0
 16 24  1  0  0  0  0
 17 18  2  0  0  0  0
 17 19  1  0  0  0  0
 19 20  1  0  0  0  0
 19 23  1  0  0  0  0
 20 21  1  0  0  0  0
 20 53  1  0  0  0  0
 20 54  1  0  0  0  0
 21 22  2  0  0  0  0
 21 55  1  0  0  0  0
 22 56  1  0  0  0  0
 22 57  1  0  0  0  0
 23 24  2  0  0  0  0
 23 26  1  0  0  0  0
 24 25  1  0  0  0  0
 26 27  2  0  0  0  0
 26 31  1  0  0  0  0
 27 28  1  0  0  0  0
 28 29  2  0  0  0  0
 28 32  1  0  0  0  0
 29 30  1  0  0  0  0
 29 58  1  0  0  0  0
 30 31  2  0  0  0  0
 30 59  1  0  0  0  0
 31 60  1  0  0  0  0
 32 33  1  0  0  0  0
 32 34  1  0  0  0  0
 32 35  1  0  0  0  0
 33 61  1  0  0  0  0
 33 62  1  0  0  0  0
 33 63  1  0  0  0  0
 34 64  1  0  0  0  0
 34 65  1  0  0  0  0
 34 66  1  0  0  0  0
 35 67  1  0  0  0  0
 36 37  2  0  0  0  0
 36 68  1  0  0  0  0
 37 69  1  0  0  0  0
M  CHG  3   2   1  19   1  23   1
M  END
$$$$
