8ZH
 OpenBabel04161911323D

 57 60  0  0  0  0  0  0  0  0999 V2000
  -92.9821  -15.9895   40.8727 C   0  0  0  0  0  0  0  0  0  0  0  0
  -91.7368  -15.3505   40.2739 C   0  0  0  0  0  0  0  0  0  0  0  0
  -90.5184  -16.1794   40.5821 N   0  3  0  0  0  0  0  0  0  0  0  0
  -90.7527  -17.6489   40.4634 C   0  0  0  0  0  0  0  0  0  0  0  0
  -91.7657  -18.0928   41.5086 C   0  0  0  0  0  0  0  0  0  0  0  0
  -92.5824  -16.9056   42.0215 C   0  0  0  0  0  0  0  0  0  0  0  0
  -93.6870  -17.2967   42.8341 N   0  0  0  0  0  0  0  0  0  0  0  0
  -94.7476  -18.0539   42.3722 C   0  0  0  0  0  0  0  0  0  0  0  0
  -94.8579  -18.4511   41.2300 O   0  0  0  0  0  0  0  0  0  0  0  0
  -95.7651  -18.2578   43.4194 C   0  0  0  0  0  0  0  0  0  0  0  0
  -97.1075  -18.2521   43.0506 C   0  0  0  0  0  0  0  0  0  0  0  0
  -95.3779  -18.3598   44.7638 C   0  0  0  0  0  0  0  0  0  0  0  0
  -96.3416  -18.3870   45.7482 C   0  0  0  0  0  0  0  0  0  0  0  0
  -97.6785  -18.3369   45.3828 C   0  0  0  0  0  0  0  0  0  0  0  0
  -98.0890  -18.2823   44.0355 C   0  0  0  0  0  0  0  0  0  0  0  0
  -99.4315  -18.3279   43.6295 N   0  0  0  0  0  0  0  0  0  0  0  0
 -100.5033  -18.8697   44.2414 C   0  0  0  0  0  0  0  0  0  0  0  0
 -100.4450  -19.8176   45.6768 S   0  0  0  0  0  0  0  0  0  0  0  0
 -101.7067  -18.7650   43.7206 N   0  0  0  0  0  0  0  0  0  0  0  0
 -102.6349  -19.3757   44.5372 C   0  0  0  0  0  0  0  0  0  0  0  0
 -102.1314  -19.9558   45.6798 C   0  0  0  0  0  0  0  0  0  0  0  0
 -102.7686  -20.5992   46.7989 C   0  0  0  0  0  0  0  0  0  0  0  0
 -102.1889  -20.8781   47.8398 O   0  0  0  0  0  0  0  0  0  0  0  0
 -104.1160  -20.8432   46.5937 N   0  0  0  0  0  0  0  0  0  0  0  0
 -104.8491  -21.4830   47.6008 C   0  0  0  0  0  0  0  0  0  0  0  0
 -105.0727  -22.8670   47.5608 C   0  0  0  0  0  0  0  0  0  0  0  0
 -104.4478  -23.8505   46.2830 Cl  0  0  0  0  0  0  0  0  0  0  0  0
 -105.7681  -23.4813   48.5970 C   0  0  0  0  0  0  0  0  0  0  0  0
 -106.2569  -22.7070   49.6549 C   0  0  0  0  0  0  0  0  0  0  0  0
 -106.0397  -21.3287   49.6810 C   0  0  0  0  0  0  0  0  0  0  0  0
 -105.3249  -20.6957   48.6591 C   0  0  0  0  0  0  0  0  0  0  0  0
 -105.1112  -19.2094   48.7308 C   0  0  0  0  0  0  0  0  0  0  0  0
  -93.5049  -16.5604   40.0957 H   0  0  0  0  0  0  0  0  0  0  0  0
  -93.6841  -15.2158   41.1986 H   0  0  0  0  0  0  0  0  0  0  0  0
  -91.5539  -14.3638   40.7044 H   0  0  0  0  0  0  0  0  0  0  0  0
  -91.8116  -15.2685   39.1867 H   0  0  0  0  0  0  0  0  0  0  0  0
  -89.7515  -15.8971   39.9501 H   0  0  0  0  0  0  0  0  0  0  0  0
  -89.7908  -18.1505   40.6026 H   0  0  0  0  0  0  0  0  0  0  0  0
  -91.1130  -17.8334   39.4455 H   0  0  0  0  0  0  0  0  0  0  0  0
  -91.2650  -18.5828   42.3529 H   0  0  0  0  0  0  0  0  0  0  0  0
  -92.4021  -18.8674   41.0633 H   0  0  0  0  0  0  0  0  0  0  0  0
  -91.9561  -16.3345   42.7188 H   0  0  0  0  0  0  0  0  0  0  0  0
  -93.7979  -16.8282   43.7271 H   0  0  0  0  0  0  0  0  0  0  0  0
  -97.3757  -18.1985   41.9937 H   0  0  0  0  0  0  0  0  0  0  0  0
  -94.3332  -18.4029   45.0557 H   0  0  0  0  0  0  0  0  0  0  0  0
  -96.0638  -18.4440   46.7983 H   0  0  0  0  0  0  0  0  0  0  0  0
  -98.3941  -18.3044   46.1937 H   0  0  0  0  0  0  0  0  0  0  0  0
  -99.6131  -17.9843   42.6921 H   0  0  0  0  0  0  0  0  0  0  0  0
 -103.6793  -19.3360   44.2482 H   0  0  0  0  0  0  0  0  0  0  0  0
 -104.4850  -20.8846   45.6545 H   0  0  0  0  0  0  0  0  0  0  0  0
 -105.9224  -24.5552   48.6017 H   0  0  0  0  0  0  0  0  0  0  0  0
 -106.7999  -23.1831   50.4660 H   0  0  0  0  0  0  0  0  0  0  0  0
 -106.4246  -20.7434   50.5148 H   0  0  0  0  0  0  0  0  0  0  0  0
 -104.5509  -18.8068   47.8812 H   0  0  0  0  0  0  0  0  0  0  0  0
 -104.5507  -18.9534   49.6351 H   0  0  0  0  0  0  0  0  0  0  0  0
 -106.0767  -18.6936   48.7389 H   0  0  0  0  0  0  0  0  0  0  0  0
  -90.1699  -15.9590   41.5281 H   0  0  0  0  0  0  0  0  0  0  0  0
  1  2  1  0  0  0  0
  1  6  1  0  0  0  0
  1 33  1  0  0  0  0
  1 34  1  0  0  0  0
  2  3  1  0  0  0  0
  2 35  1  0  0  0  0
  2 36  1  0  0  0  0
  3  4  1  0  0  0  0
  3 37  1  0  0  0  0
  3 57  1  0  0  0  0
  4  5  1  0  0  0  0
  4 38  1  0  0  0  0
  4 39  1  0  0  0  0
  5  6  1  0  0  0  0
  5 40  1  0  0  0  0
  5 41  1  0  0  0  0
  6  7  1  0  0  0  0
  6 42  1  0  0  0  0
  7  8  1  0  0  0  0
  7 43  1  0  0  0  0
  8  9  2  0  0  0  0
  8 10  1  0  0  0  0
 10 11  2  0  0  0  0
 10 12  1  0  0  0  0
 11 15  1  0  0  0  0
 11 44  1  0  0  0  0
 12 13  2  0  0  0  0
 12 45  1  0  0  0  0
 13 14  1  0  0  0  0
 13 46  1  0  0  0  0
 14 15  2  0  0  0  0
 14 47  1  0  0  0  0
 15 16  1  0  0  0  0
 16 17  1  0  0  0  0
 16 48  1  0  0  0  0
 17 18  1  0  0  0  0
 17 19  2  0  0  0  0
 18 21  1  0  0  0  0
 19 20  1  0  0  0  0
 20 21  2  0  0  0  0
 20 49  1  0  0  0  0
 21 22  1  0  0  0  0
 22 23  2  0  0  0  0
 22 24  1  0  0  0  0
 24 25  1  0  0  0  0
 24 50  1  0  0  0  0
 25 26  2  0  0  0  0
 25 31  1  0  0  0  0
 26 27  1  0  0  0  0
 26 28  1  0  0  0  0
 28 29  2  0  0  0  0
 28 51  1  0  0  0  0
 29 30  1  0  0  0  0
 29 52  1  0  0  0  0
 30 31  2  0  0  0  0
 30 53  1  0  0  0  0
 31 32  1  0  0  0  0
 32 54  1  0  0  0  0
 32 55  1  0  0  0  0
 32 56  1  0  0  0  0
M  CHG  1   3   1
M  END
$$$$
