8ZK
 OpenBabel04161911363D

 63 66  0  0  0  0  0  0  0  0999 V2000
  -80.3019  -13.1433    1.6898 C   0  0  0  0  0  0  0  0  0  0  0  0
  -78.9735  -13.1857    2.4531 C   0  0  0  0  0  0  0  0  0  0  0  0
  -78.9152  -11.9944    3.3378 N   0  3  0  0  0  0  0  0  0  0  0  0
  -80.0052  -12.0224    4.3601 C   0  0  0  0  0  0  0  0  0  0  0  0
  -81.3609  -12.1022    3.6811 C   0  0  0  0  0  0  0  0  0  0  0  0
  -81.4440  -13.2602    2.6948 C   0  0  0  0  0  0  0  0  0  0  0  0
  -81.2026  -14.5580    3.2845 N   0  0  0  0  0  0  0  0  0  0  0  0
  -81.7198  -15.3070    4.2604 C   0  0  0  0  0  0  0  0  0  0  0  0
  -81.1468  -16.3765    4.5404 O   0  0  0  0  0  0  0  0  0  0  0  0
  -82.8032  -14.8496    5.0871 C   0  0  0  0  0  0  0  0  0  0  0  0
  -84.1081  -14.8157    4.6373 C   0  0  0  0  0  0  0  0  0  0  0  0
  -82.4714  -14.6082    6.4080 C   0  0  0  0  0  0  0  0  0  0  0  0
  -83.4721  -14.3295    7.3145 C   0  0  0  0  0  0  0  0  0  0  0  0
  -83.1027  -14.0238    8.7213 C   0  0  0  0  0  0  0  0  0  0  0  0
  -83.9955  -14.7130    9.7232 C   0  0  0  0  0  0  0  0  0  0  0  0
  -84.7844  -14.2782    6.8784 C   0  0  0  0  0  0  0  0  0  0  0  0
  -85.1124  -14.5268    5.5503 C   0  0  0  0  0  0  0  0  0  0  0  0
  -86.4298  -14.5801    5.1242 N   0  0  0  0  0  0  0  0  0  0  0  0
  -87.4842  -15.0996    5.7781 C   0  0  0  0  0  0  0  0  0  0  0  0
  -87.4378  -15.9428    7.2854 S   0  0  0  0  0  0  0  0  0  0  0  0
  -88.6798  -15.0101    5.2455 N   0  0  0  0  0  0  0  0  0  0  0  0
  -89.6081  -15.6028    6.0725 C   0  0  0  0  0  0  0  0  0  0  0  0
  -89.1376  -16.1376    7.2338 C   0  0  0  0  0  0  0  0  0  0  0  0
  -89.8039  -16.7882    8.3285 C   0  0  0  0  0  0  0  0  0  0  0  0
  -89.2276  -17.0272    9.3844 O   0  0  0  0  0  0  0  0  0  0  0  0
  -91.1277  -17.1605    8.1457 N   0  0  0  0  0  0  0  0  0  0  0  0
  -91.8329  -17.7916    9.1992 C   0  0  0  0  0  0  0  0  0  0  0  0
  -92.2626  -17.0477   10.2980 C   0  0  0  0  0  0  0  0  0  0  0  0
  -92.0093  -15.3405   10.3640 Cl  0  0  0  0  0  0  0  0  0  0  0  0
  -92.9650  -17.6803   11.3305 C   0  0  0  0  0  0  0  0  0  0  0  0
  -93.2187  -19.0542   11.2906 C   0  0  0  0  0  0  0  0  0  0  0  0
  -92.7920  -19.8003   10.2016 C   0  0  0  0  0  0  0  0  0  0  0  0
  -92.1105  -19.1685    9.1501 C   0  0  0  0  0  0  0  0  0  0  0  0
  -91.6437  -20.0208    8.0240 C   0  0  0  0  0  0  0  0  0  0  0  0
  -80.3388  -13.9973    1.0022 H   0  0  0  0  0  0  0  0  0  0  0  0
  -80.3903  -12.2198    1.1152 H   0  0  0  0  0  0  0  0  0  0  0  0
  -78.1178  -13.1832    1.7825 H   0  0  0  0  0  0  0  0  0  0  0  0
  -78.8736  -14.0516    3.1211 H   0  0  0  0  0  0  0  0  0  0  0  0
  -78.0016  -11.9672    3.8149 H   0  0  0  0  0  0  0  0  0  0  0  0
  -79.9210  -11.1131    4.9558 H   0  0  0  0  0  0  0  0  0  0  0  0
  -79.8295  -12.9011    4.9884 H   0  0  0  0  0  0  0  0  0  0  0  0
  -81.5507  -11.1675    3.1376 H   0  0  0  0  0  0  0  0  0  0  0  0
  -82.1271  -12.2052    4.4518 H   0  0  0  0  0  0  0  0  0  0  0  0
  -82.4285  -13.2772    2.2152 H   0  0  0  0  0  0  0  0  0  0  0  0
  -80.4364  -15.1000    2.9104 H   0  0  0  0  0  0  0  0  0  0  0  0
  -84.3577  -15.0601    3.6103 H   0  0  0  0  0  0  0  0  0  0  0  0
  -81.4392  -14.6754    6.7347 H   0  0  0  0  0  0  0  0  0  0  0  0
  -83.1487  -12.9380    8.8387 H   0  0  0  0  0  0  0  0  0  0  0  0
  -82.0728  -14.3618    8.8728 H   0  0  0  0  0  0  0  0  0  0  0  0
  -83.6606  -14.4593   10.7281 H   0  0  0  0  0  0  0  0  0  0  0  0
  -83.9635  -15.8012    9.5923 H   0  0  0  0  0  0  0  0  0  0  0  0
  -85.0365  -14.3885    9.6184 H   0  0  0  0  0  0  0  0  0  0  0  0
  -85.5670  -14.0345    7.5927 H   0  0  0  0  0  0  0  0  0  0  0  0
  -86.6101  -14.1694    4.2204 H   0  0  0  0  0  0  0  0  0  0  0  0
  -90.6503  -15.5962    5.7919 H   0  0  0  0  0  0  0  0  0  0  0  0
  -91.5933  -17.0772    7.2576 H   0  0  0  0  0  0  0  0  0  0  0  0
  -93.3239  -17.0976   12.1703 H   0  0  0  0  0  0  0  0  0  0  0  0
  -93.7375  -19.5419   12.1129 H   0  0  0  0  0  0  0  0  0  0  0  0
  -92.9828  -20.8726   10.1747 H   0  0  0  0  0  0  0  0  0  0  0  0
  -91.1203  -19.4112    7.2889 H   0  0  0  0  0  0  0  0  0  0  0  0
  -92.5139  -20.4799    7.5506 H   0  0  0  0  0  0  0  0  0  0  0  0
  -90.9534  -20.7801    8.4048 H   0  0  0  0  0  0  0  0  0  0  0  0
  -78.9662  -11.1382    2.7708 H   0  0  0  0  0  0  0  0  0  0  0  0
  1  2  1  0  0  0  0
  1  6  1  0  0  0  0
  1 35  1  0  0  0  0
  1 36  1  0  0  0  0
  2  3  1  0  0  0  0
  2 37  1  0  0  0  0
  2 38  1  0  0  0  0
  3  4  1  0  0  0  0
  3 39  1  0  0  0  0
  3 63  1  0  0  0  0
  4  5  1  0  0  0  0
  4 40  1  0  0  0  0
  4 41  1  0  0  0  0
  5  6  1  0  0  0  0
  5 42  1  0  0  0  0
  5 43  1  0  0  0  0
  6  7  1  0  0  0  0
  6 44  1  0  0  0  0
  7  8  1  0  0  0  0
  7 45  1  0  0  0  0
  8  9  2  0  0  0  0
  8 10  1  0  0  0  0
 10 11  2  0  0  0  0
 10 12  1  0  0  0  0
 11 17  1  0  0  0  0
 11 46  1  0  0  0  0
 12 13  2  0  0  0  0
 12 47  1  0  0  0  0
 13 14  1  0  0  0  0
 13 16  1  0  0  0  0
 14 15  1  0  0  0  0
 14 48  1  0  0  0  0
 14 49  1  0  0  0  0
 15 50  1  0  0  0  0
 15 51  1  0  0  0  0
 15 52  1  0  0  0  0
 16 17  2  0  0  0  0
 16 53  1  0  0  0  0
 17 18  1  0  0  0  0
 18 19  1  0  0  0  0
 18 54  1  0  0  0  0
 19 20  1  0  0  0  0
 19 21  2  0  0  0  0
 20 23  1  0  0  0  0
 21 22  1  0  0  0  0
 22 23  2  0  0  0  0
 22 55  1  0  0  0  0
 23 24  1  0  0  0  0
 24 25  2  0  0  0  0
 24 26  1  0  0  0  0
 26 27  1  0  0  0  0
 26 56  1  0  0  0  0
 27 28  2  0  0  0  0
 27 33  1  0  0  0  0
 28 29  1  0  0  0  0
 28 30  1  0  0  0  0
 30 31  2  0  0  0  0
 30 57  1  0  0  0  0
 31 32  1  0  0  0  0
 31 58  1  0  0  0  0
 32 33  2  0  0  0  0
 32 59  1  0  0  0  0
 33 34  1  0  0  0  0
 34 60  1  0  0  0  0
 34 61  1  0  0  0  0
 34 62  1  0  0  0  0
M  CHG  1   3   1
M  END
$$$$
