8ZW
 OpenBabel04161911363D

 56 59  0  0  0  0  0  0  0  0999 V2000
  -93.3202  -13.5983   43.0905 C   0  0  0  0  0  0  0  0  0  0  0  0
  -92.3227  -12.7706   42.2912 C   0  0  0  0  0  0  0  0  0  0  0  0
  -92.5038  -12.9574   40.8859 O   0  0  0  0  0  0  0  0  0  0  0  0
  -93.7876  -12.4396   40.5222 C   0  0  0  0  0  0  0  0  0  0  0  0
  -94.9321  -13.1908   41.2087 C   0  0  0  0  0  0  0  0  0  0  0  0
  -94.6992  -13.3158   42.6601 N   0  0  0  0  0  0  0  0  0  0  0  0
  -95.7491  -13.4552   43.5499 C   0  0  0  0  0  0  0  0  0  0  0  0
  -97.0889  -13.4644   43.1198 C   0  0  0  0  0  0  0  0  0  0  0  0
  -95.5225  -13.5174   44.9358 C   0  0  0  0  0  0  0  0  0  0  0  0
  -96.5704  -13.5322   45.8359 C   0  0  0  0  0  0  0  0  0  0  0  0
  -96.2651  -13.5205   47.5789 S   0  0  0  0  0  0  0  0  0  0  0  0
  -94.8274  -13.5073   47.7773 O   0  0  0  0  0  0  0  0  0  0  0  0
  -97.1003  -12.4750   48.1368 O   0  0  0  0  0  0  0  0  0  0  0  0
  -96.8737  -15.0909   48.1410 C   0  0  0  0  0  0  0  0  0  0  0  0
  -97.8712  -13.4619   45.3796 C   0  0  0  0  0  0  0  0  0  0  0  0
  -98.1603  -13.4523   44.0136 C   0  0  0  0  0  0  0  0  0  0  0  0
  -99.4621  -13.5172   43.4931 N   0  0  0  0  0  0  0  0  0  0  0  0
 -100.5722  -14.0311   44.0562 C   0  0  0  0  0  0  0  0  0  0  0  0
 -100.5919  -14.8934   45.5438 S   0  0  0  0  0  0  0  0  0  0  0  0
 -101.7411  -13.9763   43.4573 N   0  0  0  0  0  0  0  0  0  0  0  0
 -102.7074  -14.5467   44.2627 C   0  0  0  0  0  0  0  0  0  0  0  0
 -102.2646  -15.0421   45.4648 C   0  0  0  0  0  0  0  0  0  0  0  0
 -102.9314  -15.6512   46.5772 C   0  0  0  0  0  0  0  0  0  0  0  0
 -102.3729  -15.9261   47.6353 O   0  0  0  0  0  0  0  0  0  0  0  0
 -104.2622  -15.9607   46.3351 N   0  0  0  0  0  0  0  0  0  0  0  0
 -104.9636  -16.6529   47.3096 C   0  0  0  0  0  0  0  0  0  0  0  0
 -105.4456  -15.9458   48.4187 C   0  0  0  0  0  0  0  0  0  0  0  0
 -105.2380  -14.2309   48.5699 Cl  0  0  0  0  0  0  0  0  0  0  0  0
 -106.1539  -16.6088   49.4185 C   0  0  0  0  0  0  0  0  0  0  0  0
 -106.3511  -17.9944   49.3079 C   0  0  0  0  0  0  0  0  0  0  0  0
 -105.8545  -18.7004   48.2303 C   0  0  0  0  0  0  0  0  0  0  0  0
 -105.1601  -18.0392   47.2013 C   0  0  0  0  0  0  0  0  0  0  0  0
 -104.5888  -18.8618   46.0817 C   0  0  0  0  0  0  0  0  0  0  0  0
  -93.1349  -13.3021   44.1246 H   0  0  0  0  0  0  0  0  0  0  0  0
  -93.1149  -14.6722   43.0084 H   0  0  0  0  0  0  0  0  0  0  0  0
  -91.3043  -13.0584   42.5640 H   0  0  0  0  0  0  0  0  0  0  0  0
  -92.4445  -11.7071   42.5371 H   0  0  0  0  0  0  0  0  0  0  0  0
  -93.8941  -12.5098   39.4365 H   0  0  0  0  0  0  0  0  0  0  0  0
  -93.8301  -11.3758   40.7889 H   0  0  0  0  0  0  0  0  0  0  0  0
  -95.0693  -14.1824   40.7603 H   0  0  0  0  0  0  0  0  0  0  0  0
  -95.8300  -12.5971   41.0010 H   0  0  0  0  0  0  0  0  0  0  0  0
  -97.3286  -13.4810   42.0628 H   0  0  0  0  0  0  0  0  0  0  0  0
  -94.5284  -13.5030   45.3562 H   0  0  0  0  0  0  0  0  0  0  0  0
  -96.7154  -15.1422   49.2207 H   0  0  0  0  0  0  0  0  0  0  0  0
  -96.3198  -15.8924   47.6485 H   0  0  0  0  0  0  0  0  0  0  0  0
  -97.9408  -15.1685   47.9257 H   0  0  0  0  0  0  0  0  0  0  0  0
  -98.6468  -13.3787   46.1289 H   0  0  0  0  0  0  0  0  0  0  0  0
  -99.5800  -13.1412   42.5600 H   0  0  0  0  0  0  0  0  0  0  0  0
 -103.7332  -14.5607   43.9114 H   0  0  0  0  0  0  0  0  0  0  0  0
 -104.5773  -16.0336   45.3709 H   0  0  0  0  0  0  0  0  0  0  0  0
 -106.5374  -16.0677   50.2578 H   0  0  0  0  0  0  0  0  0  0  0  0
 -106.8913  -18.5116   50.1040 H   0  0  0  0  0  0  0  0  0  0  0  0
 -105.9910  -19.7769   48.1853 H   0  0  0  0  0  0  0  0  0  0  0  0
 -104.0302  -18.2622   45.3587 H   0  0  0  0  0  0  0  0  0  0  0  0
 -105.4039  -19.3572   45.5445 H   0  0  0  0  0  0  0  0  0  0  0  0
 -103.9006  -19.6165   46.4768 H   0  0  0  0  0  0  0  0  0  0  0  0
  1  2  1  0  0  0  0
  1  6  1  0  0  0  0
  1 34  1  0  0  0  0
  1 35  1  0  0  0  0
  2  3  1  0  0  0  0
  2 36  1  0  0  0  0
  2 37  1  0  0  0  0
  3  4  1  0  0  0  0
  4  5  1  0  0  0  0
  4 38  1  0  0  0  0
  4 39  1  0  0  0  0
  5  6  1  0  0  0  0
  5 40  1  0  0  0  0
  5 41  1  0  0  0  0
  6  7  1  0  0  0  0
  7  8  2  0  0  0  0
  7  9  1  0  0  0  0
  8 16  1  0  0  0  0
  8 42  1  0  0  0  0
  9 10  2  0  0  0  0
  9 43  1  0  0  0  0
 10 11  1  0  0  0  0
 10 15  1  0  0  0  0
 11 12  2  0  0  0  0
 11 13  2  0  0  0  0
 11 14  1  0  0  0  0
 14 44  1  0  0  0  0
 14 45  1  0  0  0  0
 14 46  1  0  0  0  0
 15 16  2  0  0  0  0
 15 47  1  0  0  0  0
 16 17  1  0  0  0  0
 17 18  1  0  0  0  0
 17 48  1  0  0  0  0
 18 19  1  0  0  0  0
 18 20  2  0  0  0  0
 19 22  1  0  0  0  0
 20 21  1  0  0  0  0
 21 22  2  0  0  0  0
 21 49  1  0  0  0  0
 22 23  1  0  0  0  0
 23 24  2  0  0  0  0
 23 25  1  0  0  0  0
 25 26  1  0  0  0  0
 25 50  1  0  0  0  0
 26 27  2  0  0  0  0
 26 32  1  0  0  0  0
 27 28  1  0  0  0  0
 27 29  1  0  0  0  0
 29 30  2  0  0  0  0
 29 51  1  0  0  0  0
 30 31  1  0  0  0  0
 30 52  1  0  0  0  0
 31 32  2  0  0  0  0
 31 53  1  0  0  0  0
 32 33  1  0  0  0  0
 33 54  1  0  0  0  0
 33 55  1  0  0  0  0
 33 56  1  0  0  0  0
M  END
$$$$
