8ZZ
 OpenBabel04161911333D

 57 60  0  0  1  0  0  0  0  0999 V2000
  -80.4652  -13.7926   10.1611 F   0  0  0  0  0  0  0  0  0  0  0  0
  -81.4796  -14.2023   10.9823 C   0  0  2  0  0  0  0  0  0  0  0  0
  -80.9346  -14.2055   12.4119 C   0  0  0  0  0  0  0  0  0  0  0  0
  -80.7174  -15.6188   12.8873 N   0  3  0  0  0  0  0  0  0  0  0  0
  -82.0100  -16.3729   12.9451 C   0  0  0  0  0  0  0  0  0  0  0  0
  -82.7092  -16.3429   11.5922 C   0  0  0  0  0  0  0  0  0  0  0  0
  -81.8774  -15.6175   10.5368 C   0  0  1  0  0  0  0  0  0  0  0  0
  -82.4595  -15.6628    9.2222 N   0  0  0  0  0  0  0  0  0  0  0  0
  -83.6724  -15.1036    8.8977 C   0  0  0  0  0  0  0  0  0  0  0  0
  -84.4085  -14.5994    9.7342 O   0  0  0  0  0  0  0  0  0  0  0  0
  -84.0241  -15.1792    7.4577 C   0  0  0  0  0  0  0  0  0  0  0  0
  -85.3707  -15.1406    7.0986 C   0  0  0  0  0  0  0  0  0  0  0  0
  -83.0421  -15.2942    6.4674 C   0  0  0  0  0  0  0  0  0  0  0  0
  -83.4086  -15.4036    5.1332 C   0  0  0  0  0  0  0  0  0  0  0  0
  -84.7567  -15.3854    4.7859 C   0  0  0  0  0  0  0  0  0  0  0  0
  -85.7587  -15.2454    5.7582 C   0  0  0  0  0  0  0  0  0  0  0  0
  -87.0977  -15.3079    5.3460 N   0  0  0  0  0  0  0  0  0  0  0  0
  -88.1705  -15.8555    5.9604 C   0  0  0  0  0  0  0  0  0  0  0  0
  -88.1222  -16.7561    7.4264 S   0  0  0  0  0  0  0  0  0  0  0  0
  -89.3660  -15.7900    5.4154 N   0  0  0  0  0  0  0  0  0  0  0  0
  -90.2948  -16.4378    6.2062 C   0  0  0  0  0  0  0  0  0  0  0  0
  -89.8049  -16.9987    7.3665 C   0  0  0  0  0  0  0  0  0  0  0  0
  -90.4464  -17.7095    8.4473 C   0  0  0  0  0  0  0  0  0  0  0  0
  -89.8657  -18.0417    9.4758 O   0  0  0  0  0  0  0  0  0  0  0  0
  -91.7885  -17.9673    8.2402 N   0  0  0  0  0  0  0  0  0  0  0  0
  -92.5422  -18.6023    9.2357 C   0  0  0  0  0  0  0  0  0  0  0  0
  -92.6309  -20.0015    9.2588 C   0  0  0  0  0  0  0  0  0  0  0  0
  -91.8877  -20.9757    8.0388 Cl  0  0  0  0  0  0  0  0  0  0  0  0
  -93.3204  -20.6309   10.2926 C   0  0  0  0  0  0  0  0  0  0  0  0
  -93.9199  -19.8775   11.2931 C   0  0  0  0  0  0  0  0  0  0  0  0
  -93.8398  -18.4771   11.2696 C   0  0  0  0  0  0  0  0  0  0  0  0
  -93.1509  -17.8298   10.2366 C   0  0  0  0  0  0  0  0  0  0  0  0
  -93.0649  -16.3266   10.2653 C   0  0  0  0  0  0  0  0  0  0  0  0
  -82.2926  -13.4749   10.8858 H   0  0  0  0  0  0  0  0  0  0  0  0
  -81.6374  -13.7526   13.1191 H   0  0  0  0  0  0  0  0  0  0  0  0
  -79.9690  -13.6965   12.4804 H   0  0  0  0  0  0  0  0  0  0  0  0
  -80.0304  -16.0976   12.2802 H   0  0  0  0  0  0  0  0  0  0  0  0
  -82.6214  -15.8875   13.7140 H   0  0  0  0  0  0  0  0  0  0  0  0
  -81.7757  -17.3915   13.2625 H   0  0  0  0  0  0  0  0  0  0  0  0
  -83.6894  -15.8674   11.7159 H   0  0  0  0  0  0  0  0  0  0  0  0
  -82.9233  -17.3670   11.2618 H   0  0  0  0  0  0  0  0  0  0  0  0
  -80.9502  -16.1876   10.3905 H   0  0  0  0  0  0  0  0  0  0  0  0
  -81.8987  -16.0752    8.4883 H   0  0  0  0  0  0  0  0  0  0  0  0
  -86.1093  -15.0092    7.8850 H   0  0  0  0  0  0  0  0  0  0  0  0
  -81.9834  -15.2801    6.7005 H   0  0  0  0  0  0  0  0  0  0  0  0
  -82.6437  -15.5068    4.3687 H   0  0  0  0  0  0  0  0  0  0  0  0
  -85.0241  -15.4977    3.7370 H   0  0  0  0  0  0  0  0  0  0  0  0
  -87.2778  -14.9458    4.4168 H   0  0  0  0  0  0  0  0  0  0  0  0
  -91.3243  -16.4523    5.8726 H   0  0  0  0  0  0  0  0  0  0  0  0
  -92.2745  -17.6903    7.3980 H   0  0  0  0  0  0  0  0  0  0  0  0
  -93.3851  -21.7164   10.3248 H   0  0  0  0  0  0  0  0  0  0  0  0
  -94.4511  -20.3728   12.1053 H   0  0  0  0  0  0  0  0  0  0  0  0
  -94.3012  -17.9051   12.0648 H   0  0  0  0  0  0  0  0  0  0  0  0
  -92.4942  -15.9152    9.4276 H   0  0  0  0  0  0  0  0  0  0  0  0
  -92.5734  -15.9968   11.1861 H   0  0  0  0  0  0  0  0  0  0  0  0
  -94.0703  -15.8983   10.2116 H   0  0  0  0  0  0  0  0  0  0  0  0
  -80.2743  -15.6117   13.8170 H   0  0  0  0  0  0  0  0  0  0  0  0
  1  2  1  0  0  0  0
  2  3  1  0  0  0  0
  2  7  1  0  0  0  0
  2 34  1  6  0  0  0
  3  4  1  0  0  0  0
  3 35  1  0  0  0  0
  3 36  1  0  0  0  0
  4  5  1  0  0  0  0
  4 37  1  0  0  0  0
  4 57  1  0  0  0  0
  5  6  1  0  0  0  0
  5 38  1  0  0  0  0
  5 39  1  0  0  0  0
  6  7  1  0  0  0  0
  6 40  1  0  0  0  0
  6 41  1  0  0  0  0
  7  8  1  0  0  0  0
  7 42  1  6  0  0  0
  8  9  1  0  0  0  0
  8 43  1  0  0  0  0
  9 10  2  0  0  0  0
  9 11  1  0  0  0  0
 11 12  2  0  0  0  0
 11 13  1  0  0  0  0
 12 16  1  0  0  0  0
 12 44  1  0  0  0  0
 13 14  2  0  0  0  0
 13 45  1  0  0  0  0
 14 15  1  0  0  0  0
 14 46  1  0  0  0  0
 15 16  2  0  0  0  0
 15 47  1  0  0  0  0
 16 17  1  0  0  0  0
 17 18  1  0  0  0  0
 17 48  1  0  0  0  0
 18 19  1  0  0  0  0
 18 20  2  0  0  0  0
 19 22  1  0  0  0  0
 20 21  1  0  0  0  0
 21 22  2  0  0  0  0
 21 49  1  0  0  0  0
 22 23  1  0  0  0  0
 23 24  2  0  0  0  0
 23 25  1  0  0  0  0
 25 26  1  0  0  0  0
 25 50  1  0  0  0  0
 26 27  2  0  0  0  0
 26 32  1  0  0  0  0
 27 28  1  0  0  0  0
 27 29  1  0  0  0  0
 29 30  2  0  0  0  0
 29 51  1  0  0  0  0
 30 31  1  0  0  0  0
 30 52  1  0  0  0  0
 31 32  2  0  0  0  0
 31 53  1  0  0  0  0
 32 33  1  0  0  0  0
 33 54  1  0  0  0  0
 33 55  1  0  0  0  0
 33 56  1  0  0  0  0
M  CHG  1   4   1
M  END
$$$$
