90T
 OpenBabel04161911353D

 53 56  0  0  1  0  0  0  0  0999 V2000
  -82.4482  -15.4560    1.4792 O   0  0  0  0  0  0  0  0  0  0  0  0
  -81.3337  -14.9159    1.2328 C   0  0  0  0  0  0  0  0  0  0  0  0
  -80.8361  -14.6037    0.1132 O   0  0  0  0  0  0  0  0  0  0  0  0
  -80.4441  -14.6236    2.4561 C   0  0  2  0  0  0  0  0  0  0  0  0
  -81.3081  -14.1161    3.6073 C   0  0  0  0  0  0  0  0  0  0  0  0
  -79.5118  -13.4318    2.2291 C   0  0  0  0  0  0  0  0  0  0  0  0
  -80.4955  -12.2758    2.2969 C   0  0  0  0  0  0  0  0  0  0  0  0
  -81.3895  -12.6642    3.3792 N   0  0  0  0  0  0  0  0  0  0  0  0
  -82.3037  -11.7752    3.8578 C   0  0  0  0  0  0  0  0  0  0  0  0
  -82.3863  -10.6000    3.5071 O   0  0  0  0  0  0  0  0  0  0  0  0
  -83.2357  -12.2163    4.9122 C   0  0  0  0  0  0  0  0  0  0  0  0
  -84.5853  -12.3161    4.5930 C   0  0  0  0  0  0  0  0  0  0  0  0
  -82.7695  -12.3635    6.2156 C   0  0  0  0  0  0  0  0  0  0  0  0
  -83.6918  -12.6192    7.2191 C   0  0  0  0  0  0  0  0  0  0  0  0
  -85.0538  -12.7076    6.9033 C   0  0  0  0  0  0  0  0  0  0  0  0
  -85.5334  -12.5659    5.5924 C   0  0  0  0  0  0  0  0  0  0  0  0
  -86.8815  -12.6826    5.2067 N   0  0  0  0  0  0  0  0  0  0  0  0
  -87.9613  -13.1898    5.8406 C   0  0  0  0  0  0  0  0  0  0  0  0
  -87.9300  -14.0603    7.3194 S   0  0  0  0  0  0  0  0  0  0  0  0
  -89.1681  -13.0973    5.3113 N   0  0  0  0  0  0  0  0  0  0  0  0
  -90.1112  -13.6606    6.1503 C   0  0  0  0  0  0  0  0  0  0  0  0
  -89.6194  -14.2020    7.3164 C   0  0  0  0  0  0  0  0  0  0  0  0
  -90.2592  -14.8208    8.4526 C   0  0  0  0  0  0  0  0  0  0  0  0
  -89.6706  -15.1070    9.4867 O   0  0  0  0  0  0  0  0  0  0  0  0
  -91.6066  -15.0976    8.2643 N   0  0  0  0  0  0  0  0  0  0  0  0
  -92.2924  -15.8081    9.2674 C   0  0  0  0  0  0  0  0  0  0  0  0
  -92.7602  -15.1062   10.3919 C   0  0  0  0  0  0  0  0  0  0  0  0
  -92.5661  -13.3917   10.5399 Cl  0  0  0  0  0  0  0  0  0  0  0  0
  -93.4559  -15.7799   11.3929 C   0  0  0  0  0  0  0  0  0  0  0  0
  -93.6660  -17.1524   11.2872 C   0  0  0  0  0  0  0  0  0  0  0  0
  -93.1859  -17.8557   10.1790 C   0  0  0  0  0  0  0  0  0  0  0  0
  -92.4978  -17.1908    9.1490 C   0  0  0  0  0  0  0  0  0  0  0  0
  -91.9463  -18.0122    8.0174 C   0  0  0  0  0  0  0  0  0  0  0  0
  -79.8957  -15.5374    2.7098 H   0  0  0  0  0  0  0  0  0  0  0  0
  -80.7781  -14.2474    4.5597 H   0  0  0  0  0  0  0  0  0  0  0  0
  -82.2956  -14.5734    3.7100 H   0  0  0  0  0  0  0  0  0  0  0  0
  -78.9422  -13.4543    1.2974 H   0  0  0  0  0  0  0  0  0  0  0  0
  -78.7991  -13.3530    3.0617 H   0  0  0  0  0  0  0  0  0  0  0  0
  -81.0859  -12.1863    1.3768 H   0  0  0  0  0  0  0  0  0  0  0  0
  -80.0306  -11.3100    2.5066 H   0  0  0  0  0  0  0  0  0  0  0  0
  -84.8879  -12.1793    3.5557 H   0  0  0  0  0  0  0  0  0  0  0  0
  -81.7201  -12.2327    6.4536 H   0  0  0  0  0  0  0  0  0  0  0  0
  -83.3743  -12.7261    8.2515 H   0  0  0  0  0  0  0  0  0  0  0  0
  -85.7178  -12.8508    7.7450 H   0  0  0  0  0  0  0  0  0  0  0  0
  -87.0716  -12.3492    4.2682 H   0  0  0  0  0  0  0  0  0  0  0  0
  -91.1502  -13.6203    5.8486 H   0  0  0  0  0  0  0  0  0  0  0  0
  -91.9451  -15.1839    7.3178 H   0  0  0  0  0  0  0  0  0  0  0  0
  -93.8362  -15.2343   12.2507 H   0  0  0  0  0  0  0  0  0  0  0  0
  -94.1982  -17.6792   12.0744 H   0  0  0  0  0  0  0  0  0  0  0  0
  -93.3342  -18.9323   10.1306 H   0  0  0  0  0  0  0  0  0  0  0  0
  -91.3903  -17.4138    7.2903 H   0  0  0  0  0  0  0  0  0  0  0  0
  -92.7629  -18.5071    7.4845 H   0  0  0  0  0  0  0  0  0  0  0  0
  -91.2551  -18.7701    8.4045 H   0  0  0  0  0  0  0  0  0  0  0  0
  1  2  2  0  0  0  0
  2  3  1  0  0  0  0
  2  4  1  0  0  0  0
  4  5  1  0  0  0  0
  4  6  1  0  0  0  0
  4 34  1  1  0  0  0
  5  8  1  0  0  0  0
  5 35  1  0  0  0  0
  5 36  1  0  0  0  0
  6  7  1  0  0  0  0
  6 37  1  0  0  0  0
  6 38  1  0  0  0  0
  7  8  1  0  0  0  0
  7 39  1  0  0  0  0
  7 40  1  0  0  0  0
  8  9  1  0  0  0  0
  9 10  2  0  0  0  0
  9 11  1  0  0  0  0
 11 12  2  0  0  0  0
 11 13  1  0  0  0  0
 12 16  1  0  0  0  0
 12 41  1  0  0  0  0
 13 14  2  0  0  0  0
 13 42  1  0  0  0  0
 14 15  1  0  0  0  0
 14 43  1  0  0  0  0
 15 16  2  0  0  0  0
 15 44  1  0  0  0  0
 16 17  1  0  0  0  0
 17 18  1  0  0  0  0
 17 45  1  0  0  0  0
 18 19  1  0  0  0  0
 18 20  2  0  0  0  0
 19 22  1  0  0  0  0
 20 21  1  0  0  0  0
 21 22  2  0  0  0  0
 21 46  1  0  0  0  0
 22 23  1  0  0  0  0
 23 24  2  0  0  0  0
 23 25  1  0  0  0  0
 25 26  1  0  0  0  0
 25 47  1  0  0  0  0
 26 27  2  0  0  0  0
 26 32  1  0  0  0  0
 27 28  1  0  0  0  0
 27 29  1  0  0  0  0
 29 30  2  0  0  0  0
 29 48  1  0  0  0  0
 30 31  1  0  0  0  0
 30 49  1  0  0  0  0
 31 32  2  0  0  0  0
 31 50  1  0  0  0  0
 32 33  1  0  0  0  0
 33 51  1  0  0  0  0
 33 52  1  0  0  0  0
 33 53  1  0  0  0  0
M  END
$$$$
