91H
 OpenBabel04161911353D

 59 62  0  0  1  0  0  0  0  0999 V2000
   88.3863   17.0224    3.3392 C   0  0  0  0  0  0  0  0  0  0  0  0
   87.5333   17.3093    2.1028 C   0  0  0  0  0  0  0  0  0  0  0  0
   88.2626   18.1626    1.0422 C   0  0  2  0  0  0  0  0  0  0  0  0
   88.6291   17.3263   -0.2183 C   0  0  0  0  0  0  0  0  0  0  0  0
   89.8624   17.2472   -0.4946 O   0  0  0  0  0  0  0  0  0  0  0  0
   87.6433   16.8506   -0.8290 O   0  0  0  0  0  0  0  0  0  0  0  0
   89.4560   18.9185    1.6326 C   0  0  0  0  0  0  0  0  0  0  0  0
   90.4626   18.0113    2.3418 C   0  0  0  0  0  0  0  0  0  0  0  0
   89.8196   16.7415    2.9043 C   0  0  1  0  0  0  0  0  0  0  0  0
   90.6079   16.2533    4.0094 N   0  0  0  0  0  0  0  0  0  0  0  0
   90.6669   14.9253    4.3292 C   0  0  0  0  0  0  0  0  0  0  0  0
   90.0573   13.9995    3.8211 O   0  0  0  0  0  0  0  0  0  0  0  0
   91.6396   14.6638    5.3786 C   0  0  0  0  0  0  0  0  0  0  0  0
   92.9853   14.6962    5.0187 C   0  0  0  0  0  0  0  0  0  0  0  0
   91.2167   14.4692    6.6884 C   0  0  0  0  0  0  0  0  0  0  0  0
   92.1790   14.2805    7.6662 C   0  0  0  0  0  0  0  0  0  0  0  0
   93.5328   14.2815    7.3112 C   0  0  0  0  0  0  0  0  0  0  0  0
   93.9581   14.4902    5.9865 C   0  0  0  0  0  0  0  0  0  0  0  0
   95.3022   14.5957    5.5951 N   0  0  0  0  0  0  0  0  0  0  0  0
   96.3478   15.0919    6.2851 C   0  0  0  0  0  0  0  0  0  0  0  0
   96.1992   15.9809    7.7489 S   0  0  0  0  0  0  0  0  0  0  0  0
   97.5848   14.9957    5.8423 N   0  0  0  0  0  0  0  0  0  0  0  0
   98.4647   15.5391    6.7599 C   0  0  0  0  0  0  0  0  0  0  0  0
   97.8898   16.0708    7.8933 C   0  0  0  0  0  0  0  0  0  0  0  0
   98.4381   16.6249    9.1061 C   0  0  0  0  0  0  0  0  0  0  0  0
   97.7588   16.8760   10.1000 O   0  0  0  0  0  0  0  0  0  0  0  0
   99.8103   16.8265    9.0868 N   0  0  0  0  0  0  0  0  0  0  0  0
  100.4355   17.3728   10.2218 C   0  0  0  0  0  0  0  0  0  0  0  0
  100.7556   18.7362   10.3010 C   0  0  0  0  0  0  0  0  0  0  0  0
  100.3548   19.8295    9.0245 Cl  0  0  0  0  0  0  0  0  0  0  0  0
  101.3845   19.2408   11.4347 C   0  0  0  0  0  0  0  0  0  0  0  0
  101.6964   18.3870   12.4979 C   0  0  0  0  0  0  0  0  0  0  0  0
  101.3758   17.0321   12.4205 C   0  0  0  0  0  0  0  0  0  0  0  0
  100.7449   16.5082   11.2880 C   0  0  0  0  0  0  0  0  0  0  0  0
  100.4388   15.0319   11.2513 C   0  0  0  0  0  0  0  0  0  0  0  0
   87.9609   16.1843    3.9048 H   0  0  0  0  0  0  0  0  0  0  0  0
   88.3668   17.8840    4.0216 H   0  0  0  0  0  0  0  0  0  0  0  0
   86.6232   17.8263    2.4308 H   0  0  0  0  0  0  0  0  0  0  0  0
   87.2068   16.3512    1.6815 H   0  0  0  0  0  0  0  0  0  0  0  0
   87.5507   18.9077    0.6724 H   0  0  0  0  0  0  0  0  0  0  0  0
   89.0749   19.6470    2.3618 H   0  0  0  0  0  0  0  0  0  0  0  0
   89.9743   19.5038    0.8650 H   0  0  0  0  0  0  0  0  0  0  0  0
   90.9429   18.5952    3.1386 H   0  0  0  0  0  0  0  0  0  0  0  0
   91.2773   17.7257    1.6656 H   0  0  0  0  0  0  0  0  0  0  0  0
   89.8096   15.9567    2.1373 H   0  0  0  0  0  0  0  0  0  0  0  0
   91.1401   16.9203    4.5510 H   0  0  0  0  0  0  0  0  0  0  0  0
   93.2566   14.9048    3.9852 H   0  0  0  0  0  0  0  0  0  0  0  0
   90.1589   14.4750    6.9323 H   0  0  0  0  0  0  0  0  0  0  0  0
   91.8882   14.1281    8.7017 H   0  0  0  0  0  0  0  0  0  0  0  0
   94.2520   14.0917    8.1023 H   0  0  0  0  0  0  0  0  0  0  0  0
   95.4877   14.3335    4.6330 H   0  0  0  0  0  0  0  0  0  0  0  0
   99.5245   15.4804    6.5443 H   0  0  0  0  0  0  0  0  0  0  0  0
  100.2794   16.9242    8.1974 H   0  0  0  0  0  0  0  0  0  0  0  0
  101.6270   20.2965   11.5141 H   0  0  0  0  0  0  0  0  0  0  0  0
  102.1835   18.7790   13.3885 H   0  0  0  0  0  0  0  0  0  0  0  0
  101.6237   16.3770   13.2565 H   0  0  0  0  0  0  0  0  0  0  0  0
   99.9586   14.7133   10.3234 H   0  0  0  0  0  0  0  0  0  0  0  0
   99.7669   14.7705   12.0730 H   0  0  0  0  0  0  0  0  0  0  0  0
  101.3682   14.4667   11.3373 H   0  0  0  0  0  0  0  0  0  0  0  0
  1  2  1  0  0  0  0
  1  9  1  0  0  0  0
  1 36  1  0  0  0  0
  1 37  1  0  0  0  0
  2  3  1  0  0  0  0
  2 38  1  0  0  0  0
  2 39  1  0  0  0  0
  3  4  1  0  0  0  0
  3  7  1  0  0  0  0
  3 40  1  6  0  0  0
  4  5  2  0  0  0  0
  4  6  1  0  0  0  0
  7  8  1  0  0  0  0
  7 41  1  0  0  0  0
  7 42  1  0  0  0  0
  8  9  1  0  0  0  0
  8 43  1  0  0  0  0
  8 44  1  0  0  0  0
  9 10  1  0  0  0  0
  9 45  1  6  0  0  0
 10 11  1  0  0  0  0
 10 46  1  0  0  0  0
 11 12  2  0  0  0  0
 11 13  1  0  0  0  0
 13 14  2  0  0  0  0
 13 15  1  0  0  0  0
 14 18  1  0  0  0  0
 14 47  1  0  0  0  0
 15 16  2  0  0  0  0
 15 48  1  0  0  0  0
 16 17  1  0  0  0  0
 16 49  1  0  0  0  0
 17 18  2  0  0  0  0
 17 50  1  0  0  0  0
 18 19  1  0  0  0  0
 19 20  1  0  0  0  0
 19 51  1  0  0  0  0
 20 21  1  0  0  0  0
 20 22  2  0  0  0  0
 21 24  1  0  0  0  0
 22 23  1  0  0  0  0
 23 24  2  0  0  0  0
 23 52  1  0  0  0  0
 24 25  1  0  0  0  0
 25 26  2  0  0  0  0
 25 27  1  0  0  0  0
 27 28  1  0  0  0  0
 27 53  1  0  0  0  0
 28 29  2  0  0  0  0
 28 34  1  0  0  0  0
 29 30  1  0  0  0  0
 29 31  1  0  0  0  0
 31 32  2  0  0  0  0
 31 54  1  0  0  0  0
 32 33  1  0  0  0  0
 32 55  1  0  0  0  0
 33 34  2  0  0  0  0
 33 56  1  0  0  0  0
 34 35  1  0  0  0  0
 35 57  1  0  0  0  0
 35 58  1  0  0  0  0
 35 59  1  0  0  0  0
M  END
$$$$
