921
 OpenBabel04161912083D

 70 73  0  0  1  0  0  0  0  0999 V2000
   -3.1102   24.5177   14.9765 C   0  0  0  0  0  0  0  0  0  0  0  0
   -1.7081   24.8222   15.4249 C   0  0  0  0  0  0  0  0  0  0  0  0
   -0.6940   24.3957   14.3649 C   0  0  1  0  0  0  0  0  0  0  0  0
   -2.4572   24.7678   12.5826 C   0  0  0  0  0  0  0  0  0  0  0  0
    2.3476   26.1126   15.8177 C   0  0  0  0  0  0  0  0  0  0  0  0
    2.9553   23.9816   15.2460 C   0  0  0  0  0  0  0  0  0  0  0  0
   -5.6705   26.1404   13.4195 C   0  0  0  0  0  0  0  0  0  0  0  0
   -7.8858   26.9817   12.8850 C   0  0  0  0  0  0  0  0  0  0  0  0
   -7.9308   28.0702   13.8999 C   0  0  0  0  0  0  0  0  0  0  0  0
   -9.0065   28.3856   14.6786 C   0  0  0  0  0  0  0  0  0  0  0  0
   -8.9157   29.4821   15.6737 C   0  0  0  0  0  0  0  0  0  0  0  0
   -7.1043   25.3055   15.7302 C   0  0  0  0  0  0  0  0  0  0  0  0
   -8.6984   23.6836   16.5215 C   0  0  0  0  0  0  0  0  0  0  0  0
   -5.3533   23.6815   13.3527 C   0  0  0  0  0  0  0  0  0  0  0  0
   -4.8404   25.0451   13.4059 N   0  0  0  0  0  0  0  0  0  0  0  0
   -3.4193   25.2394   13.6754 C   0  0  1  0  0  0  0  0  0  0  0  0
   -1.0156   25.0678   13.0229 C   0  0  0  0  0  0  0  0  0  0  0  0
    0.7076   24.6765   14.8400 C   0  0  0  0  0  0  0  0  0  0  0  0
    1.0577   25.9119   15.3765 C   0  0  0  0  0  0  0  0  0  0  0  0
    3.3159   25.1739   15.7650 N   0  0  0  0  0  0  0  0  0  0  0  0
    1.6874   23.6914   14.7794 C   0  0  0  0  0  0  0  0  0  0  0  0
   -5.1991   27.2942   13.4815 O   0  0  0  0  0  0  0  0  0  0  0  0
   -7.0290   25.9007   13.3534 N   0  0  0  0  0  0  0  0  0  0  0  0
  -10.3024   27.6789   14.5920 C   0  0  0  0  0  0  0  0  0  0  0  0
   -7.6150   25.1643   14.4387 C   0  0  0  0  0  0  0  0  0  0  0  0
   -7.6571   24.5703   16.7696 C   0  0  0  0  0  0  0  0  0  0  0  0
   -9.2003   23.5414   15.2316 C   0  0  0  0  0  0  0  0  0  0  0  0
  -10.1991   22.6160   15.0216 O   0  0  0  0  0  0  0  0  0  0  0  0
  -11.3604   23.0935   14.4525 C   0  0  0  0  0  0  0  0  0  0  0  0
  -11.9889   24.2437   14.9211 C   0  0  0  0  0  0  0  0  0  0  0  0
  -13.1762   24.6751   14.3425 C   0  0  0  0  0  0  0  0  0  0  0  0
  -13.7529   23.9467   13.3072 C   0  0  0  0  0  0  0  0  0  0  0  0
  -13.1373   22.7877   12.8501 C   0  0  0  0  0  0  0  0  0  0  0  0
  -11.9466   22.3515   13.4282 C   0  0  0  0  0  0  0  0  0  0  0  0
   -8.6537   24.2677   14.1801 C   0  0  0  0  0  0  0  0  0  0  0  0
   -3.8348   24.8244   15.7330 H   0  0  0  0  0  0  0  0  0  0  0  0
   -3.2122   23.4387   14.8200 H   0  0  0  0  0  0  0  0  0  0  0  0
   -1.5169   24.2958   16.3641 H   0  0  0  0  0  0  0  0  0  0  0  0
   -1.6422   25.8992   15.6085 H   0  0  0  0  0  0  0  0  0  0  0  0
   -0.7902   23.3108   14.2238 H   0  0  0  0  0  0  0  0  0  0  0  0
   -2.6640   25.2784   11.6325 H   0  0  0  0  0  0  0  0  0  0  0  0
   -2.5668   23.6877   12.4199 H   0  0  0  0  0  0  0  0  0  0  0  0
    2.6282   27.0770   16.2362 H   0  0  0  0  0  0  0  0  0  0  0  0
    3.7325   23.2202   15.2048 H   0  0  0  0  0  0  0  0  0  0  0  0
   -7.5102   27.3784   11.9341 H   0  0  0  0  0  0  0  0  0  0  0  0
   -8.8720   26.5631   12.6741 H   0  0  0  0  0  0  0  0  0  0  0  0
   -7.0280   28.6360   14.0489 H   0  0  0  0  0  0  0  0  0  0  0  0
   -9.8770   29.5817   16.1900 H   0  0  0  0  0  0  0  0  0  0  0  0
   -8.6917   30.4301   15.1763 H   0  0  0  0  0  0  0  0  0  0  0  0
   -8.1437   29.2693   16.4195 H   0  0  0  0  0  0  0  0  0  0  0  0
   -6.3023   26.0117   15.9341 H   0  0  0  0  0  0  0  0  0  0  0  0
   -9.1295   23.1185   17.3413 H   0  0  0  0  0  0  0  0  0  0  0  0
   -6.4126   23.6636   13.1776 H   0  0  0  0  0  0  0  0  0  0  0  0
   -5.1594   23.1574   14.2902 H   0  0  0  0  0  0  0  0  0  0  0  0
   -4.8874   23.1662   12.5148 H   0  0  0  0  0  0  0  0  0  0  0  0
   -3.2185   26.3146   13.8012 H   0  0  0  0  0  0  0  0  0  0  0  0
   -0.3151   24.7137   12.2570 H   0  0  0  0  0  0  0  0  0  0  0  0
   -0.8950   26.1561   13.1179 H   0  0  0  0  0  0  0  0  0  0  0  0
    0.3307   26.7142   15.4601 H   0  0  0  0  0  0  0  0  0  0  0  0
    1.4689   22.7059   14.3816 H   0  0  0  0  0  0  0  0  0  0  0  0
  -10.3014   26.8852   13.8536 H   0  0  0  0  0  0  0  0  0  0  0  0
  -11.0834   28.3900   14.3122 H   0  0  0  0  0  0  0  0  0  0  0  0
  -10.5443   27.2298   15.5585 H   0  0  0  0  0  0  0  0  0  0  0  0
   -7.2706   24.6970   17.7777 H   0  0  0  0  0  0  0  0  0  0  0  0
  -11.5465   24.8130   15.7359 H   0  0  0  0  0  0  0  0  0  0  0  0
  -13.6560   25.5816   14.6969 H   0  0  0  0  0  0  0  0  0  0  0  0
  -14.6823   24.2841   12.8623 H   0  0  0  0  0  0  0  0  0  0  0  0
  -13.5937   22.2257   12.0373 H   0  0  0  0  0  0  0  0  0  0  0  0
  -11.4751   21.4452   13.0635 H   0  0  0  0  0  0  0  0  0  0  0  0
   -9.0092   24.1216   13.1652 H   0  0  0  0  0  0  0  0  0  0  0  0
  1  2  1  0  0  0  0
  1 16  1  0  0  0  0
  1 36  1  0  0  0  0
  1 37  1  0  0  0  0
  2  3  1  0  0  0  0
  2 38  1  0  0  0  0
  2 39  1  0  0  0  0
  3 17  1  0  0  0  0
  3 18  1  0  0  0  0
  3 40  1  6  0  0  0
  4 16  1  0  0  0  0
  4 17  1  0  0  0  0
  4 41  1  0  0  0  0
  4 42  1  0  0  0  0
  5 19  2  0  0  0  0
  5 20  1  0  0  0  0
  5 43  1  0  0  0  0
  6 20  2  0  0  0  0
  6 21  1  0  0  0  0
  6 44  1  0  0  0  0
  7 15  1  0  0  0  0
  7 22  2  0  0  0  0
  7 23  1  0  0  0  0
  8  9  1  0  0  0  0
  8 23  1  0  0  0  0
  8 45  1  0  0  0  0
  8 46  1  0  0  0  0
  9 10  2  0  0  0  0
  9 47  1  0  0  0  0
 10 11  1  0  0  0  0
 10 24  1  0  0  0  0
 11 48  1  0  0  0  0
 11 49  1  0  0  0  0
 11 50  1  0  0  0  0
 12 25  2  0  0  0  0
 12 26  1  0  0  0  0
 12 51  1  0  0  0  0
 13 26  2  0  0  0  0
 13 27  1  0  0  0  0
 13 52  1  0  0  0  0
 14 15  1  0  0  0  0
 14 53  1  0  0  0  0
 14 54  1  0  0  0  0
 14 55  1  0  0  0  0
 15 16  1  0  0  0  0
 16 56  1  1  0  0  0
 17 57  1  0  0  0  0
 17 58  1  0  0  0  0
 18 19  1  0  0  0  0
 18 21  2  0  0  0  0
 19 59  1  0  0  0  0
 21 60  1  0  0  0  0
 23 25  1  0  0  0  0
 24 61  1  0  0  0  0
 24 62  1  0  0  0  0
 24 63  1  0  0  0  0
 25 35  1  0  0  0  0
 26 64  1  0  0  0  0
 27 28  1  0  0  0  0
 27 35  2  0  0  0  0
 28 29  1  0  0  0  0
 29 30  2  0  0  0  0
 29 34  1  0  0  0  0
 30 31  1  0  0  0  0
 30 65  1  0  0  0  0
 31 32  2  0  0  0  0
 31 66  1  0  0  0  0
 32 33  1  0  0  0  0
 32 67  1  0  0  0  0
 33 34  2  0  0  0  0
 33 68  1  0  0  0  0
 34 69  1  0  0  0  0
 35 70  1  0  0  0  0
M  END
$$$$
