927
 OpenBabel04161912083D

 73 76  0  0  1  0  0  0  0  0999 V2000
   -3.0238   24.1008   14.8310 C   0  0  0  0  0  0  0  0  0  0  0  0
   -1.6210   24.3923   15.3297 C   0  0  0  0  0  0  0  0  0  0  0  0
   -0.6031   24.2005   14.2070 C   0  0  1  0  0  0  0  0  0  0  0  0
   -0.9595   25.0884   13.0083 C   0  0  0  0  0  0  0  0  0  0  0  0
   -2.3853   24.8339   12.5352 C   0  0  0  0  0  0  0  0  0  0  0  0
    1.0945   25.7917   15.1694 C   0  0  0  0  0  0  0  0  0  0  0  0
    3.3472   25.1068   15.6465 N   0  0  0  0  0  0  0  0  0  0  0  0
    3.0311   23.8772   15.1967 C   0  0  0  0  0  0  0  0  0  0  0  0
   -5.5057   25.9899   12.9892 C   0  0  0  0  0  0  0  0  0  0  0  0
   -8.6866   28.4399   14.5782 C   0  0  0  0  0  0  0  0  0  0  0  0
   -9.9985   27.7583   14.3626 C   0  0  0  0  0  0  0  0  0  0  0  0
   -8.5861   29.4742   15.6443 C   0  0  0  0  0  0  0  0  0  0  0  0
   -6.6324   25.0790   15.4575 C   0  0  0  0  0  0  0  0  0  0  0  0
   -8.3975   23.8279   16.4632 C   0  0  0  0  0  0  0  0  0  0  0  0
  -10.9069   23.0409   13.0732 O   0  0  0  0  0  0  0  0  0  0  0  0
  -11.1937   22.9805   14.2496 C   0  0  0  0  0  0  0  0  0  0  0  0
  -12.4808   22.3805   14.6785 C   0  0  0  0  0  0  0  0  0  0  0  0
  -12.6916   21.0095   14.5363 C   0  0  0  0  0  0  0  0  0  0  0  0
  -13.8975   20.4516   14.9723 C   0  0  0  0  0  0  0  0  0  0  0  0
  -14.8831   21.2641   15.5350 C   0  0  0  0  0  0  0  0  0  0  0  0
  -14.6598   22.6344   15.6815 C   0  0  0  0  0  0  0  0  0  0  0  0
  -13.4521   23.1933   15.2631 C   0  0  0  0  0  0  0  0  0  0  0  0
  -10.4333   23.3701   15.3352 N   0  0  0  0  0  0  0  0  0  0  0  0
   -9.1568   23.9328   15.2992 C   0  0  0  0  0  0  0  0  0  0  0  0
   -7.1281   24.3857   16.5429 C   0  0  0  0  0  0  0  0  0  0  0  0
   -8.6496   24.6070   14.1988 C   0  0  0  0  0  0  0  0  0  0  0  0
   -7.3872   25.1898   14.2816 C   0  0  0  0  0  0  0  0  0  0  0  0
   -6.8628   25.9135   13.1727 N   0  0  0  0  0  0  0  0  0  0  0  0
   -7.6545   27.0705   12.7558 C   0  0  0  0  0  0  0  0  0  0  0  0
   -7.6144   28.1264   13.8321 C   0  0  0  0  0  0  0  0  0  0  0  0
   -4.9430   27.0569   12.6531 O   0  0  0  0  0  0  0  0  0  0  0  0
   -4.7527   24.8660   13.2504 N   0  0  0  0  0  0  0  0  0  0  0  0
   -5.2446   23.5252   12.9316 C   0  0  0  0  0  0  0  0  0  0  0  0
   -3.3739   25.0408   13.6763 C   0  0  1  0  0  0  0  0  0  0  0  0
    0.7831   24.5132   14.7050 C   0  0  0  0  0  0  0  0  0  0  0  0
    1.7687   23.5343   14.7200 C   0  0  0  0  0  0  0  0  0  0  0  0
    2.3807   26.0402   15.6261 C   0  0  0  0  0  0  0  0  0  0  0  0
   -3.7420   24.2062   15.6488 H   0  0  0  0  0  0  0  0  0  0  0  0
   -3.0704   23.0625   14.4842 H   0  0  0  0  0  0  0  0  0  0  0  0
   -1.3818   23.7399   16.1780 H   0  0  0  0  0  0  0  0  0  0  0  0
   -1.5887   25.4260   15.6934 H   0  0  0  0  0  0  0  0  0  0  0  0
   -0.6380   23.1463   13.8782 H   0  0  0  0  0  0  0  0  0  0  0  0
   -0.2582   24.9116   12.1863 H   0  0  0  0  0  0  0  0  0  0  0  0
   -0.8718   26.1446   13.2895 H   0  0  0  0  0  0  0  0  0  0  0  0
   -2.4604   23.8008   12.1784 H   0  0  0  0  0  0  0  0  0  0  0  0
   -2.6267   25.4941   11.6985 H   0  0  0  0  0  0  0  0  0  0  0  0
    0.3558   26.5904   15.1794 H   0  0  0  0  0  0  0  0  0  0  0  0
    3.8207   23.1426   15.2207 H   0  0  0  0  0  0  0  0  0  0  0  0
  -10.7630   28.1143   15.0457 H   0  0  0  0  0  0  0  0  0  0  0  0
   -9.9045   26.6854   14.5277 H   0  0  0  0  0  0  0  0  0  0  0  0
  -10.3443   27.9099   13.3340 H   0  0  0  0  0  0  0  0  0  0  0  0
   -7.5741   29.8906   15.6928 H   0  0  0  0  0  0  0  0  0  0  0  0
   -8.8182   29.0396   16.6191 H   0  0  0  0  0  0  0  0  0  0  0  0
   -9.2775   30.2923   15.4340 H   0  0  0  0  0  0  0  0  0  0  0  0
   -5.6552   25.5475   15.5334 H   0  0  0  0  0  0  0  0  0  0  0  0
   -8.7793   23.2787   17.3175 H   0  0  0  0  0  0  0  0  0  0  0  0
  -11.9305   20.3690   14.0969 H   0  0  0  0  0  0  0  0  0  0  0  0
  -14.0744   19.3838   14.8695 H   0  0  0  0  0  0  0  0  0  0  0  0
  -15.8246   20.8319   15.8564 H   0  0  0  0  0  0  0  0  0  0  0  0
  -15.4300   23.2645   16.1194 H   0  0  0  0  0  0  0  0  0  0  0  0
  -13.2837   24.2613   15.3814 H   0  0  0  0  0  0  0  0  0  0  0  0
  -10.7952   23.1463   16.2529 H   0  0  0  0  0  0  0  0  0  0  0  0
   -6.5336   24.2872   17.4438 H   0  0  0  0  0  0  0  0  0  0  0  0
   -9.2401   24.7371   13.2969 H   0  0  0  0  0  0  0  0  0  0  0  0
   -8.6760   26.7463   12.5611 H   0  0  0  0  0  0  0  0  0  0  0  0
   -7.2782   27.4850   11.8250 H   0  0  0  0  0  0  0  0  0  0  0  0
   -6.6670   28.6308   14.0116 H   0  0  0  0  0  0  0  0  0  0  0  0
   -6.2808   23.5485   12.5982 H   0  0  0  0  0  0  0  0  0  0  0  0
   -5.1674   22.8885   13.8175 H   0  0  0  0  0  0  0  0  0  0  0  0
   -4.6422   23.1072   12.1215 H   0  0  0  0  0  0  0  0  0  0  0  0
   -3.2633   26.0728   14.0470 H   0  0  0  0  0  0  0  0  0  0  0  0
    1.5773   22.5246   14.3722 H   0  0  0  0  0  0  0  0  0  0  0  0
    2.6443   27.0214   15.9880 H   0  0  0  0  0  0  0  0  0  0  0  0
  1  2  1  0  0  0  0
  1 34  1  0  0  0  0
  1 38  1  0  0  0  0
  1 39  1  0  0  0  0
  2  3  1  0  0  0  0
  2 40  1  0  0  0  0
  2 41  1  0  0  0  0
  3  4  1  0  0  0  0
  3 35  1  0  0  0  0
  3 42  1  6  0  0  0
  4  5  1  0  0  0  0
  4 43  1  0  0  0  0
  4 44  1  0  0  0  0
  5 34  1  0  0  0  0
  5 45  1  0  0  0  0
  5 46  1  0  0  0  0
  6 35  2  0  0  0  0
  6 37  1  0  0  0  0
  6 47  1  0  0  0  0
  7  8  1  0  0  0  0
  7 37  2  0  0  0  0
  8 36  2  0  0  0  0
  8 48  1  0  0  0  0
  9 28  1  0  0  0  0
  9 31  2  0  0  0  0
  9 32  1  0  0  0  0
 10 11  1  0  0  0  0
 10 12  1  0  0  0  0
 10 30  2  0  0  0  0
 11 49  1  0  0  0  0
 11 50  1  0  0  0  0
 11 51  1  0  0  0  0
 12 52  1  0  0  0  0
 12 53  1  0  0  0  0
 12 54  1  0  0  0  0
 13 25  2  0  0  0  0
 13 27  1  0  0  0  0
 13 55  1  0  0  0  0
 14 24  2  0  0  0  0
 14 25  1  0  0  0  0
 14 56  1  0  0  0  0
 15 16  2  0  0  0  0
 16 17  1  0  0  0  0
 16 23  1  0  0  0  0
 17 18  2  0  0  0  0
 17 22  1  0  0  0  0
 18 19  1  0  0  0  0
 18 57  1  0  0  0  0
 19 20  2  0  0  0  0
 19 58  1  0  0  0  0
 20 21  1  0  0  0  0
 20 59  1  0  0  0  0
 21 22  2  0  0  0  0
 21 60  1  0  0  0  0
 22 61  1  0  0  0  0
 23 24  1  0  0  0  0
 23 62  1  0  0  0  0
 24 26  1  0  0  0  0
 25 63  1  0  0  0  0
 26 27  2  0  0  0  0
 26 64  1  0  0  0  0
 27 28  1  0  0  0  0
 28 29  1  0  0  0  0
 29 30  1  0  0  0  0
 29 65  1  0  0  0  0
 29 66  1  0  0  0  0
 30 67  1  0  0  0  0
 32 33  1  0  0  0  0
 32 34  1  0  0  0  0
 33 68  1  0  0  0  0
 33 69  1  0  0  0  0
 33 70  1  0  0  0  0
 34 71  1  1  0  0  0
 35 36  1  0  0  0  0
 36 72  1  0  0  0  0
 37 73  1  0  0  0  0
M  END
$$$$
