949
 OpenBabel04161910273D

 41 43  0  0  0  0  0  0  0  0999 V2000
    9.0323    1.1352   10.7293 C   0  0  0  0  0  0  0  0  0  0  0  0
   10.3947    1.2467   10.4678 C   0  0  0  0  0  0  0  0  0  0  0  0
    9.4060    1.9486   13.0192 C   0  0  0  0  0  0  0  0  0  0  0  0
   11.2739    1.6867   11.4516 C   0  0  0  0  0  0  0  0  0  0  0  0
    8.4579    3.1001   16.3738 C   0  0  0  0  0  0  0  0  0  0  0  0
    7.1754    3.2854   15.6208 C   0  0  0  0  0  0  0  0  0  0  0  0
   11.6119    3.5165   16.3005 C   0  0  0  0  0  0  0  0  0  0  0  0
   12.9424    3.3790   16.6753 C   0  0  0  0  0  0  0  0  0  0  0  0
   13.5617    2.1352   16.6493 C   0  0  0  0  0  0  0  0  0  0  0  0
   12.8423    1.0125   16.2409 C   0  0  0  0  0  0  0  0  0  0  0  0
   11.5049    1.1389   15.8591 C   0  0  0  0  0  0  0  0  0  0  0  0
   10.8835    2.3926   15.8914 C   0  0  0  0  0  0  0  0  0  0  0  0
    8.5502    1.4861   11.9985 C   0  0  0  0  0  0  0  0  0  0  0  0
    8.8458    2.3859   14.3301 C   0  0  0  0  0  0  0  0  0  0  0  0
    9.4945    2.5548   15.4913 C   0  0  0  0  0  0  0  0  0  0  0  0
   10.7795    2.0388   12.7088 C   0  0  0  0  0  0  0  0  0  0  0  0
    6.0378    2.5419   16.3028 C   0  0  0  0  0  0  0  0  0  0  0  0
    6.8590    4.7719   15.5035 C   0  0  0  0  0  0  0  0  0  0  0  0
   13.6342    4.4560   17.0658 F   0  0  0  0  0  0  0  0  0  0  0  0
    8.6376    3.3916   17.5480 O   0  0  0  0  0  0  0  0  0  0  0  0
    7.4733    2.7112   14.3275 O   0  0  0  0  0  0  0  0  0  0  0  0
   11.0317    0.9732    8.8492 S   0  0  0  0  0  0  0  0  0  0  0  0
   10.4347    1.9752    7.9854 O   0  0  0  0  0  0  0  0  0  0  0  0
   10.4172   -0.5014    8.3975 N   0  0  0  0  0  0  0  0  0  0  0  0
   12.4593    0.8032    8.9534 O   0  0  0  0  0  0  0  0  0  0  0  0
    8.3425    0.8300    9.9466 H   0  0  0  0  0  0  0  0  0  0  0  0
   12.3327    1.8047   11.2326 H   0  0  0  0  0  0  0  0  0  0  0  0
   11.1528    4.5002   16.3293 H   0  0  0  0  0  0  0  0  0  0  0  0
   14.6018    2.0456   16.9474 H   0  0  0  0  0  0  0  0  0  0  0  0
   13.3227    0.0380   16.2156 H   0  0  0  0  0  0  0  0  0  0  0  0
   10.9561    0.2585   15.5292 H   0  0  0  0  0  0  0  0  0  0  0  0
    7.4776    1.4261   12.1730 H   0  0  0  0  0  0  0  0  0  0  0  0
   11.5059    2.4178   13.4181 H   0  0  0  0  0  0  0  0  0  0  0  0
    5.0981    2.6784   15.7573 H   0  0  0  0  0  0  0  0  0  0  0  0
    5.8904    2.8996   17.3294 H   0  0  0  0  0  0  0  0  0  0  0  0
    6.2403    1.4676   16.3440 H   0  0  0  0  0  0  0  0  0  0  0  0
    7.6744    5.3118   15.0113 H   0  0  0  0  0  0  0  0  0  0  0  0
    6.7087    5.2221   16.4927 H   0  0  0  0  0  0  0  0  0  0  0  0
    5.9530    4.9369   14.9116 H   0  0  0  0  0  0  0  0  0  0  0  0
   10.7222   -0.8401    7.4912 H   0  0  0  0  0  0  0  0  0  0  0  0
    9.8091   -1.0468    8.9952 H   0  0  0  0  0  0  0  0  0  0  0  0
  1  2  2  0  0  0  0
  1 13  1  0  0  0  0
  1 26  1  0  0  0  0
  2  4  1  0  0  0  0
  2 22  1  0  0  0  0
  3 13  2  0  0  0  0
  3 14  1  0  0  0  0
  3 16  1  0  0  0  0
  4 16  2  0  0  0  0
  4 27  1  0  0  0  0
  5  6  1  0  0  0  0
  5 15  1  0  0  0  0
  5 20  2  0  0  0  0
  6 17  1  0  0  0  0
  6 18  1  0  0  0  0
  6 21  1  0  0  0  0
  7  8  2  0  0  0  0
  7 12  1  0  0  0  0
  7 28  1  0  0  0  0
  8  9  1  0  0  0  0
  8 19  1  0  0  0  0
  9 10  2  0  0  0  0
  9 29  1  0  0  0  0
 10 11  1  0  0  0  0
 10 30  1  0  0  0  0
 11 12  2  0  0  0  0
 11 31  1  0  0  0  0
 12 15  1  0  0  0  0
 13 32  1  0  0  0  0
 14 15  2  0  0  0  0
 14 21  1  0  0  0  0
 16 33  1  0  0  0  0
 17 34  1  0  0  0  0
 17 35  1  0  0  0  0
 17 36  1  0  0  0  0
 18 37  1  0  0  0  0
 18 38  1  0  0  0  0
 18 39  1  0  0  0  0
 22 23  2  0  0  0  0
 22 24  1  0  0  0  0
 22 25  2  0  0  0  0
 24 40  1  0  0  0  0
 24 41  1  0  0  0  0
M  END
$$$$
