96Y
 OpenBabel04161912073D

 50 54  0  0  1  0  0  0  0  0999 V2000
  -22.3023   34.8343   -1.0482 C   0  0  0  0  0  0  0  0  0  0  0  0
  -21.2800   30.8811    0.0131 C   0  0  0  0  0  0  0  0  0  0  0  0
  -22.7098   36.0888   -1.5194 C   0  0  0  0  0  0  0  0  0  0  0  0
  -21.5714   32.5041   -1.6199 C   0  0  0  0  0  0  0  0  0  0  0  0
  -21.4122   30.4561    1.4392 C   0  0  0  0  0  0  0  0  0  0  0  0
  -20.7137   30.0340   -0.9314 C   0  0  0  0  0  0  0  0  0  0  0  0
  -20.5688   30.3825   -2.2239 N   0  0  0  0  0  0  0  0  0  0  0  0
  -21.0062   31.6260   -2.5443 C   0  0  0  0  0  0  0  0  0  0  0  0
  -21.7215   32.1274   -0.3082 N   0  0  0  0  0  0  0  0  0  0  0  0
  -22.0180   33.8601   -2.0050 C   0  0  0  0  0  0  0  0  0  0  0  0
  -22.7948   36.3475   -2.8845 C   0  0  0  0  0  0  0  0  0  0  0  0
  -22.5006   35.3284   -3.7905 C   0  0  0  0  0  0  0  0  0  0  0  0
  -22.1234   34.1041   -3.3400 N   0  0  0  0  0  0  0  0  0  0  0  0
  -23.1741   37.6969   -2.9742 C   0  0  0  0  0  0  0  0  0  0  0  0
  -23.3090   38.2726   -1.7811 N   0  0  0  0  0  0  0  0  0  0  0  0
  -23.0638   37.2750   -0.8848 N   0  3  0  0  0  0  0  0  0  0  0  0
  -23.2116   37.5005    0.5236 C   0  0  0  0  0  0  0  0  0  0  0  0
  -23.3763   38.8050    0.9799 C   0  0  0  0  0  0  0  0  0  0  0  0
  -23.5147   39.0203    2.3490 C   0  0  0  0  0  0  0  0  0  0  0  0
  -23.5018   37.9398    3.2200 C   0  0  0  0  0  0  0  0  0  0  0  0
  -23.3573   36.6587    2.6980 C   0  0  0  0  0  0  0  0  0  0  0  0
  -23.2078   36.4292    1.3713 N   0  0  0  0  0  0  0  0  0  0  0  0
  -23.3943   35.4538    3.6069 C   0  0  1  0  0  0  0  0  0  0  0  0
  -23.9025   34.2229    2.8603 C   0  0  0  0  0  0  0  0  0  0  0  0
  -23.9387   33.0434    3.7927 N   0  3  0  0  0  0  0  0  0  0  0  0
  -22.5981   32.7208    4.3646 C   0  0  0  0  0  0  0  0  0  0  0  0
  -22.0634   33.9218    5.1121 C   0  0  0  0  0  0  0  0  0  0  0  0
  -22.0283   35.1377    4.2018 C   0  0  0  0  0  0  0  0  0  0  0  0
  -21.1239   34.8987    3.2218 F   0  0  0  0  0  0  0  0  0  0  0  0
  -21.5752   36.1905    4.9228 F   0  0  0  0  0  0  0  0  0  0  0  0
  -22.1791   34.6318    0.0062 H   0  0  0  0  0  0  0  0  0  0  0  0
  -21.0823   29.4244    1.5935 H   0  0  0  0  0  0  0  0  0  0  0  0
  -22.4581   30.5306    1.7527 H   0  0  0  0  0  0  0  0  0  0  0  0
  -20.8019   31.1068    2.0710 H   0  0  0  0  0  0  0  0  0  0  0  0
  -20.3555   29.0424   -0.6765 H   0  0  0  0  0  0  0  0  0  0  0  0
  -20.8767   31.9038   -3.5870 H   0  0  0  0  0  0  0  0  0  0  0  0
  -22.5455   35.4546   -4.8665 H   0  0  0  0  0  0  0  0  0  0  0  0
  -23.3475   38.2881   -3.8645 H   0  0  0  0  0  0  0  0  0  0  0  0
  -23.3798   39.6526    0.2983 H   0  0  0  0  0  0  0  0  0  0  0  0
  -23.6254   40.0348    2.7275 H   0  0  0  0  0  0  0  0  0  0  0  0
  -23.6064   38.1127    4.2873 H   0  0  0  0  0  0  0  0  0  0  0  0
  -24.0953   35.6761    4.4231 H   0  0  0  0  0  0  0  0  0  0  0  0
  -23.2644   33.9260    2.0215 H   0  0  0  0  0  0  0  0  0  0  0  0
  -24.9254   34.3569    2.4929 H   0  0  0  0  0  0  0  0  0  0  0  0
  -24.6407   33.1811    4.5358 H   0  0  0  0  0  0  0  0  0  0  0  0
  -21.9506   32.4393    3.5311 H   0  0  0  0  0  0  0  0  0  0  0  0
  -22.7307   31.8575    5.0228 H   0  0  0  0  0  0  0  0  0  0  0  0
  -21.0505   33.7030    5.4702 H   0  0  0  0  0  0  0  0  0  0  0  0
  -22.6736   34.1315    5.9977 H   0  0  0  0  0  0  0  0  0  0  0  0
  -24.2777   32.2289    3.2561 H   0  0  0  0  0  0  0  0  0  0  0  0
  1  3  1  0  0  0  0
  1 10  2  0  0  0  0
  1 31  1  0  0  0  0
  2  5  1  0  0  0  0
  2  6  2  0  0  0  0
  2  9  1  0  0  0  0
  3 11  1  0  0  0  0
  3 16  2  0  0  0  0
  4  8  1  0  0  0  0
  4  9  2  0  0  0  0
  4 10  1  0  0  0  0
  5 32  1  0  0  0  0
  5 33  1  0  0  0  0
  5 34  1  0  0  0  0
  6  7  1  0  0  0  0
  6 35  1  0  0  0  0
  7  8  2  0  0  0  0
  8 36  1  0  0  0  0
 10 13  1  0  0  0  0
 11 12  1  0  0  0  0
 11 14  2  0  0  0  0
 12 13  2  0  0  0  0
 12 37  1  0  0  0  0
 14 15  1  0  0  0  0
 14 38  1  0  0  0  0
 15 16  1  0  0  0  0
 16 17  1  0  0  0  0
 17 18  2  0  0  0  0
 17 22  1  0  0  0  0
 18 19  1  0  0  0  0
 18 39  1  0  0  0  0
 19 20  2  0  0  0  0
 19 40  1  0  0  0  0
 20 21  1  0  0  0  0
 20 41  1  0  0  0  0
 21 22  2  0  0  0  0
 21 23  1  0  0  0  0
 23 24  1  0  0  0  0
 23 28  1  0  0  0  0
 23 42  1  1  0  0  0
 24 25  1  0  0  0  0
 24 43  1  0  0  0  0
 24 44  1  0  0  0  0
 25 26  1  0  0  0  0
 25 45  1  0  0  0  0
 25 50  1  0  0  0  0
 26 27  1  0  0  0  0
 26 46  1  0  0  0  0
 26 47  1  0  0  0  0
 27 28  1  0  0  0  0
 27 48  1  0  0  0  0
 27 49  1  0  0  0  0
 28 29  1  0  0  0  0
 28 30  1  0  0  0  0
M  CHG  2  16   1  25   1
M  END
$$$$
