9B8
 OpenBabel04161911393D

 70 73  0  0  1  0  0  0  0  0999 V2000
   10.6105   57.0439   97.9372 C   0  0  0  0  0  0  0  0  0  0  0  0
   10.2570   58.4039   97.5970 O   0  0  0  0  0  0  0  0  0  0  0  0
    9.9694   58.0119   96.2356 C   0  0  0  0  0  0  0  0  0  0  0  0
   10.4371   56.5829   96.4912 C   0  0  0  0  0  0  0  0  0  0  0  0
   11.7137   56.1200   95.7487 C   0  0  0  0  0  0  0  0  0  0  0  0
   12.7969   56.6981   95.7479 O   0  0  0  0  0  0  0  0  0  0  0  0
   11.5302   54.9376   95.0776 N   0  0  0  0  0  0  0  0  0  0  0  0
   12.5664   54.2755   94.2849 C   0  0  1  0  0  0  0  0  0  0  0  0
   12.6642   52.7797   94.7142 C   0  0  0  0  0  0  0  0  0  0  0  0
   13.6297   51.9948   93.8138 C   0  0  0  0  0  0  0  0  0  0  0  0
   11.2975   52.0601   94.6984 C   0  0  0  0  0  0  0  0  0  0  0  0
   13.2147   52.7385   96.1602 C   0  0  0  0  0  0  0  0  0  0  0  0
   12.1810   54.5226   92.8053 C   0  0  0  0  0  0  0  0  0  0  0  0
   11.0020   54.4205   92.4447 O   0  0  0  0  0  0  0  0  0  0  0  0
   13.1732   54.8511   91.9050 N   0  0  0  0  0  0  0  0  0  0  0  0
   14.5594   55.2022   92.1747 C   0  0  0  0  0  0  0  0  0  0  0  0
   14.9811   56.0651   90.9814 C   0  0  2  0  0  0  0  0  0  0  0  0
   14.6220   57.4332   91.1730 O   0  0  0  0  0  0  0  0  0  0  0  0
   14.1540   55.5150   89.8317 C   0  0  0  0  0  0  0  0  0  0  0  0
   12.8390   55.0885   90.5021 C   0  0  1  0  0  0  0  0  0  0  0  0
   12.3537   53.8003   89.8283 C   0  0  0  0  0  0  0  0  0  0  0  0
   12.7961   52.6889   90.1248 O   0  0  0  0  0  0  0  0  0  0  0  0
   11.4705   54.0055   88.7925 N   0  0  0  0  0  0  0  0  0  0  0  0
   11.0349   52.9163   87.9557 C   0  0  0  0  0  0  0  0  0  0  0  0
   11.9313   52.6888   86.7648 C   0  0  0  0  0  0  0  0  0  0  0  0
   11.8487   51.4672   86.0908 C   0  0  0  0  0  0  0  0  0  0  0  0
   12.6596   51.2070   84.9863 C   0  0  0  0  0  0  0  0  0  0  0  0
   12.8297   53.6572   86.2855 C   0  0  0  0  0  0  0  0  0  0  0  0
   13.6262   53.4005   85.1647 C   0  0  0  0  0  0  0  0  0  0  0  0
   13.5496   52.1753   84.4965 C   0  0  0  0  0  0  0  0  0  0  0  0
   14.3356   51.9086   83.2859 C   0  0  0  0  0  0  0  0  0  0  0  0
   15.9907   52.3733   83.1818 S   0  0  0  0  0  0  0  0  0  0  0  0
   16.0649   51.7320   81.5990 C   0  0  0  0  0  0  0  0  0  0  0  0
   14.9594   51.1933   81.1392 N   0  0  0  0  0  0  0  0  0  0  0  0
   13.9600   51.2894   82.0964 C   0  0  0  0  0  0  0  0  0  0  0  0
   12.6138   50.7548   81.7550 C   0  0  0  0  0  0  0  0  0  0  0  0
    9.8987   56.6158   98.6505 H   0  0  0  0  0  0  0  0  0  0  0  0
   11.6229   56.9687   98.3440 H   0  0  0  0  0  0  0  0  0  0  0  0
   10.5577   58.5787   95.5089 H   0  0  0  0  0  0  0  0  0  0  0  0
    8.9039   58.1167   96.0082 H   0  0  0  0  0  0  0  0  0  0  0  0
    9.6122   55.8631   96.4020 H   0  0  0  0  0  0  0  0  0  0  0  0
   10.5841   54.6039   94.9333 H   0  0  0  0  0  0  0  0  0  0  0  0
   13.5201   54.7623   94.4984 H   0  0  0  0  0  0  0  0  0  0  0  0
   13.7089   50.9521   94.1450 H   0  0  0  0  0  0  0  0  0  0  0  0
   14.6357   52.4250   93.8364 H   0  0  0  0  0  0  0  0  0  0  0  0
   13.2861   51.9759   92.7751 H   0  0  0  0  0  0  0  0  0  0  0  0
   10.5687   52.5378   95.3620 H   0  0  0  0  0  0  0  0  0  0  0  0
   11.3964   51.0250   95.0453 H   0  0  0  0  0  0  0  0  0  0  0  0
   10.8698   52.0308   93.6912 H   0  0  0  0  0  0  0  0  0  0  0  0
   14.1946   53.2270   96.2196 H   0  0  0  0  0  0  0  0  0  0  0  0
   13.3311   51.7106   96.5167 H   0  0  0  0  0  0  0  0  0  0  0  0
   12.5474   53.2543   96.8609 H   0  0  0  0  0  0  0  0  0  0  0  0
   15.1280   54.2675   92.2035 H   0  0  0  0  0  0  0  0  0  0  0  0
   14.6603   55.7395   93.1192 H   0  0  0  0  0  0  0  0  0  0  0  0
   16.0568   56.0209   90.7886 H   0  0  0  0  0  0  0  0  0  0  0  0
   15.0685   57.7505   91.9781 H   0  0  0  0  0  0  0  0  0  0  0  0
   14.6697   54.6551   89.3859 H   0  0  0  0  0  0  0  0  0  0  0  0
   13.9755   56.2498   89.0391 H   0  0  0  0  0  0  0  0  0  0  0  0
   12.0775   55.8756   90.4458 H   0  0  0  0  0  0  0  0  0  0  0  0
   11.1499   54.9390   88.5736 H   0  0  0  0  0  0  0  0  0  0  0  0
   10.0244   53.1523   87.6075 H   0  0  0  0  0  0  0  0  0  0  0  0
   10.9885   52.0018   88.5615 H   0  0  0  0  0  0  0  0  0  0  0  0
   11.1569   50.6978   86.4299 H   0  0  0  0  0  0  0  0  0  0  0  0
   12.5841   50.2308   84.5213 H   0  0  0  0  0  0  0  0  0  0  0  0
   12.9270   54.6180   86.7769 H   0  0  0  0  0  0  0  0  0  0  0  0
   14.3031   54.1812   84.8220 H   0  0  0  0  0  0  0  0  0  0  0  0
   16.9741   51.7697   81.0161 H   0  0  0  0  0  0  0  0  0  0  0  0
   12.5803   50.3906   80.7239 H   0  0  0  0  0  0  0  0  0  0  0  0
   11.8523   51.5322   81.8704 H   0  0  0  0  0  0  0  0  0  0  0  0
   12.3549   49.9112   82.4010 H   0  0  0  0  0  0  0  0  0  0  0  0
  1  2  1  0  0  0  0
  1  4  1  0  0  0  0
  1 37  1  0  0  0  0
  1 38  1  0  0  0  0
  2  3  1  0  0  0  0
  3  4  1  0  0  0  0
  3 39  1  0  0  0  0
  3 40  1  0  0  0  0
  4  5  1  0  0  0  0
  4 41  1  0  0  0  0
  5  6  2  0  0  0  0
  5  7  1  0  0  0  0
  7  8  1  0  0  0  0
  7 42  1  0  0  0  0
  8  9  1  0  0  0  0
  8 13  1  0  0  0  0
  8 43  1  1  0  0  0
  9 10  1  0  0  0  0
  9 11  1  0  0  0  0
  9 12  1  0  0  0  0
 10 44  1  0  0  0  0
 10 45  1  0  0  0  0
 10 46  1  0  0  0  0
 11 47  1  0  0  0  0
 11 48  1  0  0  0  0
 11 49  1  0  0  0  0
 12 50  1  0  0  0  0
 12 51  1  0  0  0  0
 12 52  1  0  0  0  0
 13 14  2  0  0  0  0
 13 15  1  0  0  0  0
 15 16  1  0  0  0  0
 15 20  1  0  0  0  0
 16 17  1  0  0  0  0
 16 53  1  0  0  0  0
 16 54  1  0  0  0  0
 17 18  1  0  0  0  0
 17 19  1  0  0  0  0
 17 55  1  6  0  0  0
 18 56  1  0  0  0  0
 19 20  1  0  0  0  0
 19 57  1  0  0  0  0
 19 58  1  0  0  0  0
 20 21  1  0  0  0  0
 20 59  1  6  0  0  0
 21 22  2  0  0  0  0
 21 23  1  0  0  0  0
 23 24  1  0  0  0  0
 23 60  1  0  0  0  0
 24 25  1  0  0  0  0
 24 61  1  0  0  0  0
 24 62  1  0  0  0  0
 25 26  2  0  0  0  0
 25 28  1  0  0  0  0
 26 27  1  0  0  0  0
 26 63  1  0  0  0  0
 27 30  2  0  0  0  0
 27 64  1  0  0  0  0
 28 29  2  0  0  0  0
 28 65  1  0  0  0  0
 29 30  1  0  0  0  0
 29 66  1  0  0  0  0
 30 31  1  0  0  0  0
 31 32  1  0  0  0  0
 31 35  2  0  0  0  0
 32 33  1  0  0  0  0
 33 34  2  0  0  0  0
 33 67  1  0  0  0  0
 34 35  1  0  0  0  0
 35 36  1  0  0  0  0
 36 68  1  0  0  0  0
 36 69  1  0  0  0  0
 36 70  1  0  0  0  0
M  END
$$$$
