9BK
 OpenBabel04161911383D

 76 79  0  0  1  0  0  0  0  0999 V2000
    8.2585   53.5471   97.3092 C   0  0  0  0  0  0  0  0  0  0  0  0
    9.3934   54.5291   97.3460 C   0  0  0  0  0  0  0  0  0  0  0  0
   10.3926   54.3373   98.0347 O   0  0  0  0  0  0  0  0  0  0  0  0
    9.2365   55.6299   96.5248 N   0  0  0  0  0  0  0  0  0  0  0  0
   10.2558   56.6676   96.4679 C   0  0  0  0  0  0  0  0  0  0  0  0
   10.3448   57.5843   97.6839 C   0  0  0  0  0  0  0  0  0  0  0  0
    9.8085   58.1253   96.3926 C   0  0  0  0  0  0  0  0  0  0  0  0
   11.5761   56.3004   95.7601 C   0  0  0  0  0  0  0  0  0  0  0  0
   12.5614   57.0147   95.8400 O   0  0  0  0  0  0  0  0  0  0  0  0
   11.5343   55.1375   95.0360 N   0  0  0  0  0  0  0  0  0  0  0  0
   12.6682   54.5451   94.3080 C   0  0  1  0  0  0  0  0  0  0  0  0
   12.9409   53.0989   94.8387 C   0  0  0  0  0  0  0  0  0  0  0  0
   13.9697   52.3522   93.9789 C   0  0  0  0  0  0  0  0  0  0  0  0
   11.6563   52.2498   94.8942 C   0  0  0  0  0  0  0  0  0  0  0  0
   13.5188   53.1882   96.2654 C   0  0  0  0  0  0  0  0  0  0  0  0
   12.3170   54.6082   92.7915 C   0  0  0  0  0  0  0  0  0  0  0  0
   11.1637   54.3628   92.4132 O   0  0  0  0  0  0  0  0  0  0  0  0
   13.3113   54.9164   91.8767 N   0  0  0  0  0  0  0  0  0  0  0  0
   14.6972   55.2961   92.1283 C   0  0  0  0  0  0  0  0  0  0  0  0
   15.1219   56.0790   90.8843 C   0  0  2  0  0  0  0  0  0  0  0  0
   14.7705   57.4559   91.0014 O   0  0  0  0  0  0  0  0  0  0  0  0
   14.2973   55.4753   89.7631 C   0  0  0  0  0  0  0  0  0  0  0  0
   12.9889   55.0545   90.4532 C   0  0  1  0  0  0  0  0  0  0  0  0
   12.5470   53.7377   89.8242 C   0  0  0  0  0  0  0  0  0  0  0  0
   13.0062   52.6385   90.1761 O   0  0  0  0  0  0  0  0  0  0  0  0
   11.6852   53.8918   88.7639 N   0  0  0  0  0  0  0  0  0  0  0  0
   11.2505   52.7694   87.9720 C   0  0  0  0  0  0  0  0  0  0  0  0
   12.0934   52.5649   86.7451 C   0  0  0  0  0  0  0  0  0  0  0  0
   12.0454   51.3242   86.1028 C   0  0  0  0  0  0  0  0  0  0  0  0
   12.8293   51.1060   84.9803 C   0  0  0  0  0  0  0  0  0  0  0  0
   12.8984   53.5814   86.2202 C   0  0  0  0  0  0  0  0  0  0  0  0
   13.6707   53.3632   85.0899 C   0  0  0  0  0  0  0  0  0  0  0  0
   13.6469   52.1175   84.4657 C   0  0  0  0  0  0  0  0  0  0  0  0
   14.4203   51.8936   83.2563 C   0  0  0  0  0  0  0  0  0  0  0  0
   16.0415   52.4377   83.1161 S   0  0  0  0  0  0  0  0  0  0  0  0
   16.1024   51.7891   81.5385 C   0  0  0  0  0  0  0  0  0  0  0  0
   15.0108   51.2043   81.1057 N   0  0  0  0  0  0  0  0  0  0  0  0
   14.0267   51.2543   82.0854 C   0  0  0  0  0  0  0  0  0  0  0  0
   12.6843   50.6683   81.8203 C   0  0  0  0  0  0  0  0  0  0  0  0
    7.4394   53.8949   96.6752 H   0  0  0  0  0  0  0  0  0  0  0  0
    7.8789   53.4048   98.3264 H   0  0  0  0  0  0  0  0  0  0  0  0
    8.6219   52.5909   96.9181 H   0  0  0  0  0  0  0  0  0  0  0  0
    8.3714   55.7685   96.0184 H   0  0  0  0  0  0  0  0  0  0  0  0
   11.3339   57.8785   98.0178 H   0  0  0  0  0  0  0  0  0  0  0  0
    9.6624   57.3953   98.5051 H   0  0  0  0  0  0  0  0  0  0  0  0
    8.7520   58.3577   96.3335 H   0  0  0  0  0  0  0  0  0  0  0  0
   10.4274   58.8380   95.8547 H   0  0  0  0  0  0  0  0  0  0  0  0
   10.6517   54.6524   94.9956 H   0  0  0  0  0  0  0  0  0  0  0  0
   13.5489   55.1627   94.4947 H   0  0  0  0  0  0  0  0  0  0  0  0
   14.1453   51.3429   94.3711 H   0  0  0  0  0  0  0  0  0  0  0  0
   14.9311   52.8741   93.9755 H   0  0  0  0  0  0  0  0  0  0  0  0
   13.6255   52.2411   92.9473 H   0  0  0  0  0  0  0  0  0  0  0  0
   10.8879   52.7132   95.5187 H   0  0  0  0  0  0  0  0  0  0  0  0
   11.8504   51.2654   95.3325 H   0  0  0  0  0  0  0  0  0  0  0  0
   11.2373   52.0991   93.8952 H   0  0  0  0  0  0  0  0  0  0  0  0
   14.4459   53.7721   96.2754 H   0  0  0  0  0  0  0  0  0  0  0  0
   13.7490   52.1915   96.6597 H   0  0  0  0  0  0  0  0  0  0  0  0
   12.8139   53.6609   96.9547 H   0  0  0  0  0  0  0  0  0  0  0  0
   15.2890   54.3806   92.2221 H   0  0  0  0  0  0  0  0  0  0  0  0
   14.7885   55.8992   93.0327 H   0  0  0  0  0  0  0  0  0  0  0  0
   16.1969   56.0133   90.6889 H   0  0  0  0  0  0  0  0  0  0  0  0
   15.2182   57.8104   91.7902 H   0  0  0  0  0  0  0  0  0  0  0  0
   14.8244   54.6116   89.3379 H   0  0  0  0  0  0  0  0  0  0  0  0
   14.1065   56.1850   88.9503 H   0  0  0  0  0  0  0  0  0  0  0  0
   12.2039   55.8111   90.3260 H   0  0  0  0  0  0  0  0  0  0  0  0
   11.4049   54.8178   88.4778 H   0  0  0  0  0  0  0  0  0  0  0  0
   10.2232   52.9688   87.6579 H   0  0  0  0  0  0  0  0  0  0  0  0
   11.2773   51.8620   88.5842 H   0  0  0  0  0  0  0  0  0  0  0  0
   11.4183   50.5175   86.4793 H   0  0  0  0  0  0  0  0  0  0  0  0
   12.7987   50.1214   84.5247 H   0  0  0  0  0  0  0  0  0  0  0  0
   12.9430   54.5620   86.6842 H   0  0  0  0  0  0  0  0  0  0  0  0
   14.2796   54.1729   84.6990 H   0  0  0  0  0  0  0  0  0  0  0  0
   17.0013   51.8664   80.9443 H   0  0  0  0  0  0  0  0  0  0  0  0
   12.6311   50.2378   80.8178 H   0  0  0  0  0  0  0  0  0  0  0  0
   11.8972   51.4298   81.9161 H   0  0  0  0  0  0  0  0  0  0  0  0
   12.4553   49.8655   82.5208 H   0  0  0  0  0  0  0  0  0  0  0  0
  1  2  1  0  0  0  0
  1 40  1  0  0  0  0
  1 41  1  0  0  0  0
  1 42  1  0  0  0  0
  2  3  2  0  0  0  0
  2  4  1  0  0  0  0
  4  5  1  0  0  0  0
  4 43  1  0  0  0  0
  5  6  1  0  0  0  0
  5  7  1  0  0  0  0
  5  8  1  0  0  0  0
  6  7  1  0  0  0  0
  6 44  1  0  0  0  0
  6 45  1  0  0  0  0
  7 46  1  0  0  0  0
  7 47  1  0  0  0  0
  8  9  2  0  0  0  0
  8 10  1  0  0  0  0
 10 11  1  0  0  0  0
 10 48  1  0  0  0  0
 11 12  1  0  0  0  0
 11 16  1  0  0  0  0
 11 49  1  1  0  0  0
 12 13  1  0  0  0  0
 12 14  1  0  0  0  0
 12 15  1  0  0  0  0
 13 50  1  0  0  0  0
 13 51  1  0  0  0  0
 13 52  1  0  0  0  0
 14 53  1  0  0  0  0
 14 54  1  0  0  0  0
 14 55  1  0  0  0  0
 15 56  1  0  0  0  0
 15 57  1  0  0  0  0
 15 58  1  0  0  0  0
 16 17  2  0  0  0  0
 16 18  1  0  0  0  0
 18 19  1  0  0  0  0
 18 23  1  0  0  0  0
 19 20  1  0  0  0  0
 19 59  1  0  0  0  0
 19 60  1  0  0  0  0
 20 21  1  0  0  0  0
 20 22  1  0  0  0  0
 20 61  1  6  0  0  0
 21 62  1  0  0  0  0
 22 23  1  0  0  0  0
 22 63  1  0  0  0  0
 22 64  1  0  0  0  0
 23 24  1  0  0  0  0
 23 65  1  6  0  0  0
 24 25  2  0  0  0  0
 24 26  1  0  0  0  0
 26 27  1  0  0  0  0
 26 66  1  0  0  0  0
 27 28  1  0  0  0  0
 27 67  1  0  0  0  0
 27 68  1  0  0  0  0
 28 29  2  0  0  0  0
 28 31  1  0  0  0  0
 29 30  1  0  0  0  0
 29 69  1  0  0  0  0
 30 33  2  0  0  0  0
 30 70  1  0  0  0  0
 31 32  2  0  0  0  0
 31 71  1  0  0  0  0
 32 33  1  0  0  0  0
 32 72  1  0  0  0  0
 33 34  1  0  0  0  0
 34 35  1  0  0  0  0
 34 38  2  0  0  0  0
 35 36  1  0  0  0  0
 36 37  2  0  0  0  0
 36 73  1  0  0  0  0
 37 38  1  0  0  0  0
 38 39  1  0  0  0  0
 39 74  1  0  0  0  0
 39 75  1  0  0  0  0
 39 76  1  0  0  0  0
M  END
$$$$
