9H4
 OpenBabel04161912123D

103108  0  0  1  0  0  0  0  0999 V2000
  -13.6053  -15.4871   15.5684 C   0  0  0  0  0  0  0  0  0  0  0  0
  -12.8143  -18.3370   16.7589 C   0  0  0  0  0  0  0  0  0  0  0  0
  -15.5411  -24.5963   15.9737 C   0  0  0  0  0  0  0  0  0  0  0  0
  -14.4717  -25.4987   15.3811 C   0  0  0  0  0  0  0  0  0  0  0  0
  -12.2170  -22.6697   14.3521 C   0  0  2  0  0  0  0  0  0  0  0  0
  -12.9665  -20.7207   15.7098 C   0  0  0  0  0  0  0  0  0  0  0  0
  -10.9884  -23.2978   14.9638 C   0  0  0  0  0  0  0  0  0  0  0  0
  -15.0860  -18.4168   17.3245 C   0  0  0  0  0  0  0  0  0  0  0  0
  -17.2131  -20.3748   16.2625 C   0  0  2  0  0  0  0  0  0  0  0  0
  -16.5602  -22.2870   17.8358 C   0  0  0  0  0  0  0  0  0  0  0  0
  -15.5351  -24.5806   17.5059 C   0  0  0  0  0  0  0  0  0  0  0  0
  -13.4807  -25.0786   14.5535 C   0  0  0  0  0  0  0  0  0  0  0  0
  -13.3716  -23.6615   14.0633 C   0  0  2  0  0  0  0  0  0  0  0  0
  -12.5269  -23.1543   12.9371 C   0  0  0  0  0  0  0  0  0  0  0  0
  -14.8852  -15.3791   13.3446 C   0  0  0  0  0  0  0  0  0  0  0  0
  -13.8623  -14.8292   14.3619 C   0  0  0  0  0  0  0  0  0  0  0  0
  -13.9572  -17.3839   17.0733 C   0  0  2  0  0  0  0  0  0  0  0  0
  -13.5075  -19.2893   15.7314 C   0  0  1  0  0  0  0  0  0  0  0  0
  -15.8058  -20.2931   15.6126 C   0  0  0  0  0  0  0  0  0  0  0  0
  -17.4932  -21.8215   16.7170 C   0  0  0  0  0  0  0  0  0  0  0  0
  -16.7250  -23.7898   18.0786 C   0  0  0  0  0  0  0  0  0  0  0  0
   -8.1966  -22.0954   17.7131 C   0  0  0  0  0  0  0  0  0  0  0  0
   -7.1076  -21.1944   17.1923 C   0  0  0  0  0  0  0  0  0  0  0  0
   -6.7614  -22.3834   18.0658 C   0  0  0  0  0  0  0  0  0  0  0  0
  -18.4262  -18.7060   14.9486 C   0  0  0  0  0  0  0  0  0  0  0  0
  -19.7294  -17.3230   13.3425 C   0  0  0  0  0  0  0  0  0  0  0  0
  -20.6464  -17.5899   12.1312 C   0  0  0  0  0  0  0  0  0  0  0  0
  -18.5484  -16.4772   12.8550 C   0  0  0  0  0  0  0  0  0  0  0  0
  -20.5415  -16.5818   14.4127 C   0  0  0  0  0  0  0  0  0  0  0  0
  -11.9626  -13.8044   16.2148 C   0  0  0  0  0  0  0  0  0  0  0  0
  -11.0197  -13.2969   17.1608 C   0  0  0  0  0  0  0  0  0  0  0  0
  -10.2715  -12.1065   16.9532 C   0  0  0  0  0  0  0  0  0  0  0  0
   -8.9641  -12.4273   18.9926 C   0  0  0  0  0  0  0  0  0  0  0  0
  -10.4980  -11.3881   15.7472 C   0  0  0  0  0  0  0  0  0  0  0  0
  -11.4569  -11.8890   14.7827 C   0  0  0  0  0  0  0  0  0  0  0  0
  -12.2146  -13.1029   14.9864 C   0  0  0  0  0  0  0  0  0  0  0  0
   -9.1680  -21.5895   18.7311 C   0  0  0  0  0  0  0  0  0  0  0  0
  -14.8953  -19.4146   16.2316 N   0  0  0  0  0  0  0  0  0  0  0  0
  -12.4636  -21.2125   14.5333 N   0  0  0  0  0  0  0  0  0  0  0  0
  -10.1709  -22.4966   15.8226 N   0  0  0  0  0  0  0  0  0  0  0  0
  -18.2227  -19.9777   15.2803 N   0  0  0  0  0  0  0  0  0  0  0  0
  -12.6790  -14.9946   16.4647 N   0  0  0  0  0  0  0  0  0  0  0  0
  -13.1693  -13.6516   14.0814 N   0  0  0  0  0  0  0  0  0  0  0  0
  -14.3056  -16.6464   15.8688 O   0  0  0  0  0  0  0  0  0  0  0  0
  -15.5096  -21.0481   14.6724 O   0  0  0  0  0  0  0  0  0  0  0  0
  -13.1179  -21.4458   16.6877 O   0  0  0  0  0  0  0  0  0  0  0  0
  -10.6615  -24.4256   14.6059 O   0  0  0  0  0  0  0  0  0  0  0  0
   -7.9195  -23.5900   15.5085 O   0  0  0  0  0  0  0  0  0  0  0  0
   -9.4336  -24.3980   17.3597 O   0  0  0  0  0  0  0  0  0  0  0  0
  -17.9328  -17.7816   15.4928 O   0  0  0  0  0  0  0  0  0  0  0  0
  -19.2962  -18.6400   13.8455 O   0  0  0  0  0  0  0  0  0  0  0  0
   -9.3402  -11.5962   17.8638 O   0  0  0  0  0  0  0  0  0  0  0  0
   -8.8839  -23.3187   16.5570 S   0  0  0  0  0  0  0  0  0  0  0  0
  -12.5010  -18.8025   17.7136 H   0  0  0  0  0  0  0  0  0  0  0  0
  -11.9843  -17.7405   16.3627 H   0  0  0  0  0  0  0  0  0  0  0  0
  -16.5352  -24.8947   15.6168 H   0  0  0  0  0  0  0  0  0  0  0  0
  -15.4061  -23.5680   15.6392 H   0  0  0  0  0  0  0  0  0  0  0  0
  -14.5496  -26.5521   15.6664 H   0  0  0  0  0  0  0  0  0  0  0  0
  -16.0491  -17.9337   17.2642 H   0  0  0  0  0  0  0  0  0  0  0  0
  -14.9718  -18.9286   18.2955 H   0  0  0  0  0  0  0  0  0  0  0  0
  -17.2908  -19.7105   17.1263 H   0  0  0  0  0  0  0  0  0  0  0  0
  -16.7750  -21.7204   18.7493 H   0  0  0  0  0  0  0  0  0  0  0  0
  -15.5216  -22.0683   17.5726 H   0  0  0  0  0  0  0  0  0  0  0  0
  -14.5983  -24.1327   17.8635 H   0  0  0  0  0  0  0  0  0  0  0  0
  -15.5653  -25.6087   17.8785 H   0  0  0  0  0  0  0  0  0  0  0  0
  -12.7934  -25.8545   14.1867 H   0  0  0  0  0  0  0  0  0  0  0  0
  -14.3485  -23.2271   14.1013 H   0  0  0  0  0  0  0  0  0  0  0  0
  -11.7318  -23.7093   12.4581 H   0  0  0  0  0  0  0  0  0  0  0  0
  -12.9708  -22.4301   12.2585 H   0  0  0  0  0  0  0  0  0  0  0  0
  -14.9897  -14.7592   12.4406 H   0  0  0  0  0  0  0  0  0  0  0  0
  -15.8917  -15.4483   13.7781 H   0  0  0  0  0  0  0  0  0  0  0  0
  -14.6254  -16.3891   12.9891 H   0  0  0  0  0  0  0  0  0  0  0  0
  -13.6911  -16.7426   17.9272 H   0  0  0  0  0  0  0  0  0  0  0  0
  -13.5270  -18.8188   14.7430 H   0  0  0  0  0  0  0  0  0  0  0  0
  -17.4020  -22.4978   15.8558 H   0  0  0  0  0  0  0  0  0  0  0  0
  -18.5370  -21.9074   17.0546 H   0  0  0  0  0  0  0  0  0  0  0  0
  -17.6564  -24.1429   17.6187 H   0  0  0  0  0  0  0  0  0  0  0  0
  -16.8146  -23.9811   19.1555 H   0  0  0  0  0  0  0  0  0  0  0  0
   -7.0203  -20.1967   17.6123 H   0  0  0  0  0  0  0  0  0  0  0  0
   -6.8390  -21.2077   16.1425 H   0  0  0  0  0  0  0  0  0  0  0  0
   -6.2670  -23.2438   17.6222 H   0  0  0  0  0  0  0  0  0  0  0  0
   -6.4496  -22.2355   19.0918 H   0  0  0  0  0  0  0  0  0  0  0  0
  -21.0317  -16.6613   11.6874 H   0  0  0  0  0  0  0  0  0  0  0  0
  -21.5031  -18.2100   12.4198 H   0  0  0  0  0  0  0  0  0  0  0  0
  -20.1056  -18.1388   11.3506 H   0  0  0  0  0  0  0  0  0  0  0  0
  -17.8781  -16.2422   13.6809 H   0  0  0  0  0  0  0  0  0  0  0  0
  -18.8727  -15.5250   12.4156 H   0  0  0  0  0  0  0  0  0  0  0  0
  -17.9639  -17.0215   12.1061 H   0  0  0  0  0  0  0  0  0  0  0  0
  -21.3905  -17.1906   14.7445 H   0  0  0  0  0  0  0  0  0  0  0  0
  -20.9271  -15.6212   14.0498 H   0  0  0  0  0  0  0  0  0  0  0  0
  -19.9309  -16.3795   15.2964 H   0  0  0  0  0  0  0  0  0  0  0  0
  -10.8690  -13.8592   18.1022 H   0  0  0  0  0  0  0  0  0  0  0  0
   -8.2342  -11.9189   19.6489 H   0  0  0  0  0  0  0  0  0  0  0  0
   -8.4853  -13.3521   18.6481 H   0  0  0  0  0  0  0  0  0  0  0  0
   -9.8294  -12.6637   19.6242 H   0  0  0  0  0  0  0  0  0  0  0  0
   -9.9491  -10.4501   15.5331 H   0  0  0  0  0  0  0  0  0  0  0  0
  -11.6144  -11.3132   13.8441 H   0  0  0  0  0  0  0  0  0  0  0  0
   -8.6706  -20.8963   19.4223 H   0  0  0  0  0  0  0  0  0  0  0  0
   -9.5917  -22.3941   19.3391 H   0  0  0  0  0  0  0  0  0  0  0  0
   -9.9984  -21.0317   18.2816 H   0  0  0  0  0  0  0  0  0  0  0  0
  -12.3822  -20.6092   13.7225 H   0  0  0  0  0  0  0  0  0  0  0  0
  -10.5148  -21.5709   16.1230 H   0  0  0  0  0  0  0  0  0  0  0  0
  -18.6828  -20.7459   14.7816 H   0  0  0  0  0  0  0  0  0  0  0  0
  1 16  2  0  0  0  0
  1 42  1  0  0  0  0
  1 44  1  0  0  0  0
  2 17  1  0  0  0  0
  2 18  1  0  0  0  0
  2 54  1  0  0  0  0
  2 55  1  0  0  0  0
  3  4  1  0  0  0  0
  3 11  1  0  0  0  0
  3 56  1  0  0  0  0
  3 57  1  0  0  0  0
  4 12  2  0  0  0  0
  4 58  1  0  0  0  0
  5  7  1  1  0  0  0
  5 13  1  0  0  0  0
  5 14  1  0  0  0  0
  5 39  1  0  0  0  0
  6 18  1  0  0  0  0
  6 39  1  0  0  0  0
  6 46  2  0  0  0  0
  7 40  1  0  0  0  0
  7 47  2  0  0  0  0
  8 17  1  0  0  0  0
  8 38  1  0  0  0  0
  8 59  1  0  0  0  0
  8 60  1  0  0  0  0
  9 19  1  0  0  0  0
  9 20  1  0  0  0  0
  9 41  1  0  0  0  0
  9 61  1  1  0  0  0
 10 20  1  0  0  0  0
 10 21  1  0  0  0  0
 10 62  1  0  0  0  0
 10 63  1  0  0  0  0
 11 21  1  0  0  0  0
 11 64  1  0  0  0  0
 11 65  1  0  0  0  0
 12 13  1  0  0  0  0
 12 66  1  0  0  0  0
 13 14  1  0  0  0  0
 13 67  1  1  0  0  0
 14 68  1  0  0  0  0
 14 69  1  0  0  0  0
 15 16  1  0  0  0  0
 15 70  1  0  0  0  0
 15 71  1  0  0  0  0
 15 72  1  0  0  0  0
 16 43  1  0  0  0  0
 17 44  1  0  0  0  0
 17 73  1  1  0  0  0
 18 38  1  0  0  0  0
 18 74  1  6  0  0  0
 19 38  1  0  0  0  0
 19 45  2  0  0  0  0
 20 75  1  0  0  0  0
 20 76  1  0  0  0  0
 21 77  1  0  0  0  0
 21 78  1  0  0  0  0
 22 23  1  0  0  0  0
 22 24  1  0  0  0  0
 22 37  1  0  0  0  0
 22 53  1  0  0  0  0
 23 24  1  0  0  0  0
 23 79  1  0  0  0  0
 23 80  1  0  0  0  0
 24 81  1  0  0  0  0
 24 82  1  0  0  0  0
 25 41  1  0  0  0  0
 25 50  2  0  0  0  0
 25 51  1  0  0  0  0
 26 27  1  0  0  0  0
 26 28  1  0  0  0  0
 26 29  1  0  0  0  0
 26 51  1  0  0  0  0
 27 83  1  0  0  0  0
 27 84  1  0  0  0  0
 27 85  1  0  0  0  0
 28 86  1  0  0  0  0
 28 87  1  0  0  0  0
 28 88  1  0  0  0  0
 29 89  1  0  0  0  0
 29 90  1  0  0  0  0
 29 91  1  0  0  0  0
 30 31  1  0  0  0  0
 30 36  1  0  0  0  0
 30 42  2  0  0  0  0
 31 32  2  0  0  0  0
 31 92  1  0  0  0  0
 32 34  1  0  0  0  0
 32 52  1  0  0  0  0
 33 52  1  0  0  0  0
 33 93  1  0  0  0  0
 33 94  1  0  0  0  0
 33 95  1  0  0  0  0
 34 35  2  0  0  0  0
 34 96  1  0  0  0  0
 35 36  1  0  0  0  0
 35 97  1  0  0  0  0
 36 43  2  0  0  0  0
 37 98  1  0  0  0  0
 37 99  1  0  0  0  0
 37100  1  0  0  0  0
 39101  1  0  0  0  0
 40 53  1  0  0  0  0
 40102  1  0  0  0  0
 41103  1  0  0  0  0
 48 53  2  0  0  0  0
 49 53  2  0  0  0  0
M  END
$$$$
