9H7
 OpenBabel04161912133D

111117  0  0  1  0  0  0  0  0999 V2000
  -12.9892  -14.2264   14.8631 C   0  0  2  0  0  0  0  0  0  0  0  0
  -13.8172  -17.3017   17.0339 C   0  0  1  0  0  0  0  0  0  0  0  0
  -13.5141  -19.2208   15.5877 C   0  0  1  0  0  0  0  0  0  0  0  0
  -15.8702  -20.0628   15.6517 C   0  0  0  0  0  0  0  0  0  0  0  0
  -16.6741  -23.2815   18.4756 C   0  0  0  0  0  0  0  0  0  0  0  0
  -15.7718  -24.3219   16.3664 C   0  0  0  0  0  0  0  0  0  0  0  0
  -14.7847  -25.2812   15.7795 C   0  0  0  0  0  0  0  0  0  0  0  0
  -15.1025  -18.0910   17.0975 C   0  0  0  0  0  0  0  0  0  0  0  0
  -17.2897  -20.0810   16.2473 C   0  0  2  0  0  0  0  0  0  0  0  0
  -16.4978  -21.8367   17.9677 C   0  0  0  0  0  0  0  0  0  0  0  0
  -15.6176  -24.2209   17.8796 C   0  0  0  0  0  0  0  0  0  0  0  0
  -13.7241  -24.9181   15.0410 C   0  0  0  0  0  0  0  0  0  0  0  0
  -13.4447  -23.5698   14.5341 C   0  0  2  0  0  0  0  0  0  0  0  0
  -12.6855  -23.6466   13.2448 C   0  0  0  0  0  0  0  0  0  0  0  0
  -14.2414  -13.2188   12.7326 C   0  0  0  0  0  0  0  0  0  0  0  0
  -13.9973  -14.1872   13.7072 C   0  0  0  0  0  0  0  0  0  0  0  0
  -12.9720  -15.2874   16.0427 C   0  0  1  0  0  0  0  0  0  0  0  0
  -12.7692  -18.3549   16.6152 C   0  0  0  0  0  0  0  0  0  0  0  0
  -17.5583  -21.4446   16.9197 C   0  0  0  0  0  0  0  0  0  0  0  0
  -12.1766  -22.7496   14.3588 C   0  0  2  0  0  0  0  0  0  0  0  0
  -12.9744  -20.6755   15.5958 C   0  0  0  0  0  0  0  0  0  0  0  0
  -10.9296  -23.2298   14.9510 C   0  0  0  0  0  0  0  0  0  0  0  0
   -8.0832  -21.9072   17.5441 C   0  0  0  0  0  0  0  0  0  0  0  0
   -6.8506  -21.3066   16.9267 C   0  0  0  0  0  0  0  0  0  0  0  0
   -6.7237  -22.3160   18.0412 C   0  0  0  0  0  0  0  0  0  0  0  0
  -18.4224  -18.6159   14.6106 C   0  0  0  0  0  0  0  0  0  0  0  0
  -19.9487  -17.2562   13.1960 C   0  0  0  0  0  0  0  0  0  0  0  0
  -20.5546  -16.5533   14.4212 C   0  0  0  0  0  0  0  0  0  0  0  0
  -21.0897  -17.4973   12.1937 C   0  0  0  0  0  0  0  0  0  0  0  0
  -18.9142  -16.3359   12.5162 C   0  0  0  0  0  0  0  0  0  0  0  0
  -11.5619  -13.8014   17.4928 C   0  0  1  0  0  0  0  0  0  0  0  0
  -10.5492  -13.7681   18.6487 C   0  0  0  0  0  0  0  0  0  0  0  0
   -9.6406  -12.5485   18.7796 C   0  0  0  0  0  0  0  0  0  0  0  0
   -9.5796  -11.5122   17.6713 C   0  0  0  0  0  0  0  0  0  0  0  0
  -10.4196  -11.6708   16.4044 C   0  0  0  0  0  0  0  0  0  0  0  0
  -11.4950  -12.7408   16.4049 C   0  0  1  0  0  0  0  0  0  0  0  0
  -15.0806  -13.6968   11.6611 C   0  0  0  0  0  0  0  0  0  0  0  0
  -15.4401  -15.0073   11.8422 C   0  0  0  0  0  0  0  0  0  0  0  0
  -14.9302  -19.1588   16.1006 N   0  0  0  0  0  0  0  0  0  0  0  0
  -12.4367  -21.2213   14.4262 N   0  0  0  0  0  0  0  0  0  0  0  0
  -10.1785  -22.4362   15.7819 N   0  0  0  0  0  0  0  0  0  0  0  0
  -18.2521  -19.8530   15.0619 N   0  0  0  0  0  0  0  0  0  0  0  0
  -12.3050  -15.0428   17.3336 N   0  0  0  0  0  0  0  0  0  0  0  0
  -12.1768  -12.9706   15.0889 N   0  3  0  0  0  0  0  0  0  0  0  0
  -14.0496  -16.2092   16.1208 O   0  0  0  0  0  0  0  0  0  0  0  0
  -15.5650  -20.8863   14.7816 O   0  0  0  0  0  0  0  0  0  0  0  0
  -13.0379  -21.3533   16.6256 O   0  0  0  0  0  0  0  0  0  0  0  0
  -10.5157  -24.3954   14.6713 O   0  0  0  0  0  0  0  0  0  0  0  0
   -7.9818  -23.5427   15.4896 O   0  0  0  0  0  0  0  0  0  0  0  0
   -9.4502  -24.1293   17.4750 O   0  0  0  0  0  0  0  0  0  0  0  0
  -17.9171  -17.6181   15.0395 O   0  0  0  0  0  0  0  0  0  0  0  0
  -19.4045  -18.5605   13.5699 O   0  0  0  0  0  0  0  0  0  0  0  0
   -8.9120  -23.1732   16.5428 S   0  0  0  0  0  0  0  0  0  0  0  0
  -14.7722  -15.6637   13.2572 S   0  0  0  0  0  0  0  0  0  0  0  0
  -12.2261  -14.7341   14.2758 H   0  0  0  0  0  0  0  0  0  0  0  0
  -13.6282  -16.8676   18.0167 H   0  0  0  0  0  0  0  0  0  0  0  0
  -13.3891  -18.7361   14.6072 H   0  0  0  0  0  0  0  0  0  0  0  0
  -17.6744  -23.6570   18.2329 H   0  0  0  0  0  0  0  0  0  0  0  0
  -16.5907  -23.3044   19.5708 H   0  0  0  0  0  0  0  0  0  0  0  0
  -16.7935  -24.6105   16.0999 H   0  0  0  0  0  0  0  0  0  0  0  0
  -15.6391  -23.3272   15.9419 H   0  0  0  0  0  0  0  0  0  0  0  0
  -14.9597  -26.3421   15.9582 H   0  0  0  0  0  0  0  0  0  0  0  0
  -15.9666  -17.4486   16.8760 H   0  0  0  0  0  0  0  0  0  0  0  0
  -15.2171  -18.4827   18.1214 H   0  0  0  0  0  0  0  0  0  0  0  0
  -17.4410  -19.2810   16.9718 H   0  0  0  0  0  0  0  0  0  0  0  0
  -15.4953  -21.7409   17.5438 H   0  0  0  0  0  0  0  0  0  0  0  0
  -16.5347  -21.1404   18.8132 H   0  0  0  0  0  0  0  0  0  0  0  0
  -15.7024  -25.2187   18.3244 H   0  0  0  0  0  0  0  0  0  0  0  0
  -14.6134  -23.8467   18.1274 H   0  0  0  0  0  0  0  0  0  0  0  0
  -13.1068  -25.7354   14.6610 H   0  0  0  0  0  0  0  0  0  0  0  0
  -14.2777  -22.8960   14.6606 H   0  0  0  0  0  0  0  0  0  0  0  0
  -13.2265  -23.4274   12.3424 H   0  0  0  0  0  0  0  0  0  0  0  0
  -12.1375  -24.5969   13.1021 H   0  0  0  0  0  0  0  0  0  0  0  0
  -13.8145  -12.2141   12.7460 H   0  0  0  0  0  0  0  0  0  0  0  0
  -12.2257  -15.9412   15.6247 H   0  0  0  0  0  0  0  0  0  0  0  0
  -12.4665  -18.9718   17.4783 H   0  0  0  0  0  0  0  0  0  0  0  0
  -11.8492  -17.9313   16.1982 H   0  0  0  0  0  0  0  0  0  0  0  0
  -17.6224  -22.2366   16.1647 H   0  0  0  0  0  0  0  0  0  0  0  0
  -18.5441  -21.4426   17.4120 H   0  0  0  0  0  0  0  0  0  0  0  0
   -8.7245  -21.3054   18.1661 H   0  0  0  0  0  0  0  0  0  0  0  0
   -6.6021  -20.2742   17.1418 H   0  0  0  0  0  0  0  0  0  0  0  0
   -6.5524  -21.6003   15.9242 H   0  0  0  0  0  0  0  0  0  0  0  0
   -6.3601  -23.3144   17.8118 H   0  0  0  0  0  0  0  0  0  0  0  0
   -6.4062  -21.9758   19.0202 H   0  0  0  0  0  0  0  0  0  0  0  0
  -20.9942  -15.5834   14.1686 H   0  0  0  0  0  0  0  0  0  0  0  0
  -19.8102  -16.3652   15.1972 H   0  0  0  0  0  0  0  0  0  0  0  0
  -21.3248  -17.1856   14.8746 H   0  0  0  0  0  0  0  0  0  0  0  0
  -20.7277  -17.9741   11.2790 H   0  0  0  0  0  0  0  0  0  0  0  0
  -21.5887  -16.5563   11.9051 H   0  0  0  0  0  0  0  0  0  0  0  0
  -21.8482  -18.1557   12.6223 H   0  0  0  0  0  0  0  0  0  0  0  0
  -18.0752  -16.1117   13.1792 H   0  0  0  0  0  0  0  0  0  0  0  0
  -19.3545  -15.3725   12.2234 H   0  0  0  0  0  0  0  0  0  0  0  0
  -18.4978  -16.7984   11.6160 H   0  0  0  0  0  0  0  0  0  0  0  0
  -12.3613  -13.3223   18.0621 H   0  0  0  0  0  0  0  0  0  0  0  0
   -9.9415  -14.6770   18.7329 H   0  0  0  0  0  0  0  0  0  0  0  0
  -11.1655  -13.7685   19.5674 H   0  0  0  0  0  0  0  0  0  0  0  0
   -8.6190  -12.9118   18.9549 H   0  0  0  0  0  0  0  0  0  0  0  0
   -9.8875  -12.0250   19.7167 H   0  0  0  0  0  0  0  0  0  0  0  0
   -8.5303  -11.4191   17.3609 H   0  0  0  0  0  0  0  0  0  0  0  0
   -9.8055  -10.5313   18.1191 H   0  0  0  0  0  0  0  0  0  0  0  0
   -9.7600  -11.6950   15.5334 H   0  0  0  0  0  0  0  0  0  0  0  0
  -10.9804  -10.7248   16.3085 H   0  0  0  0  0  0  0  0  0  0  0  0
  -12.2848  -12.1157   16.8019 H   0  0  0  0  0  0  0  0  0  0  0  0
  -15.4141  -13.1275   10.7920 H   0  0  0  0  0  0  0  0  0  0  0  0
  -16.0644  -15.6480   11.2250 H   0  0  0  0  0  0  0  0  0  0  0  0
  -12.4045  -20.6818   13.5645 H   0  0  0  0  0  0  0  0  0  0  0  0
  -10.5448  -21.5250   16.0851 H   0  0  0  0  0  0  0  0  0  0  0  0
  -18.7652  -20.6403   14.7453 H   0  0  0  0  0  0  0  0  0  0  0  0
  -12.9967  -15.0777   18.0913 H   0  0  0  0  0  0  0  0  0  0  0  0
  -11.5235  -12.9529   14.3002 H   0  0  0  0  0  0  0  0  0  0  0  0
  -12.8063  -12.1695   14.9624 H   0  0  0  0  0  0  0  0  0  0  0  0
  1 16  1  0  0  0  0
  1 17  1  0  0  0  0
  1 44  1  0  0  0  0
  1 55  1  6  0  0  0
  2  8  1  0  0  0  0
  2 18  1  0  0  0  0
  2 45  1  0  0  0  0
  2 56  1  1  0  0  0
  3 18  1  0  0  0  0
  3 21  1  0  0  0  0
  3 39  1  0  0  0  0
  3 57  1  6  0  0  0
  4  9  1  0  0  0  0
  4 39  1  0  0  0  0
  4 46  2  0  0  0  0
  5 10  1  0  0  0  0
  5 11  1  0  0  0  0
  5 58  1  0  0  0  0
  5 59  1  0  0  0  0
  6  7  1  0  0  0  0
  6 11  1  0  0  0  0
  6 60  1  0  0  0  0
  6 61  1  0  0  0  0
  7 12  2  0  0  0  0
  7 62  1  0  0  0  0
  8 39  1  0  0  0  0
  8 63  1  0  0  0  0
  8 64  1  0  0  0  0
  9 19  1  0  0  0  0
  9 42  1  0  0  0  0
  9 65  1  1  0  0  0
 10 19  1  0  0  0  0
 10 66  1  0  0  0  0
 10 67  1  0  0  0  0
 11 68  1  0  0  0  0
 11 69  1  0  0  0  0
 12 13  1  0  0  0  0
 12 70  1  0  0  0  0
 13 14  1  0  0  0  0
 13 20  1  0  0  0  0
 13 71  1  6  0  0  0
 14 20  1  0  0  0  0
 14 72  1  0  0  0  0
 14 73  1  0  0  0  0
 15 16  2  0  0  0  0
 15 37  1  0  0  0  0
 15 74  1  0  0  0  0
 16 54  1  0  0  0  0
 17 43  1  0  0  0  0
 17 45  1  0  0  0  0
 17 75  1  6  0  0  0
 18 76  1  0  0  0  0
 18 77  1  0  0  0  0
 19 78  1  0  0  0  0
 19 79  1  0  0  0  0
 20 22  1  1  0  0  0
 20 40  1  0  0  0  0
 21 40  1  0  0  0  0
 21 47  2  0  0  0  0
 22 41  1  0  0  0  0
 22 48  2  0  0  0  0
 23 24  1  0  0  0  0
 23 25  1  0  0  0  0
 23 53  1  0  0  0  0
 23 80  1  0  0  0  0
 24 25  1  0  0  0  0
 24 81  1  0  0  0  0
 24 82  1  0  0  0  0
 25 83  1  0  0  0  0
 25 84  1  0  0  0  0
 26 42  1  0  0  0  0
 26 51  2  0  0  0  0
 26 52  1  0  0  0  0
 27 28  1  0  0  0  0
 27 29  1  0  0  0  0
 27 30  1  0  0  0  0
 27 52  1  0  0  0  0
 28 85  1  0  0  0  0
 28 86  1  0  0  0  0
 28 87  1  0  0  0  0
 29 88  1  0  0  0  0
 29 89  1  0  0  0  0
 29 90  1  0  0  0  0
 30 91  1  0  0  0  0
 30 92  1  0  0  0  0
 30 93  1  0  0  0  0
 31 32  1  0  0  0  0
 31 36  1  0  0  0  0
 31 43  1  0  0  0  0
 31 94  1  1  0  0  0
 32 33  1  0  0  0  0
 32 95  1  0  0  0  0
 32 96  1  0  0  0  0
 33 34  1  0  0  0  0
 33 97  1  0  0  0  0
 33 98  1  0  0  0  0
 34 35  1  0  0  0  0
 34 99  1  0  0  0  0
 34100  1  0  0  0  0
 35 36  1  0  0  0  0
 35101  1  0  0  0  0
 35102  1  0  0  0  0
 36 44  1  0  0  0  0
 36103  1  1  0  0  0
 37 38  2  0  0  0  0
 37104  1  0  0  0  0
 38 54  1  0  0  0  0
 38105  1  0  0  0  0
 40106  1  0  0  0  0
 41 53  1  0  0  0  0
 41107  1  0  0  0  0
 42108  1  0  0  0  0
 43109  1  0  0  0  0
 44110  1  0  0  0  0
 44111  1  0  0  0  0
 49 53  2  0  0  0  0
 50 53  2  0  0  0  0
M  CHG  1  44   1
M  END
$$$$
