9HH
 OpenBabel04161911393D

 40 43  0  0  1  0  0  0  0  0999 V2000
   24.3356  -20.0183  -21.7396 O   0  0  0  0  0  0  0  0  0  0  0  0
   23.9138  -18.6917  -21.3465 S   0  0  0  0  0  0  0  0  0  0  0  0
   24.5744  -17.9663  -20.2858 O   0  0  0  0  0  0  0  0  0  0  0  0
   23.9319  -17.6620  -22.7965 C   0  0  0  0  0  0  0  0  0  0  0  0
   22.2717  -18.7060  -20.9892 N   0  0  0  0  0  0  0  0  0  0  0  0
   21.7154  -19.8983  -20.4563 C   0  0  0  0  0  0  0  0  0  0  0  0
   21.1128  -20.8224  -21.3277 C   0  0  0  0  0  0  0  0  0  0  0  0
   20.6272  -22.0277  -20.7834 C   0  0  0  0  0  0  0  0  0  0  0  0
   20.7424  -22.2999  -19.4225 C   0  0  0  0  0  0  0  0  0  0  0  0
   21.3172  -21.3682  -18.5752 C   0  0  0  0  0  0  0  0  0  0  0  0
   21.8054  -20.1597  -19.0864 C   0  0  0  0  0  0  0  0  0  0  0  0
   20.9957  -20.5804  -22.7698 C   0  0  1  0  0  0  0  0  0  0  0  0
   20.3349  -19.4645  -23.3032 C   0  0  0  0  0  0  0  0  0  0  0  0
   20.2216  -19.2647  -24.6712 C   0  0  0  0  0  0  0  0  0  0  0  0
   20.7694  -20.1918  -25.5682 C   0  0  0  0  0  0  0  0  0  0  0  0
   21.4636  -21.3153  -25.0748 C   0  0  2  0  0  0  0  0  0  0  0  0
   21.5627  -21.4789  -23.6955 C   0  0  1  0  0  0  0  0  0  0  0  0
   22.1494  -22.4122  -25.6893 C   0  0  2  0  0  0  0  0  0  0  0  0
   22.6729  -23.2039  -24.6660 C   0  0  2  0  0  0  0  0  0  0  0  0
   22.3070  -22.6185  -23.4826 N   0  3  0  0  0  0  0  0  0  0  0  0
   22.3957  -22.7989  -27.0219 C   0  0  0  0  0  0  0  0  0  0  0  0
   23.1746  -23.9341  -27.2769 C   0  0  0  0  0  0  0  0  0  0  0  0
   23.6911  -24.6934  -26.2293 C   0  0  0  0  0  0  0  0  0  0  0  0
   23.4354  -24.3520  -24.9000 C   0  0  0  0  0  0  0  0  0  0  0  0
   23.3787  -18.1513  -23.6023 H   0  0  0  0  0  0  0  0  0  0  0  0
   24.9754  -17.5201  -23.0888 H   0  0  0  0  0  0  0  0  0  0  0  0
   23.4900  -16.6921  -22.5453 H   0  0  0  0  0  0  0  0  0  0  0  0
   21.7647  -17.8296  -20.9002 H   0  0  0  0  0  0  0  0  0  0  0  0
   20.1621  -22.7647  -21.4391 H   0  0  0  0  0  0  0  0  0  0  0  0
   20.3766  -23.2519  -19.0356 H   0  0  0  0  0  0  0  0  0  0  0  0
   21.4016  -21.5827  -17.5081 H   0  0  0  0  0  0  0  0  0  0  0  0
   22.2733  -19.4449  -18.4145 H   0  0  0  0  0  0  0  0  0  0  0  0
   19.8874  -18.7320  -22.6252 H   0  0  0  0  0  0  0  0  0  0  0  0
   19.6965  -18.3912  -25.0537 H   0  0  0  0  0  0  0  0  0  0  0  0
   20.6642  -20.0371  -26.6374 H   0  0  0  0  0  0  0  0  0  0  0  0
   22.5718  -22.9585  -22.5692 H   0  0  0  0  0  0  0  0  0  0  0  0
   21.9988  -22.2120  -27.8453 H   0  0  0  0  0  0  0  0  0  0  0  0
   23.3851  -24.2192  -28.3037 H   0  0  0  0  0  0  0  0  0  0  0  0
   24.3079  -25.5628  -26.4463 H   0  0  0  0  0  0  0  0  0  0  0  0
   23.8334  -24.9445  -24.0829 H   0  0  0  0  0  0  0  0  0  0  0  0
  1  2  2  0  0  0  0
  2  3  2  0  0  0  0
  2  4  1  0  0  0  0
  2  5  1  0  0  0  0
  4 25  1  0  0  0  0
  4 26  1  0  0  0  0
  4 27  1  0  0  0  0
  5  6  1  0  0  0  0
  5 28  1  0  0  0  0
  6  7  2  0  0  0  0
  6 11  1  0  0  0  0
  7  8  1  0  0  0  0
  8  9  2  0  0  0  0
  8 29  1  0  0  0  0
  9 10  1  0  0  0  0
  9 30  1  0  0  0  0
 10 11  2  0  0  0  0
 10 31  1  0  0  0  0
 11 32  1  0  0  0  0
 12  7  1  1  0  0  0
 12 13  1  0  0  0  0
 12 17  1  0  0  0  0
 13 14  1  0  0  0  0
 13 33  1  0  0  0  0
 14 15  1  0  0  0  0
 14 34  1  0  0  0  0
 15 35  1  0  0  0  0
 16 15  1  1  0  0  0
 16 17  1  0  0  0  0
 16 18  1  0  0  0  0
 17 20  1  1  0  0  0
 18 19  1  0  0  0  0
 18 21  1  6  0  0  0
 19 20  1  1  0  0  0
 19 24  1  0  0  0  0
 20 36  1  0  0  0  0
 21 22  1  0  0  0  0
 21 37  1  0  0  0  0
 22 23  1  0  0  0  0
 22 38  1  0  0  0  0
 23 24  1  0  0  0  0
 23 39  1  0  0  0  0
 24 40  1  0  0  0  0
M  CHG  1  20   1
M  END
$$$$
