9S3
 OpenBabel04161909343D

 70 74  0  0  1  0  0  0  0  0999 V2000
   -3.6692   -9.9392   17.9719 O   0  0  0  0  0  0  0  0  0  0  0  0
   -3.3491   -8.9494   18.6397 C   0  0  0  0  0  0  0  0  0  0  0  0
   -4.2084   -7.7103   18.5214 C   0  0  0  0  0  0  0  0  0  0  0  0
   -2.2892   -8.9927   19.5440 N   0  0  0  0  0  0  0  0  0  0  0  0
   -1.6218  -10.3001   19.7629 C   0  0  1  0  0  0  0  0  0  0  0  0
   -0.5404  -10.5119   18.6958 C   0  0  0  0  0  0  0  0  0  0  0  0
   -1.7684   -7.8945   20.2756 C   0  0  0  0  0  0  0  0  0  0  0  0
   -1.4254   -8.1148   21.6171 C   0  0  0  0  0  0  0  0  0  0  0  0
   -1.6785   -9.5124   22.1548 C   0  0  2  0  0  0  0  0  0  0  0  0
   -1.1505   -9.7168   23.4968 N   0  0  0  0  0  0  0  0  0  0  0  0
   -1.8435   -9.4233   24.6598 C   0  0  0  0  0  0  0  0  0  0  0  0
   -1.1399   -9.3231   25.8656 C   0  0  0  0  0  0  0  0  0  0  0  0
   -1.7778   -8.9695   27.0568 C   0  0  0  0  0  0  0  0  0  0  0  0
   -3.1488   -8.7093   27.0668 C   0  0  0  0  0  0  0  0  0  0  0  0
   -3.8671   -8.7945   25.8805 C   0  0  0  0  0  0  0  0  0  0  0  0
   -3.2194   -9.1372   24.6893 C   0  0  0  0  0  0  0  0  0  0  0  0
   -1.0252  -10.4835   21.1746 C   0  0  0  0  0  0  0  0  0  0  0  0
   -1.5686   -6.6368   19.7093 C   0  0  0  0  0  0  0  0  0  0  0  0
   -1.0846   -5.5796   20.4872 C   0  0  0  0  0  0  0  0  0  0  0  0
   -0.7738   -5.7494   21.8453 C   0  0  0  0  0  0  0  0  0  0  0  0
   -0.9474   -7.0378   22.3867 C   0  0  0  0  0  0  0  0  0  0  0  0
   -0.2820   -4.6215   22.6718 C   0  0  0  0  0  0  0  0  0  0  0  0
   -0.7396   -3.3050   22.4765 C   0  0  0  0  0  0  0  0  0  0  0  0
   -0.2687   -2.2346   23.2500 C   0  0  0  0  0  0  0  0  0  0  0  0
    0.6560   -2.4563   24.2712 C   0  0  0  0  0  0  0  0  0  0  0  0
    1.1051   -3.7690   24.4935 C   0  0  0  0  0  0  0  0  0  0  0  0
    0.6583   -4.8239   23.6936 C   0  0  0  0  0  0  0  0  0  0  0  0
    1.1882   -1.3308   25.1120 C   0  0  0  0  0  0  0  0  0  0  0  0
    2.4885   -0.7057   24.6221 N   0  3  0  0  0  0  0  0  0  0  0  0
    2.9907    0.2810   25.6525 C   0  0  0  0  0  0  0  0  0  0  0  0
    4.2576    0.9681   25.1692 C   0  0  0  0  0  0  0  0  0  0  0  0
    5.3335   -0.0378   24.7822 C   0  0  0  0  0  0  0  0  0  0  0  0
    4.8029   -1.0227   23.7530 C   0  0  0  0  0  0  0  0  0  0  0  0
    3.5425   -1.7197   24.2392 C   0  0  0  0  0  0  0  0  0  0  0  0
   -3.9578   -6.9019   19.2029 H   0  0  0  0  0  0  0  0  0  0  0  0
   -5.2439   -7.9854   18.7462 H   0  0  0  0  0  0  0  0  0  0  0  0
   -4.1499   -7.3442   17.4925 H   0  0  0  0  0  0  0  0  0  0  0  0
   -2.3783  -11.0840   19.6295 H   0  0  0  0  0  0  0  0  0  0  0  0
   -0.0525  -11.4842   18.8144 H   0  0  0  0  0  0  0  0  0  0  0  0
    0.2297   -9.7333   18.7585 H   0  0  0  0  0  0  0  0  0  0  0  0
   -0.9648  -10.4646   17.6873 H   0  0  0  0  0  0  0  0  0  0  0  0
   -2.7557   -9.7088   22.1354 H   0  0  0  0  0  0  0  0  0  0  0  0
   -0.2092  -10.0786   23.5833 H   0  0  0  0  0  0  0  0  0  0  0  0
   -0.0694   -9.5081   25.8849 H   0  0  0  0  0  0  0  0  0  0  0  0
   -1.2105   -8.9001   27.9788 H   0  0  0  0  0  0  0  0  0  0  0  0
   -3.6495   -8.4465   27.9883 H   0  0  0  0  0  0  0  0  0  0  0  0
   -4.9376   -8.5988   25.8741 H   0  0  0  0  0  0  0  0  0  0  0  0
   -3.8289   -9.1886   23.7954 H   0  0  0  0  0  0  0  0  0  0  0  0
    0.0641  -10.3357   21.1605 H   0  0  0  0  0  0  0  0  0  0  0  0
   -1.1795  -11.5210   21.5001 H   0  0  0  0  0  0  0  0  0  0  0  0
   -1.7640   -6.4624   18.6545 H   0  0  0  0  0  0  0  0  0  0  0  0
   -0.9492   -4.6153   20.0026 H   0  0  0  0  0  0  0  0  0  0  0  0
   -0.7315   -7.2078   23.4391 H   0  0  0  0  0  0  0  0  0  0  0  0
   -1.4944   -3.0980   21.7195 H   0  0  0  0  0  0  0  0  0  0  0  0
   -0.6635   -1.2382   23.0509 H   0  0  0  0  0  0  0  0  0  0  0  0
    1.8173   -3.9938   25.2847 H   0  0  0  0  0  0  0  0  0  0  0  0
    1.0609   -5.8190   23.8807 H   0  0  0  0  0  0  0  0  0  0  0  0
    1.3621   -1.6813   26.1373 H   0  0  0  0  0  0  0  0  0  0  0  0
    0.4546   -0.5180   25.1625 H   0  0  0  0  0  0  0  0  0  0  0  0
    3.1739   -0.2775   26.5778 H   0  0  0  0  0  0  0  0  0  0  0  0
    2.1949    1.0138   25.8221 H   0  0  0  0  0  0  0  0  0  0  0  0
    4.6405    1.6207   25.9622 H   0  0  0  0  0  0  0  0  0  0  0  0
    4.0267    1.6093   24.3105 H   0  0  0  0  0  0  0  0  0  0  0  0
    5.6678   -0.5832   25.6734 H   0  0  0  0  0  0  0  0  0  0  0  0
    6.2074    0.4859   24.3794 H   0  0  0  0  0  0  0  0  0  0  0  0
    5.5693   -1.7746   23.5337 H   0  0  0  0  0  0  0  0  0  0  0  0
    4.5944   -0.4972   22.8130 H   0  0  0  0  0  0  0  0  0  0  0  0
    3.1470   -2.3297   23.4226 H   0  0  0  0  0  0  0  0  0  0  0  0
    3.7389   -2.3409   25.1197 H   0  0  0  0  0  0  0  0  0  0  0  0
    2.2494   -0.1886   23.7654 H   0  0  0  0  0  0  0  0  0  0  0  0
  1  2  2  0  0  0  0
  2  3  1  0  0  0  0
  2  4  1  0  0  0  0
  3 35  1  0  0  0  0
  3 36  1  0  0  0  0
  3 37  1  0  0  0  0
  4  5  1  0  0  0  0
  4  7  1  0  0  0  0
  5  6  1  0  0  0  0
  5 17  1  0  0  0  0
  5 38  1  6  0  0  0
  6 39  1  0  0  0  0
  6 40  1  0  0  0  0
  6 41  1  0  0  0  0
  7  8  2  0  0  0  0
  7 18  1  0  0  0  0
  8  9  1  0  0  0  0
  8 21  1  0  0  0  0
  9 10  1  0  0  0  0
  9 17  1  0  0  0  0
  9 42  1  1  0  0  0
 10 11  1  0  0  0  0
 10 43  1  0  0  0  0
 11 12  2  0  0  0  0
 11 16  1  0  0  0  0
 12 13  1  0  0  0  0
 12 44  1  0  0  0  0
 13 14  2  0  0  0  0
 13 45  1  0  0  0  0
 14 15  1  0  0  0  0
 14 46  1  0  0  0  0
 15 16  2  0  0  0  0
 15 47  1  0  0  0  0
 16 48  1  0  0  0  0
 17 49  1  0  0  0  0
 17 50  1  0  0  0  0
 18 19  2  0  0  0  0
 18 51  1  0  0  0  0
 19 20  1  0  0  0  0
 19 52  1  0  0  0  0
 20 21  2  0  0  0  0
 20 22  1  0  0  0  0
 21 53  1  0  0  0  0
 22 23  2  0  0  0  0
 22 27  1  0  0  0  0
 23 24  1  0  0  0  0
 23 54  1  0  0  0  0
 24 25  2  0  0  0  0
 24 55  1  0  0  0  0
 25 26  1  0  0  0  0
 25 28  1  0  0  0  0
 26 27  2  0  0  0  0
 26 56  1  0  0  0  0
 27 57  1  0  0  0  0
 28 29  1  0  0  0  0
 28 58  1  0  0  0  0
 28 59  1  0  0  0  0
 29 30  1  0  0  0  0
 29 34  1  0  0  0  0
 29 70  1  0  0  0  0
 30 31  1  0  0  0  0
 30 60  1  0  0  0  0
 30 61  1  0  0  0  0
 31 32  1  0  0  0  0
 31 62  1  0  0  0  0
 31 63  1  0  0  0  0
 32 33  1  0  0  0  0
 32 64  1  0  0  0  0
 32 65  1  0  0  0  0
 33 34  1  0  0  0  0
 33 66  1  0  0  0  0
 33 67  1  0  0  0  0
 34 68  1  0  0  0  0
 34 69  1  0  0  0  0
M  CHG  1  29   1
M  END
$$$$
