9ZA
 OpenBabel04161912143D

 49 51  0  0  1  0  0  0  0  0999 V2000
  -30.9986    3.7624  -22.5806 O   0  0  0  0  0  0  0  0  0  0  0  0
  -31.5927    3.8069  -23.9575 P   0  0  2  0  0  0  0  0  0  0  0  0
  -32.3839    2.6829  -24.5594 O   0  0  0  0  0  0  0  0  0  0  0  0
  -30.4239    4.2353  -24.9850 O   0  0  0  0  0  0  0  0  0  0  0  0
  -30.5910    3.9941  -26.3628 C   0  0  0  0  0  0  0  0  0  0  0  0
  -29.5989    4.8837  -27.0992 C   0  0  2  0  0  0  0  0  0  0  0  0
  -30.0220    6.3674  -27.1463 C   0  0  1  0  0  0  0  0  0  0  0  0
  -29.0549    7.2259  -26.5255 O   0  0  0  0  0  0  0  0  0  0  0  0
  -30.1301    6.6723  -28.6426 C   0  0  1  0  0  0  0  0  0  0  0  0
  -29.7170    7.9849  -29.0200 O   0  0  0  0  0  0  0  0  0  0  0  0
  -29.2511    5.5888  -29.2525 C   0  0  1  0  0  0  0  0  0  0  0  0
  -29.4644    4.4259  -28.4589 O   0  0  0  0  0  0  0  0  0  0  0  0
  -29.5413    5.2608  -30.6290 N   0  3  0  0  0  0  0  0  0  0  0  0
  -28.6005    5.0712  -31.6089 C   0  0  0  0  0  0  0  0  0  0  0  0
  -29.3198    4.7442  -32.7395 C   0  0  0  0  0  0  0  0  0  0  0  0
  -30.6821    4.7260  -32.4648 N   0  0  0  0  0  0  0  0  0  0  0  0
  -30.7644    5.0216  -31.1820 C   0  0  0  0  0  0  0  0  0  0  0  0
  -27.2596    5.1762  -31.4944 N   0  0  0  0  0  0  0  0  0  0  0  0
  -26.6607    4.8981  -32.6669 C   0  0  0  0  0  0  0  0  0  0  0  0
  -27.2224    4.5714  -33.8479 N   0  0  0  0  0  0  0  0  0  0  0  0
  -28.5814    4.4927  -33.9127 C   0  0  0  0  0  0  0  0  0  0  0  0
  -29.1557    4.1749  -35.1220 N   0  0  0  0  0  0  0  0  0  0  0  0
  -32.6062    5.1718  -24.0444 N   0  0  0  0  0  0  0  0  0  0  0  0
  -32.4300    6.3630  -23.1938 C   0  0  2  0  0  0  0  0  0  0  0  0
  -33.4683    7.4234  -23.5993 C   0  0  0  0  0  0  0  0  0  0  0  0
  -31.0429    6.9376  -23.4031 C   0  0  0  0  0  0  0  0  0  0  0  0
  -34.1328    7.3831  -24.6416 O   0  0  0  0  0  0  0  0  0  0  0  0
  -33.5699    8.4492  -22.6981 O   0  0  0  0  0  0  0  0  0  0  0  0
  -34.4602    9.4994  -23.1171 C   0  0  0  0  0  0  0  0  0  0  0  0
  -31.6142    4.2067  -26.6905 H   0  0  0  0  0  0  0  0  0  0  0  0
  -30.3790    2.9418  -26.5901 H   0  0  0  0  0  0  0  0  0  0  0  0
  -28.6103    4.7986  -26.6291 H   0  0  0  0  0  0  0  0  0  0  0  0
  -30.9807    6.5365  -26.6451 H   0  0  0  0  0  0  0  0  0  0  0  0
  -28.1756    7.0451  -26.8878 H   0  0  0  0  0  0  0  0  0  0  0  0
  -31.1760    6.5531  -28.9439 H   0  0  0  0  0  0  0  0  0  0  0  0
  -28.7880    8.1022  -28.7550 H   0  0  0  0  0  0  0  0  0  0  0  0
  -28.1952    5.8761  -29.1797 H   0  0  0  0  0  0  0  0  0  0  0  0
  -31.6900    5.0744  -30.6119 H   0  0  0  0  0  0  0  0  0  0  0  0
  -25.5697    4.9506  -32.6610 H   0  0  0  0  0  0  0  0  0  0  0  0
  -28.5605    3.9957  -35.9186 H   0  0  0  0  0  0  0  0  0  0  0  0
  -30.1604    4.0902  -35.1714 H   0  0  0  0  0  0  0  0  0  0  0  0
  -33.4880    5.0609  -24.5412 H   0  0  0  0  0  0  0  0  0  0  0  0
  -32.5917    6.0913  -22.1429 H   0  0  0  0  0  0  0  0  0  0  0  0
  -30.8961    7.8324  -22.7934 H   0  0  0  0  0  0  0  0  0  0  0  0
  -30.8945    7.2220  -24.4488 H   0  0  0  0  0  0  0  0  0  0  0  0
  -30.2624    6.2190  -23.1367 H   0  0  0  0  0  0  0  0  0  0  0  0
  -34.5088   10.2508  -22.3238 H   0  0  0  0  0  0  0  0  0  0  0  0
  -35.4735    9.1221  -23.2889 H   0  0  0  0  0  0  0  0  0  0  0  0
  -34.0771    9.9848  -24.0198 H   0  0  0  0  0  0  0  0  0  0  0  0
  2  1  2  1  0  0  0
  2  3  1  0  0  0  0
  2  4  1  0  0  0  0
  2 23  1  0  0  0  0
  4  5  1  0  0  0  0
  5  6  1  0  0  0  0
  5 30  1  0  0  0  0
  5 31  1  0  0  0  0
  6  7  1  0  0  0  0
  6 12  1  0  0  0  0
  6 32  1  1  0  0  0
  7  8  1  0  0  0  0
  7  9  1  0  0  0  0
  7 33  1  1  0  0  0
  8 34  1  0  0  0  0
  9 10  1  0  0  0  0
  9 11  1  0  0  0  0
  9 35  1  6  0  0  0
 10 36  1  0  0  0  0
 11 12  1  0  0  0  0
 11 13  1  0  0  0  0
 11 37  1  1  0  0  0
 13 14  1  0  0  0  0
 13 17  2  0  0  0  0
 14 15  2  0  0  0  0
 14 18  1  0  0  0  0
 15 16  1  0  0  0  0
 15 21  1  0  0  0  0
 16 17  1  0  0  0  0
 17 38  1  0  0  0  0
 18 19  2  0  0  0  0
 19 20  1  0  0  0  0
 19 39  1  0  0  0  0
 20 21  2  0  0  0  0
 21 22  1  0  0  0  0
 22 40  1  0  0  0  0
 22 41  1  0  0  0  0
 23 24  1  0  0  0  0
 23 42  1  0  0  0  0
 24 25  1  0  0  0  0
 24 26  1  0  0  0  0
 24 43  1  1  0  0  0
 25 27  2  0  0  0  0
 25 28  1  0  0  0  0
 26 44  1  0  0  0  0
 26 45  1  0  0  0  0
 26 46  1  0  0  0  0
 28 29  1  0  0  0  0
 29 47  1  0  0  0  0
 29 48  1  0  0  0  0
 29 49  1  0  0  0  0
M  CHG  1  13   1
M  END
$$$$
