9ZD
 OpenBabel04161912143D

 49 51  0  0  1  0  0  0  0  0999 V2000
  -30.5296    3.9738  -22.4818 O   0  0  0  0  0  0  0  0  0  0  0  0
  -31.1992    3.9820  -23.8224 P   0  0  2  0  0  0  0  0  0  0  0  0
  -32.0668    2.8668  -24.3283 O   0  0  0  0  0  0  0  0  0  0  0  0
  -30.0874    4.3701  -24.9193 O   0  0  0  0  0  0  0  0  0  0  0  0
  -30.3057    4.1012  -26.2826 C   0  0  0  0  0  0  0  0  0  0  0  0
  -29.3145    4.9648  -27.0580 C   0  0  2  0  0  0  0  0  0  0  0  0
  -29.6957    6.4625  -27.1088 C   0  0  1  0  0  0  0  0  0  0  0  0
  -28.7294    7.3066  -26.4738 O   0  0  0  0  0  0  0  0  0  0  0  0
  -29.7846    6.7701  -28.6062 C   0  0  1  0  0  0  0  0  0  0  0  0
  -29.3435    8.0703  -28.9871 O   0  0  0  0  0  0  0  0  0  0  0  0
  -28.9381    5.6571  -29.2133 C   0  0  1  0  0  0  0  0  0  0  0  0
  -29.2087    4.5009  -28.4181 O   0  0  0  0  0  0  0  0  0  0  0  0
  -29.2156    5.3448  -30.5932 N   0  3  0  0  0  0  0  0  0  0  0  0
  -28.2791    5.1711  -31.5715 C   0  0  0  0  0  0  0  0  0  0  0  0
  -28.9824    4.8779  -32.7171 C   0  0  0  0  0  0  0  0  0  0  0  0
  -30.3534    4.8788  -32.4625 N   0  0  0  0  0  0  0  0  0  0  0  0
  -30.4429    5.1464  -31.1655 C   0  0  0  0  0  0  0  0  0  0  0  0
  -26.9352    5.2502  -31.4420 N   0  0  0  0  0  0  0  0  0  0  0  0
  -26.3318    4.9888  -32.6217 C   0  0  0  0  0  0  0  0  0  0  0  0
  -26.8972    4.6978  -33.8083 N   0  0  0  0  0  0  0  0  0  0  0  0
  -28.2532    4.6466  -33.8808 C   0  0  0  0  0  0  0  0  0  0  0  0
  -28.8227    4.3763  -35.1070 N   0  0  0  0  0  0  0  0  0  0  0  0
  -32.1856    5.3641  -23.8639 N   0  0  0  0  0  0  0  0  0  0  0  0
  -31.6031    6.6962  -23.7259 C   0  0  1  0  0  0  0  0  0  0  0  0
  -32.2877    7.7328  -24.6167 C   0  0  0  0  0  0  0  0  0  0  0  0
  -31.6854    7.1775  -22.2853 C   0  0  0  0  0  0  0  0  0  0  0  0
  -31.7937    8.8069  -24.9459 O   0  0  0  0  0  0  0  0  0  0  0  0
  -33.5829    7.3870  -24.8927 O   0  0  0  0  0  0  0  0  0  0  0  0
  -34.5488    8.3266  -24.4256 C   0  0  0  0  0  0  0  0  0  0  0  0
  -31.3372    4.3133  -26.5861 H   0  0  0  0  0  0  0  0  0  0  0  0
  -30.1121    3.0402  -26.4786 H   0  0  0  0  0  0  0  0  0  0  0  0
  -28.3204    4.8588  -26.6023 H   0  0  0  0  0  0  0  0  0  0  0  0
  -30.6573    6.6528  -26.6245 H   0  0  0  0  0  0  0  0  0  0  0  0
  -27.8380    7.0908  -26.7846 H   0  0  0  0  0  0  0  0  0  0  0  0
  -30.8322    6.6753  -28.9074 H   0  0  0  0  0  0  0  0  0  0  0  0
  -28.4553    8.2180  -28.6177 H   0  0  0  0  0  0  0  0  0  0  0  0
  -27.8698    5.9023  -29.1241 H   0  0  0  0  0  0  0  0  0  0  0  0
  -31.3696    5.2055  -30.6081 H   0  0  0  0  0  0  0  0  0  0  0  0
  -25.2430    5.0152  -32.6063 H   0  0  0  0  0  0  0  0  0  0  0  0
  -28.2134    4.1411  -35.8723 H   0  0  0  0  0  0  0  0  0  0  0  0
  -29.8241    4.2667  -35.1566 H   0  0  0  0  0  0  0  0  0  0  0  0
  -33.1869    5.2235  -23.9560 H   0  0  0  0  0  0  0  0  0  0  0  0
  -30.5528    6.6497  -24.0265 H   0  0  0  0  0  0  0  0  0  0  0  0
  -31.2052    8.1584  -22.1864 H   0  0  0  0  0  0  0  0  0  0  0  0
  -31.1831    6.4888  -21.5998 H   0  0  0  0  0  0  0  0  0  0  0  0
  -32.7235    7.2869  -21.9532 H   0  0  0  0  0  0  0  0  0  0  0  0
  -35.5234    8.0454  -24.8365 H   0  0  0  0  0  0  0  0  0  0  0  0
  -34.3304    9.3577  -24.7203 H   0  0  0  0  0  0  0  0  0  0  0  0
  -34.6158    8.2498  -23.3356 H   0  0  0  0  0  0  0  0  0  0  0  0
  2  1  2  1  0  0  0
  2  3  1  0  0  0  0
  2  4  1  0  0  0  0
  2 23  1  0  0  0  0
  4  5  1  0  0  0  0
  5  6  1  0  0  0  0
  5 30  1  0  0  0  0
  5 31  1  0  0  0  0
  6  7  1  0  0  0  0
  6 12  1  0  0  0  0
  6 32  1  1  0  0  0
  7  8  1  0  0  0  0
  7  9  1  0  0  0  0
  7 33  1  1  0  0  0
  8 34  1  0  0  0  0
  9 10  1  0  0  0  0
  9 11  1  0  0  0  0
  9 35  1  6  0  0  0
 10 36  1  0  0  0  0
 11 12  1  0  0  0  0
 11 13  1  0  0  0  0
 11 37  1  1  0  0  0
 13 14  1  0  0  0  0
 13 17  2  0  0  0  0
 14 15  2  0  0  0  0
 14 18  1  0  0  0  0
 15 16  1  0  0  0  0
 15 21  1  0  0  0  0
 16 17  1  0  0  0  0
 17 38  1  0  0  0  0
 18 19  2  0  0  0  0
 19 20  1  0  0  0  0
 19 39  1  0  0  0  0
 20 21  2  0  0  0  0
 21 22  1  0  0  0  0
 22 40  1  0  0  0  0
 22 41  1  0  0  0  0
 23 24  1  0  0  0  0
 23 42  1  0  0  0  0
 24 25  1  0  0  0  0
 24 26  1  0  0  0  0
 24 43  1  6  0  0  0
 25 27  2  0  0  0  0
 25 28  1  0  0  0  0
 26 44  1  0  0  0  0
 26 45  1  0  0  0  0
 26 46  1  0  0  0  0
 28 29  1  0  0  0  0
 29 47  1  0  0  0  0
 29 48  1  0  0  0  0
 29 49  1  0  0  0  0
M  CHG  1  13   1
M  END
$$$$
