A2G
 OpenBabel04161912193D

 30 30  0  0  1  0  0  0  0  0999 V2000
   21.3926   -2.7758   -0.9316 O   0  0  0  0  0  0  0  0  0  0  0  0
   22.1155   -2.8034   -2.1426 C   0  0  2  0  0  0  0  0  0  0  0  0
   23.3371   -2.0728   -2.0036 O   0  0  0  0  0  0  0  0  0  0  0  0
   21.2930   -2.2069   -3.3054 C   0  0  2  0  0  0  0  0  0  0  0  0
   22.1134   -2.1252   -4.5090 N   0  0  0  0  0  0  0  0  0  0  0  0
   20.7867   -0.7991   -2.9133 C   0  0  1  0  0  0  0  0  0  0  0  0
   19.9421   -0.2040   -3.9059 O   0  0  0  0  0  0  0  0  0  0  0  0
   20.0265   -0.8467   -1.5919 C   0  0  1  0  0  0  0  0  0  0  0  0
   18.8372   -1.6418   -1.7256 O   0  0  0  0  0  0  0  0  0  0  0  0
   20.9564   -1.4668   -0.5460 C   0  0  1  0  0  0  0  0  0  0  0  0
   20.2724   -1.6101    0.8078 C   0  0  0  0  0  0  0  0  0  0  0  0
   21.1428   -2.2098    1.7717 O   0  0  0  0  0  0  0  0  0  0  0  0
   21.6389   -2.5221   -5.7301 C   0  0  0  0  0  0  0  0  0  0  0  0
   20.5422   -3.0010   -5.9084 O   0  0  0  0  0  0  0  0  0  0  0  0
   22.6673   -2.3221   -6.8222 C   0  0  0  0  0  0  0  0  0  0  0  0
   22.3634   -3.8499   -2.3531 H   0  0  0  0  0  0  0  0  0  0  0  0
   23.8556   -2.5378   -1.3244 H   0  0  0  0  0  0  0  0  0  0  0  0
   20.4308   -2.8583   -3.4939 H   0  0  0  0  0  0  0  0  0  0  0  0
   23.0258   -1.6964   -4.4122 H   0  0  0  0  0  0  0  0  0  0  0  0
   21.6510   -0.1350   -2.8005 H   0  0  0  0  0  0  0  0  0  0  0  0
   19.1925   -0.8044   -4.0599 H   0  0  0  0  0  0  0  0  0  0  0  0
   19.7269    0.1665   -1.2949 H   0  0  0  0  0  0  0  0  0  0  0  0
   18.2622   -1.2594   -2.4091 H   0  0  0  0  0  0  0  0  0  0  0  0
   21.8397   -0.8302   -0.4345 H   0  0  0  0  0  0  0  0  0  0  0  0
   19.3918   -2.2543    0.7240 H   0  0  0  0  0  0  0  0  0  0  0  0
   19.9704   -0.6292    1.1837 H   0  0  0  0  0  0  0  0  0  0  0  0
   21.9412   -1.6641    1.8498 H   0  0  0  0  0  0  0  0  0  0  0  0
   22.2638   -2.6555   -7.7751 H   0  0  0  0  0  0  0  0  0  0  0  0
   23.5696   -2.9010   -6.5934 H   0  0  0  0  0  0  0  0  0  0  0  0
   22.9445   -1.2640   -6.9011 H   0  0  0  0  0  0  0  0  0  0  0  0
  1  2  1  0  0  0  0
  1 10  1  0  0  0  0
  2  3  1  0  0  0  0
  2  4  1  0  0  0  0
  2 16  1  6  0  0  0
  3 17  1  0  0  0  0
  4  5  1  0  0  0  0
  4  6  1  0  0  0  0
  4 18  1  6  0  0  0
  5 13  1  0  0  0  0
  5 19  1  0  0  0  0
  6  7  1  0  0  0  0
  6  8  1  0  0  0  0
  6 20  1  1  0  0  0
  7 21  1  0  0  0  0
  8  9  1  0  0  0  0
  8 10  1  0  0  0  0
  8 22  1  1  0  0  0
  9 23  1  0  0  0  0
 10 11  1  0  0  0  0
 10 24  1  1  0  0  0
 11 12  1  0  0  0  0
 11 25  1  0  0  0  0
 11 26  1  0  0  0  0
 12 27  1  0  0  0  0
 13 14  2  0  0  0  0
 13 15  1  0  0  0  0
 15 28  1  0  0  0  0
 15 29  1  0  0  0  0
 15 30  1  0  0  0  0
M  END
$$$$
