A4G
 OpenBabel04161912153D

 36 38  0  0  1  0  0  0  0  0999 V2000
  -17.4169  -27.4866  -13.1649 N   0  0  0  0  0  0  0  0  0  0  0  0
  -16.5387  -26.5607  -13.6048 C   0  0  0  0  0  0  0  0  0  0  0  0
  -19.0354  -26.4164  -14.5941 N   0  0  0  0  0  0  0  0  0  0  0  0
  -18.6366  -27.3541  -13.7147 C   0  0  0  0  0  0  0  0  0  0  0  0
  -18.1453  -25.4791  -15.0128 C   0  0  0  0  0  0  0  0  0  0  0  0
  -20.9526  -24.3697  -16.6173 C   0  0  0  0  0  0  0  0  0  0  0  0
  -18.5333  -23.5541  -19.4457 C   0  0  0  0  0  0  0  0  0  0  0  0
  -19.9684  -23.9461  -15.5423 C   0  0  0  0  0  0  0  0  0  0  0  0
  -15.1734  -23.6822  -15.5488 C   0  0  0  0  0  0  0  0  0  0  0  0
  -15.5436  -24.8334  -14.6712 C   0  0  0  0  0  0  0  0  0  0  0  0
  -14.6336  -25.4235  -13.8051 C   0  0  0  0  0  0  0  0  0  0  0  0
  -15.2513  -26.4711  -13.1727 N   0  3  0  0  0  0  0  0  0  0  0  0
  -16.7977  -25.5471  -14.5324 C   0  0  0  0  0  0  0  0  0  0  0  0
  -18.6303  -24.4487  -15.8162 N   0  0  0  0  0  0  0  0  0  0  0  0
  -20.4707  -23.9264  -17.9806 C   0  0  0  0  0  0  0  0  0  0  0  0
  -19.0517  -24.4080  -18.2880 C   0  0  2  0  0  0  0  0  0  0  0  0
  -18.0605  -24.2612  -17.1206 C   0  0  0  0  0  0  0  0  0  0  0  0
  -18.1934  -24.3559  -20.5689 O   0  0  0  0  0  0  0  0  0  0  0  0
  -19.3852  -28.0610  -13.4201 H   0  0  0  0  0  0  0  0  0  0  0  0
  -21.9308  -23.9151  -16.4220 H   0  0  0  0  0  0  0  0  0  0  0  0
  -21.0729  -25.4559  -16.6089 H   0  0  0  0  0  0  0  0  0  0  0  0
  -17.6490  -22.9782  -19.1569 H   0  0  0  0  0  0  0  0  0  0  0  0
  -19.2934  -22.8348  -19.7776 H   0  0  0  0  0  0  0  0  0  0  0  0
  -20.3429  -24.2691  -14.5646 H   0  0  0  0  0  0  0  0  0  0  0  0
  -19.9178  -22.8492  -15.5174 H   0  0  0  0  0  0  0  0  0  0  0  0
  -14.1241  -23.3854  -15.3900 H   0  0  0  0  0  0  0  0  0  0  0  0
  -15.7939  -22.8053  -15.3496 H   0  0  0  0  0  0  0  0  0  0  0  0
  -15.2589  -23.9554  -16.6047 H   0  0  0  0  0  0  0  0  0  0  0  0
  -13.6037  -25.1649  -13.6153 H   0  0  0  0  0  0  0  0  0  0  0  0
  -14.8326  -27.0927  -12.4830 H   0  0  0  0  0  0  0  0  0  0  0  0
  -20.5056  -22.8301  -18.0288 H   0  0  0  0  0  0  0  0  0  0  0  0
  -21.1498  -24.3050  -18.7561 H   0  0  0  0  0  0  0  0  0  0  0  0
  -19.0984  -25.4674  -18.5791 H   0  0  0  0  0  0  0  0  0  0  0  0
  -17.2430  -24.9662  -17.2966 H   0  0  0  0  0  0  0  0  0  0  0  0
  -17.6451  -23.2498  -17.1282 H   0  0  0  0  0  0  0  0  0  0  0  0
  -17.5015  -24.9745  -20.2844 H   0  0  0  0  0  0  0  0  0  0  0  0
  1  2  1  0  0  0  0
  1  4  1  0  0  0  0
  2 12  2  0  0  0  0
  2 13  1  0  0  0  0
  3  4  2  0  0  0  0
  3  5  1  0  0  0  0
  4 19  1  0  0  0  0
  5 13  2  0  0  0  0
  5 14  1  0  0  0  0
  6  8  1  0  0  0  0
  6 15  1  0  0  0  0
  6 20  1  0  0  0  0
  6 21  1  0  0  0  0
  7 16  1  0  0  0  0
  7 18  1  0  0  0  0
  7 22  1  0  0  0  0
  7 23  1  0  0  0  0
  8 14  1  0  0  0  0
  8 24  1  0  0  0  0
  8 25  1  0  0  0  0
  9 10  1  0  0  0  0
  9 26  1  0  0  0  0
  9 27  1  0  0  0  0
  9 28  1  0  0  0  0
 10 11  2  0  0  0  0
 10 13  1  0  0  0  0
 11 12  1  0  0  0  0
 11 29  1  0  0  0  0
 12 30  1  0  0  0  0
 14 17  1  0  0  0  0
 15 16  1  0  0  0  0
 15 31  1  0  0  0  0
 15 32  1  0  0  0  0
 16 17  1  0  0  0  0
 16 33  1  6  0  0  0
 17 34  1  0  0  0  0
 17 35  1  0  0  0  0
 18 36  1  0  0  0  0
M  CHG  1  12   1
M  END
$$$$
