A7W
 OpenBabel04161910243D

 20 21  0  0  0  0  0  0  0  0999 V2000
  -29.3708    6.8416  -17.6727 C   0  0  0  0  0  0  0  0  0  0  0  0
  -29.2598    6.7161  -16.2949 C   0  0  0  0  0  0  0  0  0  0  0  0
  -29.3782    5.7033  -18.4783 C   0  0  0  0  0  0  0  0  0  0  0  0
  -29.0425    5.3026  -14.3465 C   0  0  0  0  0  0  0  0  0  0  0  0
  -29.0124    2.9423  -14.6825 C   0  0  0  0  0  0  0  0  0  0  0  0
  -29.1544    5.4425  -15.7276 C   0  0  0  0  0  0  0  0  0  0  0  0
  -29.1690    4.2850  -16.5371 C   0  0  0  0  0  0  0  0  0  0  0  0
  -29.2818    4.4224  -17.9174 C   0  0  0  0  0  0  0  0  0  0  0  0
  -28.9809    4.0230  -13.8323 C   0  0  0  0  0  0  0  0  0  0  0  0
  -29.1016    3.0379  -16.0166 N   0  0  0  0  0  0  0  0  0  0  0  0
  -29.3331    3.2905  -18.7392 N   0  0  0  0  0  0  0  0  0  0  0  0
  -28.8847    3.8359  -12.4852 O   0  0  0  0  0  0  0  0  0  0  0  0
  -29.4531    7.8265  -18.1171 H   0  0  0  0  0  0  0  0  0  0  0  0
  -29.2688    7.6012  -15.6639 H   0  0  0  0  0  0  0  0  0  0  0  0
  -29.4715    5.8183  -19.5522 H   0  0  0  0  0  0  0  0  0  0  0  0
  -29.0227    6.1700  -13.6987 H   0  0  0  0  0  0  0  0  0  0  0  0
  -28.9529    1.9331  -14.2861 H   0  0  0  0  0  0  0  0  0  0  0  0
  -29.4064    3.3862  -19.7323 H   0  0  0  0  0  0  0  0  0  0  0  0
  -29.2628    2.3844  -18.2888 H   0  0  0  0  0  0  0  0  0  0  0  0
  -29.6332    3.2603  -12.2369 H   0  0  0  0  0  0  0  0  0  0  0  0
  1  2  2  0  0  0  0
  1  3  1  0  0  0  0
  1 13  1  0  0  0  0
  2  6  1  0  0  0  0
  2 14  1  0  0  0  0
  3  8  2  0  0  0  0
  3 15  1  0  0  0  0
  4  6  2  0  0  0  0
  4  9  1  0  0  0  0
  4 16  1  0  0  0  0
  5  9  2  0  0  0  0
  5 10  1  0  0  0  0
  5 17  1  0  0  0  0
  6  7  1  0  0  0  0
  7  8  1  0  0  0  0
  7 10  2  0  0  0  0
  8 11  1  0  0  0  0
  9 12  1  0  0  0  0
 11 18  1  0  0  0  0
 11 19  1  0  0  0  0
 12 20  1  0  0  0  0
M  END
$$$$
