A8H
 OpenBabel04161911433D

 32 34  0  0  1  0  0  0  0  0999 V2000
  -11.9511   16.1946  -20.2399 C   0  0  0  0  0  0  0  0  0  0  0  0
  -11.7937   14.8687  -19.8345 C   0  0  0  0  0  0  0  0  0  0  0  0
  -11.9436   17.2163  -19.2991 C   0  0  0  0  0  0  0  0  0  0  0  0
  -11.7855   16.9094  -17.9537 C   0  0  0  0  0  0  0  0  0  0  0  0
  -11.6368   15.5833  -17.5510 C   0  0  0  0  0  0  0  0  0  0  0  0
  -11.6391   14.5416  -18.4829 C   0  0  0  0  0  0  0  0  0  0  0  0
  -10.2135   11.5211  -15.8252 C   0  0  1  0  0  0  0  0  0  0  0  0
  -11.5019   13.0893  -18.0746 C   0  0  1  0  0  0  0  0  0  0  0  0
  -10.0335   12.6328  -18.0065 C   0  0  0  0  0  0  0  0  0  0  0  0
   -9.9245   11.2723  -17.2932 C   0  0  0  0  0  0  0  0  0  0  0  0
  -12.2720   12.7463  -16.7837 C   0  0  0  0  0  0  0  0  0  0  0  0
  -11.3217   12.5621  -15.6062 C   0  0  1  0  0  0  0  0  0  0  0  0
  -11.9948   12.0803  -14.3681 C   0  0  0  0  0  0  0  0  0  0  0  0
  -12.8610   12.7002  -13.7509 O   0  0  0  0  0  0  0  0  0  0  0  0
  -11.5278   10.8706  -14.0239 N   0  0  0  0  0  0  0  0  0  0  0  0
  -10.5858   10.4106  -14.8794 C   0  0  0  0  0  0  0  0  0  0  0  0
  -10.0504    9.3105  -14.7899 O   0  0  0  0  0  0  0  0  0  0  0  0
  -12.0774   16.4319  -21.2926 H   0  0  0  0  0  0  0  0  0  0  0  0
  -11.8001   14.0849  -20.5868 H   0  0  0  0  0  0  0  0  0  0  0  0
  -12.0602   18.2497  -19.6134 H   0  0  0  0  0  0  0  0  0  0  0  0
  -11.7759   17.7055  -17.2157 H   0  0  0  0  0  0  0  0  0  0  0  0
  -11.5317   15.3707  -16.4946 H   0  0  0  0  0  0  0  0  0  0  0  0
   -9.2815   11.9238  -15.4097 H   0  0  0  0  0  0  0  0  0  0  0  0
  -11.9687   12.4997  -18.8710 H   0  0  0  0  0  0  0  0  0  0  0  0
   -9.4299   13.3729  -17.4567 H   0  0  0  0  0  0  0  0  0  0  0  0
   -9.6287   12.5547  -19.0174 H   0  0  0  0  0  0  0  0  0  0  0  0
  -10.6254   10.5605  -17.7396 H   0  0  0  0  0  0  0  0  0  0  0  0
   -8.9093   10.8791  -17.4203 H   0  0  0  0  0  0  0  0  0  0  0  0
  -12.8578   11.8311  -16.9522 H   0  0  0  0  0  0  0  0  0  0  0  0
  -12.9987   13.5348  -16.5470 H   0  0  0  0  0  0  0  0  0  0  0  0
  -10.8328   13.5147  -15.4031 H   0  0  0  0  0  0  0  0  0  0  0  0
  -11.8619   10.3537  -13.2159 H   0  0  0  0  0  0  0  0  0  0  0  0
  1  2  2  0  0  0  0
  1  3  1  0  0  0  0
  1 18  1  0  0  0  0
  2  6  1  0  0  0  0
  2 19  1  0  0  0  0
  3  4  2  0  0  0  0
  3 20  1  0  0  0  0
  4  5  1  0  0  0  0
  4 21  1  0  0  0  0
  5  6  2  0  0  0  0
  5 22  1  0  0  0  0
  6  8  1  0  0  0  0
  7 10  1  0  0  0  0
  7 12  1  0  0  0  0
  7 16  1  0  0  0  0
  7 23  1  1  0  0  0
  8  9  1  0  0  0  0
  8 11  1  0  0  0  0
  8 24  1  6  0  0  0
  9 10  1  0  0  0  0
  9 25  1  0  0  0  0
  9 26  1  0  0  0  0
 10 27  1  0  0  0  0
 10 28  1  0  0  0  0
 11 12  1  0  0  0  0
 11 29  1  0  0  0  0
 11 30  1  0  0  0  0
 12 13  1  0  0  0  0
 12 31  1  1  0  0  0
 13 14  2  0  0  0  0
 13 15  1  0  0  0  0
 15 16  1  0  0  0  0
 15 32  1  0  0  0  0
 16 17  2  0  0  0  0
M  END
$$$$
