A8K
 OpenBabel04161911433D

 25 26  0  0  0  0  0  0  0  0999 V2000
  -13.4800   14.1593  -16.2473 C   0  0  0  0  0  0  0  0  0  0  0  0
  -13.0143   15.1767  -17.0864 C   0  0  0  0  0  0  0  0  0  0  0  0
  -12.6117   18.0818  -20.0745 C   0  0  0  0  0  0  0  0  0  0  0  0
  -13.5764   18.3057  -21.0612 C   0  0  0  0  0  0  0  0  0  0  0  0
  -14.1725   17.2191  -21.6911 C   0  0  0  0  0  0  0  0  0  0  0  0
  -12.2449   16.7775  -19.7166 C   0  0  0  0  0  0  0  0  0  0  0  0
  -12.8410   15.6976  -20.3788 C   0  0  0  0  0  0  0  0  0  0  0  0
  -13.8130   15.9189  -21.3576 C   0  0  0  0  0  0  0  0  0  0  0  0
  -11.6520   15.2773  -17.3978 C   0  0  0  0  0  0  0  0  0  0  0  0
  -10.7577   14.3657  -16.8231 C   0  0  0  0  0  0  0  0  0  0  0  0
  -11.2190   13.3549  -15.9748 C   0  0  0  0  0  0  0  0  0  0  0  0
  -15.1208   17.3888  -22.6550 O   0  0  0  0  0  0  0  0  0  0  0  0
  -10.9972   16.5544  -18.4607 S   0  0  0  0  0  0  0  0  0  0  0  0
  -12.5764   13.2567  -15.6987 C   0  0  0  0  0  0  0  0  0  0  0  0
  -12.9883   12.2538  -14.8722 O   0  0  0  0  0  0  0  0  0  0  0  0
  -14.5427   14.0945  -16.0356 H   0  0  0  0  0  0  0  0  0  0  0  0
  -13.7307   15.8845  -17.4956 H   0  0  0  0  0  0  0  0  0  0  0  0
  -12.1465   18.9359  -19.5867 H   0  0  0  0  0  0  0  0  0  0  0  0
  -13.8437   19.3251  -21.3207 H   0  0  0  0  0  0  0  0  0  0  0  0
  -12.5611   14.6752  -20.1369 H   0  0  0  0  0  0  0  0  0  0  0  0
  -14.2831   15.0785  -21.8604 H   0  0  0  0  0  0  0  0  0  0  0  0
   -9.6910   14.4335  -17.0274 H   0  0  0  0  0  0  0  0  0  0  0  0
  -10.5210   12.6507  -15.5323 H   0  0  0  0  0  0  0  0  0  0  0  0
  -15.2495   18.3405  -22.8016 H   0  0  0  0  0  0  0  0  0  0  0  0
  -13.9518   12.3114  -14.7669 H   0  0  0  0  0  0  0  0  0  0  0  0
  1  2  2  0  0  0  0
  1 14  1  0  0  0  0
  1 16  1  0  0  0  0
  2  9  1  0  0  0  0
  2 17  1  0  0  0  0
  3  4  2  0  0  0  0
  3  6  1  0  0  0  0
  3 18  1  0  0  0  0
  4  5  1  0  0  0  0
  4 19  1  0  0  0  0
  5  8  2  0  0  0  0
  5 12  1  0  0  0  0
  6  7  2  0  0  0  0
  6 13  1  0  0  0  0
  7  8  1  0  0  0  0
  7 20  1  0  0  0  0
  8 21  1  0  0  0  0
  9 10  2  0  0  0  0
  9 13  1  0  0  0  0
 10 11  1  0  0  0  0
 10 22  1  0  0  0  0
 11 14  2  0  0  0  0
 11 23  1  0  0  0  0
 12 24  1  0  0  0  0
 14 15  1  0  0  0  0
 15 25  1  0  0  0  0
M  END
$$$$
