A98
 OpenBabel04161911433D

 22 22  0  0  0  0  0  0  0  0999 V2000
   -2.3735   30.2109  -24.4282 C   0  0  0  0  0  0  0  0  0  0  0  0
   -3.1881   32.4809  -24.7925 C   0  0  0  0  0  0  0  0  0  0  0  0
   -4.4351   34.4501  -25.1555 C   0  0  0  0  0  0  0  0  0  0  0  0
   -1.0471   28.9680  -22.8375 C   0  0  0  0  0  0  0  0  0  0  0  0
    0.7713   27.0394  -21.9737 C   0  0  0  0  0  0  0  0  0  0  0  0
    1.8495   26.7223  -20.9564 C   0  0  0  0  0  0  0  0  0  0  0  0
   -0.0698   28.5330  -21.4474 S   0  0  0  0  0  0  0  0  0  0  0  0
   -1.4329   28.2092  -23.8496 N   0  0  0  0  0  0  0  0  0  0  0  0
   -2.2277   28.9455  -24.7768 N   0  0  0  0  0  0  0  0  0  0  0  0
   -1.6022   30.5790  -22.9523 S   0  0  0  0  0  0  0  0  0  0  0  0
   -3.1002   31.1670  -25.1279 N   0  0  0  0  0  0  0  0  0  0  0  0
   -2.5116   33.0728  -23.9418 O   0  0  0  0  0  0  0  0  0  0  0  0
   -4.1549   33.0904  -25.5223 O   0  0  0  0  0  0  0  0  0  0  0  0
   -5.2326   34.8271  -25.8042 H   0  0  0  0  0  0  0  0  0  0  0  0
   -3.5443   35.0694  -25.2901 H   0  0  0  0  0  0  0  0  0  0  0  0
   -4.7748   34.4973  -24.1156 H   0  0  0  0  0  0  0  0  0  0  0  0
    0.0566   26.2168  -22.0185 H   0  0  0  0  0  0  0  0  0  0  0  0
    1.2277   27.1917  -22.9525 H   0  0  0  0  0  0  0  0  0  0  0  0
    2.3786   25.8087  -21.2490 H   0  0  0  0  0  0  0  0  0  0  0  0
    1.4089   26.5670  -19.9643 H   0  0  0  0  0  0  0  0  0  0  0  0
    2.5763   27.5418  -20.8985 H   0  0  0  0  0  0  0  0  0  0  0  0
   -3.6144   30.8805  -25.9541 H   0  0  0  0  0  0  0  0  0  0  0  0
  1  9  2  0  0  0  0
  1 10  1  0  0  0  0
  1 11  1  0  0  0  0
  2 11  1  0  0  0  0
  2 12  2  0  0  0  0
  2 13  1  0  0  0  0
  3 13  1  0  0  0  0
  3 14  1  0  0  0  0
  3 15  1  0  0  0  0
  3 16  1  0  0  0  0
  4  7  1  0  0  0  0
  4  8  2  0  0  0  0
  4 10  1  0  0  0  0
  5  6  1  0  0  0  0
  5  7  1  0  0  0  0
  5 17  1  0  0  0  0
  5 18  1  0  0  0  0
  6 19  1  0  0  0  0
  6 20  1  0  0  0  0
  6 21  1  0  0  0  0
  8  9  1  0  0  0  0
 11 22  1  0  0  0  0
M  END
$$$$
