ADN
 OpenBabel04161910563D

 32 34  0  0  1  0  0  0  0  0999 V2000
  -11.3286   -0.5132    3.1528 O   0  0  0  0  0  0  0  0  0  0  0  0
  -10.8624   -0.5701    1.8060 C   0  0  0  0  0  0  0  0  0  0  0  0
  -10.8245   -2.0147    1.3002 C   0  0  1  0  0  0  0  0  0  0  0  0
   -9.6935   -2.6806    1.9179 O   0  0  0  0  0  0  0  0  0  0  0  0
  -12.0847   -2.8174    1.6449 C   0  0  1  0  0  0  0  0  0  0  0  0
  -12.4128   -3.7080    0.5654 O   0  0  0  0  0  0  0  0  0  0  0  0
  -11.6623   -3.6405    2.8492 C   0  0  1  0  0  0  0  0  0  0  0  0
  -12.4410   -4.8313    2.9760 O   0  0  0  0  0  0  0  0  0  0  0  0
  -10.1770   -3.8773    2.5590 C   0  0  2  0  0  0  0  0  0  0  0  0
   -9.3749   -4.1459    3.7359 N   0  3  0  0  0  0  0  0  0  0  0  0
   -9.3819   -3.4286    4.9047 C   0  0  0  0  0  0  0  0  0  0  0  0
   -8.5952   -3.9603    5.8185 N   0  0  0  0  0  0  0  0  0  0  0  0
   -8.0354   -5.0601    5.2027 C   0  0  0  0  0  0  0  0  0  0  0  0
   -7.1178   -6.0294    5.6496 C   0  0  0  0  0  0  0  0  0  0  0  0
   -6.5854   -6.0433    6.9183 N   0  0  0  0  0  0  0  0  0  0  0  0
   -6.7434   -7.0046    4.7896 N   0  0  0  0  0  0  0  0  0  0  0  0
   -7.2789   -7.0065    3.5525 C   0  0  0  0  0  0  0  0  0  0  0  0
   -8.1793   -6.1535    3.0205 N   0  0  0  0  0  0  0  0  0  0  0  0
   -8.5077   -5.1901    3.9055 C   0  0  0  0  0  0  0  0  0  0  0  0
  -11.3032    0.4251    3.4163 H   0  0  0  0  0  0  0  0  0  0  0  0
   -9.8608   -0.1284    1.7776 H   0  0  0  0  0  0  0  0  0  0  0  0
  -11.5380    0.0310    1.1884 H   0  0  0  0  0  0  0  0  0  0  0  0
  -10.6357   -2.0088    0.2204 H   0  0  0  0  0  0  0  0  0  0  0  0
  -12.9648   -2.1955    1.8286 H   0  0  0  0  0  0  0  0  0  0  0  0
  -13.2691   -4.1108    0.8079 H   0  0  0  0  0  0  0  0  0  0  0  0
  -11.8106   -3.0471    3.7570 H   0  0  0  0  0  0  0  0  0  0  0  0
  -12.1876   -5.4257    2.2455 H   0  0  0  0  0  0  0  0  0  0  0  0
  -10.0435   -4.7139    1.8608 H   0  0  0  0  0  0  0  0  0  0  0  0
   -9.9835   -2.5376    5.0435 H   0  0  0  0  0  0  0  0  0  0  0  0
   -5.8948   -6.7445    7.1332 H   0  0  0  0  0  0  0  0  0  0  0  0
   -6.8115   -5.2900    7.5541 H   0  0  0  0  0  0  0  0  0  0  0  0
   -6.9421   -7.8076    2.9003 H   0  0  0  0  0  0  0  0  0  0  0  0
  1  2  1  0  0  0  0
  1 20  1  0  0  0  0
  2  3  1  0  0  0  0
  2 21  1  0  0  0  0
  2 22  1  0  0  0  0
  3  4  1  0  0  0  0
  3  5  1  0  0  0  0
  3 23  1  6  0  0  0
  4  9  1  0  0  0  0
  5  6  1  0  0  0  0
  5  7  1  0  0  0  0
  5 24  1  1  0  0  0
  6 25  1  0  0  0  0
  7  8  1  0  0  0  0
  7  9  1  0  0  0  0
  7 26  1  1  0  0  0
  8 27  1  0  0  0  0
  9 10  1  0  0  0  0
  9 28  1  6  0  0  0
 10 11  2  0  0  0  0
 10 19  1  0  0  0  0
 11 12  1  0  0  0  0
 11 29  1  0  0  0  0
 12 13  1  0  0  0  0
 13 14  2  0  0  0  0
 13 19  1  0  0  0  0
 14 15  1  0  0  0  0
 14 16  1  0  0  0  0
 15 30  1  0  0  0  0
 15 31  1  0  0  0  0
 16 17  2  0  0  0  0
 17 18  1  0  0  0  0
 17 32  1  0  0  0  0
 18 19  2  0  0  0  0
M  CHG  1  10   1
M  END
$$$$
