ADP
 OpenBabel04161910203D

 39 41  0  0  1  0  0  0  0  0999 V2000
   64.1449    6.0001   86.4349 P   0  0  0  0  0  0  0  0  0  0  0  0
   62.7677    6.6305   86.5605 O   0  0  0  0  0  0  0  0  0  0  0  0
   65.2225    6.8788   87.0900 O   0  0  0  0  0  0  0  0  0  0  0  0
   64.2607    4.5396   86.8595 O   0  0  0  0  0  0  0  0  0  0  0  0
   63.6263    5.8318   83.5508 P   0  0  2  0  0  0  0  0  0  0  0  0
   62.3452    5.0520   83.7175 O   0  0  0  0  0  0  0  0  0  0  0  0
   64.5116    5.4462   82.3610 O   0  0  0  0  0  0  0  0  0  0  0  0
   64.5274    6.0201   84.8749 O   0  0  0  0  0  0  0  0  0  0  0  0
   63.1841    7.3762   83.2214 O   0  0  0  0  0  0  0  0  0  0  0  0
   64.1528    8.3881   83.4092 C   0  0  0  0  0  0  0  0  0  0  0  0
   64.2037    9.3120   82.1897 C   0  0  1  0  0  0  0  0  0  0  0  0
   64.7054    8.6055   81.0201 O   0  0  0  0  0  0  0  0  0  0  0  0
   62.8409    9.9029   81.8175 C   0  0  1  0  0  0  0  0  0  0  0  0
   62.9905   11.2718   81.3554 O   0  0  0  0  0  0  0  0  0  0  0  0
   62.3920    9.0652   80.6323 C   0  0  1  0  0  0  0  0  0  0  0  0
   61.4943    9.8087   79.7824 O   0  0  0  0  0  0  0  0  0  0  0  0
   63.7356    8.7318   79.9691 C   0  0  2  0  0  0  0  0  0  0  0  0
   63.7506    7.5611   79.1086 N   0  3  0  0  0  0  0  0  0  0  0  0
   63.0490    6.3919   79.2933 C   0  0  0  0  0  0  0  0  0  0  0  0
   63.1247    5.5936   78.2414 N   0  0  0  0  0  0  0  0  0  0  0  0
   63.9867    6.2028   77.3893 C   0  0  0  0  0  0  0  0  0  0  0  0
   64.4951    5.8235   76.1267 C   0  0  0  0  0  0  0  0  0  0  0  0
   64.1688    4.6267   75.5091 N   0  0  0  0  0  0  0  0  0  0  0  0
   65.3010    6.6830   75.4617 N   0  0  0  0  0  0  0  0  0  0  0  0
   65.5586    7.8736   76.0555 C   0  0  0  0  0  0  0  0  0  0  0  0
   65.1131    8.3746   77.2320 N   0  0  0  0  0  0  0  0  0  0  0  0
   64.3558    7.4624   77.8591 C   0  0  0  0  0  0  0  0  0  0  0  0
   65.1501    7.9769   83.5863 H   0  0  0  0  0  0  0  0  0  0  0  0
   63.8557    8.9656   84.2949 H   0  0  0  0  0  0  0  0  0  0  0  0
   64.9194   10.1178   82.3920 H   0  0  0  0  0  0  0  0  0  0  0  0
   62.1223    9.9161   82.6443 H   0  0  0  0  0  0  0  0  0  0  0  0
   62.0777   11.5858   81.2238 H   0  0  0  0  0  0  0  0  0  0  0  0
   61.8688    8.1755   80.9898 H   0  0  0  0  0  0  0  0  0  0  0  0
   62.0023   10.5720   79.4554 H   0  0  0  0  0  0  0  0  0  0  0  0
   64.0634    9.5808   79.3547 H   0  0  0  0  0  0  0  0  0  0  0  0
   62.4810    6.1930   80.2044 H   0  0  0  0  0  0  0  0  0  0  0  0
   64.6471    4.3655   74.6675 H   0  0  0  0  0  0  0  0  0  0  0  0
   63.6438    3.9611   76.0682 H   0  0  0  0  0  0  0  0  0  0  0  0
   66.2083    8.5341   75.4907 H   0  0  0  0  0  0  0  0  0  0  0  0
  1  2  2  0  0  0  0
  1  3  1  0  0  0  0
  1  4  1  0  0  0  0
  1  8  1  0  0  0  0
  5  6  2  1  0  0  0
  5  7  1  0  0  0  0
  5  8  1  0  0  0  0
  5  9  1  0  0  0  0
  9 10  1  0  0  0  0
 10 11  1  0  0  0  0
 10 28  1  0  0  0  0
 10 29  1  0  0  0  0
 11 12  1  0  0  0  0
 11 13  1  0  0  0  0
 11 30  1  1  0  0  0
 12 17  1  0  0  0  0
 13 14  1  0  0  0  0
 13 15  1  0  0  0  0
 13 31  1  1  0  0  0
 14 32  1  0  0  0  0
 15 16  1  0  0  0  0
 15 17  1  0  0  0  0
 15 33  1  1  0  0  0
 16 34  1  0  0  0  0
 17 18  1  0  0  0  0
 17 35  1  6  0  0  0
 18 19  2  0  0  0  0
 18 27  1  0  0  0  0
 19 20  1  0  0  0  0
 19 36  1  0  0  0  0
 20 21  1  0  0  0  0
 21 22  2  0  0  0  0
 21 27  1  0  0  0  0
 22 23  1  0  0  0  0
 22 24  1  0  0  0  0
 23 37  1  0  0  0  0
 23 38  1  0  0  0  0
 24 25  2  0  0  0  0
 25 26  1  0  0  0  0
 25 39  1  0  0  0  0
 26 27  2  0  0  0  0
M  CHG  1  18   1
M  END
$$$$
