ADP
 OpenBabel04161910083D

 39 41  0  0  1  0  0  0  0  0999 V2000
   20.3280   -0.3934    3.0411 P   0  0  0  0  0  0  0  0  0  0  0  0
   20.2897    0.0644    1.5867 O   0  0  0  0  0  0  0  0  0  0  0  0
   21.7326   -0.2487    3.6424 O   0  0  0  0  0  0  0  0  0  0  0  0
   19.2852    0.2397    3.9582 O   0  0  0  0  0  0  0  0  0  0  0  0
   18.9455   -2.9267    2.4298 P   0  0  1  0  0  0  0  0  0  0  0  0
   17.8606   -2.2722    1.5968 O   0  0  0  0  0  0  0  0  0  0  0  0
   19.6109   -4.1950    1.8822 O   0  0  0  0  0  0  0  0  0  0  0  0
   20.0519   -1.9792    3.0638 O   0  0  0  0  0  0  0  0  0  0  0  0
   18.1681   -3.4341    3.7803 O   0  0  0  0  0  0  0  0  0  0  0  0
   18.9031   -4.1242    4.7642 C   0  0  0  0  0  0  0  0  0  0  0  0
   17.9160   -4.6943    5.7823 C   0  0  1  0  0  0  0  0  0  0  0  0
   17.0082   -5.6361    5.1360 O   0  0  0  0  0  0  0  0  0  0  0  0
   18.6256   -5.4667    6.9082 C   0  0  1  0  0  0  0  0  0  0  0  0
   18.0993   -5.0917    8.1926 O   0  0  0  0  0  0  0  0  0  0  0  0
   18.2721   -6.9276    6.6350 C   0  0  1  0  0  0  0  0  0  0  0  0
   18.2905   -7.7069    7.8409 O   0  0  0  0  0  0  0  0  0  0  0  0
   16.8958   -6.7651    5.9965 C   0  0  2  0  0  0  0  0  0  0  0  0
   16.4480   -7.9062    5.2262 N   0  3  0  0  0  0  0  0  0  0  0  0
   17.0784   -8.4619    4.1304 C   0  0  0  0  0  0  0  0  0  0  0  0
   16.4701   -9.5582    3.7139 N   0  0  0  0  0  0  0  0  0  0  0  0
   15.3596   -9.6703    4.5264 C   0  0  0  0  0  0  0  0  0  0  0  0
   14.3139  -10.6144    4.5729 C   0  0  0  0  0  0  0  0  0  0  0  0
   14.2603  -11.7114    3.7337 N   0  0  0  0  0  0  0  0  0  0  0  0
   13.3525  -10.4681    5.5166 N   0  0  0  0  0  0  0  0  0  0  0  0
   13.4624   -9.4284    6.3776 C   0  0  0  0  0  0  0  0  0  0  0  0
   14.4314   -8.4996    6.4525 N   0  0  0  0  0  0  0  0  0  0  0  0
   15.3481   -8.6653    5.4840 C   0  0  0  0  0  0  0  0  0  0  0  0
   19.5846   -3.4302    5.2650 H   0  0  0  0  0  0  0  0  0  0  0  0
   19.4802   -4.9411    4.3111 H   0  0  0  0  0  0  0  0  0  0  0  0
   17.2882   -3.8932    6.1900 H   0  0  0  0  0  0  0  0  0  0  0  0
   19.7044   -5.3031    6.9373 H   0  0  0  0  0  0  0  0  0  0  0  0
   18.5403   -5.6844    8.8279 H   0  0  0  0  0  0  0  0  0  0  0  0
   18.9907   -7.3586    5.9354 H   0  0  0  0  0  0  0  0  0  0  0  0
   18.0106   -8.6089    7.6025 H   0  0  0  0  0  0  0  0  0  0  0  0
   16.1477   -6.5475    6.7606 H   0  0  0  0  0  0  0  0  0  0  0  0
   17.9730   -8.0353    3.6923 H   0  0  0  0  0  0  0  0  0  0  0  0
   13.4302  -12.2770    3.7365 H   0  0  0  0  0  0  0  0  0  0  0  0
   14.9171  -11.7206    2.9633 H   0  0  0  0  0  0  0  0  0  0  0  0
   12.6720   -9.3410    7.1175 H   0  0  0  0  0  0  0  0  0  0  0  0
  1  2  2  0  0  0  0
  1  3  1  0  0  0  0
  1  4  1  0  0  0  0
  1  8  1  0  0  0  0
  5  6  2  6  0  0  0
  5  7  1  0  0  0  0
  5  8  1  0  0  0  0
  5  9  1  0  0  0  0
  9 10  1  0  0  0  0
 10 11  1  0  0  0  0
 10 28  1  0  0  0  0
 10 29  1  0  0  0  0
 11 12  1  0  0  0  0
 11 13  1  0  0  0  0
 11 30  1  1  0  0  0
 12 17  1  0  0  0  0
 13 14  1  0  0  0  0
 13 15  1  0  0  0  0
 13 31  1  6  0  0  0
 14 32  1  0  0  0  0
 15 16  1  0  0  0  0
 15 17  1  0  0  0  0
 15 33  1  6  0  0  0
 16 34  1  0  0  0  0
 17 18  1  0  0  0  0
 17 35  1  1  0  0  0
 18 19  2  0  0  0  0
 18 27  1  0  0  0  0
 19 20  1  0  0  0  0
 19 36  1  0  0  0  0
 20 21  1  0  0  0  0
 21 22  2  0  0  0  0
 21 27  1  0  0  0  0
 22 23  1  0  0  0  0
 22 24  1  0  0  0  0
 23 37  1  0  0  0  0
 23 38  1  0  0  0  0
 24 25  2  0  0  0  0
 25 26  1  0  0  0  0
 25 39  1  0  0  0  0
 26 27  2  0  0  0  0
M  CHG  1  18   1
M  END
$$$$
