AGF
 OpenBabel04161912273D

 55 56  0  0  1  0  0  0  0  0999 V2000
   46.7038   17.1049   40.5343 C   0  0  0  0  0  0  0  0  0  0  0  0
   47.8763   18.3973   42.0674 C   0  0  0  0  0  0  0  0  0  0  0  0
   48.5462   19.7115   42.0941 C   0  0  0  0  0  0  0  0  0  0  0  0
   48.0510   20.7220   42.8881 C   0  0  0  0  0  0  0  0  0  0  0  0
   49.6564   19.9146   41.3076 C   0  0  0  0  0  0  0  0  0  0  0  0
   48.6736   21.9440   42.8966 C   0  0  0  0  0  0  0  0  0  0  0  0
   50.2748   21.1378   41.3160 C   0  0  0  0  0  0  0  0  0  0  0  0
   49.7808   22.1524   42.1052 C   0  0  0  0  0  0  0  0  0  0  0  0
   44.9430   19.1686   38.9251 C   0  0  0  0  0  0  0  0  0  0  0  0
   45.8890   18.1186   38.4226 C   0  0  2  0  0  0  0  0  0  0  0  0
   45.3244   17.6385   37.1068 C   0  0  0  0  0  0  0  0  0  0  0  0
   44.6780   21.5303   39.2365 C   0  0  0  0  0  0  0  0  0  0  0  0
   44.5333   22.3042   34.8100 C   0  0  0  0  0  0  0  0  0  0  0  0
   44.8293   23.5062   35.7008 C   0  0  2  0  0  0  0  0  0  0  0  0
   46.0027   24.1367   34.9586 C   0  0  0  0  0  0  0  0  0  0  0  0
   45.7038   24.8195   33.6681 C   0  0  0  0  0  0  0  0  0  0  0  0
   45.1095   26.0615   33.6598 C   0  0  0  0  0  0  0  0  0  0  0  0
   46.0186   24.1921   32.4804 C   0  0  0  0  0  0  0  0  0  0  0  0
   44.8414   26.6857   32.4656 C   0  0  0  0  0  0  0  0  0  0  0  0
   45.7366   24.8109   31.2870 C   0  0  0  0  0  0  0  0  0  0  0  0
   45.1464   26.0549   31.2800 C   0  0  0  0  0  0  0  0  0  0  0  0
   46.8048   16.0854   41.2873 O   0  0  0  0  0  0  0  0  0  0  0  0
   47.2054   18.3139   40.8219 O   0  0  0  0  0  0  0  0  0  0  0  0
   43.8383   18.8873   39.3909 O   0  0  0  0  0  0  0  0  0  0  0  0
   42.8266   21.8730   37.3332 O   0  0  0  0  0  0  0  0  0  0  0  0
   43.7867   23.8646   38.7687 O   0  0  0  0  0  0  0  0  0  0  0  0
   45.2207   22.9449   36.9662 O   0  0  0  0  0  0  0  0  0  0  0  0
   45.3152   21.3296   34.9713 O   0  0  0  0  0  0  0  0  0  0  0  0
   43.6284   22.4300   33.9703 O   0  0  0  0  0  0  0  0  0  0  0  0
   46.1051   17.0200   39.3319 N   0  0  0  0  0  0  0  0  0  0  0  0
   45.4355   20.4158   38.8118 N   0  0  0  0  0  0  0  0  0  0  0  0
   43.9871   22.5922   37.9688 P   0  0  1  0  0  0  0  0  0  0  0  0
   47.1764   18.3647   42.9001 H   0  0  0  0  0  0  0  0  0  0  0  0
   48.6542   17.6388   42.1680 H   0  0  0  0  0  0  0  0  0  0  0  0
   47.1756   20.5513   43.4938 H   0  0  0  0  0  0  0  0  0  0  0  0
   50.0277   19.1148   40.6872 H   0  0  0  0  0  0  0  0  0  0  0  0
   48.2910   22.7311   43.5151 H   0  0  0  0  0  0  0  0  0  0  0  0
   51.1376   21.2965   40.7038 H   0  0  0  0  0  0  0  0  0  0  0  0
   50.2622   23.1135   42.0996 H   0  0  0  0  0  0  0  0  0  0  0  0
   46.8538   18.5924   38.2736 H   0  0  0  0  0  0  0  0  0  0  0  0
   45.9646   16.8572   36.6947 H   0  0  0  0  0  0  0  0  0  0  0  0
   45.2785   18.4785   36.4041 H   0  0  0  0  0  0  0  0  0  0  0  0
   44.3074   17.2355   37.2324 H   0  0  0  0  0  0  0  0  0  0  0  0
   43.8302   21.1850   39.8320 H   0  0  0  0  0  0  0  0  0  0  0  0
   45.3328   22.1544   39.8391 H   0  0  0  0  0  0  0  0  0  0  0  0
   43.9714   24.1937   35.7807 H   0  0  0  0  0  0  0  0  0  0  0  0
   46.7449   23.3714   34.7172 H   0  0  0  0  0  0  0  0  0  0  0  0
   46.4666   24.8959   35.5862 H   0  0  0  0  0  0  0  0  0  0  0  0
   44.8502   26.5287   34.5946 H   0  0  0  0  0  0  0  0  0  0  0  0
   46.4634   23.2077   32.4954 H   0  0  0  0  0  0  0  0  0  0  0  0
   44.3922   27.6579   32.4687 H   0  0  0  0  0  0  0  0  0  0  0  0
   45.9779   24.3134   30.3726 H   0  0  0  0  0  0  0  0  0  0  0  0
   44.9214   26.5302   30.3425 H   0  0  0  0  0  0  0  0  0  0  0  0
   45.8194   16.1014   39.0458 H   0  0  0  0  0  0  0  0  0  0  0  0
   46.3212   20.6003   38.3703 H   0  0  0  0  0  0  0  0  0  0  0  0
  1 22  2  0  0  0  0
  1 23  1  0  0  0  0
  1 30  1  0  0  0  0
  2  3  1  0  0  0  0
  2 23  1  0  0  0  0
  2 33  1  0  0  0  0
  2 34  1  0  0  0  0
  3  4  2  0  0  0  0
  3  5  1  0  0  0  0
  4  6  1  0  0  0  0
  4 35  1  0  0  0  0
  5  7  2  0  0  0  0
  5 36  1  0  0  0  0
  6  8  2  0  0  0  0
  6 37  1  0  0  0  0
  7  8  1  0  0  0  0
  7 38  1  0  0  0  0
  8 39  1  0  0  0  0
  9 10  1  0  0  0  0
  9 31  1  0  0  0  0
  9 24  2  0  0  0  0
 10 11  1  0  0  0  0
 10 30  1  0  0  0  0
 10 40  1  6  0  0  0
 11 41  1  0  0  0  0
 11 42  1  0  0  0  0
 11 43  1  0  0  0  0
 12 32  1  0  0  0  0
 12 31  1  0  0  0  0
 12 44  1  0  0  0  0
 12 45  1  0  0  0  0
 13 14  1  0  0  0  0
 13 29  2  0  0  0  0
 13 28  1  0  0  0  0
 14 15  1  0  0  0  0
 14 27  1  0  0  0  0
 14 46  1  1  0  0  0
 15 16  1  0  0  0  0
 15 47  1  0  0  0  0
 15 48  1  0  0  0  0
 16 17  2  0  0  0  0
 16 18  1  0  0  0  0
 17 19  1  0  0  0  0
 17 49  1  0  0  0  0
 18 20  2  0  0  0  0
 18 50  1  0  0  0  0
 19 21  2  0  0  0  0
 19 51  1  0  0  0  0
 20 21  1  0  0  0  0
 20 52  1  0  0  0  0
 21 53  1  0  0  0  0
 25 32  1  0  0  0  0
 26 32  2  0  0  0  0
 30 54  1  0  0  0  0
 31 55  1  0  0  0  0
 32 27  1  6  0  0  0
M  END
$$$$
