AKG
 OpenBabel04161909423D

 14 13  0  0  0  0  0  0  0  0999 V2000
  -10.0127   17.0332   -9.5030 C   0  0  0  0  0  0  0  0  0  0  0  0
   -8.9446   17.7121   -9.6058 O   0  0  0  0  0  0  0  0  0  0  0  0
  -10.0805   15.8238   -9.0925 O   0  0  0  0  0  0  0  0  0  0  0  0
  -11.3207   17.7448   -9.9212 C   0  0  0  0  0  0  0  0  0  0  0  0
  -12.3147   17.0026  -10.0705 O   0  0  0  0  0  0  0  0  0  0  0  0
  -11.3482   19.2325  -10.1642 C   0  0  0  0  0  0  0  0  0  0  0  0
  -12.7498   19.7468  -10.4883 C   0  0  0  0  0  0  0  0  0  0  0  0
  -12.7361   21.1548  -11.1003 C   0  0  0  0  0  0  0  0  0  0  0  0
  -11.6913   21.5117  -11.7110 O   0  0  0  0  0  0  0  0  0  0  0  0
  -13.7942   21.8292  -10.9286 O   0  0  0  0  0  0  0  0  0  0  0  0
  -10.6807   19.4561  -10.9990 H   0  0  0  0  0  0  0  0  0  0  0  0
  -10.9913   19.7425   -9.2641 H   0  0  0  0  0  0  0  0  0  0  0  0
  -13.3437   19.7549   -9.5636 H   0  0  0  0  0  0  0  0  0  0  0  0
  -13.2313   19.0568  -11.1949 H   0  0  0  0  0  0  0  0  0  0  0  0
  1  2  2  0  0  0  0
  1  3  1  0  0  0  0
  1  4  1  0  0  0  0
  4  5  2  0  0  0  0
  4  6  1  0  0  0  0
  6  7  1  0  0  0  0
  6 11  1  0  0  0  0
  6 12  1  0  0  0  0
  7  8  1  0  0  0  0
  7 13  1  0  0  0  0
  7 14  1  0  0  0  0
  8  9  2  0  0  0  0
  8 10  1  0  0  0  0
M  END
$$$$
