AKG
 OpenBabel04161909423D

 14 13  0  0  0  0  0  0  0  0999 V2000
   19.1560   18.5979   94.2849 C   0  0  0  0  0  0  0  0  0  0  0  0
   18.4274   17.9846   93.4354 O   0  0  0  0  0  0  0  0  0  0  0  0
   19.8954   18.0441   95.1632 O   0  0  0  0  0  0  0  0  0  0  0  0
   19.1528   20.1392   94.2650 C   0  0  0  0  0  0  0  0  0  0  0  0
   18.6811   20.6836   93.2642 O   0  0  0  0  0  0  0  0  0  0  0  0
   19.7665   20.8885   95.4340 C   0  0  0  0  0  0  0  0  0  0  0  0
   19.3681   22.3626   95.4462 C   0  0  0  0  0  0  0  0  0  0  0  0
   19.8348   23.1543   96.6669 C   0  0  0  0  0  0  0  0  0  0  0  0
   19.2536   24.2701   96.8249 O   0  0  0  0  0  0  0  0  0  0  0  0
   20.7480   22.6413   97.3710 O   0  0  0  0  0  0  0  0  0  0  0  0
   20.8553   20.7893   95.3627 H   0  0  0  0  0  0  0  0  0  0  0  0
   19.4367   20.4119   96.3640 H   0  0  0  0  0  0  0  0  0  0  0  0
   18.2758   22.4453   95.3800 H   0  0  0  0  0  0  0  0  0  0  0  0
   19.7751   22.8599   94.5564 H   0  0  0  0  0  0  0  0  0  0  0  0
  1  2  2  0  0  0  0
  1  3  1  0  0  0  0
  1  4  1  0  0  0  0
  4  5  2  0  0  0  0
  4  6  1  0  0  0  0
  6  7  1  0  0  0  0
  6 11  1  0  0  0  0
  6 12  1  0  0  0  0
  7  8  1  0  0  0  0
  7 13  1  0  0  0  0
  7 14  1  0  0  0  0
  8  9  2  0  0  0  0
  8 10  1  0  0  0  0
M  END
$$$$
