AOZ
 OpenBabel04161911443D

 28 28  0  0  1  0  0  0  0  0999 V2000
   21.6189   -4.5023   -0.4293 O   0  0  0  0  0  0  0  0  0  0  0  0
   20.4928   -5.0201   -0.2023 C   0  0  0  0  0  0  0  0  0  0  0  0
   20.3020   -6.4706   -0.7480 C   0  0  1  0  0  0  0  0  0  0  0  0
   20.8067   -7.4354    0.3204 C   0  0  0  0  0  0  0  0  0  0  0  0
   18.8953   -6.8865   -1.0752 N   0  3  0  0  0  0  0  0  0  0  0  0
   18.0531   -6.0097   -2.0177 C   0  0  2  0  0  0  0  0  0  0  0  0
   16.7479   -6.7518   -2.4340 C   0  0  0  0  0  0  0  0  0  0  0  0
   16.7337   -7.9518   -1.9986 O   0  0  0  0  0  0  0  0  0  0  0  0
   15.8799   -6.0980   -3.0612 O   0  0  0  0  0  0  0  0  0  0  0  0
   18.8062   -5.4378   -3.2162 C   0  0  0  0  0  0  0  0  0  0  0  0
   19.2921   -6.3689   -4.2870 C   0  0  0  0  0  0  0  0  0  0  0  0
   19.5196   -5.8863   -5.5622 N   0  0  0  0  0  0  0  0  0  0  0  0
   19.6492   -7.7008   -4.2349 C   0  0  0  0  0  0  0  0  0  0  0  0
   19.9613   -6.9038   -6.2714 C   0  0  0  0  0  0  0  0  0  0  0  0
   20.0621   -8.0249   -5.4927 N   0  3  0  0  0  0  0  0  0  0  0  0
   19.4669   -4.5469    0.3683 O   0  0  0  0  0  0  0  0  0  0  0  0
   20.8856   -6.6089   -1.6622 H   0  0  0  0  0  0  0  0  0  0  0  0
   20.6646   -8.4765    0.0066 H   0  0  0  0  0  0  0  0  0  0  0  0
   20.2811   -7.3005    1.2741 H   0  0  0  0  0  0  0  0  0  0  0  0
   21.8749   -7.2877    0.5060 H   0  0  0  0  0  0  0  0  0  0  0  0
   18.7559   -7.8499   -1.4122 H   0  0  0  0  0  0  0  0  0  0  0  0
   17.7346   -5.1714   -1.3892 H   0  0  0  0  0  0  0  0  0  0  0  0
   19.6728   -4.8619   -2.8681 H   0  0  0  0  0  0  0  0  0  0  0  0
   18.1519   -4.7021   -3.7012 H   0  0  0  0  0  0  0  0  0  0  0  0
   19.6388   -8.4309   -3.4420 H   0  0  0  0  0  0  0  0  0  0  0  0
   20.2197   -6.8860   -7.3143 H   0  0  0  0  0  0  0  0  0  0  0  0
   20.3905   -8.9263   -5.8069 H   0  0  0  0  0  0  0  0  0  0  0  0
   18.3495   -6.8495   -0.2042 H   0  0  0  0  0  0  0  0  0  0  0  0
  1  2  2  0  0  0  0
  2  3  1  0  0  0  0
  2 16  1  0  0  0  0
  3  4  1  0  0  0  0
  3  5  1  0  0  0  0
  3 17  1  6  0  0  0
  4 18  1  0  0  0  0
  4 19  1  0  0  0  0
  4 20  1  0  0  0  0
  5  6  1  0  0  0  0
  5 21  1  0  0  0  0
  5 28  1  0  0  0  0
  6  7  1  0  0  0  0
  6 10  1  0  0  0  0
  6 22  1  1  0  0  0
  7  8  2  0  0  0  0
  7  9  1  0  0  0  0
 10 11  1  0  0  0  0
 10 23  1  0  0  0  0
 10 24  1  0  0  0  0
 11 12  1  0  0  0  0
 11 13  2  0  0  0  0
 12 14  1  0  0  0  0
 13 15  1  0  0  0  0
 13 25  1  0  0  0  0
 14 15  2  0  0  0  0
 14 26  1  0  0  0  0
 15 27  1  0  0  0  0
M  CHG  2   5   1  15   1
M  END
$$$$
