AQK
 OpenBabel04161911443D

 27 26  0  0  1  0  0  0  0  0999 V2000
  -42.3183  -16.7833   -0.9214 O   0  0  0  0  0  0  0  0  0  0  0  0
  -41.6433  -17.8238   -0.7135 C   0  0  0  0  0  0  0  0  0  0  0  0
  -40.3927  -18.0011   -0.6514 O   0  0  0  0  0  0  0  0  0  0  0  0
  -42.4158  -19.1660   -0.8028 C   0  0  0  0  0  0  0  0  0  0  0  0
  -41.6758  -20.1652   -1.6602 N   0  3  0  0  0  0  0  0  0  0  0  0
  -42.3389  -20.4863   -2.9824 C   0  0  2  0  0  0  0  0  0  0  0  0
  -42.7141  -21.9988   -3.0591 C   0  0  0  0  0  0  0  0  0  0  0  0
  -43.6141  -22.2914   -3.8894 O   0  0  0  0  0  0  0  0  0  0  0  0
  -41.3442  -20.1782   -4.0932 C   0  0  0  0  0  0  0  0  0  0  0  0
  -41.9636  -19.4562   -5.2878 C   0  0  0  0  0  0  0  0  0  0  0  0
  -40.8763  -19.2050   -6.3114 C   0  0  0  0  0  0  0  0  0  0  0  0
  -41.4597  -18.9996   -7.6480 N   0  3  0  0  0  0  0  0  0  0  0  0
  -42.0457  -22.6940   -2.2550 O   0  0  0  0  0  0  0  0  0  0  0  0
  -43.4065  -19.0064   -1.2293 H   0  0  0  0  0  0  0  0  0  0  0  0
  -42.5221  -19.6223    0.1796 H   0  0  0  0  0  0  0  0  0  0  0  0
  -40.7123  -19.7875   -1.7089 H   0  0  0  0  0  0  0  0  0  0  0  0
  -43.2488  -19.8833   -3.0731 H   0  0  0  0  0  0  0  0  0  0  0  0
  -40.8847  -21.1034   -4.4606 H   0  0  0  0  0  0  0  0  0  0  0  0
  -40.5218  -19.5458   -3.7312 H   0  0  0  0  0  0  0  0  0  0  0  0
  -42.3881  -18.4822   -4.9625 H   0  0  0  0  0  0  0  0  0  0  0  0
  -42.7961  -20.0330   -5.7033 H   0  0  0  0  0  0  0  0  0  0  0  0
  -40.2010  -20.0577   -6.4069 H   0  0  0  0  0  0  0  0  0  0  0  0
  -40.2911  -18.3108   -6.0753 H   0  0  0  0  0  0  0  0  0  0  0  0
  -40.7295  -18.8558   -8.3461 H   0  0  0  0  0  0  0  0  0  0  0  0
  -42.0083  -19.8309   -7.9354 H   0  0  0  0  0  0  0  0  0  0  0  0
  -41.5710  -21.0904   -1.1989 H   0  0  0  0  0  0  0  0  0  0  0  0
  -42.0940  -18.1921   -7.6744 H   0  0  0  0  0  0  0  0  0  0  0  0
  1  2  2  0  0  0  0
  2  3  1  0  0  0  0
  2  4  1  0  0  0  0
  4  5  1  0  0  0  0
  4 14  1  0  0  0  0
  4 15  1  0  0  0  0
  5  6  1  0  0  0  0
  5 16  1  0  0  0  0
  5 26  1  0  0  0  0
  6  7  1  0  0  0  0
  6  9  1  0  0  0  0
  6 17  1  6  0  0  0
  7  8  2  0  0  0  0
  7 13  1  0  0  0  0
  9 10  1  0  0  0  0
  9 18  1  0  0  0  0
  9 19  1  0  0  0  0
 10 11  1  0  0  0  0
 10 20  1  0  0  0  0
 10 21  1  0  0  0  0
 11 12  1  0  0  0  0
 11 22  1  0  0  0  0
 11 23  1  0  0  0  0
 12 24  1  0  0  0  0
 12 25  1  0  0  0  0
 12 27  1  0  0  0  0
M  CHG  2   5   1  12   1
M  END
$$$$
