AQQ
 OpenBabel04161911443D

 30 29  0  0  1  0  0  0  0  0999 V2000
    5.8004   19.2768  -12.3266 O   0  0  0  0  0  0  0  0  0  0  0  0
    5.7904   20.5007  -12.0290 C   0  0  0  0  0  0  0  0  0  0  0  0
    4.3673   21.0663  -11.7406 C   0  0  1  0  0  0  0  0  0  0  0  0
    3.8294   21.7702  -12.9654 C   0  0  0  0  0  0  0  0  0  0  0  0
    3.3506   20.0354  -11.3308 N   0  3  0  0  0  0  0  0  0  0  0  0
    3.6096   19.2213  -10.0551 C   0  0  2  0  0  0  0  0  0  0  0  0
    2.4392   18.2040   -9.8150 C   0  0  0  0  0  0  0  0  0  0  0  0
    2.6448   17.3144   -8.9522 O   0  0  0  0  0  0  0  0  0  0  0  0
    1.4058   18.5155  -10.4815 O   0  0  0  0  0  0  0  0  0  0  0  0
    3.5806   20.2067   -8.8815 C   0  0  0  0  0  0  0  0  0  0  0  0
    4.1976   19.7072   -7.5754 C   0  0  0  0  0  0  0  0  0  0  0  0
    4.0202   20.8127   -6.5464 C   0  0  0  0  0  0  0  0  0  0  0  0
    4.3308   20.3110   -5.1980 N   0  3  0  0  0  0  0  0  0  0  0  0
    6.7312   21.3120  -11.8179 O   0  0  0  0  0  0  0  0  0  0  0  0
    4.4294   21.8028  -10.9369 H   0  0  0  0  0  0  0  0  0  0  0  0
    2.8291   22.1726  -12.7695 H   0  0  0  0  0  0  0  0  0  0  0  0
    3.7673   21.0961  -13.8227 H   0  0  0  0  0  0  0  0  0  0  0  0
    4.4759   22.6106  -13.2433 H   0  0  0  0  0  0  0  0  0  0  0  0
    2.3577   20.3174  -11.2907 H   0  0  0  0  0  0  0  0  0  0  0  0
    4.5664   18.7054  -10.1683 H   0  0  0  0  0  0  0  0  0  0  0  0
    2.5435   20.5077   -8.6936 H   0  0  0  0  0  0  0  0  0  0  0  0
    4.1254   21.1179   -9.1264 H   0  0  0  0  0  0  0  0  0  0  0  0
    5.2636   19.4936   -7.7155 H   0  0  0  0  0  0  0  0  0  0  0  0
    3.7202   18.7867   -7.2303 H   0  0  0  0  0  0  0  0  0  0  0  0
    2.9902   21.1813   -6.5086 H   0  0  0  0  0  0  0  0  0  0  0  0
    4.6926   21.6606   -6.7405 H   0  0  0  0  0  0  0  0  0  0  0  0
    4.1986   21.0419   -4.4922 H   0  0  0  0  0  0  0  0  0  0  0  0
    3.7177   19.5207   -4.9599 H   0  0  0  0  0  0  0  0  0  0  0  0
    3.3658   19.3061  -12.0624 H   0  0  0  0  0  0  0  0  0  0  0  0
    5.3072   19.9676   -5.1424 H   0  0  0  0  0  0  0  0  0  0  0  0
  1  2  2  0  0  0  0
  2  3  1  0  0  0  0
  2 14  1  0  0  0  0
  3  4  1  0  0  0  0
  3  5  1  0  0  0  0
  3 15  1  1  0  0  0
  4 16  1  0  0  0  0
  4 17  1  0  0  0  0
  4 18  1  0  0  0  0
  5  6  1  0  0  0  0
  5 19  1  0  0  0  0
  5 29  1  0  0  0  0
  6  7  1  0  0  0  0
  6 10  1  0  0  0  0
  6 20  1  6  0  0  0
  7  8  2  0  0  0  0
  7  9  1  0  0  0  0
 10 11  1  0  0  0  0
 10 21  1  0  0  0  0
 10 22  1  0  0  0  0
 11 12  1  0  0  0  0
 11 23  1  0  0  0  0
 11 24  1  0  0  0  0
 12 13  1  0  0  0  0
 12 25  1  0  0  0  0
 12 26  1  0  0  0  0
 13 27  1  0  0  0  0
 13 28  1  0  0  0  0
 13 30  1  0  0  0  0
M  CHG  2   5   1  13   1
M  END
$$$$
