AR6
 OpenBabel04161910213D

 57 60  0  0  1  0  0  0  0  0999 V2000
   33.2399    1.9384   12.8696 N   0  0  0  0  0  0  0  0  0  0  0  0
   32.2501    1.6467   13.7501 C   0  0  0  0  0  0  0  0  0  0  0  0
   31.1889    2.3943   14.0989 N   0  0  0  0  0  0  0  0  0  0  0  0
   31.1339    3.5324   13.3914 C   0  0  0  0  0  0  0  0  0  0  0  0
   32.0736    3.9583   12.4528 C   0  0  0  0  0  0  0  0  0  0  0  0
   33.1739    3.1167   12.2161 C   0  0  0  0  0  0  0  0  0  0  0  0
   34.2081    3.4612   11.3493 N   0  0  0  0  0  0  0  0  0  0  0  0
   31.7283    5.1914   11.9440 N   0  0  0  0  0  0  0  0  0  0  0  0
   30.5676    5.4702   12.5002 C   0  0  0  0  0  0  0  0  0  0  0  0
   30.1923    4.5229   13.4188 N   0  3  0  0  0  0  0  0  0  0  0  0
   26.4073    6.1361   10.9497 P   0  0  1  0  0  0  0  0  0  0  0  0
   23.5574    6.6479   10.3640 P   0  0  1  0  0  0  0  0  0  0  0  0
   29.0761    4.5815   14.3494 C   0  0  1  0  0  0  0  0  0  0  0  0
   27.2557    4.9225   10.6089 O   0  0  0  0  0  0  0  0  0  0  0  0
   22.3876    5.6792   10.4632 O   0  0  0  0  0  0  0  0  0  0  0  0
   26.1135    5.3223    5.9242 C   0  0  2  0  0  0  0  0  0  0  0  0
   26.8925    5.8184    4.8459 O   0  0  0  0  0  0  0  0  0  0  0  0
   28.6189    5.9751   14.7871 C   0  0  2  0  0  0  0  0  0  0  0  0
   29.4442    6.5520   15.8112 O   0  0  0  0  0  0  0  0  0  0  0  0
   26.8915    7.4849   10.4904 O   0  0  0  0  0  0  0  0  0  0  0  0
   23.5239    7.8920   11.2141 O   0  0  0  0  0  0  0  0  0  0  0  0
   24.9724    4.4058    5.4642 C   0  0  2  0  0  0  0  0  0  0  0  0
   25.1793    3.6563    4.2653 O   0  0  0  0  0  0  0  0  0  0  0  0
   27.2269    5.6526   15.3117 C   0  0  2  0  0  0  0  0  0  0  0  0
   27.3329    5.1061   16.6490 O   0  0  0  0  0  0  0  0  0  0  0  0
   24.9009    5.8082   10.5461 O   0  0  0  0  0  0  0  0  0  0  0  0
   23.7655    5.3344    5.4222 C   0  0  2  0  0  0  0  0  0  0  0  0
   23.5991    5.9536    4.1369 O   0  0  0  0  0  0  0  0  0  0  0  0
   26.7420    4.5564   14.3550 C   0  0  2  0  0  0  0  0  0  0  0  0
   27.9254    3.9374   13.7850 O   0  0  0  0  0  0  0  0  0  0  0  0
   24.0969    6.3785    6.4963 C   0  0  2  0  0  0  0  0  0  0  0  0
   25.5351    6.4227    6.6119 O   0  0  0  0  0  0  0  0  0  0  0  0
   25.8023    5.0343   13.2416 C   0  0  0  0  0  0  0  0  0  0  0  0
   26.3182    6.1764   12.5808 O   0  0  0  0  0  0  0  0  0  0  0  0
   23.4487    6.0254    7.8440 C   0  0  0  0  0  0  0  0  0  0  0  0
   23.6654    7.0639    8.7915 O   0  0  0  0  0  0  0  0  0  0  0  0
   32.3336    0.6807   14.2369 H   0  0  0  0  0  0  0  0  0  0  0  0
   33.9474    4.1909   10.6943 H   0  0  0  0  0  0  0  0  0  0  0  0
   34.7374    2.6687   11.0174 H   0  0  0  0  0  0  0  0  0  0  0  0
   29.9722    6.3491   12.2821 H   0  0  0  0  0  0  0  0  0  0  0  0
   29.3806    4.0065   15.2323 H   0  0  0  0  0  0  0  0  0  0  0  0
   26.7924    4.7845    6.5941 H   0  0  0  0  0  0  0  0  0  0  0  0
   27.5258    6.4036    5.3008 H   0  0  0  0  0  0  0  0  0  0  0  0
   28.5503    6.6727   13.9467 H   0  0  0  0  0  0  0  0  0  0  0  0
   29.2602    7.5089   15.8000 H   0  0  0  0  0  0  0  0  0  0  0  0
   24.8033    3.6713    6.2587 H   0  0  0  0  0  0  0  0  0  0  0  0
   26.1164    3.3994    4.2650 H   0  0  0  0  0  0  0  0  0  0  0  0
   26.5746    6.5262   15.3886 H   0  0  0  0  0  0  0  0  0  0  0  0
   27.9266    5.7068   17.1371 H   0  0  0  0  0  0  0  0  0  0  0  0
   22.8395    4.7852    5.6190 H   0  0  0  0  0  0  0  0  0  0  0  0
   22.8243    6.5348    4.2086 H   0  0  0  0  0  0  0  0  0  0  0  0
   26.2318    3.7653   14.9157 H   0  0  0  0  0  0  0  0  0  0  0  0
   23.7819    7.3843    6.1970 H   0  0  0  0  0  0  0  0  0  0  0  0
   24.8369    5.3171   13.6757 H   0  0  0  0  0  0  0  0  0  0  0  0
   25.6258    4.2143   12.5374 H   0  0  0  0  0  0  0  0  0  0  0  0
   23.8424    5.0763    8.2244 H   0  0  0  0  0  0  0  0  0  0  0  0
   22.3667    5.9249    7.7030 H   0  0  0  0  0  0  0  0  0  0  0  0
  1  2  2  0  0  0  0
  1  6  1  0  0  0  0
  2  3  1  0  0  0  0
  2 37  1  0  0  0  0
  3  4  2  0  0  0  0
  4  5  1  0  0  0  0
  4 10  1  0  0  0  0
  5  6  2  0  0  0  0
  5  8  1  0  0  0  0
  6  7  1  0  0  0  0
  7 38  1  0  0  0  0
  7 39  1  0  0  0  0
  8  9  1  0  0  0  0
  9 10  2  0  0  0  0
  9 40  1  0  0  0  0
 10 13  1  0  0  0  0
 11 14  2  6  0  0  0
 11 20  1  0  0  0  0
 11 26  1  0  0  0  0
 11 34  1  0  0  0  0
 12 15  2  1  0  0  0
 12 21  1  0  0  0  0
 12 26  1  0  0  0  0
 12 36  1  0  0  0  0
 13 18  1  0  0  0  0
 13 30  1  0  0  0  0
 13 41  1  1  0  0  0
 16 17  1  0  0  0  0
 16 22  1  0  0  0  0
 16 32  1  0  0  0  0
 16 42  1  1  0  0  0
 17 43  1  0  0  0  0
 18 19  1  0  0  0  0
 18 24  1  0  0  0  0
 18 44  1  6  0  0  0
 19 45  1  0  0  0  0
 22 23  1  0  0  0  0
 22 27  1  0  0  0  0
 22 46  1  1  0  0  0
 23 47  1  0  0  0  0
 24 25  1  0  0  0  0
 24 29  1  0  0  0  0
 24 48  1  6  0  0  0
 25 49  1  0  0  0  0
 27 28  1  0  0  0  0
 27 31  1  0  0  0  0
 27 50  1  1  0  0  0
 28 51  1  0  0  0  0
 29 30  1  0  0  0  0
 29 33  1  0  0  0  0
 29 52  1  1  0  0  0
 31 32  1  0  0  0  0
 31 35  1  0  0  0  0
 31 53  1  6  0  0  0
 33 34  1  0  0  0  0
 33 54  1  0  0  0  0
 33 55  1  0  0  0  0
 35 36  1  0  0  0  0
 35 56  1  0  0  0  0
 35 57  1  0  0  0  0
M  CHG  1  10   1
M  END
$$$$
