ARG
 OpenBabel04161910283D

 27 26  0  0  1  0  0  0  0  0999 V2000
  -24.8297   11.8999  -41.6166 N   0  3  0  0  0  0  0  0  0  0  0  0
  -23.7467   12.7178  -40.9450 C   0  0  2  0  0  0  0  0  0  0  0  0
  -22.3523   12.6166  -41.7079 C   0  0  0  0  0  0  0  0  0  0  0  0
  -22.4145   11.7674  -42.6363 O   0  0  0  0  0  0  0  0  0  0  0  0
  -23.6056   12.2755  -39.4788 C   0  0  0  0  0  0  0  0  0  0  0  0
  -24.8929   11.8752  -38.7471 C   0  0  0  0  0  0  0  0  0  0  0  0
  -25.7518   13.0678  -38.3627 C   0  0  0  0  0  0  0  0  0  0  0  0
  -27.1702   12.6832  -38.3022 N   0  0  0  0  0  0  0  0  0  0  0  0
  -27.7821   12.2114  -37.2122 C   0  0  0  0  0  0  0  0  0  0  0  0
  -27.1488   12.0007  -36.0707 N   0  0  0  0  0  0  0  0  0  0  0  0
  -29.0832   11.9135  -37.2637 N   0  0  0  0  0  0  0  0  0  0  0  0
  -21.4881   13.4082  -41.2701 O   0  0  0  0  0  0  0  0  0  0  0  0
  -25.7346   11.9500  -41.1672 H   0  0  0  0  0  0  0  0  0  0  0  0
  -24.8943   12.2149  -42.5951 H   0  0  0  0  0  0  0  0  0  0  0  0
  -24.1102   13.7507  -40.9734 H   0  0  0  0  0  0  0  0  0  0  0  0
  -23.1417   13.0978  -38.9189 H   0  0  0  0  0  0  0  0  0  0  0  0
  -22.9205   11.4225  -39.4327 H   0  0  0  0  0  0  0  0  0  0  0  0
  -24.6311   11.3288  -37.8319 H   0  0  0  0  0  0  0  0  0  0  0  0
  -25.4771   11.1819  -39.3579 H   0  0  0  0  0  0  0  0  0  0  0  0
  -25.6642   13.8637  -39.1049 H   0  0  0  0  0  0  0  0  0  0  0  0
  -25.4370   13.4793  -37.3973 H   0  0  0  0  0  0  0  0  0  0  0  0
  -27.7575   12.8452  -39.1125 H   0  0  0  0  0  0  0  0  0  0  0  0
  -27.6002   11.6355  -35.2488 H   0  0  0  0  0  0  0  0  0  0  0  0
  -29.6245   12.0547  -38.1072 H   0  0  0  0  0  0  0  0  0  0  0  0
  -29.5718   11.5403  -36.4573 H   0  0  0  0  0  0  0  0  0  0  0  0
  -24.4808   10.9307  -41.6964 H   0  0  0  0  0  0  0  0  0  0  0  0
  -26.1558   12.2177  -35.9800 H   0  0  0  0  0  0  0  0  0  0  0  0
  1  2  1  0  0  0  0
  1 13  1  0  0  0  0
  1 14  1  0  0  0  0
  1 26  1  0  0  0  0
  2  3  1  0  0  0  0
  2  5  1  0  0  0  0
  2 15  1  6  0  0  0
  3  4  2  0  0  0  0
  3 12  1  0  0  0  0
  5  6  1  0  0  0  0
  5 16  1  0  0  0  0
  5 17  1  0  0  0  0
  6  7  1  0  0  0  0
  6 18  1  0  0  0  0
  6 19  1  0  0  0  0
  7  8  1  0  0  0  0
  7 20  1  0  0  0  0
  7 21  1  0  0  0  0
  8  9  1  0  0  0  0
  8 22  1  0  0  0  0
  9 10  2  0  0  0  0
  9 11  1  0  0  0  0
 10 23  1  0  0  0  0
 10 27  1  0  0  0  0
 11 24  1  0  0  0  0
 11 25  1  0  0  0  0
M  CHG  1   1   1
M  END
$$$$
