ATP
 OpenBabel04161910113D

 43 45  0  0  1  0  0  0  0  0999 V2000
   19.9707    1.5074    4.2753 P   0  0  0  0  0  0  0  0  0  0  0  0
   20.9148    2.5480    3.6664 O   0  0  0  0  0  0  0  0  0  0  0  0
   18.5585    2.0956    4.4534 O   0  0  0  0  0  0  0  0  0  0  0  0
   20.4676    0.9018    5.5900 O   0  0  0  0  0  0  0  0  0  0  0  0
   20.7194   -0.7697    2.4506 P   0  0  1  0  0  0  0  0  0  0  0  0
   20.5644   -0.6569    0.9361 O   0  0  0  0  0  0  0  0  0  0  0  0
   22.1606   -0.8351    2.9663 O   0  0  0  0  0  0  0  0  0  0  0  0
   19.7952    0.3076    3.2090 O   0  0  0  0  0  0  0  0  0  0  0  0
   19.0271   -3.2052    2.3326 P   0  0  1  0  0  0  0  0  0  0  0  0
   17.9054   -2.6741    1.4661 O   0  0  0  0  0  0  0  0  0  0  0  0
   19.7556   -4.4783    1.8909 O   0  0  0  0  0  0  0  0  0  0  0  0
   20.0260   -2.1366    2.9517 O   0  0  0  0  0  0  0  0  0  0  0  0
   18.2653   -3.6600    3.7053 O   0  0  0  0  0  0  0  0  0  0  0  0
   19.0009   -4.3182    4.7161 C   0  0  0  0  0  0  0  0  0  0  0  0
   17.9849   -4.8201    5.7491 C   0  0  1  0  0  0  0  0  0  0  0  0
   17.0503   -5.7647    5.1229 O   0  0  0  0  0  0  0  0  0  0  0  0
   18.6233   -5.5628    6.9314 C   0  0  1  0  0  0  0  0  0  0  0  0
   17.9746   -5.1946    8.1651 O   0  0  0  0  0  0  0  0  0  0  0  0
   18.2860   -7.0258    6.6436 C   0  0  1  0  0  0  0  0  0  0  0  0
   18.3303   -7.8320    7.8275 O   0  0  0  0  0  0  0  0  0  0  0  0
   16.8944   -6.8578    6.0254 C   0  0  2  0  0  0  0  0  0  0  0  0
   16.3924   -8.0127    5.3138 N   0  3  0  0  0  0  0  0  0  0  0  0
   16.9379   -8.6253    4.2126 C   0  0  0  0  0  0  0  0  0  0  0  0
   16.2903   -9.7303    3.8733 N   0  0  0  0  0  0  0  0  0  0  0  0
   15.2130   -9.7680    4.7247 C   0  0  0  0  0  0  0  0  0  0  0  0
   14.1466  -10.6813    4.8542 C   0  0  0  0  0  0  0  0  0  0  0  0
   14.0146  -11.8211    4.0655 N   0  0  0  0  0  0  0  0  0  0  0  0
   13.2072  -10.4506    5.8012 N   0  0  0  0  0  0  0  0  0  0  0  0
   13.3799   -9.3827    6.6129 C   0  0  0  0  0  0  0  0  0  0  0  0
   14.3874   -8.4901    6.6335 N   0  0  0  0  0  0  0  0  0  0  0  0
   15.2625   -8.7311    5.6407 C   0  0  0  0  0  0  0  0  0  0  0  0
   19.7045   -3.6167    5.1807 H   0  0  0  0  0  0  0  0  0  0  0  0
   19.5559   -5.1594    4.2890 H   0  0  0  0  0  0  0  0  0  0  0  0
   17.3727   -3.9785    6.0951 H   0  0  0  0  0  0  0  0  0  0  0  0
   19.6915   -5.3771    7.0588 H   0  0  0  0  0  0  0  0  0  0  0  0
   18.3871   -5.7531    8.8502 H   0  0  0  0  0  0  0  0  0  0  0  0
   19.0015   -7.4304    5.9194 H   0  0  0  0  0  0  0  0  0  0  0  0
   18.0302   -8.7213    7.5671 H   0  0  0  0  0  0  0  0  0  0  0  0
   16.1525   -6.5868    6.7848 H   0  0  0  0  0  0  0  0  0  0  0  0
   17.8132   -8.2181    3.7102 H   0  0  0  0  0  0  0  0  0  0  0  0
   13.0707  -12.1792    4.0380 H   0  0  0  0  0  0  0  0  0  0  0  0
   14.5412  -11.7672    3.1952 H   0  0  0  0  0  0  0  0  0  0  0  0
   12.6061   -9.2262    7.3606 H   0  0  0  0  0  0  0  0  0  0  0  0
  1  2  2  0  0  0  0
  1  3  1  0  0  0  0
  1  4  1  0  0  0  0
  1  8  1  0  0  0  0
  5  6  2  6  0  0  0
  5  7  1  0  0  0  0
  5  8  1  0  0  0  0
  5 12  1  0  0  0  0
  9 10  2  6  0  0  0
  9 11  1  0  0  0  0
  9 12  1  0  0  0  0
  9 13  1  0  0  0  0
 13 14  1  0  0  0  0
 14 15  1  0  0  0  0
 14 32  1  0  0  0  0
 14 33  1  0  0  0  0
 15 16  1  0  0  0  0
 15 17  1  0  0  0  0
 15 34  1  1  0  0  0
 16 21  1  0  0  0  0
 17 18  1  0  0  0  0
 17 19  1  0  0  0  0
 17 35  1  1  0  0  0
 18 36  1  0  0  0  0
 19 20  1  0  0  0  0
 19 21  1  0  0  0  0
 19 37  1  6  0  0  0
 20 38  1  0  0  0  0
 21 22  1  0  0  0  0
 21 39  1  1  0  0  0
 22 23  2  0  0  0  0
 22 31  1  0  0  0  0
 23 24  1  0  0  0  0
 23 40  1  0  0  0  0
 24 25  1  0  0  0  0
 25 26  2  0  0  0  0
 25 31  1  0  0  0  0
 26 27  1  0  0  0  0
 26 28  1  0  0  0  0
 27 41  1  0  0  0  0
 27 42  1  0  0  0  0
 28 29  2  0  0  0  0
 29 30  1  0  0  0  0
 29 43  1  0  0  0  0
 30 31  2  0  0  0  0
M  CHG  1  22   1
M  END
$$$$
