ATP
 OpenBabel04161911023D

 43 45  0  0  1  0  0  0  0  0999 V2000
  -24.2666   -7.3513   24.4387 P   0  0  0  0  0  0  0  0  0  0  0  0
  -25.3129   -8.3864   23.9908 O   0  0  0  0  0  0  0  0  0  0  0  0
  -24.9011   -6.1482   25.1013 O   0  0  0  0  0  0  0  0  0  0  0  0
  -23.1833   -8.0326   25.2939 O   0  0  0  0  0  0  0  0  0  0  0  0
  -22.8145   -5.5896   22.4688 P   0  0  2  0  0  0  0  0  0  0  0  0
  -21.8362   -6.0576   21.3738 O   0  0  0  0  0  0  0  0  0  0  0  0
  -22.1701   -4.6185   23.4426 O   0  0  0  0  0  0  0  0  0  0  0  0
  -23.5207   -6.8941   23.0828 O   0  0  0  0  0  0  0  0  0  0  0  0
  -24.8543   -3.5659   21.7886 P   0  0  1  0  0  0  0  0  0  0  0  0
  -25.7799   -3.4309   20.5780 O   0  0  0  0  0  0  0  0  0  0  0  0
  -25.4122   -3.2041   23.1432 O   0  0  0  0  0  0  0  0  0  0  0  0
  -24.0340   -4.9066   21.6733 O   0  0  0  0  0  0  0  0  0  0  0  0
  -23.6862   -2.4688   21.5251 O   0  0  0  0  0  0  0  0  0  0  0  0
  -23.2431   -2.2487   20.2147 C   0  0  0  0  0  0  0  0  0  0  0  0
  -22.0249   -1.3357   20.3251 C   0  0  1  0  0  0  0  0  0  0  0  0
  -22.4155   -0.0425   20.8847 O   0  0  0  0  0  0  0  0  0  0  0  0
  -20.9379   -1.9054   21.2452 C   0  0  1  0  0  0  0  0  0  0  0  0
  -19.6299   -1.4351   20.8186 O   0  0  0  0  0  0  0  0  0  0  0  0
  -21.2278   -1.2909   22.6073 C   0  0  1  0  0  0  0  0  0  0  0  0
  -20.0322   -1.0891   23.3919 O   0  0  0  0  0  0  0  0  0  0  0  0
  -21.8528    0.0515   22.2159 C   0  0  2  0  0  0  0  0  0  0  0  0
  -22.8331    0.5607   23.1598 N   0  3  0  0  0  0  0  0  0  0  0  0
  -23.8527   -0.1543   23.7398 C   0  0  0  0  0  0  0  0  0  0  0  0
  -24.5312    0.5632   24.6161 N   0  0  0  0  0  0  0  0  0  0  0  0
  -23.9115    1.7749   24.6243 C   0  0  0  0  0  0  0  0  0  0  0  0
  -24.1925    2.9343   25.3631 C   0  0  0  0  0  0  0  0  0  0  0  0
  -25.2653    3.0110   26.2321 N   0  0  0  0  0  0  0  0  0  0  0  0
  -23.4038    4.0211   25.1892 N   0  0  0  0  0  0  0  0  0  0  0  0
  -22.3934    3.9108   24.2976 C   0  0  0  0  0  0  0  0  0  0  0  0
  -22.0256    2.8625   23.5273 N   0  0  0  0  0  0  0  0  0  0  0  0
  -22.8432    1.8098   23.7403 C   0  0  0  0  0  0  0  0  0  0  0  0
  -24.0415   -1.7404   19.6559 H   0  0  0  0  0  0  0  0  0  0  0  0
  -22.9914   -3.1872   19.7176 H   0  0  0  0  0  0  0  0  0  0  0  0
  -21.6378   -1.1369   19.3200 H   0  0  0  0  0  0  0  0  0  0  0  0
  -20.9073   -2.9992   21.2474 H   0  0  0  0  0  0  0  0  0  0  0  0
  -19.0344   -2.0444   21.2997 H   0  0  0  0  0  0  0  0  0  0  0  0
  -21.9092   -1.9216   23.1805 H   0  0  0  0  0  0  0  0  0  0  0  0
  -19.4013   -0.6498   22.7978 H   0  0  0  0  0  0  0  0  0  0  0  0
  -21.0632    0.8131   22.1421 H   0  0  0  0  0  0  0  0  0  0  0  0
  -24.0505   -1.1958   23.5101 H   0  0  0  0  0  0  0  0  0  0  0  0
  -25.3423    3.8060   26.8360 H   0  0  0  0  0  0  0  0  0  0  0  0
  -25.7317    2.1263   26.4218 H   0  0  0  0  0  0  0  0  0  0  0  0
  -21.7934    4.8071   24.1753 H   0  0  0  0  0  0  0  0  0  0  0  0
  1  2  2  0  0  0  0
  1  3  1  0  0  0  0
  1  4  1  0  0  0  0
  1  8  1  0  0  0  0
  5  6  2  6  0  0  0
  5  7  1  0  0  0  0
  5  8  1  0  0  0  0
  5 12  1  0  0  0  0
  9 10  2  6  0  0  0
  9 11  1  0  0  0  0
  9 12  1  0  0  0  0
  9 13  1  0  0  0  0
 13 14  1  0  0  0  0
 14 15  1  0  0  0  0
 14 32  1  0  0  0  0
 14 33  1  0  0  0  0
 15 16  1  0  0  0  0
 15 17  1  0  0  0  0
 15 34  1  6  0  0  0
 16 21  1  0  0  0  0
 17 18  1  0  0  0  0
 17 19  1  0  0  0  0
 17 35  1  1  0  0  0
 18 36  1  0  0  0  0
 19 20  1  0  0  0  0
 19 21  1  0  0  0  0
 19 37  1  1  0  0  0
 20 38  1  0  0  0  0
 21 22  1  0  0  0  0
 21 39  1  6  0  0  0
 22 23  2  0  0  0  0
 22 31  1  0  0  0  0
 23 24  1  0  0  0  0
 23 40  1  0  0  0  0
 24 25  1  0  0  0  0
 25 26  2  0  0  0  0
 25 31  1  0  0  0  0
 26 27  1  0  0  0  0
 26 28  1  0  0  0  0
 27 41  1  0  0  0  0
 27 42  1  0  0  0  0
 28 29  2  0  0  0  0
 29 30  1  0  0  0  0
 29 43  1  0  0  0  0
 30 31  2  0  0  0  0
M  CHG  1  22   1
M  END
$$$$
