AXK
 OpenBabel04161911453D

 43 45  0  0  1  0  0  0  0  0999 V2000
    6.0440  -17.1173  -22.4358 C   0  0  0  0  0  0  0  0  0  0  0  0
    7.0390  -15.5212  -23.9603 C   0  0  0  0  0  0  0  0  0  0  0  0
    4.7947  -16.5827  -22.6828 C   0  0  0  0  0  0  0  0  0  0  0  0
    4.6600  -15.5120  -23.5708 C   0  0  0  0  0  0  0  0  0  0  0  0
    3.3336  -15.0031  -23.8935 C   0  0  0  0  0  0  0  0  0  0  0  0
    0.7925  -14.1455  -24.5720 C   0  0  0  0  0  0  0  0  0  0  0  0
    1.7130  -14.3863  -25.5810 C   0  0  0  0  0  0  0  0  0  0  0  0
    2.4015  -14.7484  -22.8946 C   0  0  0  0  0  0  0  0  0  0  0  0
    1.1160  -14.3301  -23.2328 C   0  0  0  0  0  0  0  0  0  0  0  0
    7.1676  -16.5959  -23.0834 C   0  0  0  0  0  0  0  0  0  0  0  0
    5.7905  -14.9796  -24.1982 C   0  0  0  0  0  0  0  0  0  0  0  0
    2.9970  -14.8094  -25.2254 C   0  0  0  0  0  0  0  0  0  0  0  0
    8.5201  -17.2080  -22.8229 C   0  0  2  0  0  0  0  0  0  0  0  0
    9.7734  -16.1203  -21.8264 P   0  0  0  0  0  0  0  0  0  0  0  0
   10.8540  -17.1454  -21.4347 O   0  0  0  0  0  0  0  0  0  0  0  0
    8.9105  -15.6035  -20.6653 O   0  0  0  0  0  0  0  0  0  0  0  0
   10.2072  -15.0459  -22.8369 O   0  0  0  0  0  0  0  0  0  0  0  0
    9.1446  -17.5396  -24.0831 O   0  0  0  0  0  0  0  0  0  0  0  0
    1.4026  -14.2035  -27.0374 C   0  0  1  0  0  0  0  0  0  0  0  0
    0.0012  -14.0927  -27.2735 O   0  0  0  0  0  0  0  0  0  0  0  0
    2.1400  -13.0436  -27.6630 C   0  0  0  0  0  0  0  0  0  0  0  0
    3.6491  -10.9903  -28.8203 C   0  0  0  0  0  0  0  0  0  0  0  0
    2.8303  -10.7221  -27.7208 C   0  0  0  0  0  0  0  0  0  0  0  0
    2.0830  -11.7446  -27.1380 C   0  0  0  0  0  0  0  0  0  0  0  0
    2.9511  -13.2981  -28.7677 C   0  0  0  0  0  0  0  0  0  0  0  0
    3.7085  -12.2804  -29.3474 C   0  0  0  0  0  0  0  0  0  0  0  0
    4.6728  -12.6647  -30.7168 Cl  0  0  0  0  0  0  0  0  0  0  0  0
    4.5594   -9.7060  -29.5194 Cl  0  0  0  0  0  0  0  0  0  0  0  0
    6.1581  -17.9335  -21.7340 H   0  0  0  0  0  0  0  0  0  0  0  0
    7.9257  -15.1071  -24.4360 H   0  0  0  0  0  0  0  0  0  0  0  0
    3.9278  -17.0083  -22.1986 H   0  0  0  0  0  0  0  0  0  0  0  0
   -0.2166  -13.8157  -24.8337 H   0  0  0  0  0  0  0  0  0  0  0  0
    2.6692  -14.8820  -21.8479 H   0  0  0  0  0  0  0  0  0  0  0  0
    0.3867  -14.1638  -22.4608 H   0  0  0  0  0  0  0  0  0  0  0  0
    5.7022  -14.1413  -24.8778 H   0  0  0  0  0  0  0  0  0  0  0  0
    3.7350  -15.0205  -25.9977 H   0  0  0  0  0  0  0  0  0  0  0  0
    8.3682  -18.1421  -22.2624 H   0  0  0  0  0  0  0  0  0  0  0  0
    8.4705  -18.0032  -24.5967 H   0  0  0  0  0  0  0  0  0  0  0  0
    1.7315  -15.1218  -27.5383 H   0  0  0  0  0  0  0  0  0  0  0  0
   -0.1191  -13.9789  -28.2295 H   0  0  0  0  0  0  0  0  0  0  0  0
    2.7722   -9.7168  -27.3077 H   0  0  0  0  0  0  0  0  0  0  0  0
    1.4688  -11.5391  -26.2637 H   0  0  0  0  0  0  0  0  0  0  0  0
    3.0031  -14.3080  -29.1734 H   0  0  0  0  0  0  0  0  0  0  0  0
  1  3  2  0  0  0  0
  1 10  1  0  0  0  0
  1 29  1  0  0  0  0
  2 10  2  0  0  0  0
  2 11  1  0  0  0  0
  2 30  1  0  0  0  0
  3  4  1  0  0  0  0
  3 31  1  0  0  0  0
  4  5  1  0  0  0  0
  4 11  2  0  0  0  0
  5  8  2  0  0  0  0
  5 12  1  0  0  0  0
  6  7  1  0  0  0  0
  6  9  2  0  0  0  0
  6 32  1  0  0  0  0
  7 12  2  0  0  0  0
  7 19  1  0  0  0  0
  8  9  1  0  0  0  0
  8 33  1  0  0  0  0
  9 34  1  0  0  0  0
 10 13  1  0  0  0  0
 11 35  1  0  0  0  0
 12 36  1  0  0  0  0
 13 14  1  0  0  0  0
 13 18  1  0  0  0  0
 13 37  1  1  0  0  0
 14 15  2  0  0  0  0
 14 16  1  0  0  0  0
 14 17  1  0  0  0  0
 18 38  1  0  0  0  0
 19 20  1  0  0  0  0
 19 21  1  0  0  0  0
 19 39  1  6  0  0  0
 20 40  1  0  0  0  0
 21 24  2  0  0  0  0
 21 25  1  0  0  0  0
 22 23  2  0  0  0  0
 22 26  1  0  0  0  0
 22 28  1  0  0  0  0
 23 24  1  0  0  0  0
 23 41  1  0  0  0  0
 24 42  1  0  0  0  0
 25 26  2  0  0  0  0
 25 43  1  0  0  0  0
 26 27  1  0  0  0  0
M  END
$$$$
