AY5
 OpenBabel04161911463D

 43 45  0  0  1  0  0  0  0  0999 V2000
    0.6869  -13.9905  -22.9205 C   0  0  0  0  0  0  0  0  0  0  0  0
    1.9774  -14.4632  -22.7100 C   0  0  0  0  0  0  0  0  0  0  0  0
    4.3526  -16.3225  -22.7069 C   0  0  0  0  0  0  0  0  0  0  0  0
    6.6201  -15.1799  -23.8473 C   0  0  0  0  0  0  0  0  0  0  0  0
    1.5801  -11.1353  -26.8722 C   0  0  0  0  0  0  0  0  0  0  0  0
    2.3801  -10.1615  -27.4816 C   0  0  0  0  0  0  0  0  0  0  0  0
    2.4367  -14.3200  -25.0712 C   0  0  0  0  0  0  0  0  0  0  0  0
    2.3198  -12.7615  -28.4965 C   0  0  0  0  0  0  0  0  0  0  0  0
    4.2081  -15.2013  -23.5406 C   0  0  0  0  0  0  0  0  0  0  0  0
    2.8705  -14.6455  -23.7807 C   0  0  0  0  0  0  0  0  0  0  0  0
    6.7524  -16.2951  -23.0091 C   0  0  0  0  0  0  0  0  0  0  0  0
    1.1317  -13.8335  -25.2989 C   0  0  0  0  0  0  0  0  0  0  0  0
    1.5360  -12.4425  -27.3774 C   0  0  0  0  0  0  0  0  0  0  0  0
    0.6687  -13.4820  -26.6915 C   0  0  1  0  0  0  0  0  0  0  0  0
    8.1105  -16.9126  -22.7354 C   0  0  1  0  0  0  0  0  0  0  0  0
    5.3614  -14.6382  -24.1093 C   0  0  0  0  0  0  0  0  0  0  0  0
    0.2706  -13.6844  -24.2065 C   0  0  0  0  0  0  0  0  0  0  0  0
    5.6096  -16.8565  -22.4359 C   0  0  0  0  0  0  0  0  0  0  0  0
    3.1422  -10.4883  -28.6036 C   0  0  0  0  0  0  0  0  0  0  0  0
    3.1167  -11.7907  -29.1120 C   0  0  0  0  0  0  0  0  0  0  0  0
    9.8008  -14.7311  -22.9122 O   0  0  0  0  0  0  0  0  0  0  0  0
    0.5269  -14.6586  -27.4744 O   0  0  0  0  0  0  0  0  0  0  0  0
    8.6259  -17.4883  -23.9599 O   0  0  0  0  0  0  0  0  0  0  0  0
   10.5575  -16.7862  -21.5345 O   0  0  0  0  0  0  0  0  0  0  0  0
    8.7012  -15.2598  -20.6425 O   0  0  0  0  0  0  0  0  0  0  0  0
    9.4438  -15.7929  -21.8712 P   0  0  0  0  0  0  0  0  0  0  0  0
    4.0843   -9.2303  -29.3239 Cl  0  0  0  0  0  0  0  0  0  0  0  0
    4.0296  -12.2630  -30.5007 Cl  0  0  0  0  0  0  0  0  0  0  0  0
    0.0157  -13.8600  -22.0738 H   0  0  0  0  0  0  0  0  0  0  0  0
    2.3017  -14.6902  -21.6947 H   0  0  0  0  0  0  0  0  0  0  0  0
    3.4860  -16.7836  -22.2445 H   0  0  0  0  0  0  0  0  0  0  0  0
    7.5237  -14.7221  -24.2537 H   0  0  0  0  0  0  0  0  0  0  0  0
    1.0064  -10.8670  -25.9841 H   0  0  0  0  0  0  0  0  0  0  0  0
    2.4069   -9.1592  -27.0663 H   0  0  0  0  0  0  0  0  0  0  0  0
    3.1184  -14.4539  -25.9113 H   0  0  0  0  0  0  0  0  0  0  0  0
    2.3141  -13.7782  -28.8880 H   0  0  0  0  0  0  0  0  0  0  0  0
   -0.3477  -13.0528  -26.6340 H   0  0  0  0  0  0  0  0  0  0  0  0
    7.9973  -17.7420  -22.0280 H   0  0  0  0  0  0  0  0  0  0  0  0
    5.3048  -13.7487  -24.7319 H   0  0  0  0  0  0  0  0  0  0  0  0
   -0.7458  -13.3073  -24.3505 H   0  0  0  0  0  0  0  0  0  0  0  0
    5.7016  -17.6937  -21.7520 H   0  0  0  0  0  0  0  0  0  0  0  0
    0.1971  -15.3514  -26.8765 H   0  0  0  0  0  0  0  0  0  0  0  0
    7.8598  -17.8845  -24.3867 H   0  0  0  0  0  0  0  0  0  0  0  0
  1  2  2  0  0  0  0
  1 17  1  0  0  0  0
  1 29  1  0  0  0  0
  2 10  1  0  0  0  0
  2 30  1  0  0  0  0
  3  9  2  0  0  0  0
  3 18  1  0  0  0  0
  3 31  1  0  0  0  0
  4 11  1  0  0  0  0
  4 16  2  0  0  0  0
  4 32  1  0  0  0  0
  5  6  2  0  0  0  0
  5 13  1  0  0  0  0
  5 33  1  0  0  0  0
  6 19  1  0  0  0  0
  6 34  1  0  0  0  0
  7 10  2  0  0  0  0
  7 12  1  0  0  0  0
  7 35  1  0  0  0  0
  8 13  2  0  0  0  0
  8 20  1  0  0  0  0
  8 36  1  0  0  0  0
  9 10  1  0  0  0  0
  9 16  1  0  0  0  0
 11 15  1  0  0  0  0
 11 18  2  0  0  0  0
 12 14  1  0  0  0  0
 12 17  2  0  0  0  0
 13 14  1  0  0  0  0
 14 22  1  0  0  0  0
 14 37  1  1  0  0  0
 15 23  1  0  0  0  0
 15 26  1  0  0  0  0
 15 38  1  1  0  0  0
 16 39  1  0  0  0  0
 17 40  1  0  0  0  0
 18 41  1  0  0  0  0
 19 20  2  0  0  0  0
 19 27  1  0  0  0  0
 20 28  1  0  0  0  0
 21 26  2  0  0  0  0
 22 42  1  0  0  0  0
 23 43  1  0  0  0  0
 24 26  1  0  0  0  0
 25 26  1  0  0  0  0
M  END
$$$$
