B7I
 OpenBabel04161909533D

 59 62  0  0  0  0  0  0  0  0999 V2000
   58.6132  -13.0768   46.7025 C   0  0  0  0  0  0  0  0  0  0  0  0
   59.0901  -13.6619   45.5271 C   0  0  0  0  0  0  0  0  0  0  0  0
   59.4048  -12.8253   44.4504 C   0  0  0  0  0  0  0  0  0  0  0  0
   59.2342  -11.4304   44.5457 C   0  0  0  0  0  0  0  0  0  0  0  0
   58.7660  -10.8553   45.7266 C   0  0  0  0  0  0  0  0  0  0  0  0
   58.4591  -11.6951   46.8008 C   0  0  0  0  0  0  0  0  0  0  0  0
   63.8343   -3.5572   47.0161 C   0  0  0  0  0  0  0  0  0  0  0  0
   64.4925   -4.5597   46.3020 C   0  0  0  0  0  0  0  0  0  0  0  0
   65.7317   -4.2875   45.7044 C   0  0  0  0  0  0  0  0  0  0  0  0
   66.3229   -3.0227   45.8188 C   0  0  0  0  0  0  0  0  0  0  0  0
   65.6633   -2.0389   46.5695 C   0  0  0  0  0  0  0  0  0  0  0  0
   64.4355   -2.3091   47.1753 C   0  0  0  0  0  0  0  0  0  0  0  0
   58.6139   -9.4819   45.7342 O   0  0  0  0  0  0  0  0  0  0  0  0
   58.3141   -8.9381   47.0235 C   0  0  0  0  0  0  0  0  0  0  0  0
   57.7924   -7.5049   46.9760 C   0  0  0  0  0  0  0  0  0  0  0  0
   58.8934   -6.4455   46.8620 C   0  0  0  0  0  0  0  0  0  0  0  0
   58.5444   -5.1783   47.6668 C   0  0  0  0  0  0  0  0  0  0  0  0
   59.7827   -4.4137   48.1633 C   0  0  0  0  0  0  0  0  0  0  0  0
   60.2440   -3.3332   47.1890 C   0  0  0  0  0  0  0  0  0  0  0  0
   61.6604   -2.8086   47.4288 C   0  0  0  0  0  0  0  0  0  0  0  0
   62.6057   -3.8779   47.5353 O   0  0  0  0  0  0  0  0  0  0  0  0
   59.2494  -15.1152   45.4770 C   0  0  0  0  0  0  0  0  0  0  0  0
   67.6105   -2.7450   45.1793 C   0  0  0  0  0  0  0  0  0  0  0  0
   59.4728  -15.8285   44.3187 N   0  3  0  0  0  0  0  0  0  0  0  0
   59.5712  -17.1509   44.6411 C   0  0  0  0  0  0  0  0  0  0  0  0
   59.3925  -17.2008   45.9954 C   0  0  0  0  0  0  0  0  0  0  0  0
   59.1827  -15.9446   46.5025 N   0  0  0  0  0  0  0  0  0  0  0  0
   68.0132   -1.4902   44.7818 N   0  3  0  0  0  0  0  0  0  0  0  0
   69.2643   -1.5812   44.2436 C   0  0  0  0  0  0  0  0  0  0  0  0
   69.5816   -2.9113   44.3247 C   0  0  0  0  0  0  0  0  0  0  0  0
   68.5505   -3.6260   44.8845 N   0  0  0  0  0  0  0  0  0  0  0  0
   58.3512  -13.6928   47.5617 H   0  0  0  0  0  0  0  0  0  0  0  0
   59.7971  -13.2303   43.5213 H   0  0  0  0  0  0  0  0  0  0  0  0
   59.4937  -10.8058   43.6968 H   0  0  0  0  0  0  0  0  0  0  0  0
   58.0875  -11.3257   47.7494 H   0  0  0  0  0  0  0  0  0  0  0  0
   64.0408   -5.5386   46.1941 H   0  0  0  0  0  0  0  0  0  0  0  0
   66.2283   -5.0692   45.1303 H   0  0  0  0  0  0  0  0  0  0  0  0
   66.1019   -1.0560   46.7113 H   0  0  0  0  0  0  0  0  0  0  0  0
   63.9642   -1.5313   47.7694 H   0  0  0  0  0  0  0  0  0  0  0  0
   59.2056   -9.0119   47.6593 H   0  0  0  0  0  0  0  0  0  0  0  0
   57.4903   -9.4938   47.4803 H   0  0  0  0  0  0  0  0  0  0  0  0
   57.2405   -7.3578   47.9133 H   0  0  0  0  0  0  0  0  0  0  0  0
   57.0768   -7.3925   46.1547 H   0  0  0  0  0  0  0  0  0  0  0  0
   59.0241   -6.1832   45.8061 H   0  0  0  0  0  0  0  0  0  0  0  0
   59.8449   -6.8591   47.2118 H   0  0  0  0  0  0  0  0  0  0  0  0
   57.9686   -5.4590   48.5569 H   0  0  0  0  0  0  0  0  0  0  0  0
   57.8956   -4.5292   47.0660 H   0  0  0  0  0  0  0  0  0  0  0  0
   60.5893   -5.1182   48.3883 H   0  0  0  0  0  0  0  0  0  0  0  0
   59.5231   -3.9242   49.1107 H   0  0  0  0  0  0  0  0  0  0  0  0
   59.5603   -2.4775   47.2574 H   0  0  0  0  0  0  0  0  0  0  0  0
   60.1843   -3.7145   46.1644 H   0  0  0  0  0  0  0  0  0  0  0  0
   61.6950   -2.2019   48.3410 H   0  0  0  0  0  0  0  0  0  0  0  0
   61.8991   -2.1692   46.5694 H   0  0  0  0  0  0  0  0  0  0  0  0
   59.5379  -15.4337   43.3945 H   0  0  0  0  0  0  0  0  0  0  0  0
   59.7597  -17.9179   43.8944 H   0  0  0  0  0  0  0  0  0  0  0  0
   59.4063  -18.0730   46.6383 H   0  0  0  0  0  0  0  0  0  0  0  0
   67.4626   -0.6482   44.8665 H   0  0  0  0  0  0  0  0  0  0  0  0
   69.7961   -0.7171   43.8673 H   0  0  0  0  0  0  0  0  0  0  0  0
   70.4949   -3.3987   44.0095 H   0  0  0  0  0  0  0  0  0  0  0  0
  1  2  2  0  0  0  0
  1  6  1  0  0  0  0
  1 32  1  0  0  0  0
  2  3  1  0  0  0  0
  2 22  1  0  0  0  0
  3  4  2  0  0  0  0
  3 33  1  0  0  0  0
  4  5  1  0  0  0  0
  4 34  1  0  0  0  0
  5  6  2  0  0  0  0
  5 13  1  0  0  0  0
  6 35  1  0  0  0  0
  7  8  2  0  0  0  0
  7 12  1  0  0  0  0
  7 21  1  0  0  0  0
  8  9  1  0  0  0  0
  8 36  1  0  0  0  0
  9 10  2  0  0  0  0
  9 37  1  0  0  0  0
 10 11  1  0  0  0  0
 10 23  1  0  0  0  0
 11 12  2  0  0  0  0
 11 38  1  0  0  0  0
 12 39  1  0  0  0  0
 13 14  1  0  0  0  0
 14 15  1  0  0  0  0
 14 40  1  0  0  0  0
 14 41  1  0  0  0  0
 15 16  1  0  0  0  0
 15 42  1  0  0  0  0
 15 43  1  0  0  0  0
 16 17  1  0  0  0  0
 16 44  1  0  0  0  0
 16 45  1  0  0  0  0
 17 18  1  0  0  0  0
 17 46  1  0  0  0  0
 17 47  1  0  0  0  0
 18 19  1  0  0  0  0
 18 48  1  0  0  0  0
 18 49  1  0  0  0  0
 19 20  1  0  0  0  0
 19 50  1  0  0  0  0
 19 51  1  0  0  0  0
 20 21  1  0  0  0  0
 20 52  1  0  0  0  0
 20 53  1  0  0  0  0
 22 24  2  0  0  0  0
 22 27  1  0  0  0  0
 23 28  2  0  0  0  0
 23 31  1  0  0  0  0
 24 25  1  0  0  0  0
 24 54  1  0  0  0  0
 25 26  2  0  0  0  0
 25 55  1  0  0  0  0
 26 27  1  0  0  0  0
 26 56  1  0  0  0  0
 28 29  1  0  0  0  0
 28 57  1  0  0  0  0
 29 30  2  0  0  0  0
 29 58  1  0  0  0  0
 30 31  1  0  0  0  0
 30 59  1  0  0  0  0
M  CHG  2  24   1  28   1
M  END
$$$$
