BEA
 OpenBabel04161910053D

 20 22  0  0  0  0  0  0  0  0999 V2000
    8.5320  -11.2793    6.1599 C   0  0  0  0  0  0  0  0  0  0  0  0
    9.7986  -12.0498    6.1432 C   0  0  0  0  0  0  0  0  0  0  0  0
    8.1786  -10.5223    7.2860 C   0  0  0  0  0  0  0  0  0  0  0  0
    6.9813   -9.7910    7.3172 C   0  0  0  0  0  0  0  0  0  0  0  0
    6.1119   -9.8029    6.2216 C   0  0  0  0  0  0  0  0  0  0  0  0
    6.4567  -10.5499    5.1039 C   0  0  0  0  0  0  0  0  0  0  0  0
    6.7638  -11.7627    2.9844 C   0  0  0  0  0  0  0  0  0  0  0  0
    7.6584  -11.2765    5.0860 C   0  0  0  0  0  0  0  0  0  0  0  0
    8.6619  -12.7676    3.2476 C   0  0  0  0  0  0  0  0  0  0  0  0
    7.7783  -11.9403    3.8653 N   0  3  0  0  0  0  0  0  0  0  0  0
    8.1929  -13.0712    2.0507 N   0  0  0  0  0  0  0  0  0  0  0  0
    6.9727  -12.4266    1.8809 N   0  0  0  0  0  0  0  0  0  0  0  0
    5.5157  -10.7258    3.5830 S   0  0  0  0  0  0  0  0  0  0  0  0
   10.3531  -11.9268    7.0836 H   0  0  0  0  0  0  0  0  0  0  0  0
   10.4335  -11.6887    5.3294 H   0  0  0  0  0  0  0  0  0  0  0  0
    9.5766  -13.1130    6.0209 H   0  0  0  0  0  0  0  0  0  0  0  0
    8.8353  -10.4952    8.1551 H   0  0  0  0  0  0  0  0  0  0  0  0
    6.7332   -9.2121    8.2037 H   0  0  0  0  0  0  0  0  0  0  0  0
    5.1854   -9.2355    6.2510 H   0  0  0  0  0  0  0  0  0  0  0  0
    9.5945  -13.1201    3.6650 H   0  0  0  0  0  0  0  0  0  0  0  0
  1  2  1  0  0  0  0
  1  3  2  0  0  0  0
  1  8  1  0  0  0  0
  2 14  1  0  0  0  0
  2 15  1  0  0  0  0
  2 16  1  0  0  0  0
  3  4  1  0  0  0  0
  3 17  1  0  0  0  0
  4  5  2  0  0  0  0
  4 18  1  0  0  0  0
  5  6  1  0  0  0  0
  5 19  1  0  0  0  0
  6  8  2  0  0  0  0
  6 13  1  0  0  0  0
  7 10  1  0  0  0  0
  7 12  2  0  0  0  0
  7 13  1  0  0  0  0
  8 10  1  0  0  0  0
  9 10  2  0  0  0  0
  9 11  1  0  0  0  0
  9 20  1  0  0  0  0
 11 12  1  0  0  0  0
M  CHG  1  10   1
M  END
$$$$
