BEW
 OpenBabel04161911533D

 15 15  0  0  0  0  0  0  0  0999 V2000
   -5.0407    3.3842   14.0947 C   0  0  0  0  0  0  0  0  0  0  0  0
   -5.8190    3.8092   15.0786 C   0  0  0  0  0  0  0  0  0  0  0  0
   -6.3042    2.8898   16.1578 C   0  0  0  0  0  0  0  0  0  0  0  0
   -5.0980    1.0966   15.0000 N   0  0  0  0  0  0  0  0  0  0  0  0
   -4.5755   -0.2073   14.9125 O   0  0  0  0  0  0  0  0  0  0  0  0
   -4.5777    1.9756   13.9704 C   0  0  0  0  0  0  0  0  0  0  0  0
   -5.8631    1.4407   16.0726 C   0  0  0  0  0  0  0  0  0  0  0  0
   -6.3957    0.3706   17.2628 S   0  0  0  0  0  0  0  0  0  0  0  0
   -4.7128    4.0789   13.3452 H   0  0  0  0  0  0  0  0  0  0  0  0
   -6.1176    4.8418   15.1167 H   0  0  0  0  0  0  0  0  0  0  0  0
   -7.4027    2.9047   16.1203 H   0  0  0  0  0  0  0  0  0  0  0  0
   -5.9378    3.2912   17.1128 H   0  0  0  0  0  0  0  0  0  0  0  0
   -5.0298   -0.5578   14.1261 H   0  0  0  0  0  0  0  0  0  0  0  0
   -3.4821    1.9523   14.0197 H   0  0  0  0  0  0  0  0  0  0  0  0
   -4.9412    1.5746   13.0151 H   0  0  0  0  0  0  0  0  0  0  0  0
  1  2  2  0  0  0  0
  1  6  1  0  0  0  0
  1  9  1  0  0  0  0
  2  3  1  0  0  0  0
  2 10  1  0  0  0  0
  3  7  1  0  0  0  0
  3 11  1  0  0  0  0
  3 12  1  0  0  0  0
  4  5  1  0  0  0  0
  4  6  1  0  0  0  0
  4  7  1  0  0  0  0
  5 13  1  0  0  0  0
  6 14  1  0  0  0  0
  6 15  1  0  0  0  0
  7  8  2  0  0  0  0
M  END
$$$$
