BMF
 OpenBabel04161910403D

 49 51  0  0  0  0  0  0  0  0999 V2000
   61.9030   -4.0960   25.5585 C   0  0  0  0  0  0  0  0  0  0  0  0
   59.6903   -3.2659   25.2332 N   0  0  0  0  0  0  0  0  0  0  0  0
   58.5762   -5.8208   25.5411 C   0  0  0  0  0  0  0  0  0  0  0  0
   58.5858   -8.2130   25.9627 C   0  0  0  0  0  0  0  0  0  0  0  0
   57.3416  -11.5729   26.3370 C   0  0  0  0  0  0  0  0  0  0  0  0
   59.9468   -5.6213   25.6783 C   0  0  0  0  0  0  0  0  0  0  0  0
   57.6259   -1.1746   24.5465 C   0  0  0  0  0  0  0  0  0  0  0  0
   64.1991   -4.6743   26.0925 C   0  0  0  0  0  0  0  0  0  0  0  0
   66.1065   -3.2092   25.4524 C   0  0  0  0  0  0  0  0  0  0  0  0
   64.6466   -3.5030   25.4787 C   0  0  0  0  0  0  0  0  0  0  0  0
   63.7149   -2.6427   24.9023 C   0  0  0  0  0  0  0  0  0  0  0  0
   64.0269   -1.4364   24.2431 N   0  0  0  0  0  0  0  0  0  0  0  0
   64.2674   -1.4269   22.5869 S   0  0  0  0  0  0  0  0  0  0  0  0
   62.6746   -1.8727   21.8856 C   0  0  0  0  0  0  0  0  0  0  0  0
   64.5162   -0.0425   22.2499 O   0  0  0  0  0  0  0  0  0  0  0  0
   65.2057   -2.4685   22.2394 O   0  0  0  0  0  0  0  0  0  0  0  0
   62.3742   -2.9357   24.9538 C   0  0  0  0  0  0  0  0  0  0  0  0
   60.4670   -4.3477   25.5156 C   0  0  0  0  0  0  0  0  0  0  0  0
   58.4096   -3.4891   25.0992 N   0  3  0  0  0  0  0  0  0  0  0  0
   57.8456   -4.6809   25.2317 C   0  0  0  0  0  0  0  0  0  0  0  0
   57.9415   -7.0580   25.7008 N   0  0  0  0  0  0  0  0  0  0  0  0
   57.6890   -9.2193   26.1639 O   0  0  0  0  0  0  0  0  0  0  0  0
   58.3425  -10.4574   26.5065 C   0  0  0  0  0  0  0  0  0  0  0  0
   59.7928   -8.3724   26.0450 O   0  0  0  0  0  0  0  0  0  0  0  0
   56.5454   -4.5336   25.0056 N   0  0  0  0  0  0  0  0  0  0  0  0
   56.2664   -3.2084   24.7219 N   0  0  0  0  0  0  0  0  0  0  0  0
   57.4135   -2.6138   24.7890 C   0  0  0  0  0  0  0  0  0  0  0  0
   62.8393   -4.9699   26.1328 C   0  0  0  0  0  0  0  0  0  0  0  0
   57.7912  -12.5379   26.5923 H   0  0  0  0  0  0  0  0  0  0  0  0
   56.9893  -11.6100   25.3006 H   0  0  0  0  0  0  0  0  0  0  0  0
   56.4684  -11.4053   26.9741 H   0  0  0  0  0  0  0  0  0  0  0  0
   60.6328   -6.4302   25.8898 H   0  0  0  0  0  0  0  0  0  0  0  0
   56.6804   -0.6819   24.3091 H   0  0  0  0  0  0  0  0  0  0  0  0
   58.3196   -1.0355   23.7125 H   0  0  0  0  0  0  0  0  0  0  0  0
   58.0547   -0.7138   25.4403 H   0  0  0  0  0  0  0  0  0  0  0  0
   64.9104   -5.3728   26.5377 H   0  0  0  0  0  0  0  0  0  0  0  0
   66.6651   -4.0095   25.9456 H   0  0  0  0  0  0  0  0  0  0  0  0
   66.2941   -2.2734   25.9836 H   0  0  0  0  0  0  0  0  0  0  0  0
   66.4508   -3.1421   24.4198 H   0  0  0  0  0  0  0  0  0  0  0  0
   64.4494   -0.6797   24.7827 H   0  0  0  0  0  0  0  0  0  0  0  0
   62.7735   -1.8112   20.7988 H   0  0  0  0  0  0  0  0  0  0  0  0
   61.8950   -1.1837   22.2159 H   0  0  0  0  0  0  0  0  0  0  0  0
   62.4241   -2.9044   22.1447 H   0  0  0  0  0  0  0  0  0  0  0  0
   61.6822   -2.2409   24.4788 H   0  0  0  0  0  0  0  0  0  0  0  0
   56.9330   -7.1222   25.6502 H   0  0  0  0  0  0  0  0  0  0  0  0
   59.2004  -10.6443   25.8534 H   0  0  0  0  0  0  0  0  0  0  0  0
   58.6813  -10.4067   27.5460 H   0  0  0  0  0  0  0  0  0  0  0  0
   55.8309   -5.2548   25.0227 H   0  0  0  0  0  0  0  0  0  0  0  0
   62.5475   -5.9009   26.6147 H   0  0  0  0  0  0  0  0  0  0  0  0
  1 17  2  0  0  0  0
  1 18  1  0  0  0  0
  1 28  1  0  0  0  0
  2 18  2  0  0  0  0
  2 19  1  0  0  0  0
  3  6  2  0  0  0  0
  3 20  1  0  0  0  0
  3 21  1  0  0  0  0
  4 21  1  0  0  0  0
  4 22  1  0  0  0  0
  4 24  2  0  0  0  0
  5 23  1  0  0  0  0
  5 29  1  0  0  0  0
  5 30  1  0  0  0  0
  5 31  1  0  0  0  0
  6 18  1  0  0  0  0
  6 32  1  0  0  0  0
  7 27  1  0  0  0  0
  7 33  1  0  0  0  0
  7 34  1  0  0  0  0
  7 35  1  0  0  0  0
  8 10  1  0  0  0  0
  8 28  2  0  0  0  0
  8 36  1  0  0  0  0
  9 10  1  0  0  0  0
  9 37  1  0  0  0  0
  9 38  1  0  0  0  0
  9 39  1  0  0  0  0
 10 11  2  0  0  0  0
 11 12  1  0  0  0  0
 11 17  1  0  0  0  0
 12 13  1  0  0  0  0
 12 40  1  0  0  0  0
 13 14  1  0  0  0  0
 13 15  2  0  0  0  0
 13 16  2  0  0  0  0
 14 41  1  0  0  0  0
 14 42  1  0  0  0  0
 14 43  1  0  0  0  0
 17 44  1  0  0  0  0
 19 20  2  0  0  0  0
 19 27  1  0  0  0  0
 20 25  1  0  0  0  0
 21 45  1  0  0  0  0
 22 23  1  0  0  0  0
 23 46  1  0  0  0  0
 23 47  1  0  0  0  0
 25 26  1  0  0  0  0
 25 48  1  0  0  0  0
 26 27  2  0  0  0  0
 28 49  1  0  0  0  0
M  CHG  1  19   1
M  END
$$$$
