BRN
 OpenBabel04161911543D

 20 20  0  0  0  0  0  0  0  0999 V2000
    3.8803   -3.8361  -12.0665 C   0  0  0  0  0  0  0  0  0  0  0  0
    4.7503   -3.3018  -11.1137 C   0  0  0  0  0  0  0  0  0  0  0  0
    4.4025   -3.2609   -9.7553 C   0  0  0  0  0  0  0  0  0  0  0  0
    3.1549   -3.7303   -9.3036 C   0  0  0  0  0  0  0  0  0  0  0  0
    2.2926   -4.2758  -10.2684 C   0  0  0  0  0  0  0  0  0  0  0  0
    2.6551   -4.3361  -11.6166 C   0  0  0  0  0  0  0  0  0  0  0  0
    2.7521   -3.6521   -7.8735 C   0  0  0  0  0  0  0  0  0  0  0  0
    1.5142   -3.9213   -7.5070 N   0  0  0  0  0  0  0  0  0  0  0  0
    3.6147   -3.2994   -6.9462 N   0  0  0  0  0  0  0  0  0  0  0  0
    4.2923   -3.8749  -13.4117 N   0  0  0  0  0  0  0  0  0  0  0  0
    3.3271   -3.9701  -14.1991 N   0  0  0  0  0  0  0  0  0  0  0  0
    5.7148   -2.9078  -11.4363 H   0  0  0  0  0  0  0  0  0  0  0  0
    5.1441   -2.8401   -9.0828 H   0  0  0  0  0  0  0  0  0  0  0  0
    1.3160   -4.6806  -10.0219 H   0  0  0  0  0  0  0  0  0  0  0  0
    1.9604   -4.7796  -12.3290 H   0  0  0  0  0  0  0  0  0  0  0  0
    1.2139   -3.8766   -6.5413 H   0  0  0  0  0  0  0  0  0  0  0  0
    4.5782   -3.0851   -7.1664 H   0  0  0  0  0  0  0  0  0  0  0  0
    3.3597   -3.2254   -5.9700 H   0  0  0  0  0  0  0  0  0  0  0  0
    3.6278   -4.0290  -15.1795 H   0  0  0  0  0  0  0  0  0  0  0  0
    0.7993   -4.1735   -8.1733 H   0  0  0  0  0  0  0  0  0  0  0  0
  1  2  2  0  0  0  0
  1  6  1  0  0  0  0
  1 10  1  0  0  0  0
  2  3  1  0  0  0  0
  2 12  1  0  0  0  0
  3  4  2  0  0  0  0
  3 13  1  0  0  0  0
  4  5  1  0  0  0  0
  4  7  1  0  0  0  0
  5  6  2  0  0  0  0
  5 14  1  0  0  0  0
  6 15  1  0  0  0  0
  7  8  2  0  0  0  0
  7  9  1  0  0  0  0
  8 16  1  0  0  0  0
  8 20  1  0  0  0  0
  9 17  1  0  0  0  0
  9 18  1  0  0  0  0
 10 11  2  0  0  0  0
 11 19  1  0  0  0  0
M  END
$$$$
