BUW
 OpenBabel04161912233D

 47 49  0  0  1  0  0  0  0  0999 V2000
   42.5258  -16.2461   41.5492 C   0  0  0  0  0  0  0  0  0  0  0  0
   42.5066  -17.0642   40.4175 C   0  0  0  0  0  0  0  0  0  0  0  0
   43.3170  -16.8031   39.3124 C   0  0  0  0  0  0  0  0  0  0  0  0
   44.1499  -15.6863   39.3144 C   0  0  0  0  0  0  0  0  0  0  0  0
   44.1526  -14.8240   40.4084 C   0  0  0  0  0  0  0  0  0  0  0  0
   43.3367  -15.0902   41.5149 C   0  0  0  0  0  0  0  0  0  0  0  0
   41.6335  -14.1711   43.4298 C   0  0  0  0  0  0  0  0  0  0  0  0
   40.9389  -13.0840   43.9739 C   0  0  0  0  0  0  0  0  0  0  0  0
   39.6104  -13.2306   44.3663 C   0  0  0  0  0  0  0  0  0  0  0  0
   38.9795  -14.4641   44.2324 C   0  0  0  0  0  0  0  0  0  0  0  0
   39.6780  -15.5598   43.7169 C   0  0  0  0  0  0  0  0  0  0  0  0
   41.0162  -15.4366   43.3071 C   0  0  0  0  0  0  0  0  0  0  0  0
   41.6987  -16.4983   42.6690 N   0  0  0  0  0  0  0  0  0  0  0  0
   43.3184  -13.9203   42.8702 S   0  0  0  0  0  0  0  0  0  0  0  0
   41.4201  -17.8839   43.0875 C   0  0  0  0  0  0  0  0  0  0  0  0
   42.7256  -18.7375   43.2880 C   0  0  1  0  0  0  0  0  0  0  0  0
   43.4309  -18.3067   44.5813 C   0  0  0  0  0  0  0  0  0  0  0  0
   43.3680  -21.1529   44.0177 C   0  0  0  0  0  0  0  0  0  0  0  0
   43.5705  -22.5606   43.4883 C   0  0  0  0  0  0  0  0  0  0  0  0
   42.0895  -20.7071   41.8159 C   0  0  0  0  0  0  0  0  0  0  0  0
   40.8014  -21.5016   41.7164 C   0  0  0  0  0  0  0  0  0  0  0  0
   42.3655  -20.2781   43.2601 N   0  3  0  0  0  0  0  0  0  0  0  0
   41.8002  -17.8869   40.3352 H   0  0  0  0  0  0  0  0  0  0  0  0
   43.2741  -17.4410   38.4344 H   0  0  0  0  0  0  0  0  0  0  0  0
   44.7632  -15.4627   38.4451 H   0  0  0  0  0  0  0  0  0  0  0  0
   44.7776  -13.9333   40.3839 H   0  0  0  0  0  0  0  0  0  0  0  0
   41.4174  -12.1125   44.0670 H   0  0  0  0  0  0  0  0  0  0  0  0
   39.0610  -12.3756   44.7542 H   0  0  0  0  0  0  0  0  0  0  0  0
   37.9306  -14.5652   44.5022 H   0  0  0  0  0  0  0  0  0  0  0  0
   39.1298  -16.4858   43.5726 H   0  0  0  0  0  0  0  0  0  0  0  0
   40.7334  -18.3459   42.3706 H   0  0  0  0  0  0  0  0  0  0  0  0
   40.8947  -17.8983   44.0529 H   0  0  0  0  0  0  0  0  0  0  0  0
   43.4384  -18.6126   42.4663 H   0  0  0  0  0  0  0  0  0  0  0  0
   44.3881  -18.8092   44.7349 H   0  0  0  0  0  0  0  0  0  0  0  0
   42.8058  -18.4734   45.4645 H   0  0  0  0  0  0  0  0  0  0  0  0
   43.6757  -17.2409   44.5342 H   0  0  0  0  0  0  0  0  0  0  0  0
   44.3405  -20.6594   43.9896 H   0  0  0  0  0  0  0  0  0  0  0  0
   43.0023  -21.1893   45.0511 H   0  0  0  0  0  0  0  0  0  0  0  0
   44.2296  -23.1098   44.1709 H   0  0  0  0  0  0  0  0  0  0  0  0
   44.0855  -22.5541   42.5225 H   0  0  0  0  0  0  0  0  0  0  0  0
   42.6409  -23.1250   43.4012 H   0  0  0  0  0  0  0  0  0  0  0  0
   41.9797  -19.8106   41.2067 H   0  0  0  0  0  0  0  0  0  0  0  0
   42.9562  -21.2368   41.4183 H   0  0  0  0  0  0  0  0  0  0  0  0
   40.6446  -21.8122   40.6767 H   0  0  0  0  0  0  0  0  0  0  0  0
   39.9405  -20.8906   42.0071 H   0  0  0  0  0  0  0  0  0  0  0  0
   40.8104  -22.3991   42.3368 H   0  0  0  0  0  0  0  0  0  0  0  0
   41.4845  -20.3725   43.7787 H   0  0  0  0  0  0  0  0  0  0  0  0
  1  2  2  0  0  0  0
  1  6  1  0  0  0  0
  1 13  1  0  0  0  0
  2  3  1  0  0  0  0
  2 23  1  0  0  0  0
  3  4  2  0  0  0  0
  3 24  1  0  0  0  0
  4  5  1  0  0  0  0
  4 25  1  0  0  0  0
  5  6  2  0  0  0  0
  5 26  1  0  0  0  0
  6 14  1  0  0  0  0
  7  8  2  0  0  0  0
  7 12  1  0  0  0  0
  7 14  1  0  0  0  0
  8  9  1  0  0  0  0
  8 27  1  0  0  0  0
  9 10  2  0  0  0  0
  9 28  1  0  0  0  0
 10 11  1  0  0  0  0
 10 29  1  0  0  0  0
 11 12  2  0  0  0  0
 11 30  1  0  0  0  0
 12 13  1  0  0  0  0
 13 15  1  0  0  0  0
 15 16  1  0  0  0  0
 15 31  1  0  0  0  0
 15 32  1  0  0  0  0
 16 17  1  0  0  0  0
 16 22  1  0  0  0  0
 16 33  1  6  0  0  0
 17 34  1  0  0  0  0
 17 35  1  0  0  0  0
 17 36  1  0  0  0  0
 18 19  1  0  0  0  0
 18 22  1  0  0  0  0
 18 37  1  0  0  0  0
 18 38  1  0  0  0  0
 19 39  1  0  0  0  0
 19 40  1  0  0  0  0
 19 41  1  0  0  0  0
 20 21  1  0  0  0  0
 20 22  1  0  0  0  0
 20 42  1  0  0  0  0
 20 43  1  0  0  0  0
 21 44  1  0  0  0  0
 21 45  1  0  0  0  0
 21 46  1  0  0  0  0
 22 47  1  0  0  0  0
M  CHG  1  22   1
M  END
$$$$
