BVE
 OpenBabel04161912243D

 65 69  0  0  1  0  0  0  0  0999 V2000
   -1.0976    8.1749   13.1879 C   0  0  0  0  0  0  0  0  0  0  0  0
   -3.5065    3.3657   11.0533 C   0  0  0  0  0  0  0  0  0  0  0  0
   -4.7323    3.1220   10.4145 C   0  0  0  0  0  0  0  0  0  0  0  0
   -1.5919    4.3814    9.7704 C   0  0  0  0  0  0  0  0  0  0  0  0
   -5.5226    2.0317   10.7364 C   0  0  0  0  0  0  0  0  0  0  0  0
   -5.1048    1.1497   11.7234 C   0  0  0  0  0  0  0  0  0  0  0  0
   -3.8935    1.3663   12.3816 C   0  0  0  0  0  0  0  0  0  0  0  0
   -3.0821    2.4626   12.0467 C   0  0  0  0  0  0  0  0  0  0  0  0
   -0.7530    5.3991    9.5246 C   0  0  0  0  0  0  0  0  0  0  0  0
   -3.0891    3.5058   15.2175 C   0  0  0  0  0  0  0  0  0  0  0  0
   -3.6737    2.4098   15.8468 C   0  0  0  0  0  0  0  0  0  0  0  0
   -5.0608    2.3749   16.0034 C   0  0  0  0  0  0  0  0  0  0  0  0
   -5.8312    1.0186   16.8529 S   0  0  0  0  0  0  0  0  0  0  0  0
   -5.3105    1.0045   18.1960 O   0  0  0  0  0  0  0  0  0  0  0  0
   -7.2466    1.0586   16.5676 O   0  0  0  0  0  0  0  0  0  0  0  0
   -5.2554   -0.3311   16.0742 N   0  0  0  0  0  0  0  0  0  0  0  0
   -5.8574    3.4258   15.5417 C   0  0  0  0  0  0  0  0  0  0  0  0
   -5.2698    4.5201   14.9259 C   0  0  0  0  0  0  0  0  0  0  0  0
   -3.8831    4.5687   14.7463 C   0  0  0  0  0  0  0  0  0  0  0  0
   -3.2591    5.7571   14.0746 C   0  0  0  0  0  0  0  0  0  0  0  0
   -3.7185    5.9088   12.6132 C   0  0  0  0  0  0  0  0  0  0  0  0
   -2.5159    5.6071   11.7300 N   0  0  0  0  0  0  0  0  0  0  0  0
   -2.7952    4.6299   10.6207 C   0  0  2  0  0  0  0  0  0  0  0  0
    0.2368    5.2472    8.4420 C   0  0  0  0  0  0  0  0  0  0  0  0
    1.5792    5.5246    8.6742 C   0  0  0  0  0  0  0  0  0  0  0  0
    2.4999    5.4125    7.6317 C   0  0  0  0  0  0  0  0  0  0  0  0
    2.0762    5.0299    6.3589 C   0  0  0  0  0  0  0  0  0  0  0  0
    0.7256    4.7671    6.1146 C   0  0  0  0  0  0  0  0  0  0  0  0
   -0.1898    4.8862    7.1587 C   0  0  0  0  0  0  0  0  0  0  0  0
   -0.9387    6.6461   10.2559 C   0  0  0  0  0  0  0  0  0  0  0  0
   -1.8231    6.7871   11.2585 C   0  0  0  0  0  0  0  0  0  0  0  0
   -1.8462    8.0548   12.0082 C   0  0  0  0  0  0  0  0  0  0  0  0
   -1.1386    9.3581   13.9246 C   0  0  0  0  0  0  0  0  0  0  0  0
   -1.9186   10.4242   13.4815 C   0  0  0  0  0  0  0  0  0  0  0  0
   -2.6711   10.3096   12.3139 C   0  0  0  0  0  0  0  0  0  0  0  0
   -2.6365    9.1247   11.5757 C   0  0  0  0  0  0  0  0  0  0  0  0
   -0.4824    7.3558   13.5516 H   0  0  0  0  0  0  0  0  0  0  0  0
   -5.0978    3.8076    9.6478 H   0  0  0  0  0  0  0  0  0  0  0  0
   -1.5086    3.4328    9.2466 H   0  0  0  0  0  0  0  0  0  0  0  0
   -6.4624    1.8801   10.2120 H   0  0  0  0  0  0  0  0  0  0  0  0
   -5.7267    0.2946   11.9695 H   0  0  0  0  0  0  0  0  0  0  0  0
   -3.5890    0.6681   13.1610 H   0  0  0  0  0  0  0  0  0  0  0  0
   -2.1575    2.5976   12.6047 H   0  0  0  0  0  0  0  0  0  0  0  0
   -2.0062    3.5217   15.0913 H   0  0  0  0  0  0  0  0  0  0  0  0
   -3.0502    1.6037   16.2316 H   0  0  0  0  0  0  0  0  0  0  0  0
   -5.4992   -1.2165   16.5095 H   0  0  0  0  0  0  0  0  0  0  0  0
   -4.5639   -0.2822   15.3386 H   0  0  0  0  0  0  0  0  0  0  0  0
   -6.9375    3.4094   15.6921 H   0  0  0  0  0  0  0  0  0  0  0  0
   -5.9114    5.3402   14.5862 H   0  0  0  0  0  0  0  0  0  0  0  0
   -2.1715    5.6410   14.1285 H   0  0  0  0  0  0  0  0  0  0  0  0
   -3.4879    6.6650   14.6375 H   0  0  0  0  0  0  0  0  0  0  0  0
   -4.1093    6.9093   12.3978 H   0  0  0  0  0  0  0  0  0  0  0  0
   -4.5328    5.2308   12.3545 H   0  0  0  0  0  0  0  0  0  0  0  0
   -3.4911    5.1669    9.9608 H   0  0  0  0  0  0  0  0  0  0  0  0
    1.9344    5.8366    9.6559 H   0  0  0  0  0  0  0  0  0  0  0  0
    3.5494    5.6261    7.8093 H   0  0  0  0  0  0  0  0  0  0  0  0
    2.8008    4.9441    5.5513 H   0  0  0  0  0  0  0  0  0  0  0  0
    0.4075    4.4898    5.1202 H   0  0  0  0  0  0  0  0  0  0  0  0
   -1.2349    4.7081    6.9333 H   0  0  0  0  0  0  0  0  0  0  0  0
   -0.2982    7.4787    9.9736 H   0  0  0  0  0  0  0  0  0  0  0  0
   -0.5576    9.4532   14.8396 H   0  0  0  0  0  0  0  0  0  0  0  0
   -1.9356   11.3529   14.0493 H   0  0  0  0  0  0  0  0  0  0  0  0
   -3.2807   11.1474   11.9793 H   0  0  0  0  0  0  0  0  0  0  0  0
   -3.2429    9.0536   10.6737 H   0  0  0  0  0  0  0  0  0  0  0  0
   -1.8315    5.0865   12.2981 H   0  0  0  0  0  0  0  0  0  0  0  0
  1 32  2  0  0  0  0
  1 33  1  0  0  0  0
  1 37  1  0  0  0  0
  2  3  2  0  0  0  0
  2  8  1  0  0  0  0
  2 23  1  0  0  0  0
  3  5  1  0  0  0  0
  3 38  1  0  0  0  0
  4  9  2  0  0  0  0
  4 23  1  0  0  0  0
  4 39  1  0  0  0  0
  5  6  2  0  0  0  0
  5 40  1  0  0  0  0
  6  7  1  0  0  0  0
  6 41  1  0  0  0  0
  7  8  2  0  0  0  0
  7 42  1  0  0  0  0
  8 43  1  0  0  0  0
  9 24  1  0  0  0  0
  9 30  1  0  0  0  0
 10 11  2  0  0  0  0
 10 19  1  0  0  0  0
 10 44  1  0  0  0  0
 11 12  1  0  0  0  0
 11 45  1  0  0  0  0
 12 13  1  0  0  0  0
 12 17  2  0  0  0  0
 13 14  2  0  0  0  0
 13 15  2  0  0  0  0
 13 16  1  0  0  0  0
 16 46  1  0  0  0  0
 16 47  1  0  0  0  0
 17 18  1  0  0  0  0
 17 48  1  0  0  0  0
 18 19  2  0  0  0  0
 18 49  1  0  0  0  0
 19 20  1  0  0  0  0
 20 21  1  0  0  0  0
 20 50  1  0  0  0  0
 20 51  1  0  0  0  0
 21 22  1  0  0  0  0
 21 52  1  0  0  0  0
 21 53  1  0  0  0  0
 22 23  1  0  0  0  0
 22 31  1  0  0  0  0
 22 65  1  0  0  0  0
 23 54  1  6  0  0  0
 24 25  2  0  0  0  0
 24 29  1  0  0  0  0
 25 26  1  0  0  0  0
 25 55  1  0  0  0  0
 26 27  2  0  0  0  0
 26 56  1  0  0  0  0
 27 28  1  0  0  0  0
 27 57  1  0  0  0  0
 28 29  2  0  0  0  0
 28 58  1  0  0  0  0
 29 59  1  0  0  0  0
 30 31  2  0  0  0  0
 30 60  1  0  0  0  0
 31 32  1  0  0  0  0
 32 36  1  0  0  0  0
 33 34  2  0  0  0  0
 33 61  1  0  0  0  0
 34 35  1  0  0  0  0
 34 62  1  0  0  0  0
 35 36  2  0  0  0  0
 35 63  1  0  0  0  0
 36 64  1  0  0  0  0
M  END
$$$$
