BYB
 OpenBabel04161912243D

 46 50  0  0  1  0  0  0  0  0999 V2000
   25.3007  -24.9448   -5.4668 C   0  0  0  0  0  0  0  0  0  0  0  0
   26.5920  -24.6086   -5.0185 C   0  0  0  0  0  0  0  0  0  0  0  0
   24.6479  -24.1907   -6.4365 C   0  0  0  0  0  0  0  0  0  0  0  0
   25.4440  -23.1169   -6.8541 C   0  0  0  0  0  0  0  0  0  0  0  0
   26.7505  -22.7933   -6.3747 C   0  0  0  0  0  0  0  0  0  0  0  0
   27.3703  -23.5441   -5.4191 N   0  0  0  0  0  0  0  0  0  0  0  0
   27.2236  -21.7015   -6.9791 N   0  0  0  0  0  0  0  0  0  0  0  0
   26.2404  -21.3621   -7.8495 N   0  3  0  0  0  0  0  0  0  0  0  0
   25.1279  -22.1791   -7.8208 C   0  0  0  0  0  0  0  0  0  0  0  0
   23.9661  -21.9849   -8.6867 C   0  0  0  0  0  0  0  0  0  0  0  0
   22.9735  -22.8683   -8.5187 N   0  0  0  0  0  0  0  0  0  0  0  0
   21.8975  -22.8031   -9.3237 C   0  0  0  0  0  0  0  0  0  0  0  0
   21.8111  -21.8032  -10.2744 C   0  0  0  0  0  0  0  0  0  0  0  0
   22.8669  -20.9165  -10.3551 C   0  0  0  0  0  0  0  0  0  0  0  0
   23.9768  -20.9711   -9.5716 N   0  0  0  0  0  0  0  0  0  0  0  0
   20.8762  -23.7305   -9.1759 N   0  0  0  0  0  0  0  0  0  0  0  0
   21.0265  -24.9100   -8.3123 C   0  0  1  0  0  0  0  0  0  0  0  0
   20.3907  -24.5972   -6.9261 C   0  0  1  0  0  0  0  0  0  0  0  0
   18.8548  -24.4915   -7.0265 C   0  0  0  0  0  0  0  0  0  0  0  0
   18.2658  -25.7794   -7.6118 C   0  0  0  0  0  0  0  0  0  0  0  0
   19.3901  -26.7956   -7.8786 C   0  0  1  0  0  0  0  0  0  0  0  0
   20.3581  -26.1633   -8.9203 C   0  0  2  0  0  0  0  0  0  0  0  0
   24.6829  -26.0132   -4.9409 F   0  0  0  0  0  0  0  0  0  0  0  0
   20.7467  -21.6846  -11.0824 F   0  0  0  0  0  0  0  0  0  0  0  0
   21.3362  -27.2587   -9.4016 C   0  0  0  0  0  0  0  0  0  0  0  0
   20.7858  -28.2250  -10.0078 O   0  0  0  0  0  0  0  0  0  0  0  0
   22.5597  -27.0852   -9.1548 O   0  0  0  0  0  0  0  0  0  0  0  0
   20.7262  -25.7694   -5.9898 C   0  0  0  0  0  0  0  0  0  0  0  0
   20.1233  -27.0648   -6.5456 C   0  0  0  0  0  0  0  0  0  0  0  0
   27.0495  -25.2471   -4.2661 H   0  0  0  0  0  0  0  0  0  0  0  0
   23.6677  -24.4442   -6.7945 H   0  0  0  0  0  0  0  0  0  0  0  0
   26.3785  -20.5587   -8.4463 H   0  0  0  0  0  0  0  0  0  0  0  0
   22.8332  -20.1110  -11.0853 H   0  0  0  0  0  0  0  0  0  0  0  0
   20.0527  -23.6484   -9.7536 H   0  0  0  0  0  0  0  0  0  0  0  0
   22.0887  -25.1017   -8.1525 H   0  0  0  0  0  0  0  0  0  0  0  0
   20.7953  -23.6650   -6.5153 H   0  0  0  0  0  0  0  0  0  0  0  0
   18.5625  -23.6333   -7.6417 H   0  0  0  0  0  0  0  0  0  0  0  0
   18.4259  -24.3154   -6.0314 H   0  0  0  0  0  0  0  0  0  0  0  0
   17.7319  -25.5532   -8.5427 H   0  0  0  0  0  0  0  0  0  0  0  0
   17.5225  -26.2003   -6.9234 H   0  0  0  0  0  0  0  0  0  0  0  0
   18.9543  -27.7311   -8.2486 H   0  0  0  0  0  0  0  0  0  0  0  0
   19.7726  -25.8873   -9.8090 H   0  0  0  0  0  0  0  0  0  0  0  0
   20.3441  -25.5767   -4.9799 H   0  0  0  0  0  0  0  0  0  0  0  0
   21.8126  -25.8781   -5.8918 H   0  0  0  0  0  0  0  0  0  0  0  0
   20.9126  -27.8126   -6.6822 H   0  0  0  0  0  0  0  0  0  0  0  0
   19.4254  -27.4854   -5.8105 H   0  0  0  0  0  0  0  0  0  0  0  0
  1  2  2  0  0  0  0
  1  3  1  0  0  0  0
  1 23  1  0  0  0  0
  2  6  1  0  0  0  0
  2 30  1  0  0  0  0
  3  4  2  0  0  0  0
  3 31  1  0  0  0  0
  4  5  1  0  0  0  0
  4  9  1  0  0  0  0
  5  6  2  0  0  0  0
  5  7  1  0  0  0  0
  7  8  1  0  0  0  0
  8  9  2  0  0  0  0
  8 32  1  0  0  0  0
  9 10  1  0  0  0  0
 10 11  2  0  0  0  0
 10 15  1  0  0  0  0
 11 12  1  0  0  0  0
 12 13  2  0  0  0  0
 12 16  1  0  0  0  0
 13 14  1  0  0  0  0
 13 24  1  0  0  0  0
 14 15  2  0  0  0  0
 14 33  1  0  0  0  0
 16 17  1  0  0  0  0
 16 34  1  0  0  0  0
 17 18  1  0  0  0  0
 17 22  1  0  0  0  0
 17 35  1  1  0  0  0
 18 19  1  0  0  0  0
 18 28  1  0  0  0  0
 18 36  1  1  0  0  0
 19 20  1  0  0  0  0
 19 37  1  0  0  0  0
 19 38  1  0  0  0  0
 20 21  1  0  0  0  0
 20 39  1  0  0  0  0
 20 40  1  0  0  0  0
 21 22  1  0  0  0  0
 21 29  1  0  0  0  0
 21 41  1  6  0  0  0
 22 25  1  0  0  0  0
 22 42  1  6  0  0  0
 25 26  2  0  0  0  0
 25 27  1  0  0  0  0
 28 29  1  0  0  0  0
 28 43  1  0  0  0  0
 28 44  1  0  0  0  0
 29 45  1  0  0  0  0
 29 46  1  0  0  0  0
M  CHG  1   8   1
M  END
$$$$
