C2E
 OpenBabel04161910323D

 68 74  0  0  1  0  0  0  0  0999 V2000
   -1.3374  -15.4661   -9.8912 P   0  0  1  0  0  0  0  0  0  0  0  0
   -2.0409  -14.2623  -10.4653 O   0  0  0  0  0  0  0  0  0  0  0  0
   -1.9343  -16.2961   -8.7848 O   0  0  0  0  0  0  0  0  0  0  0  0
   -0.9627  -16.4260  -11.1458 O   0  0  0  0  0  0  0  0  0  0  0  0
   -0.1154  -17.5513  -10.9982 C   0  0  0  0  0  0  0  0  0  0  0  0
    0.2008  -18.1393  -12.3732 C   0  0  1  0  0  0  0  0  0  0  0  0
   -0.9905  -18.6868  -12.9544 O   0  0  0  0  0  0  0  0  0  0  0  0
    0.7681  -17.0735  -13.3067 C   0  0  1  0  0  0  0  0  0  0  0  0
    2.1807  -17.1113  -13.2520 O   0  0  0  0  0  0  0  0  0  0  0  0
    0.1886  -17.4416  -14.6526 C   0  0  1  0  0  0  0  0  0  0  0  0
    1.0389  -18.3390  -15.3842 O   0  0  0  0  0  0  0  0  0  0  0  0
   -1.0975  -18.1573  -14.2801 C   0  0  2  0  0  0  0  0  0  0  0  0
   -2.3009  -17.3712  -14.3551 N   0  3  0  0  0  0  0  0  0  0  0  0
   -2.5673  -16.1013  -13.9071 C   0  0  0  0  0  0  0  0  0  0  0  0
   -3.8050  -15.7435  -14.2046 N   0  0  0  0  0  0  0  0  0  0  0  0
   -4.3410  -16.8399  -14.8176 C   0  0  0  0  0  0  0  0  0  0  0  0
   -5.6492  -17.0713  -15.3493 C   0  0  0  0  0  0  0  0  0  0  0  0
   -6.5996  -16.2679  -15.3341 O   0  0  0  0  0  0  0  0  0  0  0  0
   -5.7973  -18.3200  -15.9398 N   0  3  0  0  0  0  0  0  0  0  0  0
   -4.7978  -19.2752  -16.0232 C   0  0  0  0  0  0  0  0  0  0  0  0
   -5.1315  -20.4371  -16.6438 N   0  0  0  0  0  0  0  0  0  0  0  0
   -3.6006  -19.0812  -15.5487 N   0  0  0  0  0  0  0  0  0  0  0  0
   -3.4334  -17.8542  -14.9525 C   0  0  0  0  0  0  0  0  0  0  0  0
    3.0274  -15.7709  -13.5835 P   0  0  1  0  0  0  0  0  0  0  0  0
    4.4812  -16.1561  -13.5259 O   0  0  0  0  0  0  0  0  0  0  0  0
    2.4147  -15.1676  -14.8193 O   0  0  0  0  0  0  0  0  0  0  0  0
    2.6477  -14.8322  -12.3165 O   0  0  0  0  0  0  0  0  0  0  0  0
    3.0379  -15.1843  -10.9996 C   0  0  0  0  0  0  0  0  0  0  0  0
    2.3669  -14.2639   -9.9688 C   0  0  1  0  0  0  0  0  0  0  0  0
    2.9730  -12.9514  -10.0201 O   0  0  0  0  0  0  0  0  0  0  0  0
    0.8713  -14.1218  -10.2237 C   0  0  1  0  0  0  0  0  0  0  0  0
    0.1448  -15.0217   -9.4132 O   0  0  0  0  0  0  0  0  0  0  0  0
    0.6003  -12.6592   -9.9365 C   0  0  1  0  0  0  0  0  0  0  0  0
    0.3238  -12.4294   -8.5408 O   0  0  0  0  0  0  0  0  0  0  0  0
    1.9346  -11.9830  -10.2587 C   0  0  2  0  0  0  0  0  0  0  0  0
    2.1250  -11.4186  -11.5769 N   0  3  0  0  0  0  0  0  0  0  0  0
    1.5741  -11.8446  -12.7612 C   0  0  0  0  0  0  0  0  0  0  0  0
    1.9729  -11.1092  -13.7826 N   0  0  0  0  0  0  0  0  0  0  0  0
    2.8464  -10.2109  -13.2370 C   0  0  0  0  0  0  0  0  0  0  0  0
    3.6259   -9.1588  -13.8614 C   0  0  0  0  0  0  0  0  0  0  0  0
    3.6404   -8.8757  -15.0572 O   0  0  0  0  0  0  0  0  0  0  0  0
    4.3629   -8.4296  -12.9443 N   0  3  0  0  0  0  0  0  0  0  0  0
    4.3670   -8.6532  -11.5820 C   0  0  0  0  0  0  0  0  0  0  0  0
    5.1498   -7.8072  -10.8675 N   0  0  0  0  0  0  0  0  0  0  0  0
    3.6716   -9.5915  -11.0036 N   0  0  0  0  0  0  0  0  0  0  0  0
    2.9375  -10.3465  -11.8703 C   0  0  0  0  0  0  0  0  0  0  0  0
   -0.6041  -18.3118  -10.3875 H   0  0  0  0  0  0  0  0  0  0  0  0
    0.8268  -17.2415  -10.5498 H   0  0  0  0  0  0  0  0  0  0  0  0
    0.9009  -18.9752  -12.2560 H   0  0  0  0  0  0  0  0  0  0  0  0
    0.4052  -16.0773  -13.0441 H   0  0  0  0  0  0  0  0  0  0  0  0
    0.0030  -16.5624  -15.2745 H   0  0  0  0  0  0  0  0  0  0  0  0
    1.8840  -17.8495  -15.4557 H   0  0  0  0  0  0  0  0  0  0  0  0
   -1.2376  -19.0084  -14.9560 H   0  0  0  0  0  0  0  0  0  0  0  0
   -1.8654  -15.4567  -13.3758 H   0  0  0  0  0  0  0  0  0  0  0  0
   -6.6976  -18.5041  -16.3193 H   0  0  0  0  0  0  0  0  0  0  0  0
   -4.4223  -21.1631  -16.7001 H   0  0  0  0  0  0  0  0  0  0  0  0
   -6.0469  -20.6245  -17.0137 H   0  0  0  0  0  0  0  0  0  0  0  0
    4.1216  -15.0873  -10.8998 H   0  0  0  0  0  0  0  0  0  0  0  0
    2.7276  -16.2096  -10.7990 H   0  0  0  0  0  0  0  0  0  0  0  0
    2.5669  -14.6728   -8.9696 H   0  0  0  0  0  0  0  0  0  0  0  0
    0.6423  -14.3287  -11.2703 H   0  0  0  0  0  0  0  0  0  0  0  0
   -0.2402  -12.2818  -10.5242 H   0  0  0  0  0  0  0  0  0  0  0  0
    0.1180  -11.4852   -8.4582 H   0  0  0  0  0  0  0  0  0  0  0  0
    2.0815  -11.1552   -9.5507 H   0  0  0  0  0  0  0  0  0  0  0  0
    0.8985  -12.6916  -12.8385 H   0  0  0  0  0  0  0  0  0  0  0  0
    4.9127   -7.6906  -13.3396 H   0  0  0  0  0  0  0  0  0  0  0  0
    5.2082   -7.9458   -9.8674 H   0  0  0  0  0  0  0  0  0  0  0  0
    5.7086   -7.0802  -11.2851 H   0  0  0  0  0  0  0  0  0  0  0  0
  1  2  2  6  0  0  0
  1  3  1  0  0  0  0
  1  4  1  0  0  0  0
  1 32  1  0  0  0  0
  4  5  1  0  0  0  0
  5  6  1  0  0  0  0
  5 47  1  0  0  0  0
  5 48  1  0  0  0  0
  6  7  1  0  0  0  0
  6  8  1  0  0  0  0
  6 49  1  1  0  0  0
  7 12  1  0  0  0  0
  8  9  1  0  0  0  0
  8 10  1  0  0  0  0
  8 50  1  1  0  0  0
  9 24  1  0  0  0  0
 10 11  1  0  0  0  0
 10 12  1  0  0  0  0
 10 51  1  6  0  0  0
 11 52  1  0  0  0  0
 12 13  1  0  0  0  0
 12 53  1  6  0  0  0
 13 14  2  0  0  0  0
 13 23  1  0  0  0  0
 14 15  1  0  0  0  0
 14 54  1  0  0  0  0
 15 16  1  0  0  0  0
 16 17  1  0  0  0  0
 16 23  2  0  0  0  0
 17 18  2  0  0  0  0
 17 19  1  0  0  0  0
 19 20  1  0  0  0  0
 19 55  1  0  0  0  0
 20 21  1  0  0  0  0
 20 22  2  0  0  0  0
 21 56  1  0  0  0  0
 21 57  1  0  0  0  0
 22 23  1  0  0  0  0
 24 25  2  6  0  0  0
 24 26  1  0  0  0  0
 24 27  1  0  0  0  0
 27 28  1  0  0  0  0
 28 29  1  0  0  0  0
 28 58  1  0  0  0  0
 28 59  1  0  0  0  0
 29 30  1  0  0  0  0
 29 31  1  0  0  0  0
 29 60  1  1  0  0  0
 30 35  1  0  0  0  0
 31 32  1  0  0  0  0
 31 33  1  0  0  0  0
 31 61  1  6  0  0  0
 33 34  1  0  0  0  0
 33 35  1  0  0  0  0
 33 62  1  6  0  0  0
 34 63  1  0  0  0  0
 35 36  1  0  0  0  0
 35 64  1  1  0  0  0
 36 37  2  0  0  0  0
 36 46  1  0  0  0  0
 37 38  1  0  0  0  0
 37 65  1  0  0  0  0
 38 39  1  0  0  0  0
 39 40  1  0  0  0  0
 39 46  2  0  0  0  0
 40 41  2  0  0  0  0
 40 42  1  0  0  0  0
 42 43  1  0  0  0  0
 42 66  1  0  0  0  0
 43 44  1  0  0  0  0
 43 45  2  0  0  0  0
 44 67  1  0  0  0  0
 44 68  1  0  0  0  0
 45 46  1  0  0  0  0
M  CHG  4  13   1  19   1  36   1  42   1
M  END
$$$$
