C3G
 OpenBabel04161912203D

 34 35  0  0  1  0  0  0  0  0999 V2000
   53.5211   45.0301  164.8462 C   0  0  0  0  0  0  0  0  0  0  0  0
   55.4812   40.5984  166.4138 C   0  0  0  0  0  0  0  0  0  0  0  0
   55.4841   38.2805  165.7128 C   0  0  0  0  0  0  0  0  0  0  0  0
   51.1436   44.0141  167.7248 C   0  0  2  0  0  0  0  0  0  0  0  0
   52.0932   43.0050  168.3610 C   0  0  2  0  0  0  0  0  0  0  0  0
   52.8545   42.1941  167.2810 C   0  0  1  0  0  0  0  0  0  0  0  0
   52.6461   44.0537  165.7159 C   0  0  2  0  0  0  0  0  0  0  0  0
   51.8957   44.9118  166.7450 C   0  0  1  0  0  0  0  0  0  0  0  0
   54.3668   40.3671  167.2216 C   0  0  0  0  0  0  0  0  0  0  0  0
   56.0333   39.5607  165.6445 C   0  0  0  0  0  0  0  0  0  0  0  0
   54.3955   38.0258  166.5690 C   0  0  0  0  0  0  0  0  0  0  0  0
   53.8486   39.0742  167.3384 C   0  0  0  0  0  0  0  0  0  0  0  0
   56.0740   37.2198  164.8837 N   0  0  0  0  0  0  0  0  0  0  0  0
   50.5566   44.8325  168.7638 O   0  0  0  0  0  0  0  0  0  0  0  0
   51.3220   42.1218  169.2070 O   0  0  0  0  0  0  0  0  0  0  0  0
   53.4865   43.0564  166.3441 O   0  0  0  0  0  0  0  0  0  0  0  0
   50.9109   45.7596  166.1314 O   0  0  0  0  0  0  0  0  0  0  0  0
   52.9195   46.0836  164.4732 O   0  0  0  0  0  0  0  0  0  0  0  0
   54.7112   44.6713  164.5997 O   0  0  0  0  0  0  0  0  0  0  0  0
   53.8406   41.3782  167.9857 O   0  0  0  0  0  0  0  0  0  0  0  0
   56.9687   37.5025  164.0702 O   0  0  0  0  0  0  0  0  0  0  0  0
   55.6525   36.0512  165.0651 O   0  0  0  0  0  0  0  0  0  0  0  0
   55.9148   41.5941  166.3457 H   0  0  0  0  0  0  0  0  0  0  0  0
   50.3199   43.4990  167.2124 H   0  0  0  0  0  0  0  0  0  0  0  0
   52.8012   43.5511  168.9988 H   0  0  0  0  0  0  0  0  0  0  0  0
   52.1444   41.5282  166.7727 H   0  0  0  0  0  0  0  0  0  0  0  0
   51.9286   43.5661  165.0419 H   0  0  0  0  0  0  0  0  0  0  0  0
   52.5880   45.5486  167.3112 H   0  0  0  0  0  0  0  0  0  0  0  0
   56.8791   39.7691  164.9932 H   0  0  0  0  0  0  0  0  0  0  0  0
   53.9614   37.0345  166.6467 H   0  0  0  0  0  0  0  0  0  0  0  0
   53.0139   38.8806  168.0058 H   0  0  0  0  0  0  0  0  0  0  0  0
   50.0288   44.2740  169.3494 H   0  0  0  0  0  0  0  0  0  0  0  0
   50.8756   42.6674  169.8730 H   0  0  0  0  0  0  0  0  0  0  0  0
   51.4332   46.3086  165.4947 H   0  0  0  0  0  0  0  0  0  0  0  0
  1  7  1  0  0  0  0
  1 18  2  0  0  0  0
  1 19  1  0  0  0  0
  2  9  2  0  0  0  0
  2 10  1  0  0  0  0
  2 23  1  0  0  0  0
  3 10  2  0  0  0  0
  3 11  1  0  0  0  0
  3 13  1  0  0  0  0
  4  5  1  0  0  0  0
  4  8  1  0  0  0  0
  4 14  1  0  0  0  0
  4 24  1  6  0  0  0
  5  6  1  0  0  0  0
  5 15  1  0  0  0  0
  5 25  1  1  0  0  0
  6 16  1  0  0  0  0
  6 20  1  0  0  0  0
  6 26  1  6  0  0  0
  7  8  1  0  0  0  0
  7 16  1  0  0  0  0
  7 27  1  6  0  0  0
  8 17  1  0  0  0  0
  8 28  1  1  0  0  0
  9 12  1  0  0  0  0
  9 20  1  0  0  0  0
 10 29  1  0  0  0  0
 11 12  2  0  0  0  0
 11 30  1  0  0  0  0
 12 31  1  0  0  0  0
 13 21  2  0  0  0  0
 13 22  2  0  0  0  0
 14 32  1  0  0  0  0
 15 33  1  0  0  0  0
 17 34  1  0  0  0  0
M  END
$$$$
