C7K
 OpenBabel04161912253D

 52 53  0  0  0  0  0  0  0  0999 V2000
  -25.8006   13.6695   29.8359 C   0  0  0  0  0  0  0  0  0  0  0  0
  -26.3222   14.3133   31.0556 C   0  0  0  0  0  0  0  0  0  0  0  0
  -24.5290   14.0289   29.2675 C   0  0  0  0  0  0  0  0  0  0  0  0
  -27.5084   13.7473   31.3389 N   0  0  0  0  0  0  0  0  0  0  0  0
  -23.8208   15.0167   29.9975 C   0  0  0  0  0  0  0  0  0  0  0  0
  -24.3106   15.6570   31.1501 C   0  0  0  0  0  0  0  0  0  0  0  0
  -24.4454   12.4211   27.3273 C   0  0  0  0  0  0  0  0  0  0  0  0
  -23.4253   11.2826   27.2940 C   0  0  0  0  0  0  0  0  0  0  0  0
  -23.8020   10.1631   26.3199 C   0  0  0  0  0  0  0  0  0  0  0  0
  -22.7033    9.1902   22.6722 C   0  0  0  0  0  0  0  0  0  0  0  0
  -22.8906   10.3976   21.7444 C   0  0  0  0  0  0  0  0  0  0  0  0
  -24.2696   10.4997   21.0816 C   0  0  0  0  0  0  0  0  0  0  0  0
  -24.5699   11.8833   20.4910 C   0  0  0  0  0  0  0  0  0  0  0  0
  -26.1918   12.9640   22.1462 C   0  0  0  0  0  0  0  0  0  0  0  0
  -26.7048   12.7536   29.4589 N   0  0  0  0  0  0  0  0  0  0  0  0
  -25.5591   15.3183   31.6937 C   0  0  0  0  0  0  0  0  0  0  0  0
  -23.8909   13.4763   28.1727 N   0  0  0  0  0  0  0  0  0  0  0  0
  -27.7432   12.8108   30.3524 O   0  0  0  0  0  0  0  0  0  0  0  0
  -25.9826   15.9431   32.9041 N   0  0  0  0  0  0  0  0  0  0  0  0
  -27.1500   15.8180   33.2835 O   0  0  0  0  0  0  0  0  0  0  0  0
  -25.1323   16.6154   33.5225 O   0  0  0  0  0  0  0  0  0  0  0  0
  -23.0269   10.2444   24.9964 C   0  0  0  0  0  0  0  0  0  0  0  0
  -23.5167    9.2142   23.9722 C   0  0  0  0  0  0  0  0  0  0  0  0
  -24.7867   12.9816   21.5416 C   0  0  0  0  0  0  0  0  0  0  0  0
  -26.2559   12.9157   23.6574 C   0  0  0  0  0  0  0  0  0  0  0  0
  -26.8080   13.8942   24.2002 O   0  0  0  0  0  0  0  0  0  0  0  0
  -25.7493   11.8775   24.2147 O   0  0  0  0  0  0  0  0  0  0  0  0
  -22.8281   15.3115   29.6520 H   0  0  0  0  0  0  0  0  0  0  0  0
  -23.6946   16.4189   31.6222 H   0  0  0  0  0  0  0  0  0  0  0  0
  -25.3925   12.0333   27.6971 H   0  0  0  0  0  0  0  0  0  0  0  0
  -24.6160   12.8095   26.3199 H   0  0  0  0  0  0  0  0  0  0  0  0
  -23.3573   10.8610   28.3077 H   0  0  0  0  0  0  0  0  0  0  0  0
  -22.4361   11.6847   27.0485 H   0  0  0  0  0  0  0  0  0  0  0  0
  -24.8789   10.1847   26.1242 H   0  0  0  0  0  0  0  0  0  0  0  0
  -23.5746    9.1994   26.7945 H   0  0  0  0  0  0  0  0  0  0  0  0
  -21.6387    9.1224   22.9325 H   0  0  0  0  0  0  0  0  0  0  0  0
  -22.9591    8.2763   22.1235 H   0  0  0  0  0  0  0  0  0  0  0  0
  -22.1355   10.3286   20.9479 H   0  0  0  0  0  0  0  0  0  0  0  0
  -22.6751   11.3061   22.3079 H   0  0  0  0  0  0  0  0  0  0  0  0
  -25.0555   10.2426   21.7938 H   0  0  0  0  0  0  0  0  0  0  0  0
  -24.3175    9.7682   20.2622 H   0  0  0  0  0  0  0  0  0  0  0  0
  -25.4706   11.8076   19.8664 H   0  0  0  0  0  0  0  0  0  0  0  0
  -23.7476   12.1819   19.8289 H   0  0  0  0  0  0  0  0  0  0  0  0
  -26.7635   12.1159   21.7437 H   0  0  0  0  0  0  0  0  0  0  0  0
  -26.7085   13.8723   21.8255 H   0  0  0  0  0  0  0  0  0  0  0  0
  -23.0998   13.9691   27.7906 H   0  0  0  0  0  0  0  0  0  0  0  0
  -21.9613   10.0759   25.1956 H   0  0  0  0  0  0  0  0  0  0  0  0
  -23.1393   11.2478   24.5778 H   0  0  0  0  0  0  0  0  0  0  0  0
  -23.4587    8.2151   24.4238 H   0  0  0  0  0  0  0  0  0  0  0  0
  -24.5683    9.4026   23.7416 H   0  0  0  0  0  0  0  0  0  0  0  0
  -24.6429   13.9520   21.0408 H   0  0  0  0  0  0  0  0  0  0  0  0
  -24.0301   12.9213   22.3265 H   0  0  0  0  0  0  0  0  0  0  0  0
  1  2  1  0  0  0  0
  1  3  1  0  0  0  0
  1 15  2  0  0  0  0
  2  4  2  0  0  0  0
  2 16  1  0  0  0  0
  3  5  2  0  0  0  0
  3 17  1  0  0  0  0
  4 18  1  0  0  0  0
  5  6  1  0  0  0  0
  5 28  1  0  0  0  0
  6 16  2  0  0  0  0
  6 29  1  0  0  0  0
  7  8  1  0  0  0  0
  7 17  1  0  0  0  0
  7 30  1  0  0  0  0
  7 31  1  0  0  0  0
  8  9  1  0  0  0  0
  8 32  1  0  0  0  0
  8 33  1  0  0  0  0
  9 22  1  0  0  0  0
  9 34  1  0  0  0  0
  9 35  1  0  0  0  0
 10 11  1  0  0  0  0
 10 23  1  0  0  0  0
 10 36  1  0  0  0  0
 10 37  1  0  0  0  0
 11 12  1  0  0  0  0
 11 38  1  0  0  0  0
 11 39  1  0  0  0  0
 12 13  1  0  0  0  0
 12 40  1  0  0  0  0
 12 41  1  0  0  0  0
 13 24  1  0  0  0  0
 13 42  1  0  0  0  0
 13 43  1  0  0  0  0
 14 24  1  0  0  0  0
 14 25  1  0  0  0  0
 14 44  1  0  0  0  0
 14 45  1  0  0  0  0
 15 18  1  0  0  0  0
 16 19  1  0  0  0  0
 17 46  1  0  0  0  0
 19 20  2  0  0  0  0
 19 21  2  0  0  0  0
 22 23  1  0  0  0  0
 22 47  1  0  0  0  0
 22 48  1  0  0  0  0
 23 49  1  0  0  0  0
 23 50  1  0  0  0  0
 24 51  1  0  0  0  0
 24 52  1  0  0  0  0
 25 26  2  0  0  0  0
 25 27  1  0  0  0  0
M  END
$$$$
