C98
 OpenBabel04161911183D

 60 62  0  0  0  0  0  0  0  0999 V2000
    5.4169  139.4302  351.1065 Cl  0  0  0  0  0  0  0  0  0  0  0  0
    4.8694  138.8537  352.6399 C   0  0  0  0  0  0  0  0  0  0  0  0
    4.3689  139.7130  353.6261 C   0  0  0  0  0  0  0  0  0  0  0  0
    4.0970  141.1353  353.3943 C   0  0  0  0  0  0  0  0  0  0  0  0
    2.8694  141.6916  353.7743 C   0  0  0  0  0  0  0  0  0  0  0  0
    2.5900  143.0364  353.5529 C   0  0  0  0  0  0  0  0  0  0  0  0
    3.5335  143.8497  352.9437 C   0  0  0  0  0  0  0  0  0  0  0  0
    4.7519  143.3176  352.5524 C   0  0  0  0  0  0  0  0  0  0  0  0
    5.0295  141.9757  352.7824 C   0  0  0  0  0  0  0  0  0  0  0  0
    4.0581  139.1518  354.8715 C   0  0  0  0  0  0  0  0  0  0  0  0
    4.1606  137.7819  355.0985 C   0  0  0  0  0  0  0  0  0  0  0  0
    4.9537  137.4755  352.8613 C   0  0  0  0  0  0  0  0  0  0  0  0
    4.5902  136.9276  354.0899 C   0  0  0  0  0  0  0  0  0  0  0  0
    4.6230  135.4508  354.2851 C   0  0  0  0  0  0  0  0  0  0  0  0
    5.2643  135.0456  355.5626 N   0  3  0  0  0  0  0  0  0  0  0  0
    6.0023  133.7633  355.4733 C   0  0  0  0  0  0  0  0  0  0  0  0
    6.0403  133.0756  356.8163 C   0  0  0  0  0  0  0  0  0  0  0  0
    6.9672  131.8773  356.7306 C   0  0  0  0  0  0  0  0  0  0  0  0
    6.8972  131.0566  357.9144 N   0  0  0  0  0  0  0  0  0  0  0  0
    8.0327  130.4853  358.4703 C   0  0  0  0  0  0  0  0  0  0  0  0
    9.1517  130.8240  358.1145 O   0  0  0  0  0  0  0  0  0  0  0  0
    7.7861  129.4272  359.4974 C   0  0  0  0  0  0  0  0  0  0  0  0
    8.0160  129.9042  360.8972 C   0  0  0  0  0  0  0  0  0  0  0  0
    7.0650  130.0233  361.6614 O   0  0  0  0  0  0  0  0  0  0  0  0
    9.3392  130.1660  361.1908 N   0  0  0  0  0  0  0  0  0  0  0  0
    9.8165  130.7012  362.3967 C   0  0  0  0  0  0  0  0  0  0  0  0
    8.9697  130.9813  363.4582 C   0  0  0  0  0  0  0  0  0  0  0  0
    9.4382  131.6064  364.6026 C   0  0  0  0  0  0  0  0  0  0  0  0
   10.7770  131.9490  364.6986 C   0  0  0  0  0  0  0  0  0  0  0  0
   11.1703  130.9983  362.5135 C   0  0  0  0  0  0  0  0  0  0  0  0
   11.6603  131.6564  363.6612 C   0  0  0  0  0  0  0  0  0  0  0  0
   13.1078  132.0916  363.6881 C   0  0  0  0  0  0  0  0  0  0  0  0
   13.4565  132.8416  364.6529 O   0  0  0  0  0  0  0  0  0  0  0  0
   13.8127  131.7080  362.7366 O   0  0  0  0  0  0  0  0  0  0  0  0
    2.1132  141.0721  354.2482 H   0  0  0  0  0  0  0  0  0  0  0  0
    1.6351  143.4536  353.8558 H   0  0  0  0  0  0  0  0  0  0  0  0
    3.3196  144.8987  352.7736 H   0  0  0  0  0  0  0  0  0  0  0  0
    5.4908  143.9502  352.0727 H   0  0  0  0  0  0  0  0  0  0  0  0
    5.9896  141.5830  352.4657 H   0  0  0  0  0  0  0  0  0  0  0  0
    3.7153  139.8000  355.6770 H   0  0  0  0  0  0  0  0  0  0  0  0
    3.8898  137.3936  356.0731 H   0  0  0  0  0  0  0  0  0  0  0  0
    5.3073  136.8313  352.0589 H   0  0  0  0  0  0  0  0  0  0  0  0
    5.1931  134.9820  353.4814 H   0  0  0  0  0  0  0  0  0  0  0  0
    3.6054  135.0527  354.3003 H   0  0  0  0  0  0  0  0  0  0  0  0
    5.9190  135.7890  355.8483 H   0  0  0  0  0  0  0  0  0  0  0  0
    7.0077  134.0004  355.1259 H   0  0  0  0  0  0  0  0  0  0  0  0
    5.4791  133.1406  354.7462 H   0  0  0  0  0  0  0  0  0  0  0  0
    5.0331  132.7410  357.0875 H   0  0  0  0  0  0  0  0  0  0  0  0
    6.4106  133.7621  357.5833 H   0  0  0  0  0  0  0  0  0  0  0  0
    7.9925  132.2264  356.5837 H   0  0  0  0  0  0  0  0  0  0  0  0
    6.6770  131.2533  355.8771 H   0  0  0  0  0  0  0  0  0  0  0  0
    6.0135  130.8613  358.3654 H   0  0  0  0  0  0  0  0  0  0  0  0
    8.4555  128.5857  359.2806 H   0  0  0  0  0  0  0  0  0  0  0  0
    6.7525  129.0645  359.4168 H   0  0  0  0  0  0  0  0  0  0  0  0
   10.0194  129.9946  360.4623 H   0  0  0  0  0  0  0  0  0  0  0  0
    7.9261  130.7231  363.4097 H   0  0  0  0  0  0  0  0  0  0  0  0
    8.7592  131.8333  365.4123 H   0  0  0  0  0  0  0  0  0  0  0  0
   11.1453  132.4601  365.5879 H   0  0  0  0  0  0  0  0  0  0  0  0
   11.8709  130.7647  361.7161 H   0  0  0  0  0  0  0  0  0  0  0  0
    4.5386  134.9833  356.2867 H   0  0  0  0  0  0  0  0  0  0  0  0
  1  2  1  0  0  0  0
  2  3  2  0  0  0  0
  2 12  1  0  0  0  0
  3  4  1  0  0  0  0
  3 10  1  0  0  0  0
  4  5  2  0  0  0  0
  4  9  1  0  0  0  0
  5  6  1  0  0  0  0
  5 35  1  0  0  0  0
  6  7  2  0  0  0  0
  6 36  1  0  0  0  0
  7  8  1  0  0  0  0
  7 37  1  0  0  0  0
  8  9  2  0  0  0  0
  8 38  1  0  0  0  0
  9 39  1  0  0  0  0
 10 11  2  0  0  0  0
 10 40  1  0  0  0  0
 11 13  1  0  0  0  0
 11 41  1  0  0  0  0
 12 13  2  0  0  0  0
 12 42  1  0  0  0  0
 13 14  1  0  0  0  0
 14 15  1  0  0  0  0
 14 43  1  0  0  0  0
 14 44  1  0  0  0  0
 15 16  1  0  0  0  0
 15 45  1  0  0  0  0
 15 60  1  0  0  0  0
 16 17  1  0  0  0  0
 16 46  1  0  0  0  0
 16 47  1  0  0  0  0
 17 18  1  0  0  0  0
 17 48  1  0  0  0  0
 17 49  1  0  0  0  0
 18 19  1  0  0  0  0
 18 50  1  0  0  0  0
 18 51  1  0  0  0  0
 19 20  1  0  0  0  0
 19 52  1  0  0  0  0
 20 21  2  0  0  0  0
 20 22  1  0  0  0  0
 22 23  1  0  0  0  0
 22 53  1  0  0  0  0
 22 54  1  0  0  0  0
 23 24  2  0  0  0  0
 23 25  1  0  0  0  0
 25 26  1  0  0  0  0
 25 55  1  0  0  0  0
 26 27  2  0  0  0  0
 26 30  1  0  0  0  0
 27 28  1  0  0  0  0
 27 56  1  0  0  0  0
 28 29  2  0  0  0  0
 28 57  1  0  0  0  0
 29 31  1  0  0  0  0
 29 58  1  0  0  0  0
 30 31  2  0  0  0  0
 30 59  1  0  0  0  0
 31 32  1  0  0  0  0
 32 33  2  0  0  0  0
 32 34  1  0  0  0  0
M  CHG  1  15   1
M  END
$$$$
