CJY
 OpenBabel04161912203D

 44 47  0  0  1  0  0  0  0  0999 V2000
   13.6169  -12.6761   13.1445 C   0  0  0  0  0  0  0  0  0  0  0  0
   10.0722   -8.9450    9.1292 C   0  0  0  0  0  0  0  0  0  0  0  0
   12.0794   -5.8390    8.7149 C   0  0  0  0  0  0  0  0  0  0  0  0
   11.7544   -5.8626   11.4755 C   0  0  0  0  0  0  0  0  0  0  0  0
   12.8235  -10.4080   13.4788 C   0  0  0  0  0  0  0  0  0  0  0  0
   12.7499  -13.1574   14.1279 C   0  0  0  0  0  0  0  0  0  0  0  0
   11.1710   -6.8970   10.7161 C   0  0  2  0  0  0  0  0  0  0  0  0
   10.9965  -10.2172   15.3545 C   0  0  2  0  0  0  0  0  0  0  0  0
   10.4244   -7.9442   11.3024 C   0  0  1  0  0  0  0  0  0  0  0  0
    9.2363   -8.5983   13.2799 C   0  0  0  0  0  0  0  0  0  0  0  0
    9.4367  -11.1689   17.2129 C   0  0  0  0  0  0  0  0  0  0  0  0
   12.6358   -4.8237    9.4897 C   0  0  0  0  0  0  0  0  0  0  0  0
   12.4781   -4.8355   10.8725 C   0  0  0  0  0  0  0  0  0  0  0  0
   13.6534  -11.3217   12.8177 C   0  0  0  0  0  0  0  0  0  0  0  0
   10.7887   -7.9096    8.5314 C   0  0  0  0  0  0  0  0  0  0  0  0
    9.8913   -8.9642   10.5109 C   0  0  0  0  0  0  0  0  0  0  0  0
   11.3449   -6.8817    9.3096 C   0  0  2  0  0  0  0  0  0  0  0  0
   11.9457  -10.8628   14.4853 C   0  0  2  0  0  0  0  0  0  0  0  0
   11.9273  -12.2283   14.7780 C   0  0  2  0  0  0  0  0  0  0  0  0
   10.4400  -11.2166   16.1360 C   0  0  2  0  0  0  0  0  0  0  0  0
   10.6822   -8.7500   15.3895 C   0  0  0  0  0  0  0  0  0  0  0  0
    9.3161   -8.4016   14.7922 C   0  0  0  0  0  0  0  0  0  0  0  0
   10.9972  -12.4097   15.7655 N   0  3  0  0  0  0  0  0  0  0  0  0
    9.0320  -10.0374   17.6071 O   0  0  0  0  0  0  0  0  0  0  0  0
    9.0782  -12.3077   17.6391 O   0  0  0  0  0  0  0  0  0  0  0  0
   10.3160   -7.8950   12.6688 O   0  0  0  0  0  0  0  0  0  0  0  0
   14.2673  -13.3712   12.6228 H   0  0  0  0  0  0  0  0  0  0  0  0
    9.6617   -9.7464    8.5205 H   0  0  0  0  0  0  0  0  0  0  0  0
   12.2078   -5.8115    7.6344 H   0  0  0  0  0  0  0  0  0  0  0  0
   11.6408   -5.8544   12.5579 H   0  0  0  0  0  0  0  0  0  0  0  0
   12.8547   -9.3560   13.2170 H   0  0  0  0  0  0  0  0  0  0  0  0
   12.7151  -14.2095   14.3850 H   0  0  0  0  0  0  0  0  0  0  0  0
    8.2883   -8.1815   12.9177 H   0  0  0  0  0  0  0  0  0  0  0  0
    9.2728   -9.6676   13.0526 H   0  0  0  0  0  0  0  0  0  0  0  0
   13.1995   -4.0241    9.0115 H   0  0  0  0  0  0  0  0  0  0  0  0
   12.9158   -4.0532   11.4819 H   0  0  0  0  0  0  0  0  0  0  0  0
   14.3306  -10.9662   12.0477 H   0  0  0  0  0  0  0  0  0  0  0  0
   10.9178   -7.9159    7.4521 H   0  0  0  0  0  0  0  0  0  0  0  0
    9.3513   -9.7987   10.9449 H   0  0  0  0  0  0  0  0  0  0  0  0
   11.4705   -8.1935   14.8679 H   0  0  0  0  0  0  0  0  0  0  0  0
   10.7283   -8.4014   16.4263 H   0  0  0  0  0  0  0  0  0  0  0  0
    8.5185   -8.9879   15.2602 H   0  0  0  0  0  0  0  0  0  0  0  0
    9.1172   -7.3474   15.0189 H   0  0  0  0  0  0  0  0  0  0  0  0
   10.7326  -13.2788   16.2129 H   0  0  0  0  0  0  0  0  0  0  0  0
  1  6  1  0  0  0  0
  1 14  1  0  0  0  0
  1 27  1  0  0  0  0
  2 15  1  0  0  0  0
  2 16  1  0  0  0  0
  2 28  1  0  0  0  0
  3 12  1  0  0  0  0
  3 29  1  0  0  0  0
  4 13  1  0  0  0  0
  4 30  1  0  0  0  0
  5 14  1  0  0  0  0
  5 31  1  0  0  0  0
  6 32  1  0  0  0  0
  7  4  1  1  0  0  0
  7  9  1  0  0  0  0
  7 17  1  0  0  0  0
  8 18  1  0  0  0  0
  8 20  1  0  0  0  0
  8 21  1  6  0  0  0
  9 16  1  0  0  0  0
  9 26  1  1  0  0  0
 10 22  1  0  0  0  0
 10 26  1  0  0  0  0
 10 33  1  0  0  0  0
 10 34  1  0  0  0  0
 11 24  2  0  0  0  0
 11 25  1  0  0  0  0
 12 13  1  0  0  0  0
 12 35  1  0  0  0  0
 13 36  1  0  0  0  0
 14 37  1  0  0  0  0
 15 17  1  0  0  0  0
 15 38  1  0  0  0  0
 16 39  1  0  0  0  0
 17  3  1  1  0  0  0
 18  5  1  1  0  0  0
 18 19  1  0  0  0  0
 19  6  1  1  0  0  0
 19 23  1  0  0  0  0
 20 11  1  1  0  0  0
 20 23  1  0  0  0  0
 21 22  1  0  0  0  0
 21 40  1  0  0  0  0
 21 41  1  0  0  0  0
 22 42  1  0  0  0  0
 22 43  1  0  0  0  0
 23 44  1  0  0  0  0
M  CHG  1  23   1
M  END
$$$$
