CKA
 OpenBabel04161909443D

 20 21  0  0  0  0  0  0  0  0999 V2000
   13.4758    4.0169   23.7153 C   0  0  0  0  0  0  0  0  0  0  0  0
   14.8339    3.8676   23.4247 C   0  0  0  0  0  0  0  0  0  0  0  0
   15.6018    4.9945   23.1041 C   0  0  0  0  0  0  0  0  0  0  0  0
   15.0279    6.2692   23.0700 C   0  0  0  0  0  0  0  0  0  0  0  0
   13.6485    6.4124   23.3660 C   0  0  0  0  0  0  0  0  0  0  0  0
   11.8102    7.8815   23.5924 C   0  0  0  0  0  0  0  0  0  0  0  0
   11.3297    9.3252   23.5186 C   0  0  0  0  0  0  0  0  0  0  0  0
   13.0890    7.6748   23.3294 N   0  0  0  0  0  0  0  0  0  0  0  0
   12.8888    5.2781   23.6864 C   0  0  0  0  0  0  0  0  0  0  0  0
   10.8900    6.8041   23.9424 C   0  0  0  0  0  0  0  0  0  0  0  0
   11.4473    5.4328   23.9933 C   0  0  0  0  0  0  0  0  0  0  0  0
   10.7256    4.4684   24.2807 O   0  0  0  0  0  0  0  0  0  0  0  0
   17.2839    4.8028   22.7461 Cl  0  0  0  0  0  0  0  0  0  0  0  0
   12.2277   10.1599   23.2062 O   0  0  0  0  0  0  0  0  0  0  0  0
   10.1033    9.5659   23.7752 O   0  0  0  0  0  0  0  0  0  0  0  0
   12.8801    3.1449   23.9635 H   0  0  0  0  0  0  0  0  0  0  0  0
   15.2871    2.8768   23.4490 H   0  0  0  0  0  0  0  0  0  0  0  0
   15.6486    7.1348   22.8163 H   0  0  0  0  0  0  0  0  0  0  0  0
   10.1173    6.8086   23.1868 H   0  0  0  0  0  0  0  0  0  0  0  0
   10.5160    7.0353   24.9297 H   0  0  0  0  0  0  0  0  0  0  0  0
  1  2  2  0  0  0  0
  1  9  1  0  0  0  0
  1 16  1  0  0  0  0
  2  3  1  0  0  0  0
  2 17  1  0  0  0  0
  3  4  2  0  0  0  0
  3 13  1  0  0  0  0
  4  5  1  0  0  0  0
  4 18  1  0  0  0  0
  5  8  1  0  0  0  0
  5  9  2  0  0  0  0
  6  7  1  0  0  0  0
  6  8  2  0  0  0  0
  6 10  1  0  0  0  0
  7 14  2  0  0  0  0
  7 15  1  0  0  0  0
  9 11  1  0  0  0  0
 10 11  1  0  0  0  0
 10 19  1  0  0  0  0
 10 20  1  0  0  0  0
 11 12  2  0  0  0  0
M  END
$$$$
