CN7
 OpenBabel04161912203D

 77 82  0  0  1  0  0  0  0  0999 V2000
  -10.2278   17.1040   -6.4871 C   0  0  0  0  0  0  0  0  0  0  0  0
   -7.2662   15.3244   -1.1024 C   0  0  0  0  0  0  0  0  0  0  0  0
   -1.7073   15.9092    0.8011 C   0  0  0  0  0  0  0  0  0  0  0  0
   -2.2150   13.9063    3.8468 C   0  0  0  0  0  0  0  0  0  0  0  0
   -4.3474   15.6757    4.0556 C   0  0  0  0  0  0  0  0  0  0  0  0
   -1.5137   14.9556    1.7927 C   0  0  0  0  0  0  0  0  0  0  0  0
  -11.0179   17.1004   -5.3468 C   0  0  0  0  0  0  0  0  0  0  0  0
   -2.3996   14.8794    2.8690 C   0  0  1  0  0  0  0  0  0  0  0  0
   -7.6597   17.6167   -0.4954 C   0  0  2  0  0  0  0  0  0  0  0  0
  -10.4475   16.9907   -4.0819 C   0  0  0  0  0  0  0  0  0  0  0  0
   -7.6851   18.8438    0.2289 C   0  0  1  0  0  0  0  0  0  0  0  0
   -8.2648   17.8326   -1.7407 C   0  0  1  0  0  0  0  0  0  0  0  0
   -8.3146   19.7752   -0.5659 C   0  0  2  0  0  0  0  0  0  0  0  0
   -8.2085   20.4691   -6.1074 C   0  0  0  0  0  0  0  0  0  0  0  0
   -8.1286   21.4634   -7.2578 C   0  0  0  0  0  0  0  0  0  0  0  0
   -3.0834   13.8206    4.9244 C   0  0  0  0  0  0  0  0  0  0  0  0
   -4.1476   14.7057    5.0318 C   0  0  0  0  0  0  0  0  0  0  0  0
   -8.8562   16.9879   -6.3636 C   0  0  0  0  0  0  0  0  0  0  0  0
   -7.1847   16.3380   -0.1668 C   0  0  0  0  0  0  0  0  0  0  0  0
   -8.2632   16.8813   -5.1224 C   0  0  0  0  0  0  0  0  0  0  0  0
   -7.8523   15.5296   -2.3242 C   0  0  0  0  0  0  0  0  0  0  0  0
   -2.7633   16.7899    0.8824 C   0  0  0  0  0  0  0  0  0  0  0  0
   -3.4740   15.7777    2.9585 C   0  0  2  0  0  0  0  0  0  0  0  0
   -9.0478   16.9020   -3.9588 C   0  0  0  0  0  0  0  0  0  0  0  0
   -8.3870   16.7790   -2.6752 C   0  0  1  0  0  0  0  0  0  0  0  0
   -3.6522   16.7486    1.9621 C   0  0  2  0  0  0  0  0  0  0  0  0
   -8.5812   21.1658   -0.2106 C   0  0  0  0  0  0  0  0  0  0  0  0
   -6.6273   22.0020   -4.8819 C   0  0  0  0  0  0  0  0  0  0  0  0
   -6.6520   22.8826   -6.1172 C   0  0  0  0  0  0  0  0  0  0  0  0
  -11.3537   16.9911   -2.8872 C   0  0  0  0  0  0  0  0  0  0  0  0
   -7.2375   19.0304    1.6341 C   0  0  0  0  0  0  0  0  0  0  0  0
   -5.8540   19.6534    1.7687 C   0  0  0  0  0  0  0  0  0  0  0  0
   -9.0401   19.9171   -2.9359 C   0  0  0  0  0  0  0  0  0  0  0  0
   -7.7623   20.2235   -3.6715 C   0  0  0  0  0  0  0  0  0  0  0  0
   -4.7430   18.7395    1.2950 C   0  0  0  0  0  0  0  0  0  0  0  0
   -8.6539   19.1647   -1.7471 N   0  3  1  0  0  0  0  0  0  0  0  0
   -7.9142   21.1902   -4.8053 N   0  3  0  0  0  0  0  0  0  0  0  0
   -9.7259   21.6137   -0.5208 O   0  0  0  0  0  0  0  0  0  0  0  0
   -6.8369   22.0831   -7.2927 O   0  0  0  0  0  0  0  0  0  0  0  0
   -7.5865   21.8533    0.1623 O   0  0  0  0  0  0  0  0  0  0  0  0
   -4.7247   17.5857    2.1232 O   0  0  0  0  0  0  0  0  0  0  0  0
  -10.6949   17.1815   -7.4591 H   0  0  0  0  0  0  0  0  0  0  0  0
   -6.8688   14.3311   -0.8577 H   0  0  0  0  0  0  0  0  0  0  0  0
   -1.0192   15.9492   -0.0372 H   0  0  0  0  0  0  0  0  0  0  0  0
   -1.3843   13.1969    3.7668 H   0  0  0  0  0  0  0  0  0  0  0  0
   -5.1918   16.3568    4.1384 H   0  0  0  0  0  0  0  0  0  0  0  0
   -0.6752   14.2625    1.7271 H   0  0  0  0  0  0  0  0  0  0  0  0
  -12.1037   17.1758   -5.4363 H   0  0  0  0  0  0  0  0  0  0  0  0
   -7.4440   19.6926   -6.2292 H   0  0  0  0  0  0  0  0  0  0  0  0
   -9.2053   20.0267   -6.0324 H   0  0  0  0  0  0  0  0  0  0  0  0
   -8.8951   22.2380   -7.1479 H   0  0  0  0  0  0  0  0  0  0  0  0
   -8.2933   20.9427   -8.2054 H   0  0  0  0  0  0  0  0  0  0  0  0
   -2.9326   13.0591    5.6839 H   0  0  0  0  0  0  0  0  0  0  0  0
   -4.8329   14.6503    5.8698 H   0  0  0  0  0  0  0  0  0  0  0  0
   -8.2280   16.9682   -7.2597 H   0  0  0  0  0  0  0  0  0  0  0  0
   -6.7480   16.1510    0.8124 H   0  0  0  0  0  0  0  0  0  0  0  0
   -7.1819   16.7763   -5.0303 H   0  0  0  0  0  0  0  0  0  0  0  0
   -7.9324   14.7087   -3.0336 H   0  0  0  0  0  0  0  0  0  0  0  0
   -2.9064   17.5155    0.0773 H   0  0  0  0  0  0  0  0  0  0  0  0
   -6.5545   22.6007   -3.9676 H   0  0  0  0  0  0  0  0  0  0  0  0
   -5.8021   21.2805   -4.9359 H   0  0  0  0  0  0  0  0  0  0  0  0
   -5.7024   23.4194   -6.1988 H   0  0  0  0  0  0  0  0  0  0  0  0
   -7.4629   23.6162   -6.0486 H   0  0  0  0  0  0  0  0  0  0  0  0
  -12.3956   17.0791   -3.2105 H   0  0  0  0  0  0  0  0  0  0  0  0
  -11.1383   17.8454   -2.2410 H   0  0  0  0  0  0  0  0  0  0  0  0
  -11.2457   16.0578   -2.3284 H   0  0  0  0  0  0  0  0  0  0  0  0
   -7.2612   18.0666    2.1485 H   0  0  0  0  0  0  0  0  0  0  0  0
   -7.9646   19.6771    2.1405 H   0  0  0  0  0  0  0  0  0  0  0  0
   -5.6973   19.8840    2.8289 H   0  0  0  0  0  0  0  0  0  0  0  0
   -5.7973   20.5831    1.2032 H   0  0  0  0  0  0  0  0  0  0  0  0
   -9.7310   19.3393   -3.5402 H   0  0  0  0  0  0  0  0  0  0  0  0
   -9.5665   20.8215   -2.6435 H   0  0  0  0  0  0  0  0  0  0  0  0
   -7.3255   19.3157   -4.0943 H   0  0  0  0  0  0  0  0  0  0  0  0
   -7.0288   20.6526   -2.9810 H   0  0  0  0  0  0  0  0  0  0  0  0
   -3.7885   19.2695    1.3792 H   0  0  0  0  0  0  0  0  0  0  0  0
   -4.9098   18.4435    0.2535 H   0  0  0  0  0  0  0  0  0  0  0  0
   -8.6854   21.8438   -4.5952 H   0  0  0  0  0  0  0  0  0  0  0  0
  1  7  2  0  0  0  0
  1 18  1  0  0  0  0
  1 42  1  0  0  0  0
  2 19  1  0  0  0  0
  2 21  1  0  0  0  0
  2 43  1  0  0  0  0
  3  6  1  0  0  0  0
  3 22  1  0  0  0  0
  3 44  1  0  0  0  0
  4 16  1  0  0  0  0
  4 45  1  0  0  0  0
  5 17  1  0  0  0  0
  5 46  1  0  0  0  0
  6  8  1  0  0  0  0
  6 47  1  0  0  0  0
  7 10  1  0  0  0  0
  7 48  1  0  0  0  0
  8  4  1  6  0  0  0
  8 23  1  0  0  0  0
  9 11  1  0  0  0  0
  9 19  1  1  0  0  0
 10 24  2  0  0  0  0
 10 30  1  0  0  0  0
 11 13  1  0  0  0  0
 11 31  1  1  0  0  0
 12  9  1  1  0  0  0
 12 25  1  0  0  0  0
 12 36  1  0  0  0  0
 13 27  1  1  0  0  0
 13 36  1  0  0  0  0
 14 15  1  0  0  0  0
 14 37  1  0  0  0  0
 14 49  1  0  0  0  0
 14 50  1  0  0  0  0
 15 39  1  0  0  0  0
 15 51  1  0  0  0  0
 15 52  1  0  0  0  0
 16 17  1  0  0  0  0
 16 53  1  0  0  0  0
 17 54  1  0  0  0  0
 18 20  2  0  0  0  0
 18 55  1  0  0  0  0
 19 56  1  0  0  0  0
 20 24  1  0  0  0  0
 20 57  1  0  0  0  0
 21 25  1  0  0  0  0
 21 58  1  0  0  0  0
 22 26  1  0  0  0  0
 22 59  1  0  0  0  0
 23  5  1  1  0  0  0
 23 26  1  0  0  0  0
 25 24  1  1  0  0  0
 26 41  1  6  0  0  0
 27 38  2  0  0  0  0
 27 40  1  0  0  0  0
 28 29  1  0  0  0  0
 28 37  1  0  0  0  0
 28 60  1  0  0  0  0
 28 61  1  0  0  0  0
 29 39  1  0  0  0  0
 29 62  1  0  0  0  0
 29 63  1  0  0  0  0
 30 64  1  0  0  0  0
 30 65  1  0  0  0  0
 30 66  1  0  0  0  0
 31 32  1  0  0  0  0
 31 67  1  0  0  0  0
 31 68  1  0  0  0  0
 32 35  1  0  0  0  0
 32 69  1  0  0  0  0
 32 70  1  0  0  0  0
 33 34  1  0  0  0  0
 33 71  1  0  0  0  0
 33 72  1  0  0  0  0
 34 37  1  0  0  0  0
 34 73  1  0  0  0  0
 34 74  1  0  0  0  0
 35 41  1  0  0  0  0
 35 75  1  0  0  0  0
 35 76  1  0  0  0  0
 36 33  1  6  0  0  0
 37 77  1  0  0  0  0
M  CHG  2  36   1  37   1
M  END
$$$$
