CTN
 OpenBabel04161909473D

 30 31  0  0  1  0  0  0  0  0999 V2000
   20.7750    5.5768   -8.3133 O   0  0  0  0  0  0  0  0  0  0  0  0
   21.9009    5.7558   -7.4632 C   0  0  0  0  0  0  0  0  0  0  0  0
   21.5853    6.7106   -6.3002 C   0  0  1  0  0  0  0  0  0  0  0  0
   20.8111    6.0225   -5.3033 O   0  0  0  0  0  0  0  0  0  0  0  0
   21.3217    6.3497   -3.9954 C   0  0  1  0  0  0  0  0  0  0  0  0
   21.7511    5.1334   -3.3086 N   0  3  0  0  0  0  0  0  0  0  0  0
   22.3907    4.1282   -4.0026 C   0  0  0  0  0  0  0  0  0  0  0  0
   22.8596    3.0364   -3.4073 C   0  0  0  0  0  0  0  0  0  0  0  0
   22.6651    2.8936   -1.9637 C   0  0  0  0  0  0  0  0  0  0  0  0
   22.0357    3.9152   -1.3304 N   0  3  0  0  0  0  0  0  0  0  0  0
   21.5795    5.0659   -1.9291 C   0  0  0  0  0  0  0  0  0  0  0  0
   21.0839    5.9741   -1.2616 O   0  0  0  0  0  0  0  0  0  0  0  0
   23.0603    1.8968   -1.2608 N   0  0  0  0  0  0  0  0  0  0  0  0
   22.4532    7.3783   -4.1650 C   0  0  2  0  0  0  0  0  0  0  0  0
   21.9846    8.7178   -3.9370 O   0  0  0  0  0  0  0  0  0  0  0  0
   22.8564    7.2057   -5.6229 C   0  0  2  0  0  0  0  0  0  0  0  0
   23.3253    8.4016   -6.2335 O   0  0  0  0  0  0  0  0  0  0  0  0
   20.5391    6.4478   -8.6755 H   0  0  0  0  0  0  0  0  0  0  0  0
   22.7328    6.1228   -8.0726 H   0  0  0  0  0  0  0  0  0  0  0  0
   22.1642    4.7623   -7.0917 H   0  0  0  0  0  0  0  0  0  0  0  0
   20.9822    7.5479   -6.6714 H   0  0  0  0  0  0  0  0  0  0  0  0
   20.4853    6.7991   -3.4398 H   0  0  0  0  0  0  0  0  0  0  0  0
   22.5192    4.2480   -5.0659 H   0  0  0  0  0  0  0  0  0  0  0  0
   23.3625    2.2445   -3.9576 H   0  0  0  0  0  0  0  0  0  0  0  0
   21.9176    3.8323   -0.3373 H   0  0  0  0  0  0  0  0  0  0  0  0
   23.5185    1.1920   -1.8481 H   0  0  0  0  0  0  0  0  0  0  0  0
   23.2981    7.2080   -3.4878 H   0  0  0  0  0  0  0  0  0  0  0  0
   21.7419    8.7629   -2.9905 H   0  0  0  0  0  0  0  0  0  0  0  0
   23.6503    6.4528   -5.6959 H   0  0  0  0  0  0  0  0  0  0  0  0
   22.6838    9.0988   -5.9918 H   0  0  0  0  0  0  0  0  0  0  0  0
  1  2  1  0  0  0  0
  1 18  1  0  0  0  0
  2  3  1  0  0  0  0
  2 19  1  0  0  0  0
  2 20  1  0  0  0  0
  3  4  1  0  0  0  0
  3 16  1  0  0  0  0
  3 21  1  6  0  0  0
  4  5  1  0  0  0  0
  5  6  1  0  0  0  0
  5 14  1  0  0  0  0
  5 22  1  1  0  0  0
  6  7  1  0  0  0  0
  6 11  1  0  0  0  0
  7  8  2  0  0  0  0
  7 23  1  0  0  0  0
  8  9  1  0  0  0  0
  8 24  1  0  0  0  0
  9 10  1  0  0  0  0
  9 13  2  0  0  0  0
 10 11  1  0  0  0  0
 10 25  1  0  0  0  0
 11 12  2  0  0  0  0
 13 26  1  0  0  0  0
 14 15  1  0  0  0  0
 14 16  1  0  0  0  0
 14 27  1  1  0  0  0
 15 28  1  0  0  0  0
 16 17  1  0  0  0  0
 16 29  1  6  0  0  0
 17 30  1  0  0  0  0
M  CHG  2   6   1  10   1
M  END
$$$$
