CZV
 OpenBabel04161912213D

 33 36  0  0  1  0  0  0  0  0999 V2000
   32.0579   -6.1361   13.0056 C   0  0  0  0  0  0  0  0  0  0  0  0
   30.8652   -5.7561   12.3741 C   0  0  0  0  0  0  0  0  0  0  0  0
   34.1117   -7.1086   13.2033 N   0  0  0  0  0  0  0  0  0  0  0  0
   30.0564   -3.3707   14.6546 C   0  0  0  0  0  0  0  0  0  0  0  0
   30.4933   -1.6285   16.3262 C   0  0  0  0  0  0  0  0  0  0  0  0
   31.0922   -1.2227   14.0327 C   0  0  0  0  0  0  0  0  0  0  0  0
   30.6131   -2.4924   13.6970 C   0  0  0  0  0  0  0  0  0  0  0  0
   31.4892    0.6083   15.7243 C   0  0  0  0  0  0  0  0  0  0  0  0
   29.3238   -5.7707   15.2223 C   0  0  0  0  0  0  0  0  0  0  0  0
   28.2628   -5.1243   14.8294 C   0  0  0  0  0  0  0  0  0  0  0  0
   31.7211   -7.0808    8.8365 Cl  0  0  0  0  0  0  0  0  0  0  0  0
   31.8959   -6.7541   10.5103 C   0  0  0  0  0  0  0  0  0  0  0  0
   33.0452   -7.2050   11.0633 N   0  0  0  0  0  0  0  0  0  0  0  0
   33.1070   -6.8528   12.3627 C   0  0  0  0  0  0  0  0  0  0  0  0
   33.7275   -6.5241   14.3538 N   0  3  0  0  0  0  0  0  0  0  0  0
   32.5051   -5.9120   14.2842 C   0  0  0  0  0  0  0  0  0  0  0  0
   30.8447   -6.0727   11.0532 N   0  0  0  0  0  0  0  0  0  0  0  0
   29.7211   -5.1530   12.8806 N   0  0  0  0  0  0  0  0  0  0  0  0
   29.5229   -4.7337   14.2467 C   0  0  1  0  0  0  0  0  0  0  0  0
   31.0314   -0.7778   15.3551 C   0  0  0  0  0  0  0  0  0  0  0  0
   32.5180    1.0559   14.9529 F   0  0  0  0  0  0  0  0  0  0  0  0
   30.4952    1.5295   15.5996 F   0  0  0  0  0  0  0  0  0  0  0  0
   31.9237    0.6965   17.0124 F   0  0  0  0  0  0  0  0  0  0  0  0
   30.0289   -2.8994   15.9813 C   0  0  0  0  0  0  0  0  0  0  0  0
   30.4247   -1.3043   17.3634 H   0  0  0  0  0  0  0  0  0  0  0  0
   31.5052   -0.5870   13.2511 H   0  0  0  0  0  0  0  0  0  0  0  0
   30.6772   -2.7954   12.6525 H   0  0  0  0  0  0  0  0  0  0  0  0
   29.7674   -6.5436   15.7989 H   0  0  0  0  0  0  0  0  0  0  0  0
   27.2174   -4.9816   14.8654 H   0  0  0  0  0  0  0  0  0  0  0  0
   34.3573   -6.5760   15.1473 H   0  0  0  0  0  0  0  0  0  0  0  0
   32.1127   -5.3833   15.1399 H   0  0  0  0  0  0  0  0  0  0  0  0
   29.0649   -4.8943   12.1497 H   0  0  0  0  0  0  0  0  0  0  0  0
   29.6190   -3.5276   16.7710 H   0  0  0  0  0  0  0  0  0  0  0  0
  1  2  2  0  0  0  0
  1 14  1  0  0  0  0
  1 16  1  0  0  0  0
  2 17  1  0  0  0  0
  2 18  1  0  0  0  0
  3 14  1  0  0  0  0
  3 15  1  0  0  0  0
  4  7  2  0  0  0  0
  4 24  1  0  0  0  0
  5 20  1  0  0  0  0
  5 24  2  0  0  0  0
  5 25  1  0  0  0  0
  6  7  1  0  0  0  0
  6 20  2  0  0  0  0
  6 26  1  0  0  0  0
  7 27  1  0  0  0  0
  8 20  1  0  0  0  0
  8 21  1  0  0  0  0
  8 22  1  0  0  0  0
  8 23  1  0  0  0  0
  9 10  2  0  0  0  0
  9 19  1  0  0  0  0
  9 28  1  0  0  0  0
 10 19  1  0  0  0  0
 10 29  1  0  0  0  0
 11 12  1  0  0  0  0
 12 13  1  0  0  0  0
 12 17  2  0  0  0  0
 13 14  2  0  0  0  0
 15 16  2  0  0  0  0
 15 30  1  0  0  0  0
 16 31  1  0  0  0  0
 18 19  1  0  0  0  0
 18 32  1  0  0  0  0
 19  4  1  1  0  0  0
 24 33  1  0  0  0  0
M  CHG  1  15   1
M  END
$$$$
