CZY
 OpenBabel04161912223D

 37 39  0  0  1  0  0  0  0  0999 V2000
   31.8013   -6.0506   13.0860 C   0  0  0  0  0  0  0  0  0  0  0  0
   30.6136   -5.6084   12.4871 C   0  0  0  0  0  0  0  0  0  0  0  0
   33.7410   -7.0869   13.1059 N   0  3  0  0  0  0  0  0  0  0  0  0
   29.9714   -3.1710   14.7498 C   0  0  0  0  0  0  0  0  0  0  0  0
   30.4030   -1.3018   16.2585 C   0  0  0  0  0  0  0  0  0  0  0  0
   30.8927   -1.0809   13.9104 C   0  0  0  0  0  0  0  0  0  0  0  0
   30.4427   -2.3792   13.6944 C   0  0  0  0  0  0  0  0  0  0  0  0
   31.4059    0.8640   15.4198 C   0  0  0  0  0  0  0  0  0  0  0  0
   28.0282   -4.7612   14.9305 C   0  0  0  0  0  0  0  0  0  0  0  0
   32.4270   -6.0110   14.3489 C   0  0  0  0  0  0  0  0  0  0  0  0
   31.2238   -6.5986    8.8025 Cl  0  0  0  0  0  0  0  0  0  0  0  0
   31.4300   -6.4741   10.4973 C   0  0  0  0  0  0  0  0  0  0  0  0
   32.5694   -7.0034   10.9744 N   0  0  0  0  0  0  0  0  0  0  0  0
   32.6976   -6.7404   12.2861 C   0  0  0  0  0  0  0  0  0  0  0  0
   34.9188   -7.8308   12.7302 C   0  0  0  0  0  0  0  0  0  0  0  0
   33.5950   -6.6418   14.3696 N   0  0  0  0  0  0  0  0  0  0  0  0
   30.4651   -5.8140   11.1567 N   0  0  0  0  0  0  0  0  0  0  0  0
   29.5684   -4.9835   13.1173 N   0  0  0  0  0  0  0  0  0  0  0  0
   29.4841   -4.5935   14.5147 C   0  0  1  0  0  0  0  0  0  0  0  0
   30.8869   -0.5310   15.1937 C   0  0  0  0  0  0  0  0  0  0  0  0
   32.3684    0.9116   16.3817 F   0  0  0  0  0  0  0  0  0  0  0  0
   30.4303    1.7251   15.8172 F   0  0  0  0  0  0  0  0  0  0  0  0
   31.9648    1.4188   14.3078 F   0  0  0  0  0  0  0  0  0  0  0  0
   29.9646   -2.6134   16.0404 C   0  0  0  0  0  0  0  0  0  0  0  0
   30.3726   -0.8822   17.2637 H   0  0  0  0  0  0  0  0  0  0  0  0
   31.2567   -0.5045   13.0626 H   0  0  0  0  0  0  0  0  0  0  0  0
   30.4744   -2.7651   12.6787 H   0  0  0  0  0  0  0  0  0  0  0  0
   27.7027   -5.7893   14.7401 H   0  0  0  0  0  0  0  0  0  0  0  0
   27.3771   -4.0893   14.3603 H   0  0  0  0  0  0  0  0  0  0  0  0
   27.8848   -4.5572   15.9956 H   0  0  0  0  0  0  0  0  0  0  0  0
   32.0947   -5.5406   15.2643 H   0  0  0  0  0  0  0  0  0  0  0  0
   35.5753   -7.9188   13.5966 H   0  0  0  0  0  0  0  0  0  0  0  0
   35.4336   -7.2966   11.9318 H   0  0  0  0  0  0  0  0  0  0  0  0
   34.6164   -8.8271   12.4002 H   0  0  0  0  0  0  0  0  0  0  0  0
   28.8380   -4.6682   12.4890 H   0  0  0  0  0  0  0  0  0  0  0  0
   30.0645   -5.2708   15.1430 H   0  0  0  0  0  0  0  0  0  0  0  0
   29.6148   -3.1915   16.8949 H   0  0  0  0  0  0  0  0  0  0  0  0
  1  2  1  0  0  0  0
  1 10  2  0  0  0  0
  1 14  1  0  0  0  0
  2 17  2  0  0  0  0
  2 18  1  0  0  0  0
  3 14  2  0  0  0  0
  3 15  1  0  0  0  0
  3 16  1  0  0  0  0
  4  7  2  0  0  0  0
  4 19  1  0  0  0  0
  4 24  1  0  0  0  0
  5 20  1  0  0  0  0
  5 24  2  0  0  0  0
  5 25  1  0  0  0  0
  6  7  1  0  0  0  0
  6 20  2  0  0  0  0
  6 26  1  0  0  0  0
  7 27  1  0  0  0  0
  8 20  1  0  0  0  0
  8 21  1  0  0  0  0
  8 22  1  0  0  0  0
  8 23  1  0  0  0  0
  9 19  1  0  0  0  0
  9 28  1  0  0  0  0
  9 29  1  0  0  0  0
  9 30  1  0  0  0  0
 10 16  1  0  0  0  0
 10 31  1  0  0  0  0
 11 12  1  0  0  0  0
 12 13  2  0  0  0  0
 12 17  1  0  0  0  0
 13 14  1  0  0  0  0
 15 32  1  0  0  0  0
 15 33  1  0  0  0  0
 15 34  1  0  0  0  0
 18 19  1  0  0  0  0
 18 35  1  0  0  0  0
 19 36  1  1  0  0  0
 24 37  1  0  0  0  0
M  CHG  1   3   1
M  END
$$$$
