D07
 OpenBabel04161912223D

 21 22  0  0  0  0  0  0  0  0999 V2000
   31.4992   -6.2992    8.8255 C   0  0  0  0  0  0  0  0  0  0  0  0
   30.5043   -4.6566   11.7435 C   0  0  0  0  0  0  0  0  0  0  0  0
   31.8921   -4.9228   14.7258 N   0  0  0  0  0  0  0  0  0  0  0  0
   32.2350   -5.5264   13.5413 C   0  0  0  0  0  0  0  0  0  0  0  0
   35.0134   -8.0552   12.6010 Cl  0  0  0  0  0  0  0  0  0  0  0  0
   33.6747   -6.9984   12.4661 C   0  0  0  0  0  0  0  0  0  0  0  0
   33.1417   -6.9213   11.2407 N   0  0  0  0  0  0  0  0  0  0  0  0
   32.0985   -6.0784   11.2305 C   0  0  0  0  0  0  0  0  0  0  0  0
   33.2968   -6.3681   13.5942 N   0  0  0  0  0  0  0  0  0  0  0  0
   30.8154   -3.9840   14.8983 C   0  0  0  0  0  0  0  0  0  0  0  0
   31.5949   -5.3636   12.3014 C   0  0  0  0  0  0  0  0  0  0  0  0
   30.3329   -4.8962   10.4354 N   0  0  0  0  0  0  0  0  0  0  0  0
   31.3202   -5.7712   10.1521 N   0  3  0  0  0  0  0  0  0  0  0  0
   30.7412   -5.8862    8.1555 H   0  0  0  0  0  0  0  0  0  0  0  0
   31.4047   -7.3872    8.8726 H   0  0  0  0  0  0  0  0  0  0  0  0
   32.4983   -6.0232    8.4764 H   0  0  0  0  0  0  0  0  0  0  0  0
   29.8230   -3.9746   12.2357 H   0  0  0  0  0  0  0  0  0  0  0  0
   32.4672   -5.1848   15.5175 H   0  0  0  0  0  0  0  0  0  0  0  0
   30.7668   -3.6692   15.9456 H   0  0  0  0  0  0  0  0  0  0  0  0
   29.8536   -4.4358   14.6436 H   0  0  0  0  0  0  0  0  0  0  0  0
   30.9757   -3.0890   14.2908 H   0  0  0  0  0  0  0  0  0  0  0  0
  1 13  1  0  0  0  0
  1 14  1  0  0  0  0
  1 15  1  0  0  0  0
  1 16  1  0  0  0  0
  2 11  2  0  0  0  0
  2 12  1  0  0  0  0
  2 17  1  0  0  0  0
  3  4  1  0  0  0  0
  3 10  1  0  0  0  0
  3 18  1  0  0  0  0
  4  9  2  0  0  0  0
  4 11  1  0  0  0  0
  5  6  1  0  0  0  0
  6  7  2  0  0  0  0
  6  9  1  0  0  0  0
  7  8  1  0  0  0  0
  8 11  1  0  0  0  0
  8 13  2  0  0  0  0
 10 19  1  0  0  0  0
 10 20  1  0  0  0  0
 10 21  1  0  0  0  0
 12 13  1  0  0  0  0
M  CHG  1  13   1
M  END
$$$$
