DB8
 OpenBabel04161910373D

 66 69  0  0  0  0  0  0  0  0999 V2000
  -84.4132  -15.3768    9.4665 C   0  0  0  0  0  0  0  0  0  0  0  0
  -92.5227  -18.9839    9.3373 O   0  0  0  0  0  0  0  0  0  0  0  0
  -82.3685  -12.2809    4.2740 C   0  0  0  0  0  0  0  0  0  0  0  0
  -92.8611  -14.6846    8.5597 N   0  0  0  0  0  0  0  0  0  0  0  0
  -93.8697  -18.3812   11.8233 Cl  0  0  0  0  0  0  0  0  0  0  0  0
  -90.4129  -14.3011   12.2034 Cl  0  0  0  0  0  0  0  0  0  0  0  0
  -91.7701  -14.6037    8.1269 C   0  0  0  0  0  0  0  0  0  0  0  0
  -90.3989  -14.0775    6.2770 C   0  0  0  0  0  0  0  0  0  0  0  0
  -92.0397  -16.4043   11.8497 C   0  0  0  0  0  0  0  0  0  0  0  0
  -90.8664  -17.1860    9.4489 C   0  0  0  0  0  0  0  0  0  0  0  0
  -86.8835  -13.8777    5.6702 C   0  0  0  0  0  0  0  0  0  0  0  0
  -86.8496  -14.7905    8.2889 C   0  0  0  0  0  0  0  0  0  0  0  0
  -82.9827  -13.6255    3.9184 C   0  0  0  0  0  0  0  0  0  0  0  0
  -84.4356  -13.6205    4.3598 C   0  0  0  0  0  0  0  0  0  0  0  0
  -76.8412  -11.0500    4.4935 C   0  0  0  0  0  0  0  0  0  0  0  0
  -80.5776  -10.7828    3.8166 C   0  0  0  0  0  0  0  0  0  0  0  0
  -80.1528  -12.8675    4.9757 C   0  0  0  0  0  0  0  0  0  0  0  0
  -79.0851  -10.5949    3.5553 C   0  0  0  0  0  0  0  0  0  0  0  0
  -78.6512  -12.7112    4.7427 C   0  0  0  0  0  0  0  0  0  0  0  0
  -89.2340  -13.8637    5.6376 N   0  0  0  0  0  0  0  0  0  0  0  0
  -89.3154  -15.3268    9.5740 N   0  0  0  0  0  0  0  0  0  0  0  0
  -84.4120  -14.7699    8.1859 O   0  0  0  0  0  0  0  0  0  0  0  0
  -84.4416  -13.8985    5.7531 O   0  0  0  0  0  0  0  0  0  0  0  0
  -91.9631  -17.8951    9.9471 C   0  0  0  0  0  0  0  0  0  0  0  0
  -92.5382  -17.5043   11.1571 C   0  0  0  0  0  0  0  0  0  0  0  0
  -90.9581  -15.6974   11.3455 C   0  0  0  0  0  0  0  0  0  0  0  0
  -90.4765  -14.5078    7.5713 C   0  0  0  0  0  0  0  0  0  0  0  0
  -90.3396  -16.0902   10.1511 C   0  0  0  0  0  0  0  0  0  0  0  0
  -85.6475  -14.5706    7.6305 C   0  0  0  0  0  0  0  0  0  0  0  0
  -85.6687  -14.1062    6.3197 C   0  0  0  0  0  0  0  0  0  0  0  0
  -89.3013  -14.7537    8.2926 C   0  0  0  0  0  0  0  0  0  0  0  0
  -88.0886  -14.0887    6.3100 C   0  0  0  0  0  0  0  0  0  0  0  0
  -88.0780  -14.5436    7.6483 C   0  0  0  0  0  0  0  0  0  0  0  0
  -80.9467  -12.2070    3.9192 N   0  0  0  0  0  0  0  0  0  0  0  0
  -78.3033  -11.2425    4.6729 N   0  3  0  0  0  0  0  0  0  0  0  0
  -92.0975  -19.1876    8.0059 C   0  0  0  0  0  0  0  0  0  0  0  0
  -83.3790  -15.4875    9.7926 H   0  0  0  0  0  0  0  0  0  0  0  0
  -84.8725  -16.3712    9.4156 H   0  0  0  0  0  0  0  0  0  0  0  0
  -84.9334  -14.7384   10.1895 H   0  0  0  0  0  0  0  0  0  0  0  0
  -82.4940  -12.0775    5.3445 H   0  0  0  0  0  0  0  0  0  0  0  0
  -82.9150  -11.5018    3.7295 H   0  0  0  0  0  0  0  0  0  0  0  0
  -91.3054  -13.8649    5.7128 H   0  0  0  0  0  0  0  0  0  0  0  0
  -92.4902  -16.0910   12.7837 H   0  0  0  0  0  0  0  0  0  0  0  0
  -90.4071  -17.4593    8.5011 H   0  0  0  0  0  0  0  0  0  0  0  0
  -86.9118  -13.5191    4.6505 H   0  0  0  0  0  0  0  0  0  0  0  0
  -86.8505  -15.1583    9.3080 H   0  0  0  0  0  0  0  0  0  0  0  0
  -82.4445  -14.4337    4.4254 H   0  0  0  0  0  0  0  0  0  0  0  0
  -82.9220  -13.7916    2.8357 H   0  0  0  0  0  0  0  0  0  0  0  0
  -84.9892  -14.3909    3.8142 H   0  0  0  0  0  0  0  0  0  0  0  0
  -84.8877  -12.6365    4.1830 H   0  0  0  0  0  0  0  0  0  0  0  0
  -76.6448   -9.9754    4.4617 H   0  0  0  0  0  0  0  0  0  0  0  0
  -76.5500  -11.5324    3.5567 H   0  0  0  0  0  0  0  0  0  0  0  0
  -76.3365  -11.5106    5.3471 H   0  0  0  0  0  0  0  0  0  0  0  0
  -81.1230  -10.3216    2.9848 H   0  0  0  0  0  0  0  0  0  0  0  0
  -80.8509  -10.2624    4.7437 H   0  0  0  0  0  0  0  0  0  0  0  0
  -80.4023  -12.4378    5.9545 H   0  0  0  0  0  0  0  0  0  0  0  0
  -80.3719  -13.9392    5.0025 H   0  0  0  0  0  0  0  0  0  0  0  0
  -78.8241   -9.5329    3.5405 H   0  0  0  0  0  0  0  0  0  0  0  0
  -78.7843  -11.0778    2.6196 H   0  0  0  0  0  0  0  0  0  0  0  0
  -78.3546  -13.1639    3.7907 H   0  0  0  0  0  0  0  0  0  0  0  0
  -78.0816  -13.1441    5.5693 H   0  0  0  0  0  0  0  0  0  0  0  0
  -88.6121  -14.9919   10.2379 H   0  0  0  0  0  0  0  0  0  0  0  0
  -92.5970  -20.0742    7.6087 H   0  0  0  0  0  0  0  0  0  0  0  0
  -91.0204  -19.3724    7.9850 H   0  0  0  0  0  0  0  0  0  0  0  0
  -92.3667  -18.3204    7.3935 H   0  0  0  0  0  0  0  0  0  0  0  0
  -78.5952  -10.8056    5.5558 H   0  0  0  0  0  0  0  0  0  0  0  0
  1 22  1  0  0  0  0
  1 37  1  0  0  0  0
  1 38  1  0  0  0  0
  1 39  1  0  0  0  0
  2 24  1  0  0  0  0
  2 36  1  0  0  0  0
  3 13  1  0  0  0  0
  3 34  1  0  0  0  0
  3 40  1  0  0  0  0
  3 41  1  0  0  0  0
  4  7  3  0  0  0  0
  5 25  1  0  0  0  0
  6 26  1  0  0  0  0
  7 27  1  0  0  0  0
  8 20  2  0  0  0  0
  8 27  1  0  0  0  0
  8 42  1  0  0  0  0
  9 25  2  0  0  0  0
  9 26  1  0  0  0  0
  9 43  1  0  0  0  0
 10 24  2  0  0  0  0
 10 28  1  0  0  0  0
 10 44  1  0  0  0  0
 11 30  2  0  0  0  0
 11 32  1  0  0  0  0
 11 45  1  0  0  0  0
 12 29  2  0  0  0  0
 12 33  1  0  0  0  0
 12 46  1  0  0  0  0
 13 14  1  0  0  0  0
 13 47  1  0  0  0  0
 13 48  1  0  0  0  0
 14 23  1  0  0  0  0
 14 49  1  0  0  0  0
 14 50  1  0  0  0  0
 15 35  1  0  0  0  0
 15 51  1  0  0  0  0
 15 52  1  0  0  0  0
 15 53  1  0  0  0  0
 16 18  1  0  0  0  0
 16 34  1  0  0  0  0
 16 54  1  0  0  0  0
 16 55  1  0  0  0  0
 17 19  1  0  0  0  0
 17 34  1  0  0  0  0
 17 56  1  0  0  0  0
 17 57  1  0  0  0  0
 18 35  1  0  0  0  0
 18 58  1  0  0  0  0
 18 59  1  0  0  0  0
 19 35  1  0  0  0  0
 19 60  1  0  0  0  0
 19 61  1  0  0  0  0
 20 32  1  0  0  0  0
 21 28  1  0  0  0  0
 21 31  1  0  0  0  0
 21 62  1  0  0  0  0
 22 29  1  0  0  0  0
 23 30  1  0  0  0  0
 24 25  1  0  0  0  0
 26 28  2  0  0  0  0
 27 31  2  0  0  0  0
 29 30  1  0  0  0  0
 31 33  1  0  0  0  0
 32 33  2  0  0  0  0
 35 66  1  0  0  0  0
 36 63  1  0  0  0  0
 36 64  1  0  0  0  0
 36 65  1  0  0  0  0
M  CHG  1  35   1
M  END
$$$$
