DB8
 OpenBabel04161912083D

 66 69  0  0  0  0  0  0  0  0999 V2000
   -4.3165    6.5001    7.7346 C   0  0  0  0  0  0  0  0  0  0  0  0
    1.8887    1.3016   10.4749 O   0  0  0  0  0  0  0  0  0  0  0  0
   -9.1974    8.9944    9.8075 C   0  0  0  0  0  0  0  0  0  0  0  0
   -2.0731    1.0053   14.0695 N   0  0  0  0  0  0  0  0  0  0  0  0
    1.2535   -1.5263   10.9986 Cl  0  0  0  0  0  0  0  0  0  0  0  0
   -3.8698    0.0769   11.3130 Cl  0  0  0  0  0  0  0  0  0  0  0  0
   -2.6894    1.8614   13.6626 C   0  0  0  0  0  0  0  0  0  0  0  0
   -4.2924    3.5045   14.1183 C   0  0  0  0  0  0  0  0  0  0  0  0
   -1.2480   -0.5467   11.1243 C   0  0  0  0  0  0  0  0  0  0  0  0
   -0.4187    2.0790   10.6213 C   0  0  0  0  0  0  0  0  0  0  0  0
   -5.9815    6.0801   12.2740 C   0  0  0  0  0  0  0  0  0  0  0  0
   -4.4231    5.0335   10.2194 C   0  0  0  0  0  0  0  0  0  0  0  0
   -8.4553    9.4578   11.0944 C   0  0  0  0  0  0  0  0  0  0  0  0
   -7.6316    8.3284   11.7514 C   0  0  0  0  0  0  0  0  0  0  0  0
  -13.0927   12.7189    7.7847 C   0  0  0  0  0  0  0  0  0  0  0  0
   -9.7457   10.8164    8.2049 C   0  0  0  0  0  0  0  0  0  0  0  0
  -11.5248    9.4233    9.0506 C   0  0  0  0  0  0  0  0  0  0  0  0
  -10.7015   12.0131    7.9884 C   0  0  0  0  0  0  0  0  0  0  0  0
  -12.5621   10.5616    8.9334 C   0  0  0  0  0  0  0  0  0  0  0  0
   -5.1015    4.5294   13.8227 N   0  0  0  0  0  0  0  0  0  0  0  0
   -2.6900    2.8523   10.8027 N   0  0  0  0  0  0  0  0  0  0  0  0
   -5.3825    6.6713    8.6834 O   0  0  0  0  0  0  0  0  0  0  0  0
   -6.8963    7.6861   10.6981 O   0  0  0  0  0  0  0  0  0  0  0  0
    0.5417    1.0775   10.6667 C   0  0  0  0  0  0  0  0  0  0  0  0
    0.1056   -0.2365   10.9285 C   0  0  0  0  0  0  0  0  0  0  0  0
   -2.1888    0.4674   11.0627 C   0  0  0  0  0  0  0  0  0  0  0  0
   -3.4843    2.9253   13.1683 C   0  0  0  0  0  0  0  0  0  0  0  0
   -1.7799    1.7904   10.8317 C   0  0  0  0  0  0  0  0  0  0  0  0
   -5.2682    6.1081    9.9406 C   0  0  0  0  0  0  0  0  0  0  0  0
   -6.0673    6.6315   10.9898 C   0  0  0  0  0  0  0  0  0  0  0  0
   -3.4919    3.3873   11.8377 C   0  0  0  0  0  0  0  0  0  0  0  0
   -5.1323    5.0095   12.5606 C   0  0  0  0  0  0  0  0  0  0  0  0
   -4.3403    4.4704   11.5256 C   0  0  0  0  0  0  0  0  0  0  0  0
  -10.1922    9.9886    9.3425 N   0  0  0  0  0  0  0  0  0  0  0  0
  -12.1511   11.5605    7.8598 N   0  3  0  0  0  0  0  0  0  0  0  0
    2.3069    2.5727    9.9625 C   0  0  0  0  0  0  0  0  0  0  0  0
   -4.5817    7.0171    6.7914 H   0  0  0  0  0  0  0  0  0  0  0  0
   -4.1550    5.4439    7.4987 H   0  0  0  0  0  0  0  0  0  0  0  0
   -3.3870    6.9444    8.1103 H   0  0  0  0  0  0  0  0  0  0  0  0
   -9.6976    8.0439   10.0425 H   0  0  0  0  0  0  0  0  0  0  0  0
   -8.4507    8.8064    9.0264 H   0  0  0  0  0  0  0  0  0  0  0  0
   -4.2925    3.1386   15.1567 H   0  0  0  0  0  0  0  0  0  0  0  0
   -1.5622   -1.5689   11.3301 H   0  0  0  0  0  0  0  0  0  0  0  0
   -0.1197    3.1059   10.4404 H   0  0  0  0  0  0  0  0  0  0  0  0
   -6.5907    6.4947   13.0809 H   0  0  0  0  0  0  0  0  0  0  0  0
   -3.8234    4.6209    9.4183 H   0  0  0  0  0  0  0  0  0  0  0  0
   -9.1809    9.8415   11.8200 H   0  0  0  0  0  0  0  0  0  0  0  0
   -7.7642   10.2733   10.8272 H   0  0  0  0  0  0  0  0  0  0  0  0
   -8.3096    7.6177   12.2524 H   0  0  0  0  0  0  0  0  0  0  0  0
   -6.9435    8.7471   12.5077 H   0  0  0  0  0  0  0  0  0  0  0  0
  -12.7442   13.3938    7.0005 H   0  0  0  0  0  0  0  0  0  0  0  0
  -13.1027   13.2240    8.7499 H   0  0  0  0  0  0  0  0  0  0  0  0
  -14.0858   12.3370    7.5392 H   0  0  0  0  0  0  0  0  0  0  0  0
   -8.7455   11.2269    8.3996 H   0  0  0  0  0  0  0  0  0  0  0  0
   -9.7027   10.2260    7.2767 H   0  0  0  0  0  0  0  0  0  0  0  0
  -11.5189    8.8429    8.1163 H   0  0  0  0  0  0  0  0  0  0  0  0
  -11.8505    8.7621    9.8667 H   0  0  0  0  0  0  0  0  0  0  0  0
  -10.4519   12.5445    7.0619 H   0  0  0  0  0  0  0  0  0  0  0  0
  -10.6485   12.6968    8.8373 H   0  0  0  0  0  0  0  0  0  0  0  0
  -12.6390   11.1070    9.8771 H   0  0  0  0  0  0  0  0  0  0  0  0
  -13.5450   10.1685    8.6475 H   0  0  0  0  0  0  0  0  0  0  0  0
   -2.7932    3.2684    9.8847 H   0  0  0  0  0  0  0  0  0  0  0  0
    3.4072    2.5856    9.8689 H   0  0  0  0  0  0  0  0  0  0  0  0
    2.0167    3.3824   10.6397 H   0  0  0  0  0  0  0  0  0  0  0  0
    1.8785    2.7455    8.9682 H   0  0  0  0  0  0  0  0  0  0  0  0
  -12.2122   11.0578    6.9694 H   0  0  0  0  0  0  0  0  0  0  0  0
  1 22  1  0  0  0  0
  1 37  1  0  0  0  0
  1 38  1  0  0  0  0
  1 39  1  0  0  0  0
  2 24  1  0  0  0  0
  2 36  1  0  0  0  0
  3 13  1  0  0  0  0
  3 34  1  0  0  0  0
  3 40  1  0  0  0  0
  3 41  1  0  0  0  0
  4  7  3  0  0  0  0
  5 25  1  0  0  0  0
  6 26  1  0  0  0  0
  7 27  1  0  0  0  0
  8 20  2  0  0  0  0
  8 27  1  0  0  0  0
  8 42  1  0  0  0  0
  9 25  2  0  0  0  0
  9 26  1  0  0  0  0
  9 43  1  0  0  0  0
 10 24  2  0  0  0  0
 10 28  1  0  0  0  0
 10 44  1  0  0  0  0
 11 30  2  0  0  0  0
 11 32  1  0  0  0  0
 11 45  1  0  0  0  0
 12 29  2  0  0  0  0
 12 33  1  0  0  0  0
 12 46  1  0  0  0  0
 13 14  1  0  0  0  0
 13 47  1  0  0  0  0
 13 48  1  0  0  0  0
 14 23  1  0  0  0  0
 14 49  1  0  0  0  0
 14 50  1  0  0  0  0
 15 35  1  0  0  0  0
 15 51  1  0  0  0  0
 15 52  1  0  0  0  0
 15 53  1  0  0  0  0
 16 18  1  0  0  0  0
 16 34  1  0  0  0  0
 16 54  1  0  0  0  0
 16 55  1  0  0  0  0
 17 19  1  0  0  0  0
 17 34  1  0  0  0  0
 17 56  1  0  0  0  0
 17 57  1  0  0  0  0
 18 35  1  0  0  0  0
 18 58  1  0  0  0  0
 18 59  1  0  0  0  0
 19 35  1  0  0  0  0
 19 60  1  0  0  0  0
 19 61  1  0  0  0  0
 20 32  1  0  0  0  0
 21 28  1  0  0  0  0
 21 31  1  0  0  0  0
 21 62  1  0  0  0  0
 22 29  1  0  0  0  0
 23 30  1  0  0  0  0
 24 25  1  0  0  0  0
 26 28  2  0  0  0  0
 27 31  2  0  0  0  0
 29 30  1  0  0  0  0
 31 33  1  0  0  0  0
 32 33  2  0  0  0  0
 35 66  1  0  0  0  0
 36 63  1  0  0  0  0
 36 64  1  0  0  0  0
 36 65  1  0  0  0  0
M  CHG  1  35   1
M  END
$$$$
