DME
 OpenBabel04161912233D

 56 55  0  0  0  0  0  0  0  0999 V2000
  -17.8738  -45.8462  -24.0829 N   0  3  0  0  0  0  0  0  0  0  0  0
  -19.0544  -45.6396  -23.1278 C   0  0  0  0  0  0  0  0  0  0  0  0
  -19.7086  -44.3073  -23.3746 C   0  0  0  0  0  0  0  0  0  0  0  0
  -20.9680  -44.1591  -22.5511 C   0  0  0  0  0  0  0  0  0  0  0  0
  -21.4864  -42.7811  -22.8595 C   0  0  0  0  0  0  0  0  0  0  0  0
  -22.8071  -42.4791  -22.1750 C   0  0  0  0  0  0  0  0  0  0  0  0
  -23.1400  -41.0232  -22.4503 C   0  0  0  0  0  0  0  0  0  0  0  0
  -22.1622  -40.0983  -21.7044 C   0  0  0  0  0  0  0  0  0  0  0  0
  -22.1922  -38.6767  -22.2130 C   0  0  0  0  0  0  0  0  0  0  0  0
  -21.6891  -38.6682  -23.6442 C   0  0  0  0  0  0  0  0  0  0  0  0
  -21.6722  -37.2917  -24.2568 C   0  0  0  0  0  0  0  0  0  0  0  0
  -20.9653  -37.3307  -25.6205 N   0  3  0  0  0  0  0  0  0  0  0  0
  -18.3776  -46.0618  -25.5046 C   0  0  0  0  0  0  0  0  0  0  0  0
  -16.9024  -44.6711  -24.0618 C   0  0  0  0  0  0  0  0  0  0  0  0
  -17.1282  -47.0987  -23.6190 C   0  0  0  0  0  0  0  0  0  0  0  0
  -21.1926  -35.9800  -26.2942 C   0  0  0  0  0  0  0  0  0  0  0  0
  -21.5153  -38.4295  -26.5335 C   0  0  0  0  0  0  0  0  0  0  0  0
  -19.4676  -37.5250  -25.4277 C   0  0  0  0  0  0  0  0  0  0  0  0
  -18.6759  -45.7018  -22.0987 H   0  0  0  0  0  0  0  0  0  0  0  0
  -19.7635  -46.4571  -23.2987 H   0  0  0  0  0  0  0  0  0  0  0  0
  -19.9576  -44.1579  -24.4313 H   0  0  0  0  0  0  0  0  0  0  0  0
  -19.0231  -43.4937  -23.0934 H   0  0  0  0  0  0  0  0  0  0  0  0
  -20.7527  -44.2490  -21.4825 H   0  0  0  0  0  0  0  0  0  0  0  0
  -21.6987  -44.9215  -22.8252 H   0  0  0  0  0  0  0  0  0  0  0  0
  -21.5967  -42.6374  -23.9446 H   0  0  0  0  0  0  0  0  0  0  0  0
  -20.6966  -42.0810  -22.5523 H   0  0  0  0  0  0  0  0  0  0  0  0
  -22.7482  -42.6595  -21.0961 H   0  0  0  0  0  0  0  0  0  0  0  0
  -23.5869  -43.1283  -22.5837 H   0  0  0  0  0  0  0  0  0  0  0  0
  -24.1651  -40.7908  -22.1503 H   0  0  0  0  0  0  0  0  0  0  0  0
  -23.1133  -40.8977  -23.5322 H   0  0  0  0  0  0  0  0  0  0  0  0
  -21.1159  -40.4265  -21.8053 H   0  0  0  0  0  0  0  0  0  0  0  0
  -22.3626  -40.1452  -20.6334 H   0  0  0  0  0  0  0  0  0  0  0  0
  -21.5407  -38.0575  -21.5855 H   0  0  0  0  0  0  0  0  0  0  0  0
  -23.2124  -38.2666  -22.1557 H   0  0  0  0  0  0  0  0  0  0  0  0
  -22.3090  -39.3040  -24.2576 H   0  0  0  0  0  0  0  0  0  0  0  0
  -20.6763  -39.1202  -23.6385 H   0  0  0  0  0  0  0  0  0  0  0  0
  -21.1389  -36.5703  -23.6281 H   0  0  0  0  0  0  0  0  0  0  0  0
  -22.6978  -36.9460  -24.4146 H   0  0  0  0  0  0  0  0  0  0  0  0
  -17.5212  -46.2717  -26.1472 H   0  0  0  0  0  0  0  0  0  0  0  0
  -18.8688  -45.1492  -25.8527 H   0  0  0  0  0  0  0  0  0  0  0  0
  -19.0832  -46.8982  -25.5044 H   0  0  0  0  0  0  0  0  0  0  0  0
  -16.5552  -44.5230  -23.0357 H   0  0  0  0  0  0  0  0  0  0  0  0
  -17.4170  -43.7769  -24.4280 H   0  0  0  0  0  0  0  0  0  0  0  0
  -16.0719  -44.8965  -24.7347 H   0  0  0  0  0  0  0  0  0  0  0  0
  -17.8297  -47.9380  -23.6220 H   0  0  0  0  0  0  0  0  0  0  0  0
  -16.7518  -46.9194  -22.6071 H   0  0  0  0  0  0  0  0  0  0  0  0
  -16.3001  -47.2801  -24.3087 H   0  0  0  0  0  0  0  0  0  0  0  0
  -20.7271  -36.0099  -27.2823 H   0  0  0  0  0  0  0  0  0  0  0  0
  -20.7312  -35.2098  -25.6705 H   0  0  0  0  0  0  0  0  0  0  0  0
  -22.2703  -35.8108  -26.3797 H   0  0  0  0  0  0  0  0  0  0  0  0
  -21.3266  -39.4059  -26.0785 H   0  0  0  0  0  0  0  0  0  0  0  0
  -20.9823  -38.3890  -27.4825 H   0  0  0  0  0  0  0  0  0  0  0  0
  -22.5882  -38.2648  -26.6737 H   0  0  0  0  0  0  0  0  0  0  0  0
  -19.1005  -36.7275  -24.7763 H   0  0  0  0  0  0  0  0  0  0  0  0
  -18.9859  -37.4917  -26.4054 H   0  0  0  0  0  0  0  0  0  0  0  0
  -19.2859  -38.5006  -24.9690 H   0  0  0  0  0  0  0  0  0  0  0  0
  1  2  1  0  0  0  0
  1 13  1  0  0  0  0
  1 14  1  0  0  0  0
  1 15  1  0  0  0  0
  2  3  1  0  0  0  0
  2 19  1  0  0  0  0
  2 20  1  0  0  0  0
  3  4  1  0  0  0  0
  3 21  1  0  0  0  0
  3 22  1  0  0  0  0
  4  5  1  0  0  0  0
  4 23  1  0  0  0  0
  4 24  1  0  0  0  0
  5  6  1  0  0  0  0
  5 25  1  0  0  0  0
  5 26  1  0  0  0  0
  6  7  1  0  0  0  0
  6 27  1  0  0  0  0
  6 28  1  0  0  0  0
  7  8  1  0  0  0  0
  7 29  1  0  0  0  0
  7 30  1  0  0  0  0
  8  9  1  0  0  0  0
  8 31  1  0  0  0  0
  8 32  1  0  0  0  0
  9 10  1  0  0  0  0
  9 33  1  0  0  0  0
  9 34  1  0  0  0  0
 10 11  1  0  0  0  0
 10 35  1  0  0  0  0
 10 36  1  0  0  0  0
 11 12  1  0  0  0  0
 11 37  1  0  0  0  0
 11 38  1  0  0  0  0
 12 16  1  0  0  0  0
 12 17  1  0  0  0  0
 12 18  1  0  0  0  0
 13 39  1  0  0  0  0
 13 40  1  0  0  0  0
 13 41  1  0  0  0  0
 14 42  1  0  0  0  0
 14 43  1  0  0  0  0
 14 44  1  0  0  0  0
 15 45  1  0  0  0  0
 15 46  1  0  0  0  0
 15 47  1  0  0  0  0
 16 48  1  0  0  0  0
 16 49  1  0  0  0  0
 16 50  1  0  0  0  0
 17 51  1  0  0  0  0
 17 52  1  0  0  0  0
 17 53  1  0  0  0  0
 18 54  1  0  0  0  0
 18 55  1  0  0  0  0
 18 56  1  0  0  0  0
M  CHG  2   1   1  12   1
M  END
$$$$
