DPN
 OpenBabel04161909573D

 23 23  0  0  1  0  0  0  0  0999 V2000
   92.8805  -39.2663   13.8131 N   0  3  0  0  0  0  0  0  0  0  0  0
   94.0309  -39.6514   14.7174 C   0  0  1  0  0  0  0  0  0  0  0  0
   93.7044  -40.9234   15.5360 C   0  0  0  0  0  0  0  0  0  0  0  0
   92.8666  -41.6580   14.9358 O   0  0  0  0  0  0  0  0  0  0  0  0
   94.2034  -40.9471   16.6783 O   0  0  0  0  0  0  0  0  0  0  0  0
   95.2676  -39.9116   13.8638 C   0  0  0  0  0  0  0  0  0  0  0  0
   96.4999  -39.2693   14.4575 C   0  0  0  0  0  0  0  0  0  0  0  0
   96.4944  -37.9317   14.8764 C   0  0  0  0  0  0  0  0  0  0  0  0
   97.6742  -40.0147   14.5895 C   0  0  0  0  0  0  0  0  0  0  0  0
   97.6283  -37.3623   15.4498 C   0  0  0  0  0  0  0  0  0  0  0  0
   98.8114  -39.4436   15.1578 C   0  0  0  0  0  0  0  0  0  0  0  0
   98.7885  -38.1191   15.5887 C   0  0  0  0  0  0  0  0  0  0  0  0
   93.0779  -38.4410   13.2353 H   0  0  0  0  0  0  0  0  0  0  0  0
   92.6603  -40.0932   13.2361 H   0  0  0  0  0  0  0  0  0  0  0  0
   94.1762  -38.7973   15.3841 H   0  0  0  0  0  0  0  0  0  0  0  0
   95.1411  -39.5036   12.8491 H   0  0  0  0  0  0  0  0  0  0  0  0
   95.4367  -40.9904   13.7679 H   0  0  0  0  0  0  0  0  0  0  0  0
   95.6022  -37.3210   14.7748 H   0  0  0  0  0  0  0  0  0  0  0  0
   97.6996  -41.0485   14.2541 H   0  0  0  0  0  0  0  0  0  0  0  0
   97.6040  -36.3332   15.7896 H   0  0  0  0  0  0  0  0  0  0  0  0
   99.7167  -40.0347   15.2684 H   0  0  0  0  0  0  0  0  0  0  0  0
   99.6755  -37.6734   16.0296 H   0  0  0  0  0  0  0  0  0  0  0  0
   92.0559  -39.1181   14.4056 H   0  0  0  0  0  0  0  0  0  0  0  0
  1  2  1  0  0  0  0
  1 13  1  0  0  0  0
  1 14  1  0  0  0  0
  1 23  1  0  0  0  0
  2  3  1  0  0  0  0
  2  6  1  0  0  0  0
  2 15  1  1  0  0  0
  3  4  2  0  0  0  0
  3  5  1  0  0  0  0
  6  7  1  0  0  0  0
  6 16  1  0  0  0  0
  6 17  1  0  0  0  0
  7  8  2  0  0  0  0
  7  9  1  0  0  0  0
  8 10  1  0  0  0  0
  8 18  1  0  0  0  0
  9 11  2  0  0  0  0
  9 19  1  0  0  0  0
 10 12  2  0  0  0  0
 10 20  1  0  0  0  0
 11 12  1  0  0  0  0
 11 21  1  0  0  0  0
 12 22  1  0  0  0  0
M  CHG  1   1   1
M  END
$$$$
