DQR
 OpenBabel04161910253D

 66 68  0  0  1  0  0  0  0  0999 V2000
  -17.4250  -65.5568  -48.4926 C   0  0  1  0  0  0  0  0  0  0  0  0
  -18.0904  -66.6839  -51.4381 C   0  0  0  0  0  0  0  0  0  0  0  0
  -16.8340  -67.7920  -53.8872 C   0  0  0  0  0  0  0  0  0  0  0  0
  -16.0311  -66.0053  -48.0533 C   0  0  1  0  0  0  0  0  0  0  0  0
  -18.9405  -66.4312  -50.1649 C   0  0  1  0  0  0  0  0  0  0  0  0
  -17.8425  -68.5371  -52.9822 C   0  0  1  0  0  0  0  0  0  0  0  0
  -16.1827  -67.0738  -46.9611 C   0  0  2  0  0  0  0  0  0  0  0  0
  -20.1415  -67.3904  -49.9827 C   0  0  2  0  0  0  0  0  0  0  0  0
  -17.5328  -70.0518  -52.9635 C   0  0  2  0  0  0  0  0  0  0  0  0
  -17.0339  -66.5162  -45.8196 C   0  0  1  0  0  0  0  0  0  0  0  0
  -21.0908  -66.5375  -49.1591 C   0  0  1  0  0  0  0  0  0  0  0  0
  -18.9203  -70.6349  -52.7337 C   0  0  1  0  0  0  0  0  0  0  0  0
  -18.3757  -66.0140  -46.3610 C   0  0  1  0  0  0  0  0  0  0  0  0
  -20.8616  -65.1570  -49.7405 C   0  0  1  0  0  0  0  0  0  0  0  0
  -19.7479  -69.7152  -53.6286 C   0  0  1  0  0  0  0  0  0  0  0  0
  -19.2270  -65.4124  -45.2372 C   0  0  0  0  0  0  0  0  0  0  0  0
  -21.2084  -64.0887  -48.6990 C   0  0  0  0  0  0  0  0  0  0  0  0
  -21.2269  -69.6684  -53.2742 C   0  0  0  0  0  0  0  0  0  0  0  0
  -18.1088  -66.6815  -49.0208 O   0  0  0  0  0  0  0  0  0  0  0  0
  -17.8559  -68.0804  -51.6221 O   0  0  0  0  0  0  0  0  0  0  0  0
  -15.4842  -67.9712  -53.4676 O   0  0  0  0  0  0  0  0  0  0  0  0
  -15.2948  -66.5153  -49.1737 O   0  0  0  0  0  0  0  0  0  0  0  0
  -19.4804  -65.0957  -50.1503 O   0  0  0  0  0  0  0  0  0  0  0  0
  -19.1620  -68.4025  -53.5352 O   0  0  0  0  0  0  0  0  0  0  0  0
  -14.9056  -67.4681  -46.4413 O   0  0  0  0  0  0  0  0  0  0  0  0
  -19.8081  -68.5838  -49.2440 O   0  0  0  0  0  0  0  0  0  0  0  0
  -16.5835  -70.4745  -51.9850 O   0  0  0  0  0  0  0  0  0  0  0  0
  -17.2520  -67.5671  -44.8749 O   0  0  0  0  0  0  0  0  0  0  0  0
  -22.4509  -66.9466  -49.2028 O   0  0  0  0  0  0  0  0  0  0  0  0
  -18.9886  -71.9946  -53.1499 O   0  0  0  0  0  0  0  0  0  0  0  0
  -18.1964  -65.0325  -47.4083 O   0  0  0  0  0  0  0  0  0  0  0  0
  -20.4576  -62.9024  -48.9100 O   0  0  0  0  0  0  0  0  0  0  0  0
  -21.8695  -68.7160  -54.1185 O   0  0  0  0  0  0  0  0  0  0  0  0
  -18.7745  -64.1025  -44.9084 O   0  0  0  0  0  0  0  0  0  0  0  0
  -17.3059  -64.7637  -49.2629 H   0  0  0  0  0  0  0  0  0  0  0  0
  -17.1016  -66.2258  -51.3090 H   0  0  0  0  0  0  0  0  0  0  0  0
  -18.5518  -66.2122  -52.3110 H   0  0  0  0  0  0  0  0  0  0  0  0
  -17.0399  -66.7157  -53.8995 H   0  0  0  0  0  0  0  0  0  0  0  0
  -16.9333  -68.1241  -54.9287 H   0  0  0  0  0  0  0  0  0  0  0  0
  -15.4694  -65.1533  -47.6561 H   0  0  0  0  0  0  0  0  0  0  0  0
  -16.6371  -67.9847  -47.3723 H   0  0  0  0  0  0  0  0  0  0  0  0
  -20.6090  -67.6838  -50.9244 H   0  0  0  0  0  0  0  0  0  0  0  0
  -17.1593  -70.3936  -53.9373 H   0  0  0  0  0  0  0  0  0  0  0  0
  -16.4983  -65.7007  -45.3193 H   0  0  0  0  0  0  0  0  0  0  0  0
  -20.7956  -66.5793  -48.1032 H   0  0  0  0  0  0  0  0  0  0  0  0
  -19.2046  -70.5644  -51.6768 H   0  0  0  0  0  0  0  0  0  0  0  0
  -18.9441  -66.8682  -46.7496 H   0  0  0  0  0  0  0  0  0  0  0  0
  -21.4635  -64.9885  -50.6421 H   0  0  0  0  0  0  0  0  0  0  0  0
  -19.6603  -70.0353  -54.6821 H   0  0  0  0  0  0  0  0  0  0  0  0
  -19.1922  -66.0322  -44.3360 H   0  0  0  0  0  0  0  0  0  0  0  0
  -20.2744  -65.3358  -45.5466 H   0  0  0  0  0  0  0  0  0  0  0  0
  -21.0005  -64.4291  -47.6810 H   0  0  0  0  0  0  0  0  0  0  0  0
  -22.2772  -63.8554  -48.7465 H   0  0  0  0  0  0  0  0  0  0  0  0
  -21.3745  -69.3587  -52.2320 H   0  0  0  0  0  0  0  0  0  0  0  0
  -21.7113  -70.6386  -53.4297 H   0  0  0  0  0  0  0  0  0  0  0  0
  -15.1943  -68.8533  -53.7595 H   0  0  0  0  0  0  0  0  0  0  0  0
  -15.7282  -67.3404  -49.4579 H   0  0  0  0  0  0  0  0  0  0  0  0
  -15.0464  -68.2863  -45.9357 H   0  0  0  0  0  0  0  0  0  0  0  0
  -19.1673  -68.2795  -48.5679 H   0  0  0  0  0  0  0  0  0  0  0  0
  -15.8575  -69.8235  -51.9706 H   0  0  0  0  0  0  0  0  0  0  0  0
  -16.4115  -67.6874  -44.3965 H   0  0  0  0  0  0  0  0  0  0  0  0
  -22.7630  -66.9011  -50.1237 H   0  0  0  0  0  0  0  0  0  0  0  0
  -19.9019  -72.3050  -53.0294 H   0  0  0  0  0  0  0  0  0  0  0  0
  -19.5255  -63.1930  -48.9385 H   0  0  0  0  0  0  0  0  0  0  0  0
  -22.7919  -68.6309  -53.8096 H   0  0  0  0  0  0  0  0  0  0  0  0
  -18.8124  -63.5941  -45.7412 H   0  0  0  0  0  0  0  0  0  0  0  0
  1  4  1  0  0  0  0
  1 19  1  0  0  0  0
  1 31  1  0  0  0  0
  1 35  1  6  0  0  0
  2 20  1  0  0  0  0
  2 36  1  0  0  0  0
  2 37  1  0  0  0  0
  3 21  1  0  0  0  0
  3 38  1  0  0  0  0
  3 39  1  0  0  0  0
  4  7  1  0  0  0  0
  4 22  1  0  0  0  0
  4 40  1  1  0  0  0
  5  2  1  6  0  0  0
  5  8  1  0  0  0  0
  5 19  1  0  0  0  0
  5 23  1  0  0  0  0
  6  3  1  6  0  0  0
  6  9  1  0  0  0  0
  6 20  1  0  0  0  0
  6 24  1  0  0  0  0
  7 10  1  0  0  0  0
  7 25  1  0  0  0  0
  7 41  1  6  0  0  0
  8 11  1  0  0  0  0
  8 26  1  0  0  0  0
  8 42  1  6  0  0  0
  9 12  1  0  0  0  0
  9 27  1  0  0  0  0
  9 43  1  6  0  0  0
 10 13  1  0  0  0  0
 10 28  1  0  0  0  0
 10 44  1  1  0  0  0
 11 14  1  0  0  0  0
 11 29  1  0  0  0  0
 11 45  1  1  0  0  0
 12 15  1  0  0  0  0
 12 30  1  0  0  0  0
 12 46  1  1  0  0  0
 13 16  1  0  0  0  0
 13 31  1  0  0  0  0
 13 47  1  6  0  0  0
 14 17  1  0  0  0  0
 14 23  1  0  0  0  0
 14 48  1  6  0  0  0
 15 18  1  0  0  0  0
 15 24  1  0  0  0  0
 15 49  1  6  0  0  0
 16 34  1  0  0  0  0
 16 50  1  0  0  0  0
 16 51  1  0  0  0  0
 17 32  1  0  0  0  0
 17 52  1  0  0  0  0
 17 53  1  0  0  0  0
 18 33  1  0  0  0  0
 18 54  1  0  0  0  0
 18 55  1  0  0  0  0
 21 56  1  0  0  0  0
 22 57  1  0  0  0  0
 25 58  1  0  0  0  0
 26 59  1  0  0  0  0
 27 60  1  0  0  0  0
 28 61  1  0  0  0  0
 29 62  1  0  0  0  0
 30 63  1  0  0  0  0
 32 64  1  0  0  0  0
 33 65  1  0  0  0  0
 34 66  1  0  0  0  0
M  END
$$$$
