DR2
 OpenBabel04161912013D

 71 73  0  0  1  0  0  0  0  0999 V2000
   32.5192   13.4453  -24.2349 O   0  0  0  0  0  0  0  0  0  0  0  0
   32.8132   12.0799  -24.5812 C   0  0  2  0  0  0  0  0  0  0  0  0
   33.2893   11.3198  -23.3311 C   0  0  1  0  0  0  0  0  0  0  0  0
   32.2676   11.3155  -22.2780 N   0  0  0  0  0  0  0  0  0  0  0  0
   32.5785   11.6481  -20.9870 C   0  0  0  0  0  0  0  0  0  0  0  0
   31.4405   11.5607  -20.0129 C   0  0  0  0  0  0  0  0  0  0  0  0
   33.7030   11.9892  -20.6318 O   0  0  0  0  0  0  0  0  0  0  0  0
   33.7410    9.9008  -23.7338 C   0  0  2  0  0  0  0  0  0  0  0  0
   34.2724    9.1867  -22.6304 O   0  0  0  0  0  0  0  0  0  0  0  0
   34.7657    9.9800  -24.7101 O   0  0  0  0  0  0  0  0  0  0  0  0
   34.3140   10.5735  -25.9332 C   0  0  2  0  0  0  0  0  0  0  0  0
   35.4813   10.4892  -26.9236 C   0  0  0  0  0  0  0  0  0  0  0  0
   35.6953    9.1281  -27.2891 O   0  0  0  0  0  0  0  0  0  0  0  0
   33.8697   12.0271  -25.7007 C   0  0  1  0  0  0  0  0  0  0  0  0
   33.2737   12.5275  -26.9004 O   0  0  0  0  0  0  0  0  0  0  0  0
   34.0662   13.5217  -27.5497 C   0  0  2  0  0  0  0  0  0  0  0  0
   33.9928   14.7419  -26.8301 O   0  0  0  0  0  0  0  0  0  0  0  0
   34.7232   15.8152  -27.4614 C   0  0  2  0  0  0  0  0  0  0  0  0
   34.5037   17.0662  -26.6210 C   0  0  0  0  0  0  0  0  0  0  0  0
   35.0960   16.8869  -25.3299 O   0  0  0  0  0  0  0  0  0  0  0  0
   34.2621   16.0550  -28.8949 C   0  0  2  0  0  0  0  0  0  0  0  0
   32.9127   16.5205  -28.8851 O   0  0  0  0  0  0  0  0  0  0  0  0
   34.3560   14.7525  -29.6911 C   0  0  2  0  0  0  0  0  0  0  0  0
   33.8850   14.9680  -31.0214 O   0  0  0  0  0  0  0  0  0  0  0  0
   33.5541   13.6508  -28.9948 C   0  0  1  0  0  0  0  0  0  0  0  0
   33.8122   12.4257  -29.6951 O   0  0  0  0  0  0  0  0  0  0  0  0
   32.6806   11.9440  -30.4243 C   0  0  2  0  0  0  0  0  0  0  0  0
   32.0457   10.8689  -29.7280 O   0  0  0  0  0  0  0  0  0  0  0  0
   32.9057    9.7318  -29.5342 C   0  0  1  0  0  0  0  0  0  0  0  0
   32.1276    8.6725  -28.7671 C   0  0  0  0  0  0  0  0  0  0  0  0
   33.3934    9.1865  -30.8814 C   0  0  1  0  0  0  0  0  0  0  0  0
   32.2794    8.6883  -31.6393 O   0  0  0  0  0  0  0  0  0  0  0  0
   34.1025   10.3031  -31.6611 C   0  0  1  0  0  0  0  0  0  0  0  0
   34.5081    9.8231  -32.9482 O   0  0  0  0  0  0  0  0  0  0  0  0
   33.1633   11.5001  -31.8188 C   0  0  2  0  0  0  0  0  0  0  0  0
   33.8518   12.5838  -32.4801 O   0  0  0  0  0  0  0  0  0  0  0  0
   33.3286   13.8510  -23.8768 H   0  0  0  0  0  0  0  0  0  0  0  0
   31.8710   11.6557  -24.9446 H   0  0  0  0  0  0  0  0  0  0  0  0
   34.1668   11.8517  -22.9402 H   0  0  0  0  0  0  0  0  0  0  0  0
   31.3339   10.9877  -22.5020 H   0  0  0  0  0  0  0  0  0  0  0  0
   31.7917   11.8828  -19.0237 H   0  0  0  0  0  0  0  0  0  0  0  0
   31.0817   10.5348  -19.9363 H   0  0  0  0  0  0  0  0  0  0  0  0
   30.6227   12.2255  -20.3156 H   0  0  0  0  0  0  0  0  0  0  0  0
   32.8989    9.3143  -24.1213 H   0  0  0  0  0  0  0  0  0  0  0  0
   34.9663    9.7563  -22.2559 H   0  0  0  0  0  0  0  0  0  0  0  0
   33.4819    9.9768  -26.3299 H   0  0  0  0  0  0  0  0  0  0  0  0
   36.3996   10.8824  -26.4727 H   0  0  0  0  0  0  0  0  0  0  0  0
   35.2842   11.0356  -27.8448 H   0  0  0  0  0  0  0  0  0  0  0  0
   36.5323    9.0858  -27.7814 H   0  0  0  0  0  0  0  0  0  0  0  0
   34.7267   12.6438  -25.3992 H   0  0  0  0  0  0  0  0  0  0  0  0
   35.1090   13.1840  -27.5752 H   0  0  0  0  0  0  0  0  0  0  0  0
   35.7887   15.5334  -27.4371 H   0  0  0  0  0  0  0  0  0  0  0  0
   33.4324   17.2661  -26.4677 H   0  0  0  0  0  0  0  0  0  0  0  0
   34.9623   17.9383  -27.0912 H   0  0  0  0  0  0  0  0  0  0  0  0
   34.6113   16.1364  -24.9410 H   0  0  0  0  0  0  0  0  0  0  0  0
   34.8635   16.8369  -29.3753 H   0  0  0  0  0  0  0  0  0  0  0  0
   32.6361   16.5469  -29.8318 H   0  0  0  0  0  0  0  0  0  0  0  0
   35.4123   14.4494  -29.7696 H   0  0  0  0  0  0  0  0  0  0  0  0
   33.9919   14.1139  -31.5023 H   0  0  0  0  0  0  0  0  0  0  0  0
   32.4819   13.8883  -28.9879 H   0  0  0  0  0  0  0  0  0  0  0  0
   31.9393   12.7370  -30.5720 H   0  0  0  0  0  0  0  0  0  0  0  0
   33.7599   10.0361  -28.9304 H   0  0  0  0  0  0  0  0  0  0  0  0
   32.7437    7.7822  -28.6040 H   0  0  0  0  0  0  0  0  0  0  0  0
   31.2238    8.3815  -29.3106 H   0  0  0  0  0  0  0  0  0  0  0  0
   31.7998    9.0563  -27.7968 H   0  0  0  0  0  0  0  0  0  0  0  0
   34.0788    8.3440  -30.7353 H   0  0  0  0  0  0  0  0  0  0  0  0
   31.5654    9.3472  -31.5912 H   0  0  0  0  0  0  0  0  0  0  0  0
   35.0154   10.6035  -31.1314 H   0  0  0  0  0  0  0  0  0  0  0  0
   35.0600   10.5027  -33.3636 H   0  0  0  0  0  0  0  0  0  0  0  0
   32.3035   11.2327  -32.4414 H   0  0  0  0  0  0  0  0  0  0  0  0
   34.0228   12.2757  -33.3890 H   0  0  0  0  0  0  0  0  0  0  0  0
  1  2  1  0  0  0  0
  1 37  1  0  0  0  0
  2  3  1  0  0  0  0
  2 14  1  0  0  0  0
  2 38  1  6  0  0  0
  3  4  1  0  0  0  0
  3  8  1  0  0  0  0
  3 39  1  1  0  0  0
  4  5  1  0  0  0  0
  4 40  1  0  0  0  0
  5  6  1  0  0  0  0
  5  7  2  0  0  0  0
  6 41  1  0  0  0  0
  6 42  1  0  0  0  0
  6 43  1  0  0  0  0
  8  9  1  0  0  0  0
  8 10  1  0  0  0  0
  8 44  1  6  0  0  0
  9 45  1  0  0  0  0
 10 11  1  0  0  0  0
 11 12  1  0  0  0  0
 11 14  1  0  0  0  0
 11 46  1  6  0  0  0
 12 13  1  0  0  0  0
 12 47  1  0  0  0  0
 12 48  1  0  0  0  0
 13 49  1  0  0  0  0
 14 15  1  0  0  0  0
 14 50  1  1  0  0  0
 15 16  1  0  0  0  0
 16 17  1  0  0  0  0
 16 25  1  0  0  0  0
 16 51  1  6  0  0  0
 17 18  1  0  0  0  0
 18 19  1  0  0  0  0
 18 21  1  0  0  0  0
 18 52  1  6  0  0  0
 19 20  1  0  0  0  0
 19 53  1  0  0  0  0
 19 54  1  0  0  0  0
 20 55  1  0  0  0  0
 21 22  1  0  0  0  0
 21 23  1  0  0  0  0
 21 56  1  6  0  0  0
 22 57  1  0  0  0  0
 23 24  1  0  0  0  0
 23 25  1  0  0  0  0
 23 58  1  6  0  0  0
 24 59  1  0  0  0  0
 25 26  1  0  0  0  0
 25 60  1  6  0  0  0
 26 27  1  0  0  0  0
 27 28  1  0  0  0  0
 27 35  1  0  0  0  0
 27 61  1  6  0  0  0
 28 29  1  0  0  0  0
 29 30  1  0  0  0  0
 29 31  1  0  0  0  0
 29 62  1  1  0  0  0
 30 63  1  0  0  0  0
 30 64  1  0  0  0  0
 30 65  1  0  0  0  0
 31 32  1  0  0  0  0
 31 33  1  0  0  0  0
 31 66  1  1  0  0  0
 32 67  1  0  0  0  0
 33 34  1  0  0  0  0
 33 35  1  0  0  0  0
 33 68  1  1  0  0  0
 34 69  1  0  0  0  0
 35 36  1  0  0  0  0
 35 70  1  6  0  0  0
 36 71  1  0  0  0  0
M  END
$$$$
