DTP
 OpenBabel04161910103D

 42 44  0  0  1  0  0  0  0  0999 V2000
   18.0266  -17.2671   -3.5324 P   0  0  0  0  0  0  0  0  0  0  0  0
   17.7522  -17.7594   -4.9603 O   0  0  0  0  0  0  0  0  0  0  0  0
   19.1799  -16.2813   -3.4361 O   0  0  0  0  0  0  0  0  0  0  0  0
   18.2083  -18.4653   -2.5821 O   0  0  0  0  0  0  0  0  0  0  0  0
   16.0806  -15.0663   -2.8545 P   0  0  1  0  0  0  0  0  0  0  0  0
   16.1890  -14.2511   -4.1351 O   0  0  0  0  0  0  0  0  0  0  0  0
   14.6618  -15.2179   -2.2821 O   0  0  0  0  0  0  0  0  0  0  0  0
   16.6663  -16.5569   -3.0211 O   0  0  0  0  0  0  0  0  0  0  0  0
   16.9147  -13.2629   -0.6601 P   0  0  2  0  0  0  0  0  0  0  0  0
   16.4722  -11.9425   -1.2552 O   0  0  0  0  0  0  0  0  0  0  0  0
   18.1420  -13.2207    0.2462 O   0  0  0  0  0  0  0  0  0  0  0  0
   17.0117  -14.4795   -1.6845 O   0  0  0  0  0  0  0  0  0  0  0  0
   15.6901  -13.7110    0.3302 O   0  0  0  0  0  0  0  0  0  0  0  0
   15.7668  -14.9756    0.9566 C   0  0  0  0  0  0  0  0  0  0  0  0
   14.6172  -15.1205    1.9684 C   0  0  1  0  0  0  0  0  0  0  0  0
   14.7307  -14.1630    3.0665 O   0  0  0  0  0  0  0  0  0  0  0  0
   13.2220  -14.9024    1.3701 C   0  0  1  0  0  0  0  0  0  0  0  0
   12.2329  -15.6821    2.0920 O   0  0  0  0  0  0  0  0  0  0  0  0
   12.9171  -13.4481    1.6573 C   0  0  0  0  0  0  0  0  0  0  0  0
   13.6301  -13.2397    2.9847 C   0  0  2  0  0  0  0  0  0  0  0  0
   14.0791  -11.8987    3.2771 N   0  3  0  0  0  0  0  0  0  0  0  0
   15.0599  -11.1986    2.6207 C   0  0  0  0  0  0  0  0  0  0  0  0
   15.2733  -10.0131    3.1623 N   0  0  0  0  0  0  0  0  0  0  0  0
   14.4069   -9.9510    4.2257 C   0  0  0  0  0  0  0  0  0  0  0  0
   14.1988   -8.9745    5.1908 C   0  0  0  0  0  0  0  0  0  0  0  0
   14.9390   -7.7966    5.2202 N   0  0  0  0  0  0  0  0  0  0  0  0
   13.2608   -9.1598    6.1421 N   0  0  0  0  0  0  0  0  0  0  0  0
   12.5764  -10.3235    6.1039 C   0  0  0  0  0  0  0  0  0  0  0  0
   12.6805  -11.3582    5.2291 N   0  0  0  0  0  0  0  0  0  0  0  0
   13.6324  -11.1020    4.3098 C   0  0  0  0  0  0  0  0  0  0  0  0
   16.7271  -15.0908    1.4713 H   0  0  0  0  0  0  0  0  0  0  0  0
   15.6772  -15.7627    0.2015 H   0  0  0  0  0  0  0  0  0  0  0  0
   14.6883  -16.1101    2.4337 H   0  0  0  0  0  0  0  0  0  0  0  0
   13.1441  -15.1707    0.3141 H   0  0  0  0  0  0  0  0  0  0  0  0
   12.4504  -15.6182    3.0352 H   0  0  0  0  0  0  0  0  0  0  0  0
   11.8438  -13.2474    1.7528 H   0  0  0  0  0  0  0  0  0  0  0  0
   13.3152  -12.7956    0.8749 H   0  0  0  0  0  0  0  0  0  0  0  0
   12.9470  -13.5281    3.7980 H   0  0  0  0  0  0  0  0  0  0  0  0
   15.5878  -11.6105    1.7609 H   0  0  0  0  0  0  0  0  0  0  0  0
   14.7246   -7.0902    5.9037 H   0  0  0  0  0  0  0  0  0  0  0  0
   15.6069   -7.6611    4.4698 H   0  0  0  0  0  0  0  0  0  0  0  0
   11.8357  -10.4492    6.8873 H   0  0  0  0  0  0  0  0  0  0  0  0
  1  2  2  0  0  0  0
  1  3  1  0  0  0  0
  1  4  1  0  0  0  0
  1  8  1  0  0  0  0
  5  6  2  6  0  0  0
  5  7  1  0  0  0  0
  5  8  1  0  0  0  0
  5 12  1  0  0  0  0
  9 10  2  6  0  0  0
  9 11  1  0  0  0  0
  9 12  1  0  0  0  0
  9 13  1  0  0  0  0
 13 14  1  0  0  0  0
 14 15  1  0  0  0  0
 14 31  1  0  0  0  0
 14 32  1  0  0  0  0
 15 16  1  0  0  0  0
 15 17  1  0  0  0  0
 15 33  1  1  0  0  0
 16 20  1  0  0  0  0
 17 18  1  0  0  0  0
 17 19  1  0  0  0  0
 17 34  1  6  0  0  0
 18 35  1  0  0  0  0
 19 20  1  0  0  0  0
 19 36  1  0  0  0  0
 19 37  1  0  0  0  0
 20 21  1  0  0  0  0
 20 38  1  1  0  0  0
 21 22  2  0  0  0  0
 21 30  1  0  0  0  0
 22 23  1  0  0  0  0
 22 39  1  0  0  0  0
 23 24  1  0  0  0  0
 24 25  2  0  0  0  0
 24 30  1  0  0  0  0
 25 26  1  0  0  0  0
 25 27  1  0  0  0  0
 26 40  1  0  0  0  0
 26 41  1  0  0  0  0
 27 28  2  0  0  0  0
 28 29  1  0  0  0  0
 28 42  1  0  0  0  0
 29 30  2  0  0  0  0
M  CHG  1  21   1
M  END
$$$$
