DUP
 OpenBabel04161909593D

 40 41  0  0  1  0  0  0  0  0999 V2000
  -16.7266   14.9763    0.0005 O   0  0  0  0  0  0  0  0  0  0  0  0
  -15.8856   14.1877    0.4262 C   0  0  0  0  0  0  0  0  0  0  0  0
  -16.2400   12.8573    0.9258 C   0  0  0  0  0  0  0  0  0  0  0  0
  -15.2701   12.0922    1.4273 C   0  0  0  0  0  0  0  0  0  0  0  0
  -14.5614   14.5115    0.4876 N   0  3  0  0  0  0  0  0  0  0  0  0
  -13.5689   13.7605    1.0669 C   0  0  0  0  0  0  0  0  0  0  0  0
  -12.4402   14.2464    1.1705 O   0  0  0  0  0  0  0  0  0  0  0  0
  -13.9552   12.5138    1.5273 N   0  3  0  0  0  0  0  0  0  0  0  0
  -12.9618   11.6810    2.2089 C   0  0  1  0  0  0  0  0  0  0  0  0
  -13.1219   11.6992    3.7225 C   0  0  0  0  0  0  0  0  0  0  0  0
  -13.8646   10.4095    4.0046 C   0  0  2  0  0  0  0  0  0  0  0  0
  -13.6125    9.9966    5.3456 O   0  0  0  0  0  0  0  0  0  0  0  0
  -13.0535   10.3278    1.7719 O   0  0  0  0  0  0  0  0  0  0  0  0
  -13.3037    9.4745    2.9237 C   0  0  2  0  0  0  0  0  0  0  0  0
  -14.2122    8.2968    2.5389 C   0  0  0  0  0  0  0  0  0  0  0  0
  -15.4432    8.8192    2.0644 O   0  0  0  0  0  0  0  0  0  0  0  0
  -16.5915    7.7785    1.5481 P   0  0  2  0  0  0  0  0  0  0  0  0
  -17.6733    8.7185    1.0448 O   0  0  0  0  0  0  0  0  0  0  0  0
  -16.9206    6.9230    2.7394 O   0  0  0  0  0  0  0  0  0  0  0  0
  -15.8671    7.1282    0.1931 N   0  0  0  0  0  0  0  0  0  0  0  0
  -15.6184    5.4841   -0.1453 P   0  0  2  0  0  0  0  0  0  0  0  0
  -15.4803    5.5708   -1.6731 O   0  0  0  0  0  0  0  0  0  0  0  0
  -16.7639    4.6203    0.3292 O   0  0  0  0  0  0  0  0  0  0  0  0
  -14.1652    5.1657    0.4325 O   0  0  0  0  0  0  0  0  0  0  0  0
  -13.5035    4.3694    1.6700 P   0  0  0  0  0  0  0  0  0  0  0  0
  -13.2437    2.9345    1.1977 O   0  0  0  0  0  0  0  0  0  0  0  0
  -14.4177    4.4695    2.8759 O   0  0  0  0  0  0  0  0  0  0  0  0
  -12.1768    5.1089    1.9264 O   0  0  0  0  0  0  0  0  0  0  0  0
  -17.2664   12.5157    0.8684 H   0  0  0  0  0  0  0  0  0  0  0  0
  -15.5147   11.0943    1.7776 H   0  0  0  0  0  0  0  0  0  0  0  0
  -14.2975   15.4181    0.1484 H   0  0  0  0  0  0  0  0  0  0  0  0
  -11.9602   12.0348    1.9436 H   0  0  0  0  0  0  0  0  0  0  0  0
  -13.6412   12.5863    4.1001 H   0  0  0  0  0  0  0  0  0  0  0  0
  -12.1385   11.6844    4.2068 H   0  0  0  0  0  0  0  0  0  0  0  0
  -14.9423   10.5742    3.9065 H   0  0  0  0  0  0  0  0  0  0  0  0
  -14.0695    9.1331    5.4299 H   0  0  0  0  0  0  0  0  0  0  0  0
  -12.3333    9.0800    3.2487 H   0  0  0  0  0  0  0  0  0  0  0  0
  -14.3787    7.6531    3.4079 H   0  0  0  0  0  0  0  0  0  0  0  0
  -13.7366    7.7314    1.7349 H   0  0  0  0  0  0  0  0  0  0  0  0
  -15.3443    7.6962   -0.4210 H   0  0  0  0  0  0  0  0  0  0  0  0
  1  2  2  0  0  0  0
  2  3  1  0  0  0  0
  2  5  1  0  0  0  0
  3  4  2  0  0  0  0
  3 29  1  0  0  0  0
  4  8  1  0  0  0  0
  4 30  1  0  0  0  0
  5  6  1  0  0  0  0
  5 31  1  0  0  0  0
  6  7  2  0  0  0  0
  6  8  1  0  0  0  0
  8  9  1  0  0  0  0
  9 10  1  0  0  0  0
  9 13  1  0  0  0  0
  9 32  1  6  0  0  0
 10 11  1  0  0  0  0
 10 33  1  0  0  0  0
 10 34  1  0  0  0  0
 11 12  1  0  0  0  0
 11 14  1  0  0  0  0
 11 35  1  6  0  0  0
 12 36  1  0  0  0  0
 13 14  1  0  0  0  0
 14 15  1  0  0  0  0
 14 37  1  1  0  0  0
 15 16  1  0  0  0  0
 15 38  1  0  0  0  0
 15 39  1  0  0  0  0
 17 16  1  1  0  0  0
 17 18  2  0  0  0  0
 17 19  1  0  0  0  0
 17 20  1  0  0  0  0
 20 40  1  0  0  0  0
 21 20  1  1  0  0  0
 21 22  2  0  0  0  0
 21 23  1  0  0  0  0
 21 24  1  0  0  0  0
 24 25  1  0  0  0  0
 25 26  2  0  0  0  0
 25 27  1  0  0  0  0
 25 28  1  0  0  0  0
M  CHG  2   5   1   8   1
M  END
$$$$
