DUP
 OpenBabel04161910333D

 40 41  0  0  1  0  0  0  0  0999 V2000
   30.7670 -182.6940   31.9165 O   0  0  0  0  0  0  0  0  0  0  0  0
   30.2610 -183.0319   30.8645 C   0  0  0  0  0  0  0  0  0  0  0  0
   31.0637 -183.4050   29.6914 C   0  0  0  0  0  0  0  0  0  0  0  0
   30.4279 -183.8239   28.5940 C   0  0  0  0  0  0  0  0  0  0  0  0
   28.9074 -183.0970   30.7261 N   0  3  0  0  0  0  0  0  0  0  0  0
   28.2378 -183.5679   29.5877 C   0  0  0  0  0  0  0  0  0  0  0  0
   27.0209 -183.6283   29.6125 O   0  0  0  0  0  0  0  0  0  0  0  0
   29.0554 -183.9287   28.5179 N   0  3  0  0  0  0  0  0  0  0  0  0
   28.4517 -184.4306   27.2686 C   0  0  1  0  0  0  0  0  0  0  0  0
   27.7086 -183.3727   26.4825 C   0  0  0  0  0  0  0  0  0  0  0  0
   27.9491 -183.8015   25.0449 C   0  0  2  0  0  0  0  0  0  0  0  0
   27.0691 -184.8899   24.7115 O   0  0  0  0  0  0  0  0  0  0  0  0
   29.4417 -184.9888   26.3803 O   0  0  0  0  0  0  0  0  0  0  0  0
   29.3840 -184.2899   25.0923 C   0  0  2  0  0  0  0  0  0  0  0  0
   30.3328 -183.0866   24.9708 C   0  0  0  0  0  0  0  0  0  0  0  0
   31.5934 -183.4651   25.4660 O   0  0  0  0  0  0  0  0  0  0  0  0
   32.9166 -182.9190   24.6765 P   0  0  1  0  0  0  0  0  0  0  0  0
   32.7136 -181.4348   24.6778 O   0  0  0  0  0  0  0  0  0  0  0  0
   34.0239 -183.5344   25.5227 O   0  0  0  0  0  0  0  0  0  0  0  0
   32.7667 -183.8487   23.2872 N   0  0  0  0  0  0  0  0  0  0  0  0
   32.3584 -183.2285   21.7465 P   0  0  1  0  0  0  0  0  0  0  0  0
   31.7530 -184.5075   21.1281 O   0  0  0  0  0  0  0  0  0  0  0  0
   31.3491 -182.1165   21.8111 O   0  0  0  0  0  0  0  0  0  0  0  0
   33.7273 -182.9240   20.9604 O   0  0  0  0  0  0  0  0  0  0  0  0
   34.5880 -181.5413   20.8503 P   0  0  0  0  0  0  0  0  0  0  0  0
   34.3083 -180.9650   19.4553 O   0  0  0  0  0  0  0  0  0  0  0  0
   36.0601 -181.9653   20.9735 O   0  0  0  0  0  0  0  0  0  0  0  0
   34.1534 -180.6344   21.9745 O   0  0  0  0  0  0  0  0  0  0  0  0
   32.1317 -183.3525   29.7377 H   0  0  0  0  0  0  0  0  0  0  0  0
   31.0142 -184.1228   27.7249 H   0  0  0  0  0  0  0  0  0  0  0  0
   28.3639 -182.8609   31.5082 H   0  0  0  0  0  0  0  0  0  0  0  0
   27.7482 -185.2207   27.5554 H   0  0  0  0  0  0  0  0  0  0  0  0
   28.1432 -182.3895   26.7016 H   0  0  0  0  0  0  0  0  0  0  0  0
   26.6556 -183.3548   26.7696 H   0  0  0  0  0  0  0  0  0  0  0  0
   27.7916 -183.0041   24.3187 H   0  0  0  0  0  0  0  0  0  0  0  0
   27.3715 -185.1827   23.8271 H   0  0  0  0  0  0  0  0  0  0  0  0
   29.6039 -185.0143   24.2984 H   0  0  0  0  0  0  0  0  0  0  0  0
   29.9598 -182.2345   25.5489 H   0  0  0  0  0  0  0  0  0  0  0  0
   30.3670 -182.7531   23.9303 H   0  0  0  0  0  0  0  0  0  0  0  0
   33.3466 -184.6691   23.2547 H   0  0  0  0  0  0  0  0  0  0  0  0
  1  2  2  0  0  0  0
  2  3  1  0  0  0  0
  2  5  1  0  0  0  0
  3  4  2  0  0  0  0
  3 29  1  0  0  0  0
  4  8  1  0  0  0  0
  4 30  1  0  0  0  0
  5  6  1  0  0  0  0
  5 31  1  0  0  0  0
  6  7  2  0  0  0  0
  6  8  1  0  0  0  0
  8  9  1  0  0  0  0
  9 10  1  0  0  0  0
  9 13  1  0  0  0  0
  9 32  1  1  0  0  0
 10 11  1  0  0  0  0
 10 33  1  0  0  0  0
 10 34  1  0  0  0  0
 11 12  1  0  0  0  0
 11 14  1  0  0  0  0
 11 35  1  6  0  0  0
 12 36  1  0  0  0  0
 13 14  1  0  0  0  0
 14 15  1  0  0  0  0
 14 37  1  6  0  0  0
 15 16  1  0  0  0  0
 15 38  1  0  0  0  0
 15 39  1  0  0  0  0
 17 16  1  1  0  0  0
 17 18  2  0  0  0  0
 17 19  1  0  0  0  0
 17 20  1  0  0  0  0
 20 40  1  0  0  0  0
 21 20  1  1  0  0  0
 21 22  2  0  0  0  0
 21 23  1  0  0  0  0
 21 24  1  0  0  0  0
 24 25  1  0  0  0  0
 25 26  2  0  0  0  0
 25 27  1  0  0  0  0
 25 28  1  0  0  0  0
M  CHG  2   5   1   8   1
M  END
$$$$
