DUP
 OpenBabel04161909593D

 40 41  0  0  1  0  0  0  0  0999 V2000
   21.5048   -7.0198    0.9669 O   0  0  0  0  0  0  0  0  0  0  0  0
   20.4310   -6.7092    0.5202 C   0  0  0  0  0  0  0  0  0  0  0  0
   19.4717   -7.6716   -0.0343 C   0  0  0  0  0  0  0  0  0  0  0  0
   18.3255   -7.2733   -0.5536 C   0  0  0  0  0  0  0  0  0  0  0  0
   20.0113   -5.4056    0.4412 N   0  3  0  0  0  0  0  0  0  0  0  0
   18.8353   -4.9565   -0.1135 C   0  0  0  0  0  0  0  0  0  0  0  0
   18.6490   -3.7485   -0.1865 O   0  0  0  0  0  0  0  0  0  0  0  0
   17.9787   -5.9286   -0.5814 N   0  3  0  0  0  0  0  0  0  0  0  0
   16.7562   -5.5054   -1.2517 C   0  0  1  0  0  0  0  0  0  0  0  0
   16.8846   -5.6026   -2.7629 C   0  0  0  0  0  0  0  0  0  0  0  0
   16.1398   -6.8837   -3.0981 C   0  0  2  0  0  0  0  0  0  0  0  0
   15.6958   -6.8615   -4.4550 O   0  0  0  0  0  0  0  0  0  0  0  0
   15.6473   -6.2927   -0.8533 O   0  0  0  0  0  0  0  0  0  0  0  0
   15.0393   -6.8845   -2.0340 C   0  0  2  0  0  0  0  0  0  0  0  0
   14.4907   -8.2660   -1.6765 C   0  0  0  0  0  0  0  0  0  0  0  0
   15.5648   -9.0550   -1.1726 O   0  0  0  0  0  0  0  0  0  0  0  0
   15.1943  -10.5718   -0.6777 P   0  0  1  0  0  0  0  0  0  0  0  0
   14.5080  -11.1959   -1.8463 O   0  0  0  0  0  0  0  0  0  0  0  0
   16.5571  -11.1251   -0.2719 O   0  0  0  0  0  0  0  0  0  0  0  0
   14.3424  -10.2358    0.7147 N   0  0  0  0  0  0  0  0  0  0  0  0
   12.8176  -10.8912    1.0652 P   0  0  1  0  0  0  0  0  0  0  0  0
   12.6585  -12.2835    0.5063 O   0  0  0  0  0  0  0  0  0  0  0  0
   12.8227  -10.8044    2.5966 O   0  0  0  0  0  0  0  0  0  0  0  0
   11.7681   -9.8018    0.5427 O   0  0  0  0  0  0  0  0  0  0  0  0
   10.7898   -9.7798   -0.7411 P   0  0  0  0  0  0  0  0  0  0  0  0
   11.4321  -10.5132   -1.8999 O   0  0  0  0  0  0  0  0  0  0  0  0
    9.4603  -10.3887   -0.2815 O   0  0  0  0  0  0  0  0  0  0  0  0
   10.6600   -8.2803   -1.0581 O   0  0  0  0  0  0  0  0  0  0  0  0
   19.7347   -8.7491    0.0154 H   0  0  0  0  0  0  0  0  0  0  0  0
   17.6125   -7.9858   -0.9128 H   0  0  0  0  0  0  0  0  0  0  0  0
   20.6240   -4.7040    0.7994 H   0  0  0  0  0  0  0  0  0  0  0  0
   16.5317   -4.4740   -0.9404 H   0  0  0  0  0  0  0  0  0  0  0  0
   17.9299   -5.6358   -3.0848 H   0  0  0  0  0  0  0  0  0  0  0  0
   16.4197   -4.7316   -3.2414 H   0  0  0  0  0  0  0  0  0  0  0  0
   16.8109   -7.7393   -2.9875 H   0  0  0  0  0  0  0  0  0  0  0  0
   15.2234   -7.7118   -4.5888 H   0  0  0  0  0  0  0  0  0  0  0  0
   14.2174   -6.2329   -2.3576 H   0  0  0  0  0  0  0  0  0  0  0  0
   14.0537   -8.7292   -2.5657 H   0  0  0  0  0  0  0  0  0  0  0  0
   13.7337   -8.1516   -0.8982 H   0  0  0  0  0  0  0  0  0  0  0  0
   14.7103   -9.6072    1.4010 H   0  0  0  0  0  0  0  0  0  0  0  0
  1  2  2  0  0  0  0
  2  3  1  0  0  0  0
  2  5  1  0  0  0  0
  3  4  2  0  0  0  0
  3 29  1  0  0  0  0
  4  8  1  0  0  0  0
  4 30  1  0  0  0  0
  5  6  1  0  0  0  0
  5 31  1  0  0  0  0
  6  7  2  0  0  0  0
  6  8  1  0  0  0  0
  8  9  1  0  0  0  0
  9 10  1  0  0  0  0
  9 13  1  0  0  0  0
  9 32  1  1  0  0  0
 10 11  1  0  0  0  0
 10 33  1  0  0  0  0
 10 34  1  0  0  0  0
 11 12  1  0  0  0  0
 11 14  1  0  0  0  0
 11 35  1  1  0  0  0
 12 36  1  0  0  0  0
 13 14  1  0  0  0  0
 14 15  1  0  0  0  0
 14 37  1  6  0  0  0
 15 16  1  0  0  0  0
 15 38  1  0  0  0  0
 15 39  1  0  0  0  0
 17 16  1  6  0  0  0
 17 18  2  0  0  0  0
 17 19  1  0  0  0  0
 17 20  1  0  0  0  0
 20 40  1  0  0  0  0
 21 20  1  6  0  0  0
 21 22  2  0  0  0  0
 21 23  1  0  0  0  0
 21 24  1  0  0  0  0
 24 25  1  0  0  0  0
 25 26  2  0  0  0  0
 25 27  1  0  0  0  0
 25 28  1  0  0  0  0
M  CHG  2   5   1   8   1
M  END
$$$$
