DUP
 OpenBabel04161910333D

 40 41  0  0  1  0  0  0  0  0999 V2000
   18.5338    9.3481  -32.1090 O   0  0  0  0  0  0  0  0  0  0  0  0
   17.4540    9.0359  -31.6081 C   0  0  0  0  0  0  0  0  0  0  0  0
   16.2966    8.6553  -32.4105 C   0  0  0  0  0  0  0  0  0  0  0  0
   15.1724    8.3155  -31.7864 C   0  0  0  0  0  0  0  0  0  0  0  0
   17.2693    9.0260  -30.2535 N   0  3  0  0  0  0  0  0  0  0  0  0
   16.1088    8.6967  -29.5972 C   0  0  0  0  0  0  0  0  0  0  0  0
   16.0819    8.7554  -28.3687 O   0  0  0  0  0  0  0  0  0  0  0  0
   15.0505    8.3266  -30.4056 N   0  3  0  0  0  0  0  0  0  0  0  0
   13.7821    7.9720  -29.7560 C   0  0  1  0  0  0  0  0  0  0  0  0
   12.9816    9.1783  -29.2670 C   0  0  0  0  0  0  0  0  0  0  0  0
   11.5491    8.7439  -29.5100 C   0  0  2  0  0  0  0  0  0  0  0  0
   11.1243    7.9608  -28.3835 O   0  0  0  0  0  0  0  0  0  0  0  0
   12.9518    7.2197  -30.6362 O   0  0  0  0  0  0  0  0  0  0  0  0
   11.6752    7.9080  -30.7846 C   0  0  2  0  0  0  0  0  0  0  0  0
   11.6913    8.8276  -32.0147 C   0  0  0  0  0  0  0  0  0  0  0  0
   12.0254    8.0916  -33.1706 O   0  0  0  0  0  0  0  0  0  0  0  0
   11.3839    8.5710  -34.5695 P   0  0  2  0  0  0  0  0  0  0  0  0
   12.2255    7.9501  -35.6710 O   0  0  0  0  0  0  0  0  0  0  0  0
   11.3563   10.0919  -34.5580 O   0  0  0  0  0  0  0  0  0  0  0  0
    9.8178    7.9901  -34.6607 N   0  0  0  0  0  0  0  0  0  0  0  0
    9.0651    7.0536  -33.4319 P   0  0  1  0  0  0  0  0  0  0  0  0
    9.9553    5.8441  -33.1972 O   0  0  0  0  0  0  0  0  0  0  0  0
    8.8288    7.9979  -32.2656 O   0  0  0  0  0  0  0  0  0  0  0  0
    7.7396    6.6092  -34.2096 O   0  0  0  0  0  0  0  0  0  0  0  0
    6.1386    6.5755  -34.0190 P   0  0  0  0  0  0  0  0  0  0  0  0
    5.6246    5.7462  -35.2064 O   0  0  0  0  0  0  0  0  0  0  0  0
    5.6459    8.0189  -34.1050 O   0  0  0  0  0  0  0  0  0  0  0  0
    5.8294    5.8863  -32.6894 O   0  0  0  0  0  0  0  0  0  0  0  0
   16.3824    8.6436  -33.4933 H   0  0  0  0  0  0  0  0  0  0  0  0
   14.3088    8.0043  -32.3751 H   0  0  0  0  0  0  0  0  0  0  0  0
   18.0442    9.2962  -29.6770 H   0  0  0  0  0  0  0  0  0  0  0  0
   14.0105    7.3181  -28.9045 H   0  0  0  0  0  0  0  0  0  0  0  0
   13.2197   10.0687  -29.8597 H   0  0  0  0  0  0  0  0  0  0  0  0
   13.2052    9.4075  -28.2202 H   0  0  0  0  0  0  0  0  0  0  0  0
   10.8572    9.5863  -29.5989 H   0  0  0  0  0  0  0  0  0  0  0  0
   10.3054    7.5200  -28.6977 H   0  0  0  0  0  0  0  0  0  0  0  0
   10.9084    7.1338  -30.8685 H   0  0  0  0  0  0  0  0  0  0  0  0
   12.4597    9.6000  -31.9127 H   0  0  0  0  0  0  0  0  0  0  0  0
   10.7412    9.3573  -32.1179 H   0  0  0  0  0  0  0  0  0  0  0  0
    9.1182    8.6529  -34.9551 H   0  0  0  0  0  0  0  0  0  0  0  0
  1  2  2  0  0  0  0
  2  3  1  0  0  0  0
  2  5  1  0  0  0  0
  3  4  2  0  0  0  0
  3 29  1  0  0  0  0
  4  8  1  0  0  0  0
  4 30  1  0  0  0  0
  5  6  1  0  0  0  0
  5 31  1  0  0  0  0
  6  7  2  0  0  0  0
  6  8  1  0  0  0  0
  8  9  1  0  0  0  0
  9 10  1  0  0  0  0
  9 13  1  0  0  0  0
  9 32  1  1  0  0  0
 10 11  1  0  0  0  0
 10 33  1  0  0  0  0
 10 34  1  0  0  0  0
 11 12  1  0  0  0  0
 11 14  1  0  0  0  0
 11 35  1  6  0  0  0
 12 36  1  0  0  0  0
 13 14  1  0  0  0  0
 14 15  1  0  0  0  0
 14 37  1  6  0  0  0
 15 16  1  0  0  0  0
 15 38  1  0  0  0  0
 15 39  1  0  0  0  0
 17 16  1  1  0  0  0
 17 18  2  0  0  0  0
 17 19  1  0  0  0  0
 17 20  1  0  0  0  0
 20 40  1  0  0  0  0
 21 20  1  6  0  0  0
 21 22  2  0  0  0  0
 21 23  1  0  0  0  0
 21 24  1  0  0  0  0
 24 25  1  0  0  0  0
 25 26  2  0  0  0  0
 25 27  1  0  0  0  0
 25 28  1  0  0  0  0
M  CHG  2   5   1   8   1
M  END
$$$$
