E0B
 OpenBabel04161909483D

 54 57  0  0  0  0  0  0  0  0999 V2000
    5.7276    9.7029   -3.3378 C   0  0  0  0  0  0  0  0  0  0  0  0
    5.4022    9.2968   -4.7764 C   0  0  0  0  0  0  0  0  0  0  0  0
    5.5809    7.8434   -4.8650 N   0  0  0  0  0  0  0  0  0  0  0  0
    6.6856    7.2951   -5.5463 C   0  0  0  0  0  0  0  0  0  0  0  0
    7.4825    7.9796   -6.1941 O   0  0  0  0  0  0  0  0  0  0  0  0
    6.8646    5.7918   -5.5179 C   0  0  0  0  0  0  0  0  0  0  0  0
    4.6932    7.0980   -3.9980 C   0  0  0  0  0  0  0  0  0  0  0  0
    4.9658    7.4444   -2.5413 C   0  0  0  0  0  0  0  0  0  0  0  0
    4.7965    8.9618   -2.3539 C   0  0  0  0  0  0  0  0  0  0  0  0
    5.0900    9.3016   -0.9074 C   0  0  0  0  0  0  0  0  0  0  0  0
    4.7382   10.6675   -0.6054 N   0  0  0  0  0  0  0  0  0  0  0  0
    5.5641   11.4661    0.6223 S   0  0  0  0  0  0  0  0  0  0  0  0
    6.9675   11.4254    0.2609 O   0  0  0  0  0  0  0  0  0  0  0  0
    4.8813   12.7133    0.8361 O   0  0  0  0  0  0  0  0  0  0  0  0
    5.3232   10.4305    2.0489 C   0  0  0  0  0  0  0  0  0  0  0  0
    6.4775    9.8580    2.6432 C   0  0  0  0  0  0  0  0  0  0  0  0
    6.4387    9.0472    3.7738 C   0  0  0  0  0  0  0  0  0  0  0  0
    5.2003    8.8133    4.2902 C   0  0  0  0  0  0  0  0  0  0  0  0
    4.0786    9.3713    3.7099 C   0  0  0  0  0  0  0  0  0  0  0  0
    4.0659   10.1759    2.5942 C   0  0  0  0  0  0  0  0  0  0  0  0
    2.8141   10.6046    2.1823 C   0  0  0  0  0  0  0  0  0  0  0  0
    1.6597   10.2141    2.8747 C   0  0  0  0  0  0  0  0  0  0  0  0
    1.7172    9.3713    3.9906 C   0  0  0  0  0  0  0  0  0  0  0  0
    2.9751    8.9513    4.4025 C   0  0  0  0  0  0  0  0  0  0  0  0
    3.4110    8.0595    5.4531 C   0  0  0  0  0  0  0  0  0  0  0  0
    2.7643    7.4153    6.2351 O   0  0  0  0  0  0  0  0  0  0  0  0
    4.8001    8.0542    5.3830 N   0  3  0  0  0  0  0  0  0  0  0  0
    5.6466    7.2396    6.2260 C   0  0  0  0  0  0  0  0  0  0  0  0
    5.8500    5.8518    5.6592 C   0  0  0  0  0  0  0  0  0  0  0  0
    5.6281   10.7811   -3.2203 H   0  0  0  0  0  0  0  0  0  0  0  0
    6.7697    9.4181   -3.1418 H   0  0  0  0  0  0  0  0  0  0  0  0
    6.0203    9.8575   -5.4890 H   0  0  0  0  0  0  0  0  0  0  0  0
    4.3454    9.5342   -4.9929 H   0  0  0  0  0  0  0  0  0  0  0  0
    7.7601    5.5269   -6.1000 H   0  0  0  0  0  0  0  0  0  0  0  0
    6.0061    5.3033   -5.9821 H   0  0  0  0  0  0  0  0  0  0  0  0
    7.0039    5.4264   -4.5004 H   0  0  0  0  0  0  0  0  0  0  0  0
    4.7864    6.0281   -4.1447 H   0  0  0  0  0  0  0  0  0  0  0  0
    3.6667    7.4014   -4.2332 H   0  0  0  0  0  0  0  0  0  0  0  0
    5.9903    7.1420   -2.2773 H   0  0  0  0  0  0  0  0  0  0  0  0
    4.2736    6.8960   -1.8871 H   0  0  0  0  0  0  0  0  0  0  0  0
    3.7558    9.2299   -2.5915 H   0  0  0  0  0  0  0  0  0  0  0  0
    6.1482    9.1321   -0.7073 H   0  0  0  0  0  0  0  0  0  0  0  0
    4.5043    8.6391   -0.2586 H   0  0  0  0  0  0  0  0  0  0  0  0
    4.0125   11.1953   -1.0959 H   0  0  0  0  0  0  0  0  0  0  0  0
    7.4424   10.0573    2.2018 H   0  0  0  0  0  0  0  0  0  0  0  0
    7.3129    8.6134    4.2138 H   0  0  0  0  0  0  0  0  0  0  0  0
    2.7384   11.2450    1.3182 H   0  0  0  0  0  0  0  0  0  0  0  0
    0.6856   10.5675    2.5466 H   0  0  0  0  0  0  0  0  0  0  0  0
    0.8407    9.0386    4.5195 H   0  0  0  0  0  0  0  0  0  0  0  0
    5.1906    7.1677    7.2210 H   0  0  0  0  0  0  0  0  0  0  0  0
    6.6092    7.7483    6.3325 H   0  0  0  0  0  0  0  0  0  0  0  0
    6.5051    5.2605    6.3080 H   0  0  0  0  0  0  0  0  0  0  0  0
    6.3093    5.9067    4.6656 H   0  0  0  0  0  0  0  0  0  0  0  0
    4.8931    5.3271    5.5624 H   0  0  0  0  0  0  0  0  0  0  0  0
  1  2  1  0  0  0  0
  1  9  1  0  0  0  0
  1 30  1  0  0  0  0
  1 31  1  0  0  0  0
  2  3  1  0  0  0  0
  2 32  1  0  0  0  0
  2 33  1  0  0  0  0
  3  4  1  0  0  0  0
  3  7  1  0  0  0  0
  4  5  2  0  0  0  0
  4  6  1  0  0  0  0
  6 34  1  0  0  0  0
  6 35  1  0  0  0  0
  6 36  1  0  0  0  0
  7  8  1  0  0  0  0
  7 37  1  0  0  0  0
  7 38  1  0  0  0  0
  8  9  1  0  0  0  0
  8 39  1  0  0  0  0
  8 40  1  0  0  0  0
  9 10  1  0  0  0  0
  9 41  1  0  0  0  0
 10 11  1  0  0  0  0
 10 42  1  0  0  0  0
 10 43  1  0  0  0  0
 11 12  1  0  0  0  0
 11 44  1  0  0  0  0
 12 13  2  0  0  0  0
 12 14  2  0  0  0  0
 12 15  1  0  0  0  0
 15 16  2  0  0  0  0
 15 20  1  0  0  0  0
 16 17  1  0  0  0  0
 16 45  1  0  0  0  0
 17 18  2  0  0  0  0
 17 46  1  0  0  0  0
 18 19  1  0  0  0  0
 18 27  1  0  0  0  0
 19 20  2  0  0  0  0
 19 24  1  0  0  0  0
 20 21  1  0  0  0  0
 21 22  2  0  0  0  0
 21 47  1  0  0  0  0
 22 23  1  0  0  0  0
 22 48  1  0  0  0  0
 23 24  2  0  0  0  0
 23 49  1  0  0  0  0
 24 25  1  0  0  0  0
 25 26  2  0  0  0  0
 25 27  1  0  0  0  0
 27 28  1  0  0  0  0
 28 29  1  0  0  0  0
 28 50  1  0  0  0  0
 28 51  1  0  0  0  0
 29 52  1  0  0  0  0
 29 53  1  0  0  0  0
 29 54  1  0  0  0  0
M  CHG  1  27   1
M  END
$$$$
