EB0
 OpenBabel04161909463D

 41 44  0  0  0  0  0  0  0  0999 V2000
  -12.0308    3.4000    1.3554 C   0  0  0  0  0  0  0  0  0  0  0  0
  -12.4169    4.7727    1.8659 C   0  0  0  0  0  0  0  0  0  0  0  0
  -12.5405    5.7061    0.7705 N   0  3  0  0  0  0  0  0  0  0  0  0
  -13.7381    5.8754    0.0411 C   0  0  0  0  0  0  0  0  0  0  0  0
  -14.7950    5.2952    0.2486 O   0  0  0  0  0  0  0  0  0  0  0  0
  -13.3577    6.8526   -0.9609 C   0  0  0  0  0  0  0  0  0  0  0  0
  -14.1145    7.4533   -1.9620 C   0  0  0  0  0  0  0  0  0  0  0  0
  -13.4561    8.3872   -2.7801 C   0  0  0  0  0  0  0  0  0  0  0  0
  -12.0915    8.7000   -2.6025 C   0  0  0  0  0  0  0  0  0  0  0  0
  -11.3247    8.0759   -1.5884 C   0  0  0  0  0  0  0  0  0  0  0  0
  -12.0183    7.1809   -0.8224 C   0  0  0  0  0  0  0  0  0  0  0  0
  -11.4981    6.4575    0.2294 C   0  0  0  0  0  0  0  0  0  0  0  0
  -10.1672    6.5496    0.5821 C   0  0  0  0  0  0  0  0  0  0  0  0
   -9.3994    7.4602   -0.1617 C   0  0  0  0  0  0  0  0  0  0  0  0
   -9.9570    8.2145   -1.2284 C   0  0  0  0  0  0  0  0  0  0  0  0
   -8.8731    9.3297   -2.0877 S   0  0  0  0  0  0  0  0  0  0  0  0
   -7.5140    9.0484   -1.6636 O   0  0  0  0  0  0  0  0  0  0  0  0
   -9.4255   10.6599   -1.9550 O   0  0  0  0  0  0  0  0  0  0  0  0
   -8.9856    8.9347   -3.7008 N   0  0  0  0  0  0  0  0  0  0  0  0
   -8.9123    7.6241   -4.2315 C   0  0  0  0  0  0  0  0  0  0  0  0
   -8.1665    6.5926   -3.6593 C   0  0  0  0  0  0  0  0  0  0  0  0
   -8.1239    5.3401   -4.2782 C   0  0  0  0  0  0  0  0  0  0  0  0
   -8.8258    5.1300   -5.4608 C   0  0  0  0  0  0  0  0  0  0  0  0
   -8.7768    3.9310   -6.0549 F   0  0  0  0  0  0  0  0  0  0  0  0
   -9.5685    6.1489   -6.0413 C   0  0  0  0  0  0  0  0  0  0  0  0
   -9.6041    7.3999   -5.4285 C   0  0  0  0  0  0  0  0  0  0  0  0
  -11.9353    2.6887    2.1820 H   0  0  0  0  0  0  0  0  0  0  0  0
  -11.0779    3.4381    0.8197 H   0  0  0  0  0  0  0  0  0  0  0  0
  -12.7881    3.0201    0.6597 H   0  0  0  0  0  0  0  0  0  0  0  0
  -11.6762    5.1439    2.5841 H   0  0  0  0  0  0  0  0  0  0  0  0
  -13.3776    4.7143    2.3915 H   0  0  0  0  0  0  0  0  0  0  0  0
  -15.1632    7.2101   -2.0839 H   0  0  0  0  0  0  0  0  0  0  0  0
  -14.0193    8.8891   -3.5642 H   0  0  0  0  0  0  0  0  0  0  0  0
  -11.6460    9.4431   -3.2585 H   0  0  0  0  0  0  0  0  0  0  0  0
   -9.7390    5.9580    1.3812 H   0  0  0  0  0  0  0  0  0  0  0  0
   -8.3500    7.5832    0.1035 H   0  0  0  0  0  0  0  0  0  0  0  0
   -9.2527    9.7066   -4.3065 H   0  0  0  0  0  0  0  0  0  0  0  0
   -7.5937    6.7402   -2.7487 H   0  0  0  0  0  0  0  0  0  0  0  0
   -7.5366    4.5327   -3.8521 H   0  0  0  0  0  0  0  0  0  0  0  0
  -10.1093    5.9678   -6.9643 H   0  0  0  0  0  0  0  0  0  0  0  0
  -10.1856    8.1945   -5.8880 H   0  0  0  0  0  0  0  0  0  0  0  0
  1  2  1  0  0  0  0
  1 27  1  0  0  0  0
  1 28  1  0  0  0  0
  1 29  1  0  0  0  0
  2  3  1  0  0  0  0
  2 30  1  0  0  0  0
  2 31  1  0  0  0  0
  3  4  1  0  0  0  0
  3 12  1  0  0  0  0
  4  5  2  0  0  0  0
  4  6  1  0  0  0  0
  6  7  2  0  0  0  0
  6 11  1  0  0  0  0
  7  8  1  0  0  0  0
  7 32  1  0  0  0  0
  8  9  2  0  0  0  0
  8 33  1  0  0  0  0
  9 10  1  0  0  0  0
  9 34  1  0  0  0  0
 10 11  2  0  0  0  0
 10 15  1  0  0  0  0
 11 12  1  0  0  0  0
 12 13  2  0  0  0  0
 13 14  1  0  0  0  0
 13 35  1  0  0  0  0
 14 15  2  0  0  0  0
 14 36  1  0  0  0  0
 15 16  1  0  0  0  0
 16 17  2  0  0  0  0
 16 18  2  0  0  0  0
 16 19  1  0  0  0  0
 19 20  1  0  0  0  0
 19 37  1  0  0  0  0
 20 21  2  0  0  0  0
 20 26  1  0  0  0  0
 21 22  1  0  0  0  0
 21 38  1  0  0  0  0
 22 23  2  0  0  0  0
 22 39  1  0  0  0  0
 23 24  1  0  0  0  0
 23 25  1  0  0  0  0
 25 26  2  0  0  0  0
 25 40  1  0  0  0  0
 26 41  1  0  0  0  0
M  CHG  1   3   1
M  END
$$$$
