EP1
 OpenBabel04161909463D

 36 36  0  0  0  0  0  0  0  0999 V2000
   -4.6602   30.6868  -13.7198 O   0  0  0  0  0  0  0  0  0  0  0  0
   -5.6890   30.1514  -12.7911 S   0  0  0  0  0  0  0  0  0  0  0  0
   -6.3312   28.9369  -13.2540 O   0  0  0  0  0  0  0  0  0  0  0  0
   -6.5916   31.1666  -12.2942 O   0  0  0  0  0  0  0  0  0  0  0  0
   -4.6635   29.5329  -11.3539 C   0  0  0  0  0  0  0  0  0  0  0  0
   -3.5557   28.5741  -11.8532 C   0  0  0  0  0  0  0  0  0  0  0  0
   -2.7771   27.8790  -10.7341 C   0  0  0  0  0  0  0  0  0  0  0  0
   -2.6550   26.4093  -10.9223 N   0  0  0  0  0  0  0  0  0  0  0  0
   -2.4268   25.7660   -9.6200 C   0  0  0  0  0  0  0  0  0  0  0  0
   -1.6969   24.4172   -9.6334 C   0  0  0  0  0  0  0  0  0  0  0  0
   -0.5047   24.4812  -10.5571 N   0  3  0  0  0  0  0  0  0  0  0  0
   -1.0276   24.7329  -11.9543 C   0  0  0  0  0  0  0  0  0  0  0  0
   -1.7072   26.1083  -12.0118 C   0  0  0  0  0  0  0  0  0  0  0  0
    0.5059   25.5300  -10.1318 C   0  0  0  0  0  0  0  0  0  0  0  0
    1.8305   24.8803   -9.7793 C   0  0  0  0  0  0  0  0  0  0  0  0
    2.7205   25.0450  -10.8736 O   0  0  0  0  0  0  0  0  0  0  0  0
   -5.3236   28.9841  -10.6666 H   0  0  0  0  0  0  0  0  0  0  0  0
   -4.2051   30.3715  -10.8148 H   0  0  0  0  0  0  0  0  0  0  0  0
   -2.8489   29.1522  -12.4601 H   0  0  0  0  0  0  0  0  0  0  0  0
   -4.0151   27.8158  -12.4906 H   0  0  0  0  0  0  0  0  0  0  0  0
   -3.2640   28.0680   -9.7725 H   0  0  0  0  0  0  0  0  0  0  0  0
   -1.7617   28.3066  -10.6729 H   0  0  0  0  0  0  0  0  0  0  0  0
   -3.3961   25.5988   -9.1355 H   0  0  0  0  0  0  0  0  0  0  0  0
   -1.8635   26.4482   -8.9708 H   0  0  0  0  0  0  0  0  0  0  0  0
   -2.3475   23.6216  -10.0064 H   0  0  0  0  0  0  0  0  0  0  0  0
   -1.3188   24.1503   -8.6425 H   0  0  0  0  0  0  0  0  0  0  0  0
   -1.7404   23.9323  -12.1726 H   0  0  0  0  0  0  0  0  0  0  0  0
   -0.1742   24.6654  -12.6349 H   0  0  0  0  0  0  0  0  0  0  0  0
   -0.9156   26.8674  -12.0329 H   0  0  0  0  0  0  0  0  0  0  0  0
   -2.2238   26.1608  -12.9741 H   0  0  0  0  0  0  0  0  0  0  0  0
    0.1011   26.0423   -9.2629 H   0  0  0  0  0  0  0  0  0  0  0  0
    0.6338   26.2334  -10.9529 H   0  0  0  0  0  0  0  0  0  0  0  0
    1.7047   23.8147   -9.5827 H   0  0  0  0  0  0  0  0  0  0  0  0
    2.2369   25.3716   -8.8968 H   0  0  0  0  0  0  0  0  0  0  0  0
    3.5858   24.6596  -10.6378 H   0  0  0  0  0  0  0  0  0  0  0  0
   -0.0446   23.5617  -10.5645 H   0  0  0  0  0  0  0  0  0  0  0  0
  1  2  2  0  0  0  0
  2  3  2  0  0  0  0
  2  4  1  0  0  0  0
  2  5  1  0  0  0  0
  5  6  1  0  0  0  0
  5 17  1  0  0  0  0
  5 18  1  0  0  0  0
  6  7  1  0  0  0  0
  6 19  1  0  0  0  0
  6 20  1  0  0  0  0
  7  8  1  0  0  0  0
  7 21  1  0  0  0  0
  7 22  1  0  0  0  0
  8  9  1  0  0  0  0
  8 13  1  0  0  0  0
  9 10  1  0  0  0  0
  9 23  1  0  0  0  0
  9 24  1  0  0  0  0
 10 11  1  0  0  0  0
 10 25  1  0  0  0  0
 10 26  1  0  0  0  0
 11 12  1  0  0  0  0
 11 14  1  0  0  0  0
 11 36  1  0  0  0  0
 12 13  1  0  0  0  0
 12 27  1  0  0  0  0
 12 28  1  0  0  0  0
 13 29  1  0  0  0  0
 13 30  1  0  0  0  0
 14 15  1  0  0  0  0
 14 31  1  0  0  0  0
 14 32  1  0  0  0  0
 15 16  1  0  0  0  0
 15 33  1  0  0  0  0
 15 34  1  0  0  0  0
 16 35  1  0  0  0  0
M  CHG  1  11   1
M  END
$$$$
