EQU
 OpenBabel04161910233D

 34 37  0  0  1  0  0  0  0  0999 V2000
    2.9814  -14.1541  -12.4214 C   0  0  0  0  0  0  0  0  0  0  0  0
    3.1349  -13.0409  -13.2392 C   0  0  0  0  0  0  0  0  0  0  0  0
    2.4541  -11.8815  -12.9710 C   0  0  0  0  0  0  0  0  0  0  0  0
    1.5663  -11.8407  -11.8404 C   0  0  0  0  0  0  0  0  0  0  0  0
    1.4419  -12.9918  -11.0193 C   0  0  0  0  0  0  0  0  0  0  0  0
    2.1369  -14.1409  -11.3257 C   0  0  0  0  0  0  0  0  0  0  0  0
    2.6312  -10.7626  -13.8005 C   0  0  0  0  0  0  0  0  0  0  0  0
    1.9635   -9.6060  -13.5478 C   0  0  0  0  0  0  0  0  0  0  0  0
    1.1313   -9.5546  -12.4324 C   0  0  0  0  0  0  0  0  0  0  0  0
    0.8774  -10.6525  -11.5776 C   0  0  0  0  0  0  0  0  0  0  0  0
    0.6701   -8.2441  -12.0387 C   0  0  0  0  0  0  0  0  0  0  0  0
    0.2243   -8.1538  -10.6275 C   0  0  2  0  0  0  0  0  0  0  0  0
   -0.6207   -9.3061  -10.2125 C   0  0  0  0  0  0  0  0  0  0  0  0
   -0.1044  -10.5216  -10.4483 C   0  0  0  0  0  0  0  0  0  0  0  0
    0.8775   -7.0396  -12.5878 C   0  0  0  0  0  0  0  0  0  0  0  0
    0.2859   -5.9490  -11.7643 C   0  0  0  0  0  0  0  0  0  0  0  0
   -0.3542   -6.7815  -10.6929 C   0  0  0  0  0  0  0  0  0  0  0  0
    1.5346   -8.0916   -9.8050 C   0  0  0  0  0  0  0  0  0  0  0  0
    3.6865  -15.2701  -12.7377 O   0  0  0  0  0  0  0  0  0  0  0  0
   -1.1900   -6.3321   -9.8874 O   0  0  0  0  0  0  0  0  0  0  0  0
    3.8018  -13.0988  -14.0930 H   0  0  0  0  0  0  0  0  0  0  0  0
    0.7911  -12.9855  -10.1537 H   0  0  0  0  0  0  0  0  0  0  0  0
    1.9807  -15.0185  -10.7037 H   0  0  0  0  0  0  0  0  0  0  0  0
    3.3253  -10.7643  -14.6391 H   0  0  0  0  0  0  0  0  0  0  0  0
    2.1302   -8.7256  -14.1716 H   0  0  0  0  0  0  0  0  0  0  0  0
   -1.4738   -9.1477   -9.5582 H   0  0  0  0  0  0  0  0  0  0  0  0
   -0.4072  -11.3527   -9.8274 H   0  0  0  0  0  0  0  0  0  0  0  0
    1.5208   -6.8468  -13.4280 H   0  0  0  0  0  0  0  0  0  0  0  0
   -0.4677   -5.4004  -12.3283 H   0  0  0  0  0  0  0  0  0  0  0  0
    1.0616   -5.3334  -11.3147 H   0  0  0  0  0  0  0  0  0  0  0  0
    2.0854   -9.0419   -9.7959 H   0  0  0  0  0  0  0  0  0  0  0  0
    1.3203   -7.8078   -8.7736 H   0  0  0  0  0  0  0  0  0  0  0  0
    2.2385   -7.3617  -10.2247 H   0  0  0  0  0  0  0  0  0  0  0  0
    4.1562  -15.5405  -11.9313 H   0  0  0  0  0  0  0  0  0  0  0  0
  1  2  2  0  0  0  0
  1  6  1  0  0  0  0
  1 19  1  0  0  0  0
  2  3  1  0  0  0  0
  2 21  1  0  0  0  0
  3  4  2  0  0  0  0
  3  7  1  0  0  0  0
  4  5  1  0  0  0  0
  4 10  1  0  0  0  0
  5  6  2  0  0  0  0
  5 22  1  0  0  0  0
  6 23  1  0  0  0  0
  7  8  2  0  0  0  0
  7 24  1  0  0  0  0
  8  9  1  0  0  0  0
  8 25  1  0  0  0  0
  9 10  2  0  0  0  0
  9 11  1  0  0  0  0
 10 14  1  0  0  0  0
 11 12  1  0  0  0  0
 11 15  2  0  0  0  0
 12 13  1  0  0  0  0
 12 17  1  0  0  0  0
 12 18  1  1  0  0  0
 13 14  2  0  0  0  0
 13 26  1  0  0  0  0
 14 27  1  0  0  0  0
 15 16  1  0  0  0  0
 15 28  1  0  0  0  0
 16 17  1  0  0  0  0
 16 29  1  0  0  0  0
 16 30  1  0  0  0  0
 17 20  2  0  0  0  0
 18 31  1  0  0  0  0
 18 32  1  0  0  0  0
 18 33  1  0  0  0  0
 19 34  1  0  0  0  0
M  END
$$$$
