FAC
 OpenBabel04161912193D

 13 12  0  0  0  0  0  0  0  0999 V2000
   13.3944   52.0352   16.3999 C   0  0  0  0  0  0  0  0  0  0  0  0
   13.4819   52.4321   15.0109 O   0  0  0  0  0  0  0  0  0  0  0  0
   13.7383   50.6346   16.4046 O   0  0  0  0  0  0  0  0  0  0  0  0
   14.3280   52.8683   17.3019 C   0  0  0  0  0  0  0  0  0  0  0  0
   11.9795   52.2776   16.9567 C   0  0  0  0  0  0  0  0  0  0  0  0
   14.1898   52.6085   18.6150 F   0  0  0  0  0  0  0  0  0  0  0  0
   14.1931   54.1965   17.1128 F   0  0  0  0  0  0  0  0  0  0  0  0
   15.6165   52.5617   16.9742 F   0  0  0  0  0  0  0  0  0  0  0  0
   11.8400   51.7918   18.2138 F   0  0  0  0  0  0  0  0  0  0  0  0
   11.0350   51.6660   16.1973 F   0  0  0  0  0  0  0  0  0  0  0  0
   11.6597   53.5919   16.9984 F   0  0  0  0  0  0  0  0  0  0  0  0
   14.4185   52.5926   14.8025 H   0  0  0  0  0  0  0  0  0  0  0  0
   14.7104   50.5719   16.4001 H   0  0  0  0  0  0  0  0  0  0  0  0
  1  2  1  0  0  0  0
  1  3  1  0  0  0  0
  1  4  1  0  0  0  0
  1  5  1  0  0  0  0
  2 12  1  0  0  0  0
  3 13  1  0  0  0  0
  4  6  1  0  0  0  0
  4  7  1  0  0  0  0
  4  8  1  0  0  0  0
  5  9  1  0  0  0  0
  5 10  1  0  0  0  0
  5 11  1  0  0  0  0
M  END
$$$$
