FC4
 OpenBabel04161910453D

 48 50  0  0  1  0  0  0  0  0999 V2000
   -5.4005   12.3703   10.9652 C   0  0  0  0  0  0  0  0  0  0  0  0
   -6.4212   12.3455   10.0123 C   0  0  0  0  0  0  0  0  0  0  0  0
   -6.3178   11.5055    8.9117 C   0  0  0  0  0  0  0  0  0  0  0  0
   -7.5758   11.4558    7.7452 Cl  0  0  0  0  0  0  0  0  0  0  0  0
   -5.1972   10.7018    8.7510 C   0  0  0  0  0  0  0  0  0  0  0  0
   -4.1756   10.7356    9.7021 C   0  0  0  0  0  0  0  0  0  0  0  0
   -4.2683   11.5613   10.8270 C   0  0  0  0  0  0  0  0  0  0  0  0
   -3.2240   11.5057   11.8789 C   0  0  0  0  0  0  0  0  0  0  0  0
   -3.0558   10.2750   12.4436 N   0  0  0  0  0  0  0  0  0  0  0  0
   -2.5179   12.5897   12.2509 C   0  0  0  0  0  0  0  0  0  0  0  0
   -2.7651   13.8410   11.6983 C   0  0  0  0  0  0  0  0  0  0  0  0
   -3.0482   14.8721   11.2011 N   0  0  0  0  0  0  0  0  0  0  0  0
   -1.4770   12.3979   13.2944 C   0  0  0  0  0  0  0  0  0  0  0  0
   -0.7730   13.2993   13.7184 O   0  0  0  0  0  0  0  0  0  0  0  0
   -1.3599   11.1025   13.7658 N   0  3  0  0  0  0  0  0  0  0  0  0
   -2.1525   10.0897   13.3281 C   0  0  0  0  0  0  0  0  0  0  0  0
   -1.8351    8.5512   14.1033 S   0  0  0  0  0  0  0  0  0  0  0  0
   -2.4871    7.8779   11.4654 C   0  0  0  0  0  0  0  0  0  0  0  0
   -2.2018    7.2745   12.8167 C   0  0  2  0  0  0  0  0  0  0  0  0
   -3.3836    6.4181   13.2929 C   0  0  0  0  0  0  0  0  0  0  0  0
   -3.0265    5.1374   13.6381 N   0  0  0  0  0  0  0  0  0  0  0  0
   -5.7921    3.3084   15.3368 C   0  0  0  0  0  0  0  0  0  0  0  0
   -5.1332    4.3087   14.6256 C   0  0  0  0  0  0  0  0  0  0  0  0
   -3.7645    4.2174   14.3958 C   0  0  0  0  0  0  0  0  0  0  0  0
   -4.5133    6.8799   13.3805 O   0  0  0  0  0  0  0  0  0  0  0  0
   -3.0508    3.1421   14.9228 C   0  0  0  0  0  0  0  0  0  0  0  0
   -3.6994    2.1525   15.6528 C   0  0  0  0  0  0  0  0  0  0  0  0
   -5.0748    2.2306   15.8405 C   0  0  0  0  0  0  0  0  0  0  0  0
   -5.9267    1.0058   16.7806 S   0  0  0  0  0  0  0  0  0  0  0  0
   -5.4264    1.0974   18.1234 O   0  0  0  0  0  0  0  0  0  0  0  0
   -7.3379    1.0965   16.4885 O   0  0  0  0  0  0  0  0  0  0  0  0
   -5.4141   -0.4610   16.1833 N   0  0  0  0  0  0  0  0  0  0  0  0
   -5.4951   13.0239   11.8256 H   0  0  0  0  0  0  0  0  0  0  0  0
   -7.2940   12.9772   10.1388 H   0  0  0  0  0  0  0  0  0  0  0  0
   -5.1171   10.0455    7.8913 H   0  0  0  0  0  0  0  0  0  0  0  0
   -3.3056   10.1018    9.5700 H   0  0  0  0  0  0  0  0  0  0  0  0
   -0.6704   10.9301   14.4723 H   0  0  0  0  0  0  0  0  0  0  0  0
   -2.7017    7.1129   10.7226 H   0  0  0  0  0  0  0  0  0  0  0  0
   -1.6306    8.4759   11.1286 H   0  0  0  0  0  0  0  0  0  0  0  0
   -3.3794    8.5022   11.5110 H   0  0  0  0  0  0  0  0  0  0  0  0
   -1.3190    6.6273   12.7171 H   0  0  0  0  0  0  0  0  0  0  0  0
   -2.1356    4.8115   13.2933 H   0  0  0  0  0  0  0  0  0  0  0  0
   -6.8657    3.3708   15.4974 H   0  0  0  0  0  0  0  0  0  0  0  0
   -5.7137    5.1318   14.2262 H   0  0  0  0  0  0  0  0  0  0  0  0
   -1.9769    3.0751   14.7758 H   0  0  0  0  0  0  0  0  0  0  0  0
   -3.1373    1.3252   16.0638 H   0  0  0  0  0  0  0  0  0  0  0  0
   -5.8038   -1.3024   16.6064 H   0  0  0  0  0  0  0  0  0  0  0  0
   -4.7224   -0.5184   15.4467 H   0  0  0  0  0  0  0  0  0  0  0  0
  1  2  2  0  0  0  0
  1  7  1  0  0  0  0
  1 33  1  0  0  0  0
  2  3  1  0  0  0  0
  2 34  1  0  0  0  0
  3  4  1  0  0  0  0
  3  5  2  0  0  0  0
  5  6  1  0  0  0  0
  5 35  1  0  0  0  0
  6  7  2  0  0  0  0
  6 36  1  0  0  0  0
  7  8  1  0  0  0  0
  8  9  1  0  0  0  0
  8 10  2  0  0  0  0
  9 16  2  0  0  0  0
 10 11  1  0  0  0  0
 10 13  1  0  0  0  0
 11 12  3  0  0  0  0
 13 14  2  0  0  0  0
 13 15  1  0  0  0  0
 15 16  1  0  0  0  0
 15 37  1  0  0  0  0
 16 17  1  0  0  0  0
 17 19  1  0  0  0  0
 18 19  1  0  0  0  0
 18 38  1  0  0  0  0
 18 39  1  0  0  0  0
 18 40  1  0  0  0  0
 19 20  1  0  0  0  0
 19 41  1  6  0  0  0
 20 21  1  0  0  0  0
 20 25  2  0  0  0  0
 21 24  1  0  0  0  0
 21 42  1  0  0  0  0
 22 23  2  0  0  0  0
 22 28  1  0  0  0  0
 22 43  1  0  0  0  0
 23 24  1  0  0  0  0
 23 44  1  0  0  0  0
 24 26  2  0  0  0  0
 26 27  1  0  0  0  0
 26 45  1  0  0  0  0
 27 28  2  0  0  0  0
 27 46  1  0  0  0  0
 28 29  1  0  0  0  0
 29 30  2  0  0  0  0
 29 31  2  0  0  0  0
 29 32  1  0  0  0  0
 32 47  1  0  0  0  0
 32 48  1  0  0  0  0
M  CHG  1  15   1
M  END
$$$$
