FD6
 OpenBabel04161910223D

 49 52  0  0  0  0  0  0  0  0999 V2000
   11.5072  -23.9432  -19.0897 S   0  0  0  0  0  0  0  0  0  0  0  0
   14.9150  -23.6443  -16.0841 C   0  0  0  0  0  0  0  0  0  0  0  0
   13.2560  -21.4158  -18.5604 N   0  0  0  0  0  0  0  0  0  0  0  0
   14.2106  -24.8259  -16.2481 C   0  0  0  0  0  0  0  0  0  0  0  0
   15.5251  -18.8191  -15.9795 N   0  0  0  0  0  0  0  0  0  0  0  0
   13.1783  -24.8746  -17.1816 C   0  0  0  0  0  0  0  0  0  0  0  0
   15.7853  -19.5950  -17.1543 N   0  0  0  0  0  0  0  0  0  0  0  0
   13.7883  -17.5972  -14.0451 N   0  3  0  0  0  0  0  0  0  0  0  0
   12.8584  -23.7620  -17.9548 C   0  0  0  0  0  0  0  0  0  0  0  0
   13.5476  -22.5471  -17.7806 C   0  0  0  0  0  0  0  0  0  0  0  0
   14.5739  -22.5263  -16.8379 C   0  0  0  0  0  0  0  0  0  0  0  0
   11.7836  -22.5540  -20.1640 C   0  0  0  0  0  0  0  0  0  0  0  0
   11.1305  -22.5681  -21.3852 C   0  0  0  0  0  0  0  0  0  0  0  0
   11.2725  -21.5126  -22.2821 C   0  0  0  0  0  0  0  0  0  0  0  0
   12.0693  -20.4214  -21.9341 C   0  0  0  0  0  0  0  0  0  0  0  0
   16.1846  -23.5576  -14.9430 Cl  0  0  0  0  0  0  0  0  0  0  0  0
   12.6952  -20.3930  -20.7021 C   0  0  0  0  0  0  0  0  0  0  0  0
   12.5718  -21.4498  -19.7886 C   0  0  0  0  0  0  0  0  0  0  0  0
   13.4296  -20.0968  -17.9578 C   0  0  0  0  0  0  0  0  0  0  0  0
   14.8048  -19.4632  -18.2357 C   0  0  0  0  0  0  0  0  0  0  0  0
   14.8187  -19.6360  -14.9800 C   0  0  0  0  0  0  0  0  0  0  0  0
   14.5633  -18.8430  -13.7140 C   0  0  0  0  0  0  0  0  0  0  0  0
   14.5475  -16.7676  -15.0362 C   0  0  0  0  0  0  0  0  0  0  0  0
   14.8191  -17.5752  -16.2875 C   0  0  0  0  0  0  0  0  0  0  0  0
   13.4933  -16.8240  -12.8173 C   0  0  0  0  0  0  0  0  0  0  0  0
   14.4583  -25.6926  -15.6661 H   0  0  0  0  0  0  0  0  0  0  0  0
   12.6137  -25.8065  -17.2992 H   0  0  0  0  0  0  0  0  0  0  0  0
   16.7058  -19.3965  -17.5293 H   0  0  0  0  0  0  0  0  0  0  0  0
   15.1607  -21.6514  -16.6849 H   0  0  0  0  0  0  0  0  0  0  0  0
   10.4872  -23.4141  -21.6634 H   0  0  0  0  0  0  0  0  0  0  0  0
   10.7765  -21.5350  -23.2324 H   0  0  0  0  0  0  0  0  0  0  0  0
   12.1855  -19.6103  -22.6284 H   0  0  0  0  0  0  0  0  0  0  0  0
   13.3122  -19.5288  -20.4717 H   0  0  0  0  0  0  0  0  0  0  0  0
   13.2204  -20.1769  -16.9211 H   0  0  0  0  0  0  0  0  0  0  0  0
   12.6435  -19.3986  -18.2984 H   0  0  0  0  0  0  0  0  0  0  0  0
   15.2194  -19.8820  -19.1454 H   0  0  0  0  0  0  0  0  0  0  0  0
   14.6640  -18.3957  -18.4608 H   0  0  0  0  0  0  0  0  0  0  0  0
   15.3999  -20.5208  -14.7067 H   0  0  0  0  0  0  0  0  0  0  0  0
   13.8458  -19.9571  -15.3077 H   0  0  0  0  0  0  0  0  0  0  0  0
   13.9704  -19.4213  -13.0117 H   0  0  0  0  0  0  0  0  0  0  0  0
   15.5148  -18.5216  -13.2691 H   0  0  0  0  0  0  0  0  0  0  0  0
   15.5016  -16.4809  -14.5595 H   0  0  0  0  0  0  0  0  0  0  0  0
   13.9482  -15.8946  -15.2720 H   0  0  0  0  0  0  0  0  0  0  0  0
   13.8400  -17.7930  -16.7342 H   0  0  0  0  0  0  0  0  0  0  0  0
   15.4109  -16.9708  -16.9710 H   0  0  0  0  0  0  0  0  0  0  0  0
   12.9339  -17.4686  -12.1412 H   0  0  0  0  0  0  0  0  0  0  0  0
   12.9118  -15.9475  -13.1060 H   0  0  0  0  0  0  0  0  0  0  0  0
   14.4594  -16.5316  -12.3779 H   0  0  0  0  0  0  0  0  0  0  0  0
   12.8835  -17.8857  -14.4843 H   0  0  0  0  0  0  0  0  0  0  0  0
  1  9  1  0  0  0  0
  1 12  1  0  0  0  0
  2  4  2  0  0  0  0
  2 11  1  0  0  0  0
  2 16  1  0  0  0  0
  3 10  1  0  0  0  0
  3 18  1  0  0  0  0
  3 19  1  0  0  0  0
  4  6  1  0  0  0  0
  4 26  1  0  0  0  0
  5  7  1  0  0  0  0
  5 21  1  0  0  0  0
  5 24  1  0  0  0  0
  6  9  2  0  0  0  0
  6 27  1  0  0  0  0
  7 20  1  0  0  0  0
  7 28  1  0  0  0  0
  8 22  1  0  0  0  0
  8 23  1  0  0  0  0
  8 25  1  0  0  0  0
  8 49  1  0  0  0  0
  9 10  1  0  0  0  0
 10 11  2  0  0  0  0
 11 29  1  0  0  0  0
 12 13  2  0  0  0  0
 12 18  1  0  0  0  0
 13 14  1  0  0  0  0
 13 30  1  0  0  0  0
 14 15  2  0  0  0  0
 14 31  1  0  0  0  0
 15 17  1  0  0  0  0
 15 32  1  0  0  0  0
 17 18  2  0  0  0  0
 17 33  1  0  0  0  0
 19 20  1  0  0  0  0
 19 34  1  0  0  0  0
 19 35  1  0  0  0  0
 20 36  1  0  0  0  0
 20 37  1  0  0  0  0
 21 22  1  0  0  0  0
 21 38  1  0  0  0  0
 21 39  1  0  0  0  0
 22 40  1  0  0  0  0
 22 41  1  0  0  0  0
 23 24  1  0  0  0  0
 23 42  1  0  0  0  0
 23 43  1  0  0  0  0
 24 44  1  0  0  0  0
 24 45  1  0  0  0  0
 25 46  1  0  0  0  0
 25 47  1  0  0  0  0
 25 48  1  0  0  0  0
M  CHG  1   8   1
M  END
$$$$
