FKS
 OpenBabel04161910013D

 40 39  0  0  0  0  0  0  0  0999 V2000
   78.0064  190.1766  130.5992 C   0  0  0  0  0  0  0  0  0  0  0  0
   78.4100  189.3083  131.7914 C   0  0  0  0  0  0  0  0  0  0  0  0
   79.7968  189.7079  132.2879 C   0  0  0  0  0  0  0  0  0  0  0  0
   81.2847  189.6989  134.2740 C   0  0  0  0  0  0  0  0  0  0  0  0
   81.8369  188.7234  135.2914 C   0  0  0  0  0  0  0  0  0  0  0  0
   82.9740  189.3733  136.0561 C   0  0  0  0  0  0  0  0  0  0  0  0
   83.6915  188.3644  136.9390 C   0  0  0  0  0  0  0  0  0  0  0  0
   84.6744  189.0672  137.8818 C   0  0  0  0  0  0  0  0  0  0  0  0
   85.4970  188.0633  138.7036 C   0  0  0  0  0  0  0  0  0  0  0  0
   86.4478  188.8257  139.6874 C   0  0  0  0  0  0  0  0  0  0  0  0
   87.2300  189.6973  139.0075 F   0  0  0  0  0  0  0  0  0  0  0  0
   87.2562  187.9905  140.3687 F   0  0  0  0  0  0  0  0  0  0  0  0
   85.7234  189.5340  140.5861 F   0  0  0  0  0  0  0  0  0  0  0  0
   80.0610  189.1135  133.6304 N   0  3  0  0  0  0  0  0  0  0  0  0
   76.5972  189.9070  130.2271 N   0  3  0  0  0  0  0  0  0  0  0  0
   84.5692  187.2222  139.3982 O   0  0  0  0  0  0  0  0  0  0  0  0
   86.2117  187.2523  137.7628 O   0  0  0  0  0  0  0  0  0  0  0  0
   78.6232  189.9727  129.7185 H   0  0  0  0  0  0  0  0  0  0  0  0
   78.0662  191.2413  130.8457 H   0  0  0  0  0  0  0  0  0  0  0  0
   78.4095  188.2493  131.5060 H   0  0  0  0  0  0  0  0  0  0  0  0
   77.6742  189.4231  132.5967 H   0  0  0  0  0  0  0  0  0  0  0  0
   79.8786  190.7943  132.3962 H   0  0  0  0  0  0  0  0  0  0  0  0
   80.5812  189.3443  131.6145 H   0  0  0  0  0  0  0  0  0  0  0  0
   82.0215  189.8904  133.4863 H   0  0  0  0  0  0  0  0  0  0  0  0
   80.9782  190.6463  134.7289 H   0  0  0  0  0  0  0  0  0  0  0  0
   82.1893  187.8162  134.7739 H   0  0  0  0  0  0  0  0  0  0  0  0
   81.0486  188.4044  135.9891 H   0  0  0  0  0  0  0  0  0  0  0  0
   82.5776  190.1921  136.6618 H   0  0  0  0  0  0  0  0  0  0  0  0
   83.6998  189.8105  135.3556 H   0  0  0  0  0  0  0  0  0  0  0  0
   84.2147  187.6445  136.3022 H   0  0  0  0  0  0  0  0  0  0  0  0
   82.9522  187.7957  137.5263 H   0  0  0  0  0  0  0  0  0  0  0  0
   84.1071  189.7244  138.5535 H   0  0  0  0  0  0  0  0  0  0  0  0
   85.3470  189.6952  137.2848 H   0  0  0  0  0  0  0  0  0  0  0  0
   79.2793  189.2567  134.2874 H   0  0  0  0  0  0  0  0  0  0  0  0
   76.3084  190.5003  129.4312 H   0  0  0  0  0  0  0  0  0  0  0  0
   76.4341  188.9359  129.9255 H   0  0  0  0  0  0  0  0  0  0  0  0
   84.1722  187.7519  140.1134 H   0  0  0  0  0  0  0  0  0  0  0  0
   87.0034  187.7474  137.4862 H   0  0  0  0  0  0  0  0  0  0  0  0
   80.1784  188.0888  133.5612 H   0  0  0  0  0  0  0  0  0  0  0  0
   75.9286  190.1125  130.9834 H   0  0  0  0  0  0  0  0  0  0  0  0
  1  2  1  0  0  0  0
  1 15  1  0  0  0  0
  1 18  1  0  0  0  0
  1 19  1  0  0  0  0
  2  3  1  0  0  0  0
  2 20  1  0  0  0  0
  2 21  1  0  0  0  0
  3 14  1  0  0  0  0
  3 22  1  0  0  0  0
  3 23  1  0  0  0  0
  4  5  1  0  0  0  0
  4 14  1  0  0  0  0
  4 24  1  0  0  0  0
  4 25  1  0  0  0  0
  5  6  1  0  0  0  0
  5 26  1  0  0  0  0
  5 27  1  0  0  0  0
  6  7  1  0  0  0  0
  6 28  1  0  0  0  0
  6 29  1  0  0  0  0
  7  8  1  0  0  0  0
  7 30  1  0  0  0  0
  7 31  1  0  0  0  0
  8  9  1  0  0  0  0
  8 32  1  0  0  0  0
  8 33  1  0  0  0  0
  9 10  1  0  0  0  0
  9 16  1  0  0  0  0
  9 17  1  0  0  0  0
 10 11  1  0  0  0  0
 10 12  1  0  0  0  0
 10 13  1  0  0  0  0
 14 34  1  0  0  0  0
 14 39  1  0  0  0  0
 15 35  1  0  0  0  0
 15 36  1  0  0  0  0
 15 40  1  0  0  0  0
 16 37  1  0  0  0  0
 17 38  1  0  0  0  0
M  CHG  2  14   1  15   1
M  END
$$$$
