FLU
 OpenBabel04161909563D

 36 39  0  0  0  0  0  0  0  0999 V2000
   24.9414   28.5127   29.5168 C   0  0  0  0  0  0  0  0  0  0  0  0
   24.7224   27.5821   30.2904 O   0  0  0  0  0  0  0  0  0  0  0  0
   25.6710   29.7146   29.9632 C   0  0  0  0  0  0  0  0  0  0  0  0
   25.8521   30.7605   29.1465 C   0  0  0  0  0  0  0  0  0  0  0  0
   26.5379   31.8577   29.6379 O   0  3  0  0  0  0  0  0  0  0  0  0
   26.7154   32.9487   28.8338 C   0  0  0  0  0  0  0  0  0  0  0  0
   27.3803   34.0299   29.4180 C   0  0  0  0  0  0  0  0  0  0  0  0
   27.5905   35.1824   28.6796 C   0  0  0  0  0  0  0  0  0  0  0  0
   28.2552   36.2127   29.2763 O   0  0  0  0  0  0  0  0  0  0  0  0
   27.1365   35.2720   27.3684 C   0  0  0  0  0  0  0  0  0  0  0  0
   26.4809   34.1781   26.7884 C   0  0  0  0  0  0  0  0  0  0  0  0
   26.2642   32.9947   27.5122 C   0  0  0  0  0  0  0  0  0  0  0  0
   25.5871   31.8060   26.9274 C   0  0  0  0  0  0  0  0  0  0  0  0
   25.3607   30.7470   27.7591 C   0  0  0  0  0  0  0  0  0  0  0  0
   24.6466   29.5372   27.3164 C   0  0  0  0  0  0  0  0  0  0  0  0
   24.4521   28.4874   28.1263 C   0  0  0  0  0  0  0  0  0  0  0  0
   25.1697   31.7245   25.4948 C   0  0  0  0  0  0  0  0  0  0  0  0
   24.0086   32.4037   25.0824 C   0  0  0  0  0  0  0  0  0  0  0  0
   23.4995   32.2312   23.7923 C   0  0  0  0  0  0  0  0  0  0  0  0
   24.1376   31.3730   22.8990 C   0  0  0  0  0  0  0  0  0  0  0  0
   25.3124   30.7264   23.2794 C   0  0  0  0  0  0  0  0  0  0  0  0
   25.8504   30.9146   24.5662 C   0  0  0  0  0  0  0  0  0  0  0  0
   27.1261   30.2017   24.9124 C   0  0  0  0  0  0  0  0  0  0  0  0
   28.1582   30.9233   25.0627 O   0  0  0  0  0  0  0  0  0  0  0  0
   27.0605   28.9353   24.9747 O   0  0  0  0  0  0  0  0  0  0  0  0
   26.0451   29.7078   30.9781 H   0  0  0  0  0  0  0  0  0  0  0  0
   27.7396   33.9590   30.4393 H   0  0  0  0  0  0  0  0  0  0  0  0
   28.4403   36.8810   28.5978 H   0  0  0  0  0  0  0  0  0  0  0  0
   27.2913   36.1682   26.7775 H   0  0  0  0  0  0  0  0  0  0  0  0
   26.1589   34.2579   25.7525 H   0  0  0  0  0  0  0  0  0  0  0  0
   24.2901   29.4612   26.2941 H   0  0  0  0  0  0  0  0  0  0  0  0
   23.9511   27.5879   27.7941 H   0  0  0  0  0  0  0  0  0  0  0  0
   23.4871   33.0572   25.7766 H   0  0  0  0  0  0  0  0  0  0  0  0
   22.5942   32.7487   23.4911 H   0  0  0  0  0  0  0  0  0  0  0  0
   23.7275   31.2023   21.9086 H   0  0  0  0  0  0  0  0  0  0  0  0
   25.8219   30.0569   22.5908 H   0  0  0  0  0  0  0  0  0  0  0  0
  1  2  2  0  0  0  0
  1  3  1  0  0  0  0
  1 16  1  0  0  0  0
  3  4  2  0  0  0  0
  3 26  1  0  0  0  0
  4  5  1  0  0  0  0
  4 14  1  0  0  0  0
  5  6  1  0  0  0  0
  6  7  2  0  0  0  0
  6 12  1  0  0  0  0
  7  8  1  0  0  0  0
  7 27  1  0  0  0  0
  8  9  1  0  0  0  0
  8 10  2  0  0  0  0
  9 28  1  0  0  0  0
 10 11  1  0  0  0  0
 10 29  1  0  0  0  0
 11 12  2  0  0  0  0
 11 30  1  0  0  0  0
 12 13  1  0  0  0  0
 13 14  2  0  0  0  0
 13 17  1  0  0  0  0
 14 15  1  0  0  0  0
 15 16  2  0  0  0  0
 15 31  1  0  0  0  0
 16 32  1  0  0  0  0
 17 18  2  0  0  0  0
 17 22  1  0  0  0  0
 18 19  1  0  0  0  0
 18 33  1  0  0  0  0
 19 20  2  0  0  0  0
 19 34  1  0  0  0  0
 20 21  1  0  0  0  0
 20 35  1  0  0  0  0
 21 22  2  0  0  0  0
 21 36  1  0  0  0  0
 22 23  1  0  0  0  0
 23 24  2  0  0  0  0
 23 25  1  0  0  0  0
M  CHG  1   5   1
M  END
$$$$
