G53
 OpenBabel04161912203D

 85 89  0  0  1  0  0  0  0  0999 V2000
   21.2970   27.4735   14.9768 C   0  0  0  0  0  0  0  0  0  0  0  0
   19.9494   27.7279   14.7391 C   0  0  0  0  0  0  0  0  0  0  0  0
   19.0083   26.7187   15.0005 C   0  0  0  0  0  0  0  0  0  0  0  0
   19.4472   25.5041   15.5062 C   0  0  0  0  0  0  0  0  0  0  0  0
   20.8076   25.2404   15.7487 C   0  0  0  0  0  0  0  0  0  0  0  0
   21.7170   26.2260   15.4780 C   0  0  0  0  0  0  0  0  0  0  0  0
   18.3320   24.1698   15.8129 S   0  0  0  0  0  0  0  0  0  0  0  0
   17.2742   24.2645   14.8247 O   0  0  0  0  0  0  0  0  0  0  0  0
   19.1167   22.9627   15.9472 O   0  0  0  0  0  0  0  0  0  0  0  0
   17.6961   24.5354   17.3400 N   0  0  0  0  0  0  0  0  0  0  0  0
   18.6686   24.7823   18.4366 C   0  0  0  0  0  0  0  0  0  0  0  0
   18.3005   24.0834   19.7512 C   0  0  0  0  0  0  0  0  0  0  0  0
   18.3024   22.5608   19.5987 C   0  0  0  0  0  0  0  0  0  0  0  0
   19.2964   24.5087   20.8344 C   0  0  0  0  0  0  0  0  0  0  0  0
   16.4156   25.2687   17.4016 C   0  0  0  0  0  0  0  0  0  0  0  0
   15.2971   24.3510   17.9307 C   0  0  1  0  0  0  0  0  0  0  0  0
   14.1560   25.1357   18.3081 O   0  0  0  0  0  0  0  0  0  0  0  0
   14.8903   23.1972   16.9828 C   0  0  1  0  0  0  0  0  0  0  0  0
   14.0215   22.2870   17.7258 N   0  0  0  0  0  0  0  0  0  0  0  0
   14.3776   21.0293   18.0660 C   0  0  0  0  0  0  0  0  0  0  0  0
   15.4446   20.4884   17.8346 O   0  0  0  0  0  0  0  0  0  0  0  0
   13.3253   20.4472   18.6856 O   0  0  0  0  0  0  0  0  0  0  0  0
   13.4460   19.0411   18.9755 C   0  0  1  0  0  0  0  0  0  0  0  0
   12.8551   18.8162   20.3527 C   0  0  0  0  0  0  0  0  0  0  0  0
   11.4403   18.7412   20.1603 O   0  0  0  0  0  0  0  0  0  0  0  0
   11.2091   18.2248   18.8492 C   0  0  1  0  0  0  0  0  0  0  0  0
   10.2626   19.0321   18.1328 O   0  0  0  0  0  0  0  0  0  0  0  0
   10.9435   19.6524   17.0568 C   0  0  0  0  0  0  0  0  0  0  0  0
   12.1775   18.8197   16.7453 C   0  0  0  0  0  0  0  0  0  0  0  0
   12.5201   18.2317   18.0804 C   0  0  1  0  0  0  0  0  0  0  0  0
   14.1515   23.6667   15.7070 C   0  0  0  0  0  0  0  0  0  0  0  0
   12.4734   22.0938   14.6597 C   0  0  0  0  0  0  0  0  0  0  0  0
   12.1624   20.9764   13.8790 C   0  0  0  0  0  0  0  0  0  0  0  0
   13.1733   20.2824   13.2192 C   0  0  0  0  0  0  0  0  0  0  0  0
   14.4955   20.7076   13.3284 C   0  0  0  0  0  0  0  0  0  0  0  0
   14.8083   21.8200   14.1111 C   0  0  0  0  0  0  0  0  0  0  0  0
   13.8019   22.5166   14.7905 C   0  0  0  0  0  0  0  0  0  0  0  0
   22.2744   28.4862   14.7710 C   0  0  0  0  0  0  0  0  0  0  0  0
   23.5367   27.9975   14.8385 O   0  0  0  0  0  0  0  0  0  0  0  0
   24.3039   29.0838   14.8492 C   0  0  0  0  0  0  0  0  0  0  0  0
   23.5223   30.2216   14.7380 C   0  0  0  0  0  0  0  0  0  0  0  0
   22.1983   29.7924   14.6428 N   0  0  0  0  0  0  0  0  0  0  0  0
   23.8830   31.6560   14.7705 C   0  0  0  0  0  0  0  0  0  0  0  0
   23.0322   32.5374   14.6865 O   0  0  0  0  0  0  0  0  0  0  0  0
   25.2081   32.0250   14.8977 O   0  0  0  0  0  0  0  0  0  0  0  0
   26.1117   31.0787   15.4471 C   0  0  0  0  0  0  0  0  0  0  0  0
   19.6429   28.7000   14.3528 H   0  0  0  0  0  0  0  0  0  0  0  0
   17.9684   26.9173   14.7984 H   0  0  0  0  0  0  0  0  0  0  0  0
   21.1488   24.2883   16.1474 H   0  0  0  0  0  0  0  0  0  0  0  0
   22.7683   26.0133   15.6761 H   0  0  0  0  0  0  0  0  0  0  0  0
   18.7593   25.8650   18.5949 H   0  0  0  0  0  0  0  0  0  0  0  0
   19.6635   24.4270   18.1493 H   0  0  0  0  0  0  0  0  0  0  0  0
   17.3081   24.4041   20.0825 H   0  0  0  0  0  0  0  0  0  0  0  0
   18.0688   22.0735   20.5512 H   0  0  0  0  0  0  0  0  0  0  0  0
   19.2788   22.1938   19.2634 H   0  0  0  0  0  0  0  0  0  0  0  0
   17.5544   22.2349   18.8694 H   0  0  0  0  0  0  0  0  0  0  0  0
   19.2962   25.5985   20.9481 H   0  0  0  0  0  0  0  0  0  0  0  0
   20.3164   24.1976   20.5833 H   0  0  0  0  0  0  0  0  0  0  0  0
   19.0343   24.0723   21.8032 H   0  0  0  0  0  0  0  0  0  0  0  0
   16.1253   25.6712   16.4262 H   0  0  0  0  0  0  0  0  0  0  0  0
   16.5082   26.1583   18.0375 H   0  0  0  0  0  0  0  0  0  0  0  0
   15.6416   23.8859   18.8682 H   0  0  0  0  0  0  0  0  0  0  0  0
   13.8319   25.6027   17.5217 H   0  0  0  0  0  0  0  0  0  0  0  0
   15.7952   22.6370   16.6958 H   0  0  0  0  0  0  0  0  0  0  0  0
   13.1195   22.6058   18.0475 H   0  0  0  0  0  0  0  0  0  0  0  0
   14.4860   18.6977   18.9342 H   0  0  0  0  0  0  0  0  0  0  0  0
   13.0758   19.6403   21.0517 H   0  0  0  0  0  0  0  0  0  0  0  0
   13.1796   17.8817   20.7730 H   0  0  0  0  0  0  0  0  0  0  0  0
   10.7923   17.2144   18.9427 H   0  0  0  0  0  0  0  0  0  0  0  0
   11.2145   20.6724   17.3406 H   0  0  0  0  0  0  0  0  0  0  0  0
   10.2703   19.7236   16.1733 H   0  0  0  0  0  0  0  0  0  0  0  0
   12.9803   19.3894   16.2848 H   0  0  0  0  0  0  0  0  0  0  0  0
   11.9016   18.0141   16.0473 H   0  0  0  0  0  0  0  0  0  0  0  0
   12.9161   17.2055   17.9919 H   0  0  0  0  0  0  0  0  0  0  0  0
   14.7487   24.3931   15.1422 H   0  0  0  0  0  0  0  0  0  0  0  0
   13.2279   24.1943   15.9844 H   0  0  0  0  0  0  0  0  0  0  0  0
   11.6738   22.6119   15.1818 H   0  0  0  0  0  0  0  0  0  0  0  0
   11.1335   20.6356   13.8071 H   0  0  0  0  0  0  0  0  0  0  0  0
   12.9340   19.4055   12.6240 H   0  0  0  0  0  0  0  0  0  0  0  0
   15.2879   20.1687   12.8169 H   0  0  0  0  0  0  0  0  0  0  0  0
   15.8494   22.1238   14.2011 H   0  0  0  0  0  0  0  0  0  0  0  0
   25.3340   28.8039   14.9916 H   0  0  0  0  0  0  0  0  0  0  0  0
   27.1071   31.4818   15.6348 H   0  0  0  0  0  0  0  0  0  0  0  0
   26.2903   30.3274   14.6803 H   0  0  0  0  0  0  0  0  0  0  0  0
   25.6971   30.7013   16.3885 H   0  0  0  0  0  0  0  0  0  0  0  0
  1  2  2  0  0  0  0
  1  6  1  0  0  0  0
  1 38  1  0  0  0  0
  2  3  1  0  0  0  0
  2 47  1  0  0  0  0
  3  4  2  0  0  0  0
  3 48  1  0  0  0  0
  4  5  1  0  0  0  0
  4  7  1  0  0  0  0
  5  6  2  0  0  0  0
  5 49  1  0  0  0  0
  6 50  1  0  0  0  0
  7  8  2  0  0  0  0
  7  9  2  0  0  0  0
  7 10  1  0  0  0  0
 10 11  1  0  0  0  0
 10 15  1  0  0  0  0
 11 12  1  0  0  0  0
 11 51  1  0  0  0  0
 11 52  1  0  0  0  0
 12 13  1  0  0  0  0
 12 14  1  0  0  0  0
 12 53  1  0  0  0  0
 13 54  1  0  0  0  0
 13 55  1  0  0  0  0
 13 56  1  0  0  0  0
 14 57  1  0  0  0  0
 14 58  1  0  0  0  0
 14 59  1  0  0  0  0
 15 16  1  0  0  0  0
 15 60  1  0  0  0  0
 15 61  1  0  0  0  0
 16 17  1  0  0  0  0
 16 18  1  0  0  0  0
 16 62  1  1  0  0  0
 17 63  1  0  0  0  0
 18 19  1  0  0  0  0
 18 31  1  0  0  0  0
 18 64  1  6  0  0  0
 19 20  1  0  0  0  0
 19 65  1  0  0  0  0
 20 21  2  0  0  0  0
 20 22  1  0  0  0  0
 22 23  1  0  0  0  0
 23 24  1  0  0  0  0
 23 30  1  0  0  0  0
 23 66  1  6  0  0  0
 24 25  1  0  0  0  0
 24 67  1  0  0  0  0
 24 68  1  0  0  0  0
 25 26  1  0  0  0  0
 26 27  1  0  0  0  0
 26 30  1  0  0  0  0
 26 69  1  1  0  0  0
 27 28  1  0  0  0  0
 28 29  1  0  0  0  0
 28 70  1  0  0  0  0
 28 71  1  0  0  0  0
 29 30  1  0  0  0  0
 29 72  1  0  0  0  0
 29 73  1  0  0  0  0
 30 74  1  6  0  0  0
 31 37  1  0  0  0  0
 31 75  1  0  0  0  0
 31 76  1  0  0  0  0
 32 33  2  0  0  0  0
 32 37  1  0  0  0  0
 32 77  1  0  0  0  0
 33 34  1  0  0  0  0
 33 78  1  0  0  0  0
 34 35  2  0  0  0  0
 34 79  1  0  0  0  0
 35 36  1  0  0  0  0
 35 80  1  0  0  0  0
 36 37  2  0  0  0  0
 36 81  1  0  0  0  0
 38 39  1  0  0  0  0
 38 42  2  0  0  0  0
 39 40  1  0  0  0  0
 40 41  2  0  0  0  0
 40 82  1  0  0  0  0
 41 42  1  0  0  0  0
 41 43  1  0  0  0  0
 43 44  2  0  0  0  0
 43 45  1  0  0  0  0
 45 46  1  0  0  0  0
 46 83  1  0  0  0  0
 46 84  1  0  0  0  0
 46 85  1  0  0  0  0
M  END
$$$$
