GDP
 OpenBabel04161911083D

 40 42  0  0  1  0  0  0  0  0999 V2000
   -5.9328   38.8226    7.8404 P   0  0  0  0  0  0  0  0  0  0  0  0
   -6.0305   38.5772    6.3432 O   0  0  0  0  0  0  0  0  0  0  0  0
   -5.7613   37.5385    8.6569 O   0  0  0  0  0  0  0  0  0  0  0  0
   -7.0576   39.6962    8.4006 O   0  0  0  0  0  0  0  0  0  0  0  0
   -4.5668   39.6563    8.1084 O   0  0  0  0  0  0  0  0  0  0  0  0
   -3.6516   40.5033    7.1028 P   0  0  1  0  0  0  0  0  0  0  0  0
   -2.7603   39.6789    6.1921 O   0  0  0  0  0  0  0  0  0  0  0  0
   -4.2680   41.8076    6.6133 O   0  0  0  0  0  0  0  0  0  0  0  0
   -2.5390   41.0425    8.2002 O   0  0  0  0  0  0  0  0  0  0  0  0
   -3.0031   41.9402    9.1798 C   0  0  0  0  0  0  0  0  0  0  0  0
   -1.9502   43.0179    9.4244 C   0  0  1  0  0  0  0  0  0  0  0  0
   -0.8361   42.4513   10.1675 O   0  0  0  0  0  0  0  0  0  0  0  0
   -1.3697   43.6670    8.1564 C   0  0  1  0  0  0  0  0  0  0  0  0
   -1.0509   45.0576    8.4354 O   0  0  0  0  0  0  0  0  0  0  0  0
   -0.0635   42.9272    7.9254 C   0  0  1  0  0  0  0  0  0  0  0  0
    0.9554   43.7195    7.2836 O   0  0  0  0  0  0  0  0  0  0  0  0
    0.3300   42.5587    9.3475 C   0  0  2  0  0  0  0  0  0  0  0  0
    1.1086   41.3225    9.4212 N   0  3  0  0  0  0  0  0  0  0  0  0
    0.8081   40.1093    8.8815 C   0  0  0  0  0  0  0  0  0  0  0  0
    1.7989   39.2348    9.0346 N   0  0  0  0  0  0  0  0  0  0  0  0
    2.7632   39.9085    9.7100 C   0  0  0  0  0  0  0  0  0  0  0  0
    4.0722   39.4825   10.1790 C   0  0  0  0  0  0  0  0  0  0  0  0
    4.5727   38.3654   10.0384 O   0  0  0  0  0  0  0  0  0  0  0  0
    4.7710   40.4867   10.8546 N   0  3  0  0  0  0  0  0  0  0  0  0
    4.3293   41.7791   11.0815 C   0  0  0  0  0  0  0  0  0  0  0  0
    5.0916   42.5762   11.7200 N   0  0  0  0  0  0  0  0  0  0  0  0
    3.0906   42.1212   10.5957 N   0  3  0  0  0  0  0  0  0  0  0  0
    2.3531   41.1993    9.9497 C   0  0  0  0  0  0  0  0  0  0  0  0
   -3.1724   41.3734   10.0988 H   0  0  0  0  0  0  0  0  0  0  0  0
   -3.9393   42.4214    8.8832 H   0  0  0  0  0  0  0  0  0  0  0  0
   -2.3877   43.7824   10.0771 H   0  0  0  0  0  0  0  0  0  0  0  0
   -2.0391   43.6311    7.2916 H   0  0  0  0  0  0  0  0  0  0  0  0
   -1.9163   45.4741    8.6157 H   0  0  0  0  0  0  0  0  0  0  0  0
   -0.2326   42.0378    7.3161 H   0  0  0  0  0  0  0  0  0  0  0  0
    0.9332   44.5939    7.7146 H   0  0  0  0  0  0  0  0  0  0  0  0
    0.9270   43.3594    9.7942 H   0  0  0  0  0  0  0  0  0  0  0  0
   -0.1380   39.9140    8.3724 H   0  0  0  0  0  0  0  0  0  0  0  0
    5.6799   40.2450   11.2127 H   0  0  0  0  0  0  0  0  0  0  0  0
    4.6033   43.4765   11.7892 H   0  0  0  0  0  0  0  0  0  0  0  0
    2.7435   43.0588   10.7824 H   0  0  0  0  0  0  0  0  0  0  0  0
  1  2  2  0  0  0  0
  1  3  1  0  0  0  0
  1  4  1  0  0  0  0
  1  5  1  0  0  0  0
  6  5  1  1  0  0  0
  6  7  2  0  0  0  0
  6  8  1  0  0  0  0
  6  9  1  0  0  0  0
  9 10  1  0  0  0  0
 10 11  1  0  0  0  0
 10 29  1  0  0  0  0
 10 30  1  0  0  0  0
 11 12  1  0  0  0  0
 11 13  1  0  0  0  0
 11 31  1  1  0  0  0
 12 17  1  0  0  0  0
 13 14  1  0  0  0  0
 13 15  1  0  0  0  0
 13 32  1  6  0  0  0
 14 33  1  0  0  0  0
 15 16  1  0  0  0  0
 15 17  1  0  0  0  0
 15 34  1  6  0  0  0
 16 35  1  0  0  0  0
 17 18  1  0  0  0  0
 17 36  1  1  0  0  0
 18 19  2  0  0  0  0
 18 28  1  0  0  0  0
 19 20  1  0  0  0  0
 19 37  1  0  0  0  0
 20 21  2  0  0  0  0
 21 22  1  0  0  0  0
 21 28  1  0  0  0  0
 22 23  2  0  0  0  0
 22 24  1  0  0  0  0
 24 25  1  0  0  0  0
 24 38  1  0  0  0  0
 25 26  2  0  0  0  0
 25 27  1  0  0  0  0
 26 39  1  0  0  0  0
 27 28  2  0  0  0  0
 27 40  1  0  0  0  0
M  CHG  3  18   1  24   1  27   1
M  END
$$$$
