GOP
 OpenBabel04161911013D

 43 42  0  0  1  0  0  0  0  0999 V2000
   42.3833  -65.7234   35.9228 O   0  0  0  0  0  0  0  0  0  0  0  0
   43.2197  -64.8227   35.2196 C   0  0  0  0  0  0  0  0  0  0  0  0
   42.5239  -63.6487   34.5263 C   0  0  1  0  0  0  0  0  0  0  0  0
   43.4776  -63.0818   33.6172 O   0  0  0  0  0  0  0  0  0  0  0  0
   41.1421  -63.8964   33.8477 C   0  0  1  0  0  0  0  0  0  0  0  0
   40.6121  -62.5898   33.5255 O   0  0  0  0  0  0  0  0  0  0  0  0
   41.0485  -64.7640   32.5756 C   0  0  2  0  0  0  0  0  0  0  0  0
   39.7011  -64.7525   32.0488 O   0  0  0  0  0  0  0  0  0  0  0  0
   41.4193  -66.2146   32.8864 C   0  0  1  0  0  0  0  0  0  0  0  0
   40.6747  -66.7185   34.0164 O   0  0  0  0  0  0  0  0  0  0  0  0
   41.2454  -67.1212   31.6740 C   0  0  0  0  0  0  0  0  0  0  0  0
   42.0497  -68.3630   31.9516 N   0  3  0  0  0  0  0  0  0  0  0  0
   41.9075  -69.3785   30.8351 C   0  0  2  0  0  0  0  0  0  0  0  0
   40.5699  -70.1941   30.8877 C   0  0  0  0  0  0  0  0  0  0  0  0
   40.3605  -70.9449   29.9323 O   0  0  0  0  0  0  0  0  0  0  0  0
   43.1006  -70.3251   30.8726 C   0  0  0  0  0  0  0  0  0  0  0  0
   43.1588  -71.1720   32.1322 C   0  0  0  0  0  0  0  0  0  0  0  0
   44.3857  -71.9993   32.2680 C   0  0  0  0  0  0  0  0  0  0  0  0
   44.7959  -72.4268   33.3613 O   0  0  0  0  0  0  0  0  0  0  0  0
   45.1068  -72.2828   31.1442 N   0  0  0  0  0  0  0  0  0  0  0  0
   39.9171  -69.9246   31.9590 O   0  0  0  0  0  0  0  0  0  0  0  0
   41.7547  -66.1448   35.3115 H   0  0  0  0  0  0  0  0  0  0  0  0
   43.8322  -65.3842   34.5051 H   0  0  0  0  0  0  0  0  0  0  0  0
   43.9301  -64.4171   35.9530 H   0  0  0  0  0  0  0  0  0  0  0  0
   42.3335  -62.8894   35.3045 H   0  0  0  0  0  0  0  0  0  0  0  0
   43.0822  -62.2809   33.2302 H   0  0  0  0  0  0  0  0  0  0  0  0
   40.4850  -64.3344   34.6063 H   0  0  0  0  0  0  0  0  0  0  0  0
   39.7044  -62.7169   33.2094 H   0  0  0  0  0  0  0  0  0  0  0  0
   41.6898  -64.3848   31.7714 H   0  0  0  0  0  0  0  0  0  0  0  0
   39.4568  -63.8628   31.7515 H   0  0  0  0  0  0  0  0  0  0  0  0
   42.4546  -66.2485   33.1774 H   0  0  0  0  0  0  0  0  0  0  0  0
   40.8269  -67.6678   34.1612 H   0  0  0  0  0  0  0  0  0  0  0  0
   41.6858  -66.6836   30.7789 H   0  0  0  0  0  0  0  0  0  0  0  0
   40.2023  -67.4155   31.4954 H   0  0  0  0  0  0  0  0  0  0  0  0
   43.0269  -68.1752   32.1762 H   0  0  0  0  0  0  0  0  0  0  0  0
   41.9475  -68.8029   29.8989 H   0  0  0  0  0  0  0  0  0  0  0  0
   44.0345  -69.7590   30.7687 H   0  0  0  0  0  0  0  0  0  0  0  0
   43.0411  -70.9894   30.0026 H   0  0  0  0  0  0  0  0  0  0  0  0
   42.2998  -71.8545   32.1812 H   0  0  0  0  0  0  0  0  0  0  0  0
   43.1294  -70.5213   33.0133 H   0  0  0  0  0  0  0  0  0  0  0  0
   45.9294  -72.8751   31.2142 H   0  0  0  0  0  0  0  0  0  0  0  0
   44.8232  -72.0174   30.2071 H   0  0  0  0  0  0  0  0  0  0  0  0
   41.5773  -68.8614   32.7312 H   0  0  0  0  0  0  0  0  0  0  0  0
  1  2  1  0  0  0  0
  1 22  1  0  0  0  0
  2  3  1  0  0  0  0
  2 23  1  0  0  0  0
  2 24  1  0  0  0  0
  3  4  1  0  0  0  0
  3  5  1  0  0  0  0
  3 25  1  1  0  0  0
  4 26  1  0  0  0  0
  5  6  1  0  0  0  0
  5  7  1  0  0  0  0
  5 27  1  1  0  0  0
  6 28  1  0  0  0  0
  7  8  1  0  0  0  0
  7  9  1  0  0  0  0
  7 29  1  6  0  0  0
  8 30  1  0  0  0  0
  9 10  1  0  0  0  0
  9 11  1  0  0  0  0
  9 31  1  1  0  0  0
 10 32  1  0  0  0  0
 11 12  1  0  0  0  0
 11 33  1  0  0  0  0
 11 34  1  0  0  0  0
 12 13  1  0  0  0  0
 12 35  1  0  0  0  0
 12 43  1  0  0  0  0
 13 14  1  0  0  0  0
 13 16  1  0  0  0  0
 13 36  1  6  0  0  0
 14 15  2  0  0  0  0
 14 21  1  0  0  0  0
 16 17  1  0  0  0  0
 16 37  1  0  0  0  0
 16 38  1  0  0  0  0
 17 18  1  0  0  0  0
 17 39  1  0  0  0  0
 17 40  1  0  0  0  0
 18 19  2  0  0  0  0
 18 20  1  0  0  0  0
 20 41  1  0  0  0  0
 20 42  1  0  0  0  0
M  CHG  1  12   1
M  END
$$$$
