GR7
 OpenBabel04161912163D

 86 90  0  0  1  0  0  0  0  0999 V2000
   20.9814  -15.0802   -8.0280 C   0  0  0  0  0  0  0  0  0  0  0  0
   21.5766  -16.0682   -7.2548 C   0  0  0  0  0  0  0  0  0  0  0  0
   20.8827  -17.2292   -6.8369 C   0  0  0  0  0  0  0  0  0  0  0  0
   19.5424  -17.3866   -7.2215 C   0  0  0  0  0  0  0  0  0  0  0  0
   18.9437  -16.3947   -8.0159 C   0  0  0  0  0  0  0  0  0  0  0  0
   19.6553  -15.2500   -8.4071 C   0  0  0  0  0  0  0  0  0  0  0  0
   18.5918  -18.8793   -6.9367 S   0  0  0  0  0  0  0  0  0  0  0  0
   17.6455  -18.9860   -8.0506 O   0  0  0  0  0  0  0  0  0  0  0  0
   19.5003  -19.9743   -6.6921 O   0  0  0  0  0  0  0  0  0  0  0  0
   17.6770  -18.6086   -5.5604 N   0  0  0  0  0  0  0  0  0  0  0  0
   16.3770  -17.9095   -5.6220 C   0  0  0  0  0  0  0  0  0  0  0  0
   15.2514  -18.8080   -5.0612 C   0  0  1  0  0  0  0  0  0  0  0  0
   14.1004  -18.0153   -4.7233 O   0  0  0  0  0  0  0  0  0  0  0  0
   14.8615  -19.9650   -6.0091 C   0  0  1  0  0  0  0  0  0  0  0  0
   13.9622  -20.8642   -5.2931 N   0  0  0  0  0  0  0  0  0  0  0  0
   14.3248  -22.1135   -4.9030 C   0  0  0  0  0  0  0  0  0  0  0  0
   15.4138  -22.6340   -5.0892 O   0  0  0  0  0  0  0  0  0  0  0  0
   13.2696  -22.7055   -4.3012 O   0  0  0  0  0  0  0  0  0  0  0  0
   13.3953  -24.1077   -4.0183 C   0  0  1  0  0  0  0  0  0  0  0  0
   12.8622  -24.3518   -2.6224 C   0  0  0  0  0  0  0  0  0  0  0  0
   11.4326  -24.3530   -2.7589 O   0  0  0  0  0  0  0  0  0  0  0  0
   11.1314  -24.8475   -4.0683 C   0  0  1  0  0  0  0  0  0  0  0  0
   10.2214  -23.9950   -4.7691 O   0  0  0  0  0  0  0  0  0  0  0  0
   10.8981  -23.4324   -5.8968 C   0  0  0  0  0  0  0  0  0  0  0  0
   12.0482  -24.3632   -6.2139 C   0  0  0  0  0  0  0  0  0  0  0  0
   12.4260  -24.9180   -4.8626 C   0  0  1  0  0  0  0  0  0  0  0  0
   14.1770  -19.4726   -7.2984 C   0  0  0  0  0  0  0  0  0  0  0  0
   12.4750  -21.0271   -8.3170 C   0  0  0  0  0  0  0  0  0  0  0  0
   12.1450  -22.1352   -9.0936 C   0  0  0  0  0  0  0  0  0  0  0  0
   13.1453  -22.8471   -9.7499 C   0  0  0  0  0  0  0  0  0  0  0  0
   14.4699  -22.4178   -9.6816 C   0  0  0  0  0  0  0  0  0  0  0  0
   14.8055  -21.3144   -8.9013 C   0  0  0  0  0  0  0  0  0  0  0  0
   13.8090  -20.6165   -8.2093 C   0  0  0  0  0  0  0  0  0  0  0  0
   21.6093  -13.9352   -8.4375 O   0  0  0  0  0  0  0  0  0  0  0  0
   22.9809  -13.8337   -8.0527 C   0  0  0  0  0  0  0  0  0  0  0  0
   18.2952  -18.6815   -4.2302 C   0  0  0  0  0  0  0  0  0  0  0  0
   18.3441  -20.1355   -3.7478 C   0  0  0  0  0  0  0  0  0  0  0  0
   18.5536  -20.1939   -2.2350 C   0  0  0  0  0  0  0  0  0  0  0  0
   20.0051  -20.1883   -1.7458 C   0  0  0  0  0  0  0  0  0  0  0  0
   21.6773  -18.1214   -5.9373 C   0  0  0  0  0  0  0  0  0  0  0  0
   21.9028  -17.3240   -4.7704 O   0  0  0  0  0  0  0  0  0  0  0  0
   22.5510  -18.0244   -3.7272 C   0  0  0  0  0  0  0  0  0  0  0  0
   21.5190  -18.4368   -2.7320 C   0  0  0  0  0  0  0  0  0  0  0  0
   21.0340  -19.6849   -2.7024 C   0  0  0  0  0  0  0  0  0  0  0  0
   22.6022  -15.9607   -6.9082 H   0  0  0  0  0  0  0  0  0  0  0  0
   17.9177  -16.5095   -8.3526 H   0  0  0  0  0  0  0  0  0  0  0  0
   19.1678  -14.4994   -9.0259 H   0  0  0  0  0  0  0  0  0  0  0  0
   16.1398  -17.5990   -6.6415 H   0  0  0  0  0  0  0  0  0  0  0  0
   16.4177  -16.9722   -5.0527 H   0  0  0  0  0  0  0  0  0  0  0  0
   15.5778  -19.2444   -4.1100 H   0  0  0  0  0  0  0  0  0  0  0  0
   13.7787  -17.5740   -5.5260 H   0  0  0  0  0  0  0  0  0  0  0  0
   15.7665  -20.5235   -6.2704 H   0  0  0  0  0  0  0  0  0  0  0  0
   13.0236  -20.5676   -5.0619 H   0  0  0  0  0  0  0  0  0  0  0  0
   14.4273  -24.4587   -4.1165 H   0  0  0  0  0  0  0  0  0  0  0  0
   13.1593  -23.5828   -1.9036 H   0  0  0  0  0  0  0  0  0  0  0  0
   13.1597  -25.3365   -2.2448 H   0  0  0  0  0  0  0  0  0  0  0  0
   10.6637  -25.8312   -3.9611 H   0  0  0  0  0  0  0  0  0  0  0  0
   11.2386  -22.4284   -5.6275 H   0  0  0  0  0  0  0  0  0  0  0  0
   10.2009  -23.3300   -6.7334 H   0  0  0  0  0  0  0  0  0  0  0  0
   12.8721  -23.8750   -6.7390 H   0  0  0  0  0  0  0  0  0  0  0  0
   11.6822  -25.1764   -6.8523 H   0  0  0  0  0  0  0  0  0  0  0  0
   12.7853  -25.9521   -4.9322 H   0  0  0  0  0  0  0  0  0  0  0  0
   14.8183  -18.7808   -7.8546 H   0  0  0  0  0  0  0  0  0  0  0  0
   13.2665  -18.9112   -7.0547 H   0  0  0  0  0  0  0  0  0  0  0  0
   11.6923  -20.5071   -7.7694 H   0  0  0  0  0  0  0  0  0  0  0  0
   11.1085  -22.4520   -9.1716 H   0  0  0  0  0  0  0  0  0  0  0  0
   12.8967  -23.7445  -10.3080 H   0  0  0  0  0  0  0  0  0  0  0  0
   15.2453  -22.9471  -10.2283 H   0  0  0  0  0  0  0  0  0  0  0  0
   15.8504  -21.0199   -8.8127 H   0  0  0  0  0  0  0  0  0  0  0  0
   23.3911  -12.8944   -8.4310 H   0  0  0  0  0  0  0  0  0  0  0  0
   23.5649  -14.6532   -8.4890 H   0  0  0  0  0  0  0  0  0  0  0  0
   23.0807  -13.8204   -6.9603 H   0  0  0  0  0  0  0  0  0  0  0  0
   17.7073  -18.0830   -3.5181 H   0  0  0  0  0  0  0  0  0  0  0  0
   19.2798  -18.2232   -4.2495 H   0  0  0  0  0  0  0  0  0  0  0  0
   19.1185  -20.7008   -4.2766 H   0  0  0  0  0  0  0  0  0  0  0  0
   17.4025  -20.6442   -3.9886 H   0  0  0  0  0  0  0  0  0  0  0  0
   18.0731  -21.1002   -1.8468 H   0  0  0  0  0  0  0  0  0  0  0  0
   18.0209  -19.3595   -1.7614 H   0  0  0  0  0  0  0  0  0  0  0  0
   20.2886  -21.2183   -1.5001 H   0  0  0  0  0  0  0  0  0  0  0  0
   20.0559  -19.6270   -0.8057 H   0  0  0  0  0  0  0  0  0  0  0  0
   22.6377  -18.3626   -6.4176 H   0  0  0  0  0  0  0  0  0  0  0  0
   21.1920  -19.0529   -5.6716 H   0  0  0  0  0  0  0  0  0  0  0  0
   23.2482  -17.3330   -3.2461 H   0  0  0  0  0  0  0  0  0  0  0  0
   23.1286  -18.8748   -4.1055 H   0  0  0  0  0  0  0  0  0  0  0  0
   21.1553  -17.6764   -2.0439 H   0  0  0  0  0  0  0  0  0  0  0  0
   21.3932  -20.4076   -3.4345 H   0  0  0  0  0  0  0  0  0  0  0  0
  1  2  2  0  0  0  0
  1  6  1  0  0  0  0
  1 34  1  0  0  0  0
  2  3  1  0  0  0  0
  2 45  1  0  0  0  0
  3  4  2  0  0  0  0
  3 40  1  0  0  0  0
  4  5  1  0  0  0  0
  4  7  1  0  0  0  0
  5  6  2  0  0  0  0
  5 46  1  0  0  0  0
  6 47  1  0  0  0  0
  7  8  2  0  0  0  0
  7  9  2  0  0  0  0
  7 10  1  0  0  0  0
 10 11  1  0  0  0  0
 10 36  1  0  0  0  0
 11 12  1  0  0  0  0
 11 48  1  0  0  0  0
 11 49  1  0  0  0  0
 12 13  1  0  0  0  0
 12 14  1  0  0  0  0
 12 50  1  1  0  0  0
 13 51  1  0  0  0  0
 14 15  1  0  0  0  0
 14 27  1  0  0  0  0
 14 52  1  6  0  0  0
 15 16  1  0  0  0  0
 15 53  1  0  0  0  0
 16 17  2  0  0  0  0
 16 18  1  0  0  0  0
 18 19  1  0  0  0  0
 19 20  1  0  0  0  0
 19 26  1  0  0  0  0
 19 54  1  6  0  0  0
 20 21  1  0  0  0  0
 20 55  1  0  0  0  0
 20 56  1  0  0  0  0
 21 22  1  0  0  0  0
 22 23  1  0  0  0  0
 22 26  1  0  0  0  0
 22 57  1  1  0  0  0
 23 24  1  0  0  0  0
 24 25  1  0  0  0  0
 24 58  1  0  0  0  0
 24 59  1  0  0  0  0
 25 26  1  0  0  0  0
 25 60  1  0  0  0  0
 25 61  1  0  0  0  0
 26 62  1  6  0  0  0
 27 33  1  0  0  0  0
 27 63  1  0  0  0  0
 27 64  1  0  0  0  0
 28 29  2  0  0  0  0
 28 33  1  0  0  0  0
 28 65  1  0  0  0  0
 29 30  1  0  0  0  0
 29 66  1  0  0  0  0
 30 31  2  0  0  0  0
 30 67  1  0  0  0  0
 31 32  1  0  0  0  0
 31 68  1  0  0  0  0
 32 33  2  0  0  0  0
 32 69  1  0  0  0  0
 34 35  1  0  0  0  0
 35 70  1  0  0  0  0
 35 71  1  0  0  0  0
 35 72  1  0  0  0  0
 36 37  1  0  0  0  0
 36 73  1  0  0  0  0
 36 74  1  0  0  0  0
 37 38  1  0  0  0  0
 37 75  1  0  0  0  0
 37 76  1  0  0  0  0
 38 39  1  0  0  0  0
 38 77  1  0  0  0  0
 38 78  1  0  0  0  0
 39 44  1  0  0  0  0
 39 79  1  0  0  0  0
 39 80  1  0  0  0  0
 40 41  1  0  0  0  0
 40 81  1  0  0  0  0
 40 82  1  0  0  0  0
 41 42  1  0  0  0  0
 42 43  1  0  0  0  0
 42 83  1  0  0  0  0
 42 84  1  0  0  0  0
 43 44  2  0  0  0  0
 43 85  1  0  0  0  0
 44 86  1  0  0  0  0
M  END
$$$$
