GTG
 OpenBabel04161911533D

 48 50  0  0  1  0  0  0  0  0999 V2000
   35.8463   66.4712   26.8236 P   0  0  1  0  0  0  0  0  0  0  0  0
   34.8711   67.6288   26.9249 O   0  0  0  0  0  0  0  0  0  0  0  0
   35.3756   65.2685   26.0088 O   0  0  0  0  0  0  0  0  0  0  0  0
   37.3200   66.9219   26.4073 O   0  0  0  0  0  0  0  0  0  0  0  0
   38.4338   67.9392   26.9752 P   0  0  2  0  0  0  0  0  0  0  0  0
   38.4511   67.9817   28.4901 O   0  0  0  0  0  0  0  0  0  0  0  0
   38.2270   69.3219   26.3468 O   0  0  0  0  0  0  0  0  0  0  0  0
   39.7759   67.3015   26.3363 O   0  0  0  0  0  0  0  0  0  0  0  0
   35.9791   67.2700   31.7387 N   0  3  0  0  0  0  0  0  0  0  0  0
   36.5107   68.0121   30.7277 C   0  0  0  0  0  0  0  0  0  0  0  0
   36.1631   69.2983   30.9632 N   0  3  0  0  0  0  0  0  0  0  0  0
   36.5823   70.4092   30.1133 C   0  0  0  0  0  0  0  0  0  0  0  0
   35.3552   69.3746   32.0823 C   0  0  0  0  0  0  0  0  0  0  0  0
   34.6867   70.4445   32.7622 C   0  0  0  0  0  0  0  0  0  0  0  0
   34.6932   71.6534   32.5325 O   0  0  0  0  0  0  0  0  0  0  0  0
   33.9542   69.9654   33.8740 N   0  3  0  0  0  0  0  0  0  0  0  0
   33.9364   68.6744   34.3732 C   0  0  0  0  0  0  0  0  0  0  0  0
   33.2646   68.4964   35.4744 N   0  0  0  0  0  0  0  0  0  0  0  0
   34.6125   67.7078   33.7086 N   0  3  0  0  0  0  0  0  0  0  0  0
   35.2768   68.0838   32.5721 C   0  0  0  0  0  0  0  0  0  0  0  0
   36.0051   65.9441   28.3521 O   0  0  0  0  0  0  0  0  0  0  0  0
   36.4066   64.6053   28.5973 C   0  0  0  0  0  0  0  0  0  0  0  0
   36.2238   64.3589   30.0924 C   0  0  1  0  0  0  0  0  0  0  0  0
   37.0010   65.3164   30.8428 O   0  0  0  0  0  0  0  0  0  0  0  0
   34.7715   64.5282   30.5494 C   0  0  1  0  0  0  0  0  0  0  0  0
   34.0041   63.3190   30.5342 O   0  0  0  0  0  0  0  0  0  0  0  0
   34.9483   64.9851   31.9804 C   0  0  1  0  0  0  0  0  0  0  0  0
   35.0859   63.8831   32.9008 O   0  0  0  0  0  0  0  0  0  0  0  0
   36.2276   65.8317   31.8998 C   0  0  2  0  0  0  0  0  0  0  0  0
   40.7147   66.1197   26.9326 P   0  0  0  0  0  0  0  0  0  0  0  0
   40.9810   65.1808   25.7424 O   0  0  0  0  0  0  0  0  0  0  0  0
   39.9585   65.4323   28.0431 O   0  0  0  0  0  0  0  0  0  0  0  0
   42.0017   66.8176   27.3794 O   0  0  0  0  0  0  0  0  0  0  0  0
   37.1175   67.6439   29.9316 H   0  0  0  0  0  0  0  0  0  0  0  0
   37.2154   70.0669   29.2982 H   0  0  0  0  0  0  0  0  0  0  0  0
   37.1393   71.1341   30.7235 H   0  0  0  0  0  0  0  0  0  0  0  0
   35.6963   70.9128   29.7105 H   0  0  0  0  0  0  0  0  0  0  0  0
   33.4448   70.6659   34.3896 H   0  0  0  0  0  0  0  0  0  0  0  0
   33.3433   67.5087   35.7385 H   0  0  0  0  0  0  0  0  0  0  0  0
   34.6020   66.7686   34.0704 H   0  0  0  0  0  0  0  0  0  0  0  0
   37.4502   64.4590   28.3143 H   0  0  0  0  0  0  0  0  0  0  0  0
   35.7711   63.8974   28.0513 H   0  0  0  0  0  0  0  0  0  0  0  0
   36.5786   63.3582   30.3593 H   0  0  0  0  0  0  0  0  0  0  0  0
   34.2501   65.3083   29.9729 H   0  0  0  0  0  0  0  0  0  0  0  0
   33.0762   63.5602   30.6908 H   0  0  0  0  0  0  0  0  0  0  0  0
   34.0730   65.5283   32.3396 H   0  0  0  0  0  0  0  0  0  0  0  0
   34.4300   63.2170   32.6116 H   0  0  0  0  0  0  0  0  0  0  0  0
   36.8136   65.7165   32.8202 H   0  0  0  0  0  0  0  0  0  0  0  0
  1  2  2  6  0  0  0
  1  3  1  0  0  0  0
  1  4  1  0  0  0  0
  1 21  1  0  0  0  0
  5  4  1  6  0  0  0
  5  6  2  0  0  0  0
  5  7  1  0  0  0  0
  5  8  1  0  0  0  0
  8 30  1  0  0  0  0
  9 10  2  0  0  0  0
  9 20  1  0  0  0  0
  9 29  1  0  0  0  0
 10 11  1  0  0  0  0
 10 34  1  0  0  0  0
 11 12  1  0  0  0  0
 11 13  2  0  0  0  0
 12 35  1  0  0  0  0
 12 36  1  0  0  0  0
 12 37  1  0  0  0  0
 13 14  1  0  0  0  0
 13 20  1  0  0  0  0
 14 15  2  0  0  0  0
 14 16  1  0  0  0  0
 16 17  1  0  0  0  0
 16 38  1  0  0  0  0
 17 18  2  0  0  0  0
 17 19  1  0  0  0  0
 18 39  1  0  0  0  0
 19 20  2  0  0  0  0
 19 40  1  0  0  0  0
 21 22  1  0  0  0  0
 22 23  1  0  0  0  0
 22 41  1  0  0  0  0
 22 42  1  0  0  0  0
 23 24  1  0  0  0  0
 23 25  1  0  0  0  0
 23 43  1  1  0  0  0
 24 29  1  0  0  0  0
 25 26  1  0  0  0  0
 25 27  1  0  0  0  0
 25 44  1  6  0  0  0
 26 45  1  0  0  0  0
 27 28  1  0  0  0  0
 27 29  1  0  0  0  0
 27 46  1  1  0  0  0
 28 47  1  0  0  0  0
 29 48  1  1  0  0  0
 30 31  2  0  0  0  0
 30 32  1  0  0  0  0
 30 33  1  0  0  0  0
M  CHG  4   9   1  11   1  16   1  19   1
M  END
$$$$
