GTP
 OpenBabel04161910013D

 44 46  0  0  1  0  0  0  0  0999 V2000
   28.0912   28.9933   24.3555 P   0  0  0  0  0  0  0  0  0  0  0  0
   28.1971   29.5620   22.9543 O   0  0  0  0  0  0  0  0  0  0  0  0
   26.8328   28.1573   24.6035 O   0  0  0  0  0  0  0  0  0  0  0  0
   28.2109   30.0878   25.4241 O   0  0  0  0  0  0  0  0  0  0  0  0
   29.3838   28.0123   24.5841 O   0  0  0  0  0  0  0  0  0  0  0  0
   30.0607   27.0886   23.4301 P   0  0  2  0  0  0  0  0  0  0  0  0
   29.0229   26.1837   22.7752 O   0  0  0  0  0  0  0  0  0  0  0  0
   31.2392   26.3082   24.0262 O   0  0  0  0  0  0  0  0  0  0  0  0
   30.6495   28.1492   22.3754 O   0  0  0  0  0  0  0  0  0  0  0  0
   31.7903   29.2628   22.5220 P   0  0  2  0  0  0  0  0  0  0  0  0
   31.5283   30.4352   21.5850 O   0  0  0  0  0  0  0  0  0  0  0  0
   33.1864   28.6719   22.3618 O   0  0  0  0  0  0  0  0  0  0  0  0
   31.6384   29.8460   24.0301 O   0  0  0  0  0  0  0  0  0  0  0  0
   32.3493   29.3212   25.1344 C   0  0  0  0  0  0  0  0  0  0  0  0
   32.3884   30.3958   26.2284 C   0  0  1  0  0  0  0  0  0  0  0  0
   33.4779   31.3390   25.9588 O   0  0  0  0  0  0  0  0  0  0  0  0
   31.1065   31.2141   26.3420 C   0  0  1  0  0  0  0  0  0  0  0  0
   30.8469   31.4627   27.7494 O   0  0  0  0  0  0  0  0  0  0  0  0
   31.4090   32.5396   25.6772 C   0  0  1  0  0  0  0  0  0  0  0  0
   30.8098   33.6532   26.3906 O   0  0  0  0  0  0  0  0  0  0  0  0
   32.9185   32.6448   25.7652 C   0  0  2  0  0  0  0  0  0  0  0  0
   33.5745   33.2793   24.6420 N   0  3  0  0  0  0  0  0  0  0  0  0
   33.2657   33.1428   23.2999 C   0  0  0  0  0  0  0  0  0  0  0  0
   34.0827   33.8633   22.5329 N   0  0  0  0  0  0  0  0  0  0  0  0
   34.9486   34.4549   23.4111 C   0  0  0  0  0  0  0  0  0  0  0  0
   36.0594   35.3434   23.1265 C   0  0  0  0  0  0  0  0  0  0  0  0
   36.3797   35.6979   22.0233 O   0  0  0  0  0  0  0  0  0  0  0  0
   36.7557   35.7891   24.2853 N   0  3  0  0  0  0  0  0  0  0  0  0
   36.4316   35.4153   25.5674 C   0  0  0  0  0  0  0  0  0  0  0  0
   37.1312   35.8729   26.5331 N   0  0  0  0  0  0  0  0  0  0  0  0
   35.3605   34.5767   25.7531 N   0  3  0  0  0  0  0  0  0  0  0  0
   34.6584   34.1209   24.6854 C   0  0  0  0  0  0  0  0  0  0  0  0
   33.3742   29.0767   24.8487 H   0  0  0  0  0  0  0  0  0  0  0  0
   31.8562   28.4375   25.5428 H   0  0  0  0  0  0  0  0  0  0  0  0
   32.6244   29.9340   27.2015 H   0  0  0  0  0  0  0  0  0  0  0  0
   30.2686   30.7106   25.8899 H   0  0  0  0  0  0  0  0  0  0  0  0
   31.6044   31.9424   28.0942 H   0  0  0  0  0  0  0  0  0  0  0  0
   31.0746   32.5610   24.6455 H   0  0  0  0  0  0  0  0  0  0  0  0
   31.1051   33.5892   27.3095 H   0  0  0  0  0  0  0  0  0  0  0  0
   33.1924   33.2281   26.6718 H   0  0  0  0  0  0  0  0  0  0  0  0
   32.4469   32.5289   22.9165 H   0  0  0  0  0  0  0  0  0  0  0  0
   37.5336   36.4127   24.1030 H   0  0  0  0  0  0  0  0  0  0  0  0
   36.7630   35.5033   27.4218 H   0  0  0  0  0  0  0  0  0  0  0  0
   35.1168   34.2969   26.6838 H   0  0  0  0  0  0  0  0  0  0  0  0
  1  2  2  0  0  0  0
  1  3  1  0  0  0  0
  1  4  1  0  0  0  0
  1  5  1  0  0  0  0
  6  5  1  1  0  0  0
  6  7  2  0  0  0  0
  6  8  1  0  0  0  0
  6  9  1  0  0  0  0
 10  9  1  6  0  0  0
 10 11  2  0  0  0  0
 10 12  1  0  0  0  0
 10 13  1  0  0  0  0
 13 14  1  0  0  0  0
 14 15  1  0  0  0  0
 14 33  1  0  0  0  0
 14 34  1  0  0  0  0
 15 16  1  0  0  0  0
 15 17  1  0  0  0  0
 15 35  1  1  0  0  0
 16 21  1  0  0  0  0
 17 18  1  0  0  0  0
 17 19  1  0  0  0  0
 17 36  1  6  0  0  0
 18 37  1  0  0  0  0
 19 20  1  0  0  0  0
 19 21  1  0  0  0  0
 19 38  1  6  0  0  0
 20 39  1  0  0  0  0
 21 22  1  0  0  0  0
 21 40  1  1  0  0  0
 22 23  2  0  0  0  0
 22 32  1  0  0  0  0
 23 24  1  0  0  0  0
 23 41  1  0  0  0  0
 24 25  2  0  0  0  0
 25 26  1  0  0  0  0
 25 32  1  0  0  0  0
 26 27  2  0  0  0  0
 26 28  1  0  0  0  0
 28 29  1  0  0  0  0
 28 42  1  0  0  0  0
 29 30  2  0  0  0  0
 29 31  1  0  0  0  0
 30 43  1  0  0  0  0
 31 32  2  0  0  0  0
 31 44  1  0  0  0  0
M  CHG  3  22   1  28   1  31   1
M  END
$$$$
