GTX
 OpenBabel04161910553D

 54 53  0  0  1  0  0  0  0  0999 V2000
  -33.2576    5.9650  -31.4433 N   0  3  0  0  0  0  0  0  0  0  0  0
  -33.8665    5.1979  -32.5972 C   0  0  2  0  0  0  0  0  0  0  0  0
  -33.4105    5.8084  -33.9473 C   0  0  0  0  0  0  0  0  0  0  0  0
  -33.1602    4.9965  -34.8632 O   0  0  0  0  0  0  0  0  0  0  0  0
  -33.2254    7.0662  -33.8382 O   0  0  0  0  0  0  0  0  0  0  0  0
  -35.3771    5.3330  -32.4773 C   0  0  0  0  0  0  0  0  0  0  0  0
  -36.0506    3.9828  -32.6712 C   0  0  0  0  0  0  0  0  0  0  0  0
  -37.5150    4.1283  -32.3550 C   0  0  0  0  0  0  0  0  0  0  0  0
  -37.8933    4.6307  -31.3019 O   0  0  0  0  0  0  0  0  0  0  0  0
  -38.3437    3.6267  -33.3204 N   0  0  0  0  0  0  0  0  0  0  0  0
  -39.7663    3.3851  -33.0550 C   0  0  2  0  0  0  0  0  0  0  0  0
  -40.0600    1.9365  -32.6321 C   0  0  0  0  0  0  0  0  0  0  0  0
  -41.2185    1.5070  -32.5612 O   0  0  0  0  0  0  0  0  0  0  0  0
  -40.6261    3.6600  -34.2939 C   0  0  0  0  0  0  0  0  0  0  0  0
  -40.8848    5.4281  -34.6928 S   0  0  0  0  0  0  0  0  0  0  0  0
  -41.4366    6.0338  -33.0662 C   0  0  0  0  0  0  0  0  0  0  0  0
  -42.6045    7.0084  -33.1650 C   0  0  0  0  0  0  0  0  0  0  0  0
  -43.9737    6.3523  -32.9531 C   0  0  0  0  0  0  0  0  0  0  0  0
  -44.6522    5.8816  -34.2430 C   0  0  0  0  0  0  0  0  0  0  0  0
  -44.4632    4.4138  -34.6371 C   0  0  0  0  0  0  0  0  0  0  0  0
  -44.4844    3.4277  -33.4808 C   0  0  0  0  0  0  0  0  0  0  0  0
  -38.9449    1.1721  -32.3578 N   0  0  0  0  0  0  0  0  0  0  0  0
  -39.1373   -0.0426  -31.5631 C   0  0  0  0  0  0  0  0  0  0  0  0
  -39.3306    0.1888  -30.0382 C   0  0  0  0  0  0  0  0  0  0  0  0
  -39.1368   -0.8429  -29.3317 O   0  0  0  0  0  0  0  0  0  0  0  0
  -39.5704    1.3740  -29.6770 O   0  0  0  0  0  0  0  0  0  0  0  0
  -33.5961    5.6809  -30.5232 H   0  0  0  0  0  0  0  0  0  0  0  0
  -32.2395    5.8992  -31.5262 H   0  0  0  0  0  0  0  0  0  0  0  0
  -33.5126    4.1681  -32.4879 H   0  0  0  0  0  0  0  0  0  0  0  0
  -35.7877    6.0370  -33.2140 H   0  0  0  0  0  0  0  0  0  0  0  0
  -35.6554    5.7388  -31.4954 H   0  0  0  0  0  0  0  0  0  0  0  0
  -35.6450    3.2385  -31.9730 H   0  0  0  0  0  0  0  0  0  0  0  0
  -35.8881    3.6072  -33.6861 H   0  0  0  0  0  0  0  0  0  0  0  0
  -37.9533    3.2091  -34.1552 H   0  0  0  0  0  0  0  0  0  0  0  0
  -40.0581    3.9911  -32.1914 H   0  0  0  0  0  0  0  0  0  0  0  0
  -41.6127    3.1967  -34.2165 H   0  0  0  0  0  0  0  0  0  0  0  0
  -40.1513    3.2060  -35.1727 H   0  0  0  0  0  0  0  0  0  0  0  0
  -40.5752    6.5424  -32.6286 H   0  0  0  0  0  0  0  0  0  0  0  0
  -41.7108    5.2088  -32.3944 H   0  0  0  0  0  0  0  0  0  0  0  0
  -42.5796    7.5925  -34.0916 H   0  0  0  0  0  0  0  0  0  0  0  0
  -42.4803    7.7344  -32.3508 H   0  0  0  0  0  0  0  0  0  0  0  0
  -44.6290    7.1074  -32.5018 H   0  0  0  0  0  0  0  0  0  0  0  0
  -43.9120    5.5647  -32.1963 H   0  0  0  0  0  0  0  0  0  0  0  0
  -44.3453    6.5148  -35.0854 H   0  0  0  0  0  0  0  0  0  0  0  0
  -45.7304    6.0529  -34.1286 H   0  0  0  0  0  0  0  0  0  0  0  0
  -43.5332    4.2934  -35.1979 H   0  0  0  0  0  0  0  0  0  0  0  0
  -45.2634    4.1463  -35.3389 H   0  0  0  0  0  0  0  0  0  0  0  0
  -44.4198    2.4023  -33.8558 H   0  0  0  0  0  0  0  0  0  0  0  0
  -45.4050    3.5263  -32.8976 H   0  0  0  0  0  0  0  0  0  0  0  0
  -43.6303    3.5715  -32.8127 H   0  0  0  0  0  0  0  0  0  0  0  0
  -38.1509    1.7191  -32.0621 H   0  0  0  0  0  0  0  0  0  0  0  0
  -38.2412   -0.6502  -31.7158 H   0  0  0  0  0  0  0  0  0  0  0  0
  -40.0022   -0.5865  -31.9548 H   0  0  0  0  0  0  0  0  0  0  0  0
  -33.4719    6.9538  -31.6573 H   0  0  0  0  0  0  0  0  0  0  0  0
  1  2  1  0  0  0  0
  1 27  1  0  0  0  0
  1 28  1  0  0  0  0
  1 54  1  0  0  0  0
  2  3  1  0  0  0  0
  2  6  1  0  0  0  0
  2 29  1  1  0  0  0
  3  4  2  0  0  0  0
  3  5  1  0  0  0  0
  6  7  1  0  0  0  0
  6 30  1  0  0  0  0
  6 31  1  0  0  0  0
  7  8  1  0  0  0  0
  7 32  1  0  0  0  0
  7 33  1  0  0  0  0
  8  9  2  0  0  0  0
  8 10  1  0  0  0  0
 10 11  1  0  0  0  0
 10 34  1  0  0  0  0
 11 12  1  0  0  0  0
 11 14  1  0  0  0  0
 11 35  1  1  0  0  0
 12 13  2  0  0  0  0
 12 22  1  0  0  0  0
 14 15  1  0  0  0  0
 14 36  1  0  0  0  0
 14 37  1  0  0  0  0
 15 16  1  0  0  0  0
 16 17  1  0  0  0  0
 16 38  1  0  0  0  0
 16 39  1  0  0  0  0
 17 18  1  0  0  0  0
 17 40  1  0  0  0  0
 17 41  1  0  0  0  0
 18 19  1  0  0  0  0
 18 42  1  0  0  0  0
 18 43  1  0  0  0  0
 19 20  1  0  0  0  0
 19 44  1  0  0  0  0
 19 45  1  0  0  0  0
 20 21  1  0  0  0  0
 20 46  1  0  0  0  0
 20 47  1  0  0  0  0
 21 48  1  0  0  0  0
 21 49  1  0  0  0  0
 21 50  1  0  0  0  0
 22 23  1  0  0  0  0
 22 51  1  0  0  0  0
 23 24  1  0  0  0  0
 23 52  1  0  0  0  0
 23 53  1  0  0  0  0
 24 25  2  0  0  0  0
 24 26  1  0  0  0  0
M  CHG  1   1   1
M  END
$$$$
