GV0
 OpenBabel04161910393D

 84 89  0  0  0  0  0  0  0  0999 V2000
   10.6923   -1.1917   95.8398 C   0  0  0  0  0  0  0  0  0  0  0  0
   10.5492    0.2083   96.4619 C   0  0  0  0  0  0  0  0  0  0  0  0
    9.2144    0.4531   97.0291 N   0  0  0  0  0  0  0  0  0  0  0  0
    9.1881    1.7666   97.6756 C   0  0  0  0  0  0  0  0  0  0  0  0
    8.9173   -0.5744   98.0243 C   0  0  0  0  0  0  0  0  0  0  0  0
    8.8969   -1.9363   97.3596 C   0  0  0  0  0  0  0  0  0  0  0  0
   10.2347   -2.3028   96.7761 N   0  3  0  0  0  0  0  0  0  0  0  0
   11.2618   -2.8994   97.7168 C   0  0  0  0  0  0  0  0  0  0  0  0
   12.1614   -1.8967   98.4053 C   0  0  0  0  0  0  0  0  0  0  0  0
   13.2636   -2.7069   99.0424 C   0  0  0  0  0  0  0  0  0  0  0  0
   10.6103   -3.8422   98.7238 C   0  0  0  0  0  0  0  0  0  0  0  0
   11.2731   -3.8774  100.0748 C   0  0  0  0  0  0  0  0  0  0  0  0
   12.6997   -3.6358  100.0216 N   0  0  0  0  0  0  0  0  0  0  0  0
   13.6048   -4.1873  100.9021 C   0  0  0  0  0  0  0  0  0  0  0  0
   14.7748   -3.9397  100.8164 O   0  0  0  0  0  0  0  0  0  0  0  0
   13.0464   -5.0170  101.8529 N   0  0  0  0  0  0  0  0  0  0  0  0
   13.7944   -5.7265  102.8026 C   0  0  0  0  0  0  0  0  0  0  0  0
   15.1105   -6.0886  102.5674 C   0  0  0  0  0  0  0  0  0  0  0  0
   13.1247   -6.0949  103.9245 N   0  0  0  0  0  0  0  0  0  0  0  0
   13.8266   -6.7844  104.8634 C   0  0  0  0  0  0  0  0  0  0  0  0
   15.1416   -7.1536  104.7126 C   0  0  0  0  0  0  0  0  0  0  0  0
   15.8001   -6.8063  103.5410 C   0  0  0  0  0  0  0  0  0  0  0  0
   17.1118   -7.1810  103.2929 O   0  0  0  0  0  0  0  0  0  0  0  0
   17.9105   -7.4057  104.3983 C   0  0  0  0  0  0  0  0  0  0  0  0
   18.1970   -6.3446  105.2515 C   0  0  0  0  0  0  0  0  0  0  0  0
   18.9749   -6.5813  106.3747 C   0  0  0  0  0  0  0  0  0  0  0  0
   19.2423   -5.5587  107.1951 F   0  0  0  0  0  0  0  0  0  0  0  0
   18.4451   -8.6729  104.6564 C   0  0  0  0  0  0  0  0  0  0  0  0
   19.2480   -8.8957  105.7860 C   0  0  0  0  0  0  0  0  0  0  0  0
   19.5070   -7.8299  106.6444 C   0  0  0  0  0  0  0  0  0  0  0  0
   20.2564   -7.9315  107.8156 N   0  0  0  0  0  0  0  0  0  0  0  0
   21.3111   -8.8001  108.0072 C   0  0  0  0  0  0  0  0  0  0  0  0
   21.7039   -9.5742  107.1610 O   0  0  0  0  0  0  0  0  0  0  0  0
   21.9960   -8.7224  109.3560 C   0  0  0  0  0  0  0  0  0  0  0  0
   23.5016   -9.0734  109.3578 C   0  0  0  0  0  0  0  0  0  0  0  0
   22.5176  -10.0628  109.9255 C   0  0  0  0  0  0  0  0  0  0  0  0
   21.4724   -7.6885  110.3479 C   0  0  0  0  0  0  0  0  0  0  0  0
   20.6388   -6.8520  110.0269 O   0  0  0  0  0  0  0  0  0  0  0  0
   22.0303   -7.7855  111.6064 N   0  0  0  0  0  0  0  0  0  0  0  0
   21.6934   -6.9212  112.6394 C   0  0  0  0  0  0  0  0  0  0  0  0
   22.7095   -6.4582  113.4568 C   0  0  0  0  0  0  0  0  0  0  0  0
   22.3929   -5.5894  114.5013 C   0  0  0  0  0  0  0  0  0  0  0  0
   21.0700   -5.2259  114.7406 C   0  0  0  0  0  0  0  0  0  0  0  0
   20.7794   -4.3987  115.7543 F   0  0  0  0  0  0  0  0  0  0  0  0
   20.0513   -5.7136  113.9356 C   0  0  0  0  0  0  0  0  0  0  0  0
   20.3676   -6.5684  112.8829 C   0  0  0  0  0  0  0  0  0  0  0  0
   11.7303   -1.3971   95.5748 H   0  0  0  0  0  0  0  0  0  0  0  0
   10.0582   -1.2681   94.9494 H   0  0  0  0  0  0  0  0  0  0  0  0
   10.7527    0.9437   95.6790 H   0  0  0  0  0  0  0  0  0  0  0  0
   11.2992    0.3320   97.2475 H   0  0  0  0  0  0  0  0  0  0  0  0
    8.1942    1.9618   98.0934 H   0  0  0  0  0  0  0  0  0  0  0  0
    9.4137    2.5519   96.9469 H   0  0  0  0  0  0  0  0  0  0  0  0
    9.9255    1.8121   98.4854 H   0  0  0  0  0  0  0  0  0  0  0  0
    7.9365   -0.4058   98.4692 H   0  0  0  0  0  0  0  0  0  0  0  0
    9.6692   -0.5613   98.8213 H   0  0  0  0  0  0  0  0  0  0  0  0
    8.1626   -1.9972   96.5516 H   0  0  0  0  0  0  0  0  0  0  0  0
    8.5765   -2.6826   98.0657 H   0  0  0  0  0  0  0  0  0  0  0  0
   11.8933   -3.5144   97.0616 H   0  0  0  0  0  0  0  0  0  0  0  0
   11.6266   -1.3483   99.1853 H   0  0  0  0  0  0  0  0  0  0  0  0
   12.6047   -1.1908   97.7019 H   0  0  0  0  0  0  0  0  0  0  0  0
   13.9997   -2.0441   99.5151 H   0  0  0  0  0  0  0  0  0  0  0  0
   13.7893   -3.2970   98.2743 H   0  0  0  0  0  0  0  0  0  0  0  0
   10.5567   -4.8450   98.2998 H   0  0  0  0  0  0  0  0  0  0  0  0
    9.5922   -3.5837   98.9688 H   0  0  0  0  0  0  0  0  0  0  0  0
   11.0760   -4.8608  100.5055 H   0  0  0  0  0  0  0  0  0  0  0  0
   10.8256   -3.1265  100.7457 H   0  0  0  0  0  0  0  0  0  0  0  0
   12.0609   -5.0952  101.9603 H   0  0  0  0  0  0  0  0  0  0  0  0
   15.6110   -5.8384  101.6344 H   0  0  0  0  0  0  0  0  0  0  0  0
   13.2926   -7.0638  105.7704 H   0  0  0  0  0  0  0  0  0  0  0  0
   15.6566   -7.6997  105.4962 H   0  0  0  0  0  0  0  0  0  0  0  0
   17.8166   -5.3598  105.0626 H   0  0  0  0  0  0  0  0  0  0  0  0
   18.2398   -9.4973  103.9817 H   0  0  0  0  0  0  0  0  0  0  0  0
   19.6332   -9.8901  105.9883 H   0  0  0  0  0  0  0  0  0  0  0  0
   20.0554   -7.2442  108.5389 H   0  0  0  0  0  0  0  0  0  0  0  0
   24.1837   -8.5422  110.0159 H   0  0  0  0  0  0  0  0  0  0  0  0
   23.9929   -9.2971  108.4109 H   0  0  0  0  0  0  0  0  0  0  0  0
   22.3069  -10.9852  109.3892 H   0  0  0  0  0  0  0  0  0  0  0  0
   22.4906  -10.2509  110.9957 H   0  0  0  0  0  0  0  0  0  0  0  0
   22.7494   -8.4632  111.7803 H   0  0  0  0  0  0  0  0  0  0  0  0
   23.7431   -6.7434  113.2695 H   0  0  0  0  0  0  0  0  0  0  0  0
   23.1839   -5.1996  115.1260 H   0  0  0  0  0  0  0  0  0  0  0  0
   19.0231   -5.4273  114.1157 H   0  0  0  0  0  0  0  0  0  0  0  0
   19.5707   -6.9864  112.2726 H   0  0  0  0  0  0  0  0  0  0  0  0
   10.0249   -3.0680   96.1445 H   0  0  0  0  0  0  0  0  0  0  0  0
  1  2  1  0  0  0  0
  1  7  1  0  0  0  0
  1 47  1  0  0  0  0
  1 48  1  0  0  0  0
  2  3  1  0  0  0  0
  2 49  1  0  0  0  0
  2 50  1  0  0  0  0
  3  4  1  0  0  0  0
  3  5  1  0  0  0  0
  4 51  1  0  0  0  0
  4 52  1  0  0  0  0
  4 53  1  0  0  0  0
  5  6  1  0  0  0  0
  5 54  1  0  0  0  0
  5 55  1  0  0  0  0
  6  7  1  0  0  0  0
  6 56  1  0  0  0  0
  6 57  1  0  0  0  0
  7  8  1  0  0  0  0
  7 84  1  0  0  0  0
  8  9  1  0  0  0  0
  8 11  1  0  0  0  0
  8 58  1  0  0  0  0
  9 10  1  0  0  0  0
  9 59  1  0  0  0  0
  9 60  1  0  0  0  0
 10 13  1  0  0  0  0
 10 61  1  0  0  0  0
 10 62  1  0  0  0  0
 11 12  1  0  0  0  0
 11 63  1  0  0  0  0
 11 64  1  0  0  0  0
 12 13  1  0  0  0  0
 12 65  1  0  0  0  0
 12 66  1  0  0  0  0
 13 14  1  0  0  0  0
 14 15  2  0  0  0  0
 14 16  1  0  0  0  0
 16 17  1  0  0  0  0
 16 67  1  0  0  0  0
 17 18  2  0  0  0  0
 17 19  1  0  0  0  0
 18 22  1  0  0  0  0
 18 68  1  0  0  0  0
 19 20  2  0  0  0  0
 20 21  1  0  0  0  0
 20 69  1  0  0  0  0
 21 22  2  0  0  0  0
 21 70  1  0  0  0  0
 22 23  1  0  0  0  0
 23 24  1  0  0  0  0
 24 25  2  0  0  0  0
 24 28  1  0  0  0  0
 25 26  1  0  0  0  0
 25 71  1  0  0  0  0
 26 27  1  0  0  0  0
 26 30  2  0  0  0  0
 28 29  2  0  0  0  0
 28 72  1  0  0  0  0
 29 30  1  0  0  0  0
 29 73  1  0  0  0  0
 30 31  1  0  0  0  0
 31 32  1  0  0  0  0
 31 74  1  0  0  0  0
 32 33  2  0  0  0  0
 32 34  1  0  0  0  0
 34 35  1  0  0  0  0
 34 36  1  0  0  0  0
 34 37  1  0  0  0  0
 35 36  1  0  0  0  0
 35 75  1  0  0  0  0
 35 76  1  0  0  0  0
 36 77  1  0  0  0  0
 36 78  1  0  0  0  0
 37 38  2  0  0  0  0
 37 39  1  0  0  0  0
 39 40  1  0  0  0  0
 39 79  1  0  0  0  0
 40 41  2  0  0  0  0
 40 46  1  0  0  0  0
 41 42  1  0  0  0  0
 41 80  1  0  0  0  0
 42 43  2  0  0  0  0
 42 81  1  0  0  0  0
 43 44  1  0  0  0  0
 43 45  1  0  0  0  0
 45 46  2  0  0  0  0
 45 82  1  0  0  0  0
 46 83  1  0  0  0  0
M  CHG  1   7   1
M  END
$$$$
