GY7
 OpenBabel04161912163D

 55 58  0  0  1  0  0  0  0  0999 V2000
  -10.2823   82.0580   13.8691 C   0  0  0  0  0  0  0  0  0  0  0  0
   -7.7941   84.4379   18.8688 C   0  0  0  0  0  0  0  0  0  0  0  0
   -6.7012   83.6041   19.1340 C   0  0  0  0  0  0  0  0  0  0  0  0
   -5.4739   83.8318   18.5155 C   0  0  0  0  0  0  0  0  0  0  0  0
   -5.3308   84.8850   17.6168 C   0  0  0  0  0  0  0  0  0  0  0  0
   -6.4179   85.7091   17.3350 C   0  0  0  0  0  0  0  0  0  0  0  0
   -7.6465   85.4858   17.9555 C   0  0  0  0  0  0  0  0  0  0  0  0
  -10.1565   78.8369   17.0475 C   0  0  0  0  0  0  0  0  0  0  0  0
   -9.5042   77.9091   16.0259 C   0  0  0  0  0  0  0  0  0  0  0  0
   -5.4832   80.0685   15.3661 C   0  0  0  0  0  0  0  0  0  0  0  0
   -5.3949   81.3825   16.1330 C   0  0  0  0  0  0  0  0  0  0  0  0
   -9.1094   81.5739   13.2857 C   0  0  0  0  0  0  0  0  0  0  0  0
   -5.9082   82.3803   15.1084 C   0  0  0  0  0  0  0  0  0  0  0  0
   -9.1832   80.4383   12.4854 C   0  0  0  0  0  0  0  0  0  0  0  0
  -10.3964   79.7825   12.2736 C   0  0  0  0  0  0  0  0  0  0  0  0
  -11.5609   80.2692   12.8626 C   0  0  0  0  0  0  0  0  0  0  0  0
  -11.5041   81.4100   13.6620 C   0  0  0  0  0  0  0  0  0  0  0  0
   -7.8226   82.2551   13.5402 C   0  0  0  0  0  0  0  0  0  0  0  0
   -6.8306   80.1886   14.6493 C   0  0  1  0  0  0  0  0  0  0  0  0
   -7.9956   79.7038   15.5243 C   0  0  0  0  0  0  0  0  0  0  0  0
   -9.5834   80.0585   17.1268 C   0  0  0  0  0  0  0  0  0  0  0  0
  -10.1682   81.0720   18.1034 C   0  0  0  0  0  0  0  0  0  0  0  0
  -10.1345   83.4896   18.6385 C   0  0  0  0  0  0  0  0  0  0  0  0
   -9.1205   84.1770   19.5393 C   0  0  0  0  0  0  0  0  0  0  0  0
  -10.2699   83.1504   14.6475 F   0  0  0  0  0  0  0  0  0  0  0  0
   -8.0833   79.9316   11.9103 F   0  0  0  0  0  0  0  0  0  0  0  0
   -6.9123   81.6281   14.3672 N   0  0  0  0  0  0  0  0  0  0  0  0
   -8.5073   80.5092   16.3870 N   0  0  0  0  0  0  0  0  0  0  0  0
   -9.5893   82.3252   17.9807 N   0  0  0  0  0  0  0  0  0  0  0  0
   -8.4419   78.4286   15.3508 N   0  3  0  0  0  0  0  0  0  0  0  0
   -7.6329   83.3747   13.0723 O   0  0  0  0  0  0  0  0  0  0  0  0
  -11.0411   80.8847   18.9407 O   0  0  0  0  0  0  0  0  0  0  0  0
  -11.1473   78.3125   17.6530 O   0  0  0  0  0  0  0  0  0  0  0  0
   -9.8360   76.7426   15.8020 O   0  0  0  0  0  0  0  0  0  0  0  0
   -6.8104   82.7660   19.8194 H   0  0  0  0  0  0  0  0  0  0  0  0
   -4.6355   83.1750   18.7243 H   0  0  0  0  0  0  0  0  0  0  0  0
   -4.3793   85.0521   17.1218 H   0  0  0  0  0  0  0  0  0  0  0  0
   -6.3104   86.5248   16.6270 H   0  0  0  0  0  0  0  0  0  0  0  0
   -8.4895   86.1311   17.7242 H   0  0  0  0  0  0  0  0  0  0  0  0
   -5.4026   79.1960   16.0158 H   0  0  0  0  0  0  0  0  0  0  0  0
   -4.6712   80.0390   14.6258 H   0  0  0  0  0  0  0  0  0  0  0  0
   -4.3889   81.6147   16.4876 H   0  0  0  0  0  0  0  0  0  0  0  0
   -6.0681   81.3509   16.9981 H   0  0  0  0  0  0  0  0  0  0  0  0
   -5.1047   82.6922   14.4315 H   0  0  0  0  0  0  0  0  0  0  0  0
   -6.3453   83.2706   15.5666 H   0  0  0  0  0  0  0  0  0  0  0  0
  -10.4296   78.8908   11.6553 H   0  0  0  0  0  0  0  0  0  0  0  0
  -12.5072   79.7559   12.7101 H   0  0  0  0  0  0  0  0  0  0  0  0
  -12.4059   81.7879   14.1373 H   0  0  0  0  0  0  0  0  0  0  0  0
   -6.8086   79.6202   13.7178 H   0  0  0  0  0  0  0  0  0  0  0  0
  -10.4747   84.1764   17.8575 H   0  0  0  0  0  0  0  0  0  0  0  0
  -11.0107   83.2110   19.2370 H   0  0  0  0  0  0  0  0  0  0  0  0
   -9.5376   85.1323   19.8799 H   0  0  0  0  0  0  0  0  0  0  0  0
   -8.9609   83.5631   20.4337 H   0  0  0  0  0  0  0  0  0  0  0  0
   -8.7858   82.3980   17.3694 H   0  0  0  0  0  0  0  0  0  0  0  0
   -8.0486   77.8045   14.6636 H   0  0  0  0  0  0  0  0  0  0  0  0
  1 12  2  0  0  0  0
  1 17  1  0  0  0  0
  1 25  1  0  0  0  0
  2  3  2  0  0  0  0
  2  7  1  0  0  0  0
  2 24  1  0  0  0  0
  3  4  1  0  0  0  0
  3 35  1  0  0  0  0
  4  5  2  0  0  0  0
  4 36  1  0  0  0  0
  5  6  1  0  0  0  0
  5 37  1  0  0  0  0
  6  7  2  0  0  0  0
  6 38  1  0  0  0  0
  7 39  1  0  0  0  0
  8  9  1  0  0  0  0
  8 21  2  0  0  0  0
  8 33  1  0  0  0  0
  9 30  1  0  0  0  0
  9 34  2  0  0  0  0
 10 11  1  0  0  0  0
 10 19  1  0  0  0  0
 10 40  1  0  0  0  0
 10 41  1  0  0  0  0
 11 13  1  0  0  0  0
 11 42  1  0  0  0  0
 11 43  1  0  0  0  0
 12 14  1  0  0  0  0
 12 18  1  0  0  0  0
 13 27  1  0  0  0  0
 13 44  1  0  0  0  0
 13 45  1  0  0  0  0
 14 15  2  0  0  0  0
 14 26  1  0  0  0  0
 15 16  1  0  0  0  0
 15 46  1  0  0  0  0
 16 17  2  0  0  0  0
 16 47  1  0  0  0  0
 17 48  1  0  0  0  0
 18 27  1  0  0  0  0
 18 31  2  0  0  0  0
 19 20  1  0  0  0  0
 19 27  1  0  0  0  0
 19 49  1  6  0  0  0
 20 28  2  0  0  0  0
 20 30  1  0  0  0  0
 21 22  1  0  0  0  0
 21 28  1  0  0  0  0
 22 29  1  0  0  0  0
 22 32  2  0  0  0  0
 23 24  1  0  0  0  0
 23 29  1  0  0  0  0
 23 50  1  0  0  0  0
 23 51  1  0  0  0  0
 24 52  1  0  0  0  0
 24 53  1  0  0  0  0
 29 54  1  0  0  0  0
 30 55  1  0  0  0  0
M  CHG  1  30   1
M  END
$$$$
