H8H
 OpenBabel04161912113D

 71 76  0  0  0  0  0  0  0  0999 V2000
   -6.7297    6.9978    3.7600 C   0  0  0  0  0  0  0  0  0  0  0  0
   -7.4680    6.1504    2.8223 N   0  0  0  0  0  0  0  0  0  0  0  0
   -6.7363    4.8973    2.5812 C   0  0  0  0  0  0  0  0  0  0  0  0
   -7.4772    3.9720    1.6078 C   0  0  0  0  0  0  0  0  0  0  0  0
   -8.9010    3.7029    2.0745 N   0  3  0  0  0  0  0  0  0  0  0  0
   -9.6009    2.8512    1.0339 C   0  0  0  0  0  0  0  0  0  0  0  0
  -10.8700    2.1982    1.5639 C   0  0  0  0  0  0  0  0  0  0  0  0
  -11.9063    3.1767    1.5866 O   0  0  0  0  0  0  0  0  0  0  0  0
  -13.1534    2.7083    1.8853 C   0  0  0  0  0  0  0  0  0  0  0  0
  -14.1211    3.6899    2.0151 C   0  0  0  0  0  0  0  0  0  0  0  0
  -15.4320    3.3255    2.3101 C   0  0  0  0  0  0  0  0  0  0  0  0
  -16.4283    4.2351    2.4872 O   0  0  0  0  0  0  0  0  0  0  0  0
  -16.3198    5.5838    2.0058 C   0  0  0  0  0  0  0  0  0  0  0  0
  -16.3422    5.5859    0.4719 C   0  0  0  0  0  0  0  0  0  0  0  0
  -17.1713    6.6895   -0.1511 C   0  0  0  0  0  0  0  0  0  0  0  0
  -18.3918    6.8615    0.5508 O   0  0  0  0  0  0  0  0  0  0  0  0
  -18.1655    7.3489    1.8654 C   0  0  0  0  0  0  0  0  0  0  0  0
  -17.4788    6.2978    2.7034 C   0  0  0  0  0  0  0  0  0  0  0  0
  -15.7971    1.9535    2.4671 C   0  0  0  0  0  0  0  0  0  0  0  0
  -17.0916    1.4300    2.7331 C   0  0  0  0  0  0  0  0  0  0  0  0
  -18.1694    2.3036    3.0001 N   0  0  0  0  0  0  0  0  0  0  0  0
  -19.5014    1.9059    3.2375 C   0  0  0  0  0  0  0  0  0  0  0  0
  -19.8278    1.0343    4.2701 C   0  0  0  0  0  0  0  0  0  0  0  0
  -18.9610    0.5409    5.2039 O   0  0  0  0  0  0  0  0  0  0  0  0
  -19.8291   -0.3052    5.9724 C   0  0  0  0  0  0  0  0  0  0  0  0
  -21.2114   -0.2195    5.5737 O   0  0  0  0  0  0  0  0  0  0  0  0
  -21.1171    0.6043    4.4955 C   0  0  0  0  0  0  0  0  0  0  0  0
  -22.1698    1.0036    3.7011 C   0  0  0  0  0  0  0  0  0  0  0  0
  -21.8871    1.8587    2.6337 C   0  0  0  0  0  0  0  0  0  0  0  0
  -20.5667    2.3000    2.4024 C   0  0  0  0  0  0  0  0  0  0  0  0
  -20.2837    3.3340    1.0425 Cl  0  0  0  0  0  0  0  0  0  0  0  0
  -17.3137    0.1023    2.8042 N   0  0  0  0  0  0  0  0  0  0  0  0
  -16.2706   -0.7103    2.6706 C   0  0  0  0  0  0  0  0  0  0  0  0
  -15.0117   -0.3272    2.4407 N   0  0  0  0  0  0  0  0  0  0  0  0
  -14.8044    0.9821    2.3273 C   0  0  0  0  0  0  0  0  0  0  0  0
  -13.5036    1.3714    2.0511 C   0  0  0  0  0  0  0  0  0  0  0  0
   -9.6346    5.0134    2.3523 C   0  0  0  0  0  0  0  0  0  0  0  0
   -8.8248    5.8872    3.3257 C   0  0  0  0  0  0  0  0  0  0  0  0
   -5.7373    7.2331    3.3610 H   0  0  0  0  0  0  0  0  0  0  0  0
   -6.6079    6.5114    4.7343 H   0  0  0  0  0  0  0  0  0  0  0  0
   -7.2504    7.9496    3.9077 H   0  0  0  0  0  0  0  0  0  0  0  0
   -6.5611    4.3632    3.5238 H   0  0  0  0  0  0  0  0  0  0  0  0
   -5.7571    5.1213    2.1415 H   0  0  0  0  0  0  0  0  0  0  0  0
   -6.9737    3.0011    1.5466 H   0  0  0  0  0  0  0  0  0  0  0  0
   -7.5462    4.4160    0.6084 H   0  0  0  0  0  0  0  0  0  0  0  0
   -8.8959    2.0664    0.7443 H   0  0  0  0  0  0  0  0  0  0  0  0
   -9.8070    3.5000    0.1749 H   0  0  0  0  0  0  0  0  0  0  0  0
  -10.7115    1.7992    2.5756 H   0  0  0  0  0  0  0  0  0  0  0  0
  -11.1244    1.3954    0.8719 H   0  0  0  0  0  0  0  0  0  0  0  0
  -13.8295    4.7252    1.8823 H   0  0  0  0  0  0  0  0  0  0  0  0
  -15.3938    6.0461    2.3706 H   0  0  0  0  0  0  0  0  0  0  0  0
  -16.7131    4.6206    0.1056 H   0  0  0  0  0  0  0  0  0  0  0  0
  -15.3153    5.6644    0.0889 H   0  0  0  0  0  0  0  0  0  0  0  0
  -17.4107    6.4223   -1.1859 H   0  0  0  0  0  0  0  0  0  0  0  0
  -16.6231    7.6379   -0.1806 H   0  0  0  0  0  0  0  0  0  0  0  0
  -19.1374    7.5835    2.3105 H   0  0  0  0  0  0  0  0  0  0  0  0
  -17.5852    8.2765    1.8279 H   0  0  0  0  0  0  0  0  0  0  0  0
  -17.1163    6.7455    3.6378 H   0  0  0  0  0  0  0  0  0  0  0  0
  -18.2292    5.5595    3.0157 H   0  0  0  0  0  0  0  0  0  0  0  0
  -18.0962    3.1617    2.4608 H   0  0  0  0  0  0  0  0  0  0  0  0
  -19.7458   -0.0162    7.0256 H   0  0  0  0  0  0  0  0  0  0  0  0
  -19.4953   -1.3444    5.8667 H   0  0  0  0  0  0  0  0  0  0  0  0
  -23.1798    0.6620    3.9001 H   0  0  0  0  0  0  0  0  0  0  0  0
  -22.6954    2.1786    1.9793 H   0  0  0  0  0  0  0  0  0  0  0  0
  -16.4593   -1.7721    2.7588 H   0  0  0  0  0  0  0  0  0  0  0  0
  -12.7775    0.5718    1.9661 H   0  0  0  0  0  0  0  0  0  0  0  0
  -10.5995    4.7715    2.8035 H   0  0  0  0  0  0  0  0  0  0  0  0
   -9.7810    5.5182    1.3908 H   0  0  0  0  0  0  0  0  0  0  0  0
   -9.3635    6.8340    3.4554 H   0  0  0  0  0  0  0  0  0  0  0  0
   -8.7854    5.3949    4.3060 H   0  0  0  0  0  0  0  0  0  0  0  0
   -8.8447    3.1877    2.9640 H   0  0  0  0  0  0  0  0  0  0  0  0
  1  2  1  0  0  0  0
  1 39  1  0  0  0  0
  1 40  1  0  0  0  0
  1 41  1  0  0  0  0
  2  3  1  0  0  0  0
  2 38  1  0  0  0  0
  3  4  1  0  0  0  0
  3 42  1  0  0  0  0
  3 43  1  0  0  0  0
  4  5  1  0  0  0  0
  4 44  1  0  0  0  0
  4 45  1  0  0  0  0
  5  6  1  0  0  0  0
  5 37  1  0  0  0  0
  5 71  1  0  0  0  0
  6  7  1  0  0  0  0
  6 46  1  0  0  0  0
  6 47  1  0  0  0  0
  7  8  1  0  0  0  0
  7 48  1  0  0  0  0
  7 49  1  0  0  0  0
  8  9  1  0  0  0  0
  9 10  2  0  0  0  0
  9 36  1  0  0  0  0
 10 11  1  0  0  0  0
 10 50  1  0  0  0  0
 11 12  1  0  0  0  0
 11 19  2  0  0  0  0
 12 13  1  0  0  0  0
 13 14  1  0  0  0  0
 13 18  1  0  0  0  0
 13 51  1  0  0  0  0
 14 15  1  0  0  0  0
 14 52  1  0  0  0  0
 14 53  1  0  0  0  0
 15 16  1  0  0  0  0
 15 54  1  0  0  0  0
 15 55  1  0  0  0  0
 16 17  1  0  0  0  0
 17 18  1  0  0  0  0
 17 56  1  0  0  0  0
 17 57  1  0  0  0  0
 18 58  1  0  0  0  0
 18 59  1  0  0  0  0
 19 20  1  0  0  0  0
 19 35  1  0  0  0  0
 20 21  1  0  0  0  0
 20 32  2  0  0  0  0
 21 22  1  0  0  0  0
 21 60  1  0  0  0  0
 22 23  2  0  0  0  0
 22 30  1  0  0  0  0
 23 24  1  0  0  0  0
 23 27  1  0  0  0  0
 24 25  1  0  0  0  0
 25 26  1  0  0  0  0
 25 61  1  0  0  0  0
 25 62  1  0  0  0  0
 26 27  1  0  0  0  0
 27 28  2  0  0  0  0
 28 29  1  0  0  0  0
 28 63  1  0  0  0  0
 29 30  2  0  0  0  0
 29 64  1  0  0  0  0
 30 31  1  0  0  0  0
 32 33  1  0  0  0  0
 33 34  2  0  0  0  0
 33 65  1  0  0  0  0
 34 35  1  0  0  0  0
 35 36  2  0  0  0  0
 36 66  1  0  0  0  0
 37 38  1  0  0  0  0
 37 67  1  0  0  0  0
 37 68  1  0  0  0  0
 38 69  1  0  0  0  0
 38 70  1  0  0  0  0
M  CHG  1   5   1
M  END
$$$$
