HQE
 OpenBabel04161910353D

 14 14  0  0  0  0  0  0  0  0999 V2000
    2.1934   99.2953   26.0958 C   0  0  0  0  0  0  0  0  0  0  0  0
    1.4666   99.9807   25.1261 C   0  0  0  0  0  0  0  0  0  0  0  0
    2.1355  100.6027   24.0761 C   0  0  0  0  0  0  0  0  0  0  0  0
    1.3895  101.2684   23.1484 O   0  0  0  0  0  0  0  0  0  0  0  0
    3.5236  100.5513   23.9814 C   0  0  0  0  0  0  0  0  0  0  0  0
    4.2554   99.8536   24.9520 C   0  0  0  0  0  0  0  0  0  0  0  0
    3.5818   99.2290   25.9936 C   0  0  0  0  0  0  0  0  0  0  0  0
    4.2558   98.5366   26.9531 O   0  0  0  0  0  0  0  0  0  0  0  0
    1.6894   98.8049   26.9222 H   0  0  0  0  0  0  0  0  0  0  0  0
    0.3810  100.0338   25.1890 H   0  0  0  0  0  0  0  0  0  0  0  0
    1.9874  101.6599   22.4926 H   0  0  0  0  0  0  0  0  0  0  0  0
    4.0502  101.0463   23.1721 H   0  0  0  0  0  0  0  0  0  0  0  0
    5.3376   99.8255   24.8886 H   0  0  0  0  0  0  0  0  0  0  0  0
    4.8734   97.9409   26.4972 H   0  0  0  0  0  0  0  0  0  0  0  0
  1  2  2  0  0  0  0
  1  7  1  0  0  0  0
  1  9  1  0  0  0  0
  2  3  1  0  0  0  0
  2 10  1  0  0  0  0
  3  4  1  0  0  0  0
  3  5  2  0  0  0  0
  4 11  1  0  0  0  0
  5  6  1  0  0  0  0
  5 12  1  0  0  0  0
  6  7  2  0  0  0  0
  6 13  1  0  0  0  0
  7  8  1  0  0  0  0
  8 14  1  0  0  0  0
M  END
$$$$
