I74
 OpenBabel04161910483D

 60 63  0  0  1  0  0  0  0  0999 V2000
    0.2220  -11.3736  -24.6570 O   0  0  0  0  0  0  0  0  0  0  0  0
   -0.8088  -10.3951  -24.5622 C   0  0  1  0  0  0  0  0  0  0  0  0
   -0.6965   -9.7550  -23.1704 C   0  0  0  0  0  0  0  0  0  0  0  0
   -1.6383   -8.6082  -23.0190 N   0  3  0  0  0  0  0  0  0  0  0  0
   -1.4773   -7.5399  -24.0437 C   0  0  0  0  0  0  0  0  0  0  0  0
   -1.5790   -8.1394  -25.4316 C   0  0  0  0  0  0  0  0  0  0  0  0
   -0.6352   -9.3295  -25.6497 C   0  0  2  0  0  0  0  0  0  0  0  0
   -0.8262   -9.9070  -27.0674 C   0  0  0  0  0  0  0  0  0  0  0  0
    0.3940   -9.7330  -27.8184 N   0  0  0  0  0  0  0  0  0  0  0  0
    0.8144   -8.5068  -28.2796 C   0  0  0  0  0  0  0  0  0  0  0  0
    2.2012   -8.4322  -28.8286 C   0  0  0  0  0  0  0  0  0  0  0  0
    2.6321   -7.2461  -29.2995 C   0  0  0  0  0  0  0  0  0  0  0  0
    1.7424   -6.1528  -29.2605 N   0  3  0  0  0  0  0  0  0  0  0  0
    1.9765   -4.8827  -29.6900 N   0  0  0  0  0  0  0  0  0  0  0  0
    0.8788   -4.2122  -29.3408 C   0  0  0  0  0  0  0  0  0  0  0  0
   -0.0846   -5.0113  -28.6883 C   0  0  0  0  0  0  0  0  0  0  0  0
   -1.3912   -4.5389  -28.1249 C   0  0  0  0  0  0  0  0  0  0  0  0
   -2.5648   -5.4550  -28.4759 C   0  0  0  0  0  0  0  0  0  0  0  0
   -1.2998   -4.3317  -26.6101 C   0  0  0  0  0  0  0  0  0  0  0  0
    0.4792   -6.2750  -28.6754 C   0  0  0  0  0  0  0  0  0  0  0  0
    0.0211   -7.4689  -28.1935 N   0  0  0  0  0  0  0  0  0  0  0  0
    3.9065   -7.0392  -29.7920 N   0  0  0  0  0  0  0  0  0  0  0  0
    5.0706   -7.8734  -29.6105 C   0  0  0  0  0  0  0  0  0  0  0  0
    5.1231   -8.9422  -30.6672 C   0  0  0  0  0  0  0  0  0  0  0  0
    5.0305  -10.3010  -30.3250 C   0  0  0  0  0  0  0  0  0  0  0  0
    5.0628  -11.2819  -31.3156 C   0  0  0  0  0  0  0  0  0  0  0  0
    5.1938  -10.9142  -32.6528 C   0  0  0  0  0  0  0  0  0  0  0  0
    5.2886   -9.5687  -33.0029 C   0  0  0  0  0  0  0  0  0  0  0  0
    5.2528   -8.5870  -32.0155 C   0  0  0  0  0  0  0  0  0  0  0  0
    0.2162  -11.7879  -25.5387 H   0  0  0  0  0  0  0  0  0  0  0  0
   -1.7773  -10.8998  -24.6613 H   0  0  0  0  0  0  0  0  0  0  0  0
    0.3165   -9.3788  -22.9829 H   0  0  0  0  0  0  0  0  0  0  0  0
   -0.9351  -10.4780  -22.3843 H   0  0  0  0  0  0  0  0  0  0  0  0
   -2.6084   -8.9506  -23.0116 H   0  0  0  0  0  0  0  0  0  0  0  0
   -0.5093   -7.0583  -23.8714 H   0  0  0  0  0  0  0  0  0  0  0  0
   -2.2744   -6.8096  -23.8719 H   0  0  0  0  0  0  0  0  0  0  0  0
   -1.3270   -7.3563  -26.1459 H   0  0  0  0  0  0  0  0  0  0  0  0
   -2.6157   -8.4241  -25.6448 H   0  0  0  0  0  0  0  0  0  0  0  0
    0.3944   -8.9533  -25.5525 H   0  0  0  0  0  0  0  0  0  0  0  0
   -1.6556   -9.4259  -27.5998 H   0  0  0  0  0  0  0  0  0  0  0  0
   -1.0708  -10.9742  -27.0440 H   0  0  0  0  0  0  0  0  0  0  0  0
    1.0846  -10.4743  -27.7568 H   0  0  0  0  0  0  0  0  0  0  0  0
    2.7921   -9.3244  -28.8282 H   0  0  0  0  0  0  0  0  0  0  0  0
    0.8288   -3.1514  -29.5606 H   0  0  0  0  0  0  0  0  0  0  0  0
   -1.6094   -3.5589  -28.5689 H   0  0  0  0  0  0  0  0  0  0  0  0
   -3.5051   -5.0385  -28.0992 H   0  0  0  0  0  0  0  0  0  0  0  0
   -2.4545   -6.4538  -28.0430 H   0  0  0  0  0  0  0  0  0  0  0  0
   -2.6581   -5.5724  -29.5610 H   0  0  0  0  0  0  0  0  0  0  0  0
   -0.4763   -3.6575  -26.3511 H   0  0  0  0  0  0  0  0  0  0  0  0
   -1.1184   -5.2696  -26.0824 H   0  0  0  0  0  0  0  0  0  0  0  0
   -2.2272   -3.9019  -26.2176 H   0  0  0  0  0  0  0  0  0  0  0  0
    3.9999   -6.2047  -30.3769 H   0  0  0  0  0  0  0  0  0  0  0  0
    5.0560   -8.3175  -28.6077 H   0  0  0  0  0  0  0  0  0  0  0  0
    5.9783   -7.2615  -29.6575 H   0  0  0  0  0  0  0  0  0  0  0  0
    4.9260  -10.6043  -29.2864 H   0  0  0  0  0  0  0  0  0  0  0  0
    4.9876  -12.3325  -31.0471 H   0  0  0  0  0  0  0  0  0  0  0  0
    5.2228  -11.6765  -33.4265 H   0  0  0  0  0  0  0  0  0  0  0  0
    5.3883   -9.2809  -34.0458 H   0  0  0  0  0  0  0  0  0  0  0  0
    5.3165   -7.5390  -32.3000 H   0  0  0  0  0  0  0  0  0  0  0  0
   -1.4865   -8.1890  -22.0909 H   0  0  0  0  0  0  0  0  0  0  0  0
  1  2  1  0  0  0  0
  1 30  1  0  0  0  0
  2  3  1  0  0  0  0
  2  7  1  0  0  0  0
  2 31  1  6  0  0  0
  3  4  1  0  0  0  0
  3 32  1  0  0  0  0
  3 33  1  0  0  0  0
  4  5  1  0  0  0  0
  4 34  1  0  0  0  0
  4 60  1  0  0  0  0
  5  6  1  0  0  0  0
  5 35  1  0  0  0  0
  5 36  1  0  0  0  0
  6  7  1  0  0  0  0
  6 37  1  0  0  0  0
  6 38  1  0  0  0  0
  7  8  1  0  0  0  0
  7 39  1  1  0  0  0
  8  9  1  0  0  0  0
  8 40  1  0  0  0  0
  8 41  1  0  0  0  0
  9 10  1  0  0  0  0
  9 42  1  0  0  0  0
 10 11  2  0  0  0  0
 10 21  1  0  0  0  0
 11 12  1  0  0  0  0
 11 43  1  0  0  0  0
 12 13  2  0  0  0  0
 12 22  1  0  0  0  0
 13 14  1  0  0  0  0
 13 20  1  0  0  0  0
 14 15  1  0  0  0  0
 15 16  2  0  0  0  0
 15 44  1  0  0  0  0
 16 17  1  0  0  0  0
 16 20  1  0  0  0  0
 17 18  1  0  0  0  0
 17 19  1  0  0  0  0
 17 45  1  0  0  0  0
 18 46  1  0  0  0  0
 18 47  1  0  0  0  0
 18 48  1  0  0  0  0
 19 49  1  0  0  0  0
 19 50  1  0  0  0  0
 19 51  1  0  0  0  0
 20 21  2  0  0  0  0
 22 23  1  0  0  0  0
 22 52  1  0  0  0  0
 23 24  1  0  0  0  0
 23 53  1  0  0  0  0
 23 54  1  0  0  0  0
 24 25  2  0  0  0  0
 24 29  1  0  0  0  0
 25 26  1  0  0  0  0
 25 55  1  0  0  0  0
 26 27  2  0  0  0  0
 26 56  1  0  0  0  0
 27 28  1  0  0  0  0
 27 57  1  0  0  0  0
 28 29  2  0  0  0  0
 28 58  1  0  0  0  0
 29 59  1  0  0  0  0
M  CHG  2   4   1  13   1
M  END
$$$$
