IO2
 OpenBabel04161910173D

 31 32  0  0  0  0  0  0  0  0999 V2000
   -0.4285    9.2744   14.4462 C   0  0  0  0  0  0  0  0  0  0  0  0
   -0.1638    8.6130   13.2518 C   0  0  0  0  0  0  0  0  0  0  0  0
   -1.0842    7.6961   12.7454 C   0  0  0  0  0  0  0  0  0  0  0  0
   -2.2839    7.4282   13.4222 C   0  0  0  0  0  0  0  0  0  0  0  0
   -2.5373    8.0983   14.6264 C   0  0  0  0  0  0  0  0  0  0  0  0
   -1.6115    9.0127   15.1360 C   0  0  0  0  0  0  0  0  0  0  0  0
   -3.2345    6.4181   12.8184 C   0  0  0  0  0  0  0  0  0  0  0  0
   -4.4925    6.3347   13.4888 O   0  0  0  0  0  0  0  0  0  0  0  0
   -4.7010    5.2810   14.3359 C   0  0  0  0  0  0  0  0  0  0  0  0
   -3.7634    4.3020   14.6607 C   0  0  0  0  0  0  0  0  0  0  0  0
   -4.0915    3.2796   15.5524 C   0  0  0  0  0  0  0  0  0  0  0  0
   -5.3457    3.2324   16.1576 C   0  0  0  0  0  0  0  0  0  0  0  0
   -6.2924    4.2091   15.8272 C   0  0  0  0  0  0  0  0  0  0  0  0
   -5.9693    5.2269   14.9201 C   0  0  0  0  0  0  0  0  0  0  0  0
   -5.6521    2.1171   17.1207 C   0  0  0  0  0  0  0  0  0  0  0  0
   -6.3704    0.9644   16.4253 C   0  0  0  0  0  0  0  0  0  0  0  0
   -5.6247    0.0328   16.0067 O   0  0  0  0  0  0  0  0  0  0  0  0
   -7.6377    1.0511   16.4023 O   0  0  0  0  0  0  0  0  0  0  0  0
    0.2870    9.9878   14.8457 H   0  0  0  0  0  0  0  0  0  0  0  0
    0.7613    8.8038   12.7127 H   0  0  0  0  0  0  0  0  0  0  0  0
   -0.8632    7.1797   11.8132 H   0  0  0  0  0  0  0  0  0  0  0  0
   -3.4527    7.9072   15.1848 H   0  0  0  0  0  0  0  0  0  0  0  0
   -1.8214    9.5224   16.0712 H   0  0  0  0  0  0  0  0  0  0  0  0
   -2.7221    5.4593   12.7171 H   0  0  0  0  0  0  0  0  0  0  0  0
   -3.4517    6.7352   11.7932 H   0  0  0  0  0  0  0  0  0  0  0  0
   -2.7634    4.2705   14.2566 H   0  0  0  0  0  0  0  0  0  0  0  0
   -3.3581    2.5043   15.7692 H   0  0  0  0  0  0  0  0  0  0  0  0
   -7.2880    4.1637   16.2650 H   0  0  0  0  0  0  0  0  0  0  0  0
   -6.7189    5.9712   14.6687 H   0  0  0  0  0  0  0  0  0  0  0  0
   -6.2652    2.4954   17.9513 H   0  0  0  0  0  0  0  0  0  0  0  0
   -4.7247    1.7516   17.5758 H   0  0  0  0  0  0  0  0  0  0  0  0
  1  2  2  0  0  0  0
  1  6  1  0  0  0  0
  1 19  1  0  0  0  0
  2  3  1  0  0  0  0
  2 20  1  0  0  0  0
  3  4  2  0  0  0  0
  3 21  1  0  0  0  0
  4  5  1  0  0  0  0
  4  7  1  0  0  0  0
  5  6  2  0  0  0  0
  5 22  1  0  0  0  0
  6 23  1  0  0  0  0
  7  8  1  0  0  0  0
  7 24  1  0  0  0  0
  7 25  1  0  0  0  0
  8  9  1  0  0  0  0
  9 10  2  0  0  0  0
  9 14  1  0  0  0  0
 10 11  1  0  0  0  0
 10 26  1  0  0  0  0
 11 12  2  0  0  0  0
 11 27  1  0  0  0  0
 12 13  1  0  0  0  0
 12 15  1  0  0  0  0
 13 14  2  0  0  0  0
 13 28  1  0  0  0  0
 14 29  1  0  0  0  0
 15 16  1  0  0  0  0
 15 30  1  0  0  0  0
 15 31  1  0  0  0  0
 16 17  2  0  0  0  0
 16 18  1  0  0  0  0
M  END
$$$$
