IPH
 OpenBabel04161910543D

 13 13  0  0  0  0  0  0  0  0999 V2000
   28.9033    2.4946  -12.9570 C   0  0  0  0  0  0  0  0  0  0  0  0
   29.0089    2.7784  -14.3128 C   0  0  0  0  0  0  0  0  0  0  0  0
   30.2533    3.0762  -14.8630 C   0  0  0  0  0  0  0  0  0  0  0  0
   31.3932    3.0657  -14.0572 C   0  0  0  0  0  0  0  0  0  0  0  0
   31.2800    2.7710  -12.7014 C   0  0  0  0  0  0  0  0  0  0  0  0
   30.0316    2.4829  -12.1393 C   0  0  0  0  0  0  0  0  0  0  0  0
   27.6642    2.2282  -12.4548 O   0  0  0  0  0  0  0  0  0  0  0  0
   28.1247    2.7744  -14.9301 H   0  0  0  0  0  0  0  0  0  0  0  0
   30.3333    3.3094  -15.9193 H   0  0  0  0  0  0  0  0  0  0  0  0
   32.3650    3.2838  -14.4903 H   0  0  0  0  0  0  0  0  0  0  0  0
   32.1716    2.7531  -12.0734 H   0  0  0  0  0  0  0  0  0  0  0  0
   29.9537    2.2307  -11.0860 H   0  0  0  0  0  0  0  0  0  0  0  0
   27.5249    2.8390  -11.7109 H   0  0  0  0  0  0  0  0  0  0  0  0
  1  2  2  0  0  0  0
  1  6  1  0  0  0  0
  1  7  1  0  0  0  0
  2  3  1  0  0  0  0
  2  8  1  0  0  0  0
  3  4  2  0  0  0  0
  3  9  1  0  0  0  0
  4  5  1  0  0  0  0
  4 10  1  0  0  0  0
  5  6  2  0  0  0  0
  5 11  1  0  0  0  0
  6 12  1  0  0  0  0
  7 13  1  0  0  0  0
M  END
$$$$
