IQ5
 OpenBabel04161910183D

 26 27  0  0  0  0  0  0  0  0999 V2000
   34.2050    7.6076   28.0527 C   0  0  0  0  0  0  0  0  0  0  0  0
   32.9017    8.1746   27.5486 C   0  0  0  0  0  0  0  0  0  0  0  0
   32.8798    8.7776   26.2760 C   0  0  0  0  0  0  0  0  0  0  0  0
   31.6915    9.3755   25.8234 C   0  0  0  0  0  0  0  0  0  0  0  0
   31.3734   10.2030   24.3472 S   0  0  0  0  0  0  0  0  0  0  0  0
   29.7589   10.4875   24.8499 C   0  0  0  0  0  0  0  0  0  0  0  0
   28.8942   11.1711   24.0851 N   0  0  0  0  0  0  0  0  0  0  0  0
   29.4352    9.9986   26.0194 N   0  0  0  0  0  0  0  0  0  0  0  0
   30.5322    9.3814   26.5963 C   0  0  0  0  0  0  0  0  0  0  0  0
   30.5692    8.7931   27.8760 C   0  0  0  0  0  0  0  0  0  0  0  0
   31.7427    8.1841   28.3427 C   0  0  0  0  0  0  0  0  0  0  0  0
   31.7295    7.7109   29.6672 N   0  0  0  0  0  0  0  0  0  0  0  0
   31.9191    6.3682   29.9818 C   0  0  0  0  0  0  0  0  0  0  0  0
   32.1512    5.4686   29.1887 O   0  0  0  0  0  0  0  0  0  0  0  0
   31.7745    6.1109   31.4584 C   0  0  0  0  0  0  0  0  0  0  0  0
   35.0247    7.8062   27.3559 H   0  0  0  0  0  0  0  0  0  0  0  0
   34.1424    6.5235   28.1736 H   0  0  0  0  0  0  0  0  0  0  0  0
   34.4723    8.0708   29.0087 H   0  0  0  0  0  0  0  0  0  0  0  0
   33.7751    8.8137   25.6609 H   0  0  0  0  0  0  0  0  0  0  0  0
   27.9128   11.0821   24.3216 H   0  0  0  0  0  0  0  0  0  0  0  0
   29.0929   11.3008   23.1014 H   0  0  0  0  0  0  0  0  0  0  0  0
   29.6596    8.7965   28.4683 H   0  0  0  0  0  0  0  0  0  0  0  0
   31.1071    8.1938   30.3018 H   0  0  0  0  0  0  0  0  0  0  0  0
   31.9413    5.0511   31.6686 H   0  0  0  0  0  0  0  0  0  0  0  0
   30.7688    6.3774   31.7862 H   0  0  0  0  0  0  0  0  0  0  0  0
   32.5132    6.6997   32.0105 H   0  0  0  0  0  0  0  0  0  0  0  0
  1  2  1  0  0  0  0
  1 16  1  0  0  0  0
  1 17  1  0  0  0  0
  1 18  1  0  0  0  0
  2  3  2  0  0  0  0
  2 11  1  0  0  0  0
  3  4  1  0  0  0  0
  3 19  1  0  0  0  0
  4  5  1  0  0  0  0
  4  9  2  0  0  0  0
  5  6  1  0  0  0  0
  6  7  1  0  0  0  0
  6  8  2  0  0  0  0
  7 20  1  0  0  0  0
  7 21  1  0  0  0  0
  8  9  1  0  0  0  0
  9 10  1  0  0  0  0
 10 11  2  0  0  0  0
 10 22  1  0  0  0  0
 11 12  1  0  0  0  0
 12 13  1  0  0  0  0
 12 23  1  0  0  0  0
 13 14  2  0  0  0  0
 13 15  1  0  0  0  0
 15 24  1  0  0  0  0
 15 25  1  0  0  0  0
 15 26  1  0  0  0  0
M  END
$$$$
