IW7
 OpenBabel04161909363D

 39 39  0  0  0  0  0  0  0  0999 V2000
   -7.4296    1.2095   16.7729 O   0  0  0  0  0  0  0  0  0  0  0  0
   -6.0026    1.0318   16.6343 S   0  0  0  0  0  0  0  0  0  0  0  0
   -5.0759    1.3942   17.7080 O   0  0  0  0  0  0  0  0  0  0  0  0
   -5.7228   -0.5844   16.3512 N   0  0  0  0  0  0  0  0  0  0  0  0
   -5.4501    1.8230   15.1627 C   0  0  0  0  0  0  0  0  0  0  0  0
   -4.7541    1.1312   14.1712 C   0  0  0  0  0  0  0  0  0  0  0  0
   -4.3585    1.8067   13.0086 C   0  0  0  0  0  0  0  0  0  0  0  0
   -4.6500    3.1745   12.8278 C   0  0  0  0  0  0  0  0  0  0  0  0
   -4.2310    3.8364   11.5521 C   0  0  0  0  0  0  0  0  0  0  0  0
   -4.8034    3.4335   10.4984 O   0  0  0  0  0  0  0  0  0  0  0  0
   -3.3116    4.7063   11.6426 O   0  0  0  0  0  0  0  0  0  0  0  0
   -5.7523    3.1752   14.9942 C   0  0  0  0  0  0  0  0  0  0  0  0
   -5.3406    3.8574   13.8348 C   0  0  0  0  0  0  0  0  0  0  0  0
   -5.8032    5.5749   13.6965 S   0  0  0  0  0  0  0  0  0  0  0  0
   -6.6239    5.7467   12.5260 O   0  0  0  0  0  0  0  0  0  0  0  0
   -6.3074    5.9683   14.9997 O   0  0  0  0  0  0  0  0  0  0  0  0
   -4.3922    6.4471   13.4897 N   0  0  0  0  0  0  0  0  0  0  0  0
   -3.3202    6.3024   14.4714 C   0  0  0  0  0  0  0  0  0  0  0  0
   -2.1053    7.0896   13.9936 C   0  0  0  0  0  0  0  0  0  0  0  0
   -1.9545    8.4024   14.7563 C   0  0  0  0  0  0  0  0  0  0  0  0
   -0.7837    9.2208   14.2129 C   0  0  0  0  0  0  0  0  0  0  0  0
   -1.2462   10.4017   13.3740 C   0  0  0  0  0  0  0  0  0  0  0  0
   -6.4227   -1.0761   15.8091 H   0  0  0  0  0  0  0  0  0  0  0  0
   -5.1474   -1.0442   17.0493 H   0  0  0  0  0  0  0  0  0  0  0  0
   -4.5144    0.0761   14.2702 H   0  0  0  0  0  0  0  0  0  0  0  0
   -3.8239    1.2742   12.2225 H   0  0  0  0  0  0  0  0  0  0  0  0
   -6.3359    3.6901   15.7534 H   0  0  0  0  0  0  0  0  0  0  0  0
   -4.0983    6.4463   12.5007 H   0  0  0  0  0  0  0  0  0  0  0  0
   -3.0312    5.2554   14.6271 H   0  0  0  0  0  0  0  0  0  0  0  0
   -3.6810    6.6871   15.4374 H   0  0  0  0  0  0  0  0  0  0  0  0
   -2.1679    7.2957   12.9195 H   0  0  0  0  0  0  0  0  0  0  0  0
   -1.1999    6.4857   14.1444 H   0  0  0  0  0  0  0  0  0  0  0  0
   -1.7642    8.1732   15.8121 H   0  0  0  0  0  0  0  0  0  0  0  0
   -2.8903    8.9732   14.7181 H   0  0  0  0  0  0  0  0  0  0  0  0
   -0.1156    8.5928   13.6105 H   0  0  0  0  0  0  0  0  0  0  0  0
   -0.1937    9.6001   15.0533 H   0  0  0  0  0  0  0  0  0  0  0  0
   -0.3791   10.9598   13.0102 H   0  0  0  0  0  0  0  0  0  0  0  0
   -1.8629   11.0830   13.9692 H   0  0  0  0  0  0  0  0  0  0  0  0
   -1.8297   10.0698   12.5107 H   0  0  0  0  0  0  0  0  0  0  0  0
  1  2  2  0  0  0  0
  2  3  2  0  0  0  0
  2  4  1  0  0  0  0
  2  5  1  0  0  0  0
  4 23  1  0  0  0  0
  4 24  1  0  0  0  0
  5  6  2  0  0  0  0
  5 12  1  0  0  0  0
  6  7  1  0  0  0  0
  6 25  1  0  0  0  0
  7  8  2  0  0  0  0
  7 26  1  0  0  0  0
  8  9  1  0  0  0  0
  8 13  1  0  0  0  0
  9 10  2  0  0  0  0
  9 11  1  0  0  0  0
 12 13  2  0  0  0  0
 12 27  1  0  0  0  0
 13 14  1  0  0  0  0
 14 15  2  0  0  0  0
 14 16  2  0  0  0  0
 14 17  1  0  0  0  0
 17 18  1  0  0  0  0
 17 28  1  0  0  0  0
 18 19  1  0  0  0  0
 18 29  1  0  0  0  0
 18 30  1  0  0  0  0
 19 20  1  0  0  0  0
 19 31  1  0  0  0  0
 19 32  1  0  0  0  0
 20 21  1  0  0  0  0
 20 33  1  0  0  0  0
 20 34  1  0  0  0  0
 21 22  1  0  0  0  0
 21 35  1  0  0  0  0
 21 36  1  0  0  0  0
 22 37  1  0  0  0  0
 22 38  1  0  0  0  0
 22 39  1  0  0  0  0
M  END
$$$$
