IWX
 OpenBabel04161910433D

 42 44  0  0  0  0  0  0  0  0999 V2000
   67.0771   31.7392   -0.8740 O   0  0  0  0  0  0  0  0  0  0  0  0
   67.9921   31.0828   -0.3430 C   0  0  0  0  0  0  0  0  0  0  0  0
   67.7656   30.0062    0.4879 N   0  0  0  0  0  0  0  0  0  0  0  0
   66.4812   29.4634    0.8014 C   0  0  0  0  0  0  0  0  0  0  0  0
   66.0922   29.2967    2.1405 C   0  0  0  0  0  0  0  0  0  0  0  0
   64.8495   28.7026    2.4736 C   0  0  0  0  0  0  0  0  0  0  0  0
   64.0335   28.2315    1.4395 C   0  0  0  0  0  0  0  0  0  0  0  0
   64.4159   28.3630    0.1182 C   0  0  0  0  0  0  0  0  0  0  0  0
   65.6279   28.9794   -0.2061 C   0  0  0  0  0  0  0  0  0  0  0  0
   65.9662   29.0338   -1.5441 N   0  0  0  0  0  0  0  0  0  0  0  0
   64.3896   28.5693    3.8665 C   0  0  0  0  0  0  0  0  0  0  0  0
   63.0287   28.7460    4.2013 C   0  0  0  0  0  0  0  0  0  0  0  0
   62.5835   28.6263    5.5153 C   0  0  0  0  0  0  0  0  0  0  0  0
   63.4985   28.3302    6.5110 C   0  0  0  0  0  0  0  0  0  0  0  0
   63.0708   28.2149    7.7748 F   0  0  0  0  0  0  0  0  0  0  0  0
   64.8454   28.1529    6.2150 C   0  0  0  0  0  0  0  0  0  0  0  0
   65.2895   28.2674    4.8971 C   0  0  0  0  0  0  0  0  0  0  0  0
   69.4346   31.4960   -0.7045 C   0  0  0  0  0  0  0  0  0  0  0  0
   69.6191   33.0307   -0.6676 C   0  0  0  0  0  0  0  0  0  0  0  0
   71.0360   33.3559   -1.1260 C   0  0  0  0  0  0  0  0  0  0  0  0
   71.9852   32.7280   -0.2581 O   0  0  0  0  0  0  0  0  0  0  0  0
   71.9302   31.3018   -0.3085 C   0  0  0  0  0  0  0  0  0  0  0  0
   70.5449   30.7952    0.0787 C   0  0  0  0  0  0  0  0  0  0  0  0
   68.5504   29.5597    0.9283 H   0  0  0  0  0  0  0  0  0  0  0  0
   66.7336   29.6674    2.9368 H   0  0  0  0  0  0  0  0  0  0  0  0
   63.0829   27.7522    1.6611 H   0  0  0  0  0  0  0  0  0  0  0  0
   63.7632   27.9993   -0.6728 H   0  0  0  0  0  0  0  0  0  0  0  0
   66.8239   29.4929   -1.8144 H   0  0  0  0  0  0  0  0  0  0  0  0
   65.3090   28.7156   -2.2384 H   0  0  0  0  0  0  0  0  0  0  0  0
   62.3013   28.9933    3.4292 H   0  0  0  0  0  0  0  0  0  0  0  0
   61.5357   28.7642    5.7596 H   0  0  0  0  0  0  0  0  0  0  0  0
   65.5516   27.9270    7.0064 H   0  0  0  0  0  0  0  0  0  0  0  0
   66.3444   28.1201    4.6769 H   0  0  0  0  0  0  0  0  0  0  0  0
   69.5603   31.2138   -1.7618 H   0  0  0  0  0  0  0  0  0  0  0  0
   69.4648   33.4073    0.3539 H   0  0  0  0  0  0  0  0  0  0  0  0
   68.8945   33.5321   -1.3268 H   0  0  0  0  0  0  0  0  0  0  0  0
   71.2073   34.4403   -1.1061 H   0  0  0  0  0  0  0  0  0  0  0  0
   71.1914   33.0018   -2.1543 H   0  0  0  0  0  0  0  0  0  0  0  0
   72.6826   30.9003    0.3886 H   0  0  0  0  0  0  0  0  0  0  0  0
   72.1946   30.9618   -1.3194 H   0  0  0  0  0  0  0  0  0  0  0  0
   70.4939   29.7181   -0.1146 H   0  0  0  0  0  0  0  0  0  0  0  0
   70.3922   30.9676    1.1507 H   0  0  0  0  0  0  0  0  0  0  0  0
  1  2  2  0  0  0  0
  2  3  1  0  0  0  0
  2 18  1  0  0  0  0
  3  4  1  0  0  0  0
  3 24  1  0  0  0  0
  4  5  2  0  0  0  0
  4  9  1  0  0  0  0
  5  6  1  0  0  0  0
  5 25  1  0  0  0  0
  6  7  2  0  0  0  0
  6 11  1  0  0  0  0
  7  8  1  0  0  0  0
  7 26  1  0  0  0  0
  8  9  2  0  0  0  0
  8 27  1  0  0  0  0
  9 10  1  0  0  0  0
 10 28  1  0  0  0  0
 10 29  1  0  0  0  0
 11 12  2  0  0  0  0
 11 17  1  0  0  0  0
 12 13  1  0  0  0  0
 12 30  1  0  0  0  0
 13 14  2  0  0  0  0
 13 31  1  0  0  0  0
 14 15  1  0  0  0  0
 14 16  1  0  0  0  0
 16 17  2  0  0  0  0
 16 32  1  0  0  0  0
 17 33  1  0  0  0  0
 18 19  1  0  0  0  0
 18 23  1  0  0  0  0
 18 34  1  0  0  0  0
 19 20  1  0  0  0  0
 19 35  1  0  0  0  0
 19 36  1  0  0  0  0
 20 21  1  0  0  0  0
 20 37  1  0  0  0  0
 20 38  1  0  0  0  0
 21 22  1  0  0  0  0
 22 23  1  0  0  0  0
 22 39  1  0  0  0  0
 22 40  1  0  0  0  0
 23 41  1  0  0  0  0
 23 42  1  0  0  0  0
M  END
$$$$
