J4K
 OpenBabel04161910173D

 20 21  0  0  0  0  0  0  0  0999 V2000
   -4.9463    3.4745   14.5517 C   0  0  0  0  0  0  0  0  0  0  0  0
   -5.5727    4.6690   14.2129 C   0  0  0  0  0  0  0  0  0  0  0  0
   -6.0759    4.8350   12.9321 C   0  0  0  0  0  0  0  0  0  0  0  0
   -5.9889    3.8084   11.9981 C   0  0  0  0  0  0  0  0  0  0  0  0
   -5.3782    2.6039   12.3478 C   0  0  0  0  0  0  0  0  0  0  0  0
   -4.8437    2.4261   13.6275 C   0  0  0  0  0  0  0  0  0  0  0  0
   -4.2713    1.2056   13.8599 O   0  0  0  0  0  0  0  0  0  0  0  0
   -3.7521    0.9578   15.1832 C   0  0  0  0  0  0  0  0  0  0  0  0
   -4.7759    0.8605   16.2557 C   0  0  0  0  0  0  0  0  0  0  0  0
   -4.7003    1.5781   17.4016 N   0  0  0  0  0  0  0  0  0  0  0  0
   -5.9179    1.4071   17.9678 N   0  0  0  0  0  0  0  0  0  0  0  0
   -6.6348    0.5228   17.2355 N   0  0  0  0  0  0  0  0  0  0  0  0
   -5.9001    0.1209   16.1669 N   0  0  0  0  0  0  0  0  0  0  0  0
   -6.8271    6.3297   12.5004 Cl  0  0  0  0  0  0  0  0  0  0  0  0
   -4.5743    3.3924   15.5660 H   0  0  0  0  0  0  0  0  0  0  0  0
   -5.6672    5.4470   14.9612 H   0  0  0  0  0  0  0  0  0  0  0  0
   -6.3984    3.9331   10.9977 H   0  0  0  0  0  0  0  0  0  0  0  0
   -5.3285    1.7876   11.6310 H   0  0  0  0  0  0  0  0  0  0  0  0
   -2.9915    1.7150   15.4220 H   0  0  0  0  0  0  0  0  0  0  0  0
   -3.2180    0.0005   15.1398 H   0  0  0  0  0  0  0  0  0  0  0  0
  1  2  2  0  0  0  0
  1  6  1  0  0  0  0
  1 15  1  0  0  0  0
  2  3  1  0  0  0  0
  2 16  1  0  0  0  0
  3  4  2  0  0  0  0
  3 14  1  0  0  0  0
  4  5  1  0  0  0  0
  4 17  1  0  0  0  0
  5  6  2  0  0  0  0
  5 18  1  0  0  0  0
  6  7  1  0  0  0  0
  7  8  1  0  0  0  0
  8  9  1  0  0  0  0
  8 19  1  0  0  0  0
  8 20  1  0  0  0  0
  9 10  1  0  0  0  0
  9 13  2  0  0  0  0
 10 11  1  0  0  0  0
 11 12  2  0  0  0  0
 12 13  1  0  0  0  0
M  END
$$$$
