JC2
 OpenBabel04161911173D

 61 61  0  0  1  0  0  0  0  0999 V2000
    8.4506   42.6589   -5.5586 C   0  0  0  0  0  0  0  0  0  0  0  0
   12.1311   40.0298   -6.8278 C   0  0  0  0  0  0  0  0  0  0  0  0
   12.8315   40.3264   -9.1754 C   0  0  0  0  0  0  0  0  0  0  0  0
   13.7923   40.3487  -11.3589 C   0  0  0  0  0  0  0  0  0  0  0  0
   15.2925   40.4827  -11.4994 C   0  0  0  0  0  0  0  0  0  0  0  0
   15.9735   39.8752  -12.5586 C   0  0  0  0  0  0  0  0  0  0  0  0
   17.3585   40.0004  -12.6920 C   0  0  0  0  0  0  0  0  0  0  0  0
   16.0378   41.2198  -10.5760 C   0  0  0  0  0  0  0  0  0  0  0  0
   12.4826   37.4300   -6.0602 O   0  0  0  0  0  0  0  0  0  0  0  0
   11.4438   38.5272   -6.0172 P   0  0  1  0  0  0  0  0  0  0  0  0
   11.2642   39.0453   -4.3759 N   0  0  0  0  0  0  0  0  0  0  0  0
   10.0840   38.6113   -3.6214 C   0  0  1  0  0  0  0  0  0  0  0  0
   10.4587   38.6648   -2.1368 C   0  0  0  0  0  0  0  0  0  0  0  0
    9.3686   38.1223   -1.2110 C   0  0  0  0  0  0  0  0  0  0  0  0
    9.6690   38.5261    0.2262 C   0  0  0  0  0  0  0  0  0  0  0  0
    9.2374   36.6121   -1.3497 C   0  0  0  0  0  0  0  0  0  0  0  0
    8.8826   39.4936   -3.8930 C   0  0  0  0  0  0  0  0  0  0  0  0
    9.1565   40.8307   -3.9835 N   0  0  0  0  0  0  0  0  0  0  0  0
    8.1213   41.8044   -4.2969 C   0  0  1  0  0  0  0  0  0  0  0  0
    7.5180   43.4178   -5.9353 O   0  0  0  0  0  0  0  0  0  0  0  0
    9.6550   42.6003   -5.9466 O   0  0  0  0  0  0  0  0  0  0  0  0
    7.7195   39.0693   -3.8049 O   0  0  0  0  0  0  0  0  0  0  0  0
   10.0720   38.2272   -6.5334 O   0  0  0  0  0  0  0  0  0  0  0  0
   12.8223   39.6150   -8.0438 N   0  0  0  0  0  0  0  0  0  0  0  0
   13.4911   39.6547  -10.1393 O   0  0  0  0  0  0  0  0  0  0  0  0
   18.0786   40.7673  -11.7827 C   0  0  0  0  0  0  0  0  0  0  0  0
   17.4179   41.3710  -10.7208 C   0  0  0  0  0  0  0  0  0  0  0  0
   12.3693   41.4852   -9.2983 O   0  0  0  0  0  0  0  0  0  0  0  0
    7.8506   42.6479   -3.0434 C   0  0  0  0  0  0  0  0  0  0  0  0
    9.0888   43.4295   -2.6810 C   0  0  0  0  0  0  0  0  0  0  0  0
    8.7758   44.4835   -1.6852 N   0  3  0  0  0  0  0  0  0  0  0  0
   12.8613   40.5343   -6.1801 H   0  0  0  0  0  0  0  0  0  0  0  0
   11.3227   40.7187   -7.0701 H   0  0  0  0  0  0  0  0  0  0  0  0
   13.3966   39.7625  -12.2014 H   0  0  0  0  0  0  0  0  0  0  0  0
   13.3241   41.3364  -11.3799 H   0  0  0  0  0  0  0  0  0  0  0  0
   15.4147   39.2963  -13.2857 H   0  0  0  0  0  0  0  0  0  0  0  0
   17.8723   39.4998  -13.5056 H   0  0  0  0  0  0  0  0  0  0  0  0
   15.5424   41.6860   -9.7295 H   0  0  0  0  0  0  0  0  0  0  0  0
   11.9200   39.6944   -3.9738 H   0  0  0  0  0  0  0  0  0  0  0  0
    9.8326   37.5943   -3.9094 H   0  0  0  0  0  0  0  0  0  0  0  0
   10.6704   39.7044   -1.8541 H   0  0  0  0  0  0  0  0  0  0  0  0
   11.3716   38.0729   -1.9896 H   0  0  0  0  0  0  0  0  0  0  0  0
    8.4135   38.5744   -1.4803 H   0  0  0  0  0  0  0  0  0  0  0  0
    8.8930   38.1419    0.8948 H   0  0  0  0  0  0  0  0  0  0  0  0
    9.6889   39.6214    0.3081 H   0  0  0  0  0  0  0  0  0  0  0  0
   10.6416   38.1343    0.5422 H   0  0  0  0  0  0  0  0  0  0  0  0
    9.0240   36.3465   -2.3901 H   0  0  0  0  0  0  0  0  0  0  0  0
    8.4153   36.2438   -0.7278 H   0  0  0  0  0  0  0  0  0  0  0  0
   10.1638   36.1108   -1.0457 H   0  0  0  0  0  0  0  0  0  0  0  0
   10.1283   41.1150   -4.0922 H   0  0  0  0  0  0  0  0  0  0  0  0
    7.1901   41.2729   -4.5117 H   0  0  0  0  0  0  0  0  0  0  0  0
   13.2485   38.6911   -8.0297 H   0  0  0  0  0  0  0  0  0  0  0  0
   19.1495   40.8942  -11.8965 H   0  0  0  0  0  0  0  0  0  0  0  0
   17.9666   41.9622   -9.9948 H   0  0  0  0  0  0  0  0  0  0  0  0
    7.5881   41.9834   -2.2033 H   0  0  0  0  0  0  0  0  0  0  0  0
    7.0165   43.3281   -3.2253 H   0  0  0  0  0  0  0  0  0  0  0  0
    9.5012   43.9392   -3.5435 H   0  0  0  0  0  0  0  0  0  0  0  0
    9.8320   42.7848   -2.2122 H   0  0  0  0  0  0  0  0  0  0  0  0
    9.6264   45.0110   -1.4556 H   0  0  0  0  0  0  0  0  0  0  0  0
    8.0858   45.1402   -2.0753 H   0  0  0  0  0  0  0  0  0  0  0  0
    8.3952   44.0742   -0.8261 H   0  0  0  0  0  0  0  0  0  0  0  0
  1 19  1  0  0  0  0
  1 20  2  0  0  0  0
  1 21  1  0  0  0  0
  2 24  1  0  0  0  0
  2 32  1  0  0  0  0
  2 33  1  0  0  0  0
  3 24  1  0  0  0  0
  3 25  1  0  0  0  0
  3 28  2  0  0  0  0
  4  5  1  0  0  0  0
  4 25  1  0  0  0  0
  4 34  1  0  0  0  0
  4 35  1  0  0  0  0
  5  6  2  0  0  0  0
  5  8  1  0  0  0  0
  6  7  1  0  0  0  0
  6 36  1  0  0  0  0
  7 26  2  0  0  0  0
  7 37  1  0  0  0  0
  8 27  2  0  0  0  0
  8 38  1  0  0  0  0
  9 10  2  0  0  0  0
 10  2  1  6  0  0  0
 10 11  1  0  0  0  0
 10 23  1  0  0  0  0
 11 12  1  0  0  0  0
 11 39  1  0  0  0  0
 12 13  1  0  0  0  0
 12 17  1  0  0  0  0
 12 40  1  6  0  0  0
 13 14  1  0  0  0  0
 13 41  1  0  0  0  0
 13 42  1  0  0  0  0
 14 15  1  0  0  0  0
 14 16  1  0  0  0  0
 14 43  1  0  0  0  0
 15 44  1  0  0  0  0
 15 45  1  0  0  0  0
 15 46  1  0  0  0  0
 16 47  1  0  0  0  0
 16 48  1  0  0  0  0
 16 49  1  0  0  0  0
 17 18  1  0  0  0  0
 17 22  2  0  0  0  0
 18 19  1  0  0  0  0
 18 50  1  0  0  0  0
 19 29  1  0  0  0  0
 19 51  1  6  0  0  0
 24 52  1  0  0  0  0
 26 27  1  0  0  0  0
 26 53  1  0  0  0  0
 27 54  1  0  0  0  0
 29 30  1  0  0  0  0
 29 55  1  0  0  0  0
 29 56  1  0  0  0  0
 30 31  1  0  0  0  0
 30 57  1  0  0  0  0
 30 58  1  0  0  0  0
 31 59  1  0  0  0  0
 31 60  1  0  0  0  0
 31 61  1  0  0  0  0
M  CHG  1  31   1
M  END
$$$$
