KAI
 OpenBabel04161910403D

 29 29  0  0  1  0  0  0  0  0999 V2000
   15.7601   20.4734   62.2444 N   0  3  0  0  0  0  0  0  0  0  0  0
   16.7780   21.5462   62.1035 C   0  0  0  0  0  0  0  0  0  0  0  0
   18.0721   23.8374   64.8802 C   0  0  0  0  0  0  0  0  0  0  0  0
   19.3281   22.7956   63.0301 C   0  0  0  0  0  0  0  0  0  0  0  0
   15.3586   20.3839   63.7507 C   0  0  1  0  0  0  0  0  0  0  0  0
   16.4892   21.1140   64.4548 C   0  0  1  0  0  0  0  0  0  0  0  0
   17.7074   20.1964   64.6994 C   0  0  0  0  0  0  0  0  0  0  0  0
   16.8113   22.2519   63.4587 C   0  0  1  0  0  0  0  0  0  0  0  0
   17.5620   19.1133   65.7597 C   0  0  0  0  0  0  0  0  0  0  0  0
   18.0662   23.0261   63.8081 C   0  0  0  0  0  0  0  0  0  0  0  0
   13.9669   21.0616   63.9473 C   0  0  0  0  0  0  0  0  0  0  0  0
   13.4648   21.3752   62.8131 O   0  0  0  0  0  0  0  0  0  0  0  0
   16.4684   19.0786   66.3809 O   0  0  0  0  0  0  0  0  0  0  0  0
   18.5651   18.3463   65.8323 O   0  0  0  0  0  0  0  0  0  0  0  0
   13.5419   21.2825   65.1098 O   0  0  0  0  0  0  0  0  0  0  0  0
   14.8458   20.7666   61.8288 H   0  0  0  0  0  0  0  0  0  0  0  0
   16.4767   22.2101   61.2827 H   0  0  0  0  0  0  0  0  0  0  0  0
   17.7126   21.0479   61.8399 H   0  0  0  0  0  0  0  0  0  0  0  0
   18.9710   24.3537   65.1966 H   0  0  0  0  0  0  0  0  0  0  0  0
   17.1875   23.9414   65.5068 H   0  0  0  0  0  0  0  0  0  0  0  0
   20.1554   23.3955   63.4210 H   0  0  0  0  0  0  0  0  0  0  0  0
   19.1851   23.0626   61.9807 H   0  0  0  0  0  0  0  0  0  0  0  0
   19.6344   21.7456   63.0922 H   0  0  0  0  0  0  0  0  0  0  0  0
   15.2882   19.3169   63.9769 H   0  0  0  0  0  0  0  0  0  0  0  0
   16.1574   21.5298   65.4071 H   0  0  0  0  0  0  0  0  0  0  0  0
   18.5595   20.8048   65.0279 H   0  0  0  0  0  0  0  0  0  0  0  0
   18.0080   19.7003   63.7700 H   0  0  0  0  0  0  0  0  0  0  0  0
   15.9743   22.9681   63.4669 H   0  0  0  0  0  0  0  0  0  0  0  0
   16.0349   19.5524   61.9052 H   0  0  0  0  0  0  0  0  0  0  0  0
  1  2  1  0  0  0  0
  1  5  1  0  0  0  0
  1 16  1  0  0  0  0
  1 29  1  0  0  0  0
  2  8  1  0  0  0  0
  2 17  1  0  0  0  0
  2 18  1  0  0  0  0
  3 10  2  0  0  0  0
  3 19  1  0  0  0  0
  3 20  1  0  0  0  0
  4 10  1  0  0  0  0
  4 21  1  0  0  0  0
  4 22  1  0  0  0  0
  4 23  1  0  0  0  0
  5  6  1  0  0  0  0
  5 11  1  0  0  0  0
  5 24  1  1  0  0  0
  6  7  1  0  0  0  0
  6  8  1  0  0  0  0
  6 25  1  1  0  0  0
  7  9  1  0  0  0  0
  7 26  1  0  0  0  0
  7 27  1  0  0  0  0
  8 10  1  0  0  0  0
  8 28  1  1  0  0  0
  9 13  2  0  0  0  0
  9 14  1  0  0  0  0
 11 12  2  0  0  0  0
 11 15  1  0  0  0  0
M  CHG  1   1   1
M  END
$$$$
