KB1
 OpenBabel04161912033D

 61 64  0  0  1  0  0  0  0  0999 V2000
   -6.4614   -7.5416   30.1184 N   0  0  0  0  0  0  0  0  0  0  0  0
   -6.2427   -6.8500   28.9479 C   0  0  0  0  0  0  0  0  0  0  0  0
   -6.2759   -7.5249   27.7744 N   0  0  0  0  0  0  0  0  0  0  0  0
   -6.0542   -6.8453   26.6286 C   0  0  0  0  0  0  0  0  0  0  0  0
   -5.7944   -5.5284   26.4685 N   0  0  0  0  0  0  0  0  0  0  0  0
   -5.7559   -4.8980   27.6525 C   0  0  0  0  0  0  0  0  0  0  0  0
   -5.9749   -5.4693   28.9044 C   0  0  0  0  0  0  0  0  0  0  0  0
   -5.8679   -4.5135   29.8970 N   0  0  0  0  0  0  0  0  0  0  0  0
   -5.6029   -3.3967   29.2583 C   0  0  0  0  0  0  0  0  0  0  0  0
   -5.5398   -3.5763   27.8994 N   0  3  0  0  0  0  0  0  0  0  0  0
   -5.2965   -2.5773   26.8911 C   0  0  2  0  0  0  0  0  0  0  0  0
   -3.8822   -2.3072   26.8403 O   0  0  0  0  0  0  0  0  0  0  0  0
   -3.7185   -1.0115   26.2333 C   0  0  2  0  0  0  0  0  0  0  0  0
   -2.5381   -0.3392   26.9339 C   0  0  0  0  0  0  0  0  0  0  0  0
   -1.9869    0.8795   26.1961 N   0  3  2  0  0  0  0  0  0  0  0  0
   -1.1067    0.4169   25.0589 C   0  0  0  0  0  0  0  0  0  0  0  0
   -0.6291    1.5323   24.1415 C   0  0  0  0  0  0  0  0  0  0  0  0
    0.1119    0.9279   22.9390 C   0  0  2  0  0  0  0  0  0  0  0  0
    1.4241    0.3519   23.4226 N   0  3  0  0  0  0  0  0  0  0  0  0
    0.3202    1.9769   21.8102 C   0  0  0  0  0  0  0  0  0  0  0  0
    1.5573    2.1220   21.5833 O   0  0  0  0  0  0  0  0  0  0  0  0
   -0.7164    2.4834   21.3423 O   0  0  0  0  0  0  0  0  0  0  0  0
   -1.2665    1.8046   27.1728 C   0  0  0  0  0  0  0  0  0  0  0  0
   -2.1618    2.3017   28.2767 C   0  0  0  0  0  0  0  0  0  0  0  0
   -3.1902    3.2131   27.9955 C   0  0  0  0  0  0  0  0  0  0  0  0
   -4.0499    3.6406   29.0124 C   0  0  0  0  0  0  0  0  0  0  0  0
   -3.8905    3.1557   30.3045 C   0  0  0  0  0  0  0  0  0  0  0  0
   -4.7185    3.5574   31.2769 F   0  0  0  0  0  0  0  0  0  0  0  0
   -2.8878    2.2430   30.5993 C   0  0  0  0  0  0  0  0  0  0  0  0
   -2.0207    1.8121   29.5892 C   0  0  0  0  0  0  0  0  0  0  0  0
   -5.0460   -0.2605   26.3863 C   0  0  1  0  0  0  0  0  0  0  0  0
   -5.5796    0.0050   25.0903 O   0  0  0  0  0  0  0  0  0  0  0  0
   -5.9438   -1.2186   27.1589 C   0  0  1  0  0  0  0  0  0  0  0  0
   -7.2952   -1.1240   26.7396 O   0  0  0  0  0  0  0  0  0  0  0  0
   -6.4851   -7.0412   30.9962 H   0  0  0  0  0  0  0  0  0  0  0  0
   -6.6774   -8.5253   30.0714 H   0  0  0  0  0  0  0  0  0  0  0  0
   -6.0914   -7.4353   25.7154 H   0  0  0  0  0  0  0  0  0  0  0  0
   -5.4571   -2.4407   29.7442 H   0  0  0  0  0  0  0  0  0  0  0  0
   -5.6127   -2.9662   25.9161 H   0  0  0  0  0  0  0  0  0  0  0  0
   -3.4854   -1.1833   25.1773 H   0  0  0  0  0  0  0  0  0  0  0  0
   -1.6984   -1.0332   27.0625 H   0  0  0  0  0  0  0  0  0  0  0  0
   -2.8569   -0.0467   27.9339 H   0  0  0  0  0  0  0  0  0  0  0  0
   -1.6818   -0.3108   24.4789 H   0  0  0  0  0  0  0  0  0  0  0  0
   -0.2591   -0.1016   25.5193 H   0  0  0  0  0  0  0  0  0  0  0  0
    0.0471    2.2078   24.6783 H   0  0  0  0  0  0  0  0  0  0  0  0
   -1.4857    2.1289   23.8079 H   0  0  0  0  0  0  0  0  0  0  0  0
   -0.4519    0.0911   22.5156 H   0  0  0  0  0  0  0  0  0  0  0  0
    1.9258    0.0578   22.5585 H   0  0  0  0  0  0  0  0  0  0  0  0
    2.0283    1.1420   23.7133 H   0  0  0  0  0  0  0  0  0  0  0  0
   -0.8836    2.6607   26.6092 H   0  0  0  0  0  0  0  0  0  0  0  0
   -0.4139    1.2426   27.5720 H   0  0  0  0  0  0  0  0  0  0  0  0
   -3.3325    3.6061   26.9892 H   0  0  0  0  0  0  0  0  0  0  0  0
   -4.8370    4.3591   28.8024 H   0  0  0  0  0  0  0  0  0  0  0  0
   -2.7834    1.8730   31.6150 H   0  0  0  0  0  0  0  0  0  0  0  0
   -1.2553    1.0781   29.8413 H   0  0  0  0  0  0  0  0  0  0  0  0
   -4.9384    0.7040   26.8919 H   0  0  0  0  0  0  0  0  0  0  0  0
   -6.4541    0.4312   25.2215 H   0  0  0  0  0  0  0  0  0  0  0  0
   -5.8935   -0.9550   28.2204 H   0  0  0  0  0  0  0  0  0  0  0  0
   -7.3639   -1.4735   25.8298 H   0  0  0  0  0  0  0  0  0  0  0  0
   -2.7738    1.4185   25.8008 H   0  0  0  0  0  0  0  0  0  0  0  0
    1.3995   -0.4105   24.0849 H   0  0  0  0  0  0  0  0  0  0  0  0
  1  2  1  0  0  0  0
  1 35  1  0  0  0  0
  1 36  1  0  0  0  0
  2  3  2  0  0  0  0
  2  7  1  0  0  0  0
  3  4  1  0  0  0  0
  4  5  2  0  0  0  0
  4 37  1  0  0  0  0
  5  6  1  0  0  0  0
  6  7  2  0  0  0  0
  6 10  1  0  0  0  0
  7  8  1  0  0  0  0
  8  9  1  0  0  0  0
  9 10  2  0  0  0  0
  9 38  1  0  0  0  0
 10 11  1  0  0  0  0
 11 12  1  0  0  0  0
 11 33  1  0  0  0  0
 11 39  1  6  0  0  0
 12 13  1  0  0  0  0
 13 14  1  0  0  0  0
 13 31  1  0  0  0  0
 13 40  1  6  0  0  0
 14 15  1  0  0  0  0
 14 41  1  0  0  0  0
 14 42  1  0  0  0  0
 15 16  1  0  0  0  0
 15 23  1  0  0  0  0
 15 60  1  6  0  0  0
 16 17  1  0  0  0  0
 16 43  1  0  0  0  0
 16 44  1  0  0  0  0
 17 18  1  0  0  0  0
 17 45  1  0  0  0  0
 17 46  1  0  0  0  0
 18 19  1  0  0  0  0
 18 20  1  0  0  0  0
 18 47  1  6  0  0  0
 19 48  1  0  0  0  0
 19 49  1  0  0  0  0
 19 61  1  0  0  0  0
 20 21  2  0  0  0  0
 20 22  1  0  0  0  0
 23 24  1  0  0  0  0
 23 50  1  0  0  0  0
 23 51  1  0  0  0  0
 24 25  2  0  0  0  0
 24 30  1  0  0  0  0
 25 26  1  0  0  0  0
 25 52  1  0  0  0  0
 26 27  2  0  0  0  0
 26 53  1  0  0  0  0
 27 28  1  0  0  0  0
 27 29  1  0  0  0  0
 29 30  2  0  0  0  0
 29 54  1  0  0  0  0
 30 55  1  0  0  0  0
 31 32  1  0  0  0  0
 31 33  1  0  0  0  0
 31 56  1  1  0  0  0
 32 57  1  0  0  0  0
 33 34  1  0  0  0  0
 33 58  1  1  0  0  0
 34 59  1  0  0  0  0
M  CHG  3  10   1  15   1  19   1
M  END
$$$$
