KIF
 OpenBabel04161911303D

 28 29  0  0  1  0  0  0  0  0999 V2000
   23.9010   18.7460   47.9158 C   0  0  1  0  0  0  0  0  0  0  0  0
   22.9872   18.3235   46.8994 O   0  0  0  0  0  0  0  0  0  0  0  0
   24.9487   17.6345   48.1570 C   0  0  2  0  0  0  0  0  0  0  0  0
   25.7051   17.9037   49.3461 O   0  0  0  0  0  0  0  0  0  0  0  0
   25.9439   17.4924   46.9874 C   0  0  2  0  0  0  0  0  0  0  0  0
   26.9090   16.4886   47.3458 O   0  0  0  0  0  0  0  0  0  0  0  0
   26.6033   18.8603   46.7339 C   0  0  1  0  0  0  0  0  0  0  0  0
   27.4056   18.8715   45.5349 N   0  0  0  0  0  0  0  0  0  0  0  0
   26.9282   19.7756   44.6093 C   0  0  0  0  0  0  0  0  0  0  0  0
   27.3858   20.0038   43.5221 O   0  0  0  0  0  0  0  0  0  0  0  0
   25.6811   20.4281   45.2604 C   0  0  0  0  0  0  0  0  0  0  0  0
   24.9709   21.2623   44.7363 O   0  0  0  0  0  0  0  0  0  0  0  0
   25.6079   19.8758   46.5149 N   0  0  0  0  0  0  0  0  0  0  0  0
   24.5302   20.0953   47.4794 C   0  0  2  0  0  0  0  0  0  0  0  0
   25.0267   20.8793   48.7060 C   0  0  0  0  0  0  0  0  0  0  0  0
   25.7839   22.0314   48.3557 O   0  0  0  0  0  0  0  0  0  0  0  0
   23.3248   18.9076   48.8358 H   0  0  0  0  0  0  0  0  0  0  0  0
   22.5098   17.5353   47.2132 H   0  0  0  0  0  0  0  0  0  0  0  0
   24.4380   16.6738   48.2931 H   0  0  0  0  0  0  0  0  0  0  0  0
   25.1168   17.8935   50.1186 H   0  0  0  0  0  0  0  0  0  0  0  0
   25.4276   17.1504   46.0815 H   0  0  0  0  0  0  0  0  0  0  0  0
   27.5678   16.4178   46.6370 H   0  0  0  0  0  0  0  0  0  0  0  0
   27.2453   19.1496   47.5758 H   0  0  0  0  0  0  0  0  0  0  0  0
   28.2567   18.3709   45.3658 H   0  0  0  0  0  0  0  0  0  0  0  0
   23.7605   20.7014   46.9831 H   0  0  0  0  0  0  0  0  0  0  0  0
   25.6501   20.2615   49.3527 H   0  0  0  0  0  0  0  0  0  0  0  0
   24.1665   21.2156   49.2911 H   0  0  0  0  0  0  0  0  0  0  0  0
   26.5543   21.7344   47.8409 H   0  0  0  0  0  0  0  0  0  0  0  0
  1  2  1  0  0  0  0
  1  3  1  0  0  0  0
  1 14  1  0  0  0  0
  1 17  1  1  0  0  0
  2 18  1  0  0  0  0
  3  4  1  0  0  0  0
  3  5  1  0  0  0  0
  3 19  1  1  0  0  0
  4 20  1  0  0  0  0
  5  6  1  0  0  0  0
  5  7  1  0  0  0  0
  5 21  1  6  0  0  0
  6 22  1  0  0  0  0
  7  8  1  0  0  0  0
  7 13  1  0  0  0  0
  7 23  1  1  0  0  0
  8  9  1  0  0  0  0
  8 24  1  0  0  0  0
  9 10  2  0  0  0  0
  9 11  1  0  0  0  0
 11 12  2  0  0  0  0
 11 13  1  0  0  0  0
 13 14  1  0  0  0  0
 14 15  1  0  0  0  0
 14 25  1  6  0  0  0
 15 16  1  0  0  0  0
 15 26  1  0  0  0  0
 15 27  1  0  0  0  0
 16 28  1  0  0  0  0
M  END
$$$$
