KKN
 OpenBabel04161909533D

 19 20  0  0  1  0  0  0  0  0999 V2000
   16.2015  -14.2824    1.9361 O   0  0  0  0  0  0  0  0  0  0  0  0
   15.8246  -15.5784    2.1404 C   0  0  0  0  0  0  0  0  0  0  0  0
   15.4638  -16.0494    3.3253 C   0  0  0  0  0  0  0  0  0  0  0  0
   15.4030  -15.2027    4.4591 C   0  0  0  0  0  0  0  0  0  0  0  0
   15.7589  -13.9640    4.3910 C   0  0  0  0  0  0  0  0  0  0  0  0
   16.1717  -13.3906    3.0796 C   0  0  0  0  0  0  0  0  0  0  0  0
   15.1396  -16.0671    5.5829 C   0  0  2  0  0  0  0  0  0  0  0  0
   14.8069  -17.3445    4.9138 C   0  0  0  0  0  0  0  0  0  0  0  0
   14.5181  -18.3462    5.5243 O   0  0  0  0  0  0  0  0  0  0  0  0
   15.1119  -17.3362    3.5809 O   0  0  0  0  0  0  0  0  0  0  0  0
   14.7972  -15.7433    6.9824 C   0  0  0  0  0  0  0  0  0  0  0  0
   15.8147  -16.2169    1.2626 H   0  0  0  0  0  0  0  0  0  0  0  0
   15.7747  -13.3011    5.2865 H   0  0  0  0  0  0  0  0  0  0  0  0
   15.4490  -12.6139    2.8648 H   0  0  0  0  0  0  0  0  0  0  0  0
   17.1745  -13.0059    3.2221 H   0  0  0  0  0  0  0  0  0  0  0  0
   16.1655  -16.3017    5.7680 H   0  0  0  0  0  0  0  0  0  0  0  0
   15.0314  -14.6992    7.1700 H   0  0  0  0  0  0  0  0  0  0  0  0
   15.4604  -16.3666    7.6050 H   0  0  0  0  0  0  0  0  0  0  0  0
   13.7681  -15.9623    7.2426 H   0  0  0  0  0  0  0  0  0  0  0  0
  1  2  1  0  0  0  0
  1  6  1  0  0  0  0
  2  3  2  0  0  0  0
  2 12  1  0  0  0  0
  3  4  1  0  0  0  0
  3 10  1  0  0  0  0
  4  5  2  0  0  0  0
  4  7  1  0  0  0  0
  5  6  1  0  0  0  0
  5 13  1  0  0  0  0
  6 14  1  0  0  0  0
  6 15  1  0  0  0  0
  7  8  1  0  0  0  0
  7 11  1  0  0  0  0
  7 16  1  1  0  0  0
  8  9  2  0  0  0  0
  8 10  1  0  0  0  0
 11 17  1  0  0  0  0
 11 18  1  0  0  0  0
 11 19  1  0  0  0  0
M  END
$$$$
