KMN
 OpenBabel04161909333D

 65 67  0  0  1  0  0  0  0  0999 V2000
   92.2377   93.8318  -40.8553 C   0  0  0  0  0  0  0  0  0  0  0  0
   90.8161   89.7836  -48.9450 O   0  0  0  0  0  0  0  0  0  0  0  0
   91.4625   93.2759  -45.6534 C   0  0  0  0  0  0  0  0  0  0  0  0
   90.8289   95.5865  -45.1883 C   0  0  0  0  0  0  0  0  0  0  0  0
   90.7836   98.1446  -44.9846 N   0  3  2  0  0  0  0  0  0  0  0  0
   90.9911   96.4303  -42.9661 O   0  0  0  0  0  0  0  0  0  0  0  0
   91.7933   93.0868  -44.3126 C   0  0  0  0  0  0  0  0  0  0  0  0
   90.2835   96.8844  -45.7044 C   0  0  0  0  0  0  0  0  0  0  0  0
   92.1013  102.1982  -44.1929 N   0  3  0  0  0  0  0  0  0  0  0  0
   89.7772   99.2432  -45.0791 C   0  0  0  0  0  0  0  0  0  0  0  0
   90.9809   94.5154  -46.0885 C   0  0  0  0  0  0  0  0  0  0  0  0
   91.6367   92.2109  -46.5960 C   0  0  0  0  0  0  0  0  0  0  0  0
   91.6304   94.1362  -43.4095 C   0  0  0  0  0  0  0  0  0  0  0  0
   91.7999   91.3149  -47.3782 C   0  0  0  0  0  0  0  0  0  0  0  0
   92.0382   90.2526  -48.3711 C   0  0  0  0  0  0  0  0  0  0  0  0
   90.2396   90.5701  -49.9076 C   0  0  0  0  0  0  0  0  0  0  0  0
   91.1410   95.3678  -43.8410 C   0  0  0  0  0  0  0  0  0  0  0  0
   88.9834   90.1538  -50.3474 C   0  0  0  0  0  0  0  0  0  0  0  0
   90.2802  100.4372  -44.3141 C   0  0  0  0  0  0  0  0  0  0  0  0
   88.2922   90.8846  -51.3124 C   0  0  0  0  0  0  0  0  0  0  0  0
   91.6403  100.8830  -44.8466 C   0  0  2  0  0  0  0  0  0  0  0  0
   90.9603  103.0224  -43.5928 C   0  0  0  0  0  0  0  0  0  0  0  0
   90.4154  103.9929  -44.5977 C   0  0  0  0  0  0  0  0  0  0  0  0
   93.3038  102.1120  -43.2394 C   0  0  0  0  0  0  0  0  0  0  0  0
   93.6272  103.4712  -42.6666 C   0  0  0  0  0  0  0  0  0  0  0  0
   92.6513   99.7579  -44.6635 C   0  0  0  0  0  0  0  0  0  0  0  0
   92.1861   98.5074  -45.3929 C   0  0  0  0  0  0  0  0  0  0  0  0
   88.8611   92.0424  -51.8442 C   0  0  0  0  0  0  0  0  0  0  0  0
   90.1179   92.4607  -51.4140 C   0  0  0  0  0  0  0  0  0  0  0  0
   90.8044   91.7268  -50.4472 C   0  0  0  0  0  0  0  0  0  0  0  0
   91.9725   93.9177  -42.0561 C   0  0  0  0  0  0  0  0  0  0  0  0
   92.4667   93.7135  -39.8443 H   0  0  0  0  0  0  0  0  0  0  0  0
   91.2537   96.1074  -42.0620 H   0  0  0  0  0  0  0  0  0  0  0  0
   92.1770   92.1216  -43.9779 H   0  0  0  0  0  0  0  0  0  0  0  0
   89.1895   96.8720  -45.6277 H   0  0  0  0  0  0  0  0  0  0  0  0
   90.5627   97.0085  -46.7582 H   0  0  0  0  0  0  0  0  0  0  0  0
   88.8267   98.9003  -44.6595 H   0  0  0  0  0  0  0  0  0  0  0  0
   89.6457   99.4904  -46.1390 H   0  0  0  0  0  0  0  0  0  0  0  0
   90.7331   94.6453  -47.1425 H   0  0  0  0  0  0  0  0  0  0  0  0
   92.7247   90.5907  -49.1526 H   0  0  0  0  0  0  0  0  0  0  0  0
   92.5183   89.4079  -47.8649 H   0  0  0  0  0  0  0  0  0  0  0  0
   88.5386   89.2519  -49.9315 H   0  0  0  0  0  0  0  0  0  0  0  0
   90.3586  100.1994  -43.2433 H   0  0  0  0  0  0  0  0  0  0  0  0
   89.5357  101.2264  -44.4537 H   0  0  0  0  0  0  0  0  0  0  0  0
   87.3131   90.5536  -51.6498 H   0  0  0  0  0  0  0  0  0  0  0  0
   91.5366  101.0937  -45.9180 H   0  0  0  0  0  0  0  0  0  0  0  0
   91.2751  103.5507  -42.7171 H   0  0  0  0  0  0  0  0  0  0  0  0
   90.1922  102.3651  -43.2070 H   0  0  0  0  0  0  0  0  0  0  0  0
   89.5989  104.5641  -44.1327 H   0  0  0  0  0  0  0  0  0  0  0  0
   90.0281  103.4669  -45.4627 H   0  0  0  0  0  0  0  0  0  0  0  0
   91.1941  104.6936  -44.9059 H   0  0  0  0  0  0  0  0  0  0  0  0
   94.1698  101.7479  -43.8034 H   0  0  0  0  0  0  0  0  0  0  0  0
   93.0443  101.4074  -42.4432 H   0  0  0  0  0  0  0  0  0  0  0  0
   94.4650  103.4043  -41.9757 H   0  0  0  0  0  0  0  0  0  0  0  0
   92.8125  103.8690  -42.0681 H   0  0  0  0  0  0  0  0  0  0  0  0
   93.8523  104.1839  -43.4622 H   0  0  0  0  0  0  0  0  0  0  0  0
   92.7755   99.5277  -43.5978 H   0  0  0  0  0  0  0  0  0  0  0  0
   93.6233  100.0583  -45.0689 H   0  0  0  0  0  0  0  0  0  0  0  0
   92.1748   98.6872  -46.4749 H   0  0  0  0  0  0  0  0  0  0  0  0
   92.8505   97.6709  -45.1633 H   0  0  0  0  0  0  0  0  0  0  0  0
   88.3254   92.6071  -52.6015 H   0  0  0  0  0  0  0  0  0  0  0  0
   90.5616   93.3588  -51.8354 H   0  0  0  0  0  0  0  0  0  0  0  0
   91.7806   92.0769  -50.1331 H   0  0  0  0  0  0  0  0  0  0  0  0
   90.8245   97.8448  -43.9820 H   0  0  0  0  0  0  0  0  0  0  0  0
   92.4579  102.7766  -44.9792 H   0  0  0  0  0  0  0  0  0  0  0  0
  1 31  3  0  0  0  0
  1 32  1  0  0  0  0
  2 15  1  0  0  0  0
  2 16  1  0  0  0  0
  3  7  2  0  0  0  0
  3 11  1  0  0  0  0
  3 12  1  0  0  0  0
  4  8  1  0  0  0  0
  4 11  2  0  0  0  0
  4 17  1  0  0  0  0
  5  8  1  0  0  0  0
  5 10  1  0  0  0  0
  5 27  1  0  0  0  0
  5 64  1  1  0  0  0
  6 17  1  0  0  0  0
  6 33  1  0  0  0  0
  7 13  1  0  0  0  0
  7 34  1  0  0  0  0
  8 35  1  0  0  0  0
  8 36  1  0  0  0  0
  9 21  1  0  0  0  0
  9 22  1  0  0  0  0
  9 24  1  0  0  0  0
  9 65  1  0  0  0  0
 10 19  1  0  0  0  0
 10 37  1  0  0  0  0
 10 38  1  0  0  0  0
 11 39  1  0  0  0  0
 12 14  3  0  0  0  0
 13 17  2  0  0  0  0
 13 31  1  0  0  0  0
 14 15  1  0  0  0  0
 15 40  1  0  0  0  0
 15 41  1  0  0  0  0
 16 18  2  0  0  0  0
 16 30  1  0  0  0  0
 18 20  1  0  0  0  0
 18 42  1  0  0  0  0
 19 21  1  0  0  0  0
 19 43  1  0  0  0  0
 19 44  1  0  0  0  0
 20 28  2  0  0  0  0
 20 45  1  0  0  0  0
 21 26  1  0  0  0  0
 21 46  1  6  0  0  0
 22 23  1  0  0  0  0
 22 47  1  0  0  0  0
 22 48  1  0  0  0  0
 23 49  1  0  0  0  0
 23 50  1  0  0  0  0
 23 51  1  0  0  0  0
 24 25  1  0  0  0  0
 24 52  1  0  0  0  0
 24 53  1  0  0  0  0
 25 54  1  0  0  0  0
 25 55  1  0  0  0  0
 25 56  1  0  0  0  0
 26 27  1  0  0  0  0
 26 57  1  0  0  0  0
 26 58  1  0  0  0  0
 27 59  1  0  0  0  0
 27 60  1  0  0  0  0
 28 29  1  0  0  0  0
 28 61  1  0  0  0  0
 29 30  2  0  0  0  0
 29 62  1  0  0  0  0
 30 63  1  0  0  0  0
M  CHG  2   5   1   9   1
M  END
$$$$
