L19
 OpenBabel04161909513D

 54 58  0  0  1  0  0  0  0  0999 V2000
    6.7513    6.0761   14.1761 O   0  0  0  0  0  0  0  0  0  0  0  0
    6.8168    5.7991   15.4093 C   0  0  0  0  0  0  0  0  0  0  0  0
    6.4471    4.7638   16.0242 O   0  0  0  0  0  0  0  0  0  0  0  0
    7.5332    6.8407   16.2525 C   0  0  0  0  0  0  0  0  0  0  0  0
    6.6367    8.0563   16.4137 C   0  0  0  0  0  0  0  0  0  0  0  0
    5.4629    7.8302   17.2547 N   0  3  1  0  0  0  0  0  0  0  0  0
    4.1428    7.7484   16.8302 C   0  0  1  0  0  0  0  0  0  0  0  0
    3.7292    8.0220   15.4453 C   0  0  0  0  0  0  0  0  0  0  0  0
    3.9166    9.2943   14.8836 C   0  0  0  0  0  0  0  0  0  0  0  0
    3.5589    9.5473   13.5572 C   0  0  0  0  0  0  0  0  0  0  0  0
    2.9785    8.5395   12.7904 C   0  0  0  0  0  0  0  0  0  0  0  0
    2.7692    7.2775   13.3457 C   0  0  0  0  0  0  0  0  0  0  0  0
    3.1520    7.0175   14.6636 C   0  0  0  0  0  0  0  0  0  0  0  0
    3.4105    7.2666   17.9199 C   0  0  1  0  0  0  0  0  0  0  0  0
    4.2818    7.2564   19.0599 C   0  0  1  0  0  0  0  0  0  0  0  0
    4.1120    6.9423   20.4294 C   0  0  0  0  0  0  0  0  0  0  0  0
    5.1864    7.0033   21.3344 C   0  0  1  0  0  0  0  0  0  0  0  0
    5.0220    6.6712   22.7957 C   0  0  0  0  0  0  0  0  0  0  0  0
    5.2923    7.7713   23.7994 C   0  0  0  0  0  0  0  0  0  0  0  0
    3.8977    7.2561   23.6156 C   0  0  0  0  0  0  0  0  0  0  0  0
    6.4406    7.3738   20.8358 C   0  0  0  0  0  0  0  0  0  0  0  0
    6.6431    7.7049   19.4946 C   0  0  0  0  0  0  0  0  0  0  0  0
    5.5463    7.6370   18.6236 C   0  0  1  0  0  0  0  0  0  0  0  0
    1.9981    6.8707   17.8714 C   0  0  2  0  0  0  0  0  0  0  0  0
    1.0450    7.7604   17.3621 C   0  0  0  0  0  0  0  0  0  0  0  0
   -0.2827    7.3745   17.3318 C   0  0  0  0  0  0  0  0  0  0  0  0
   -0.7340    6.1848   17.7831 N   0  0  0  0  0  0  0  0  0  0  0  0
    0.2068    5.3377   18.2675 C   0  0  0  0  0  0  0  0  0  0  0  0
    1.5674    5.6200   18.3476 C   0  0  1  0  0  0  0  0  0  0  0  0
    2.5087    4.7408   18.8087 O   0  0  0  0  0  0  0  0  0  0  0  0
    2.0695    3.7155   19.6857 C   0  0  0  0  0  0  0  0  0  0  0  0
    8.4513    7.1329   15.7292 H   0  0  0  0  0  0  0  0  0  0  0  0
    7.8344    6.4147   17.2144 H   0  0  0  0  0  0  0  0  0  0  0  0
    6.3259    8.4431   15.4419 H   0  0  0  0  0  0  0  0  0  0  0  0
    7.1998    8.8689   16.8915 H   0  0  0  0  0  0  0  0  0  0  0  0
    4.3812   10.0831   15.4688 H   0  0  0  0  0  0  0  0  0  0  0  0
    3.7571   10.5204   13.1179 H   0  0  0  0  0  0  0  0  0  0  0  0
    2.7163    8.7244   11.7532 H   0  0  0  0  0  0  0  0  0  0  0  0
    2.3429    6.4784   12.7467 H   0  0  0  0  0  0  0  0  0  0  0  0
    3.0367    6.0142   15.0691 H   0  0  0  0  0  0  0  0  0  0  0  0
    3.1316    6.6356   20.7801 H   0  0  0  0  0  0  0  0  0  0  0  0
    5.3392    5.6688   23.0771 H   0  0  0  0  0  0  0  0  0  0  0  0
    5.5138    8.7648   23.4229 H   0  0  0  0  0  0  0  0  0  0  0  0
    5.8364    7.5047   24.6961 H   0  0  0  0  0  0  0  0  0  0  0  0
    3.4777    6.6447   24.4053 H   0  0  0  0  0  0  0  0  0  0  0  0
    3.1777    7.8994   23.1229 H   0  0  0  0  0  0  0  0  0  0  0  0
    7.2943    7.3978   21.5092 H   0  0  0  0  0  0  0  0  0  0  0  0
    7.6327    7.9712   19.1395 H   0  0  0  0  0  0  0  0  0  0  0  0
    1.3343    8.7332   16.9753 H   0  0  0  0  0  0  0  0  0  0  0  0
   -1.0447    8.0313   16.9251 H   0  0  0  0  0  0  0  0  0  0  0  0
   -0.1940    4.3809   18.5817 H   0  0  0  0  0  0  0  0  0  0  0  0
    2.9569    3.2243   20.0966 H   0  0  0  0  0  0  0  0  0  0  0  0
    1.4889    2.9591   19.1491 H   0  0  0  0  0  0  0  0  0  0  0  0
    1.4996    4.1274   20.5259 H   0  0  0  0  0  0  0  0  0  0  0  0
  1  2  2  0  0  0  0
  2  3  1  0  0  0  0
  2  4  1  0  0  0  0
  4  5  1  0  0  0  0
  4 32  1  0  0  0  0
  4 33  1  0  0  0  0
  5 34  1  0  0  0  0
  5 35  1  0  0  0  0
  6  5  1  6  0  0  0
  6  7  1  0  0  0  0
  6 23  1  0  0  0  0
  7  8  1  6  0  0  0
  7 14  1  0  0  0  0
  8  9  1  0  0  0  0
  8 13  1  0  0  0  0
  9 10  1  0  0  0  0
  9 36  1  0  0  0  0
 10 11  1  0  0  0  0
 10 37  1  0  0  0  0
 11 12  1  0  0  0  0
 11 38  1  0  0  0  0
 12 13  1  0  0  0  0
 12 39  1  0  0  0  0
 13 40  1  0  0  0  0
 14 15  1  0  0  0  0
 14 24  1  1  0  0  0
 15 16  1  6  0  0  0
 15 23  1  0  0  0  0
 16 17  1  0  0  0  0
 16 41  1  0  0  0  0
 17 18  1  6  0  0  0
 17 21  1  0  0  0  0
 18 19  1  0  0  0  0
 18 20  1  0  0  0  0
 18 42  1  0  0  0  0
 19 20  1  0  0  0  0
 19 43  1  0  0  0  0
 19 44  1  0  0  0  0
 20 45  1  0  0  0  0
 20 46  1  0  0  0  0
 21 22  1  0  0  0  0
 21 47  1  0  0  0  0
 22 48  1  0  0  0  0
 23 22  1  6  0  0  0
 24 25  1  1  0  0  0
 24 29  1  0  0  0  0
 25 26  1  0  0  0  0
 25 49  1  0  0  0  0
 26 27  1  0  0  0  0
 26 50  1  0  0  0  0
 27 28  1  0  0  0  0
 28 29  1  0  0  0  0
 28 51  1  0  0  0  0
 29 30  1  6  0  0  0
 30 31  1  0  0  0  0
 31 52  1  0  0  0  0
 31 53  1  0  0  0  0
 31 54  1  0  0  0  0
M  CHG  1   6   1
M  END
$$$$
