L28
 OpenBabel04161909493D

 54 55  0  0  1  0  0  0  0  0999 V2000
    1.2884   55.0066   24.7828 C   0  0  0  0  0  0  0  0  0  0  0  0
    0.8143   54.0863   23.8527 C   0  0  0  0  0  0  0  0  0  0  0  0
    2.2281   55.0940   22.1643 C   0  0  0  0  0  0  0  0  0  0  0  0
    5.5604   60.8760   21.6000 C   0  0  1  0  0  0  0  0  0  0  0  0
    4.6419   59.9144   22.2019 C   0  0  2  0  0  0  0  0  0  0  0  0
    2.6997   56.0072   23.1178 C   0  0  0  0  0  0  0  0  0  0  0  0
    2.2446   55.9965   24.4700 C   0  0  0  0  0  0  0  0  0  0  0  0
    1.2958   54.1355   22.5448 C   0  0  0  0  0  0  0  0  0  0  0  0
    4.8032   58.6933   21.5308 C   0  0  1  0  0  0  0  0  0  0  0  0
    6.2344   60.1788   20.5926 C   0  0  2  0  0  0  0  0  0  0  0  0
    5.8160   62.3097   21.8760 C   0  0  0  0  0  0  0  0  0  0  0  0
    4.1368   57.3832   21.5954 C   0  0  0  0  0  0  0  0  0  0  0  0
    7.2874   60.6271   19.6334 C   0  0  0  0  0  0  0  0  0  0  0  0
    4.3277   60.0064   24.6769 C   0  0  0  0  0  0  0  0  0  0  0  0
    2.8016   50.6647   19.5519 C   0  0  0  0  0  0  0  0  0  0  0  0
    2.1647   50.5430   23.4572 C   0  0  0  0  0  0  0  0  0  0  0  0
    3.6680   60.1813   23.3164 C   0  0  0  0  0  0  0  0  0  0  0  0
    2.8366   51.7279   20.6354 C   0  0  0  0  0  0  0  0  0  0  0  0
    1.2557   50.5876   22.2519 C   0  0  0  0  0  0  0  0  0  0  0  0
    5.7701   58.8952   20.5689 N   0  3  0  0  0  0  0  0  0  0  0  0
    3.6093   57.0416   22.8121 N   0  0  0  0  0  0  0  0  0  0  0  0
    1.5585   51.7093   21.3576 N   0  0  0  0  0  0  0  0  0  0  0  0
    6.5983   62.9876   21.2256 O   0  0  0  0  0  0  0  0  0  0  0  0
    4.1232   56.6817   20.5893 O   0  0  0  0  0  0  0  0  0  0  0  0
    0.6985   53.6917   20.0451 O   0  0  0  0  0  0  0  0  0  0  0  0
   -0.7331   52.6716   21.8376 O   0  0  0  0  0  0  0  0  0  0  0  0
    2.6351   56.8450   25.3473 O   0  0  0  0  0  0  0  0  0  0  0  0
    0.5715   53.0693   21.3463 S   0  0  0  0  0  0  0  0  0  0  0  0
    5.1571   62.9163   22.9075 N   0  0  0  0  0  0  0  0  0  0  0  0
    0.8907   54.9671   25.7959 H   0  0  0  0  0  0  0  0  0  0  0  0
    0.0641   53.3585   24.1411 H   0  0  0  0  0  0  0  0  0  0  0  0
    2.5598   55.1363   21.1332 H   0  0  0  0  0  0  0  0  0  0  0  0
    7.6241   59.8229   18.9685 H   0  0  0  0  0  0  0  0  0  0  0  0
    8.1642   60.9897   20.1795 H   0  0  0  0  0  0  0  0  0  0  0  0
    6.9110   61.4387   19.0021 H   0  0  0  0  0  0  0  0  0  0  0  0
    3.6129   60.1966   25.4825 H   0  0  0  0  0  0  0  0  0  0  0  0
    5.1772   60.6852   24.8025 H   0  0  0  0  0  0  0  0  0  0  0  0
    4.7158   58.9918   24.7951 H   0  0  0  0  0  0  0  0  0  0  0  0
    3.7315   50.6721   18.9795 H   0  0  0  0  0  0  0  0  0  0  0  0
    1.9642   50.8378   18.8670 H   0  0  0  0  0  0  0  0  0  0  0  0
    2.6810   49.6649   19.9803 H   0  0  0  0  0  0  0  0  0  0  0  0
    1.9108   49.6802   24.0810 H   0  0  0  0  0  0  0  0  0  0  0  0
    2.0598   51.4468   24.0615 H   0  0  0  0  0  0  0  0  0  0  0  0
    3.2124   50.4483   23.1622 H   0  0  0  0  0  0  0  0  0  0  0  0
    2.7914   59.5322   23.2343 H   0  0  0  0  0  0  0  0  0  0  0  0
    3.2455   61.1871   23.2351 H   0  0  0  0  0  0  0  0  0  0  0  0
    3.0070   52.7002   20.1626 H   0  0  0  0  0  0  0  0  0  0  0  0
    3.6835   51.5602   21.3070 H   0  0  0  0  0  0  0  0  0  0  0  0
    0.2164   50.6277   22.5892 H   0  0  0  0  0  0  0  0  0  0  0  0
    1.3327   49.6548   21.6852 H   0  0  0  0  0  0  0  0  0  0  0  0
    6.0568   58.1580   19.9312 H   0  0  0  0  0  0  0  0  0  0  0  0
    3.8109   57.5705   23.6602 H   0  0  0  0  0  0  0  0  0  0  0  0
    5.3734   63.8935   23.0533 H   0  0  0  0  0  0  0  0  0  0  0  0
    4.5217   62.4812   23.5502 H   0  0  0  0  0  0  0  0  0  0  0  0
  1  2  2  0  0  0  0
  1  7  1  0  0  0  0
  1 30  1  0  0  0  0
  2  8  1  0  0  0  0
  2 31  1  0  0  0  0
  3  6  1  0  0  0  0
  3  8  2  0  0  0  0
  3 32  1  0  0  0  0
  4  5  1  0  0  0  0
  4 10  1  0  0  0  0
  4 11  1  6  0  0  0
  5  9  1  0  0  0  0
  5 17  1  6  0  0  0
  6  7  2  0  0  0  0
  6 21  1  0  0  0  0
  7 27  1  0  0  0  0
  8 28  1  0  0  0  0
  9 12  1  6  0  0  0
  9 20  1  0  0  0  0
 10 13  1  6  0  0  0
 10 20  1  0  0  0  0
 11 23  2  0  0  0  0
 11 29  1  0  0  0  0
 12 21  1  0  0  0  0
 12 24  2  0  0  0  0
 13 33  1  0  0  0  0
 13 34  1  0  0  0  0
 13 35  1  0  0  0  0
 14 17  1  0  0  0  0
 14 36  1  0  0  0  0
 14 37  1  0  0  0  0
 14 38  1  0  0  0  0
 15 18  1  0  0  0  0
 15 39  1  0  0  0  0
 15 40  1  0  0  0  0
 15 41  1  0  0  0  0
 16 19  1  0  0  0  0
 16 42  1  0  0  0  0
 16 43  1  0  0  0  0
 16 44  1  0  0  0  0
 17 45  1  0  0  0  0
 17 46  1  0  0  0  0
 18 22  1  0  0  0  0
 18 47  1  0  0  0  0
 18 48  1  0  0  0  0
 19 22  1  0  0  0  0
 19 49  1  0  0  0  0
 19 50  1  0  0  0  0
 20 51  1  0  0  0  0
 21 52  1  0  0  0  0
 22 28  1  0  0  0  0
 25 28  2  0  0  0  0
 26 28  2  0  0  0  0
 29 53  1  0  0  0  0
 29 54  1  0  0  0  0
M  CHG  1  20   1
M  END
$$$$
