L66
 OpenBabel04161910383D

 50 54  0  0  1  0  0  0  0  0999 V2000
  -85.2260  -10.6478    5.0675 O   0  0  0  0  0  0  0  0  0  0  0  0
  -86.2128  -11.0304    5.6814 C   0  0  0  0  0  0  0  0  0  0  0  0
  -87.4261  -11.1548    5.0095 N   0  3  0  0  0  0  0  0  0  0  0  0
  -88.6312  -11.5651    5.5442 C   0  0  0  0  0  0  0  0  0  0  0  0
  -89.6429  -11.6280    4.8418 O   0  0  0  0  0  0  0  0  0  0  0  0
  -86.2106  -11.3642    7.0324 N   0  3  0  0  0  0  0  0  0  0  0  0
  -84.9559  -11.2488    7.7755 C   0  0  0  0  0  0  0  0  0  0  0  0
  -87.3866  -11.7909    7.6368 C   0  0  1  0  0  0  0  0  0  0  0  0
  -88.5755  -11.8949    6.9287 C   0  0  1  0  0  0  0  0  0  0  0  0
  -87.5288  -12.1610    8.9538 N   0  0  0  0  0  0  0  0  0  0  0  0
  -88.8036  -12.4760    9.0493 C   0  0  1  0  0  0  0  0  0  0  0  0
  -89.4908  -12.3355    7.8550 N   0  3  2  0  0  0  0  0  0  0  0  0
  -90.8349  -12.6985    8.0453 C   0  0  0  0  0  0  0  0  0  0  0  0
  -89.6852  -12.9582    9.9717 N   0  3  0  0  0  0  0  0  0  0  0  0
  -90.9694  -13.0578    9.3616 C   0  0  2  0  0  0  0  0  0  0  0  0
  -92.1279  -13.5336   10.1521 C   0  0  0  0  0  0  0  0  0  0  0  0
  -92.7018  -14.8037    9.9117 C   0  0  0  0  0  0  0  0  0  0  0  0
  -92.1892  -15.6817    8.7970 C   0  0  0  0  0  0  0  0  0  0  0  0
  -93.7627  -15.2496   10.7313 C   0  0  0  0  0  0  0  0  0  0  0  0
  -94.2418  -14.4511   11.7828 C   0  0  0  0  0  0  0  0  0  0  0  0
  -92.6086  -12.7570   11.2320 C   0  0  0  0  0  0  0  0  0  0  0  0
  -93.6581  -13.2116   12.0303 C   0  0  0  0  0  0  0  0  0  0  0  0
  -94.0959  -12.4070   13.0434 O   0  0  0  0  0  0  0  0  0  0  0  0
  -89.3824  -13.1490   11.3465 C   0  0  0  0  0  0  0  0  0  0  0  0
  -89.3283  -14.4398   11.9225 C   0  0  0  0  0  0  0  0  0  0  0  0
  -88.9876  -14.6101   13.2748 C   0  0  0  0  0  0  0  0  0  0  0  0
  -88.7245  -13.4992   14.0673 C   0  0  0  0  0  0  0  0  0  0  0  0
  -88.7970  -12.2207   13.5194 C   0  0  0  0  0  0  0  0  0  0  0  0
  -89.1174  -12.0364   12.1685 C   0  0  0  0  0  0  0  0  0  0  0  0
  -89.2223  -10.8021   11.5702 O   0  0  0  0  0  0  0  0  0  0  0  0
  -88.8555   -9.6904   12.3712 C   0  0  0  0  0  0  0  0  0  0  0  0
  -87.4061  -10.9102    4.0290 H   0  0  0  0  0  0  0  0  0  0  0  0
  -84.1385  -10.8998    7.1469 H   0  0  0  0  0  0  0  0  0  0  0  0
  -84.6902  -12.2321    8.1818 H   0  0  0  0  0  0  0  0  0  0  0  0
  -85.0920  -10.5408    8.6002 H   0  0  0  0  0  0  0  0  0  0  0  0
  -91.5726  -12.6770    7.2499 H   0  0  0  0  0  0  0  0  0  0  0  0
  -92.7316  -16.6310    8.7360 H   0  0  0  0  0  0  0  0  0  0  0  0
  -91.1268  -15.9122    8.9400 H   0  0  0  0  0  0  0  0  0  0  0  0
  -92.3121  -15.1697    7.8368 H   0  0  0  0  0  0  0  0  0  0  0  0
  -94.2165  -16.2215   10.5353 H   0  0  0  0  0  0  0  0  0  0  0  0
  -95.0647  -14.7967   12.4039 H   0  0  0  0  0  0  0  0  0  0  0  0
  -92.1598  -11.7925   11.4724 H   0  0  0  0  0  0  0  0  0  0  0  0
  -94.8310  -12.8489   13.4989 H   0  0  0  0  0  0  0  0  0  0  0  0
  -89.5287  -15.3237   11.3225 H   0  0  0  0  0  0  0  0  0  0  0  0
  -88.9230  -15.6068   13.7138 H   0  0  0  0  0  0  0  0  0  0  0  0
  -88.4617  -13.6175   15.1166 H   0  0  0  0  0  0  0  0  0  0  0  0
  -88.5941  -11.3740   14.1645 H   0  0  0  0  0  0  0  0  0  0  0  0
  -88.9652   -8.7766   11.7803 H   0  0  0  0  0  0  0  0  0  0  0  0
  -87.8106   -9.7724   12.6867 H   0  0  0  0  0  0  0  0  0  0  0  0
  -89.5179   -9.6138   13.2385 H   0  0  0  0  0  0  0  0  0  0  0  0
  1  2  2  0  0  0  0
  2  3  1  0  0  0  0
  2  6  1  0  0  0  0
  3  4  1  0  0  0  0
  3 32  1  0  0  0  0
  4  5  2  0  0  0  0
  6  7  1  0  0  0  0
  7 33  1  0  0  0  0
  7 34  1  0  0  0  0
  7 35  1  0  0  0  0
  8  6  1  6  0  0  0
  8  9  1  0  0  0  0
  8 10  1  0  0  0  0
  9  4  1  1  0  0  0
  9 12  1  0  0  0  0
 11 10  1  6  0  0  0
 11 12  1  0  0  0  0
 11 14  1  0  0  0  0
 12 13  1  6  0  0  0
 13 15  1  0  0  0  0
 13 36  1  0  0  0  0
 14 15  1  0  0  0  0
 14 24  1  0  0  0  0
 15 16  1  6  0  0  0
 16 17  2  0  0  0  0
 16 21  1  0  0  0  0
 17 18  1  0  0  0  0
 17 19  1  0  0  0  0
 18 37  1  0  0  0  0
 18 38  1  0  0  0  0
 18 39  1  0  0  0  0
 19 20  2  0  0  0  0
 19 40  1  0  0  0  0
 20 22  1  0  0  0  0
 20 41  1  0  0  0  0
 21 22  2  0  0  0  0
 21 42  1  0  0  0  0
 22 23  1  0  0  0  0
 23 43  1  0  0  0  0
 24 25  2  0  0  0  0
 24 29  1  0  0  0  0
 25 26  1  0  0  0  0
 25 44  1  0  0  0  0
 26 27  2  0  0  0  0
 26 45  1  0  0  0  0
 27 28  1  0  0  0  0
 27 46  1  0  0  0  0
 28 29  2  0  0  0  0
 28 47  1  0  0  0  0
 29 30  1  0  0  0  0
 30 31  1  0  0  0  0
 31 48  1  0  0  0  0
 31 49  1  0  0  0  0
 31 50  1  0  0  0  0
M  CHG  4   3   1   6   1  12   1  14   1
M  END
$$$$
