LU2
 OpenBabel04161910403D

 30 32  0  0  0  0  0  0  0  0999 V2000
   10.8837   -9.8140  -27.8514 C   0  0  0  0  0  0  0  0  0  0  0  0
   10.1426   -7.9333  -26.5767 O   0  0  0  0  0  0  0  0  0  0  0  0
   10.2789   -8.5752  -27.7749 C   0  0  0  0  0  0  0  0  0  0  0  0
    9.3622   -7.8758  -31.1928 O   0  0  0  0  0  0  0  0  0  0  0  0
    9.7852   -7.9527  -28.9165 C   0  0  0  0  0  0  0  0  0  0  0  0
   10.2003  -10.2344  -32.6628 O   0  0  0  0  0  0  0  0  0  0  0  0
    9.8482   -8.5165  -30.2070 C   0  0  0  0  0  0  0  0  0  0  0  0
   11.5977  -11.6547  -29.1177 O   0  3  0  0  0  0  0  0  0  0  0  0
   10.4669   -9.7964  -30.2641 C   0  0  0  0  0  0  0  0  0  0  0  0
   12.9511  -16.6605  -32.2680 O   0  0  0  0  0  0  0  0  0  0  0  0
   10.9845  -10.4227  -29.1037 C   0  0  0  0  0  0  0  0  0  0  0  0
   13.9237  -17.5103  -29.8502 O   0  0  0  0  0  0  0  0  0  0  0  0
   10.5879  -10.5569  -31.5418 C   0  0  0  0  0  0  0  0  0  0  0  0
   11.2222  -11.8688  -31.4705 C   0  0  0  0  0  0  0  0  0  0  0  0
   11.6728  -12.3521  -30.3112 C   0  0  0  0  0  0  0  0  0  0  0  0
   12.2756  -13.6999  -30.2154 C   0  0  0  0  0  0  0  0  0  0  0  0
   12.3499  -14.5724  -31.3211 C   0  0  0  0  0  0  0  0  0  0  0  0
   12.9011  -15.8315  -31.1837 C   0  0  0  0  0  0  0  0  0  0  0  0
   13.3988  -16.2505  -29.9515 C   0  0  0  0  0  0  0  0  0  0  0  0
   13.3525  -15.4091  -28.8518 C   0  0  0  0  0  0  0  0  0  0  0  0
   12.7821  -14.1424  -28.9861 C   0  0  0  0  0  0  0  0  0  0  0  0
   11.2774  -10.2961  -26.9624 H   0  0  0  0  0  0  0  0  0  0  0  0
    9.6583   -8.5465  -26.0044 H   0  0  0  0  0  0  0  0  0  0  0  0
    9.3034   -6.9785  -28.8239 H   0  0  0  0  0  0  0  0  0  0  0  0
   13.3692  -17.4800  -31.9396 H   0  0  0  0  0  0  0  0  0  0  0  0
   14.1825  -17.6337  -28.9237 H   0  0  0  0  0  0  0  0  0  0  0  0
   11.2564  -12.3778  -32.4216 H   0  0  0  0  0  0  0  0  0  0  0  0
   11.9784  -14.2993  -32.3017 H   0  0  0  0  0  0  0  0  0  0  0  0
   13.7464  -15.7023  -27.8859 H   0  0  0  0  0  0  0  0  0  0  0  0
   12.7330  -13.5018  -28.1073 H   0  0  0  0  0  0  0  0  0  0  0  0
  1  3  2  0  0  0  0
  1 11  1  0  0  0  0
  1 22  1  0  0  0  0
  2  3  1  0  0  0  0
  2 23  1  0  0  0  0
  3  5  1  0  0  0  0
  4  7  1  0  0  0  0
  5  7  2  0  0  0  0
  5 24  1  0  0  0  0
  6 13  2  0  0  0  0
  7  9  1  0  0  0  0
  8 11  1  0  0  0  0
  8 15  1  0  0  0  0
  9 11  2  0  0  0  0
  9 13  1  0  0  0  0
 10 18  1  0  0  0  0
 10 25  1  0  0  0  0
 12 19  1  0  0  0  0
 12 26  1  0  0  0  0
 13 14  1  0  0  0  0
 14 15  2  0  0  0  0
 14 27  1  0  0  0  0
 15 16  1  0  0  0  0
 16 17  2  0  0  0  0
 16 21  1  0  0  0  0
 17 18  1  0  0  0  0
 17 28  1  0  0  0  0
 18 19  2  0  0  0  0
 19 20  1  0  0  0  0
 20 21  2  0  0  0  0
 20 29  1  0  0  0  0
 21 30  1  0  0  0  0
M  CHG  1   8   1
M  END
$$$$
