M7G
 OpenBabel04161909403D

 44 46  0  0  1  0  0  0  0  0999 V2000
   43.2522    5.5042   31.9915 P   0  0  2  0  0  0  0  0  0  0  0  0
   44.7517    5.7981   31.7840 O   0  0  0  0  0  0  0  0  0  0  0  0
   42.3331    6.5778   32.5128 O   0  0  0  0  0  0  0  0  0  0  0  0
   43.0865    4.0402   32.6114 O   0  0  0  0  0  0  0  0  0  0  0  0
   42.6637    5.2006   30.4664 O   0  0  0  0  0  0  0  0  0  0  0  0
   42.2446    3.6736   33.9483 P   0  0  0  0  0  0  0  0  0  0  0  0
   40.7711    3.7980   33.5581 O   0  0  0  0  0  0  0  0  0  0  0  0
   42.7486    4.6056   35.0164 O   0  0  0  0  0  0  0  0  0  0  0  0
   42.6294    2.2117   34.1646 O   0  0  0  0  0  0  0  0  0  0  0  0
   43.1546    4.0706   29.8020 C   0  0  0  0  0  0  0  0  0  0  0  0
   42.0298    3.3310   29.1079 C   0  0  1  0  0  0  0  0  0  0  0  0
   42.6670    2.4467   28.1333 O   0  0  0  0  0  0  0  0  0  0  0  0
   41.2555    2.4595   30.1017 C   0  0  1  0  0  0  0  0  0  0  0  0
   39.8486    2.6027   29.8844 O   0  0  0  0  0  0  0  0  0  0  0  0
   41.6831    1.0392   29.7723 C   0  0  1  0  0  0  0  0  0  0  0  0
   40.6046    0.0888   29.7925 O   0  0  0  0  0  0  0  0  0  0  0  0
   42.1631    1.1490   28.3377 C   0  0  2  0  0  0  0  0  0  0  0  0
   43.2186    0.2069   27.9513 N   0  3  0  0  0  0  0  0  0  0  0  0
   44.3151   -0.0861   28.6893 C   0  0  0  0  0  0  0  0  0  0  0  0
   45.1660   -0.7909   27.9023 N   0  3  0  0  0  0  0  0  0  0  0  0
   46.4947   -1.2946   28.2716 C   0  0  0  0  0  0  0  0  0  0  0  0
   44.5595   -0.9722   26.6690 C   0  0  0  0  0  0  0  0  0  0  0  0
   44.9756   -1.6302   25.4531 C   0  0  0  0  0  0  0  0  0  0  0  0
   46.0461   -2.2194   25.2661 O   0  0  0  0  0  0  0  0  0  0  0  0
   44.0032   -1.5684   24.4623 N   0  3  0  0  0  0  0  0  0  0  0  0
   42.7567   -0.9480   24.5512 C   0  0  0  0  0  0  0  0  0  0  0  0
   42.0233   -1.0070   23.5329 N   0  0  0  0  0  0  0  0  0  0  0  0
   42.4309   -0.3437   25.7176 N   0  3  0  0  0  0  0  0  0  0  0  0
   43.3386   -0.3777   26.7187 C   0  0  0  0  0  0  0  0  0  0  0  0
   43.6393    3.3702   30.4797 H   0  0  0  0  0  0  0  0  0  0  0  0
   43.8819    4.3858   29.0581 H   0  0  0  0  0  0  0  0  0  0  0  0
   41.3469    4.0102   28.5692 H   0  0  0  0  0  0  0  0  0  0  0  0
   41.4935    2.7119   31.1316 H   0  0  0  0  0  0  0  0  0  0  0  0
   39.6112    2.3808   28.9816 H   0  0  0  0  0  0  0  0  0  0  0  0
   42.4948    0.6863   30.4135 H   0  0  0  0  0  0  0  0  0  0  0  0
   39.9169    0.4417   29.2010 H   0  0  0  0  0  0  0  0  0  0  0  0
   41.2927    1.0338   27.6601 H   0  0  0  0  0  0  0  0  0  0  0  0
   44.4945    0.2010   29.7189 H   0  0  0  0  0  0  0  0  0  0  0  0
   46.7084   -0.9918   29.2947 H   0  0  0  0  0  0  0  0  0  0  0  0
   47.2731   -0.8927   27.6080 H   0  0  0  0  0  0  0  0  0  0  0  0
   46.5211   -2.3912   28.2101 H   0  0  0  0  0  0  0  0  0  0  0  0
   44.2361   -2.0191   23.5697 H   0  0  0  0  0  0  0  0  0  0  0  0
   41.1174   -0.5080   23.7187 H   0  0  0  0  0  0  0  0  0  0  0  0
   41.5214    0.1138   25.7632 H   0  0  0  0  0  0  0  0  0  0  0  0
  1  2  2  6  0  0  0
  1  3  1  0  0  0  0
  1  4  1  0  0  0  0
  1  5  1  0  0  0  0
  4  6  1  0  0  0  0
  5 10  1  0  0  0  0
  6  7  2  0  0  0  0
  6  8  1  0  0  0  0
  6  9  1  0  0  0  0
 10 11  1  0  0  0  0
 10 30  1  0  0  0  0
 10 31  1  0  0  0  0
 11 12  1  0  0  0  0
 11 13  1  0  0  0  0
 11 32  1  6  0  0  0
 12 17  1  0  0  0  0
 13 14  1  0  0  0  0
 13 15  1  0  0  0  0
 13 33  1  1  0  0  0
 14 34  1  0  0  0  0
 15 16  1  0  0  0  0
 15 17  1  0  0  0  0
 15 35  1  1  0  0  0
 16 36  1  0  0  0  0
 17 18  1  0  0  0  0
 17 37  1  6  0  0  0
 18 19  2  0  0  0  0
 18 29  1  0  0  0  0
 19 20  1  0  0  0  0
 19 38  1  0  0  0  0
 20 21  1  0  0  0  0
 20 22  2  0  0  0  0
 21 39  1  0  0  0  0
 21 40  1  0  0  0  0
 21 41  1  0  0  0  0
 22 23  1  0  0  0  0
 22 29  1  0  0  0  0
 23 24  2  0  0  0  0
 23 25  1  0  0  0  0
 25 26  1  0  0  0  0
 25 42  1  0  0  0  0
 26 27  2  0  0  0  0
 26 28  1  0  0  0  0
 27 43  1  0  0  0  0
 28 29  2  0  0  0  0
 28 44  1  0  0  0  0
M  CHG  4  18   1  20   1  25   1  28   1
M  END
$$$$
