MBN
 OpenBabel04161910333D

 15 15  0  0  0  0  0  0  0  0999 V2000
   -5.2935    5.2793  -27.1237 C   0  0  0  0  0  0  0  0  0  0  0  0
   -5.9785    4.9687  -28.4165 C   0  0  0  0  0  0  0  0  0  0  0  0
   -5.6932    5.6887  -29.5785 C   0  0  0  0  0  0  0  0  0  0  0  0
   -6.3478    5.3983  -30.7726 C   0  0  0  0  0  0  0  0  0  0  0  0
   -7.2964    4.3744  -30.8045 C   0  0  0  0  0  0  0  0  0  0  0  0
   -7.5817    3.6499  -29.6448 C   0  0  0  0  0  0  0  0  0  0  0  0
   -6.9209    3.9424  -28.4517 C   0  0  0  0  0  0  0  0  0  0  0  0
   -4.5815    6.0987  -27.2468 H   0  0  0  0  0  0  0  0  0  0  0  0
   -4.7537    4.3959  -26.7728 H   0  0  0  0  0  0  0  0  0  0  0  0
   -6.0388    5.5732  -26.3801 H   0  0  0  0  0  0  0  0  0  0  0  0
   -4.9527    6.4865  -29.5526 H   0  0  0  0  0  0  0  0  0  0  0  0
   -6.1193    5.9719  -31.6676 H   0  0  0  0  0  0  0  0  0  0  0  0
   -7.8104    4.1268  -31.7330 H   0  0  0  0  0  0  0  0  0  0  0  0
   -8.3179    2.8524  -29.6574 H   0  0  0  0  0  0  0  0  0  0  0  0
   -7.1443    3.3810  -27.5512 H   0  0  0  0  0  0  0  0  0  0  0  0
  1  2  1  0  0  0  0
  1  8  1  0  0  0  0
  1  9  1  0  0  0  0
  1 10  1  0  0  0  0
  2  3  2  0  0  0  0
  2  7  1  0  0  0  0
  3  4  1  0  0  0  0
  3 11  1  0  0  0  0
  4  5  2  0  0  0  0
  4 12  1  0  0  0  0
  5  6  1  0  0  0  0
  5 13  1  0  0  0  0
  6  7  2  0  0  0  0
  6 14  1  0  0  0  0
  7 15  1  0  0  0  0
M  END
$$$$
