MFU
 OpenBabel04161909333D

 26 26  0  0  1  0  0  0  0  0999 V2000
   -5.2325    6.8662    9.2317 C   0  0  2  0  0  0  0  0  0  0  0  0
   -4.2788    6.6963    8.0382 C   0  0  2  0  0  0  0  0  0  0  0  0
   -3.9314    8.0719    7.4733 C   0  0  1  0  0  0  0  0  0  0  0  0
   -3.3076    8.9173    8.5792 C   0  0  1  0  0  0  0  0  0  0  0  0
   -4.2717    8.9783    9.7860 C   0  0  2  0  0  0  0  0  0  0  0  0
   -3.6838    9.7226   10.9755 C   0  0  0  0  0  0  0  0  0  0  0  0
   -6.4473    7.4343    8.7630 O   0  0  0  0  0  0  0  0  0  0  0  0
   -4.8639    5.9181    6.9864 O   0  0  0  0  0  0  0  0  0  0  0  0
   -3.0218    7.8719    6.3803 O   0  0  0  0  0  0  0  0  0  0  0  0
   -2.0628    8.2936    8.9095 O   0  0  0  0  0  0  0  0  0  0  0  0
   -4.6387    7.6715   10.2518 O   0  0  0  0  0  0  0  0  0  0  0  0
   -7.4645    7.4234    9.7436 C   0  0  0  0  0  0  0  0  0  0  0  0
   -5.4432    5.8741    9.6494 H   0  0  0  0  0  0  0  0  0  0  0  0
   -3.3593    6.1926    8.3651 H   0  0  0  0  0  0  0  0  0  0  0  0
   -4.8254    8.5582    7.0682 H   0  0  0  0  0  0  0  0  0  0  0  0
   -3.0885    9.9215    8.2099 H   0  0  0  0  0  0  0  0  0  0  0  0
   -5.1792    9.5141    9.4798 H   0  0  0  0  0  0  0  0  0  0  0  0
   -4.4068    9.7388   11.7993 H   0  0  0  0  0  0  0  0  0  0  0  0
   -3.4347   10.7547   10.7127 H   0  0  0  0  0  0  0  0  0  0  0  0
   -2.7872    9.2263   11.3603 H   0  0  0  0  0  0  0  0  0  0  0  0
   -5.0136    5.0293    7.3301 H   0  0  0  0  0  0  0  0  0  0  0  0
   -2.6846    8.7302    6.1234 H   0  0  0  0  0  0  0  0  0  0  0  0
   -1.6101    8.8314    9.5843 H   0  0  0  0  0  0  0  0  0  0  0  0
   -8.3532    7.8889    9.3150 H   0  0  0  0  0  0  0  0  0  0  0  0
   -7.1497    8.0053   10.6137 H   0  0  0  0  0  0  0  0  0  0  0  0
   -7.7053    6.3962   10.0306 H   0  0  0  0  0  0  0  0  0  0  0  0
  1  2  1  0  0  0  0
  1  7  1  0  0  0  0
  1 11  1  0  0  0  0
  1 13  1  1  0  0  0
  2  3  1  0  0  0  0
  2  8  1  0  0  0  0
  2 14  1  1  0  0  0
  3  4  1  0  0  0  0
  3  9  1  0  0  0  0
  3 15  1  6  0  0  0
  4  5  1  0  0  0  0
  4 10  1  0  0  0  0
  4 16  1  6  0  0  0
  5  6  1  0  0  0  0
  5 11  1  0  0  0  0
  5 17  1  6  0  0  0
  6 18  1  0  0  0  0
  6 19  1  0  0  0  0
  6 20  1  0  0  0  0
  7 12  1  0  0  0  0
  8 21  1  0  0  0  0
  9 22  1  0  0  0  0
 10 23  1  0  0  0  0
 12 24  1  0  0  0  0
 12 25  1  0  0  0  0
 12 26  1  0  0  0  0
M  END
$$$$
