MGT
 OpenBabel04161910013D

 48 50  0  0  1  0  0  0  0  0999 V2000
   32.7939   28.3178   22.1275 P   0  0  0  0  0  0  0  0  0  0  0  0
   32.3299   29.3099   21.0398 O   0  0  0  0  0  0  0  0  0  0  0  0
   33.7432   28.9711   23.1184 O   0  0  0  0  0  0  0  0  0  0  0  0
   33.2959   26.9983   21.5364 O   0  0  0  0  0  0  0  0  0  0  0  0
   31.4419   27.9161   22.9034 O   0  0  0  0  0  0  0  0  0  0  0  0
   31.2150   27.9611   24.4953 P   0  0  2  0  0  0  0  0  0  0  0  0
   32.4468   27.5727   25.2884 O   0  0  0  0  0  0  0  0  0  0  0  0
   29.9281   27.1941   24.7870 O   0  0  0  0  0  0  0  0  0  0  0  0
   30.9339   29.5409   24.6550 O   0  0  0  0  0  0  0  0  0  0  0  0
   30.1870   30.1484   25.9167 P   0  0  2  0  0  0  0  0  0  0  0  0
   30.8049   29.7619   27.2428 O   0  0  0  0  0  0  0  0  0  0  0  0
   28.6858   30.1598   25.7127 O   0  0  0  0  0  0  0  0  0  0  0  0
   30.6641   31.7228   25.7502 O   0  0  0  0  0  0  0  0  0  0  0  0
   29.7916   32.6088   25.0796 C   0  0  0  0  0  0  0  0  0  0  0  0
   30.4629   33.2197   23.8596 C   0  0  1  0  0  0  0  0  0  0  0  0
   31.5415   34.1052   24.2555 O   0  0  0  0  0  0  0  0  0  0  0  0
   31.0636   32.1860   22.9168 C   0  0  1  0  0  0  0  0  0  0  0  0
   31.0286   32.8097   21.6072 O   0  0  0  0  0  0  0  0  0  0  0  0
   32.5119   32.0669   23.3627 C   0  0  1  0  0  0  0  0  0  0  0  0
   33.4217   31.8128   22.2908 O   0  0  0  0  0  0  0  0  0  0  0  0
   32.7480   33.5001   23.8008 C   0  0  2  0  0  0  0  0  0  0  0  0
   33.7494   33.7559   24.8307 N   0  3  0  0  0  0  0  0  0  0  0  0
   33.5946   33.3597   26.1046 C   0  0  0  0  0  0  0  0  0  0  0  0
   34.6364   33.8878   26.8067 N   0  3  0  0  0  0  0  0  0  0  0  0
   34.8506   33.7036   28.2285 C   0  0  0  0  0  0  0  0  0  0  0  0
   35.4957   34.5408   25.9188 C   0  0  0  0  0  0  0  0  0  0  0  0
   36.7310   35.2745   26.0622 C   0  0  0  0  0  0  0  0  0  0  0  0
   37.3613   35.4498   27.1553 O   0  0  0  0  0  0  0  0  0  0  0  0
   37.2089   35.8321   24.8989 N   0  3  0  0  0  0  0  0  0  0  0  0
   36.6184   35.7501   23.6602 C   0  0  0  0  0  0  0  0  0  0  0  0
   37.2276   36.3650   22.7068 N   0  0  0  0  0  0  0  0  0  0  0  0
   35.4417   35.0406   23.5418 N   0  3  0  0  0  0  0  0  0  0  0  0
   34.9281   34.4570   24.6770 C   0  0  0  0  0  0  0  0  0  0  0  0
   29.5216   33.4029   25.7867 H   0  0  0  0  0  0  0  0  0  0  0  0
   28.8705   32.1227   24.7550 H   0  0  0  0  0  0  0  0  0  0  0  0
   29.7326   33.8501   23.3341 H   0  0  0  0  0  0  0  0  0  0  0  0
   30.5088   31.2437   22.9140 H   0  0  0  0  0  0  0  0  0  0  0  0
   31.3593   32.0892   21.0215 H   0  0  0  0  0  0  0  0  0  0  0  0
   32.6629   31.3525   24.1759 H   0  0  0  0  0  0  0  0  0  0  0  0
   33.2252   32.3908   21.5464 H   0  0  0  0  0  0  0  0  0  0  0  0
   33.0797   34.0535   22.9074 H   0  0  0  0  0  0  0  0  0  0  0  0
   32.7708   32.8005   26.5460 H   0  0  0  0  0  0  0  0  0  0  0  0
   34.0288   33.1188   28.6343 H   0  0  0  0  0  0  0  0  0  0  0  0
   34.8756   34.6772   28.7342 H   0  0  0  0  0  0  0  0  0  0  0  0
   35.7961   33.1819   28.4216 H   0  0  0  0  0  0  0  0  0  0  0  0
   38.0803   36.3293   24.9557 H   0  0  0  0  0  0  0  0  0  0  0  0
   36.7534   36.1852   21.8263 H   0  0  0  0  0  0  0  0  0  0  0  0
   35.0500   35.0014   22.6237 H   0  0  0  0  0  0  0  0  0  0  0  0
  1  2  2  0  0  0  0
  1  3  1  0  0  0  0
  1  4  1  0  0  0  0
  1  5  1  0  0  0  0
  6  5  1  6  0  0  0
  6  7  2  0  0  0  0
  6  8  1  0  0  0  0
  6  9  1  0  0  0  0
 10  9  1  6  0  0  0
 10 11  2  0  0  0  0
 10 12  1  0  0  0  0
 10 13  1  0  0  0  0
 13 14  1  0  0  0  0
 14 15  1  0  0  0  0
 14 34  1  0  0  0  0
 14 35  1  0  0  0  0
 15 16  1  0  0  0  0
 15 17  1  0  0  0  0
 15 36  1  6  0  0  0
 16 21  1  0  0  0  0
 17 18  1  0  0  0  0
 17 19  1  0  0  0  0
 17 37  1  1  0  0  0
 18 38  1  0  0  0  0
 19 20  1  0  0  0  0
 19 21  1  0  0  0  0
 19 39  1  1  0  0  0
 20 40  1  0  0  0  0
 21 22  1  0  0  0  0
 21 41  1  6  0  0  0
 22 23  2  0  0  0  0
 22 33  1  0  0  0  0
 23 24  1  0  0  0  0
 23 42  1  0  0  0  0
 24 25  1  0  0  0  0
 24 26  2  0  0  0  0
 25 43  1  0  0  0  0
 25 44  1  0  0  0  0
 25 45  1  0  0  0  0
 26 27  1  0  0  0  0
 26 33  1  0  0  0  0
 27 28  2  0  0  0  0
 27 29  1  0  0  0  0
 29 30  1  0  0  0  0
 29 46  1  0  0  0  0
 30 31  2  0  0  0  0
 30 32  1  0  0  0  0
 31 47  1  0  0  0  0
 32 33  2  0  0  0  0
 32 48  1  0  0  0  0
M  CHG  4  22   1  24   1  29   1  32   1
M  END
$$$$
