MIG
 OpenBabel04161911373D

 32 32  0  0  1  0  0  0  0  0999 V2000
  -17.3493  -34.8157   94.0843 O   0  0  0  0  0  0  0  0  0  0  0  0
  -16.3949  -30.0757   96.3126 O   0  0  0  0  0  0  0  0  0  0  0  0
  -11.2473  -32.3655   94.3705 O   0  0  0  0  0  0  0  0  0  0  0  0
  -11.3306  -30.7782   96.7596 O   0  0  0  0  0  0  0  0  0  0  0  0
  -13.5806  -31.0981   98.4067 O   0  0  0  0  0  0  0  0  0  0  0  0
  -16.3519  -34.2021   94.8837 C   0  0  0  0  0  0  0  0  0  0  0  0
  -16.2261  -31.2866   97.0436 C   0  0  0  0  0  0  0  0  0  0  0  0
  -16.1442  -32.7625   94.4207 C   0  0  0  0  0  0  0  0  0  0  0  0
  -13.6437  -32.6887   94.5029 C   0  0  0  0  0  0  0  0  0  0  0  0
  -12.4616  -31.8137   94.8773 C   0  0  1  0  0  0  0  0  0  0  0  0
  -12.3794  -31.6687   96.4048 C   0  0  2  0  0  0  0  0  0  0  0  0
  -13.6964  -31.1064   96.9822 C   0  0  1  0  0  0  0  0  0  0  0  0
  -14.9282  -31.9625   96.5627 C   0  0  2  0  0  0  0  0  0  0  0  0
  -14.9337  -32.0872   95.0257 N   0  3  2  0  0  0  0  0  0  0  0  0
  -17.0304  -34.9018   93.1651 H   0  0  0  0  0  0  0  0  0  0  0  0
  -16.9389  -30.2288   95.5244 H   0  0  0  0  0  0  0  0  0  0  0  0
  -11.0959  -33.2648   94.7146 H   0  0  0  0  0  0  0  0  0  0  0  0
  -10.5114  -31.0934   96.3373 H   0  0  0  0  0  0  0  0  0  0  0  0
  -12.8032  -30.5342   98.6141 H   0  0  0  0  0  0  0  0  0  0  0  0
  -15.4396  -34.8023   94.8132 H   0  0  0  0  0  0  0  0  0  0  0  0
  -16.6910  -34.2293   95.9222 H   0  0  0  0  0  0  0  0  0  0  0  0
  -17.1017  -31.9401   96.8939 H   0  0  0  0  0  0  0  0  0  0  0  0
  -16.1799  -31.0588   98.1130 H   0  0  0  0  0  0  0  0  0  0  0  0
  -17.0258  -32.1571   94.6407 H   0  0  0  0  0  0  0  0  0  0  0  0
  -16.0229  -32.7139   93.3301 H   0  0  0  0  0  0  0  0  0  0  0  0
  -13.5402  -33.6887   94.9318 H   0  0  0  0  0  0  0  0  0  0  0  0
  -13.7271  -32.7868   93.4179 H   0  0  0  0  0  0  0  0  0  0  0  0
  -12.5603  -30.8217   94.4199 H   0  0  0  0  0  0  0  0  0  0  0  0
  -12.1443  -32.6267   96.8721 H   0  0  0  0  0  0  0  0  0  0  0  0
  -13.8233  -30.0694   96.6595 H   0  0  0  0  0  0  0  0  0  0  0  0
  -14.8408  -32.9739   96.9809 H   0  0  0  0  0  0  0  0  0  0  0  0
  -14.9708  -31.1138   94.6864 H   0  0  0  0  0  0  0  0  0  0  0  0
  1  6  1  0  0  0  0
  1 15  1  0  0  0  0
  2  7  1  0  0  0  0
  2 16  1  0  0  0  0
  3 10  1  0  0  0  0
  3 17  1  0  0  0  0
  4 11  1  0  0  0  0
  4 18  1  0  0  0  0
  5 12  1  0  0  0  0
  5 19  1  0  0  0  0
  6  8  1  0  0  0  0
  6 20  1  0  0  0  0
  6 21  1  0  0  0  0
  7 13  1  0  0  0  0
  7 22  1  0  0  0  0
  7 23  1  0  0  0  0
  8 14  1  0  0  0  0
  8 24  1  0  0  0  0
  8 25  1  0  0  0  0
  9 10  1  0  0  0  0
  9 14  1  0  0  0  0
  9 26  1  0  0  0  0
  9 27  1  0  0  0  0
 10 11  1  0  0  0  0
 10 28  1  6  0  0  0
 11 12  1  0  0  0  0
 11 29  1  1  0  0  0
 12 13  1  0  0  0  0
 12 30  1  6  0  0  0
 13 14  1  0  0  0  0
 13 31  1  1  0  0  0
 14 32  1  6  0  0  0
M  CHG  1  14   1
M  END
$$$$
