MLR
 OpenBabel04161911103D

 66 68  0  0  1  0  0  0  0  0999 V2000
    7.9417   12.3514   38.6756 C   0  0  1  0  0  0  0  0  0  0  0  0
    7.9264   11.2785   37.5801 C   0  0  1  0  0  0  0  0  0  0  0  0
    9.3625   10.9969   37.1125 C   0  0  2  0  0  0  0  0  0  0  0  0
   10.0358   12.3161   36.6815 C   0  0  1  0  0  0  0  0  0  0  0  0
    9.9147   13.3675   37.7997 C   0  0  1  0  0  0  0  0  0  0  0  0
   10.4214   14.7317   37.3160 C   0  0  0  0  0  0  0  0  0  0  0  0
    8.6359   11.8702   39.8202 O   0  0  0  0  0  0  0  0  0  0  0  0
    7.2886   10.0859   38.0631 O   0  0  0  0  0  0  0  0  0  0  0  0
    9.2966   10.0770   36.0128 O   0  0  0  0  0  0  0  0  0  0  0  0
   11.4262   12.0612   36.4139 O   0  0  0  0  0  0  0  0  0  0  0  0
    8.5475   13.5418   38.2071 O   0  0  0  0  0  0  0  0  0  0  0  0
   10.4654   15.6574   38.4007 O   0  0  0  0  0  0  0  0  0  0  0  0
   11.8042   12.2594   35.0448 C   0  0  2  0  0  0  0  0  0  0  0  0
   12.6249   11.0473   34.5880 C   0  0  1  0  0  0  0  0  0  0  0  0
   14.0084   11.0267   35.2539 C   0  0  2  0  0  0  0  0  0  0  0  0
   14.7060   12.3875   35.1449 C   0  0  1  0  0  0  0  0  0  0  0  0
   13.7683   13.5144   35.5916 C   0  0  1  0  0  0  0  0  0  0  0  0
   14.4314   14.8720   35.3104 C   0  0  0  0  0  0  0  0  0  0  0  0
   11.8895    9.8501   34.9226 O   0  0  0  0  0  0  0  0  0  0  0  0
   14.8084   10.0228   34.6192 O   0  0  0  0  0  0  0  0  0  0  0  0
   15.8438   12.3800   36.0207 O   0  0  0  0  0  0  0  0  0  0  0  0
   12.5148   13.4877   34.8840 O   0  0  0  0  0  0  0  0  0  0  0  0
   13.6475   15.9278   35.8750 O   0  0  0  0  0  0  0  0  0  0  0  0
   17.0973   12.2435   35.3529 C   0  0  2  0  0  0  0  0  0  0  0  0
   17.9117   11.1163   36.0059 C   0  0  1  0  0  0  0  0  0  0  0  0
   18.2760   11.4947   37.4405 C   0  0  2  0  0  0  0  0  0  0  0  0
   19.0168   12.8477   37.4395 C   0  0  1  0  0  0  0  0  0  0  0  0
   18.1480   13.9019   36.7329 C   0  0  1  0  0  0  0  0  0  0  0  0
   18.8839   15.2472   36.6278 C   0  0  0  0  0  0  0  0  0  0  0  0
   17.1818    9.8808   35.9726 O   0  0  0  0  0  0  0  0  0  0  0  0
   19.0664   10.4382   38.0079 O   0  0  0  0  0  0  0  0  0  0  0  0
   19.3529   13.2569   38.7655 O   0  0  0  0  0  0  0  0  0  0  0  0
   17.8048   13.4780   35.4005 O   0  0  0  0  0  0  0  0  0  0  0  0
   18.0021   16.2813   36.1861 O   0  0  0  0  0  0  0  0  0  0  0  0
    6.9137   12.5747   38.9815 H   0  0  0  0  0  0  0  0  0  0  0  0
    7.3402   11.6313   36.7219 H   0  0  0  0  0  0  0  0  0  0  0  0
    9.9423   10.5035   37.9007 H   0  0  0  0  0  0  0  0  0  0  0  0
    9.5150   12.6830   35.7878 H   0  0  0  0  0  0  0  0  0  0  0  0
   10.5144   13.0769   38.6730 H   0  0  0  0  0  0  0  0  0  0  0  0
    9.7531   15.1407   36.5498 H   0  0  0  0  0  0  0  0  0  0  0  0
   11.4308   14.6580   36.9134 H   0  0  0  0  0  0  0  0  0  0  0  0
    8.4949   12.5594   40.4935 H   0  0  0  0  0  0  0  0  0  0  0  0
    7.8280    9.7728   38.8090 H   0  0  0  0  0  0  0  0  0  0  0  0
   10.1920    9.9301   35.6550 H   0  0  0  0  0  0  0  0  0  0  0  0
   10.7750   16.5039   38.0346 H   0  0  0  0  0  0  0  0  0  0  0  0
   10.9162   12.3105   34.4047 H   0  0  0  0  0  0  0  0  0  0  0  0
   12.7464   11.0682   33.5015 H   0  0  0  0  0  0  0  0  0  0  0  0
   13.9184   10.7249   36.3050 H   0  0  0  0  0  0  0  0  0  0  0  0
   15.0013   12.5572   34.1015 H   0  0  0  0  0  0  0  0  0  0  0  0
   13.5672   13.4513   36.6685 H   0  0  0  0  0  0  0  0  0  0  0  0
   14.5029   15.0574   34.2348 H   0  0  0  0  0  0  0  0  0  0  0  0
   15.4299   14.9341   35.7439 H   0  0  0  0  0  0  0  0  0  0  0  0
   12.0920    9.6657   35.8600 H   0  0  0  0  0  0  0  0  0  0  0  0
   15.6222    9.9094   35.1520 H   0  0  0  0  0  0  0  0  0  0  0  0
   12.8003   15.8910   35.4242 H   0  0  0  0  0  0  0  0  0  0  0  0
   16.9543   11.9830   34.2964 H   0  0  0  0  0  0  0  0  0  0  0  0
   18.8353   10.9547   35.4357 H   0  0  0  0  0  0  0  0  0  0  0  0
   17.3820   11.5550   38.0730 H   0  0  0  0  0  0  0  0  0  0  0  0
   19.9654   12.7272   36.9032 H   0  0  0  0  0  0  0  0  0  0  0  0
   17.2236   14.0713   37.3017 H   0  0  0  0  0  0  0  0  0  0  0  0
   19.6912   15.1806   35.8913 H   0  0  0  0  0  0  0  0  0  0  0  0
   19.3079   15.5603   37.5865 H   0  0  0  0  0  0  0  0  0  0  0  0
   17.6884    9.2570   36.5278 H   0  0  0  0  0  0  0  0  0  0  0  0
   19.9693   10.4953   37.6470 H   0  0  0  0  0  0  0  0  0  0  0  0
   18.5443   13.2732   39.3077 H   0  0  0  0  0  0  0  0  0  0  0  0
   17.2801   16.3597   36.8331 H   0  0  0  0  0  0  0  0  0  0  0  0
  1  2  1  0  0  0  0
  1  7  1  0  0  0  0
  1 11  1  0  0  0  0
  1 35  1  1  0  0  0
  2  3  1  0  0  0  0
  2  8  1  0  0  0  0
  2 36  1  6  0  0  0
  3  4  1  0  0  0  0
  3  9  1  0  0  0  0
  3 37  1  1  0  0  0
  4  5  1  0  0  0  0
  4 10  1  0  0  0  0
  4 38  1  6  0  0  0
  5  6  1  0  0  0  0
  5 11  1  0  0  0  0
  5 39  1  1  0  0  0
  6 12  1  0  0  0  0
  6 40  1  0  0  0  0
  6 41  1  0  0  0  0
  7 42  1  0  0  0  0
  8 43  1  0  0  0  0
  9 44  1  0  0  0  0
 10 13  1  0  0  0  0
 12 45  1  0  0  0  0
 13 14  1  0  0  0  0
 13 22  1  0  0  0  0
 13 46  1  6  0  0  0
 14 15  1  0  0  0  0
 14 19  1  0  0  0  0
 14 47  1  6  0  0  0
 15 16  1  0  0  0  0
 15 20  1  0  0  0  0
 15 48  1  1  0  0  0
 16 17  1  0  0  0  0
 16 21  1  0  0  0  0
 16 49  1  6  0  0  0
 17 18  1  0  0  0  0
 17 22  1  0  0  0  0
 17 50  1  1  0  0  0
 18 23  1  0  0  0  0
 18 51  1  0  0  0  0
 18 52  1  0  0  0  0
 19 53  1  0  0  0  0
 20 54  1  0  0  0  0
 21 24  1  0  0  0  0
 23 55  1  0  0  0  0
 24 25  1  0  0  0  0
 24 33  1  0  0  0  0
 24 56  1  6  0  0  0
 25 26  1  0  0  0  0
 25 30  1  0  0  0  0
 25 57  1  6  0  0  0
 26 27  1  0  0  0  0
 26 31  1  0  0  0  0
 26 58  1  1  0  0  0
 27 28  1  0  0  0  0
 27 32  1  0  0  0  0
 27 59  1  6  0  0  0
 28 29  1  0  0  0  0
 28 33  1  0  0  0  0
 28 60  1  1  0  0  0
 29 34  1  0  0  0  0
 29 61  1  0  0  0  0
 29 62  1  0  0  0  0
 30 63  1  0  0  0  0
 31 64  1  0  0  0  0
 32 65  1  0  0  0  0
 34 66  1  0  0  0  0
M  END
$$$$
