NBR
 OpenBabel04161910213D

 75 78  0  0  0  0  0  0  0  0999 V2000
  -11.0395   -0.5302   -3.4476 C   0  0  0  0  0  0  0  0  0  0  0  0
  -12.5086   -0.7083   -3.6718 N   0  0  0  0  0  0  0  0  0  0  0  0
  -13.0164   -1.2955   -4.9738 C   0  0  0  0  0  0  0  0  0  0  0  0
  -13.3848    0.2330   -3.0794 C   0  0  0  0  0  0  0  0  0  0  0  0
  -13.2392    1.5499   -3.2384 C   0  0  0  0  0  0  0  0  0  0  0  0
  -14.1834    2.4855   -2.5642 C   0  0  0  0  0  0  0  0  0  0  0  0
  -14.4857   -0.3197   -2.3341 C   0  0  0  0  0  0  0  0  0  0  0  0
  -15.4020    0.4317   -1.7238 C   0  0  0  0  0  0  0  0  0  0  0  0
  -15.1146    1.8194   -1.5955 N   0  0  0  0  0  0  0  0  0  0  0  0
  -16.2369    2.6712   -1.0978 C   0  0  0  0  0  0  0  0  0  0  0  0
  -15.7248    3.7367   -0.1676 C   0  0  0  0  0  0  0  0  0  0  0  0
  -14.6247    3.5544    0.6931 C   0  0  0  0  0  0  0  0  0  0  0  0
  -14.2545    4.5512    1.5849 C   0  0  0  0  0  0  0  0  0  0  0  0
  -16.4320    4.9292   -0.1185 C   0  0  0  0  0  0  0  0  0  0  0  0
  -16.0457    5.9295    0.7604 C   0  0  0  0  0  0  0  0  0  0  0  0
  -14.9645    5.7486    1.6205 C   0  0  0  0  0  0  0  0  0  0  0  0
  -14.5229    6.6672    2.5239 O   0  0  0  0  0  0  0  0  0  0  0  0
  -15.2769    7.8787    2.6219 C   0  0  0  0  0  0  0  0  0  0  0  0
  -15.0304    8.4986    3.9835 C   0  0  0  0  0  0  0  0  0  0  0  0
  -15.6041    7.6473    4.9881 O   0  0  0  0  0  0  0  0  0  0  0  0
  -15.6916    8.2009    6.2366 C   0  0  0  0  0  0  0  0  0  0  0  0
  -15.2922    9.4981    6.5395 C   0  0  0  0  0  0  0  0  0  0  0  0
  -15.4365    9.9897    7.8265 C   0  0  0  0  0  0  0  0  0  0  0  0
  -16.2350    7.3910    7.2408 C   0  0  0  0  0  0  0  0  0  0  0  0
  -16.3781    7.8787    8.5435 C   0  0  0  0  0  0  0  0  0  0  0  0
  -15.9861    9.1901    8.8316 C   0  0  0  0  0  0  0  0  0  0  0  0
  -16.2142    9.8263   10.1867 C   0  0  0  0  0  0  0  0  0  0  0  0
  -17.3840   10.7351   10.1093 N   0  3  0  0  0  0  0  0  0  0  0  0
  -18.6538   10.2269    9.8964 C   0  0  0  0  0  0  0  0  0  0  0  0
  -19.7463   10.9744    9.7105 C   0  0  0  0  0  0  0  0  0  0  0  0
  -19.6328   12.4741    9.6835 C   0  0  0  0  0  0  0  0  0  0  0  0
  -20.6414   13.2552    9.4148 N   0  0  0  0  0  0  0  0  0  0  0  0
  -20.4969   14.7423    9.3914 C   0  0  0  0  0  0  0  0  0  0  0  0
  -22.0044   12.7591    9.0557 C   0  0  0  0  0  0  0  0  0  0  0  0
  -18.2527   12.9863    9.9936 C   0  0  0  0  0  0  0  0  0  0  0  0
  -17.2474   12.1145   10.1581 C   0  0  0  0  0  0  0  0  0  0  0  0
  -10.5199   -1.2316   -4.1044 H   0  0  0  0  0  0  0  0  0  0  0  0
  -10.8781   -0.8182   -2.4046 H   0  0  0  0  0  0  0  0  0  0  0  0
  -10.7115    0.4930   -3.6073 H   0  0  0  0  0  0  0  0  0  0  0  0
  -14.1384   -1.1847   -4.9983 H   0  0  0  0  0  0  0  0  0  0  0  0
  -12.8093   -2.3712   -4.8861 H   0  0  0  0  0  0  0  0  0  0  0  0
  -12.5666   -0.8529   -5.8316 H   0  0  0  0  0  0  0  0  0  0  0  0
  -12.4401    2.0057   -3.8115 H   0  0  0  0  0  0  0  0  0  0  0  0
  -14.7443    3.0703   -3.2946 H   0  0  0  0  0  0  0  0  0  0  0  0
  -13.5859    3.1559   -1.9356 H   0  0  0  0  0  0  0  0  0  0  0  0
  -14.5611   -1.4084   -2.2593 H   0  0  0  0  0  0  0  0  0  0  0  0
  -16.1669   -0.0538   -1.1081 H   0  0  0  0  0  0  0  0  0  0  0  0
  -16.9256    2.0429   -0.5244 H   0  0  0  0  0  0  0  0  0  0  0  0
  -16.7509    3.1293   -1.9548 H   0  0  0  0  0  0  0  0  0  0  0  0
  -14.0233    2.6506    0.7170 H   0  0  0  0  0  0  0  0  0  0  0  0
  -13.4176    4.3836    2.2619 H   0  0  0  0  0  0  0  0  0  0  0  0
  -17.2990    5.0928   -0.7574 H   0  0  0  0  0  0  0  0  0  0  0  0
  -16.6297    6.8419    0.7546 H   0  0  0  0  0  0  0  0  0  0  0  0
  -16.3541    7.6994    2.5416 H   0  0  0  0  0  0  0  0  0  0  0  0
  -14.9542    8.5663    1.8306 H   0  0  0  0  0  0  0  0  0  0  0  0
  -15.5223    9.4787    3.9865 H   0  0  0  0  0  0  0  0  0  0  0  0
  -13.9553    8.6040    4.1664 H   0  0  0  0  0  0  0  0  0  0  0  0
  -14.8743   10.1690    5.7979 H   0  0  0  0  0  0  0  0  0  0  0  0
  -15.1440   11.0143    8.0371 H   0  0  0  0  0  0  0  0  0  0  0  0
  -16.5528    6.3788    7.0039 H   0  0  0  0  0  0  0  0  0  0  0  0
  -16.8129    7.2529    9.3193 H   0  0  0  0  0  0  0  0  0  0  0  0
  -15.2989   10.3638   10.4721 H   0  0  0  0  0  0  0  0  0  0  0  0
  -16.3675    9.0536   10.9484 H   0  0  0  0  0  0  0  0  0  0  0  0
  -18.7393    9.1441    9.8663 H   0  0  0  0  0  0  0  0  0  0  0  0
  -20.6922   10.4703    9.5660 H   0  0  0  0  0  0  0  0  0  0  0  0
  -21.4720   15.1885    9.1999 H   0  0  0  0  0  0  0  0  0  0  0  0
  -19.8007   15.0116    8.5892 H   0  0  0  0  0  0  0  0  0  0  0  0
  -20.1315   15.0661   10.3704 H   0  0  0  0  0  0  0  0  0  0  0  0
  -22.0645   11.6759    9.0967 H   0  0  0  0  0  0  0  0  0  0  0  0
  -22.2226   13.0795    8.0347 H   0  0  0  0  0  0  0  0  0  0  0  0
  -22.7177   13.1723    9.7700 H   0  0  0  0  0  0  0  0  0  0  0  0
  -18.0726   14.0524   10.0426 H   0  0  0  0  0  0  0  0  0  0  0  0
  -16.2449   12.4967   10.3400 H   0  0  0  0  0  0  0  0  0  0  0  0
  -12.5850   -1.5346   -3.0806 H   0  0  0  0  0  0  0  0  0  0  0  0
  -14.5214    1.8058   -0.7754 H   0  0  0  0  0  0  0  0  0  0  0  0
  1  2  1  0  0  0  0
  1 37  1  0  0  0  0
  1 38  1  0  0  0  0
  1 39  1  0  0  0  0
  2  3  1  0  0  0  0
  2  4  1  0  0  0  0
  2 74  1  0  0  0  0
  3 40  1  0  0  0  0
  3 41  1  0  0  0  0
  3 42  1  0  0  0  0
  4  5  2  0  0  0  0
  4  7  1  0  0  0  0
  5  6  1  0  0  0  0
  5 43  1  0  0  0  0
  6  9  1  0  0  0  0
  6 44  1  0  0  0  0
  6 45  1  0  0  0  0
  7  8  2  0  0  0  0
  7 46  1  0  0  0  0
  8  9  1  0  0  0  0
  8 47  1  0  0  0  0
  9 10  1  0  0  0  0
  9 75  1  0  0  0  0
 10 11  1  0  0  0  0
 10 48  1  0  0  0  0
 10 49  1  0  0  0  0
 11 12  2  0  0  0  0
 11 14  1  0  0  0  0
 12 13  1  0  0  0  0
 12 50  1  0  0  0  0
 13 16  2  0  0  0  0
 13 51  1  0  0  0  0
 14 15  2  0  0  0  0
 14 52  1  0  0  0  0
 15 16  1  0  0  0  0
 15 53  1  0  0  0  0
 16 17  1  0  0  0  0
 17 18  1  0  0  0  0
 18 19  1  0  0  0  0
 18 54  1  0  0  0  0
 18 55  1  0  0  0  0
 19 20  1  0  0  0  0
 19 56  1  0  0  0  0
 19 57  1  0  0  0  0
 20 21  1  0  0  0  0
 21 22  2  0  0  0  0
 21 24  1  0  0  0  0
 22 23  1  0  0  0  0
 22 58  1  0  0  0  0
 23 26  2  0  0  0  0
 23 59  1  0  0  0  0
 24 25  2  0  0  0  0
 24 60  1  0  0  0  0
 25 26  1  0  0  0  0
 25 61  1  0  0  0  0
 26 27  1  0  0  0  0
 27 28  1  0  0  0  0
 27 62  1  0  0  0  0
 27 63  1  0  0  0  0
 28 29  1  0  0  0  0
 28 36  1  0  0  0  0
 29 30  1  0  0  0  0
 29 64  1  0  0  0  0
 30 31  1  0  0  0  0
 30 65  1  0  0  0  0
 31 32  2  0  0  0  0
 31 35  1  0  0  0  0
 32 33  1  0  0  0  0
 32 34  1  0  0  0  0
 33 66  1  0  0  0  0
 33 67  1  0  0  0  0
 33 68  1  0  0  0  0
 34 69  1  0  0  0  0
 34 70  1  0  0  0  0
 34 71  1  0  0  0  0
 35 36  1  0  0  0  0
 35 72  1  0  0  0  0
 36 73  1  0  0  0  0
M  CHG  1  28   1
M  END
$$$$
