NHT
 OpenBabel04161911113D

 33 34  0  0  1  0  0  0  0  0999 V2000
  -16.1943    3.7994   38.1688 C   0  0  2  0  0  0  0  0  0  0  0  0
  -16.2491    2.6764   37.1330 C   0  0  1  0  0  0  0  0  0  0  0  0
  -15.2127    1.5779   37.3942 C   0  0  2  0  0  0  0  0  0  0  0  0
  -13.8288    2.2076   37.6273 C   0  0  1  0  0  0  0  0  0  0  0  0
  -13.9362    3.1865   38.8157 C   0  0  1  0  0  0  0  0  0  0  0  0
  -12.5990    3.8825   39.1273 C   0  0  0  0  0  0  0  0  0  0  0  0
  -18.1570    2.2140   38.4409 C   0  0  0  0  0  0  0  0  0  0  0  0
  -19.7607    0.9133   41.0411 C   0  0  0  0  0  0  0  0  0  0  0  0
  -17.6065    2.0848   37.2506 N   0  0  0  0  0  0  0  0  0  0  0  0
  -15.1882    0.6834   36.2786 O   0  0  0  0  0  0  0  0  0  0  0  0
  -12.9031    1.1586   37.8826 O   0  0  0  0  0  0  0  0  0  0  0  0
  -14.8974    4.2109   38.5540 O   0  0  0  0  0  0  0  0  0  0  0  0
  -19.3130    1.6647   38.7384 N   0  0  0  0  0  0  0  0  0  0  0  0
  -12.1265    4.6308   38.0106 O   0  0  0  0  0  0  0  0  0  0  0  0
  -17.2261    3.1897   39.5357 S   0  0  0  0  0  0  0  0  0  0  0  0
  -20.0852    1.9219   39.9653 C   0  0  0  0  0  0  0  0  0  0  0  0
  -16.7141    4.6740   37.7850 H   0  0  0  0  0  0  0  0  0  0  0  0
  -16.1316    3.0803   36.1223 H   0  0  0  0  0  0  0  0  0  0  0  0
  -15.4834    0.9681   38.2686 H   0  0  0  0  0  0  0  0  0  0  0  0
  -13.5211    2.7141   36.7043 H   0  0  0  0  0  0  0  0  0  0  0  0
  -14.2301    2.6420   39.7163 H   0  0  0  0  0  0  0  0  0  0  0  0
  -11.8320    3.1681   39.4314 H   0  0  0  0  0  0  0  0  0  0  0  0
  -12.7453    4.5951   39.9446 H   0  0  0  0  0  0  0  0  0  0  0  0
  -20.3571    1.1190   41.9334 H   0  0  0  0  0  0  0  0  0  0  0  0
  -18.7034    0.9506   41.3219 H   0  0  0  0  0  0  0  0  0  0  0  0
  -19.9819   -0.1052   40.7060 H   0  0  0  0  0  0  0  0  0  0  0  0
  -18.0662    1.6086   36.4857 H   0  0  0  0  0  0  0  0  0  0  0  0
  -14.4611    0.0459   36.4544 H   0  0  0  0  0  0  0  0  0  0  0  0
  -12.0015    1.5233   37.9319 H   0  0  0  0  0  0  0  0  0  0  0  0
  -11.8979    4.0375   37.2778 H   0  0  0  0  0  0  0  0  0  0  0  0
  -19.9093    2.9452   40.3131 H   0  0  0  0  0  0  0  0  0  0  0  0
  -21.1449    1.8580   39.6950 H   0  0  0  0  0  0  0  0  0  0  0  0
  -19.7166    1.0394   38.0540 H   0  0  0  0  0  0  0  0  0  0  0  0
  1  2  1  0  0  0  0
  1 12  1  0  0  0  0
  1 15  1  0  0  0  0
  1 17  1  6  0  0  0
  2  3  1  0  0  0  0
  2  9  1  0  0  0  0
  2 18  1  6  0  0  0
  3  4  1  0  0  0  0
  3 10  1  0  0  0  0
  3 19  1  1  0  0  0
  4  5  1  0  0  0  0
  4 11  1  0  0  0  0
  4 20  1  6  0  0  0
  5  6  1  0  0  0  0
  5 12  1  0  0  0  0
  5 21  1  1  0  0  0
  6 14  1  0  0  0  0
  6 22  1  0  0  0  0
  6 23  1  0  0  0  0
  7  9  1  0  0  0  0
  7 13  2  0  0  0  0
  7 15  1  0  0  0  0
  8 16  1  0  0  0  0
  8 24  1  0  0  0  0
  8 25  1  0  0  0  0
  8 26  1  0  0  0  0
  9 27  1  0  0  0  0
 10 28  1  0  0  0  0
 11 29  1  0  0  0  0
 13 16  1  0  0  0  0
 13 33  1  0  0  0  0
 14 30  1  0  0  0  0
 16 31  1  0  0  0  0
 16 32  1  0  0  0  0
M  END
$$$$
