NON
 OpenBabel04161910473D

 93 96  0  0  1  0  0  0  0  0999 V2000
  -28.0921   74.2735   45.3269 C   0  0  2  0  0  0  0  0  0  0  0  0
  -29.2466   74.8194   44.4781 C   0  0  1  0  0  0  0  0  0  0  0  0
  -29.9678   75.8979   45.2684 C   0  0  2  0  0  0  0  0  0  0  0  0
  -30.4902   75.4587   46.6003 C   0  0  2  0  0  0  0  0  0  0  0  0
  -29.3830   74.7842   47.3940 C   0  0  1  0  0  0  0  0  0  0  0  0
  -30.2462   74.0072   48.4329 C   0  0  0  0  0  0  0  0  0  0  0  0
  -27.6210   73.1805   44.5016 O   0  0  0  0  0  0  0  0  0  0  0  0
  -28.7416   75.4408   43.2634 O   0  0  0  0  0  0  0  0  0  0  0  0
  -31.0073   76.5034   44.4912 O   0  0  0  0  0  0  0  0  0  0  0  0
  -31.4894   74.4553   46.5709 O   0  0  0  0  0  0  0  0  0  0  0  0
  -28.5396   73.8677   46.6251 O   0  0  0  0  0  0  0  0  0  0  0  0
  -29.3033   73.5198   49.3603 O   0  0  0  0  0  0  0  0  0  0  0  0
  -25.3579   70.2305   45.2947 C   0  0  2  0  0  0  0  0  0  0  0  0
  -26.6800   70.9871   44.9920 C   0  0  2  0  0  0  0  0  0  0  0  0
  -26.4346   72.5115   44.9301 C   0  0  1  0  0  0  0  0  0  0  0  0
  -25.3368   72.7883   43.9153 C   0  0  1  0  0  0  0  0  0  0  0  0
  -24.8975   74.2560   43.9519 C   0  0  0  0  0  0  0  0  0  0  0  0
  -24.2831   70.6587   44.2630 C   0  0  2  0  0  0  0  0  0  0  0  0
  -23.0157   70.1579   44.6711 O   0  0  0  0  0  0  0  0  0  0  0  0
  -25.5357   68.7963   45.2664 O   0  0  0  0  0  0  0  0  0  0  0  0
  -27.6686   70.7252   46.0059 O   0  0  0  0  0  0  0  0  0  0  0  0
  -24.1600   72.0572   44.2164 O   0  0  0  0  0  0  0  0  0  0  0  0
  -24.9651   74.6890   42.5920 O   0  0  0  0  0  0  0  0  0  0  0  0
  -19.0813   70.0149   45.8214 C   0  0  2  0  0  0  0  0  0  0  0  0
  -19.2150   68.6699   46.5501 C   0  0  1  0  0  0  0  0  0  0  0  0
  -19.7463   67.5644   45.6110 C   0  0  2  0  0  0  0  0  0  0  0  0
  -21.0493   68.0705   44.9472 C   0  0  1  0  0  0  0  0  0  0  0  0
  -20.7642   69.4200   44.2484 C   0  0  1  0  0  0  0  0  0  0  0  0
  -22.0406   70.0363   43.6266 C   0  0  0  0  0  0  0  0  0  0  0  0
  -16.7791   68.0602   46.4245 C   0  0  0  0  0  0  0  0  0  0  0  0
  -15.5974   67.7465   47.3403 C   0  0  0  0  0  0  0  0  0  0  0  0
  -17.9307   68.2897   47.1734 N   0  0  0  0  0  0  0  0  0  0  0  0
  -18.7282   71.0146   46.7855 O   0  0  0  0  0  0  0  0  0  0  0  0
  -19.9864   66.3893   46.4296 O   0  0  0  0  0  0  0  0  0  0  0  0
  -21.4983   67.1223   43.9741 O   0  0  0  0  0  0  0  0  0  0  0  0
  -20.2836   70.3878   45.1932 O   0  0  0  0  0  0  0  0  0  0  0  0
  -16.7124   68.0930   45.2392 O   0  0  0  0  0  0  0  0  0  0  0  0
  -22.8408   66.6516   44.1848 C   0  0  1  0  0  0  0  0  0  0  0  0
  -23.1877   65.8777   42.8983 C   0  0  1  0  0  0  0  0  0  0  0  0
  -24.4042   64.9689   43.0964 C   0  0  2  0  0  0  0  0  0  0  0  0
  -24.3764   64.1541   44.4052 C   0  0  2  0  0  0  0  0  0  0  0  0
  -24.1103   65.1161   45.5597 C   0  0  1  0  0  0  0  0  0  0  0  0
  -24.0100   64.4151   46.9237 C   0  0  0  0  0  0  0  0  0  0  0  0
  -23.4746   66.8432   41.8540 O   0  0  0  0  0  0  0  0  0  0  0  0
  -24.4859   64.0839   41.9710 O   0  0  0  0  0  0  0  0  0  0  0  0
  -23.3381   63.1625   44.3749 O   0  0  0  0  0  0  0  0  0  0  0  0
  -22.8620   65.8026   45.3290 O   0  0  0  0  0  0  0  0  0  0  0  0
  -23.9497   65.4273   47.9436 O   0  0  0  0  0  0  0  0  0  0  0  0
  -27.3039   75.0356   45.3932 H   0  0  0  0  0  0  0  0  0  0  0  0
  -29.9263   74.0080   44.1911 H   0  0  0  0  0  0  0  0  0  0  0  0
  -29.2342   76.6848   45.4705 H   0  0  0  0  0  0  0  0  0  0  0  0
  -30.8827   76.3176   47.1466 H   0  0  0  0  0  0  0  0  0  0  0  0
  -28.7474   75.5084   47.9250 H   0  0  0  0  0  0  0  0  0  0  0  0
  -30.7980   73.1610   48.0191 H   0  0  0  0  0  0  0  0  0  0  0  0
  -30.9934   74.6851   48.9305 H   0  0  0  0  0  0  0  0  0  0  0  0
  -28.2595   74.7526   42.7631 H   0  0  0  0  0  0  0  0  0  0  0  0
  -30.6018   76.7746   43.6419 H   0  0  0  0  0  0  0  0  0  0  0  0
  -32.3471   74.6471   46.3465 H   0  0  0  0  0  0  0  0  0  0  0  0
  -29.8732   72.9735   50.0033 H   0  0  0  0  0  0  0  0  0  0  0  0
  -25.0348   70.4911   46.3113 H   0  0  0  0  0  0  0  0  0  0  0  0
  -27.1003   70.6030   44.0491 H   0  0  0  0  0  0  0  0  0  0  0  0
  -26.1307   72.8365   45.9262 H   0  0  0  0  0  0  0  0  0  0  0  0
  -25.6903   72.5657   42.8985 H   0  0  0  0  0  0  0  0  0  0  0  0
  -23.8736   74.3737   44.3294 H   0  0  0  0  0  0  0  0  0  0  0  0
  -25.5342   74.9011   44.5611 H   0  0  0  0  0  0  0  0  0  0  0  0
  -24.5406   70.2201   43.2947 H   0  0  0  0  0  0  0  0  0  0  0  0
  -25.8069   68.5481   44.3639 H   0  0  0  0  0  0  0  0  0  0  0  0
  -27.3415   71.0891   46.8500 H   0  0  0  0  0  0  0  0  0  0  0  0
  -24.6730   75.6192   42.5329 H   0  0  0  0  0  0  0  0  0  0  0  0
  -18.2919   69.9580   45.0742 H   0  0  0  0  0  0  0  0  0  0  0  0
  -19.9453   68.7675   47.3723 H   0  0  0  0  0  0  0  0  0  0  0  0
  -19.0007   67.2890   44.8519 H   0  0  0  0  0  0  0  0  0  0  0  0
  -21.7842   68.2025   45.7458 H   0  0  0  0  0  0  0  0  0  0  0  0
  -20.0262   69.2599   43.4469 H   0  0  0  0  0  0  0  0  0  0  0  0
  -21.7910   71.0135   43.1918 H   0  0  0  0  0  0  0  0  0  0  0  0
  -22.4439   69.3963   42.8302 H   0  0  0  0  0  0  0  0  0  0  0  0
  -14.7134   67.5758   46.7251 H   0  0  0  0  0  0  0  0  0  0  0  0
  -15.8060   66.8467   47.9214 H   0  0  0  0  0  0  0  0  0  0  0  0
  -15.4012   68.5774   48.0213 H   0  0  0  0  0  0  0  0  0  0  0  0
  -17.8937   68.2324   48.1717 H   0  0  0  0  0  0  0  0  0  0  0  0
  -18.6143   71.8541   46.3120 H   0  0  0  0  0  0  0  0  0  0  0  0
  -20.3902   65.6969   45.8758 H   0  0  0  0  0  0  0  0  0  0  0  0
  -23.5208   67.5048   44.2942 H   0  0  0  0  0  0  0  0  0  0  0  0
  -22.3247   65.2802   42.5748 H   0  0  0  0  0  0  0  0  0  0  0  0
  -25.3100   65.5871   43.0995 H   0  0  0  0  0  0  0  0  0  0  0  0
  -25.3319   63.6223   44.5384 H   0  0  0  0  0  0  0  0  0  0  0  0
  -24.9295   65.8410   45.6303 H   0  0  0  0  0  0  0  0  0  0  0  0
  -23.1074   63.7946   47.0122 H   0  0  0  0  0  0  0  0  0  0  0  0
  -24.8857   63.7862   47.1353 H   0  0  0  0  0  0  0  0  0  0  0  0
  -23.6785   66.3827   41.0229 H   0  0  0  0  0  0  0  0  0  0  0  0
  -24.4778   64.6100   41.1549 H   0  0  0  0  0  0  0  0  0  0  0  0
  -22.4891   63.6326   44.2559 H   0  0  0  0  0  0  0  0  0  0  0  0
  -23.1743   65.9885   47.7423 H   0  0  0  0  0  0  0  0  0  0  0  0
  1  2  1  0  0  0  0
  1  7  1  0  0  0  0
  1 11  1  0  0  0  0
  1 49  1  1  0  0  0
  2  3  1  0  0  0  0
  2  8  1  0  0  0  0
  2 50  1  6  0  0  0
  3  4  1  0  0  0  0
  3  9  1  0  0  0  0
  3 51  1  1  0  0  0
  4  5  1  0  0  0  0
  4 10  1  0  0  0  0
  4 52  1  1  0  0  0
  5  6  1  0  0  0  0
  5 11  1  0  0  0  0
  5 53  1  1  0  0  0
  6 12  1  0  0  0  0
  6 54  1  0  0  0  0
  6 55  1  0  0  0  0
  7 15  1  0  0  0  0
  8 56  1  0  0  0  0
  9 57  1  0  0  0  0
 10 58  1  0  0  0  0
 12 59  1  0  0  0  0
 13 14  1  0  0  0  0
 13 18  1  0  0  0  0
 13 20  1  0  0  0  0
 13 60  1  1  0  0  0
 14 15  1  0  0  0  0
 14 21  1  0  0  0  0
 14 61  1  6  0  0  0
 15 16  1  0  0  0  0
 15 62  1  1  0  0  0
 16 17  1  0  0  0  0
 16 22  1  0  0  0  0
 16 63  1  6  0  0  0
 17 23  1  0  0  0  0
 17 64  1  0  0  0  0
 17 65  1  0  0  0  0
 18 19  1  0  0  0  0
 18 22  1  0  0  0  0
 18 66  1  6  0  0  0
 19 29  1  0  0  0  0
 20 67  1  0  0  0  0
 21 68  1  0  0  0  0
 23 69  1  0  0  0  0
 24 25  1  0  0  0  0
 24 33  1  0  0  0  0
 24 36  1  0  0  0  0
 24 70  1  6  0  0  0
 25 26  1  0  0  0  0
 25 32  1  0  0  0  0
 25 71  1  1  0  0  0
 26 27  1  0  0  0  0
 26 34  1  0  0  0  0
 26 72  1  6  0  0  0
 27 28  1  0  0  0  0
 27 35  1  0  0  0  0
 27 73  1  1  0  0  0
 28 29  1  0  0  0  0
 28 36  1  0  0  0  0
 28 74  1  6  0  0  0
 29 75  1  0  0  0  0
 29 76  1  0  0  0  0
 30 31  1  0  0  0  0
 30 32  1  0  0  0  0
 30 37  2  0  0  0  0
 31 77  1  0  0  0  0
 31 78  1  0  0  0  0
 31 79  1  0  0  0  0
 32 80  1  0  0  0  0
 33 81  1  0  0  0  0
 34 82  1  0  0  0  0
 35 38  1  0  0  0  0
 38 39  1  0  0  0  0
 38 47  1  0  0  0  0
 38 83  1  1  0  0  0
 39 40  1  0  0  0  0
 39 44  1  0  0  0  0
 39 84  1  6  0  0  0
 40 41  1  0  0  0  0
 40 45  1  0  0  0  0
 40 85  1  1  0  0  0
 41 42  1  0  0  0  0
 41 46  1  0  0  0  0
 41 86  1  1  0  0  0
 42 43  1  0  0  0  0
 42 47  1  0  0  0  0
 42 87  1  1  0  0  0
 43 48  1  0  0  0  0
 43 88  1  0  0  0  0
 43 89  1  0  0  0  0
 44 90  1  0  0  0  0
 45 91  1  0  0  0  0
 46 92  1  0  0  0  0
 48 93  1  0  0  0  0
M  END
$$$$
