NSG
 OpenBabel04161909333D

 30 31  0  0  1  0  0  0  0  0999 V2000
  -21.1915  -32.4707   13.3172 C   0  0  2  0  0  0  0  0  0  0  0  0
  -21.5154  -32.9463   11.5828 S   0  0  0  0  0  0  0  0  0  0  0  0
  -22.5640  -32.2095   13.9099 C   0  0  2  0  0  0  0  0  0  0  0  0
  -23.4460  -33.3069   13.2942 N   0  3  0  0  0  0  0  0  0  0  0  0
  -23.1236  -30.8129   13.5347 C   0  0  1  0  0  0  0  0  0  0  0  0
  -24.3128  -30.5260   14.2733 O   0  0  0  0  0  0  0  0  0  0  0  0
  -22.0568  -29.7105   13.7592 C   0  0  1  0  0  0  0  0  0  0  0  0
  -21.8589  -29.5596   15.1663 O   0  0  0  0  0  0  0  0  0  0  0  0
  -20.7537  -30.1165   13.0453 C   0  0  2  0  0  0  0  0  0  0  0  0
  -20.2887  -31.4026   13.4711 O   0  0  0  0  0  0  0  0  0  0  0  0
  -19.5919  -29.1279   13.2069 C   0  0  0  0  0  0  0  0  0  0  0  0
  -19.0362  -29.0809   14.5116 O   0  0  0  0  0  0  0  0  0  0  0  0
  -23.2687  -33.2912   11.8187 C   0  0  2  0  0  0  0  0  0  0  0  0
  -23.6988  -34.5976   11.1946 C   0  0  0  0  0  0  0  0  0  0  0  0
  -20.7467  -33.3485   13.7836 H   0  0  0  0  0  0  0  0  0  0  0  0
  -22.5856  -32.3591   14.9960 H   0  0  0  0  0  0  0  0  0  0  0  0
  -23.1144  -34.2232   13.6538 H   0  0  0  0  0  0  0  0  0  0  0  0
  -23.3928  -30.7539   12.4811 H   0  0  0  0  0  0  0  0  0  0  0  0
  -25.0515  -31.1036   14.0120 H   0  0  0  0  0  0  0  0  0  0  0  0
  -22.4410  -28.7623   13.3532 H   0  0  0  0  0  0  0  0  0  0  0  0
  -21.4858  -28.6678   15.3140 H   0  0  0  0  0  0  0  0  0  0  0  0
  -20.9605  -30.1777   11.9696 H   0  0  0  0  0  0  0  0  0  0  0  0
  -19.8812  -28.1214   12.8960 H   0  0  0  0  0  0  0  0  0  0  0  0
  -18.7627  -29.4580   12.5555 H   0  0  0  0  0  0  0  0  0  0  0  0
  -19.6877  -28.7769   15.1566 H   0  0  0  0  0  0  0  0  0  0  0  0
  -23.8894  -32.4818   11.4310 H   0  0  0  0  0  0  0  0  0  0  0  0
  -24.7558  -34.7849   11.3875 H   0  0  0  0  0  0  0  0  0  0  0  0
  -23.1291  -35.4489   11.5474 H   0  0  0  0  0  0  0  0  0  0  0  0
  -23.5805  -34.5462   10.0920 H   0  0  0  0  0  0  0  0  0  0  0  0
  -24.4346  -33.2292   13.5825 H   0  0  0  0  0  0  0  0  0  0  0  0
  1  2  1  0  0  0  0
  1  3  1  0  0  0  0
  1 10  1  0  0  0  0
  1 15  1  1  0  0  0
  2 13  1  0  0  0  0
  3  4  1  0  0  0  0
  3  5  1  0  0  0  0
  3 16  1  1  0  0  0
  4 13  1  0  0  0  0
  4 17  1  0  0  0  0
  4 30  1  0  0  0  0
  5  6  1  0  0  0  0
  5  7  1  0  0  0  0
  5 18  1  6  0  0  0
  6 19  1  0  0  0  0
  7  8  1  0  0  0  0
  7  9  1  0  0  0  0
  7 20  1  6  0  0  0
  8 21  1  0  0  0  0
  9 10  1  0  0  0  0
  9 11  1  0  0  0  0
  9 22  1  6  0  0  0
 11 12  1  0  0  0  0
 11 23  1  0  0  0  0
 11 24  1  0  0  0  0
 12 25  1  0  0  0  0
 13 14  1  0  0  0  0
 13 26  1  6  0  0  0
 14 27  1  0  0  0  0
 14 28  1  0  0  0  0
 14 29  1  0  0  0  0
M  CHG  1   4   1
M  END
$$$$
