NYT
 OpenBabel04161910253D

 87 90  0  0  1  0  0  0  0  0999 V2000
   18.7925   46.3805   49.2813 C   0  0  2  0  0  0  0  0  0  0  0  0
   18.7286   45.0481   48.7858 O   0  0  0  0  0  0  0  0  0  0  0  0
   17.3648   46.7372   49.7333 C   0  0  2  0  0  0  0  0  0  0  0  0
   16.8681   45.7654   50.6787 O   0  0  0  0  0  0  0  0  0  0  0  0
   16.4486   46.7497   48.5082 C   0  0  1  0  0  0  0  0  0  0  0  0
   15.1177   47.1610   48.8495 O   0  0  0  0  0  0  0  0  0  0  0  0
   17.0034   47.7403   47.4913 C   0  0  2  0  0  0  0  0  0  0  0  0
   16.1714   47.7791   46.3343 O   0  0  0  0  0  0  0  0  0  0  0  0
   18.4465   47.3750   47.1257 C   0  0  2  0  0  0  0  0  0  0  0  0
   19.2725   47.2916   48.2982 O   0  0  0  0  0  0  0  0  0  0  0  0
   19.0895   48.4078   46.1771 C   0  0  0  0  0  0  0  0  0  0  0  0
   18.5731   49.7246   46.3577 O   0  0  0  0  0  0  0  0  0  0  0  0
   20.2303   43.9956   50.4350 C   0  0  0  0  0  0  0  0  0  0  0  0
   21.3881   43.1812   50.4926 O   0  0  0  0  0  0  0  0  0  0  0  0
   21.6543   43.2186   52.9823 C   0  0  0  0  0  0  0  0  0  0  0  0
   21.1344   41.9085   53.1315 O   0  0  0  0  0  0  0  0  0  0  0  0
   20.0848   42.2274   55.3407 C   0  0  0  0  0  0  0  0  0  0  0  0
   18.7513   42.1123   54.8463 O   0  0  0  0  0  0  0  0  0  0  0  0
   19.9082   44.2636   48.9477 C   0  0  2  0  0  0  0  0  0  0  0  0
   21.0362   44.9401   48.3495 O   0  0  0  0  0  0  0  0  0  0  0  0
   22.2811   43.4230   51.5773 C   0  0  2  0  0  0  0  0  0  0  0  0
   22.7888   44.7659   51.5212 O   0  0  0  0  0  0  0  0  0  0  0  0
   21.0852   41.4305   54.4866 C   0  0  2  0  0  0  0  0  0  0  0  0
   22.3813   41.5355   55.0924 O   0  0  0  0  0  0  0  0  0  0  0  0
   19.7201   42.9353   48.1520 C   0  0  1  0  0  0  0  0  0  0  0  0
   18.3601   42.5108   48.0344 O   0  0  0  0  0  0  0  0  0  0  0  0
   23.4925   42.5007   51.3451 C   0  0  1  0  0  0  0  0  0  0  0  0
   23.1508   41.2270   50.8109 O   0  0  0  0  0  0  0  0  0  0  0  0
   20.7559   39.9221   54.4438 C   0  0  1  0  0  0  0  0  0  0  0  0
   19.8101   39.5315   53.4520 O   0  0  0  0  0  0  0  0  0  0  0  0
   20.3254   43.2939   46.8020 C   0  0  2  0  0  0  0  0  0  0  0  0
   20.7686   42.1425   46.0882 O   0  0  0  0  0  0  0  0  0  0  0  0
   24.3511   43.3413   50.4125 C   0  0  2  0  0  0  0  0  0  0  0  0
   25.7267   42.9741   50.5094 O   0  0  0  0  0  0  0  0  0  0  0  0
   22.1409   39.3559   54.1560 C   0  0  2  0  0  0  0  0  0  0  0  0
   22.2510   37.9786   54.4969 O   0  0  0  0  0  0  0  0  0  0  0  0
   21.5020   44.1501   47.2407 C   0  0  1  0  0  0  0  0  0  0  0  0
   24.0838   44.7655   50.8976 C   0  0  1  0  0  0  0  0  0  0  0  0
   22.9871   40.2342   55.0690 C   0  0  1  0  0  0  0  0  0  0  0  0
   22.0370   45.0920   46.1708 C   0  0  0  0  0  0  0  0  0  0  0  0
   21.0548   46.0705   45.8499 O   0  0  0  0  0  0  0  0  0  0  0  0
   24.1169   45.7750   49.7506 C   0  0  0  0  0  0  0  0  0  0  0  0
   23.6674   47.0516   50.1945 O   0  0  0  0  0  0  0  0  0  0  0  0
   24.4373   40.3622   54.6161 C   0  0  0  0  0  0  0  0  0  0  0  0
   25.1385   41.2169   55.5177 O   0  0  0  0  0  0  0  0  0  0  0  0
   19.4510   46.4609   50.1489 H   0  0  0  0  0  0  0  0  0  0  0  0
   17.3545   47.7123   50.2314 H   0  0  0  0  0  0  0  0  0  0  0  0
   16.9905   44.8945   50.2548 H   0  0  0  0  0  0  0  0  0  0  0  0
   16.3548   45.7538   48.0686 H   0  0  0  0  0  0  0  0  0  0  0  0
   14.8394   46.5614   49.5726 H   0  0  0  0  0  0  0  0  0  0  0  0
   16.9653   48.7342   47.9482 H   0  0  0  0  0  0  0  0  0  0  0  0
   15.2612   47.8549   46.6882 H   0  0  0  0  0  0  0  0  0  0  0  0
   18.4759   46.4026   46.6192 H   0  0  0  0  0  0  0  0  0  0  0  0
   18.9313   48.1203   45.1333 H   0  0  0  0  0  0  0  0  0  0  0  0
   20.1665   48.4744   46.3575 H   0  0  0  0  0  0  0  0  0  0  0  0
   17.6408   49.6878   46.0715 H   0  0  0  0  0  0  0  0  0  0  0  0
   20.4134   44.9316   50.9654 H   0  0  0  0  0  0  0  0  0  0  0  0
   19.3965   43.4917   50.9351 H   0  0  0  0  0  0  0  0  0  0  0  0
   22.4434   43.4321   53.7233 H   0  0  0  0  0  0  0  0  0  0  0  0
   20.8603   43.9386   53.1435 H   0  0  0  0  0  0  0  0  0  0  0  0
   20.1080   41.8765   56.3782 H   0  0  0  0  0  0  0  0  0  0  0  0
   20.3543   43.2886   55.3716 H   0  0  0  0  0  0  0  0  0  0  0  0
   18.7567   42.4915   53.9499 H   0  0  0  0  0  0  0  0  0  0  0  0
   20.2785   42.1007   48.5928 H   0  0  0  0  0  0  0  0  0  0  0  0
   18.3514   41.6930   47.5026 H   0  0  0  0  0  0  0  0  0  0  0  0
   24.0368   42.3279   52.2716 H   0  0  0  0  0  0  0  0  0  0  0  0
   23.9494   40.8138   50.4566 H   0  0  0  0  0  0  0  0  0  0  0  0
   20.3983   39.5507   55.4103 H   0  0  0  0  0  0  0  0  0  0  0  0
   19.0059   40.0572   53.6085 H   0  0  0  0  0  0  0  0  0  0  0  0
   19.6093   43.8400   46.1772 H   0  0  0  0  0  0  0  0  0  0  0  0
   19.9862   41.6253   45.8330 H   0  0  0  0  0  0  0  0  0  0  0  0
   24.0527   43.1989   49.3692 H   0  0  0  0  0  0  0  0  0  0  0  0
   26.0445   43.1944   51.4035 H   0  0  0  0  0  0  0  0  0  0  0  0
   22.3910   39.4780   53.0948 H   0  0  0  0  0  0  0  0  0  0  0  0
   23.1225   37.6679   54.2001 H   0  0  0  0  0  0  0  0  0  0  0  0
   22.3248   43.5183   47.5925 H   0  0  0  0  0  0  0  0  0  0  0  0
   24.8056   45.0788   51.6614 H   0  0  0  0  0  0  0  0  0  0  0  0
   22.9732   39.8546   56.1005 H   0  0  0  0  0  0  0  0  0  0  0  0
   22.3244   44.5603   45.2610 H   0  0  0  0  0  0  0  0  0  0  0  0
   22.9064   45.6395   46.5493 H   0  0  0  0  0  0  0  0  0  0  0  0
   20.8216   46.4619   46.7178 H   0  0  0  0  0  0  0  0  0  0  0  0
   23.4698   45.4488   48.9344 H   0  0  0  0  0  0  0  0  0  0  0  0
   25.1344   45.8891   49.3659 H   0  0  0  0  0  0  0  0  0  0  0  0
   23.5533   47.6077   49.4043 H   0  0  0  0  0  0  0  0  0  0  0  0
   24.4916   40.8089   53.6229 H   0  0  0  0  0  0  0  0  0  0  0  0
   24.9345   39.3915   54.5964 H   0  0  0  0  0  0  0  0  0  0  0  0
   26.0454   41.3163   55.1848 H   0  0  0  0  0  0  0  0  0  0  0  0
  1  2  1  0  0  0  0
  1  3  1  0  0  0  0
  1 10  1  0  0  0  0
  1 46  1  1  0  0  0
  3  4  1  0  0  0  0
  3  5  1  0  0  0  0
  3 47  1  1  0  0  0
  4 48  1  0  0  0  0
  5  6  1  0  0  0  0
  5  7  1  0  0  0  0
  5 49  1  6  0  0  0
  6 50  1  0  0  0  0
  7  8  1  0  0  0  0
  7  9  1  0  0  0  0
  7 51  1  1  0  0  0
  8 52  1  0  0  0  0
  9 10  1  0  0  0  0
  9 11  1  0  0  0  0
  9 53  1  6  0  0  0
 11 12  1  0  0  0  0
 11 54  1  0  0  0  0
 11 55  1  0  0  0  0
 12 56  1  0  0  0  0
 13 14  1  0  0  0  0
 13 19  1  0  0  0  0
 13 57  1  0  0  0  0
 13 58  1  0  0  0  0
 15 16  1  0  0  0  0
 15 21  1  0  0  0  0
 15 59  1  0  0  0  0
 15 60  1  0  0  0  0
 17 18  1  0  0  0  0
 17 23  1  0  0  0  0
 17 61  1  0  0  0  0
 17 62  1  0  0  0  0
 18 63  1  0  0  0  0
 19  2  1  6  0  0  0
 19 20  1  0  0  0  0
 19 25  1  0  0  0  0
 20 37  1  0  0  0  0
 21 14  1  6  0  0  0
 21 22  1  0  0  0  0
 21 27  1  0  0  0  0
 22 38  1  0  0  0  0
 23 16  1  6  0  0  0
 23 24  1  0  0  0  0
 23 29  1  0  0  0  0
 24 39  1  0  0  0  0
 25 26  1  0  0  0  0
 25 31  1  0  0  0  0
 25 64  1  1  0  0  0
 26 65  1  0  0  0  0
 27 28  1  0  0  0  0
 27 33  1  0  0  0  0
 27 66  1  1  0  0  0
 28 67  1  0  0  0  0
 29 30  1  0  0  0  0
 29 35  1  0  0  0  0
 29 68  1  1  0  0  0
 30 69  1  0  0  0  0
 31 32  1  0  0  0  0
 31 37  1  0  0  0  0
 31 70  1  6  0  0  0
 32 71  1  0  0  0  0
 33 34  1  0  0  0  0
 33 38  1  0  0  0  0
 33 72  1  6  0  0  0
 34 73  1  0  0  0  0
 35 36  1  0  0  0  0
 35 39  1  0  0  0  0
 35 74  1  6  0  0  0
 36 75  1  0  0  0  0
 37 40  1  0  0  0  0
 37 76  1  1  0  0  0
 38 42  1  0  0  0  0
 38 77  1  1  0  0  0
 39 44  1  0  0  0  0
 39 78  1  1  0  0  0
 40 41  1  0  0  0  0
 40 79  1  0  0  0  0
 40 80  1  0  0  0  0
 41 81  1  0  0  0  0
 42 43  1  0  0  0  0
 42 82  1  0  0  0  0
 42 83  1  0  0  0  0
 43 84  1  0  0  0  0
 44 45  1  0  0  0  0
 44 85  1  0  0  0  0
 44 86  1  0  0  0  0
 45 87  1  0  0  0  0
M  END
$$$$
