O80
 OpenBabel04161910243D

 40 42  0  0  1  0  0  0  0  0999 V2000
   91.5251   93.2150  -44.2651 C   0  0  1  0  0  0  0  0  0  0  0  0
   94.2445   93.5728  -41.1291 F   0  0  0  0  0  0  0  0  0  0  0  0
   91.8367   93.4603  -42.9490 N   0  3  2  0  0  0  0  0  0  0  0  0
   91.1047   94.4277  -44.8212 C   0  0  2  0  0  0  0  0  0  0  0  0
   94.2573   91.3990  -41.2428 F   0  0  0  0  0  0  0  0  0  0  0  0
   91.9366   99.8074  -42.5477 N   0  3  0  0  0  0  0  0  0  0  0  0
   91.1693   95.4041  -43.7845 C   0  0  2  0  0  0  0  0  0  0  0  0
   94.4327   92.5788  -43.0693 F   0  0  0  0  0  0  0  0  0  0  0  0
   91.6257   94.7813  -42.6302 C   0  0  2  0  0  0  0  0  0  0  0  0
   91.5900   92.0426  -45.0164 C   0  0  0  0  0  0  0  0  0  0  0  0
   91.2019   92.1016  -46.3653 C   0  0  0  0  0  0  0  0  0  0  0  0
   90.7745   93.2947  -46.9362 C   0  0  0  0  0  0  0  0  0  0  0  0
   90.7225   94.4660  -46.1742 C   0  0  0  0  0  0  0  0  0  0  0  0
   91.8108   95.4556  -41.4170 C   0  0  0  0  0  0  0  0  0  0  0  0
   91.5163   96.8108  -41.3898 C   0  0  0  0  0  0  0  0  0  0  0  0
   91.0405   97.4601  -42.5229 C   0  0  2  0  0  0  0  0  0  0  0  0
   90.8698   96.7708  -43.7270 C   0  0  0  0  0  0  0  0  0  0  0  0
   92.3278   92.4774  -41.9948 C   0  0  0  0  0  0  0  0  0  0  0  0
   93.8248   92.5192  -41.8668 C   0  0  0  0  0  0  0  0  0  0  0  0
   90.7228   98.9128  -42.4660 C   0  0  0  0  0  0  0  0  0  0  0  0
   92.5586   99.7361  -43.9123 C   0  0  0  0  0  0  0  0  0  0  0  0
   91.5603  101.2132  -42.2085 C   0  0  0  0  0  0  0  0  0  0  0  0
   91.9149   91.1031  -44.5888 H   0  0  0  0  0  0  0  0  0  0  0  0
   91.2390   91.1973  -46.9720 H   0  0  0  0  0  0  0  0  0  0  0  0
   90.4783   93.3156  -47.9849 H   0  0  0  0  0  0  0  0  0  0  0  0
   90.3865   95.3937  -46.6294 H   0  0  0  0  0  0  0  0  0  0  0  0
   92.1701   94.9502  -40.5265 H   0  0  0  0  0  0  0  0  0  0  0  0
   91.6420   97.3622  -40.4553 H   0  0  0  0  0  0  0  0  0  0  0  0
   90.5069   97.2762  -44.6234 H   0  0  0  0  0  0  0  0  0  0  0  0
   92.0054   91.4917  -42.3304 H   0  0  0  0  0  0  0  0  0  0  0  0
   91.8526   92.6778  -41.0286 H   0  0  0  0  0  0  0  0  0  0  0  0
   90.0633   99.1884  -43.3041 H   0  0  0  0  0  0  0  0  0  0  0  0
   90.2024   99.1279  -41.5283 H   0  0  0  0  0  0  0  0  0  0  0  0
   93.4321  100.3845  -43.9205 H   0  0  0  0  0  0  0  0  0  0  0  0
   91.8100  100.0872  -44.6349 H   0  0  0  0  0  0  0  0  0  0  0  0
   92.8453   98.7087  -44.1252 H   0  0  0  0  0  0  0  0  0  0  0  0
   91.1250  101.2303  -41.2101 H   0  0  0  0  0  0  0  0  0  0  0  0
   90.8280  101.5503  -42.9530 H   0  0  0  0  0  0  0  0  0  0  0  0
   92.4596  101.8247  -42.2504 H   0  0  0  0  0  0  0  0  0  0  0  0
   92.6249   99.4620  -41.8546 H   0  0  0  0  0  0  0  0  0  0  0  0
  1  3  1  0  0  0  0
  1  4  1  0  0  0  0
  1 10  1  6  0  0  0
  2 19  1  0  0  0  0
  3  9  1  0  0  0  0
  3 18  1  6  0  0  0
  4  7  1  0  0  0  0
  4 13  1  1  0  0  0
  5 19  1  0  0  0  0
  6 20  1  0  0  0  0
  6 21  1  0  0  0  0
  6 22  1  0  0  0  0
  6 40  1  0  0  0  0
  7  9  1  0  0  0  0
  7 17  1  1  0  0  0
  8 19  1  0  0  0  0
  9 14  1  6  0  0  0
 10 11  1  0  0  0  0
 10 23  1  0  0  0  0
 11 12  1  0  0  0  0
 11 24  1  0  0  0  0
 12 13  1  0  0  0  0
 12 25  1  0  0  0  0
 13 26  1  0  0  0  0
 14 15  1  0  0  0  0
 14 27  1  0  0  0  0
 15 16  1  0  0  0  0
 15 28  1  0  0  0  0
 16 17  1  0  0  0  0
 16 20  1  6  0  0  0
 17 29  1  0  0  0  0
 18 19  1  0  0  0  0
 18 30  1  0  0  0  0
 18 31  1  0  0  0  0
 20 32  1  0  0  0  0
 20 33  1  0  0  0  0
 21 34  1  0  0  0  0
 21 35  1  0  0  0  0
 21 36  1  0  0  0  0
 22 37  1  0  0  0  0
 22 38  1  0  0  0  0
 22 39  1  0  0  0  0
M  CHG  2   3   1   6   1
M  END
$$$$
