O83
 OpenBabel04161910243D

 37 39  0  0  1  0  0  0  0  0999 V2000
  124.5823  102.9078  -44.0263 C   0  0  1  0  0  0  0  0  0  0  0  0
  127.3176  102.6348  -41.0592 F   0  0  0  0  0  0  0  0  0  0  0  0
  124.8886  103.0049  -42.6932 N   0  3  2  0  0  0  0  0  0  0  0  0
  124.3322  104.2035  -44.4905 C   0  0  2  0  0  0  0  0  0  0  0  0
  127.0182  100.4921  -41.2245 F   0  0  0  0  0  0  0  0  0  0  0  0
  123.1406  109.0230  -41.4739 N   0  3  0  0  0  0  0  0  0  0  0  0
  124.4951  105.0841  -43.3833 C   0  0  2  0  0  0  0  0  0  0  0  0
  124.8462  104.3161  -42.2727 C   0  0  1  0  0  0  0  0  0  0  0  0
  124.5195  101.7894  -44.8641 C   0  0  0  0  0  0  0  0  0  0  0  0
  124.1673  101.9967  -46.2011 C   0  0  0  0  0  0  0  0  0  0  0  0
  123.9063  103.2724  -46.6871 C   0  0  0  0  0  0  0  0  0  0  0  0
  123.9860  104.3948  -45.8412 C   0  0  0  0  0  0  0  0  0  0  0  0
  125.0830  104.8704  -41.0106 C   0  0  0  0  0  0  0  0  0  0  0  0
  124.9626  106.2558  -40.8808 C   0  0  0  0  0  0  0  0  0  0  0  0
  124.6088  107.0573  -41.9700 C   0  0  2  0  0  0  0  0  0  0  0  0
  124.3722  106.4768  -43.2269 C   0  0  0  0  0  0  0  0  0  0  0  0
  125.2388  101.8752  -41.8489 C   0  0  0  0  0  0  0  0  0  0  0  0
  126.7351  101.6765  -41.8222 C   0  0  0  0  0  0  0  0  0  0  0  0
  124.5112  108.5320  -41.8196 C   0  0  0  0  0  0  0  0  0  0  0  0
  123.1259  110.5006  -41.3029 C   0  0  0  0  0  0  0  0  0  0  0  0
  122.4874  108.7412  -42.2147 H   0  0  0  0  0  0  0  0  0  0  0  0
  124.7112  100.7862  -44.4997 H   0  0  0  0  0  0  0  0  0  0  0  0
  124.0994  101.1485  -46.8775 H   0  0  0  0  0  0  0  0  0  0  0  0
  123.6393  103.4103  -47.7271 H   0  0  0  0  0  0  0  0  0  0  0  0
  123.7836  105.3846  -46.2315 H   0  0  0  0  0  0  0  0  0  0  0  0
  125.3696  104.2562  -40.1601 H   0  0  0  0  0  0  0  0  0  0  0  0
  125.1607  106.7128  -39.9104 H   0  0  0  0  0  0  0  0  0  0  0  0
  124.1122  107.0952  -44.0808 H   0  0  0  0  0  0  0  0  0  0  0  0
  124.7455  100.9819  -42.2436 H   0  0  0  0  0  0  0  0  0  0  0  0
  124.8496  102.0615  -40.8450 H   0  0  0  0  0  0  0  0  0  0  0  0
  127.1589  101.6923  -42.8260 H   0  0  0  0  0  0  0  0  0  0  0  0
  125.1870  108.8690  -41.0228 H   0  0  0  0  0  0  0  0  0  0  0  0
  124.8025  109.0202  -42.7579 H   0  0  0  0  0  0  0  0  0  0  0  0
  122.1156  110.8115  -41.0536 H   0  0  0  0  0  0  0  0  0  0  0  0
  123.4491  110.9538  -42.2441 H   0  0  0  0  0  0  0  0  0  0  0  0
  123.8188  110.7546  -40.4959 H   0  0  0  0  0  0  0  0  0  0  0  0
  122.8264  108.5590  -40.6142 H   0  0  0  0  0  0  0  0  0  0  0  0
  1  3  1  0  0  0  0
  1  4  1  0  0  0  0
  1  9  1  6  0  0  0
  2 18  1  0  0  0  0
  3  8  1  0  0  0  0
  3 17  1  6  0  0  0
  4  7  1  0  0  0  0
  4 12  1  1  0  0  0
  5 18  1  0  0  0  0
  6 19  1  0  0  0  0
  6 20  1  0  0  0  0
  6 21  1  0  0  0  0
  6 37  1  0  0  0  0
  7  8  1  0  0  0  0
  7 16  1  1  0  0  0
  8 13  1  1  0  0  0
  9 10  1  0  0  0  0
  9 22  1  0  0  0  0
 10 11  1  0  0  0  0
 10 23  1  0  0  0  0
 11 12  1  0  0  0  0
 11 24  1  0  0  0  0
 12 25  1  0  0  0  0
 13 14  1  0  0  0  0
 13 26  1  0  0  0  0
 14 15  1  0  0  0  0
 14 27  1  0  0  0  0
 15 16  1  0  0  0  0
 15 19  1  6  0  0  0
 16 28  1  0  0  0  0
 17 18  1  0  0  0  0
 17 29  1  0  0  0  0
 17 30  1  0  0  0  0
 18 31  1  0  0  0  0
 19 32  1  0  0  0  0
 19 33  1  0  0  0  0
 20 34  1  0  0  0  0
 20 35  1  0  0  0  0
 20 36  1  0  0  0  0
M  CHG  2   3   1   6   1
M  END
$$$$
