OTA
 OpenBabel04161910533D

 27 28  0  0  0  0  0  0  0  0999 V2000
   32.0816  -34.5222  -17.3958 N   0  3  0  0  0  0  0  0  0  0  0  0
   32.5099  -34.5827  -15.9450 C   0  0  0  0  0  0  0  0  0  0  0  0
   33.4619  -33.5001  -15.6044 C   0  0  0  0  0  0  0  0  0  0  0  0
   33.7864  -32.4306  -16.4199 C   0  0  0  0  0  0  0  0  0  0  0  0
   33.1935  -32.2849  -17.7801 C   0  0  0  0  0  0  0  0  0  0  0  0
   31.9313  -33.1322  -17.9563 C   0  0  0  0  0  0  0  0  0  0  0  0
   34.2660  -33.4262  -14.1070 S   0  0  0  0  0  0  0  0  0  0  0  0
   35.0465  -31.9710  -14.5097 C   0  0  0  0  0  0  0  0  0  0  0  0
   34.7276  -31.5405  -15.7860 C   0  0  0  0  0  0  0  0  0  0  0  0
   35.3183  -30.3200  -16.3973 C   0  0  0  0  0  0  0  0  0  0  0  0
   36.0177  -29.5671  -15.6555 O   0  0  0  0  0  0  0  0  0  0  0  0
   35.0708  -30.1308  -17.6327 O   0  0  0  0  0  0  0  0  0  0  0  0
   35.9119  -31.3290  -13.6482 N   0  0  0  0  0  0  0  0  0  0  0  0
   36.3933  -31.7492  -12.4370 C   0  0  0  0  0  0  0  0  0  0  0  0
   37.4646  -30.8409  -11.7612 C   0  0  0  0  0  0  0  0  0  0  0  0
   38.4175  -31.4066  -11.1266 O   0  0  0  0  0  0  0  0  0  0  0  0
   37.3101  -29.5883  -11.9480 O   0  0  0  0  0  0  0  0  0  0  0  0
   36.0816  -32.7677  -11.8076 O   0  0  0  0  0  0  0  0  0  0  0  0
   32.7966  -35.0123  -17.9452 H   0  0  0  0  0  0  0  0  0  0  0  0
   32.9474  -35.5776  -15.8167 H   0  0  0  0  0  0  0  0  0  0  0  0
   31.5891  -34.5207  -15.3546 H   0  0  0  0  0  0  0  0  0  0  0  0
   33.9368  -32.5871  -18.5257 H   0  0  0  0  0  0  0  0  0  0  0  0
   32.9121  -31.2453  -17.9623 H   0  0  0  0  0  0  0  0  0  0  0  0
   31.0595  -32.6868  -17.4642 H   0  0  0  0  0  0  0  0  0  0  0  0
   31.7064  -33.2556  -19.0214 H   0  0  0  0  0  0  0  0  0  0  0  0
   36.2873  -30.4285  -13.9945 H   0  0  0  0  0  0  0  0  0  0  0  0
   31.2004  -35.0302  -17.5021 H   0  0  0  0  0  0  0  0  0  0  0  0
  1  2  1  0  0  0  0
  1  6  1  0  0  0  0
  1 19  1  0  0  0  0
  1 27  1  0  0  0  0
  2  3  1  0  0  0  0
  2 20  1  0  0  0  0
  2 21  1  0  0  0  0
  3  4  2  0  0  0  0
  3  7  1  0  0  0  0
  4  5  1  0  0  0  0
  4  9  1  0  0  0  0
  5  6  1  0  0  0  0
  5 22  1  0  0  0  0
  5 23  1  0  0  0  0
  6 24  1  0  0  0  0
  6 25  1  0  0  0  0
  7  8  1  0  0  0  0
  8  9  2  0  0  0  0
  8 13  1  0  0  0  0
  9 10  1  0  0  0  0
 10 11  2  0  0  0  0
 10 12  1  0  0  0  0
 13 14  1  0  0  0  0
 13 26  1  0  0  0  0
 14 15  1  0  0  0  0
 14 18  2  0  0  0  0
 15 16  2  0  0  0  0
 15 17  1  0  0  0  0
M  CHG  1   1   1
M  END
$$$$
