OTA
 OpenBabel04161910533D

 27 28  0  0  0  0  0  0  0  0999 V2000
   31.4496  -30.5555   -0.9331 N   0  3  0  0  0  0  0  0  0  0  0  0
   31.6312  -30.3610   -2.4171 C   0  0  0  0  0  0  0  0  0  0  0  0
   33.0385  -30.1090   -2.7635 C   0  0  0  0  0  0  0  0  0  0  0  0
   34.1313  -30.3736   -1.9593 C   0  0  0  0  0  0  0  0  0  0  0  0
   33.9528  -30.9621   -0.5943 C   0  0  0  0  0  0  0  0  0  0  0  0
   32.5094  -31.3911   -0.2686 C   0  0  0  0  0  0  0  0  0  0  0  0
   33.4989  -29.4542   -4.2750 S   0  0  0  0  0  0  0  0  0  0  0  0
   35.1554  -29.5127   -3.8977 C   0  0  0  0  0  0  0  0  0  0  0  0
   35.3718  -30.0142   -2.6237 C   0  0  0  0  0  0  0  0  0  0  0  0
   36.7397  -30.1546   -2.0359 C   0  0  0  0  0  0  0  0  0  0  0  0
   36.7824  -30.4496   -0.7965 O   0  0  0  0  0  0  0  0  0  0  0  0
   37.7295  -29.9653   -2.7988 O   0  0  0  0  0  0  0  0  0  0  0  0
   36.1270  -29.0736   -4.7790 N   0  0  0  0  0  0  0  0  0  0  0  0
   35.9930  -28.5940   -6.0719 C   0  0  0  0  0  0  0  0  0  0  0  0
   37.3024  -28.1355   -6.7897 C   0  0  0  0  0  0  0  0  0  0  0  0
   38.3326  -28.8424   -6.5459 O   0  0  0  0  0  0  0  0  0  0  0  0
   37.2538  -27.0741   -7.5080 O   0  0  0  0  0  0  0  0  0  0  0  0
   34.9595  -28.5048   -6.7356 O   0  0  0  0  0  0  0  0  0  0  0  0
   31.4473  -29.6268   -0.4961 H   0  0  0  0  0  0  0  0  0  0  0  0
   30.9671  -29.5267   -2.6800 H   0  0  0  0  0  0  0  0  0  0  0  0
   31.2623  -31.2740   -2.8906 H   0  0  0  0  0  0  0  0  0  0  0  0
   34.2666  -30.2271    0.1532 H   0  0  0  0  0  0  0  0  0  0  0  0
   34.5803  -31.8544   -0.4867 H   0  0  0  0  0  0  0  0  0  0  0  0
   32.3113  -32.4294   -0.5569 H   0  0  0  0  0  0  0  0  0  0  0  0
   32.3250  -31.3044    0.8105 H   0  0  0  0  0  0  0  0  0  0  0  0
   37.1001  -29.1563   -4.4430 H   0  0  0  0  0  0  0  0  0  0  0  0
   30.5318  -30.9795   -0.7684 H   0  0  0  0  0  0  0  0  0  0  0  0
  1  2  1  0  0  0  0
  1  6  1  0  0  0  0
  1 19  1  0  0  0  0
  1 27  1  0  0  0  0
  2  3  1  0  0  0  0
  2 20  1  0  0  0  0
  2 21  1  0  0  0  0
  3  4  2  0  0  0  0
  3  7  1  0  0  0  0
  4  5  1  0  0  0  0
  4  9  1  0  0  0  0
  5  6  1  0  0  0  0
  5 22  1  0  0  0  0
  5 23  1  0  0  0  0
  6 24  1  0  0  0  0
  6 25  1  0  0  0  0
  7  8  1  0  0  0  0
  8  9  2  0  0  0  0
  8 13  1  0  0  0  0
  9 10  1  0  0  0  0
 10 11  2  0  0  0  0
 10 12  1  0  0  0  0
 13 14  1  0  0  0  0
 13 26  1  0  0  0  0
 14 15  1  0  0  0  0
 14 18  2  0  0  0  0
 15 16  2  0  0  0  0
 15 17  1  0  0  0  0
M  CHG  1   1   1
M  END
$$$$
