OTA
 OpenBabel04161910533D

 27 28  0  0  0  0  0  0  0  0999 V2000
    6.9380  117.7203   -6.5556 N   0  3  0  0  0  0  0  0  0  0  0  0
    6.8495  118.3258   -5.1735 C   0  0  0  0  0  0  0  0  0  0  0  0
    5.4512  118.6755   -4.8403 C   0  0  0  0  0  0  0  0  0  0  0  0
    4.3390  118.2198   -5.5190 C   0  0  0  0  0  0  0  0  0  0  0  0
    4.4594  117.3236   -6.7144 C   0  0  0  0  0  0  0  0  0  0  0  0
    5.8560  116.7047   -6.8308 C   0  0  0  0  0  0  0  0  0  0  0  0
    5.0512  119.6745   -3.5257 S   0  0  0  0  0  0  0  0  0  0  0  0
    3.3851  119.5145   -3.8213 C   0  0  0  0  0  0  0  0  0  0  0  0
    3.1310  118.7308   -4.9309 C   0  0  0  0  0  0  0  0  0  0  0  0
    1.7610  118.4659   -5.4516 C   0  0  0  0  0  0  0  0  0  0  0  0
    0.7845  118.8838   -4.7646 O   0  0  0  0  0  0  0  0  0  0  0  0
    1.6977  117.8415   -6.5560 O   0  0  0  0  0  0  0  0  0  0  0  0
    2.4343  120.1147   -3.0275 N   0  0  0  0  0  0  0  0  0  0  0  0
    2.6081  120.9941   -1.9746 C   0  0  0  0  0  0  0  0  0  0  0  0
    1.3084  121.5254   -1.2854 C   0  0  0  0  0  0  0  0  0  0  0  0
    1.2919  122.7434   -0.9109 O   0  0  0  0  0  0  0  0  0  0  0  0
    0.3561  120.6911   -1.2009 O   0  0  0  0  0  0  0  0  0  0  0  0
    3.6724  121.4128   -1.5162 O   0  0  0  0  0  0  0  0  0  0  0  0
    6.8355  118.4887   -7.2302 H   0  0  0  0  0  0  0  0  0  0  0  0
    7.5139  119.1954   -5.1876 H   0  0  0  0  0  0  0  0  0  0  0  0
    7.2492  117.5752   -4.4836 H   0  0  0  0  0  0  0  0  0  0  0  0
    4.2502  117.9115   -7.6160 H   0  0  0  0  0  0  0  0  0  0  0  0
    3.7371  116.5028   -6.6627 H   0  0  0  0  0  0  0  0  0  0  0  0
    6.0079  115.8833   -6.1211 H   0  0  0  0  0  0  0  0  0  0  0  0
    6.0311  116.3303   -7.8457 H   0  0  0  0  0  0  0  0  0  0  0  0
    1.4531  119.9034   -3.2725 H   0  0  0  0  0  0  0  0  0  0  0  0
    7.8642  117.3048   -6.6850 H   0  0  0  0  0  0  0  0  0  0  0  0
  1  2  1  0  0  0  0
  1  6  1  0  0  0  0
  1 19  1  0  0  0  0
  1 27  1  0  0  0  0
  2  3  1  0  0  0  0
  2 20  1  0  0  0  0
  2 21  1  0  0  0  0
  3  4  2  0  0  0  0
  3  7  1  0  0  0  0
  4  5  1  0  0  0  0
  4  9  1  0  0  0  0
  5  6  1  0  0  0  0
  5 22  1  0  0  0  0
  5 23  1  0  0  0  0
  6 24  1  0  0  0  0
  6 25  1  0  0  0  0
  7  8  1  0  0  0  0
  8  9  2  0  0  0  0
  8 13  1  0  0  0  0
  9 10  1  0  0  0  0
 10 11  2  0  0  0  0
 10 12  1  0  0  0  0
 13 14  1  0  0  0  0
 13 26  1  0  0  0  0
 14 15  1  0  0  0  0
 14 18  2  0  0  0  0
 15 16  2  0  0  0  0
 15 17  1  0  0  0  0
M  CHG  1   1   1
M  END
$$$$
