P17
 OpenBabel04161910393D

 45 48  0  0  0  0  0  0  0  0999 V2000
 -107.5643  -14.0627   79.9208 S   0  0  0  0  0  0  0  0  0  0  0  0
 -108.6840  -14.2409   81.2964 C   0  0  0  0  0  0  0  0  0  0  0  0
 -110.0690  -14.2178   81.0771 C   0  0  0  0  0  0  0  0  0  0  0  0
 -110.9721  -14.3699   82.1385 C   0  0  0  0  0  0  0  0  0  0  0  0
 -112.3457  -14.4401   81.8663 N   0  0  0  0  0  0  0  0  0  0  0  0
 -113.4041  -14.9628   82.6097 C   0  0  0  0  0  0  0  0  0  0  0  0
 -113.1849  -15.4874   83.8188 N   0  0  0  0  0  0  0  0  0  0  0  0
 -114.2157  -16.0118   84.4986 C   0  0  0  0  0  0  0  0  0  0  0  0
 -113.9741  -16.5740   85.7756 N   0  3  0  0  0  0  0  0  0  0  0  0
 -112.6374  -16.5585   86.3356 C   0  0  0  0  0  0  0  0  0  0  0  0
 -114.9793  -17.1430   86.5344 C   0  0  0  0  0  0  0  0  0  0  0  0
 -114.7837  -17.6499   87.6387 O   0  0  0  0  0  0  0  0  0  0  0  0
 -116.3647  -17.1250   85.9574 C   0  0  0  0  0  0  0  0  0  0  0  0
 -117.4657  -17.7062   86.7469 C   0  0  0  0  0  0  0  0  0  0  0  0
 -117.9286  -19.0095   86.4919 C   0  0  0  0  0  0  0  0  0  0  0  0
 -117.5468  -15.3744   88.2037 Cl  0  0  0  0  0  0  0  0  0  0  0  0
 -118.9402  -19.5731   87.2757 C   0  0  0  0  0  0  0  0  0  0  0  0
 -119.4963  -18.8505   88.3290 C   0  0  0  0  0  0  0  0  0  0  0  0
 -119.0450  -17.5603   88.5983 C   0  0  0  0  0  0  0  0  0  0  0  0
 -118.0390  -16.9896   87.8135 C   0  0  0  0  0  0  0  0  0  0  0  0
 -117.2750  -19.9826   85.2165 Cl  0  0  0  0  0  0  0  0  0  0  0  0
 -116.6012  -16.5910   84.7477 C   0  0  0  0  0  0  0  0  0  0  0  0
 -115.4976  -16.0267   83.9903 C   0  0  0  0  0  0  0  0  0  0  0  0
 -115.6354  -15.4741   82.7347 C   0  0  0  0  0  0  0  0  0  0  0  0
 -114.6131  -14.9414   82.0301 N   0  0  0  0  0  0  0  0  0  0  0  0
 -110.4380  -14.5168   83.4245 C   0  0  0  0  0  0  0  0  0  0  0  0
 -109.0612  -14.5507   83.6534 C   0  0  0  0  0  0  0  0  0  0  0  0
 -108.1832  -14.4139   82.5864 C   0  0  0  0  0  0  0  0  0  0  0  0
 -107.2213  -15.8170   79.6327 C   0  0  0  0  0  0  0  0  0  0  0  0
 -110.4439  -14.1003   80.0640 H   0  0  0  0  0  0  0  0  0  0  0  0
 -112.6595  -14.1760   80.9443 H   0  0  0  0  0  0  0  0  0  0  0  0
 -111.8812  -16.1598   85.6605 H   0  0  0  0  0  0  0  0  0  0  0  0
 -112.3520  -17.5802   86.6044 H   0  0  0  0  0  0  0  0  0  0  0  0
 -112.6492  -15.9540   87.2498 H   0  0  0  0  0  0  0  0  0  0  0  0
 -119.2896  -20.5841   87.0744 H   0  0  0  0  0  0  0  0  0  0  0  0
 -120.2739  -19.2954   88.9435 H   0  0  0  0  0  0  0  0  0  0  0  0
 -119.4756  -17.0041   89.4277 H   0  0  0  0  0  0  0  0  0  0  0  0
 -117.5964  -16.5719   84.3136 H   0  0  0  0  0  0  0  0  0  0  0  0
 -116.5969  -15.4393   82.2314 H   0  0  0  0  0  0  0  0  0  0  0  0
 -111.0879  -14.5948   84.2885 H   0  0  0  0  0  0  0  0  0  0  0  0
 -108.6859  -14.6850   84.6646 H   0  0  0  0  0  0  0  0  0  0  0  0
 -107.1128  -14.4399   82.7715 H   0  0  0  0  0  0  0  0  0  0  0  0
 -106.5369  -15.9132   78.7864 H   0  0  0  0  0  0  0  0  0  0  0  0
 -108.1454  -16.3524   79.3974 H   0  0  0  0  0  0  0  0  0  0  0  0
 -106.7547  -16.2699   80.5120 H   0  0  0  0  0  0  0  0  0  0  0  0
  1  2  1  0  0  0  0
  1 29  1  0  0  0  0
  2  3  2  0  0  0  0
  2 28  1  0  0  0  0
  3  4  1  0  0  0  0
  3 30  1  0  0  0  0
  4  5  1  0  0  0  0
  4 26  2  0  0  0  0
  5  6  1  0  0  0  0
  5 31  1  0  0  0  0
  6  7  2  0  0  0  0
  6 25  1  0  0  0  0
  7  8  1  0  0  0  0
  8  9  1  0  0  0  0
  8 23  2  0  0  0  0
  9 10  1  0  0  0  0
  9 11  1  0  0  0  0
 10 32  1  0  0  0  0
 10 33  1  0  0  0  0
 10 34  1  0  0  0  0
 11 12  2  0  0  0  0
 11 13  1  0  0  0  0
 13 14  1  0  0  0  0
 13 22  2  0  0  0  0
 14 15  2  0  0  0  0
 14 20  1  0  0  0  0
 15 17  1  0  0  0  0
 15 21  1  0  0  0  0
 16 20  1  0  0  0  0
 17 18  2  0  0  0  0
 17 35  1  0  0  0  0
 18 19  1  0  0  0  0
 18 36  1  0  0  0  0
 19 20  2  0  0  0  0
 19 37  1  0  0  0  0
 22 23  1  0  0  0  0
 22 38  1  0  0  0  0
 23 24  1  0  0  0  0
 24 25  2  0  0  0  0
 24 39  1  0  0  0  0
 26 27  1  0  0  0  0
 26 40  1  0  0  0  0
 27 28  2  0  0  0  0
 27 41  1  0  0  0  0
 28 42  1  0  0  0  0
 29 43  1  0  0  0  0
 29 44  1  0  0  0  0
 29 45  1  0  0  0  0
M  CHG  1   9   1
M  END
$$$$
