P34
 OpenBabel04161910083D

 40 42  0  0  0  0  0  0  0  0999 V2000
   19.5021   30.8881   17.5173 C   0  0  0  0  0  0  0  0  0  0  0  0
   19.0887   30.9090   18.9542 N   0  3  0  0  0  0  0  0  0  0  0  0
   19.1573   29.5268   19.4959 C   0  0  0  0  0  0  0  0  0  0  0  0
   20.0147   31.7969   19.7293 C   0  0  0  0  0  0  0  0  0  0  0  0
   19.4784   32.5572   20.9405 C   0  0  0  0  0  0  0  0  0  0  0  0
   18.2905   32.7443   21.1228 O   0  0  0  0  0  0  0  0  0  0  0  0
   20.4648   33.0979   21.7588 N   0  0  0  0  0  0  0  0  0  0  0  0
   21.8389   32.8788   21.5895 C   0  0  0  0  0  0  0  0  0  0  0  0
   22.7401   33.9215   21.3907 C   0  0  0  0  0  0  0  0  0  0  0  0
   24.1049   33.6237   21.1757 C   0  0  0  0  0  0  0  0  0  0  0  0
   25.1466   34.6284   20.9461 C   0  0  0  0  0  0  0  0  0  0  0  0
   24.8689   35.9971   20.9199 C   0  0  0  0  0  0  0  0  0  0  0  0
   25.8884   36.9224   20.7172 C   0  0  0  0  0  0  0  0  0  0  0  0
   27.1999   36.4973   20.4989 C   0  0  0  0  0  0  0  0  0  0  0  0
   27.5020   35.1444   20.5163 C   0  0  0  0  0  0  0  0  0  0  0  0
   26.4837   34.2234   20.7490 C   0  0  0  0  0  0  0  0  0  0  0  0
   26.8662   32.7829   20.7824 C   0  0  0  0  0  0  0  0  0  0  0  0
   27.9999   32.3976   20.6214 O   0  0  0  0  0  0  0  0  0  0  0  0
   25.8311   31.9034   20.9960 N   0  3  0  0  0  0  0  0  0  0  0  0
   24.5058   32.2732   21.1854 C   0  0  0  0  0  0  0  0  0  0  0  0
   23.6052   31.2491   21.3878 C   0  0  0  0  0  0  0  0  0  0  0  0
   22.2880   31.5606   21.6222 C   0  0  0  0  0  0  0  0  0  0  0  0
   18.8084   30.2433   16.9826 H   0  0  0  0  0  0  0  0  0  0  0  0
   20.5203   30.4951   17.4737 H   0  0  0  0  0  0  0  0  0  0  0  0
   19.4612   31.9090   17.1409 H   0  0  0  0  0  0  0  0  0  0  0  0
   18.8566   29.5683   20.5396 H   0  0  0  0  0  0  0  0  0  0  0  0
   20.1932   29.1937   19.3950 H   0  0  0  0  0  0  0  0  0  0  0  0
   18.4901   28.9105   18.9006 H   0  0  0  0  0  0  0  0  0  0  0  0
   20.4085   32.5156   19.0191 H   0  0  0  0  0  0  0  0  0  0  0  0
   20.7861   31.1147   20.0390 H   0  0  0  0  0  0  0  0  0  0  0  0
   20.1633   33.6866   22.5295 H   0  0  0  0  0  0  0  0  0  0  0  0
   22.3805   34.9471   21.3823 H   0  0  0  0  0  0  0  0  0  0  0  0
   23.8565   36.3640   21.0487 H   0  0  0  0  0  0  0  0  0  0  0  0
   25.6588   37.9824   20.7350 H   0  0  0  0  0  0  0  0  0  0  0  0
   27.9860   37.2218   20.3137 H   0  0  0  0  0  0  0  0  0  0  0  0
   28.5184   34.7934   20.3680 H   0  0  0  0  0  0  0  0  0  0  0  0
   26.0995   30.9313   21.0018 H   0  0  0  0  0  0  0  0  0  0  0  0
   23.9233   30.2095   21.3792 H   0  0  0  0  0  0  0  0  0  0  0  0
   21.5855   30.7541   21.8270 H   0  0  0  0  0  0  0  0  0  0  0  0
   18.1253   31.2734   19.0390 H   0  0  0  0  0  0  0  0  0  0  0  0
  1  2  1  0  0  0  0
  1 23  1  0  0  0  0
  1 24  1  0  0  0  0
  1 25  1  0  0  0  0
  2  3  1  0  0  0  0
  2  4  1  0  0  0  0
  2 40  1  0  0  0  0
  3 26  1  0  0  0  0
  3 27  1  0  0  0  0
  3 28  1  0  0  0  0
  4  5  1  0  0  0  0
  4 29  1  0  0  0  0
  4 30  1  0  0  0  0
  5  6  2  0  0  0  0
  5  7  1  0  0  0  0
  7  8  1  0  0  0  0
  7 31  1  0  0  0  0
  8  9  2  0  0  0  0
  8 22  1  0  0  0  0
  9 10  1  0  0  0  0
  9 32  1  0  0  0  0
 10 11  1  0  0  0  0
 10 20  2  0  0  0  0
 11 12  2  0  0  0  0
 11 16  1  0  0  0  0
 12 13  1  0  0  0  0
 12 33  1  0  0  0  0
 13 14  2  0  0  0  0
 13 34  1  0  0  0  0
 14 15  1  0  0  0  0
 14 35  1  0  0  0  0
 15 16  2  0  0  0  0
 15 36  1  0  0  0  0
 16 17  1  0  0  0  0
 17 18  2  0  0  0  0
 17 19  1  0  0  0  0
 19 20  1  0  0  0  0
 19 37  1  0  0  0  0
 20 21  1  0  0  0  0
 21 22  2  0  0  0  0
 21 38  1  0  0  0  0
 22 39  1  0  0  0  0
M  CHG  2   2   1  19   1
M  END
$$$$
