P48
 OpenBabel04161912103D

 67 71  0  0  0  0  0  0  0  0999 V2000
    1.3150   -2.9717   -1.8506 O   0  0  0  0  0  0  0  0  0  0  0  0
    2.1093   -3.8036   -2.2884 C   0  0  0  0  0  0  0  0  0  0  0  0
    1.7205   -5.0653   -2.6897 N   0  0  0  0  0  0  0  0  0  0  0  0
    0.3348   -5.4803   -2.6843 C   0  0  0  0  0  0  0  0  0  0  0  0
    3.5605   -3.5408   -2.4195 C   0  0  0  0  0  0  0  0  0  0  0  0
    4.4150   -4.5836   -2.5475 N   0  0  0  0  0  0  0  0  0  0  0  0
    5.6467   -4.0296   -2.5393 N   0  3  0  0  0  0  0  0  0  0  0  0
    6.7533   -4.9450   -2.6496 C   0  0  0  0  0  0  0  0  0  0  0  0
    5.6268   -2.6629   -2.4719 C   0  0  0  0  0  0  0  0  0  0  0  0
    4.2810   -2.3071   -2.4367 C   0  0  0  0  0  0  0  0  0  0  0  0
    6.7155   -1.6853   -2.4086 C   0  0  0  0  0  0  0  0  0  0  0  0
    6.3819   -0.3512   -2.5479 C   0  0  0  0  0  0  0  0  0  0  0  0
    4.9929    0.0792   -2.9168 C   0  0  0  0  0  0  0  0  0  0  0  0
    3.8484   -0.8439   -2.3619 C   0  0  0  0  0  0  0  0  0  0  0  0
    3.5801   -0.4432   -0.8973 C   0  0  0  0  0  0  0  0  0  0  0  0
    2.6230   -0.5135   -3.2315 C   0  0  0  0  0  0  0  0  0  0  0  0
    7.9556   -2.1097   -2.1274 N   0  0  0  0  0  0  0  0  0  0  0  0
    8.8997   -1.1583   -1.9615 C   0  0  0  0  0  0  0  0  0  0  0  0
    8.6706    0.1535   -2.0802 N   0  0  0  0  0  0  0  0  0  0  0  0
    7.4165    0.5370   -2.3848 C   0  0  0  0  0  0  0  0  0  0  0  0
   10.2214   -1.4931   -1.6818 N   0  0  0  0  0  0  0  0  0  0  0  0
   10.8880   -2.7133   -1.6281 C   0  0  0  0  0  0  0  0  0  0  0  0
   12.2736   -2.7347   -1.7312 C   0  0  0  0  0  0  0  0  0  0  0  0
   12.9704   -3.9471   -1.7326 C   0  0  0  0  0  0  0  0  0  0  0  0
   12.3291   -5.1951   -1.6526 C   0  0  0  0  0  0  0  0  0  0  0  0
   10.9365   -5.1550   -1.5777 C   0  0  0  0  0  0  0  0  0  0  0  0
   10.2427   -3.9407   -1.5547 C   0  0  0  0  0  0  0  0  0  0  0  0
   13.0636   -6.3766   -1.5962 N   0  0  0  0  0  0  0  0  0  0  0  0
   12.4213   -7.7026   -1.7185 C   0  0  0  0  0  0  0  0  0  0  0  0
   12.9116   -8.3661   -3.0135 C   0  0  0  0  0  0  0  0  0  0  0  0
   14.4331   -8.5825   -2.9792 N   0  3  0  0  0  0  0  0  0  0  0  0
   14.8521  -10.0092   -2.9105 C   0  0  0  0  0  0  0  0  0  0  0  0
   15.1444   -7.6815   -1.9688 C   0  0  0  0  0  0  0  0  0  0  0  0
   14.4860   -6.3009   -2.0050 C   0  0  0  0  0  0  0  0  0  0  0  0
    2.4580   -5.6922   -2.9680 H   0  0  0  0  0  0  0  0  0  0  0  0
    0.2841   -6.5054   -3.0121 H   0  0  0  0  0  0  0  0  0  0  0  0
   -0.2385   -4.8370   -3.3567 H   0  0  0  0  0  0  0  0  0  0  0  0
   -0.0705   -5.3836   -1.6710 H   0  0  0  0  0  0  0  0  0  0  0  0
    7.6909   -4.4141   -2.7397 H   0  0  0  0  0  0  0  0  0  0  0  0
    6.6191   -5.5454   -3.5533 H   0  0  0  0  0  0  0  0  0  0  0  0
    6.7593   -5.5956   -1.7687 H   0  0  0  0  0  0  0  0  0  0  0  0
    4.9539    0.0940   -4.0149 H   0  0  0  0  0  0  0  0  0  0  0  0
    4.8207    1.1118   -2.5877 H   0  0  0  0  0  0  0  0  0  0  0  0
    2.7825   -1.0457   -0.4506 H   0  0  0  0  0  0  0  0  0  0  0  0
    3.2842    0.6100   -0.8236 H   0  0  0  0  0  0  0  0  0  0  0  0
    4.4755   -0.5733   -0.2775 H   0  0  0  0  0  0  0  0  0  0  0  0
    2.7927   -0.8035   -4.2751 H   0  0  0  0  0  0  0  0  0  0  0  0
    2.4178    0.5644   -3.2162 H   0  0  0  0  0  0  0  0  0  0  0  0
    1.7096   -1.0017   -2.8972 H   0  0  0  0  0  0  0  0  0  0  0  0
    7.2668    1.6078   -2.4875 H   0  0  0  0  0  0  0  0  0  0  0  0
   10.7657   -0.6553   -1.5359 H   0  0  0  0  0  0  0  0  0  0  0  0
   12.8387   -1.8126   -1.8105 H   0  0  0  0  0  0  0  0  0  0  0  0
   14.0492   -3.8590   -1.7877 H   0  0  0  0  0  0  0  0  0  0  0  0
   10.3178   -6.0416   -1.5082 H   0  0  0  0  0  0  0  0  0  0  0  0
    9.1697   -3.9783   -1.4302 H   0  0  0  0  0  0  0  0  0  0  0  0
   11.3298   -7.6873   -1.7288 H   0  0  0  0  0  0  0  0  0  0  0  0
   12.6979   -8.3132   -0.8490 H   0  0  0  0  0  0  0  0  0  0  0  0
   12.7417   -7.6814   -3.8544 H   0  0  0  0  0  0  0  0  0  0  0  0
   12.4165   -9.3170   -3.2296 H   0  0  0  0  0  0  0  0  0  0  0  0
   15.9242  -10.0399   -2.7004 H   0  0  0  0  0  0  0  0  0  0  0  0
   14.6575  -10.4359   -3.8977 H   0  0  0  0  0  0  0  0  0  0  0  0
   14.2825  -10.5292   -2.1352 H   0  0  0  0  0  0  0  0  0  0  0  0
   16.1913   -7.6257   -2.2826 H   0  0  0  0  0  0  0  0  0  0  0  0
   15.0770   -8.1319   -0.9707 H   0  0  0  0  0  0  0  0  0  0  0  0
   15.0556   -5.6294   -1.3609 H   0  0  0  0  0  0  0  0  0  0  0  0
   14.5411   -5.9295   -3.0421 H   0  0  0  0  0  0  0  0  0  0  0  0
   14.7532   -8.2418   -3.8876 H   0  0  0  0  0  0  0  0  0  0  0  0
  1  2  2  0  0  0  0
  2  3  1  0  0  0  0
  2  5  1  0  0  0  0
  3  4  1  0  0  0  0
  3 35  1  0  0  0  0
  4 36  1  0  0  0  0
  4 37  1  0  0  0  0
  4 38  1  0  0  0  0
  5  6  1  0  0  0  0
  5 10  2  0  0  0  0
  6  7  1  0  0  0  0
  7  8  1  0  0  0  0
  7  9  2  0  0  0  0
  8 39  1  0  0  0  0
  8 40  1  0  0  0  0
  8 41  1  0  0  0  0
  9 10  1  0  0  0  0
  9 11  1  0  0  0  0
 10 14  1  0  0  0  0
 11 12  2  0  0  0  0
 11 17  1  0  0  0  0
 12 13  1  0  0  0  0
 12 20  1  0  0  0  0
 13 14  1  0  0  0  0
 13 42  1  0  0  0  0
 13 43  1  0  0  0  0
 14 15  1  0  0  0  0
 14 16  1  0  0  0  0
 15 44  1  0  0  0  0
 15 45  1  0  0  0  0
 15 46  1  0  0  0  0
 16 47  1  0  0  0  0
 16 48  1  0  0  0  0
 16 49  1  0  0  0  0
 17 18  2  0  0  0  0
 18 19  1  0  0  0  0
 18 21  1  0  0  0  0
 19 20  2  0  0  0  0
 20 50  1  0  0  0  0
 21 22  1  0  0  0  0
 21 51  1  0  0  0  0
 22 23  2  0  0  0  0
 22 27  1  0  0  0  0
 23 24  1  0  0  0  0
 23 52  1  0  0  0  0
 24 25  2  0  0  0  0
 24 53  1  0  0  0  0
 25 26  1  0  0  0  0
 25 28  1  0  0  0  0
 26 27  2  0  0  0  0
 26 54  1  0  0  0  0
 27 55  1  0  0  0  0
 28 29  1  0  0  0  0
 28 34  1  0  0  0  0
 29 30  1  0  0  0  0
 29 56  1  0  0  0  0
 29 57  1  0  0  0  0
 30 31  1  0  0  0  0
 30 58  1  0  0  0  0
 30 59  1  0  0  0  0
 31 32  1  0  0  0  0
 31 33  1  0  0  0  0
 31 67  1  0  0  0  0
 32 60  1  0  0  0  0
 32 61  1  0  0  0  0
 32 62  1  0  0  0  0
 33 34  1  0  0  0  0
 33 63  1  0  0  0  0
 33 64  1  0  0  0  0
 34 65  1  0  0  0  0
 34 66  1  0  0  0  0
M  CHG  2   7   1  31   1
M  END
$$$$
