PHB
 OpenBabel04161912143D

 15 15  0  0  0  0  0  0  0  0999 V2000
    0.0231   71.0678   21.1268 C   0  0  0  0  0  0  0  0  0  0  0  0
    0.8758   70.6137   20.2979 O   0  0  0  0  0  0  0  0  0  0  0  0
   -1.0922   71.6080   20.8244 O   0  0  0  0  0  0  0  0  0  0  0  0
    0.3556   70.9553   22.6032 C   0  0  0  0  0  0  0  0  0  0  0  0
    1.5689   70.3793   23.0271 C   0  0  0  0  0  0  0  0  0  0  0  0
    1.8773   70.2825   24.3874 C   0  0  0  0  0  0  0  0  0  0  0  0
    0.9780   70.7456   25.3333 C   0  0  0  0  0  0  0  0  0  0  0  0
   -0.2298   71.3186   24.9468 C   0  0  0  0  0  0  0  0  0  0  0  0
   -0.5298   71.4249   23.5887 C   0  0  0  0  0  0  0  0  0  0  0  0
    1.3093   70.6167   26.6519 O   0  0  0  0  0  0  0  0  0  0  0  0
    2.2686   70.0112   22.2831 H   0  0  0  0  0  0  0  0  0  0  0  0
    2.8200   69.8365   24.6975 H   0  0  0  0  0  0  0  0  0  0  0  0
   -0.9300   71.7067   25.6796 H   0  0  0  0  0  0  0  0  0  0  0  0
   -1.4693   71.8839   23.2666 H   0  0  0  0  0  0  0  0  0  0  0  0
    0.5525   70.1782   27.0749 H   0  0  0  0  0  0  0  0  0  0  0  0
  1  2  2  0  0  0  0
  1  3  1  0  0  0  0
  1  4  1  0  0  0  0
  4  5  2  0  0  0  0
  4  9  1  0  0  0  0
  5  6  1  0  0  0  0
  5 11  1  0  0  0  0
  6  7  2  0  0  0  0
  6 12  1  0  0  0  0
  7  8  1  0  0  0  0
  7 10  1  0  0  0  0
  8  9  2  0  0  0  0
  8 13  1  0  0  0  0
  9 14  1  0  0  0  0
 10 15  1  0  0  0  0
M  END
$$$$
