PQ7
 OpenBabel04161910223D

 86 90  0  0  0  0  0  0  0  0999 V2000
    9.3516  -18.5243    4.7720 C   0  0  0  0  0  0  0  0  0  0  0  0
    9.6234  -18.3351    6.2504 N   0  0  0  0  0  0  0  0  0  0  0  0
    8.5985  -18.9309    7.0833 C   0  0  0  0  0  0  0  0  0  0  0  0
    8.4950  -18.5149    8.3544 C   0  0  0  0  0  0  0  0  0  0  0  0
    9.1798  -17.3308    8.8723 C   0  0  0  0  0  0  0  0  0  0  0  0
    9.8413  -16.5788    7.9925 C   0  0  0  0  0  0  0  0  0  0  0  0
    9.9318  -16.9210    6.5446 C   0  0  0  0  0  0  0  0  0  0  0  0
    8.8702  -16.7967   10.1871 N   0  0  0  0  0  0  0  0  0  0  0  0
   16.9087  -23.6397    2.8701 N   0  0  0  0  0  0  0  0  0  0  0  0
   16.3937  -22.3053    3.0281 C   0  0  0  0  0  0  0  0  0  0  0  0
   15.7585  -21.9597    4.1656 C   0  0  0  0  0  0  0  0  0  0  0  0
   15.4091  -22.9052    5.2161 C   0  0  0  0  0  0  0  0  0  0  0  0
   15.6059  -24.2030    4.9599 C   0  0  0  0  0  0  0  0  0  0  0  0
   16.1740  -24.6818    3.6671 C   0  0  0  0  0  0  0  0  0  0  0  0
   14.4972  -22.5502    6.2711 N   0  0  0  0  0  0  0  0  0  0  0  0
   14.7015  -21.2033    6.9596 C   0  0  0  0  0  0  0  0  0  0  0  0
   14.5179  -21.4992    8.4451 C   0  0  0  0  0  0  0  0  0  0  0  0
    8.5938  -17.8621   11.2399 C   0  0  0  0  0  0  0  0  0  0  0  0
    9.8246  -15.7644   10.7655 C   0  0  0  0  0  0  0  0  0  0  0  0
   14.3083  -23.5639    7.4039 C   0  0  0  0  0  0  0  0  0  0  0  0
   13.6085  -22.7109    8.4399 C   0  0  0  0  0  0  0  0  0  0  0  0
   17.0654  -24.0465    1.3858 C   0  0  0  0  0  0  0  0  0  0  0  0
   15.7617  -24.3527    0.6979 C   0  0  0  0  0  0  0  0  0  0  0  0
   14.9859  -23.3199    0.1556 C   0  0  0  0  0  0  0  0  0  0  0  0
   13.6879  -23.5746   -0.2756 C   0  0  0  0  0  0  0  0  0  0  0  0
   13.1473  -24.8594   -0.1521 C   0  0  0  0  0  0  0  0  0  0  0  0
   13.9453  -25.9089    0.3107 C   0  0  0  0  0  0  0  0  0  0  0  0
   15.2519  -25.6633    0.7113 C   0  0  0  0  0  0  0  0  0  0  0  0
   11.6697  -25.0910   -0.3444 C   0  0  0  0  0  0  0  0  0  0  0  0
   10.9966  -25.1548    1.0304 C   0  0  0  0  0  0  0  0  0  0  0  0
   11.0569  -23.8210    1.7632 C   0  0  0  0  0  0  0  0  0  0  0  0
   10.4782  -23.9567    3.1689 C   0  0  0  0  0  0  0  0  0  0  0  0
   10.1888  -22.5686    3.6695 C   0  0  0  0  0  0  0  0  0  0  0  0
   11.1562  -21.8474    4.3617 C   0  0  0  0  0  0  0  0  0  0  0  0
   10.9127  -20.5158    4.7037 C   0  0  0  0  0  0  0  0  0  0  0  0
    9.6817  -19.9310    4.3537 C   0  0  0  0  0  0  0  0  0  0  0  0
    8.7399  -20.6400    3.6213 C   0  0  0  0  0  0  0  0  0  0  0  0
    8.9947  -21.9625    3.2876 C   0  0  0  0  0  0  0  0  0  0  0  0
   10.0078  -17.8371    4.2238 H   0  0  0  0  0  0  0  0  0  0  0  0
    8.3115  -18.2474    4.5723 H   0  0  0  0  0  0  0  0  0  0  0  0
    8.0229  -19.8021    6.7487 H   0  0  0  0  0  0  0  0  0  0  0  0
    7.8250  -19.0727    9.0052 H   0  0  0  0  0  0  0  0  0  0  0  0
   10.3034  -15.6201    8.1937 H   0  0  0  0  0  0  0  0  0  0  0  0
    9.2577  -16.2822    5.9601 H   0  0  0  0  0  0  0  0  0  0  0  0
   10.9552  -16.7725    6.1916 H   0  0  0  0  0  0  0  0  0  0  0  0
   16.5841  -21.5412    2.2679 H   0  0  0  0  0  0  0  0  0  0  0  0
   15.4584  -20.9200    4.2759 H   0  0  0  0  0  0  0  0  0  0  0  0
   15.2435  -25.0098    5.5885 H   0  0  0  0  0  0  0  0  0  0  0  0
   16.8601  -25.5118    3.8201 H   0  0  0  0  0  0  0  0  0  0  0  0
   15.3062  -25.0309    3.0996 H   0  0  0  0  0  0  0  0  0  0  0  0
   13.8858  -20.5618    6.6013 H   0  0  0  0  0  0  0  0  0  0  0  0
   15.6695  -20.7596    6.7170 H   0  0  0  0  0  0  0  0  0  0  0  0
   14.1048  -20.6557    9.0038 H   0  0  0  0  0  0  0  0  0  0  0  0
   15.4852  -21.7625    8.8919 H   0  0  0  0  0  0  0  0  0  0  0  0
    8.6695  -17.4017   12.2293 H   0  0  0  0  0  0  0  0  0  0  0  0
    9.3217  -18.6744   11.1440 H   0  0  0  0  0  0  0  0  0  0  0  0
    7.5699  -18.2175   11.0931 H   0  0  0  0  0  0  0  0  0  0  0  0
   10.1965  -15.0807   10.0065 H   0  0  0  0  0  0  0  0  0  0  0  0
   10.6501  -16.2731   11.2709 H   0  0  0  0  0  0  0  0  0  0  0  0
    9.2376  -15.1647   11.4693 H   0  0  0  0  0  0  0  0  0  0  0  0
   15.2956  -23.8986    7.7435 H   0  0  0  0  0  0  0  0  0  0  0  0
   13.6883  -24.3892    7.0437 H   0  0  0  0  0  0  0  0  0  0  0  0
   12.6035  -22.4328    8.0869 H   0  0  0  0  0  0  0  0  0  0  0  0
   13.5099  -23.2016    9.4084 H   0  0  0  0  0  0  0  0  0  0  0  0
   17.7124  -24.9311    1.3896 H   0  0  0  0  0  0  0  0  0  0  0  0
   17.6105  -23.2432    0.8776 H   0  0  0  0  0  0  0  0  0  0  0  0
   15.3636  -22.3026    0.0864 H   0  0  0  0  0  0  0  0  0  0  0  0
   13.0719  -22.7561   -0.6467 H   0  0  0  0  0  0  0  0  0  0  0  0
   13.5248  -26.9103    0.4097 H   0  0  0  0  0  0  0  0  0  0  0  0
   15.8310  -26.5004    1.0999 H   0  0  0  0  0  0  0  0  0  0  0  0
   11.5126  -26.0334   -0.8783 H   0  0  0  0  0  0  0  0  0  0  0  0
   11.2268  -24.2977   -0.9594 H   0  0  0  0  0  0  0  0  0  0  0  0
   11.4665  -25.9244    1.6546 H   0  0  0  0  0  0  0  0  0  0  0  0
    9.9467  -25.4446    0.9032 H   0  0  0  0  0  0  0  0  0  0  0  0
   10.5158  -23.0688    1.1723 H   0  0  0  0  0  0  0  0  0  0  0  0
   12.0823  -23.4468    1.8625 H   0  0  0  0  0  0  0  0  0  0  0  0
   11.1854  -24.4671    3.8314 H   0  0  0  0  0  0  0  0  0  0  0  0
    9.5568  -24.5418    3.1708 H   0  0  0  0  0  0  0  0  0  0  0  0
   12.0987  -22.3155    4.5766 H   0  0  0  0  0  0  0  0  0  0  0  0
   11.6998  -19.9526    5.2010 H   0  0  0  0  0  0  0  0  0  0  0  0
    7.8061  -20.1913    3.2839 H   0  0  0  0  0  0  0  0  0  0  0  0
    8.2664  -22.5090    2.6815 H   0  0  0  0  0  0  0  0  0  0  0  0
   10.4788  -18.8542    6.4497 H   0  0  0  0  0  0  0  0  0  0  0  0
    7.9798  -16.2838   10.1006 H   0  0  0  0  0  0  0  0  0  0  0  0
   17.8818  -23.6468    3.2169 H   0  0  0  0  0  0  0  0  0  0  0  0
   13.5659  -22.5129    5.8491 H   0  0  0  0  0  0  0  0  0  0  0  0
  1  2  1  0  0  0  0
  1 36  1  0  0  0  0
  1 39  1  0  0  0  0
  1 40  1  0  0  0  0
  2  3  1  0  0  0  0
  2  7  1  0  0  0  0
  2 83  1  0  0  0  0
  3  4  2  0  0  0  0
  3 41  1  0  0  0  0
  4  5  1  0  0  0  0
  4 42  1  0  0  0  0
  5  6  2  0  0  0  0
  5  8  1  0  0  0  0
  6  7  1  0  0  0  0
  6 43  1  0  0  0  0
  7 44  1  0  0  0  0
  7 45  1  0  0  0  0
  8 18  1  0  0  0  0
  8 19  1  0  0  0  0
  8 84  1  0  0  0  0
  9 10  1  0  0  0  0
  9 14  1  0  0  0  0
  9 22  1  0  0  0  0
  9 85  1  0  0  0  0
 10 11  2  0  0  0  0
 10 46  1  0  0  0  0
 11 12  1  0  0  0  0
 11 47  1  0  0  0  0
 12 13  2  0  0  0  0
 12 15  1  0  0  0  0
 13 14  1  0  0  0  0
 13 48  1  0  0  0  0
 14 49  1  0  0  0  0
 14 50  1  0  0  0  0
 15 16  1  0  0  0  0
 15 20  1  0  0  0  0
 15 86  1  0  0  0  0
 16 17  1  0  0  0  0
 16 51  1  0  0  0  0
 16 52  1  0  0  0  0
 17 21  1  0  0  0  0
 17 53  1  0  0  0  0
 17 54  1  0  0  0  0
 18 55  1  0  0  0  0
 18 56  1  0  0  0  0
 18 57  1  0  0  0  0
 19 58  1  0  0  0  0
 19 59  1  0  0  0  0
 19 60  1  0  0  0  0
 20 21  1  0  0  0  0
 20 61  1  0  0  0  0
 20 62  1  0  0  0  0
 21 63  1  0  0  0  0
 21 64  1  0  0  0  0
 22 23  1  0  0  0  0
 22 65  1  0  0  0  0
 22 66  1  0  0  0  0
 23 24  2  0  0  0  0
 23 28  1  0  0  0  0
 24 25  1  0  0  0  0
 24 67  1  0  0  0  0
 25 26  2  0  0  0  0
 25 68  1  0  0  0  0
 26 27  1  0  0  0  0
 26 29  1  0  0  0  0
 27 28  2  0  0  0  0
 27 69  1  0  0  0  0
 28 70  1  0  0  0  0
 29 30  1  0  0  0  0
 29 71  1  0  0  0  0
 29 72  1  0  0  0  0
 30 31  1  0  0  0  0
 30 73  1  0  0  0  0
 30 74  1  0  0  0  0
 31 32  1  0  0  0  0
 31 75  1  0  0  0  0
 31 76  1  0  0  0  0
 32 33  1  0  0  0  0
 32 77  1  0  0  0  0
 32 78  1  0  0  0  0
 33 34  2  0  0  0  0
 33 38  1  0  0  0  0
 34 35  1  0  0  0  0
 34 79  1  0  0  0  0
 35 36  2  0  0  0  0
 35 80  1  0  0  0  0
 36 37  1  0  0  0  0
 37 38  2  0  0  0  0
 37 81  1  0  0  0  0
 38 82  1  0  0  0  0
M  END
$$$$
