PRO
 OpenBabel04161911113D

 17 17  0  0  1  0  0  0  0  0999 V2000
   22.2021    4.3097   77.6734 N   0  3  0  0  0  0  0  0  0  0  0  0
   22.4118    3.0729   78.5520 C   0  0  2  0  0  0  0  0  0  0  0  0
   23.4030    3.3147   79.7304 C   0  0  0  0  0  0  0  0  0  0  0  0
   24.1251    4.3348   79.4976 O   0  0  0  0  0  0  0  0  0  0  0  0
   22.9397    2.0144   77.5983 C   0  0  0  0  0  0  0  0  0  0  0  0
   23.2786    2.7282   76.2940 C   0  0  0  0  0  0  0  0  0  0  0  0
   22.4162    3.9641   76.2577 C   0  0  0  0  0  0  0  0  0  0  0  0
   23.3062    2.5542   80.7120 O   0  0  0  0  0  0  0  0  0  0  0  0
   21.3010    4.7485   77.8797 H   0  0  0  0  0  0  0  0  0  0  0  0
   21.4263    2.8124   78.9496 H   0  0  0  0  0  0  0  0  0  0  0  0
   22.1603    1.2667   77.4180 H   0  0  0  0  0  0  0  0  0  0  0  0
   23.8179    1.4944   77.9845 H   0  0  0  0  0  0  0  0  0  0  0  0
   23.0900    2.0876   75.4249 H   0  0  0  0  0  0  0  0  0  0  0  0
   24.3387    3.0088   76.2809 H   0  0  0  0  0  0  0  0  0  0  0  0
   22.8839    4.8103   75.7448 H   0  0  0  0  0  0  0  0  0  0  0  0
   21.4316    3.7611   75.8226 H   0  0  0  0  0  0  0  0  0  0  0  0
   22.9474    4.9486   78.0313 H   0  0  0  0  0  0  0  0  0  0  0  0
  1  2  1  0  0  0  0
  1  7  1  0  0  0  0
  1  9  1  0  0  0  0
  1 17  1  0  0  0  0
  2  3  1  0  0  0  0
  2  5  1  0  0  0  0
  2 10  1  1  0  0  0
  3  4  2  0  0  0  0
  3  8  1  0  0  0  0
  5  6  1  0  0  0  0
  5 11  1  0  0  0  0
  5 12  1  0  0  0  0
  6  7  1  0  0  0  0
  6 13  1  0  0  0  0
  6 14  1  0  0  0  0
  7 15  1  0  0  0  0
  7 16  1  0  0  0  0
M  CHG  1   1   1
M  END
$$$$
