Q9T
 OpenBabel04161911203D

 22 23  0  0  0  0  0  0  0  0999 V2000
   13.7723   30.2273  -17.8028 C   0  0  0  0  0  0  0  0  0  0  0  0
   15.0239   29.7210  -17.4183 C   0  0  0  0  0  0  0  0  0  0  0  0
   15.7056   28.7485  -18.2631 C   0  0  0  0  0  0  0  0  0  0  0  0
   16.7969   27.9246  -18.1139 C   0  0  0  0  0  0  0  0  0  0  0  0
   16.9368   27.2737  -19.3540 C   0  0  0  0  0  0  0  0  0  0  0  0
   15.5949   30.1923  -16.2234 C   0  0  0  0  0  0  0  0  0  0  0  0
   14.9159   31.1218  -15.4238 C   0  0  0  0  0  0  0  0  0  0  0  0
   19.1375   26.5149  -19.0195 F   0  0  0  0  0  0  0  0  0  0  0  0
   17.9929   26.2845  -19.7204 C   0  0  0  0  0  0  0  0  0  0  0  0
   18.3277   26.3199  -21.0324 F   0  0  0  0  0  0  0  0  0  0  0  0
   17.6122   25.0160  -19.4296 F   0  0  0  0  0  0  0  0  0  0  0  0
   15.9677   27.6479  -20.2090 N   0  0  0  0  0  0  0  0  0  0  0  0
   15.2052   28.5709  -19.5206 O   0  0  0  0  0  0  0  0  0  0  0  0
   13.1078   31.1602  -17.0046 C   0  0  0  0  0  0  0  0  0  0  0  0
   11.4259   31.8194  -17.5624 Br  0  0  0  0  0  0  0  0  0  0  0  0
   13.6697   31.6045  -15.8139 C   0  0  0  0  0  0  0  0  0  0  0  0
   15.6633   31.7344  -13.7932 Br  0  0  0  0  0  0  0  0  0  0  0  0
   16.8393   29.7436  -15.8597 O   0  0  0  0  0  0  0  0  0  0  0  0
   13.3076   29.8916  -18.7288 H   0  0  0  0  0  0  0  0  0  0  0  0
   17.4229   27.8203  -17.2387 H   0  0  0  0  0  0  0  0  0  0  0  0
   13.1372   32.3242  -15.1948 H   0  0  0  0  0  0  0  0  0  0  0  0
   17.3140   30.4859  -15.4436 H   0  0  0  0  0  0  0  0  0  0  0  0
  1  2  2  0  0  0  0
  1 14  1  0  0  0  0
  1 19  1  0  0  0  0
  2  3  1  0  0  0  0
  2  6  1  0  0  0  0
  3  4  2  0  0  0  0
  3 13  1  0  0  0  0
  4  5  1  0  0  0  0
  4 20  1  0  0  0  0
  5  9  1  0  0  0  0
  5 12  2  0  0  0  0
  6  7  2  0  0  0  0
  6 18  1  0  0  0  0
  7 16  1  0  0  0  0
  7 17  1  0  0  0  0
  8  9  1  0  0  0  0
  9 10  1  0  0  0  0
  9 11  1  0  0  0  0
 12 13  1  0  0  0  0
 14 15  1  0  0  0  0
 14 16  2  0  0  0  0
 16 21  1  0  0  0  0
 18 22  1  0  0  0  0
M  END
$$$$
