RGJ
 OpenBabel04161909363D

 44 46  0  0  0  0  0  0  0  0999 V2000
    9.4668   23.0612    4.3667 Cl  0  0  0  0  0  0  0  0  0  0  0  0
   10.8533   22.0527    4.4962 C   0  0  0  0  0  0  0  0  0  0  0  0
   14.2346   19.5427    4.6323 N   0  0  0  0  0  0  0  0  0  0  0  0
   15.6036   19.9092    4.5337 C   0  0  0  0  0  0  0  0  0  0  0  0
   16.2266   18.2959    6.3945 C   0  0  0  0  0  0  0  0  0  0  0  0
   15.1366   17.7285    6.3330 O   0  0  0  0  0  0  0  0  0  0  0  0
   17.1950   17.9186    7.3075 N   0  0  0  0  0  0  0  0  0  0  0  0
   16.0171   20.8585    3.5428 C   0  0  0  0  0  0  0  0  0  0  0  0
   15.5953   22.2966    1.5928 C   0  0  0  0  0  0  0  0  0  0  0  0
   14.8129   22.8220    0.6042 O   0  0  0  0  0  0  0  0  0  0  0  0
   13.5156   22.2718    0.4155 C   0  0  0  0  0  0  0  0  0  0  0  0
   16.9194   22.7348    1.6493 C   0  0  0  0  0  0  0  0  0  0  0  0
   18.6064   24.1475    0.7429 C   0  0  0  0  0  0  0  0  0  0  0  0
   13.1063   20.3891    4.7009 C   0  0  0  0  0  0  0  0  0  0  0  0
   16.5580   19.3905    5.4321 C   0  0  0  0  0  0  0  0  0  0  0  0
   17.0034   16.7803    8.1705 C   0  0  0  0  0  0  0  0  0  0  0  0
   17.3490   21.2931    3.5647 C   0  0  0  0  0  0  0  0  0  0  0  0
   18.2489   20.8301    4.4407 N   0  0  0  0  0  0  0  0  0  0  0  0
   17.8475   19.8894    5.3281 C   0  0  0  0  0  0  0  0  0  0  0  0
   15.1636   21.3511    2.5266 C   0  0  0  0  0  0  0  0  0  0  0  0
   17.7783   22.2187    2.6227 C   0  0  0  0  0  0  0  0  0  0  0  0
   17.2826   23.6433    0.6911 O   0  0  0  0  0  0  0  0  0  0  0  0
   10.7756   20.7192    4.0959 C   0  0  0  0  0  0  0  0  0  0  0  0
   11.8959   19.8921    4.2031 C   0  0  0  0  0  0  0  0  0  0  0  0
   12.0409   22.5716    4.9964 C   0  0  0  0  0  0  0  0  0  0  0  0
   13.1546   21.7417    5.0933 C   0  0  0  0  0  0  0  0  0  0  0  0
   14.2895   22.2757    5.5718 F   0  0  0  0  0  0  0  0  0  0  0  0
   14.0874   18.6133    5.0405 H   0  0  0  0  0  0  0  0  0  0  0  0
   18.0722   18.4052    7.3981 H   0  0  0  0  0  0  0  0  0  0  0  0
   13.0534   22.7874   -0.4286 H   0  0  0  0  0  0  0  0  0  0  0  0
   12.8828   22.4398    1.2949 H   0  0  0  0  0  0  0  0  0  0  0  0
   13.5742   21.2068    0.1682 H   0  0  0  0  0  0  0  0  0  0  0  0
   18.7250   24.8628   -0.0761 H   0  0  0  0  0  0  0  0  0  0  0  0
   19.3366   23.3441    0.5934 H   0  0  0  0  0  0  0  0  0  0  0  0
   18.7857   24.6796    1.6843 H   0  0  0  0  0  0  0  0  0  0  0  0
   17.9073   16.6424    8.7686 H   0  0  0  0  0  0  0  0  0  0  0  0
   16.8252   15.8935    7.5567 H   0  0  0  0  0  0  0  0  0  0  0  0
   16.1439   16.9587    8.8213 H   0  0  0  0  0  0  0  0  0  0  0  0
   18.6624   19.5497    5.9547 H   0  0  0  0  0  0  0  0  0  0  0  0
   14.1555   20.9685    2.4590 H   0  0  0  0  0  0  0  0  0  0  0  0
   18.8206   22.5122    2.6675 H   0  0  0  0  0  0  0  0  0  0  0  0
    9.8525   20.3174    3.6870 H   0  0  0  0  0  0  0  0  0  0  0  0
   11.8417   18.8667    3.8440 H   0  0  0  0  0  0  0  0  0  0  0  0
   12.1207   23.6095    5.3037 H   0  0  0  0  0  0  0  0  0  0  0  0
  1  2  1  0  0  0  0
  2 23  2  0  0  0  0
  2 25  1  0  0  0  0
  3  4  1  0  0  0  0
  3 14  1  0  0  0  0
  3 28  1  0  0  0  0
  4  8  2  0  0  0  0
  4 15  1  0  0  0  0
  5  6  2  0  0  0  0
  5  7  1  0  0  0  0
  5 15  1  0  0  0  0
  7 16  1  0  0  0  0
  7 29  1  0  0  0  0
  8 17  1  0  0  0  0
  8 20  1  0  0  0  0
  9 10  1  0  0  0  0
  9 12  1  0  0  0  0
  9 20  2  0  0  0  0
 10 11  1  0  0  0  0
 11 30  1  0  0  0  0
 11 31  1  0  0  0  0
 11 32  1  0  0  0  0
 12 21  2  0  0  0  0
 12 22  1  0  0  0  0
 13 22  1  0  0  0  0
 13 33  1  0  0  0  0
 13 34  1  0  0  0  0
 13 35  1  0  0  0  0
 14 24  2  0  0  0  0
 14 26  1  0  0  0  0
 15 19  2  0  0  0  0
 16 36  1  0  0  0  0
 16 37  1  0  0  0  0
 16 38  1  0  0  0  0
 17 18  2  0  0  0  0
 17 21  1  0  0  0  0
 18 19  1  0  0  0  0
 19 39  1  0  0  0  0
 20 40  1  0  0  0  0
 21 41  1  0  0  0  0
 23 24  1  0  0  0  0
 23 42  1  0  0  0  0
 24 43  1  0  0  0  0
 25 26  2  0  0  0  0
 25 44  1  0  0  0  0
 26 27  1  0  0  0  0
M  END
$$$$
