RHQ
 OpenBabel04161910543D

 65 68  0  0  0  0  0  0  0  0999 V2000
   -3.2107   22.4682  -10.7668 C   0  0  0  0  0  0  0  0  0  0  0  0
   -1.8752   22.7001  -10.4302 C   0  0  0  0  0  0  0  0  0  0  0  0
   -1.1772   21.6778   -9.7737 C   0  0  0  0  0  0  0  0  0  0  0  0
   -1.7693   20.4490   -9.4339 C   0  0  0  0  0  0  0  0  0  0  0  0
   -3.1134   20.1978   -9.7629 C   0  0  0  0  0  0  0  0  0  0  0  0
   -3.8092   21.2207  -10.4501 C   0  0  0  0  0  0  0  0  0  0  0  0
   -4.0096   23.4401  -11.3580 O   0  0  0  0  0  0  0  0  0  0  0  0
   -3.4491   24.6621  -11.7191 C   0  0  0  0  0  0  0  0  0  0  0  0
   -2.1263   25.0133  -11.4316 C   0  0  0  0  0  0  0  0  0  0  0  0
   -1.3061   24.1045  -10.5454 C   0  0  0  0  0  0  0  0  0  0  0  0
   -4.2852   25.6017  -12.3628 C   0  0  0  0  0  0  0  0  0  0  0  0
   -3.8276   26.8707  -12.7682 C   0  0  0  0  0  0  0  0  0  0  0  0
   -2.5066   27.2341  -12.4423 C   0  0  0  0  0  0  0  0  0  0  0  0
   -1.6911   26.3091  -11.7700 C   0  0  0  0  0  0  0  0  0  0  0  0
   -4.6606   27.8300  -13.3272 N   0  0  0  0  0  0  0  0  0  0  0  0
    0.2163   24.3147  -10.3198 C   0  0  0  0  0  0  0  0  0  0  0  0
    0.6197   24.2580   -8.9483 C   0  0  0  0  0  0  0  0  0  0  0  0
    1.9369   24.4451   -8.5400 C   0  0  0  0  0  0  0  0  0  0  0  0
    2.9031   24.7190   -9.4968 C   0  0  0  0  0  0  0  0  0  0  0  0
    2.5531   24.7892  -10.8544 C   0  0  0  0  0  0  0  0  0  0  0  0
    1.2233   24.5777  -11.2860 C   0  0  0  0  0  0  0  0  0  0  0  0
   -1.9489   28.5818  -12.7590 C   0  0  0  0  0  0  0  0  0  0  0  0
   -0.9077   19.4303   -8.7355 C   0  0  0  0  0  0  0  0  0  0  0  0
   -6.0932   27.7039  -13.3683 C   0  0  0  0  0  0  0  0  0  0  0  0
   -6.7260   28.9600  -13.9316 C   0  0  0  0  0  0  0  0  0  0  0  0
   -3.6816   18.9676   -9.4437 N   0  0  0  0  0  0  0  0  0  0  0  0
   -4.8226   18.4028  -10.1392 C   0  0  0  0  0  0  0  0  0  0  0  0
   -5.2910   17.1157   -9.4731 C   0  0  0  0  0  0  0  0  0  0  0  0
    0.9158   24.6534  -12.7588 C   0  0  0  0  0  0  0  0  0  0  0  0
    0.0777   23.9541  -13.2792 O   0  0  0  0  0  0  0  0  0  0  0  0
    1.5840   25.6883  -13.3519 O   0  0  0  0  0  0  0  0  0  0  0  0
    0.7745   26.4563  -14.2659 C   0  0  0  0  0  0  0  0  0  0  0  0
    1.3227   26.5541  -15.6760 C   0  0  0  0  0  0  0  0  0  0  0  0
   -0.1456   21.8430   -9.4804 H   0  0  0  0  0  0  0  0  0  0  0  0
   -4.8528   21.0674  -10.7111 H   0  0  0  0  0  0  0  0  0  0  0  0
   -1.6773   24.5122   -9.5949 H   0  0  0  0  0  0  0  0  0  0  0  0
   -5.3243   25.3188  -12.5490 H   0  0  0  0  0  0  0  0  0  0  0  0
   -0.6869   26.6193  -11.4902 H   0  0  0  0  0  0  0  0  0  0  0  0
   -4.2636   28.5857  -13.8680 H   0  0  0  0  0  0  0  0  0  0  0  0
   -0.1219   24.0328   -8.1768 H   0  0  0  0  0  0  0  0  0  0  0  0
    2.1942   24.3691   -7.4838 H   0  0  0  0  0  0  0  0  0  0  0  0
    3.9361   24.8676   -9.1901 H   0  0  0  0  0  0  0  0  0  0  0  0
    3.3413   25.0016  -11.5752 H   0  0  0  0  0  0  0  0  0  0  0  0
   -2.6667   29.2330  -13.2515 H   0  0  0  0  0  0  0  0  0  0  0  0
   -1.1207   28.4665  -13.4542 H   0  0  0  0  0  0  0  0  0  0  0  0
   -1.6367   29.0930  -11.8498 H   0  0  0  0  0  0  0  0  0  0  0  0
    0.1015   19.8153   -8.5470 H   0  0  0  0  0  0  0  0  0  0  0  0
   -0.8078   18.5363   -9.3578 H   0  0  0  0  0  0  0  0  0  0  0  0
   -1.3396   19.1640   -7.7664 H   0  0  0  0  0  0  0  0  0  0  0  0
   -6.4582   27.5559  -12.3484 H   0  0  0  0  0  0  0  0  0  0  0  0
   -6.3696   26.8531  -13.9950 H   0  0  0  0  0  0  0  0  0  0  0  0
   -7.8135   28.8478  -13.9354 H   0  0  0  0  0  0  0  0  0  0  0  0
   -6.3960   29.1520  -14.9602 H   0  0  0  0  0  0  0  0  0  0  0  0
   -6.4747   29.8443  -13.3316 H   0  0  0  0  0  0  0  0  0  0  0  0
   -3.2139   18.3830   -8.7602 H   0  0  0  0  0  0  0  0  0  0  0  0
   -4.5575   18.1846  -11.1798 H   0  0  0  0  0  0  0  0  0  0  0  0
   -5.6564   19.1081  -10.1257 H   0  0  0  0  0  0  0  0  0  0  0  0
   -6.1673   16.7185   -9.9977 H   0  0  0  0  0  0  0  0  0  0  0  0
   -5.5738   17.2922   -8.4302 H   0  0  0  0  0  0  0  0  0  0  0  0
   -4.5116   16.3466   -9.4878 H   0  0  0  0  0  0  0  0  0  0  0  0
    0.7640   27.4652  -13.8455 H   0  0  0  0  0  0  0  0  0  0  0  0
   -0.2610   26.1023  -14.3133 H   0  0  0  0  0  0  0  0  0  0  0  0
    0.6943   27.2266  -16.2769 H   0  0  0  0  0  0  0  0  0  0  0  0
    1.3335   25.5747  -16.1601 H   0  0  0  0  0  0  0  0  0  0  0  0
    2.3419   26.9489  -15.6780 H   0  0  0  0  0  0  0  0  0  0  0  0
  1  2  2  0  0  0  0
  1  6  1  0  0  0  0
  1  7  1  0  0  0  0
  2  3  1  0  0  0  0
  2 10  1  0  0  0  0
  3  4  2  0  0  0  0
  3 34  1  0  0  0  0
  4  5  1  0  0  0  0
  4 23  1  0  0  0  0
  5  6  2  0  0  0  0
  5 26  1  0  0  0  0
  6 35  1  0  0  0  0
  7  8  1  0  0  0  0
  8  9  2  0  0  0  0
  8 11  1  0  0  0  0
  9 10  1  0  0  0  0
  9 14  1  0  0  0  0
 10 16  1  0  0  0  0
 10 36  1  0  0  0  0
 11 12  2  0  0  0  0
 11 37  1  0  0  0  0
 12 13  1  0  0  0  0
 12 15  1  0  0  0  0
 13 14  2  0  0  0  0
 13 22  1  0  0  0  0
 14 38  1  0  0  0  0
 15 24  1  0  0  0  0
 15 39  1  0  0  0  0
 16 17  2  0  0  0  0
 16 21  1  0  0  0  0
 17 18  1  0  0  0  0
 17 40  1  0  0  0  0
 18 19  2  0  0  0  0
 18 41  1  0  0  0  0
 19 20  1  0  0  0  0
 19 42  1  0  0  0  0
 20 21  2  0  0  0  0
 20 43  1  0  0  0  0
 21 29  1  0  0  0  0
 22 44  1  0  0  0  0
 22 45  1  0  0  0  0
 22 46  1  0  0  0  0
 23 47  1  0  0  0  0
 23 48  1  0  0  0  0
 23 49  1  0  0  0  0
 24 25  1  0  0  0  0
 24 50  1  0  0  0  0
 24 51  1  0  0  0  0
 25 52  1  0  0  0  0
 25 53  1  0  0  0  0
 25 54  1  0  0  0  0
 26 27  1  0  0  0  0
 26 55  1  0  0  0  0
 27 28  1  0  0  0  0
 27 56  1  0  0  0  0
 27 57  1  0  0  0  0
 28 58  1  0  0  0  0
 28 59  1  0  0  0  0
 28 60  1  0  0  0  0
 29 30  2  0  0  0  0
 29 31  1  0  0  0  0
 31 32  1  0  0  0  0
 32 33  1  0  0  0  0
 32 61  1  0  0  0  0
 32 62  1  0  0  0  0
 33 63  1  0  0  0  0
 33 64  1  0  0  0  0
 33 65  1  0  0  0  0
M  END
$$$$
