ROC
 OpenBabel04161910563D

100104  0  0  1  0  0  0  0  0999 V2000
  -18.3979    7.9822  -16.5506 C   0  0  0  0  0  0  0  0  0  0  0  0
  -18.5173    8.4602  -15.4300 O   0  0  0  0  0  0  0  0  0  0  0  0
  -18.6933    6.0883  -18.0257 N   0  0  0  0  0  0  0  0  0  0  0  0
  -19.2221    6.8182  -17.0080 C   0  0  0  0  0  0  0  0  0  0  0  0
  -20.4676    6.5865  -16.4406 C   0  0  0  0  0  0  0  0  0  0  0  0
  -21.2243    5.5414  -16.9573 C   0  0  0  0  0  0  0  0  0  0  0  0
  -21.4318    3.6719  -18.5223 C   0  0  0  0  0  0  0  0  0  0  0  0
  -20.8916    2.8874  -19.5310 C   0  0  0  0  0  0  0  0  0  0  0  0
  -19.6269    3.1722  -20.0186 C   0  0  0  0  0  0  0  0  0  0  0  0
  -18.9043    4.2484  -19.4915 C   0  0  0  0  0  0  0  0  0  0  0  0
  -20.7061    4.7485  -17.9870 C   0  0  0  0  0  0  0  0  0  0  0  0
  -19.4187    5.0552  -18.4891 C   0  0  0  0  0  0  0  0  0  0  0  0
  -17.5369    8.4735  -17.5073 N   0  0  0  0  0  0  0  0  0  0  0  0
  -16.6474    9.5980  -17.2706 C   0  0  2  0  0  0  0  0  0  0  0  0
  -16.8444   10.5673  -18.4342 C   0  0  0  0  0  0  0  0  0  0  0  0
  -16.3063   10.4273  -19.5307 O   0  0  0  0  0  0  0  0  0  0  0  0
  -15.1887    9.1712  -17.2431 C   0  0  0  0  0  0  0  0  0  0  0  0
  -14.9047    8.4409  -15.9625 C   0  0  0  0  0  0  0  0  0  0  0  0
  -14.8771    9.0027  -14.8737 O   0  0  0  0  0  0  0  0  0  0  0  0
  -14.6726    7.1053  -16.0881 N   0  0  0  0  0  0  0  0  0  0  0  0
  -17.6214   13.9138  -18.7183 C   0  0  1  0  0  0  0  0  0  0  0  0
  -18.4296   14.4000  -17.6447 O   0  0  0  0  0  0  0  0  0  0  0  0
  -18.1213   12.5413  -19.2023 C   0  0  1  0  0  0  0  0  0  0  0  0
  -17.7413   11.5773  -18.1816 N   0  0  0  0  0  0  0  0  0  0  0  0
  -19.6349   12.5253  -19.4680 C   0  0  0  0  0  0  0  0  0  0  0  0
  -20.1758   11.1463  -19.7287 C   0  0  0  0  0  0  0  0  0  0  0  0
  -20.6794   10.3873  -18.6646 C   0  0  0  0  0  0  0  0  0  0  0  0
  -20.1623   10.6013  -21.0170 C   0  0  0  0  0  0  0  0  0  0  0  0
  -21.1869    9.1130  -18.8928 C   0  0  0  0  0  0  0  0  0  0  0  0
  -20.6706    9.3216  -21.2391 C   0  0  0  0  0  0  0  0  0  0  0  0
  -21.1793    8.5767  -20.1768 C   0  0  0  0  0  0  0  0  0  0  0  0
  -16.3456   14.8445  -20.6765 N   0  3  1  0  0  0  0  0  0  0  0  0
  -17.6108   14.9382  -19.8443 C   0  0  0  0  0  0  0  0  0  0  0  0
  -16.5751   15.5672  -21.9913 C   0  0  2  0  0  0  0  0  0  0  0  0
  -17.6683   14.8675  -22.8118 C   0  0  0  0  0  0  0  0  0  0  0  0
  -17.8963   13.6787  -22.6698 O   0  0  0  0  0  0  0  0  0  0  0  0
  -15.3202   15.6165  -22.8336 C   0  0  0  0  0  0  0  0  0  0  0  0
  -14.1298   16.1766  -22.0596 C   0  0  2  0  0  0  0  0  0  0  0  0
  -12.8823   16.1493  -22.9488 C   0  0  0  0  0  0  0  0  0  0  0  0
  -12.3613   14.7295  -23.1686 C   0  0  0  0  0  0  0  0  0  0  0  0
  -12.1050   14.0258  -21.8410 C   0  0  0  0  0  0  0  0  0  0  0  0
  -13.3689   13.9882  -20.9923 C   0  0  0  0  0  0  0  0  0  0  0  0
  -13.9037   15.4060  -20.7496 C   0  0  2  0  0  0  0  0  0  0  0  0
  -15.1613   15.3534  -19.9023 C   0  0  0  0  0  0  0  0  0  0  0  0
  -18.3662   15.7410  -23.6148 N   0  0  0  0  0  0  0  0  0  0  0  0
  -19.4821   15.3514  -24.4749 C   0  0  0  0  0  0  0  0  0  0  0  0
  -19.0185   14.3369  -25.5265 C   0  0  0  0  0  0  0  0  0  0  0  0
  -20.6409   14.7830  -23.6462 C   0  0  0  0  0  0  0  0  0  0  0  0
  -19.9663   16.6254  -25.1891 C   0  0  0  0  0  0  0  0  0  0  0  0
  -20.8595    7.2253  -15.6572 H   0  0  0  0  0  0  0  0  0  0  0  0
  -22.2204    5.3493  -16.5589 H   0  0  0  0  0  0  0  0  0  0  0  0
  -22.4282    3.4382  -18.1456 H   0  0  0  0  0  0  0  0  0  0  0  0
  -21.4545    2.0490  -19.9390 H   0  0  0  0  0  0  0  0  0  0  0  0
  -19.1850    2.5628  -20.7988 H   0  0  0  0  0  0  0  0  0  0  0  0
  -17.9069    4.4653  -19.8842 H   0  0  0  0  0  0  0  0  0  0  0  0
  -17.5809    8.0467  -18.4312 H   0  0  0  0  0  0  0  0  0  0  0  0
  -16.9181   10.1033  -16.3348 H   0  0  0  0  0  0  0  0  0  0  0  0
  -14.5299   10.0491  -17.2689 H   0  0  0  0  0  0  0  0  0  0  0  0
  -14.9312    8.5575  -18.1139 H   0  0  0  0  0  0  0  0  0  0  0  0
  -14.5592    6.5695  -15.2369 H   0  0  0  0  0  0  0  0  0  0  0  0
  -14.7751    6.6009  -16.9583 H   0  0  0  0  0  0  0  0  0  0  0  0
  -16.6199   13.7830  -18.3002 H   0  0  0  0  0  0  0  0  0  0  0  0
  -18.0291   15.2079  -17.2760 H   0  0  0  0  0  0  0  0  0  0  0  0
  -17.6013   12.2798  -20.1339 H   0  0  0  0  0  0  0  0  0  0  0  0
  -18.2038   11.6308  -17.2786 H   0  0  0  0  0  0  0  0  0  0  0  0
  -19.8763   13.1619  -20.3276 H   0  0  0  0  0  0  0  0  0  0  0  0
  -20.1755   12.9570  -18.6177 H   0  0  0  0  0  0  0  0  0  0  0  0
  -20.6777   10.7832  -17.6511 H   0  0  0  0  0  0  0  0  0  0  0  0
  -19.7613   11.1667  -21.8553 H   0  0  0  0  0  0  0  0  0  0  0  0
  -21.5952    8.5412  -18.0670 H   0  0  0  0  0  0  0  0  0  0  0  0
  -20.6769    8.9057  -22.2429 H   0  0  0  0  0  0  0  0  0  0  0  0
  -21.5741    7.5789  -20.3489 H   0  0  0  0  0  0  0  0  0  0  0  0
  -17.6580   15.9633  -19.4597 H   0  0  0  0  0  0  0  0  0  0  0  0
  -18.4817   14.8172  -20.4918 H   0  0  0  0  0  0  0  0  0  0  0  0
  -16.9009   16.5876  -21.7223 H   0  0  0  0  0  0  0  0  0  0  0  0
  -15.5011   16.2416  -23.7168 H   0  0  0  0  0  0  0  0  0  0  0  0
  -15.1072   14.6135  -23.2225 H   0  0  0  0  0  0  0  0  0  0  0  0
  -14.3551   17.2242  -21.8104 H   0  0  0  0  0  0  0  0  0  0  0  0
  -12.0953   16.7553  -22.4836 H   0  0  0  0  0  0  0  0  0  0  0  0
  -13.1058   16.6116  -23.9180 H   0  0  0  0  0  0  0  0  0  0  0  0
  -11.4398   14.7604  -23.7568 H   0  0  0  0  0  0  0  0  0  0  0  0
  -13.0816   14.1456  -23.7531 H   0  0  0  0  0  0  0  0  0  0  0  0
  -11.3167   14.5529  -21.2928 H   0  0  0  0  0  0  0  0  0  0  0  0
  -11.7557   13.0065  -22.0220 H   0  0  0  0  0  0  0  0  0  0  0  0
  -13.1532   13.5034  -20.0333 H   0  0  0  0  0  0  0  0  0  0  0  0
  -14.1210   13.3660  -21.4910 H   0  0  0  0  0  0  0  0  0  0  0  0
  -13.1499   15.9494  -20.1624 H   0  0  0  0  0  0  0  0  0  0  0  0
  -14.9977   14.6857  -19.0523 H   0  0  0  0  0  0  0  0  0  0  0  0
  -15.4278   16.3452  -19.5232 H   0  0  0  0  0  0  0  0  0  0  0  0
  -18.0954   16.7152  -23.6493 H   0  0  0  0  0  0  0  0  0  0  0  0
  -19.8380   14.0511  -26.1892 H   0  0  0  0  0  0  0  0  0  0  0  0
  -18.6304   13.4218  -25.0652 H   0  0  0  0  0  0  0  0  0  0  0  0
  -18.2103   14.7554  -26.1388 H   0  0  0  0  0  0  0  0  0  0  0  0
  -21.4818   14.5000  -24.2850 H   0  0  0  0  0  0  0  0  0  0  0  0
  -21.0010   15.5198  -22.9169 H   0  0  0  0  0  0  0  0  0  0  0  0
  -20.3443   13.8922  -23.0802 H   0  0  0  0  0  0  0  0  0  0  0  0
  -20.8019   16.4153  -25.8631 H   0  0  0  0  0  0  0  0  0  0  0  0
  -19.1552   17.0744  -25.7746 H   0  0  0  0  0  0  0  0  0  0  0  0
  -20.2915   17.3797  -24.4620 H   0  0  0  0  0  0  0  0  0  0  0  0
  -16.2074   13.8477  -20.9374 H   0  0  0  0  0  0  0  0  0  0  0  0
  1  2  2  0  0  0  0
  1  4  1  0  0  0  0
  1 13  1  0  0  0  0
  3  4  2  0  0  0  0
  3 12  1  0  0  0  0
  4  5  1  0  0  0  0
  5  6  2  0  0  0  0
  5 50  1  0  0  0  0
  6 11  1  0  0  0  0
  6 51  1  0  0  0  0
  7  8  2  0  0  0  0
  7 11  1  0  0  0  0
  7 52  1  0  0  0  0
  8  9  1  0  0  0  0
  8 53  1  0  0  0  0
  9 10  2  0  0  0  0
  9 54  1  0  0  0  0
 10 12  1  0  0  0  0
 10 55  1  0  0  0  0
 11 12  2  0  0  0  0
 13 14  1  0  0  0  0
 13 56  1  0  0  0  0
 14 15  1  0  0  0  0
 14 17  1  0  0  0  0
 14 57  1  1  0  0  0
 15 16  2  0  0  0  0
 15 24  1  0  0  0  0
 17 18  1  0  0  0  0
 17 58  1  0  0  0  0
 17 59  1  0  0  0  0
 18 19  2  0  0  0  0
 18 20  1  0  0  0  0
 20 60  1  0  0  0  0
 20 61  1  0  0  0  0
 21 22  1  0  0  0  0
 21 23  1  0  0  0  0
 21 33  1  0  0  0  0
 21 62  1  1  0  0  0
 22 63  1  0  0  0  0
 23 24  1  0  0  0  0
 23 25  1  0  0  0  0
 23 64  1  6  0  0  0
 24 65  1  0  0  0  0
 25 26  1  0  0  0  0
 25 66  1  0  0  0  0
 25 67  1  0  0  0  0
 26 27  2  0  0  0  0
 26 28  1  0  0  0  0
 27 29  1  0  0  0  0
 27 68  1  0  0  0  0
 28 30  2  0  0  0  0
 28 69  1  0  0  0  0
 29 31  2  0  0  0  0
 29 70  1  0  0  0  0
 30 31  1  0  0  0  0
 30 71  1  0  0  0  0
 31 72  1  0  0  0  0
 32 33  1  0  0  0  0
 32 34  1  0  0  0  0
 32 44  1  0  0  0  0
 32100  1  6  0  0  0
 33 73  1  0  0  0  0
 33 74  1  0  0  0  0
 34 35  1  0  0  0  0
 34 37  1  0  0  0  0
 34 75  1  1  0  0  0
 35 36  2  0  0  0  0
 35 45  1  0  0  0  0
 37 38  1  0  0  0  0
 37 76  1  0  0  0  0
 37 77  1  0  0  0  0
 38 39  1  0  0  0  0
 38 43  1  0  0  0  0
 38 78  1  1  0  0  0
 39 40  1  0  0  0  0
 39 79  1  0  0  0  0
 39 80  1  0  0  0  0
 40 41  1  0  0  0  0
 40 81  1  0  0  0  0
 40 82  1  0  0  0  0
 41 42  1  0  0  0  0
 41 83  1  0  0  0  0
 41 84  1  0  0  0  0
 42 43  1  0  0  0  0
 42 85  1  0  0  0  0
 42 86  1  0  0  0  0
 43 44  1  0  0  0  0
 43 87  1  1  0  0  0
 44 88  1  0  0  0  0
 44 89  1  0  0  0  0
 45 46  1  0  0  0  0
 45 90  1  0  0  0  0
 46 47  1  0  0  0  0
 46 48  1  0  0  0  0
 46 49  1  0  0  0  0
 47 91  1  0  0  0  0
 47 92  1  0  0  0  0
 47 93  1  0  0  0  0
 48 94  1  0  0  0  0
 48 95  1  0  0  0  0
 48 96  1  0  0  0  0
 49 97  1  0  0  0  0
 49 98  1  0  0  0  0
 49 99  1  0  0  0  0
M  CHG  1  32   1
M  END
$$$$
