RTL
 OpenBabel04161910303D

 51 51  0  0  0  0  0  0  0  0999 V2000
   15.7892   -4.4947  -14.1423 C   0  0  0  0  0  0  0  0  0  0  0  0
   15.1907   -5.4850  -15.1751 C   0  0  0  0  0  0  0  0  0  0  0  0
   14.9429   -4.8414  -16.5267 C   0  0  0  0  0  0  0  0  0  0  0  0
   14.0807   -3.5855  -16.4506 C   0  0  0  0  0  0  0  0  0  0  0  0
   14.2361   -2.7784  -15.1722 C   0  0  0  0  0  0  0  0  0  0  0  0
   15.0374   -3.1404  -14.1503 C   0  0  0  0  0  0  0  0  0  0  0  0
   15.2020   -2.2262  -13.0152 C   0  0  0  0  0  0  0  0  0  0  0  0
   16.2409   -2.0735  -12.1829 C   0  0  0  0  0  0  0  0  0  0  0  0
   16.3952   -1.0871  -11.1118 C   0  0  0  0  0  0  0  0  0  0  0  0
   17.5082   -1.1492  -10.3615 C   0  0  0  0  0  0  0  0  0  0  0  0
   17.8235   -0.3120   -9.2206 C   0  0  0  0  0  0  0  0  0  0  0  0
   18.9557   -0.4760   -8.5199 C   0  0  0  0  0  0  0  0  0  0  0  0
   19.2805    0.1612   -7.2539 C   0  0  0  0  0  0  0  0  0  0  0  0
   20.2702   -0.4002   -6.5299 C   0  0  0  0  0  0  0  0  0  0  0  0
   20.6211   -0.1281   -5.1111 C   0  0  0  0  0  0  0  0  0  0  0  0
   20.2867   -1.3326   -4.4341 O   0  0  0  0  0  0  0  0  0  0  0  0
   17.2684   -4.2943  -14.5262 C   0  0  0  0  0  0  0  0  0  0  0  0
   15.6819   -5.2270  -12.7855 C   0  0  0  0  0  0  0  0  0  0  0  0
   13.4304   -1.4971  -15.2249 C   0  0  0  0  0  0  0  0  0  0  0  0
   15.3446   -0.0233  -10.8927 C   0  0  0  0  0  0  0  0  0  0  0  0
   18.4639    1.3167   -6.7347 C   0  0  0  0  0  0  0  0  0  0  0  0
   14.2617   -5.9310  -14.7990 H   0  0  0  0  0  0  0  0  0  0  0  0
   15.8893   -6.3209  -15.3220 H   0  0  0  0  0  0  0  0  0  0  0  0
   14.4875   -5.5663  -17.1953 H   0  0  0  0  0  0  0  0  0  0  0  0
   15.9078   -4.5604  -16.9675 H   0  0  0  0  0  0  0  0  0  0  0  0
   13.0271   -3.8568  -16.5933 H   0  0  0  0  0  0  0  0  0  0  0  0
   14.3437   -2.9505  -17.3061 H   0  0  0  0  0  0  0  0  0  0  0  0
   14.3740   -1.5433  -12.8463 H   0  0  0  0  0  0  0  0  0  0  0  0
   17.0768   -2.7525  -12.2611 H   0  0  0  0  0  0  0  0  0  0  0  0
   18.2501   -1.9185  -10.5858 H   0  0  0  0  0  0  0  0  0  0  0  0
   17.0702    0.3889   -8.8977 H   0  0  0  0  0  0  0  0  0  0  0  0
   19.6658   -1.2272   -8.8682 H   0  0  0  0  0  0  0  0  0  0  0  0
   20.8202   -1.2422   -6.9486 H   0  0  0  0  0  0  0  0  0  0  0  0
   20.0652    0.7026   -4.6698 H   0  0  0  0  0  0  0  0  0  0  0  0
   21.6923    0.0590   -4.9994 H   0  0  0  0  0  0  0  0  0  0  0  0
   20.4784   -1.2200   -3.4949 H   0  0  0  0  0  0  0  0  0  0  0  0
   17.8013   -3.6212  -13.8588 H   0  0  0  0  0  0  0  0  0  0  0  0
   17.3637   -3.8678  -15.5294 H   0  0  0  0  0  0  0  0  0  0  0  0
   17.8096   -5.2467  -14.5123 H   0  0  0  0  0  0  0  0  0  0  0  0
   14.6293   -5.3868  -12.5107 H   0  0  0  0  0  0  0  0  0  0  0  0
   16.1552   -4.6865  -11.9668 H   0  0  0  0  0  0  0  0  0  0  0  0
   16.1655   -6.2099  -12.8292 H   0  0  0  0  0  0  0  0  0  0  0  0
   13.4992   -0.8845  -14.3307 H   0  0  0  0  0  0  0  0  0  0  0  0
   12.3690   -1.7238  -15.3476 H   0  0  0  0  0  0  0  0  0  0  0  0
   13.7717   -0.8596  -16.0466 H   0  0  0  0  0  0  0  0  0  0  0  0
   14.4942   -0.0837  -11.5667 H   0  0  0  0  0  0  0  0  0  0  0  0
   15.7899    0.9721  -11.0423 H   0  0  0  0  0  0  0  0  0  0  0  0
   14.9372   -0.0778   -9.8739 H   0  0  0  0  0  0  0  0  0  0  0  0
   17.7366    1.6871   -7.4596 H   0  0  0  0  0  0  0  0  0  0  0  0
   19.1135    2.1688   -6.5057 H   0  0  0  0  0  0  0  0  0  0  0  0
   17.9095    1.0421   -5.8305 H   0  0  0  0  0  0  0  0  0  0  0  0
  1  2  1  0  0  0  0
  1  6  1  0  0  0  0
  1 17  1  0  0  0  0
  1 18  1  0  0  0  0
  2  3  1  0  0  0  0
  2 22  1  0  0  0  0
  2 23  1  0  0  0  0
  3  4  1  0  0  0  0
  3 24  1  0  0  0  0
  3 25  1  0  0  0  0
  4  5  1  0  0  0  0
  4 26  1  0  0  0  0
  4 27  1  0  0  0  0
  5  6  2  0  0  0  0
  5 19  1  0  0  0  0
  6  7  1  0  0  0  0
  7  8  2  0  0  0  0
  7 28  1  0  0  0  0
  8  9  1  0  0  0  0
  8 29  1  0  0  0  0
  9 10  2  0  0  0  0
  9 20  1  0  0  0  0
 10 11  1  0  0  0  0
 10 30  1  0  0  0  0
 11 12  2  0  0  0  0
 11 31  1  0  0  0  0
 12 13  1  0  0  0  0
 12 32  1  0  0  0  0
 13 14  2  0  0  0  0
 13 21  1  0  0  0  0
 14 15  1  0  0  0  0
 14 33  1  0  0  0  0
 15 16  1  0  0  0  0
 15 34  1  0  0  0  0
 15 35  1  0  0  0  0
 16 36  1  0  0  0  0
 17 37  1  0  0  0  0
 17 38  1  0  0  0  0
 17 39  1  0  0  0  0
 18 40  1  0  0  0  0
 18 41  1  0  0  0  0
 18 42  1  0  0  0  0
 19 43  1  0  0  0  0
 19 44  1  0  0  0  0
 19 45  1  0  0  0  0
 20 46  1  0  0  0  0
 20 47  1  0  0  0  0
 20 48  1  0  0  0  0
 21 49  1  0  0  0  0
 21 50  1  0  0  0  0
 21 51  1  0  0  0  0
M  END
$$$$
