S2L
 OpenBabel04161911593D

 29 30  0  0  0  0  0  0  0  0999 V2000
   44.5826   79.7059   42.5287 C   0  0  0  0  0  0  0  0  0  0  0  0
   43.6898   78.9337   41.7964 C   0  0  0  0  0  0  0  0  0  0  0  0
   43.7319   77.5379   41.8363 C   0  0  0  0  0  0  0  0  0  0  0  0
   44.6826   76.8753   42.6276 C   0  0  0  0  0  0  0  0  0  0  0  0
   45.5827   77.6617   43.3652 C   0  0  0  0  0  0  0  0  0  0  0  0
   45.5272   79.0555   43.3113 C   0  0  0  0  0  0  0  0  0  0  0  0
   46.4381   79.7528   44.0513 O   0  0  0  0  0  0  0  0  0  0  0  0
   44.8223   75.4028   42.6990 C   0  0  0  0  0  0  0  0  0  0  0  0
   43.9928   74.4959   42.1551 C   0  0  0  0  0  0  0  0  0  0  0  0
   44.2136   73.0345   42.1849 C   0  0  0  0  0  0  0  0  0  0  0  0
   44.1866   72.3821   40.9379 C   0  0  0  0  0  0  0  0  0  0  0  0
   44.3382   70.9952   40.8381 C   0  0  0  0  0  0  0  0  0  0  0  0
   44.5149   70.2453   41.9925 C   0  0  0  0  0  0  0  0  0  0  0  0
   44.5420   70.8585   43.2392 C   0  0  0  0  0  0  0  0  0  0  0  0
   44.3879   72.2486   43.3399 C   0  0  0  0  0  0  0  0  0  0  0  0
   44.3794   72.9250   44.9326 Cl  0  0  0  0  0  0  0  0  0  0  0  0
   44.6576   68.8901   41.9415 O   0  0  0  0  0  0  0  0  0  0  0  0
   42.7415   79.5200   41.0029 O   0  0  0  0  0  0  0  0  0  0  0  0
   44.5459   80.7887   42.4881 H   0  0  0  0  0  0  0  0  0  0  0  0
   43.0153   76.9886   41.2340 H   0  0  0  0  0  0  0  0  0  0  0  0
   46.3417   77.1974   43.9904 H   0  0  0  0  0  0  0  0  0  0  0  0
   46.2838   80.7039   43.9311 H   0  0  0  0  0  0  0  0  0  0  0  0
   45.7015   75.0545   43.2394 H   0  0  0  0  0  0  0  0  0  0  0  0
   43.1144   74.8003   41.5941 H   0  0  0  0  0  0  0  0  0  0  0  0
   44.0476   72.9577   40.0243 H   0  0  0  0  0  0  0  0  0  0  0  0
   44.3109   70.5266   39.8589 H   0  0  0  0  0  0  0  0  0  0  0  0
   44.6709   70.2495   44.1298 H   0  0  0  0  0  0  0  0  0  0  0  0
   44.6080   68.6010   41.0168 H   0  0  0  0  0  0  0  0  0  0  0  0
   42.8182   80.4846   41.0774 H   0  0  0  0  0  0  0  0  0  0  0  0
  1  2  2  0  0  0  0
  1  6  1  0  0  0  0
  1 19  1  0  0  0  0
  2  3  1  0  0  0  0
  2 18  1  0  0  0  0
  3  4  2  0  0  0  0
  3 20  1  0  0  0  0
  4  5  1  0  0  0  0
  4  8  1  0  0  0  0
  5  6  2  0  0  0  0
  5 21  1  0  0  0  0
  6  7  1  0  0  0  0
  7 22  1  0  0  0  0
  8  9  2  0  0  0  0
  8 23  1  0  0  0  0
  9 10  1  0  0  0  0
  9 24  1  0  0  0  0
 10 11  2  0  0  0  0
 10 15  1  0  0  0  0
 11 12  1  0  0  0  0
 11 25  1  0  0  0  0
 12 13  2  0  0  0  0
 12 26  1  0  0  0  0
 13 14  1  0  0  0  0
 13 17  1  0  0  0  0
 14 15  2  0  0  0  0
 14 27  1  0  0  0  0
 15 16  1  0  0  0  0
 17 28  1  0  0  0  0
 18 29  1  0  0  0  0
M  END
$$$$
