SAH
 OpenBabel04161912173D

 46 48  0  0  1  0  0  0  0  0999 V2000
    5.8910    9.3717  -49.6459 N   0  3  0  0  0  0  0  0  0  0  0  0
    5.3250    8.9823  -48.2918 C   0  0  1  0  0  0  0  0  0  0  0  0
    3.8920    8.4621  -48.4581 C   0  0  0  0  0  0  0  0  0  0  0  0
    3.7926    7.1034  -49.1607 C   0  0  0  0  0  0  0  0  0  0  0  0
    2.0900    6.4328  -49.2059 S   0  0  0  0  0  0  0  0  0  0  0  0
    6.2585    7.9443  -47.6095 C   0  0  0  0  0  0  0  0  0  0  0  0
    7.0801    7.4752  -48.4592 O   0  0  0  0  0  0  0  0  0  0  0  0
    6.1145    7.7809  -46.3820 O   0  0  0  0  0  0  0  0  0  0  0  0
    1.4080    7.1924  -50.7190 C   0  0  0  0  0  0  0  0  0  0  0  0
    0.6944    8.5196  -50.4628 C   0  0  1  0  0  0  0  0  0  0  0  0
    0.2510    9.0631  -51.7291 O   0  0  0  0  0  0  0  0  0  0  0  0
   -0.5463    8.4341  -49.5493 C   0  0  1  0  0  0  0  0  0  0  0  0
   -0.3988    9.2615  -48.3873 O   0  0  0  0  0  0  0  0  0  0  0  0
   -1.6980    8.9407  -50.4179 C   0  0  1  0  0  0  0  0  0  0  0  0
   -2.6728    9.6882  -49.7011 O   0  0  0  0  0  0  0  0  0  0  0  0
   -0.9654    9.7804  -51.4536 C   0  0  2  0  0  0  0  0  0  0  0  0
   -1.6811   10.0386  -52.6822 N   0  3  0  0  0  0  0  0  0  0  0  0
   -2.4228    9.1722  -53.4333 C   0  0  0  0  0  0  0  0  0  0  0  0
   -2.9649    9.7741  -54.4844 N   0  0  0  0  0  0  0  0  0  0  0  0
   -2.5335   11.0834  -54.4022 C   0  0  0  0  0  0  0  0  0  0  0  0
   -2.7458   12.2110  -55.2157 C   0  0  0  0  0  0  0  0  0  0  0  0
   -3.4878   12.1759  -56.3777 N   0  0  0  0  0  0  0  0  0  0  0  0
   -2.1737   13.3819  -54.8526 N   0  0  0  0  0  0  0  0  0  0  0  0
   -1.4169   13.4096  -53.7318 C   0  0  0  0  0  0  0  0  0  0  0  0
   -1.1387   12.4074  -52.8827 N   0  0  0  0  0  0  0  0  0  0  0  0
   -1.7311   11.2653  -53.2879 C   0  0  0  0  0  0  0  0  0  0  0  0
    6.8679    9.6486  -49.4616 H   0  0  0  0  0  0  0  0  0  0  0  0
    6.0399    8.4942  -50.1669 H   0  0  0  0  0  0  0  0  0  0  0  0
    5.3295    9.9077  -47.7054 H   0  0  0  0  0  0  0  0  0  0  0  0
    3.3151    9.2145  -49.0052 H   0  0  0  0  0  0  0  0  0  0  0  0
    3.4418    8.3839  -47.4598 H   0  0  0  0  0  0  0  0  0  0  0  0
    4.3785    6.3618  -48.6090 H   0  0  0  0  0  0  0  0  0  0  0  0
    4.1956    7.1427  -50.1768 H   0  0  0  0  0  0  0  0  0  0  0  0
    0.6889    6.4847  -51.1491 H   0  0  0  0  0  0  0  0  0  0  0  0
    2.1903    7.3076  -51.4781 H   0  0  0  0  0  0  0  0  0  0  0  0
    1.4107    9.2444  -50.0622 H   0  0  0  0  0  0  0  0  0  0  0  0
   -0.7501    7.4169  -49.2005 H   0  0  0  0  0  0  0  0  0  0  0  0
   -0.0262   10.1247  -48.6259 H   0  0  0  0  0  0  0  0  0  0  0  0
   -2.1936    8.0816  -50.8821 H   0  0  0  0  0  0  0  0  0  0  0  0
   -2.2121   10.2234  -49.0286 H   0  0  0  0  0  0  0  0  0  0  0  0
   -0.6941   10.7500  -51.0154 H   0  0  0  0  0  0  0  0  0  0  0  0
   -2.5595    8.1294  -53.1797 H   0  0  0  0  0  0  0  0  0  0  0  0
   -3.7074   13.0612  -56.8073 H   0  0  0  0  0  0  0  0  0  0  0  0
   -4.0490   11.3539  -56.5532 H   0  0  0  0  0  0  0  0  0  0  0  0
   -0.9770   14.3722  -53.4891 H   0  0  0  0  0  0  0  0  0  0  0  0
    5.3922   10.0891  -50.1674 H   0  0  0  0  0  0  0  0  0  0  0  0
  1  2  1  0  0  0  0
  1 27  1  0  0  0  0
  1 28  1  0  0  0  0
  1 46  1  0  0  0  0
  2  3  1  0  0  0  0
  2  6  1  0  0  0  0
  2 29  1  1  0  0  0
  3  4  1  0  0  0  0
  3 30  1  0  0  0  0
  3 31  1  0  0  0  0
  4  5  1  0  0  0  0
  4 32  1  0  0  0  0
  4 33  1  0  0  0  0
  5  9  1  0  0  0  0
  6  7  2  0  0  0  0
  6  8  1  0  0  0  0
  9 10  1  0  0  0  0
  9 34  1  0  0  0  0
  9 35  1  0  0  0  0
 10 11  1  0  0  0  0
 10 12  1  0  0  0  0
 10 36  1  1  0  0  0
 11 16  1  0  0  0  0
 12 13  1  0  0  0  0
 12 14  1  0  0  0  0
 12 37  1  1  0  0  0
 13 38  1  0  0  0  0
 14 15  1  0  0  0  0
 14 16  1  0  0  0  0
 14 39  1  6  0  0  0
 15 40  1  0  0  0  0
 16 17  1  0  0  0  0
 16 41  1  1  0  0  0
 17 18  2  0  0  0  0
 17 26  1  0  0  0  0
 18 19  1  0  0  0  0
 18 42  1  0  0  0  0
 19 20  1  0  0  0  0
 20 21  2  0  0  0  0
 20 26  1  0  0  0  0
 21 22  1  0  0  0  0
 21 23  1  0  0  0  0
 22 43  1  0  0  0  0
 22 44  1  0  0  0  0
 23 24  2  0  0  0  0
 24 25  1  0  0  0  0
 24 45  1  0  0  0  0
 25 26  2  0  0  0  0
M  CHG  2   1   1  17   1
M  END
$$$$
