SBK
 OpenBabel04161910593D

 17 17  0  0  0  0  0  0  0  0999 V2000
  -22.1520   -0.0756  -23.6462 C   0  0  0  0  0  0  0  0  0  0  0  0
  -21.9918    0.8731  -24.6542 C   0  0  0  0  0  0  0  0  0  0  0  0
  -21.0281    0.6436  -25.6380 C   0  0  0  0  0  0  0  0  0  0  0  0
  -20.1914   -0.4249  -25.6325 N   0  0  0  0  0  0  0  0  0  0  0  0
  -20.4265   -1.3607  -24.6897 C   0  0  0  0  0  0  0  0  0  0  0  0
  -21.3700   -1.2273  -23.6725 C   0  0  0  0  0  0  0  0  0  0  0  0
  -21.5706   -2.3895  -22.4129 Cl  0  0  0  0  0  0  0  0  0  0  0  0
  -19.3899   -2.7286  -24.8286 Cl  0  0  0  0  0  0  0  0  0  0  0  0
  -20.8849    1.5896  -26.6310 O   0  0  0  0  0  0  0  0  0  0  0  0
  -20.3754    1.0505  -27.8697 C   0  0  0  0  0  0  0  0  0  0  0  0
  -21.3457    0.0775  -28.5798 C   0  0  0  0  0  0  0  0  0  0  0  0
  -22.1634   -0.5752  -27.8730 O   0  0  0  0  0  0  0  0  0  0  0  0
  -21.2142    0.0547  -29.8490 O   0  0  0  0  0  0  0  0  0  0  0  0
  -22.9635    2.2990  -24.6167 Cl  0  0  0  0  0  0  0  0  0  0  0  0
  -22.8815    0.0822  -22.8586 H   0  0  0  0  0  0  0  0  0  0  0  0
  -19.3811    0.6064  -27.7298 H   0  0  0  0  0  0  0  0  0  0  0  0
  -20.2302    1.9196  -28.5279 H   0  0  0  0  0  0  0  0  0  0  0  0
  1  2  2  0  0  0  0
  1  6  1  0  0  0  0
  1 15  1  0  0  0  0
  2  3  1  0  0  0  0
  2 14  1  0  0  0  0
  3  4  2  0  0  0  0
  3  9  1  0  0  0  0
  4  5  1  0  0  0  0
  5  6  2  0  0  0  0
  5  8  1  0  0  0  0
  6  7  1  0  0  0  0
  9 10  1  0  0  0  0
 10 11  1  0  0  0  0
 10 16  1  0  0  0  0
 10 17  1  0  0  0  0
 11 12  2  0  0  0  0
 11 13  1  0  0  0  0
M  END
$$$$
