SER
 OpenBabel04161909373D

 14 13  0  0  1  0  0  0  0  0999 V2000
  -19.5284  -28.1346    6.0846 N   0  3  0  0  0  0  0  0  0  0  0  0
  -19.9467  -26.6811    6.2708 C   0  0  2  0  0  0  0  0  0  0  0  0
  -21.4809  -26.5320    6.4040 C   0  0  0  0  0  0  0  0  0  0  0  0
  -22.0612  -27.5826    5.9737 O   0  0  0  0  0  0  0  0  0  0  0  0
  -19.4565  -25.8644    5.0864 C   0  0  0  0  0  0  0  0  0  0  0  0
  -20.1014  -26.1437    3.8454 O   0  0  0  0  0  0  0  0  0  0  0  0
  -21.8856  -25.5244    7.0169 O   0  0  0  0  0  0  0  0  0  0  0  0
  -18.5238  -28.2788    5.9805 H   0  0  0  0  0  0  0  0  0  0  0  0
  -19.9113  -28.6542    6.8844 H   0  0  0  0  0  0  0  0  0  0  0  0
  -19.4544  -26.3590    7.2011 H   0  0  0  0  0  0  0  0  0  0  0  0
  -18.3880  -26.0502    4.9193 H   0  0  0  0  0  0  0  0  0  0  0  0
  -19.5665  -24.7919    5.2845 H   0  0  0  0  0  0  0  0  0  0  0  0
  -20.1377  -27.0941    3.6643 H   0  0  0  0  0  0  0  0  0  0  0  0
  -20.0920  -28.4923    5.3016 H   0  0  0  0  0  0  0  0  0  0  0  0
  1  2  1  0  0  0  0
  1  8  1  0  0  0  0
  1  9  1  0  0  0  0
  1 14  1  0  0  0  0
  2  3  1  0  0  0  0
  2  5  1  0  0  0  0
  2 10  1  1  0  0  0
  3  4  2  0  0  0  0
  3  7  1  0  0  0  0
  5  6  1  0  0  0  0
  5 11  1  0  0  0  0
  5 12  1  0  0  0  0
  6 13  1  0  0  0  0
M  CHG  1   1   1
M  END
$$$$
