SGV
 OpenBabel04161909373D

 37 39  0  0  1  0  0  0  0  0999 V2000
   18.2591  -10.7007  -12.7778 N   0  0  0  0  0  0  0  0  0  0  0  0
   17.1381  -10.0271  -13.0907 C   0  0  0  0  0  0  0  0  0  0  0  0
   16.0367   -9.8417  -12.3416 N   0  0  0  0  0  0  0  0  0  0  0  0
   16.1510  -10.4289  -11.1341 C   0  0  0  0  0  0  0  0  0  0  0  0
   17.2535  -11.1431  -10.6797 C   0  0  0  0  0  0  0  0  0  0  0  0
   18.3377  -11.2716  -11.5635 C   0  0  0  0  0  0  0  0  0  0  0  0
   19.4912  -11.9470  -11.2516 N   0  0  0  0  0  0  0  0  0  0  0  0
   16.9672  -11.5606   -9.3417 C   0  0  0  0  0  0  0  0  0  0  0  0
   15.6889  -11.1035   -9.0532 C   0  0  0  0  0  0  0  0  0  0  0  0
   15.2023  -10.4246  -10.1445 N   0  3  0  0  0  0  0  0  0  0  0  0
   13.8944   -9.7772  -10.2348 C   0  0  1  0  0  0  0  0  0  0  0  0
   17.8389  -12.3122   -8.4512 C   0  0  0  0  0  0  0  0  0  0  0  0
   17.4193  -12.3928   -7.1579 N   0  0  0  0  0  0  0  0  0  0  0  0
   18.8923  -12.8383   -8.7949 O   0  0  0  0  0  0  0  0  0  0  0  0
   12.7064  -10.7395  -10.1283 C   0  0  2  0  0  0  0  0  0  0  0  0
   12.3811  -11.3513  -11.3712 O   0  0  0  0  0  0  0  0  0  0  0  0
   11.6022   -9.8080   -9.6425 C   0  0  2  0  0  0  0  0  0  0  0  0
   10.9710   -9.1366  -10.7435 O   0  0  0  0  0  0  0  0  0  0  0  0
   12.3435   -8.7653   -8.8018 C   0  0  2  0  0  0  0  0  0  0  0  0
   13.7542   -8.8645   -9.1224 O   0  0  0  0  0  0  0  0  0  0  0  0
   12.1844   -8.9799   -7.3009 C   0  0  0  0  0  0  0  0  0  0  0  0
   12.5862  -10.2977   -6.9308 O   0  0  0  0  0  0  0  0  0  0  0  0
   17.1224   -9.5807  -14.0822 H   0  0  0  0  0  0  0  0  0  0  0  0
   19.5664  -12.4299  -10.3579 H   0  0  0  0  0  0  0  0  0  0  0  0
   20.2028  -12.0369  -11.9528 H   0  0  0  0  0  0  0  0  0  0  0  0
   15.0999  -11.2174   -8.1586 H   0  0  0  0  0  0  0  0  0  0  0  0
   13.8490   -9.2047  -11.1693 H   0  0  0  0  0  0  0  0  0  0  0  0
   18.0150  -12.8711   -6.4981 H   0  0  0  0  0  0  0  0  0  0  0  0
   16.5890  -11.9319   -6.8263 H   0  0  0  0  0  0  0  0  0  0  0  0
   12.8930  -11.5136   -9.3806 H   0  0  0  0  0  0  0  0  0  0  0  0
   11.6606  -11.9949  -11.2117 H   0  0  0  0  0  0  0  0  0  0  0  0
   10.8105  -10.3259   -9.0959 H   0  0  0  0  0  0  0  0  0  0  0  0
   10.6339   -9.8196  -11.3521 H   0  0  0  0  0  0  0  0  0  0  0  0
   12.0152   -7.7479   -9.0474 H   0  0  0  0  0  0  0  0  0  0  0  0
   11.1414   -8.8478   -7.0040 H   0  0  0  0  0  0  0  0  0  0  0  0
   12.8029   -8.2660   -6.7456 H   0  0  0  0  0  0  0  0  0  0  0  0
   13.5364  -10.3461   -7.1302 H   0  0  0  0  0  0  0  0  0  0  0  0
  1  2  1  0  0  0  0
  1  6  1  0  0  0  0
  2  3  2  0  0  0  0
  2 23  1  0  0  0  0
  3  4  1  0  0  0  0
  4  5  1  0  0  0  0
  4 10  2  0  0  0  0
  5  6  2  0  0  0  0
  5  8  1  0  0  0  0
  6  7  1  0  0  0  0
  7 24  1  0  0  0  0
  7 25  1  0  0  0  0
  8  9  2  0  0  0  0
  8 12  1  0  0  0  0
  9 10  1  0  0  0  0
  9 26  1  0  0  0  0
 10 11  1  0  0  0  0
 11 15  1  0  0  0  0
 11 20  1  0  0  0  0
 11 27  1  6  0  0  0
 12 13  1  0  0  0  0
 12 14  2  0  0  0  0
 13 28  1  0  0  0  0
 13 29  1  0  0  0  0
 15 16  1  0  0  0  0
 15 17  1  0  0  0  0
 15 30  1  1  0  0  0
 16 31  1  0  0  0  0
 17 18  1  0  0  0  0
 17 19  1  0  0  0  0
 17 32  1  1  0  0  0
 18 33  1  0  0  0  0
 19 20  1  0  0  0  0
 19 21  1  0  0  0  0
 19 34  1  6  0  0  0
 21 22  1  0  0  0  0
 21 35  1  0  0  0  0
 21 36  1  0  0  0  0
 22 37  1  0  0  0  0
M  CHG  1  10   1
M  END
$$$$
