SIN
 OpenBabel04161911223D

 12 11  0  0  0  0  0  0  0  0999 V2000
   48.6449  -66.9814   41.8099 C   0  0  0  0  0  0  0  0  0  0  0  0
   48.9363  -65.8196   42.2267 O   0  0  0  0  0  0  0  0  0  0  0  0
   48.9247  -68.0923   42.3486 O   0  0  0  0  0  0  0  0  0  0  0  0
   47.7408  -67.0238   40.5703 C   0  0  0  0  0  0  0  0  0  0  0  0
   47.9203  -68.2064   39.6110 C   0  0  0  0  0  0  0  0  0  0  0  0
   48.1196  -67.9083   38.1197 C   0  0  0  0  0  0  0  0  0  0  0  0
   47.7540  -68.8479   37.3444 O   0  0  0  0  0  0  0  0  0  0  0  0
   48.6152  -66.7951   37.7989 O   0  0  0  0  0  0  0  0  0  0  0  0
   47.8288  -66.0708   40.0375 H   0  0  0  0  0  0  0  0  0  0  0  0
   46.7149  -67.0540   40.9610 H   0  0  0  0  0  0  0  0  0  0  0  0
   47.0293  -68.8457   39.6962 H   0  0  0  0  0  0  0  0  0  0  0  0
   48.7714  -68.8285   39.9145 H   0  0  0  0  0  0  0  0  0  0  0  0
  1  2  2  0  0  0  0
  1  3  1  0  0  0  0
  1  4  1  0  0  0  0
  4  5  1  0  0  0  0
  4  9  1  0  0  0  0
  4 10  1  0  0  0  0
  5  6  1  0  0  0  0
  5 11  1  0  0  0  0
  5 12  1  0  0  0  0
  6  7  2  0  0  0  0
  6  8  1  0  0  0  0
M  END
$$$$
