SLT
 OpenBabel04161909393D

 81 83  0  0  1  0  0  0  0  0999 V2000
    6.7906  -43.1514  -30.7279 O   0  0  0  0  0  0  0  0  0  0  0  0
    7.5808  -42.3140  -30.2830 C   0  0  0  0  0  0  0  0  0  0  0  0
    7.6552  -40.9386  -30.8900 C   0  0  0  0  0  0  0  0  0  0  0  0
    8.4578  -42.5367  -29.2558 N   0  0  0  0  0  0  0  0  0  0  0  0
    8.5535  -43.8428  -28.5640 C   0  0  1  0  0  0  0  0  0  0  0  0
    9.9992  -44.3762  -28.5426 C   0  0  1  0  0  0  0  0  0  0  0  0
   10.1171  -45.6762  -27.9437 O   0  0  0  0  0  0  0  0  0  0  0  0
   10.5508  -44.4798  -29.9851 C   0  0  2  0  0  0  0  0  0  0  0  0
    9.7824  -45.4144  -30.7449 O   0  0  0  0  0  0  0  0  0  0  0  0
   12.0336  -44.8732  -30.0197 C   0  0  2  0  0  0  0  0  0  0  0  0
   12.8058  -43.7745  -29.5232 O   0  0  0  0  0  0  0  0  0  0  0  0
   12.4794  -45.2511  -31.4477 C   0  0  0  0  0  0  0  0  0  0  0  0
   12.5266  -44.1162  -32.3124 O   0  0  0  0  0  0  0  0  0  0  0  0
    8.0585  -43.7060  -27.1163 C   0  0  1  0  0  0  0  0  0  0  0  0
    6.6277  -43.6413  -27.0996 O   0  0  0  0  0  0  0  0  0  0  0  0
    8.5847  -44.8022  -26.1962 C   0  0  0  0  0  0  0  0  0  0  0  0
    9.1689  -46.0239  -26.9199 C   0  0  2  0  0  0  0  0  0  0  0  0
    9.8720  -46.8569  -25.7143 C   0  0  0  0  0  0  0  0  0  0  0  0
   11.0322  -47.3090  -25.9424 O   0  0  0  0  0  0  0  0  0  0  0  0
    9.1371  -47.0597  -24.6984 O   0  0  0  0  0  0  0  0  0  0  0  0
    8.0943  -46.7862  -27.5374 O   0  0  0  0  0  0  0  0  0  0  0  0
    8.4161  -48.1881  -27.7057 C   0  0  1  0  0  0  0  0  0  0  0  0
    7.4876  -49.0207  -26.8290 C   0  0  2  0  0  0  0  0  0  0  0  0
    7.7731  -50.5110  -27.0512 C   0  0  2  0  0  0  0  0  0  0  0  0
    7.6488  -50.8587  -28.4488 O   0  0  0  0  0  0  0  0  0  0  0  0
    6.7654  -51.3482  -26.2532 C   0  0  0  0  0  0  0  0  0  0  0  0
    7.3641  -52.5738  -25.8250 O   0  0  0  0  0  0  0  0  0  0  0  0
    6.1199  -48.7111  -27.1553 O   0  0  0  0  0  0  0  0  0  0  0  0
    8.2414  -48.5948  -29.1666 C   0  0  1  0  0  0  0  0  0  0  0  0
    9.1503  -47.8004  -29.9395 O   0  0  0  0  0  0  0  0  0  0  0  0
    8.5196  -50.1004  -29.2931 C   0  0  2  0  0  0  0  0  0  0  0  0
    8.2644  -50.4905  -30.6498 O   0  0  0  0  0  0  0  0  0  0  0  0
    8.8329  -51.7639  -30.9605 C   0  0  2  0  0  0  0  0  0  0  0  0
    9.6122  -51.6637  -32.2831 C   0  0  2  0  0  0  0  0  0  0  0  0
   10.1889  -52.9398  -32.6179 O   0  0  0  0  0  0  0  0  0  0  0  0
   10.7510  -50.6376  -32.1907 C   0  0  0  0  0  0  0  0  0  0  0  0
   11.7195  -51.0394  -31.2211 O   0  0  0  0  0  0  0  0  0  0  0  0
    7.7034  -52.7917  -31.1289 C   0  0  2  0  0  0  0  0  0  0  0  0
    6.9560  -52.9802  -29.9212 O   0  0  0  0  0  0  0  0  0  0  0  0
    8.2996  -54.1401  -31.5541 C   0  0  1  0  0  0  0  0  0  0  0  0
    7.2766  -55.0972  -31.8954 O   0  0  0  0  0  0  0  0  0  0  0  0
    9.2088  -53.9580  -32.7785 C   0  0  1  0  0  0  0  0  0  0  0  0
    8.4032  -53.7107  -33.9293 O   0  0  0  0  0  0  0  0  0  0  0  0
    8.4097  -40.3134  -30.4056 H   0  0  0  0  0  0  0  0  0  0  0  0
    6.6807  -40.4546  -30.7919 H   0  0  0  0  0  0  0  0  0  0  0  0
    7.9108  -41.0335  -31.9478 H   0  0  0  0  0  0  0  0  0  0  0  0
    9.0415  -41.7790  -28.9239 H   0  0  0  0  0  0  0  0  0  0  0  0
    7.9020  -44.5575  -29.0826 H   0  0  0  0  0  0  0  0  0  0  0  0
   10.6246  -43.6929  -27.9745 H   0  0  0  0  0  0  0  0  0  0  0  0
   10.4409  -43.5059  -30.4745 H   0  0  0  0  0  0  0  0  0  0  0  0
   10.1483  -46.3050  -30.5521 H   0  0  0  0  0  0  0  0  0  0  0  0
   12.2076  -45.7391  -29.3717 H   0  0  0  0  0  0  0  0  0  0  0  0
   13.7432  -44.0232  -29.6400 H   0  0  0  0  0  0  0  0  0  0  0  0
   11.8230  -46.0027  -31.9014 H   0  0  0  0  0  0  0  0  0  0  0  0
   13.4845  -45.6777  -31.4192 H   0  0  0  0  0  0  0  0  0  0  0  0
   11.6329  -43.7291  -32.3140 H   0  0  0  0  0  0  0  0  0  0  0  0
    8.3902  -42.7425  -26.7076 H   0  0  0  0  0  0  0  0  0  0  0  0
    6.3364  -43.7301  -26.1719 H   0  0  0  0  0  0  0  0  0  0  0  0
    7.7952  -45.1084  -25.5000 H   0  0  0  0  0  0  0  0  0  0  0  0
    9.3908  -44.3532  -25.5981 H   0  0  0  0  0  0  0  0  0  0  0  0
    9.4611  -48.3943  -27.4576 H   0  0  0  0  0  0  0  0  0  0  0  0
    7.6137  -48.7678  -25.7739 H   0  0  0  0  0  0  0  0  0  0  0  0
    8.7965  -50.7564  -26.7391 H   0  0  0  0  0  0  0  0  0  0  0  0
    5.8923  -51.6032  -26.8629 H   0  0  0  0  0  0  0  0  0  0  0  0
    6.4366  -50.8207  -25.3520 H   0  0  0  0  0  0  0  0  0  0  0  0
    6.7013  -53.0144  -25.2675 H   0  0  0  0  0  0  0  0  0  0  0  0
    6.0755  -47.7339  -27.1099 H   0  0  0  0  0  0  0  0  0  0  0  0
    7.2418  -48.3549  -29.5405 H   0  0  0  0  0  0  0  0  0  0  0  0
    8.8748  -46.9014  -29.6486 H   0  0  0  0  0  0  0  0  0  0  0  0
    9.5694  -50.3090  -29.0467 H   0  0  0  0  0  0  0  0  0  0  0  0
    9.5046  -52.1110  -30.1636 H   0  0  0  0  0  0  0  0  0  0  0  0
    8.9497  -51.3368  -33.0959 H   0  0  0  0  0  0  0  0  0  0  0  0
   10.3791  -49.6448  -31.9210 H   0  0  0  0  0  0  0  0  0  0  0  0
   11.2725  -50.5562  -33.1501 H   0  0  0  0  0  0  0  0  0  0  0  0
   11.9977  -51.9355  -31.4835 H   0  0  0  0  0  0  0  0  0  0  0  0
    6.9728  -52.4335  -31.8634 H   0  0  0  0  0  0  0  0  0  0  0  0
    6.9073  -52.1037  -29.4757 H   0  0  0  0  0  0  0  0  0  0  0  0
    8.8752  -54.5544  -30.7168 H   0  0  0  0  0  0  0  0  0  0  0  0
    6.5030  -54.5823  -32.1887 H   0  0  0  0  0  0  0  0  0  0  0  0
    9.7406  -54.8966  -32.9683 H   0  0  0  0  0  0  0  0  0  0  0  0
    7.8649  -54.5192  -34.0212 H   0  0  0  0  0  0  0  0  0  0  0  0
  1  2  2  0  0  0  0
  2  3  1  0  0  0  0
  2  4  1  0  0  0  0
  3 44  1  0  0  0  0
  3 45  1  0  0  0  0
  3 46  1  0  0  0  0
  4  5  1  0  0  0  0
  4 47  1  0  0  0  0
  5  6  1  0  0  0  0
  5 14  1  0  0  0  0
  5 48  1  6  0  0  0
  6  7  1  0  0  0  0
  6  8  1  0  0  0  0
  6 49  1  1  0  0  0
  7 17  1  0  0  0  0
  8  9  1  0  0  0  0
  8 10  1  0  0  0  0
  8 50  1  6  0  0  0
  9 51  1  0  0  0  0
 10 11  1  0  0  0  0
 10 12  1  0  0  0  0
 10 52  1  1  0  0  0
 11 53  1  0  0  0  0
 12 13  1  0  0  0  0
 12 54  1  0  0  0  0
 12 55  1  0  0  0  0
 13 56  1  0  0  0  0
 14 15  1  0  0  0  0
 14 16  1  0  0  0  0
 14 57  1  1  0  0  0
 15 58  1  0  0  0  0
 16 17  1  0  0  0  0
 16 59  1  0  0  0  0
 16 60  1  0  0  0  0
 17 18  1  1  0  0  0
 17 21  1  0  0  0  0
 18 19  2  0  0  0  0
 18 20  1  0  0  0  0
 21 22  1  0  0  0  0
 22 23  1  0  0  0  0
 22 29  1  0  0  0  0
 22 61  1  1  0  0  0
 23 24  1  0  0  0  0
 23 28  1  0  0  0  0
 23 62  1  1  0  0  0
 24 25  1  0  0  0  0
 24 26  1  0  0  0  0
 24 63  1  1  0  0  0
 25 31  1  0  0  0  0
 26 27  1  0  0  0  0
 26 64  1  0  0  0  0
 26 65  1  0  0  0  0
 27 66  1  0  0  0  0
 28 67  1  0  0  0  0
 29 30  1  0  0  0  0
 29 31  1  0  0  0  0
 29 68  1  6  0  0  0
 30 69  1  0  0  0  0
 31 32  1  0  0  0  0
 31 70  1  1  0  0  0
 32 33  1  0  0  0  0
 33 34  1  0  0  0  0
 33 38  1  0  0  0  0
 33 71  1  1  0  0  0
 34 35  1  0  0  0  0
 34 36  1  0  0  0  0
 34 72  1  6  0  0  0
 35 42  1  0  0  0  0
 36 37  1  0  0  0  0
 36 73  1  0  0  0  0
 36 74  1  0  0  0  0
 37 75  1  0  0  0  0
 38 39  1  0  0  0  0
 38 40  1  0  0  0  0
 38 76  1  6  0  0  0
 39 77  1  0  0  0  0
 40 41  1  0  0  0  0
 40 42  1  0  0  0  0
 40 78  1  1  0  0  0
 41 79  1  0  0  0  0
 42 43  1  0  0  0  0
 42 80  1  6  0  0  0
 43 81  1  0  0  0  0
M  END
$$$$
