SO8
 OpenBabel04161910203D

 53 55  0  0  1  0  0  0  0  0999 V2000
   16.9422    3.6524   19.8768 C   0  0  0  0  0  0  0  0  0  0  0  0
   17.9777    1.7395   20.9943 N   0  3  0  0  0  0  0  0  0  0  0  0
   17.7934    4.2237   19.1847 O   0  0  0  0  0  0  0  0  0  0  0  0
   13.4975   -1.3744   14.3629 N   0  0  0  0  0  0  0  0  0  0  0  0
   13.1610   -1.2203   15.6691 C   0  0  0  0  0  0  0  0  0  0  0  0
   13.4131   -0.1271   16.4368 N   0  0  0  0  0  0  0  0  0  0  0  0
   14.0549    0.8713   15.7730 C   0  0  0  0  0  0  0  0  0  0  0  0
   14.4413    0.8415   14.4196 C   0  0  0  0  0  0  0  0  0  0  0  0
   14.1419   -0.3576   13.7046 C   0  0  0  0  0  0  0  0  0  0  0  0
   14.4797   -0.5104   12.3723 N   0  0  0  0  0  0  0  0  0  0  0  0
   15.0860    2.0453   14.0980 N   0  0  0  0  0  0  0  0  0  0  0  0
   15.0751    2.8010   15.1945 C   0  0  0  0  0  0  0  0  0  0  0  0
   14.4817    2.1172   16.2412 N   0  3  0  0  0  0  0  0  0  0  0  0
   17.2691    3.0223   21.2255 C   0  0  1  0  0  0  0  0  0  0  0  0
   18.1019    3.8115   22.2284 C   0  0  2  0  0  0  0  0  0  0  0  0
   15.6827    3.3897   19.4291 N   0  0  0  0  0  0  0  0  0  0  0  0
   15.2040    3.7539   18.0787 C   0  0  2  0  0  0  0  0  0  0  0  0
   14.2836    4.9771   18.0958 C   0  0  2  0  0  0  0  0  0  0  0  0
   14.6748    6.0086   18.9903 O   0  0  0  0  0  0  0  0  0  0  0  0
   12.9677    4.3153   18.4680 C   0  0  1  0  0  0  0  0  0  0  0  0
   11.7558    5.1875   18.2240 C   0  0  0  0  0  0  0  0  0  0  0  0
   11.7727    5.6134   16.8674 O   0  0  0  0  0  0  0  0  0  0  0  0
   12.9276    3.1058   17.6973 O   0  0  0  0  0  0  0  0  0  0  0  0
   14.2834    2.6279   17.5798 C   0  0  1  0  0  0  0  0  0  0  0  0
   17.6538    5.1481   24.3125 C   0  0  0  0  0  0  0  0  0  0  0  0
   17.2325    4.8919   22.8762 C   0  0  0  0  0  0  0  0  0  0  0  0
   19.4072    4.3547   21.6539 C   0  0  0  0  0  0  0  0  0  0  0  0
   18.2368    1.3160   21.8895 H   0  0  0  0  0  0  0  0  0  0  0  0
   17.3915    1.0935   20.4656 H   0  0  0  0  0  0  0  0  0  0  0  0
   12.6453   -2.0915   16.1637 H   0  0  0  0  0  0  0  0  0  0  0  0
   14.9524    0.2493   11.8914 H   0  0  0  0  0  0  0  0  0  0  0  0
   14.2428   -1.3797   11.8890 H   0  0  0  0  0  0  0  0  0  0  0  0
   15.4743    3.7959   15.2557 H   0  0  0  0  0  0  0  0  0  0  0  0
   16.3199    2.7708   21.7024 H   0  0  0  0  0  0  0  0  0  0  0  0
   18.3874    3.1111   23.0230 H   0  0  0  0  0  0  0  0  0  0  0  0
   15.0103    2.9574   20.0506 H   0  0  0  0  0  0  0  0  0  0  0  0
   16.0618    3.9208   17.4219 H   0  0  0  0  0  0  0  0  0  0  0  0
   14.2441    5.4109   17.0908 H   0  0  0  0  0  0  0  0  0  0  0  0
   14.6791    5.6730   19.8924 H   0  0  0  0  0  0  0  0  0  0  0  0
   12.9717    4.0364   19.5285 H   0  0  0  0  0  0  0  0  0  0  0  0
   11.7920    6.0639   18.8810 H   0  0  0  0  0  0  0  0  0  0  0  0
   10.8371    4.6232   18.4164 H   0  0  0  0  0  0  0  0  0  0  0  0
   10.9982    6.1726   16.7155 H   0  0  0  0  0  0  0  0  0  0  0  0
   14.3732    1.7610   18.2994 H   0  0  0  0  0  0  0  0  0  0  0  0
   17.0132    5.9160   24.7591 H   0  0  0  0  0  0  0  0  0  0  0  0
   18.6931    5.4882   24.3414 H   0  0  0  0  0  0  0  0  0  0  0  0
   17.5637    4.2268   24.9020 H   0  0  0  0  0  0  0  0  0  0  0  0
   16.1827    4.5673   22.8838 H   0  0  0  0  0  0  0  0  0  0  0  0
   17.3066    5.8245   22.3113 H   0  0  0  0  0  0  0  0  0  0  0  0
   19.9888    3.5438   21.1985 H   0  0  0  0  0  0  0  0  0  0  0  0
   20.0110    4.8060   22.4485 H   0  0  0  0  0  0  0  0  0  0  0  0
   19.2092    5.1154   20.8933 H   0  0  0  0  0  0  0  0  0  0  0  0
   18.8398    1.9131   20.4529 H   0  0  0  0  0  0  0  0  0  0  0  0
  1  3  2  0  0  0  0
  1 14  1  0  0  0  0
  1 16  1  0  0  0  0
  2 14  1  0  0  0  0
  2 28  1  0  0  0  0
  2 29  1  0  0  0  0
  2 53  1  0  0  0  0
  4  5  2  0  0  0  0
  4  9  1  0  0  0  0
  5  6  1  0  0  0  0
  5 30  1  0  0  0  0
  6  7  2  0  0  0  0
  7  8  1  0  0  0  0
  7 13  1  0  0  0  0
  8  9  2  0  0  0  0
  8 11  1  0  0  0  0
  9 10  1  0  0  0  0
 10 31  1  0  0  0  0
 10 32  1  0  0  0  0
 11 12  1  0  0  0  0
 12 13  2  0  0  0  0
 12 33  1  0  0  0  0
 13 24  1  0  0  0  0
 14 15  1  0  0  0  0
 14 34  1  1  0  0  0
 15 26  1  0  0  0  0
 15 27  1  0  0  0  0
 15 35  1  1  0  0  0
 16 17  1  0  0  0  0
 16 36  1  0  0  0  0
 17 18  1  0  0  0  0
 17 24  1  0  0  0  0
 17 37  1  6  0  0  0
 18 19  1  0  0  0  0
 18 20  1  0  0  0  0
 18 38  1  6  0  0  0
 19 39  1  0  0  0  0
 20 21  1  0  0  0  0
 20 23  1  0  0  0  0
 20 40  1  1  0  0  0
 21 22  1  0  0  0  0
 21 41  1  0  0  0  0
 21 42  1  0  0  0  0
 22 43  1  0  0  0  0
 23 24  1  0  0  0  0
 24 44  1  1  0  0  0
 25 26  1  0  0  0  0
 25 45  1  0  0  0  0
 25 46  1  0  0  0  0
 25 47  1  0  0  0  0
 26 48  1  0  0  0  0
 26 49  1  0  0  0  0
 27 50  1  0  0  0  0
 27 51  1  0  0  0  0
 27 52  1  0  0  0  0
M  CHG  2   2   1  13   1
M  END
$$$$
