TAU
 OpenBabel04161909383D

 14 13  0  0  0  0  0  0  0  0999 V2000
   24.3108  141.6533  146.1254 C   0  0  0  0  0  0  0  0  0  0  0  0
   23.8209  142.9012  145.4307 C   0  0  0  0  0  0  0  0  0  0  0  0
   24.0650  140.4428  145.2888 N   0  3  0  0  0  0  0  0  0  0  0  0
   25.0078  143.4561  144.2566 S   0  0  0  0  0  0  0  0  0  0  0  0
   24.3433  144.5943  143.6576 O   0  0  0  0  0  0  0  0  0  0  0  0
   26.1731  143.7091  145.0869 O   0  0  0  0  0  0  0  0  0  0  0  0
   25.0948  142.2517  143.4215 O   0  0  0  0  0  0  0  0  0  0  0  0
   23.7330  141.4872  147.0412 H   0  0  0  0  0  0  0  0  0  0  0  0
   25.3746  141.6554  146.3785 H   0  0  0  0  0  0  0  0  0  0  0  0
   23.6750  143.7092  146.1551 H   0  0  0  0  0  0  0  0  0  0  0  0
   22.8785  142.7226  144.9010 H   0  0  0  0  0  0  0  0  0  0  0  0
   24.4015  139.5851  145.7351 H   0  0  0  0  0  0  0  0  0  0  0  0
   23.0851  140.3388  145.0257 H   0  0  0  0  0  0  0  0  0  0  0  0
   24.6001  140.5824  144.3952 H   0  0  0  0  0  0  0  0  0  0  0  0
  1  2  1  0  0  0  0
  1  3  1  0  0  0  0
  1  8  1  0  0  0  0
  1  9  1  0  0  0  0
  2  4  1  0  0  0  0
  2 10  1  0  0  0  0
  2 11  1  0  0  0  0
  3 12  1  0  0  0  0
  3 13  1  0  0  0  0
  3 14  1  0  0  0  0
  4  5  2  0  0  0  0
  4  6  2  0  0  0  0
  4  7  1  0  0  0  0
M  CHG  1   3   1
M  END
$$$$
