TD2
 OpenBabel04161909593D

 75 80  0  0  1  0  0  0  0  0999 V2000
   20.1207   -8.9850   -1.1292 C   0  0  2  0  0  0  0  0  0  0  0  0
   18.6115   -9.2525   -1.0319 C   0  0  1  0  0  0  0  0  0  0  0  0
   17.8587   -7.9744   -1.3778 C   0  0  2  0  0  0  0  0  0  0  0  0
   18.3768   -6.7875   -0.5662 C   0  0  2  0  0  0  0  0  0  0  0  0
   19.8912   -6.6564   -0.7694 C   0  0  1  0  0  0  0  0  0  0  0  0
   20.4587   -5.5128    0.0695 C   0  0  0  0  0  0  0  0  0  0  0  0
   14.3772   -8.1106   -1.9170 N   0  0  0  0  0  0  0  0  0  0  0  0
   27.3792  -11.1277    4.1172 C   0  0  0  0  0  0  0  0  0  0  0  0
   26.7610  -12.2862    4.5695 C   0  0  0  0  0  0  0  0  0  0  0  0
   27.0988  -12.8317    5.7947 C   0  0  0  0  0  0  0  0  0  0  0  0
   22.6060  -10.0109   -0.9077 C   0  0  2  0  0  0  0  0  0  0  0  0
   20.9192  -10.4875   -0.5341 S   0  0  0  0  0  0  0  0  0  0  0  0
   20.5511   -7.8660   -0.3570 O   0  0  0  0  0  0  0  0  0  0  0  0
   23.0575  -10.7800   -2.0121 O   0  0  0  0  0  0  0  0  0  0  0  0
   24.4172  -10.5006   -2.3637 C   0  0  2  0  0  0  0  0  0  0  0  0
   24.7750  -11.3952   -3.5436 C   0  0  0  0  0  0  0  0  0  0  0  0
   21.8551   -5.3822   -0.1950 O   0  0  0  0  0  0  0  0  0  0  0  0
   24.1605  -10.8728   -4.7217 O   0  0  0  0  0  0  0  0  0  0  0  0
   25.3735  -10.7313   -1.1897 C   0  0  2  0  0  0  0  0  0  0  0  0
   18.1450   -6.9895    0.8336 O   0  0  0  0  0  0  0  0  0  0  0  0
   25.4530  -12.1266   -0.8794 O   0  0  0  0  0  0  0  0  0  0  0  0
   24.8869   -9.9306    0.0133 C   0  0  1  0  0  0  0  0  0  0  0  0
   23.4358  -10.2669    0.3592 C   0  0  1  0  0  0  0  0  0  0  0  0
   23.0113   -9.4588    1.4668 O   0  0  0  0  0  0  0  0  0  0  0  0
   18.2736  -10.2810   -1.9743 O   0  0  0  0  0  0  0  0  0  0  0  0
   25.8073  -10.0500    1.1122 N   0  3  0  0  0  0  0  0  0  0  0  0
   25.8322  -10.9252    2.1627 C   0  0  0  0  0  0  0  0  0  0  0  0
   26.9541  -10.5417    2.8733 C   0  0  0  0  0  0  0  0  0  0  0  0
   27.5907   -9.5319    2.2045 N   0  0  0  0  0  0  0  0  0  0  0  0
   26.8932   -9.2481    1.1297 N   0  0  0  0  0  0  0  0  0  0  0  0
   16.4212   -8.1340   -1.2325 N   0  3  0  0  0  0  0  0  0  0  0  0
   15.6329   -7.9348   -2.3030 N   0  0  0  0  0  0  0  0  0  0  0  0
   14.3816   -8.4171   -0.5828 C   0  0  0  0  0  0  0  0  0  0  0  0
   15.6750   -8.4762   -0.1330 C   0  0  0  0  0  0  0  0  0  0  0  0
   28.0623  -12.2426    6.5927 C   0  0  0  0  0  0  0  0  0  0  0  0
   28.7055  -11.0813    6.1538 C   0  0  0  0  0  0  0  0  0  0  0  0
   28.3728  -10.5220    4.9122 C   0  0  0  0  0  0  0  0  0  0  0  0
   13.1736   -8.6557    0.1939 C   0  0  0  0  0  0  0  0  0  0  0  0
   11.9919   -9.0158   -0.4677 C   0  0  0  0  0  0  0  0  0  0  0  0
   10.8123   -9.2471    0.2456 C   0  0  0  0  0  0  0  0  0  0  0  0
   10.8003   -9.1200    1.6315 C   0  0  0  0  0  0  0  0  0  0  0  0
   11.9672   -8.7554    2.2885 C   0  0  0  0  0  0  0  0  0  0  0  0
   13.1489   -8.5173    1.5873 C   0  0  0  0  0  0  0  0  0  0  0  0
   26.4538  -13.9388    6.1963 F   0  0  0  0  0  0  0  0  0  0  0  0
   11.9542   -8.6242    3.6214 F   0  0  0  0  0  0  0  0  0  0  0  0
   20.4124   -8.8215   -2.1758 H   0  0  0  0  0  0  0  0  0  0  0  0
   18.3565   -9.5810   -0.0139 H   0  0  0  0  0  0  0  0  0  0  0  0
   18.0281   -7.7719   -2.4444 H   0  0  0  0  0  0  0  0  0  0  0  0
   17.8781   -5.8620   -0.8722 H   0  0  0  0  0  0  0  0  0  0  0  0
   20.1411   -6.4860   -1.8241 H   0  0  0  0  0  0  0  0  0  0  0  0
   20.3385   -5.6943    1.1428 H   0  0  0  0  0  0  0  0  0  0  0  0
   19.9701   -4.5708   -0.1929 H   0  0  0  0  0  0  0  0  0  0  0  0
   25.9875  -12.7814    3.9957 H   0  0  0  0  0  0  0  0  0  0  0  0
   22.6579   -8.9457   -1.1779 H   0  0  0  0  0  0  0  0  0  0  0  0
   24.4510   -9.4492   -2.6755 H   0  0  0  0  0  0  0  0  0  0  0  0
   24.4178  -12.4219   -3.4021 H   0  0  0  0  0  0  0  0  0  0  0  0
   25.8561  -11.4072   -3.7022 H   0  0  0  0  0  0  0  0  0  0  0  0
   22.2455   -6.2373    0.0561 H   0  0  0  0  0  0  0  0  0  0  0  0
   23.2016  -10.8705   -4.5431 H   0  0  0  0  0  0  0  0  0  0  0  0
   26.3735  -10.3981   -1.4911 H   0  0  0  0  0  0  0  0  0  0  0  0
   17.1876   -6.9875    0.9973 H   0  0  0  0  0  0  0  0  0  0  0  0
   26.1364  -12.2496   -0.1925 H   0  0  0  0  0  0  0  0  0  0  0  0
   24.9134   -8.8696   -0.2526 H   0  0  0  0  0  0  0  0  0  0  0  0
   23.3416  -11.3213    0.6491 H   0  0  0  0  0  0  0  0  0  0  0  0
   23.0443   -8.5192    1.2197 H   0  0  0  0  0  0  0  0  0  0  0  0
   17.3348  -10.5118   -1.8723 H   0  0  0  0  0  0  0  0  0  0  0  0
   25.0727  -11.6606    2.3258 H   0  0  0  0  0  0  0  0  0  0  0  0
   16.0977   -8.7146    0.8281 H   0  0  0  0  0  0  0  0  0  0  0  0
   28.3012  -12.6803    7.5543 H   0  0  0  0  0  0  0  0  0  0  0  0
   29.4526  -10.6037    6.7834 H   0  0  0  0  0  0  0  0  0  0  0  0
   28.8650   -9.6056    4.5916 H   0  0  0  0  0  0  0  0  0  0  0  0
   11.9795   -9.1178   -1.5521 H   0  0  0  0  0  0  0  0  0  0  0  0
    9.9029   -9.5193   -0.2834 H   0  0  0  0  0  0  0  0  0  0  0  0
    9.8907   -9.2933    2.1979 H   0  0  0  0  0  0  0  0  0  0  0  0
   14.0244   -8.2119    2.1503 H   0  0  0  0  0  0  0  0  0  0  0  0
  1  2  1  0  0  0  0
  1 12  1  0  0  0  0
  1 13  1  0  0  0  0
  1 46  1  6  0  0  0
  2  3  1  0  0  0  0
  2 25  1  0  0  0  0
  2 47  1  1  0  0  0
  3  4  1  0  0  0  0
  3 31  1  0  0  0  0
  3 48  1  6  0  0  0
  4  5  1  0  0  0  0
  4 20  1  0  0  0  0
  4 49  1  6  0  0  0
  5  6  1  0  0  0  0
  5 13  1  0  0  0  0
  5 50  1  6  0  0  0
  6 17  1  0  0  0  0
  6 51  1  0  0  0  0
  6 52  1  0  0  0  0
  7 32  1  0  0  0  0
  7 33  1  0  0  0  0
  8  9  2  0  0  0  0
  8 28  1  0  0  0  0
  8 37  1  0  0  0  0
  9 10  1  0  0  0  0
  9 53  1  0  0  0  0
 10 35  2  0  0  0  0
 10 44  1  0  0  0  0
 11 12  1  0  0  0  0
 11 14  1  0  0  0  0
 11 23  1  0  0  0  0
 11 54  1  6  0  0  0
 14 15  1  0  0  0  0
 15 16  1  0  0  0  0
 15 19  1  0  0  0  0
 15 55  1  6  0  0  0
 16 18  1  0  0  0  0
 16 56  1  0  0  0  0
 16 57  1  0  0  0  0
 17 58  1  0  0  0  0
 18 59  1  0  0  0  0
 19 21  1  0  0  0  0
 19 22  1  0  0  0  0
 19 60  1  6  0  0  0
 20 61  1  0  0  0  0
 21 62  1  0  0  0  0
 22 23  1  0  0  0  0
 22 26  1  0  0  0  0
 22 63  1  6  0  0  0
 23 24  1  0  0  0  0
 23 64  1  1  0  0  0
 24 65  1  0  0  0  0
 25 66  1  0  0  0  0
 26 27  1  0  0  0  0
 26 30  2  0  0  0  0
 27 28  2  0  0  0  0
 27 67  1  0  0  0  0
 28 29  1  0  0  0  0
 29 30  1  0  0  0  0
 31 32  2  0  0  0  0
 31 34  1  0  0  0  0
 33 34  2  0  0  0  0
 33 38  1  0  0  0  0
 34 68  1  0  0  0  0
 35 36  1  0  0  0  0
 35 69  1  0  0  0  0
 36 37  2  0  0  0  0
 36 70  1  0  0  0  0
 37 71  1  0  0  0  0
 38 39  2  0  0  0  0
 38 43  1  0  0  0  0
 39 40  1  0  0  0  0
 39 72  1  0  0  0  0
 40 41  2  0  0  0  0
 40 73  1  0  0  0  0
 41 42  1  0  0  0  0
 41 74  1  0  0  0  0
 42 43  2  0  0  0  0
 42 45  1  0  0  0  0
 43 75  1  0  0  0  0
M  CHG  2  26   1  31   1
M  END
$$$$
