TI8
 OpenBabel04161911163D

 59 62  0  0  1  0  0  0  0  0999 V2000
  -13.0007   34.8677  -12.7363 C   0  0  0  0  0  0  0  0  0  0  0  0
  -12.1174   33.7835  -12.7804 C   0  0  0  0  0  0  0  0  0  0  0  0
  -10.8596   33.9967  -13.3126 C   0  0  0  0  0  0  0  0  0  0  0  0
   -8.8309   32.5638  -13.5538 C   0  0  2  0  0  0  0  0  0  0  0  0
   -7.8806   32.4002  -12.3683 C   0  0  1  0  0  0  0  0  0  0  0  0
   -6.6929   31.7466  -13.0708 C   0  0  1  0  0  0  0  0  0  0  0  0
   -7.3708   30.8176  -14.0891 C   0  0  1  0  0  0  0  0  0  0  0  0
   -7.4533   29.3614  -13.6113 C   0  0  0  0  0  0  0  0  0  0  0  0
   -8.5020   28.5273  -14.3551 C   0  0  0  0  0  0  0  0  0  0  0  0
   -8.5370   27.0763  -13.8762 C   0  0  0  0  0  0  0  0  0  0  0  0
   -9.4712   25.9365  -12.0267 C   0  0  0  0  0  0  0  0  0  0  0  0
  -14.2760   34.7943  -12.2157 N   0  0  0  0  0  0  0  0  0  0  0  0
   -7.5418   33.6395  -11.7567 O   0  0  0  0  0  0  0  0  0  0  0  0
   -8.8696   27.0623  -12.4798 O   0  0  0  0  0  0  0  0  0  0  0  0
   -9.5904   27.1208   -9.8583 C   0  0  0  0  0  0  0  0  0  0  0  0
  -11.3335   36.1251  -13.7319 C   0  0  0  0  0  0  0  0  0  0  0  0
   -9.8507   26.0409  -10.5958 C   0  0  0  0  0  0  0  0  0  0  0  0
  -10.2177   32.7886  -13.1961 N   0  3  0  0  0  0  0  0  0  0  0  0
  -12.8829   29.5679   -9.5123 C   0  0  0  0  0  0  0  0  0  0  0  0
  -10.8333   30.6137  -12.4185 N   0  0  0  0  0  0  0  0  0  0  0  0
   -9.7107   24.9378  -12.6815 O   0  0  0  0  0  0  0  0  0  0  0  0
  -11.8419   29.7577  -11.8035 C   0  0  0  0  0  0  0  0  0  0  0  0
  -11.7458   29.7926  -10.2991 C   0  0  0  0  0  0  0  0  0  0  0  0
  -11.1152   31.9065  -12.6484 C   0  0  0  0  0  0  0  0  0  0  0  0
   -5.9330   32.7338  -13.7786 O   0  0  0  0  0  0  0  0  0  0  0  0
  -10.5206   30.0133   -9.6577 C   0  0  0  0  0  0  0  0  0  0  0  0
  -12.2710   32.4858  -12.3659 N   0  0  0  0  0  0  0  0  0  0  0  0
   -8.6986   31.3422  -14.3148 O   0  0  0  0  0  0  0  0  0  0  0  0
  -12.7929   29.5811   -8.1175 C   0  0  0  0  0  0  0  0  0  0  0  0
  -11.5618   29.7950   -7.5033 C   0  0  0  0  0  0  0  0  0  0  0  0
  -10.4219   30.0044   -8.2687 C   0  0  0  0  0  0  0  0  0  0  0  0
  -10.3936   35.1558  -13.8125 N   0  0  0  0  0  0  0  0  0  0  0  0
  -11.4423   29.7988   -5.7891 Cl  0  0  0  0  0  0  0  0  0  0  0  0
  -12.5907   36.0647  -13.2287 N   0  0  0  0  0  0  0  0  0  0  0  0
   -8.4969   33.4034  -14.1796 H   0  0  0  0  0  0  0  0  0  0  0  0
   -8.2886   31.7192  -11.6109 H   0  0  0  0  0  0  0  0  0  0  0  0
   -6.0047   31.2307  -12.3958 H   0  0  0  0  0  0  0  0  0  0  0  0
   -6.8394   30.8362  -15.0469 H   0  0  0  0  0  0  0  0  0  0  0  0
   -7.6708   29.3345  -12.5375 H   0  0  0  0  0  0  0  0  0  0  0  0
   -6.4687   28.8980  -13.7547 H   0  0  0  0  0  0  0  0  0  0  0  0
   -8.3016   28.5530  -15.4309 H   0  0  0  0  0  0  0  0  0  0  0  0
   -9.4938   28.9579  -14.1939 H   0  0  0  0  0  0  0  0  0  0  0  0
   -7.5527   26.6179  -14.0203 H   0  0  0  0  0  0  0  0  0  0  0  0
   -9.2837   26.5308  -14.4597 H   0  0  0  0  0  0  0  0  0  0  0  0
  -14.8407   35.6280  -12.2229 H   0  0  0  0  0  0  0  0  0  0  0  0
  -14.5998   33.9162  -11.8409 H   0  0  0  0  0  0  0  0  0  0  0  0
   -6.8484   33.4898  -11.0950 H   0  0  0  0  0  0  0  0  0  0  0  0
   -9.9130   27.1736   -8.8242 H   0  0  0  0  0  0  0  0  0  0  0  0
   -9.0907   27.9754  -10.2959 H   0  0  0  0  0  0  0  0  0  0  0  0
  -11.0379   37.0954  -14.1184 H   0  0  0  0  0  0  0  0  0  0  0  0
  -10.3632   25.1991  -10.1484 H   0  0  0  0  0  0  0  0  0  0  0  0
  -13.8508   29.4032   -9.9808 H   0  0  0  0  0  0  0  0  0  0  0  0
   -9.9709   30.1845  -12.7073 H   0  0  0  0  0  0  0  0  0  0  0  0
  -11.7004   28.7283  -12.1556 H   0  0  0  0  0  0  0  0  0  0  0  0
  -12.8487   30.0668  -12.1129 H   0  0  0  0  0  0  0  0  0  0  0  0
   -5.5753   33.3639  -13.1275 H   0  0  0  0  0  0  0  0  0  0  0  0
   -9.6217   30.1533  -10.2509 H   0  0  0  0  0  0  0  0  0  0  0  0
  -13.6853   29.4317   -7.5167 H   0  0  0  0  0  0  0  0  0  0  0  0
   -9.4541   30.1488   -7.8001 H   0  0  0  0  0  0  0  0  0  0  0  0
  1  2  2  0  0  0  0
  1 12  1  0  0  0  0
  1 34  1  0  0  0  0
  2  3  1  0  0  0  0
  2 27  1  0  0  0  0
  3 18  1  0  0  0  0
  3 32  2  0  0  0  0
  4  5  1  0  0  0  0
  4 18  1  0  0  0  0
  4 28  1  0  0  0  0
  4 35  1  6  0  0  0
  5  6  1  0  0  0  0
  5 13  1  0  0  0  0
  5 36  1  1  0  0  0
  6  7  1  0  0  0  0
  6 25  1  0  0  0  0
  6 37  1  1  0  0  0
  7  8  1  0  0  0  0
  7 28  1  0  0  0  0
  7 38  1  6  0  0  0
  8  9  1  0  0  0  0
  8 39  1  0  0  0  0
  8 40  1  0  0  0  0
  9 10  1  0  0  0  0
  9 41  1  0  0  0  0
  9 42  1  0  0  0  0
 10 14  1  0  0  0  0
 10 43  1  0  0  0  0
 10 44  1  0  0  0  0
 11 14  1  0  0  0  0
 11 17  1  0  0  0  0
 11 21  2  0  0  0  0
 12 45  1  0  0  0  0
 12 46  1  0  0  0  0
 13 47  1  0  0  0  0
 15 17  2  0  0  0  0
 15 48  1  0  0  0  0
 15 49  1  0  0  0  0
 16 32  1  0  0  0  0
 16 34  2  0  0  0  0
 16 50  1  0  0  0  0
 17 51  1  0  0  0  0
 18 24  2  0  0  0  0
 19 23  2  0  0  0  0
 19 29  1  0  0  0  0
 19 52  1  0  0  0  0
 20 22  1  0  0  0  0
 20 24  1  0  0  0  0
 20 53  1  0  0  0  0
 22 23  1  0  0  0  0
 22 54  1  0  0  0  0
 22 55  1  0  0  0  0
 23 26  1  0  0  0  0
 24 27  1  0  0  0  0
 25 56  1  0  0  0  0
 26 31  2  0  0  0  0
 26 57  1  0  0  0  0
 29 30  2  0  0  0  0
 29 58  1  0  0  0  0
 30 31  1  0  0  0  0
 30 33  1  0  0  0  0
 31 59  1  0  0  0  0
M  CHG  1  18   1
M  END
$$$$
