TI8
 OpenBabel04161911163D

 56 59  0  0  1  0  0  0  0  0999 V2000
  -20.4932   -9.2562   12.5702 C   0  0  0  0  0  0  0  0  0  0  0  0
  -19.5040   -9.1212   11.5832 C   0  0  0  0  0  0  0  0  0  0  0  0
  -18.3179   -8.5120   11.9485 C   0  0  0  0  0  0  0  0  0  0  0  0
  -16.1543   -8.1232   10.7848 C   0  0  2  0  0  0  0  0  0  0  0  0
  -15.1653   -9.2653   10.6163 C   0  0  1  0  0  0  0  0  0  0  0  0
  -13.9491   -8.5027   10.1138 C   0  0  1  0  0  0  0  0  0  0  0  0
  -14.5531   -7.3998    9.2403 C   0  0  1  0  0  0  0  0  0  0  0  0
  -14.5340   -7.6649    7.7330 C   0  0  0  0  0  0  0  0  0  0  0  0
  -13.1886   -8.1479    7.2203 C   0  0  0  0  0  0  0  0  0  0  0  0
  -13.2569   -8.6798    5.8023 C   0  0  0  0  0  0  0  0  0  0  0  0
  -11.9194   -9.9577    4.3154 C   0  0  0  0  0  0  0  0  0  0  0  0
  -21.7175   -9.8499   12.3425 N   0  0  0  0  0  0  0  0  0  0  0  0
  -14.9215   -9.9454   11.8467 O   0  0  0  0  0  0  0  0  0  0  0  0
  -11.9540   -9.1728    5.4969 O   0  0  0  0  0  0  0  0  0  0  0  0
  -19.0486   -8.2084   14.0226 C   0  0  0  0  0  0  0  0  0  0  0  0
  -17.5401   -8.5464   10.8156 N   0  3  0  0  0  0  0  0  0  0  0  0
  -19.5801  -12.3274    7.5184 C   0  0  0  0  0  0  0  0  0  0  0  0
  -17.9096   -9.2435    8.5459 N   0  0  0  0  0  0  0  0  0  0  0  0
  -18.7950   -9.9168    7.6082 C   0  0  0  0  0  0  0  0  0  0  0  0
  -18.5313  -11.4039    7.6132 C   0  0  0  0  0  0  0  0  0  0  0  0
  -18.3154   -9.0856    9.8113 C   0  0  0  0  0  0  0  0  0  0  0  0
  -13.2250   -7.8946   11.1859 O   0  0  0  0  0  0  0  0  0  0  0  0
  -17.2210  -11.8819    7.7043 C   0  0  0  0  0  0  0  0  0  0  0  0
  -19.4796   -9.4842   10.2659 N   0  0  0  0  0  0  0  0  0  0  0  0
  -15.9317   -7.2467    9.6552 O   0  0  0  0  0  0  0  0  0  0  0  0
  -19.3192  -13.6995    7.5325 C   0  0  0  0  0  0  0  0  0  0  0  0
  -18.0086  -14.1507    7.6291 C   0  0  0  0  0  0  0  0  0  0  0  0
  -16.9597  -13.2468    7.7255 C   0  0  0  0  0  0  0  0  0  0  0  0
  -18.0223   -8.0412   13.1590 N   0  0  0  0  0  0  0  0  0  0  0  0
  -17.6739  -15.8328    7.5992 Cl  0  0  0  0  0  0  0  0  0  0  0  0
  -20.2453   -8.7904   13.8028 N   0  0  0  0  0  0  0  0  0  0  0  0
  -15.9190   -7.5812   11.7131 H   0  0  0  0  0  0  0  0  0  0  0  0
  -15.4897   -9.9813    9.8490 H   0  0  0  0  0  0  0  0  0  0  0  0
  -13.2480   -9.1456    9.5941 H   0  0  0  0  0  0  0  0  0  0  0  0
  -14.0435   -6.4486    9.4190 H   0  0  0  0  0  0  0  0  0  0  0  0
  -14.7875   -6.7287    7.2150 H   0  0  0  0  0  0  0  0  0  0  0  0
  -15.3020   -8.3956    7.4731 H   0  0  0  0  0  0  0  0  0  0  0  0
  -12.8110   -8.9644    7.8345 H   0  0  0  0  0  0  0  0  0  0  0  0
  -12.4540   -7.3382    7.2738 H   0  0  0  0  0  0  0  0  0  0  0  0
  -13.5297   -7.8713    5.1198 H   0  0  0  0  0  0  0  0  0  0  0  0
  -14.0025   -9.4826    5.7437 H   0  0  0  0  0  0  0  0  0  0  0  0
  -10.8860  -10.2871    4.1532 H   0  0  0  0  0  0  0  0  0  0  0  0
  -12.2461   -9.3633    3.4577 H   0  0  0  0  0  0  0  0  0  0  0  0
  -12.5564  -10.8396    4.4383 H   0  0  0  0  0  0  0  0  0  0  0  0
  -22.3633   -9.9111   13.1094 H   0  0  0  0  0  0  0  0  0  0  0  0
  -21.9180  -10.2195   11.4262 H   0  0  0  0  0  0  0  0  0  0  0  0
  -14.2238  -10.6048   11.7100 H   0  0  0  0  0  0  0  0  0  0  0  0
  -18.8778   -7.8547   15.0335 H   0  0  0  0  0  0  0  0  0  0  0  0
  -20.6083  -11.9825    7.4473 H   0  0  0  0  0  0  0  0  0  0  0  0
  -17.0428   -8.8695    8.2079 H   0  0  0  0  0  0  0  0  0  0  0  0
  -18.6200   -9.5322    6.5958 H   0  0  0  0  0  0  0  0  0  0  0  0
  -19.8503   -9.7335    7.8513 H   0  0  0  0  0  0  0  0  0  0  0  0
  -12.8523   -8.6033   11.7396 H   0  0  0  0  0  0  0  0  0  0  0  0
  -16.4013  -11.1771    7.7801 H   0  0  0  0  0  0  0  0  0  0  0  0
  -20.1378  -14.4089    7.4670 H   0  0  0  0  0  0  0  0  0  0  0  0
  -15.9376  -13.5943    7.8124 H   0  0  0  0  0  0  0  0  0  0  0  0
  1  2  2  0  0  0  0
  1 12  1  0  0  0  0
  1 31  1  0  0  0  0
  2  3  1  0  0  0  0
  2 24  1  0  0  0  0
  3 16  1  0  0  0  0
  3 29  2  0  0  0  0
  4  5  1  0  0  0  0
  4 16  1  0  0  0  0
  4 25  1  0  0  0  0
  4 32  1  1  0  0  0
  5  6  1  0  0  0  0
  5 13  1  0  0  0  0
  5 33  1  6  0  0  0
  6  7  1  0  0  0  0
  6 22  1  0  0  0  0
  6 34  1  6  0  0  0
  7  8  1  0  0  0  0
  7 25  1  0  0  0  0
  7 35  1  1  0  0  0
  8  9  1  0  0  0  0
  8 36  1  0  0  0  0
  8 37  1  0  0  0  0
  9 10  1  0  0  0  0
  9 38  1  0  0  0  0
  9 39  1  0  0  0  0
 10 14  1  0  0  0  0
 10 40  1  0  0  0  0
 10 41  1  0  0  0  0
 11 14  1  0  0  0  0
 11 42  1  0  0  0  0
 11 43  1  0  0  0  0
 11 44  1  0  0  0  0
 12 45  1  0  0  0  0
 12 46  1  0  0  0  0
 13 47  1  0  0  0  0
 15 29  1  0  0  0  0
 15 31  2  0  0  0  0
 15 48  1  0  0  0  0
 16 21  2  0  0  0  0
 17 20  2  0  0  0  0
 17 26  1  0  0  0  0
 17 49  1  0  0  0  0
 18 19  1  0  0  0  0
 18 21  1  0  0  0  0
 18 50  1  0  0  0  0
 19 20  1  0  0  0  0
 19 51  1  0  0  0  0
 19 52  1  0  0  0  0
 20 23  1  0  0  0  0
 21 24  1  0  0  0  0
 22 53  1  0  0  0  0
 23 28  2  0  0  0  0
 23 54  1  0  0  0  0
 26 27  2  0  0  0  0
 26 55  1  0  0  0  0
 27 28  1  0  0  0  0
 27 30  1  0  0  0  0
 28 56  1  0  0  0  0
M  CHG  1  16   1
M  END
$$$$
