TNX
 OpenBabel04161910143D

 29 29  0  0  1  0  0  0  0  0999 V2000
   -5.8155   66.6973   10.4655 C   0  0  0  0  0  0  0  0  0  0  0  0
   -5.2815   63.7677    8.7251 S   0  0  0  0  0  0  0  0  0  0  0  0
   -6.3622   66.9433    9.0507 C   0  0  1  0  0  0  0  0  0  0  0  0
   -5.3192   67.5619    8.0988 C   0  0  2  0  0  0  0  0  0  0  0  0
   -4.0675   68.0517    8.8440 C   0  0  1  0  0  0  0  0  0  0  0  0
   -3.5075   66.9148    9.7093 C   0  0  1  0  0  0  0  0  0  0  0  0
   -2.3437   67.3841   10.6006 C   0  0  0  0  0  0  0  0  0  0  0  0
   -6.6808   64.5145    8.2005 C   0  0  0  0  0  0  0  0  0  0  0  0
   -7.6193   63.7099    7.3321 C   0  0  0  0  0  0  0  0  0  0  0  0
   -7.0904   65.8187    8.4376 N   0  0  0  0  0  0  0  0  0  0  0  0
   -5.9410   68.6714    7.4242 O   0  0  0  0  0  0  0  0  0  0  0  0
   -3.0901   68.4619    7.8635 O   0  0  0  0  0  0  0  0  0  0  0  0
   -4.4657   66.2606   10.5475 O   0  0  0  0  0  0  0  0  0  0  0  0
   -1.5125   66.2901   11.0224 O   0  0  0  0  0  0  0  0  0  0  0  0
   -6.4380   65.9575   10.9914 H   0  0  0  0  0  0  0  0  0  0  0  0
   -5.8865   67.6254   11.0507 H   0  0  0  0  0  0  0  0  0  0  0  0
   -7.1657   67.6800    9.1892 H   0  0  0  0  0  0  0  0  0  0  0  0
   -5.0223   66.8582    7.3128 H   0  0  0  0  0  0  0  0  0  0  0  0
   -4.3252   68.9320    9.4486 H   0  0  0  0  0  0  0  0  0  0  0  0
   -3.1096   66.1420    9.0380 H   0  0  0  0  0  0  0  0  0  0  0  0
   -2.7265   67.8588   11.5111 H   0  0  0  0  0  0  0  0  0  0  0  0
   -1.6883   68.0960   10.0953 H   0  0  0  0  0  0  0  0  0  0  0  0
   -8.5040   64.2868    7.0276 H   0  0  0  0  0  0  0  0  0  0  0  0
   -7.9534   62.8120    7.8671 H   0  0  0  0  0  0  0  0  0  0  0  0
   -7.0941   63.3968    6.4230 H   0  0  0  0  0  0  0  0  0  0  0  0
   -8.0244   66.0525    8.1037 H   0  0  0  0  0  0  0  0  0  0  0  0
   -6.6960   68.3198    6.9230 H   0  0  0  0  0  0  0  0  0  0  0  0
   -2.3769   68.9374    8.3312 H   0  0  0  0  0  0  0  0  0  0  0  0
   -1.2869   65.7755   10.2292 H   0  0  0  0  0  0  0  0  0  0  0  0
  1  3  1  0  0  0  0
  1 13  1  0  0  0  0
  1 15  1  0  0  0  0
  1 16  1  0  0  0  0
  2  8  2  0  0  0  0
  3  4  1  0  0  0  0
  3 10  1  0  0  0  0
  3 17  1  1  0  0  0
  4  5  1  0  0  0  0
  4 11  1  0  0  0  0
  4 18  1  6  0  0  0
  5  6  1  0  0  0  0
  5 12  1  0  0  0  0
  5 19  1  1  0  0  0
  6  7  1  0  0  0  0
  6 13  1  0  0  0  0
  6 20  1  6  0  0  0
  7 14  1  0  0  0  0
  7 21  1  0  0  0  0
  7 22  1  0  0  0  0
  8  9  1  0  0  0  0
  8 10  1  0  0  0  0
  9 23  1  0  0  0  0
  9 24  1  0  0  0  0
  9 25  1  0  0  0  0
 10 26  1  0  0  0  0
 11 27  1  0  0  0  0
 12 28  1  0  0  0  0
 14 29  1  0  0  0  0
M  END
$$$$
