TQL
 OpenBabel04161910183D

 27 28  0  0  0  0  0  0  0  0999 V2000
    1.8774    8.3722   26.5938 C   0  0  0  0  0  0  0  0  0  0  0  0
    2.6321    7.2300   26.3433 C   0  0  0  0  0  0  0  0  0  0  0  0
    2.3212    6.4751   25.2280 C   0  0  0  0  0  0  0  0  0  0  0  0
    1.3272    6.7966   24.3588 N   0  0  0  0  0  0  0  0  0  0  0  0
    0.6028    7.9070   24.6419 C   0  0  0  0  0  0  0  0  0  0  0  0
    0.8297    8.7134   25.7442 C   0  0  0  0  0  0  0  0  0  0  0  0
    0.0001    9.9303   25.9817 C   0  0  0  0  0  0  0  0  0  0  0  0
   -0.6934   10.1406   27.0642 N   0  0  0  0  0  0  0  0  0  0  0  0
   -0.5095    9.0892   27.9692 O   0  0  0  0  0  0  0  0  0  0  0  0
   -0.0370   10.9119   24.8746 C   0  0  0  0  0  0  0  0  0  0  0  0
    1.1856   11.2137   24.2584 C   0  0  0  0  0  0  0  0  0  0  0  0
    1.2130   12.0105   23.1160 C   0  0  0  0  0  0  0  0  0  0  0  0
    0.0252   12.4932   22.6097 C   0  0  0  0  0  0  0  0  0  0  0  0
    0.0678   13.2480   21.4683 O   0  0  0  0  0  0  0  0  0  0  0  0
   -1.1996   12.2381   23.2259 C   0  0  0  0  0  0  0  0  0  0  0  0
   -1.2267   11.4573   24.3776 C   0  0  0  0  0  0  0  0  0  0  0  0
   -2.4536   11.2437   24.9433 O   0  0  0  0  0  0  0  0  0  0  0  0
    2.1154    8.9977   27.4479 H   0  0  0  0  0  0  0  0  0  0  0  0
    3.4341    6.9422   27.0146 H   0  0  0  0  0  0  0  0  0  0  0  0
    2.8911    5.5752   25.0041 H   0  0  0  0  0  0  0  0  0  0  0  0
   -0.1844    8.1655   23.9299 H   0  0  0  0  0  0  0  0  0  0  0  0
   -1.0466    9.3404   28.7335 H   0  0  0  0  0  0  0  0  0  0  0  0
    2.1188   10.8155   24.6528 H   0  0  0  0  0  0  0  0  0  0  0  0
    2.1692   12.2250   22.6274 H   0  0  0  0  0  0  0  0  0  0  0  0
   -0.8452   13.4982   21.2544 H   0  0  0  0  0  0  0  0  0  0  0  0
   -2.1258   12.6323   22.8258 H   0  0  0  0  0  0  0  0  0  0  0  0
   -2.3170   10.7316   25.7658 H   0  0  0  0  0  0  0  0  0  0  0  0
  1  2  2  0  0  0  0
  1  6  1  0  0  0  0
  1 18  1  0  0  0  0
  2  3  1  0  0  0  0
  2 19  1  0  0  0  0
  3  4  2  0  0  0  0
  3 20  1  0  0  0  0
  4  5  1  0  0  0  0
  5  6  2  0  0  0  0
  5 21  1  0  0  0  0
  6  7  1  0  0  0  0
  7  8  2  0  0  0  0
  7 10  1  0  0  0  0
  8  9  1  0  0  0  0
  9 22  1  0  0  0  0
 10 11  2  0  0  0  0
 10 16  1  0  0  0  0
 11 12  1  0  0  0  0
 11 23  1  0  0  0  0
 12 13  2  0  0  0  0
 12 24  1  0  0  0  0
 13 14  1  0  0  0  0
 13 15  1  0  0  0  0
 14 25  1  0  0  0  0
 15 16  2  0  0  0  0
 15 26  1  0  0  0  0
 16 17  1  0  0  0  0
 17 27  1  0  0  0  0
M  END
$$$$
