TSN
 OpenBabel04161910003D

 44 44  0  0  1  0  0  0  0  0999 V2000
   -9.0645   25.2211   -3.8683 O   0  0  0  0  0  0  0  0  0  0  0  0
   -7.0497   25.4136   -5.8039 O   0  0  0  0  0  0  0  0  0  0  0  0
    0.0929   26.4504   -4.8925 O   0  0  0  0  0  0  0  0  0  0  0  0
   -8.1721   26.2984   -3.9723 N   0  0  0  0  0  0  0  0  0  0  0  0
    1.5527   29.9973   -9.9324 N   0  0  0  0  0  0  0  0  0  0  0  0
    0.1415   28.2527   -6.3885 C   0  0  0  0  0  0  0  0  0  0  0  0
    1.0268   27.5584   -7.1942 C   0  0  0  0  0  0  0  0  0  0  0  0
    1.4902   28.1485   -8.3623 C   0  0  0  0  0  0  0  0  0  0  0  0
    1.0854   29.4295   -8.7667 C   0  0  0  0  0  0  0  0  0  0  0  0
    0.1936   30.0992   -7.9383 C   0  0  0  0  0  0  0  0  0  0  0  0
   -0.2935   29.5217   -6.7708 C   0  0  0  0  0  0  0  0  0  0  0  0
   -0.3242   27.5781   -5.1541 C   0  0  0  0  0  0  0  0  0  0  0  0
   -1.3623   28.2771   -4.2907 C   0  0  1  0  0  0  0  0  0  0  0  0
   -2.6577   27.5633   -4.5383 C   0  0  0  0  0  0  0  0  0  0  0  0
   -3.8965   28.0882   -4.5003 C   0  0  0  0  0  0  0  0  0  0  0  0
   -4.9957   27.1603   -4.7266 C   0  0  0  0  0  0  0  0  0  0  0  0
   -6.2995   27.4409   -4.8283 C   0  0  0  0  0  0  0  0  0  0  0  0
   -7.2144   26.2756   -4.9540 C   0  0  0  0  0  0  0  0  0  0  0  0
   -0.9511   28.2024   -2.8338 C   0  0  0  0  0  0  0  0  0  0  0  0
   -4.1665   29.5293   -4.1603 C   0  0  0  0  0  0  0  0  0  0  0  0
    1.1329   31.3521  -10.3003 C   0  0  0  0  0  0  0  0  0  0  0  0
    2.5013   29.3376  -10.8043 C   0  0  0  0  0  0  0  0  0  0  0  0
   -9.5924   25.4213   -3.0842 H   0  0  0  0  0  0  0  0  0  0  0  0
   -8.1734   27.0063   -3.2395 H   0  0  0  0  0  0  0  0  0  0  0  0
    1.3823   26.5616   -6.9388 H   0  0  0  0  0  0  0  0  0  0  0  0
    2.1768   27.5418   -8.9360 H   0  0  0  0  0  0  0  0  0  0  0  0
   -0.1877   31.0876   -8.1786 H   0  0  0  0  0  0  0  0  0  0  0  0
   -1.0027   30.1098   -6.2079 H   0  0  0  0  0  0  0  0  0  0  0  0
   -1.4321   29.3324   -4.5356 H   0  0  0  0  0  0  0  0  0  0  0  0
   -2.5476   26.5002   -4.7656 H   0  0  0  0  0  0  0  0  0  0  0  0
   -4.7122   26.1060   -4.7992 H   0  0  0  0  0  0  0  0  0  0  0  0
   -6.7173   28.4345   -4.7781 H   0  0  0  0  0  0  0  0  0  0  0  0
   -0.0057   28.7356   -2.6802 H   0  0  0  0  0  0  0  0  0  0  0  0
   -0.8142   27.1673   -2.5144 H   0  0  0  0  0  0  0  0  0  0  0  0
   -1.7115   28.6690   -2.1997 H   0  0  0  0  0  0  0  0  0  0  0  0
   -3.2524   30.1117   -4.0248 H   0  0  0  0  0  0  0  0  0  0  0  0
   -4.7166   29.6031   -3.2162 H   0  0  0  0  0  0  0  0  0  0  0  0
   -4.7361   30.0262   -4.9523 H   0  0  0  0  0  0  0  0  0  0  0  0
    1.5972   31.6740  -11.2397 H   0  0  0  0  0  0  0  0  0  0  0  0
    1.4184   32.0767   -9.5288 H   0  0  0  0  0  0  0  0  0  0  0  0
    0.0471   31.3908  -10.4426 H   0  0  0  0  0  0  0  0  0  0  0  0
    2.7946   28.3357  -10.4972 H   0  0  0  0  0  0  0  0  0  0  0  0
    3.4328   29.9115  -10.8655 H   0  0  0  0  0  0  0  0  0  0  0  0
    2.0695   29.2207  -11.8042 H   0  0  0  0  0  0  0  0  0  0  0  0
  1  4  1  0  0  0  0
  1 23  1  0  0  0  0
  2 18  2  0  0  0  0
  3 12  2  0  0  0  0
  4 18  1  0  0  0  0
  4 24  1  0  0  0  0
  5  9  1  0  0  0  0
  5 21  1  0  0  0  0
  5 22  1  0  0  0  0
  6  7  2  0  0  0  0
  6 11  1  0  0  0  0
  6 12  1  0  0  0  0
  7  8  1  0  0  0  0
  7 25  1  0  0  0  0
  8  9  2  0  0  0  0
  8 26  1  0  0  0  0
  9 10  1  0  0  0  0
 10 11  2  0  0  0  0
 10 27  1  0  0  0  0
 11 28  1  0  0  0  0
 12 13  1  0  0  0  0
 13 14  1  0  0  0  0
 13 19  1  0  0  0  0
 13 29  1  6  0  0  0
 14 15  2  0  0  0  0
 14 30  1  0  0  0  0
 15 16  1  0  0  0  0
 15 20  1  0  0  0  0
 16 17  2  0  0  0  0
 16 31  1  0  0  0  0
 17 18  1  0  0  0  0
 17 32  1  0  0  0  0
 19 33  1  0  0  0  0
 19 34  1  0  0  0  0
 19 35  1  0  0  0  0
 20 36  1  0  0  0  0
 20 37  1  0  0  0  0
 20 38  1  0  0  0  0
 21 39  1  0  0  0  0
 21 40  1  0  0  0  0
 21 41  1  0  0  0  0
 22 42  1  0  0  0  0
 22 43  1  0  0  0  0
 22 44  1  0  0  0  0
M  END
$$$$
