TTP
 OpenBabel04161909423D

 42 43  0  0  1  0  0  0  0  0999 V2000
   66.9242   56.4614   38.8582 P   0  0  1  0  0  0  0  0  0  0  0  0
   66.4139   56.9207   37.5151 O   0  0  0  0  0  0  0  0  0  0  0  0
   65.9024   56.1060   39.9312 O   0  0  0  0  0  0  0  0  0  0  0  0
   68.1455   55.4299   38.8770 O   0  0  0  0  0  0  0  0  0  0  0  0
   68.5515   54.1537   37.9880 P   0  0  2  0  0  0  0  0  0  0  0  0
   67.5010   53.7718   36.9686 O   0  0  0  0  0  0  0  0  0  0  0  0
   68.8948   53.0266   38.9840 O   0  0  0  0  0  0  0  0  0  0  0  0
   69.9523   54.6533   37.3801 O   0  0  0  0  0  0  0  0  0  0  0  0
   70.4637   55.5304   36.1264 P   0  0  0  0  0  0  0  0  0  0  0  0
   71.1727   54.5309   35.2023 O   0  0  0  0  0  0  0  0  0  0  0  0
   71.4616   56.5417   36.7203 O   0  0  0  0  0  0  0  0  0  0  0  0
   69.2890   56.2357   35.4769 O   0  0  0  0  0  0  0  0  0  0  0  0
   67.6973   57.7701   39.4905 O   0  0  0  0  0  0  0  0  0  0  0  0
   68.6362   58.4361   38.6576 C   0  0  0  0  0  0  0  0  0  0  0  0
   68.8504   59.8766   39.1517 C   0  0  1  0  0  0  0  0  0  0  0  0
   68.7331   60.0258   40.5942 O   0  0  0  0  0  0  0  0  0  0  0  0
   70.2264   60.4292   38.7631 C   0  0  1  0  0  0  0  0  0  0  0  0
   70.1225   61.8202   38.3928 O   0  0  0  0  0  0  0  0  0  0  0  0
   71.0353   60.3485   40.0360 C   0  0  0  0  0  0  0  0  0  0  0  0
   69.9863   60.4681   41.1269 C   0  0  2  0  0  0  0  0  0  0  0  0
   70.3271   59.7502   42.3523 N   0  3  0  0  0  0  0  0  0  0  0  0
   71.2428   60.3158   43.2012 C   0  0  0  0  0  0  0  0  0  0  0  0
   71.7604   61.4382   43.0602 O   0  0  0  0  0  0  0  0  0  0  0  0
   71.5657   59.5966   44.3235 N   0  3  0  0  0  0  0  0  0  0  0  0
   71.0122   58.3988   44.6903 C   0  0  0  0  0  0  0  0  0  0  0  0
   71.2898   57.8796   45.7723 O   0  0  0  0  0  0  0  0  0  0  0  0
   70.0638   57.8057   43.7265 C   0  0  0  0  0  0  0  0  0  0  0  0
   69.4708   56.4753   44.0540 C   0  0  0  0  0  0  0  0  0  0  0  0
   69.7898   58.4942   42.6187 C   0  0  0  0  0  0  0  0  0  0  0  0
   68.2705   58.5036   37.6253 H   0  0  0  0  0  0  0  0  0  0  0  0
   69.5736   57.8744   38.6444 H   0  0  0  0  0  0  0  0  0  0  0  0
   68.0540   60.5125   38.7436 H   0  0  0  0  0  0  0  0  0  0  0  0
   70.7000   59.9030   37.9279 H   0  0  0  0  0  0  0  0  0  0  0  0
   69.5525   61.8096   37.6008 H   0  0  0  0  0  0  0  0  0  0  0  0
   71.7811   61.1443   40.1272 H   0  0  0  0  0  0  0  0  0  0  0  0
   71.5591   59.3871   40.1007 H   0  0  0  0  0  0  0  0  0  0  0  0
   69.8493   61.5275   41.3870 H   0  0  0  0  0  0  0  0  0  0  0  0
   72.2082   60.0139   44.9676 H   0  0  0  0  0  0  0  0  0  0  0  0
   68.7779   56.1371   43.2774 H   0  0  0  0  0  0  0  0  0  0  0  0
   68.9142   56.5262   44.9962 H   0  0  0  0  0  0  0  0  0  0  0  0
   70.2538   55.7185   44.1585 H   0  0  0  0  0  0  0  0  0  0  0  0
   69.0973   58.0912   41.8687 H   0  0  0  0  0  0  0  0  0  0  0  0
  1  2  2  6  0  0  0
  1  3  1  0  0  0  0
  1  4  1  0  0  0  0
  1 13  1  0  0  0  0
  5  4  1  1  0  0  0
  5  6  2  0  0  0  0
  5  7  1  0  0  0  0
  5  8  1  0  0  0  0
  8  9  1  0  0  0  0
  9 10  2  0  0  0  0
  9 11  1  0  0  0  0
  9 12  1  0  0  0  0
 13 14  1  0  0  0  0
 14 15  1  0  0  0  0
 14 30  1  0  0  0  0
 14 31  1  0  0  0  0
 15 16  1  0  0  0  0
 15 17  1  0  0  0  0
 15 32  1  6  0  0  0
 16 20  1  0  0  0  0
 17 18  1  0  0  0  0
 17 19  1  0  0  0  0
 17 33  1  6  0  0  0
 18 34  1  0  0  0  0
 19 20  1  0  0  0  0
 19 35  1  0  0  0  0
 19 36  1  0  0  0  0
 20 21  1  0  0  0  0
 20 37  1  1  0  0  0
 21 22  1  0  0  0  0
 21 29  1  0  0  0  0
 22 23  2  0  0  0  0
 22 24  1  0  0  0  0
 24 25  1  0  0  0  0
 24 38  1  0  0  0  0
 25 26  2  0  0  0  0
 25 27  1  0  0  0  0
 27 28  1  0  0  0  0
 27 29  2  0  0  0  0
 28 39  1  0  0  0  0
 28 40  1  0  0  0  0
 28 41  1  0  0  0  0
 29 42  1  0  0  0  0
M  CHG  2  21   1  24   1
M  END
$$$$
