U53
 OpenBabel04161910233D

 38 39  0  0  0  0  0  0  0  0999 V2000
   20.5026   46.0950   59.5048 O   0  0  0  0  0  0  0  0  0  0  0  0
   20.3587   46.0453   60.7017 C   0  0  0  0  0  0  0  0  0  0  0  0
   19.1268   45.8991   61.2872 O   0  0  0  0  0  0  0  0  0  0  0  0
   18.0425   46.0470   60.3197 C   0  0  0  0  0  0  0  0  0  0  0  0
   17.6288   47.5064   60.2989 C   0  0  0  0  0  0  0  0  0  0  0  0
   21.5489   46.2826   61.5568 C   0  0  0  0  0  0  0  0  0  0  0  0
   21.4706   47.2179   62.5869 C   0  0  0  0  0  0  0  0  0  0  0  0
   22.5201   47.6803   63.3131 N   0  0  0  0  0  0  0  0  0  0  0  0
   23.7501   47.2417   63.0044 C   0  0  0  0  0  0  0  0  0  0  0  0
   24.8599   47.6809   63.7274 C   0  0  0  0  0  0  0  0  0  0  0  0
   26.1557   47.2108   63.4170 C   0  0  0  0  0  0  0  0  0  0  0  0
   22.8363   45.8444   61.2108 C   0  0  0  0  0  0  0  0  0  0  0  0
   23.0946   44.6891   59.7893 S   0  0  0  0  0  0  0  0  0  0  0  0
   23.8866   43.2064   60.5650 C   0  0  0  0  0  0  0  0  0  0  0  0
   23.2215   42.8455   61.8817 C   0  0  0  0  0  0  0  0  0  0  0  0
   21.8220   42.4608   61.6702 C   0  0  0  0  0  0  0  0  0  0  0  0
   20.7268   42.2077   61.4651 N   0  0  0  0  0  0  0  0  0  0  0  0
   23.9540   46.3302   61.9409 C   0  0  0  0  0  0  0  0  0  0  0  0
   25.2548   45.9212   61.6350 C   0  0  0  0  0  0  0  0  0  0  0  0
   26.3525   46.3271   62.3623 C   0  0  0  0  0  0  0  0  0  0  0  0
   27.6124   45.8634   62.0704 O   0  0  0  0  0  0  0  0  0  0  0  0
   27.7272   44.9608   60.9575 C   0  0  0  0  0  0  0  0  0  0  0  0
   17.1804   45.4280   60.5870 H   0  0  0  0  0  0  0  0  0  0  0  0
   18.3294   45.7454   59.2994 H   0  0  0  0  0  0  0  0  0  0  0  0
   16.8287   47.6883   59.5739 H   0  0  0  0  0  0  0  0  0  0  0  0
   18.4849   48.1369   60.0396 H   0  0  0  0  0  0  0  0  0  0  0  0
   17.2829   47.8067   61.2916 H   0  0  0  0  0  0  0  0  0  0  0  0
   20.5152   47.6831   62.8204 H   0  0  0  0  0  0  0  0  0  0  0  0
   24.7313   48.3944   64.5481 H   0  0  0  0  0  0  0  0  0  0  0  0
   26.9954   47.5560   64.0085 H   0  0  0  0  0  0  0  0  0  0  0  0
   24.9654   43.3588   60.7054 H   0  0  0  0  0  0  0  0  0  0  0  0
   23.8168   42.3806   59.8472 H   0  0  0  0  0  0  0  0  0  0  0  0
   23.2884   43.6928   62.5746 H   0  0  0  0  0  0  0  0  0  0  0  0
   23.7727   42.0188   62.3597 H   0  0  0  0  0  0  0  0  0  0  0  0
   25.4108   45.2670   60.8017 H   0  0  0  0  0  0  0  0  0  0  0  0
   28.7739   44.6740   60.8329 H   0  0  0  0  0  0  0  0  0  0  0  0
   27.4013   45.4299   60.0181 H   0  0  0  0  0  0  0  0  0  0  0  0
   27.1609   44.0349   61.1289 H   0  0  0  0  0  0  0  0  0  0  0  0
  1  2  2  0  0  0  0
  2  3  1  0  0  0  0
  2  6  1  0  0  0  0
  3  4  1  0  0  0  0
  4  5  1  0  0  0  0
  4 23  1  0  0  0  0
  4 24  1  0  0  0  0
  5 25  1  0  0  0  0
  5 26  1  0  0  0  0
  5 27  1  0  0  0  0
  6  7  2  0  0  0  0
  6 12  1  0  0  0  0
  7  8  1  0  0  0  0
  7 28  1  0  0  0  0
  8  9  2  0  0  0  0
  9 10  1  0  0  0  0
  9 18  1  0  0  0  0
 10 11  2  0  0  0  0
 10 29  1  0  0  0  0
 11 20  1  0  0  0  0
 11 30  1  0  0  0  0
 12 13  1  0  0  0  0
 12 18  2  0  0  0  0
 13 14  1  0  0  0  0
 14 15  1  0  0  0  0
 14 31  1  0  0  0  0
 14 32  1  0  0  0  0
 15 16  1  0  0  0  0
 15 33  1  0  0  0  0
 15 34  1  0  0  0  0
 16 17  3  0  0  0  0
 18 19  1  0  0  0  0
 19 20  2  0  0  0  0
 19 35  1  0  0  0  0
 20 21  1  0  0  0  0
 21 22  1  0  0  0  0
 22 36  1  0  0  0  0
 22 37  1  0  0  0  0
 22 38  1  0  0  0  0
M  END
$$$$
