UFV
 OpenBabel04161909373D

 19 19  0  0  0  0  0  0  0  0999 V2000
   90.9192   88.8179  -41.6245 C   0  0  0  0  0  0  0  0  0  0  0  0
   92.1535   89.4575  -41.4295 C   0  0  0  0  0  0  0  0  0  0  0  0
   92.3586   90.7505  -41.8800 C   0  0  0  0  0  0  0  0  0  0  0  0
   91.3034   91.4296  -42.5261 C   0  0  0  0  0  0  0  0  0  0  0  0
   90.0601   90.8016  -42.7226 C   0  0  0  0  0  0  0  0  0  0  0  0
   89.8612   89.4841  -42.2879 C   0  0  0  0  0  0  0  0  0  0  0  0
   88.6016   88.8783  -42.3699 N   0  0  0  0  0  0  0  0  0  0  0  0
   89.0796   91.4875  -43.4480 N   0  0  0  0  0  0  0  0  0  0  0  0
   90.7271   87.0486  -40.9669 Br  0  0  0  0  0  0  0  0  0  0  0  0
   93.6929   91.4409  -41.6884 C   0  0  0  0  0  0  0  0  0  0  0  0
   94.2375   91.8567  -42.8632 F   0  0  0  0  0  0  0  0  0  0  0  0
   94.6259   90.6565  -41.1001 F   0  0  0  0  0  0  0  0  0  0  0  0
   93.5984   92.5587  -40.9073 F   0  0  0  0  0  0  0  0  0  0  0  0
   92.9703   88.9123  -40.9108 H   0  0  0  0  0  0  0  0  0  0  0  0
   91.4551   92.4379  -42.8765 H   0  0  0  0  0  0  0  0  0  0  0  0
   88.5503   87.8717  -42.1779 H   0  0  0  0  0  0  0  0  0  0  0  0
   87.8987   89.2531  -43.0081 H   0  0  0  0  0  0  0  0  0  0  0  0
   89.2018   92.4691  -43.6720 H   0  0  0  0  0  0  0  0  0  0  0  0
   88.1428   91.1124  -43.4975 H   0  0  0  0  0  0  0  0  0  0  0  0
  1  2  2  0  0  0  0
  1  6  1  0  0  0  0
  1  9  1  0  0  0  0
  2  3  1  0  0  0  0
  2 14  1  0  0  0  0
  3  4  2  0  0  0  0
  3 10  1  0  0  0  0
  4  5  1  0  0  0  0
  4 15  1  0  0  0  0
  5  6  2  0  0  0  0
  5  8  1  0  0  0  0
  6  7  1  0  0  0  0
  7 16  1  0  0  0  0
  7 17  1  0  0  0  0
  8 18  1  0  0  0  0
  8 19  1  0  0  0  0
 10 11  1  0  0  0  0
 10 12  1  0  0  0  0
 10 13  1  0  0  0  0
M  END
$$$$
