UIN
 OpenBabel04161912053D

 46 48  0  0  1  0  0  0  0  0999 V2000
   -0.2794   18.0372   20.7506 C   0  0  0  0  0  0  0  0  0  0  0  0
   -1.4651   17.5603   21.4793 C   0  0  0  0  0  0  0  0  0  0  0  0
   -1.6987   16.3396   21.6157 O   0  0  0  0  0  0  0  0  0  0  0  0
   -2.3110   18.4612   22.0356 O   0  3  0  0  0  0  0  0  0  0  0  0
   -2.0628   19.8245   21.8613 C   0  0  0  0  0  0  0  0  0  0  0  0
   -1.0085   20.2977   21.1812 C   0  0  0  0  0  0  0  0  0  0  0  0
   -0.0409   19.3459   20.5790 C   0  0  0  0  0  0  0  0  0  0  0  0
    0.8897   19.9125   19.9525 O   0  0  0  0  0  0  0  0  0  0  0  0
    0.1617   16.4524   18.8413 C   0  0  0  0  0  0  0  0  0  0  0  0
   -0.1764   17.2854   17.7589 C   0  0  0  0  0  0  0  0  0  0  0  0
   -0.7050   16.7461   16.5927 C   0  0  0  0  0  0  0  0  0  0  0  0
   -0.8775   15.3666   16.4876 C   0  0  0  0  0  0  0  0  0  0  0  0
   -0.5271   14.5259   17.5412 C   0  0  0  0  0  0  0  0  0  0  0  0
   -0.0040   15.0660   18.7078 C   0  0  0  0  0  0  0  0  0  0  0  0
    0.7064   17.0683   20.1264 C   0  0  2  0  0  0  0  0  0  0  0  0
    1.2954   16.0418   21.1022 C   0  0  0  0  0  0  0  0  0  0  0  0
    2.3667   16.6018   22.0135 C   0  0  0  0  0  0  0  0  0  0  0  0
   -3.1012   20.6856   22.5639 C   0  0  0  0  0  0  0  0  0  0  0  0
   -4.2089   21.2302   21.6746 C   0  0  0  0  0  0  0  0  0  0  0  0
   -3.8055   22.4148   20.7951 C   0  0  0  0  0  0  0  0  0  0  0  0
   -2.9215   22.0475   19.6060 C   0  0  0  0  0  0  0  0  0  0  0  0
   -1.4394   22.3761   19.7858 C   0  0  0  0  0  0  0  0  0  0  0  0
   -0.7780   21.7768   21.0223 C   0  0  0  0  0  0  0  0  0  0  0  0
   -0.0402   18.3712   17.8360 H   0  0  0  0  0  0  0  0  0  0  0  0
   -0.9865   17.3999   15.7734 H   0  0  0  0  0  0  0  0  0  0  0  0
   -1.2862   14.9441   15.5783 H   0  0  0  0  0  0  0  0  0  0  0  0
   -0.6697   13.4540   17.4652 H   0  0  0  0  0  0  0  0  0  0  0  0
    0.2610   14.3915   19.5175 H   0  0  0  0  0  0  0  0  0  0  0  0
    1.5833   17.6389   19.8080 H   0  0  0  0  0  0  0  0  0  0  0  0
    1.7713   15.2370   20.5321 H   0  0  0  0  0  0  0  0  0  0  0  0
    0.5074   15.6034   21.7130 H   0  0  0  0  0  0  0  0  0  0  0  0
    2.7460   15.8048   22.6627 H   0  0  0  0  0  0  0  0  0  0  0  0
    1.9628   17.3994   22.6375 H   0  0  0  0  0  0  0  0  0  0  0  0
    3.2057   16.9931   21.4293 H   0  0  0  0  0  0  0  0  0  0  0  0
   -2.5939   21.5132   23.0621 H   0  0  0  0  0  0  0  0  0  0  0  0
   -3.5732   20.0888   23.3560 H   0  0  0  0  0  0  0  0  0  0  0  0
   -4.6132   20.4274   21.0500 H   0  0  0  0  0  0  0  0  0  0  0  0
   -5.0125   21.5788   22.3389 H   0  0  0  0  0  0  0  0  0  0  0  0
   -4.7359   22.8480   20.4014 H   0  0  0  0  0  0  0  0  0  0  0  0
   -3.3181   23.1763   21.4094 H   0  0  0  0  0  0  0  0  0  0  0  0
   -3.0274   20.9843   19.3731 H   0  0  0  0  0  0  0  0  0  0  0  0
   -3.2738   22.6104   18.7317 H   0  0  0  0  0  0  0  0  0  0  0  0
   -0.9009   22.0235   18.8984 H   0  0  0  0  0  0  0  0  0  0  0  0
   -1.3183   23.4664   19.8313 H   0  0  0  0  0  0  0  0  0  0  0  0
    0.2934   22.0079   20.9873 H   0  0  0  0  0  0  0  0  0  0  0  0
   -1.1466   22.3109   21.9017 H   0  0  0  0  0  0  0  0  0  0  0  0
  1 15  1  0  0  0  0
  1  7  2  0  0  0  0
  1  2  1  0  0  0  0
  2  4  1  0  0  0  0
  2  3  2  0  0  0  0
  4  5  1  0  0  0  0
  5 18  1  0  0  0  0
  5  6  2  0  0  0  0
  6 23  1  0  0  0  0
  6  7  1  0  0  0  0
  7  8  1  0  0  0  0
  9 15  1  0  0  0  0
  9 14  2  0  0  0  0
  9 10  1  0  0  0  0
 10 11  2  0  0  0  0
 10 24  1  0  0  0  0
 11 12  1  0  0  0  0
 11 25  1  0  0  0  0
 12 13  2  0  0  0  0
 12 26  1  0  0  0  0
 13 14  1  0  0  0  0
 13 27  1  0  0  0  0
 14 28  1  0  0  0  0
 15 16  1  0  0  0  0
 15 29  1  6  0  0  0
 16 17  1  0  0  0  0
 16 30  1  0  0  0  0
 16 31  1  0  0  0  0
 17 32  1  0  0  0  0
 17 33  1  0  0  0  0
 17 34  1  0  0  0  0
 18 19  1  0  0  0  0
 18 35  1  0  0  0  0
 18 36  1  0  0  0  0
 19 20  1  0  0  0  0
 19 37  1  0  0  0  0
 19 38  1  0  0  0  0
 20 21  1  0  0  0  0
 20 39  1  0  0  0  0
 20 40  1  0  0  0  0
 21 22  1  0  0  0  0
 21 41  1  0  0  0  0
 21 42  1  0  0  0  0
 22 23  1  0  0  0  0
 22 43  1  0  0  0  0
 22 44  1  0  0  0  0
 23 45  1  0  0  0  0
 23 46  1  0  0  0  0
M  CHG  1   4   1
M  END
$$$$
