UL7
 OpenBabel04161909343D

 49 51  0  0  1  0  0  0  0  0999 V2000
   91.9839  102.1237  -44.1332 N   0  3  2  0  0  0  0  0  0  0  0  0
   92.5561  102.9966  -45.2397 C   0  0  0  0  0  0  0  0  0  0  0  0
   90.9841   93.2823  -44.7537 C   0  0  0  0  0  0  0  0  0  0  0  0
   90.4150   95.6292  -44.5214 C   0  0  0  0  0  0  0  0  0  0  0  0
   90.4517   98.1475  -44.5690 N   0  3  1  0  0  0  0  0  0  0  0  0
   90.7689   96.7181  -42.4255 O   0  0  0  0  0  0  0  0  0  0  0  0
   91.3888   93.2307  -43.4224 C   0  0  0  0  0  0  0  0  0  0  0  0
   89.8558   96.8748  -45.1436 C   0  0  0  0  0  0  0  0  0  0  0  0
   91.8221   98.4005  -45.1338 C   0  0  0  0  0  0  0  0  0  0  0  0
   90.4925   94.4674  -45.3021 C   0  0  0  0  0  0  0  0  0  0  0  0
   92.9375  102.0398  -42.9525 C   0  0  0  0  0  0  0  0  0  0  0  0
   91.3120   94.3743  -42.6313 C   0  0  0  0  0  0  0  0  0  0  0  0
   93.1063  103.4286  -42.3845 C   0  0  0  0  0  0  0  0  0  0  0  0
   93.6757  104.3619  -43.4444 C   0  0  2  0  0  0  0  0  0  0  0  0
   93.7199  105.6631  -42.8887 O   0  0  0  0  0  0  0  0  0  0  0  0
   92.8152  104.3878  -44.6969 C   0  0  0  0  0  0  0  0  0  0  0  0
   90.8240   95.5665  -43.1805 C   0  0  0  0  0  0  0  0  0  0  0  0
   91.4368  100.8112  -44.6590 C   0  0  2  0  0  0  0  0  0  0  0  0
   90.1164  100.4970  -43.9609 C   0  0  0  0  0  0  0  0  0  0  0  0
   89.4853   99.2856  -44.6259 C   0  0  0  0  0  0  0  0  0  0  0  0
   91.0763   91.8835  -45.7394 Cl  0  0  0  0  0  0  0  0  0  0  0  0
   91.8815   94.3138  -40.8305 Br  0  0  0  0  0  0  0  0  0  0  0  0
   92.4202   99.6523  -44.5162 C   0  0  0  0  0  0  0  0  0  0  0  0
   91.8051  103.0460  -46.0379 H   0  0  0  0  0  0  0  0  0  0  0  0
   93.4607  102.5105  -45.6157 H   0  0  0  0  0  0  0  0  0  0  0  0
   91.0218   96.4537  -41.5093 H   0  0  0  0  0  0  0  0  0  0  0  0
   91.7717   92.3029  -43.0066 H   0  0  0  0  0  0  0  0  0  0  0  0
   88.7734   96.9037  -44.9858 H   0  0  0  0  0  0  0  0  0  0  0  0
   90.0559   96.9084  -46.2208 H   0  0  0  0  0  0  0  0  0  0  0  0
   91.7159   98.5176  -46.2219 H   0  0  0  0  0  0  0  0  0  0  0  0
   92.4482   97.5309  -44.9117 H   0  0  0  0  0  0  0  0  0  0  0  0
   90.1749   94.4754  -46.3432 H   0  0  0  0  0  0  0  0  0  0  0  0
   93.8871  101.6302  -43.3158 H   0  0  0  0  0  0  0  0  0  0  0  0
   92.4969  101.3654  -42.2123 H   0  0  0  0  0  0  0  0  0  0  0  0
   93.7623  103.4040  -41.5067 H   0  0  0  0  0  0  0  0  0  0  0  0
   92.1410  103.8094  -42.0246 H   0  0  0  0  0  0  0  0  0  0  0  0
   94.7006  104.0528  -43.6918 H   0  0  0  0  0  0  0  0  0  0  0  0
   94.1402  106.2752  -43.5222 H   0  0  0  0  0  0  0  0  0  0  0  0
   91.8613  104.8852  -44.4758 H   0  0  0  0  0  0  0  0  0  0  0  0
   93.2966  105.0027  -45.4660 H   0  0  0  0  0  0  0  0  0  0  0  0
   91.2273  100.9695  -45.7249 H   0  0  0  0  0  0  0  0  0  0  0  0
   89.4245  101.3445  -44.0294 H   0  0  0  0  0  0  0  0  0  0  0  0
   90.2806  100.2996  -42.8936 H   0  0  0  0  0  0  0  0  0  0  0  0
   88.5751   98.9858  -44.0955 H   0  0  0  0  0  0  0  0  0  0  0  0
   89.2544   99.4723  -45.6803 H   0  0  0  0  0  0  0  0  0  0  0  0
   93.3701   99.8815  -45.0131 H   0  0  0  0  0  0  0  0  0  0  0  0
   92.6411   99.4442  -43.4596 H   0  0  0  0  0  0  0  0  0  0  0  0
   91.1745  102.6621  -43.7829 H   0  0  0  0  0  0  0  0  0  0  0  0
   90.5625   97.9018  -43.5633 H   0  0  0  0  0  0  0  0  0  0  0  0
  1  2  1  0  0  0  0
  1 11  1  0  0  0  0
  1 18  1  0  0  0  0
  1 48  1  1  0  0  0
  2 16  1  0  0  0  0
  2 24  1  0  0  0  0
  2 25  1  0  0  0  0
  3  7  2  0  0  0  0
  3 10  1  0  0  0  0
  3 21  1  0  0  0  0
  4  8  1  0  0  0  0
  4 10  2  0  0  0  0
  4 17  1  0  0  0  0
  5  8  1  0  0  0  0
  5  9  1  0  0  0  0
  5 20  1  0  0  0  0
  5 49  1  1  0  0  0
  6 17  1  0  0  0  0
  6 26  1  0  0  0  0
  7 12  1  0  0  0  0
  7 27  1  0  0  0  0
  8 28  1  0  0  0  0
  8 29  1  0  0  0  0
  9 23  1  0  0  0  0
  9 30  1  0  0  0  0
  9 31  1  0  0  0  0
 10 32  1  0  0  0  0
 11 13  1  0  0  0  0
 11 33  1  0  0  0  0
 11 34  1  0  0  0  0
 12 17  2  0  0  0  0
 12 22  1  0  0  0  0
 13 14  1  0  0  0  0
 13 35  1  0  0  0  0
 13 36  1  0  0  0  0
 14 15  1  0  0  0  0
 14 16  1  0  0  0  0
 14 37  1  6  0  0  0
 15 38  1  0  0  0  0
 16 39  1  0  0  0  0
 16 40  1  0  0  0  0
 18 19  1  0  0  0  0
 18 23  1  0  0  0  0
 18 41  1  6  0  0  0
 19 20  1  0  0  0  0
 19 42  1  0  0  0  0
 19 43  1  0  0  0  0
 20 44  1  0  0  0  0
 20 45  1  0  0  0  0
 23 46  1  0  0  0  0
 23 47  1  0  0  0  0
M  CHG  2   1   1   5   1
M  END
$$$$
