UO1
 OpenBabel04161909583D

 42 44  0  0  0  0  0  0  0  0999 V2000
  -25.7636  -11.2403    0.4670 C   0  0  0  0  0  0  0  0  0  0  0  0
  -26.2471   -9.8495    0.7655 C   0  0  0  0  0  0  0  0  0  0  0  0
  -25.5280   -9.0301    1.3321 O   0  0  0  0  0  0  0  0  0  0  0  0
  -27.5649   -9.4939    0.3699 N   0  3  0  0  0  0  0  0  0  0  0  0
  -28.5112  -10.2976   -0.2542 C   0  0  0  0  0  0  0  0  0  0  0  0
  -29.6565   -9.5745   -0.5221 C   0  0  0  0  0  0  0  0  0  0  0  0
  -30.7891  -10.0552   -1.2121 N   0  0  0  0  0  0  0  0  0  0  0  0
  -31.1959   -9.4350   -2.3980 C   0  0  0  0  0  0  0  0  0  0  0  0
  -32.4323   -9.9731   -3.0958 C   0  0  0  0  0  0  0  0  0  0  0  0
  -30.5960   -8.4888   -2.9198 O   0  0  0  0  0  0  0  0  0  0  0  0
  -31.4028  -11.2172   -0.6666 C   0  0  0  0  0  0  0  0  0  0  0  0
  -31.2127  -12.4895   -1.2375 C   0  0  0  0  0  0  0  0  0  0  0  0
  -30.2933  -12.7001   -2.4066 C   0  0  0  0  0  0  0  0  0  0  0  0
  -31.8737  -13.5940   -0.6695 C   0  0  0  0  0  0  0  0  0  0  0  0
  -32.7169  -13.4450    0.4352 C   0  0  0  0  0  0  0  0  0  0  0  0
  -32.8965  -12.1836    0.9891 C   0  0  0  0  0  0  0  0  0  0  0  0
  -32.2439  -11.0741    0.4536 C   0  0  0  0  0  0  0  0  0  0  0  0
  -33.7257  -11.9981    2.0572 O   0  0  0  0  0  0  0  0  0  0  0  0
  -29.4412   -8.2675   -0.0067 C   0  0  0  0  0  0  0  0  0  0  0  0
  -28.1585   -8.2361    0.5589 C   0  0  0  0  0  0  0  0  0  0  0  0
  -27.6722   -7.0663    1.1814 C   0  0  0  0  0  0  0  0  0  0  0  0
  -28.4956   -5.9397    1.2478 C   0  0  0  0  0  0  0  0  0  0  0  0
  -29.7716   -5.9615    0.7043 C   0  0  0  0  0  0  0  0  0  0  0  0
  -30.2509   -7.1126    0.0750 C   0  0  0  0  0  0  0  0  0  0  0  0
  -26.4739  -11.8900   -0.0336 H   0  0  0  0  0  0  0  0  0  0  0  0
  -25.4851  -11.7179    1.4114 H   0  0  0  0  0  0  0  0  0  0  0  0
  -24.8729  -11.1721   -0.1668 H   0  0  0  0  0  0  0  0  0  0  0  0
  -28.2804  -11.3130   -0.5240 H   0  0  0  0  0  0  0  0  0  0  0  0
  -32.6072   -9.3819   -4.0028 H   0  0  0  0  0  0  0  0  0  0  0  0
  -33.3157   -9.8886   -2.4592 H   0  0  0  0  0  0  0  0  0  0  0  0
  -32.3153  -11.0041   -3.4276 H   0  0  0  0  0  0  0  0  0  0  0  0
  -30.2513  -13.7519   -2.6990 H   0  0  0  0  0  0  0  0  0  0  0  0
  -29.2783  -12.3843   -2.1601 H   0  0  0  0  0  0  0  0  0  0  0  0
  -30.6241  -12.1379   -3.2800 H   0  0  0  0  0  0  0  0  0  0  0  0
  -31.7370  -14.5876   -1.0897 H   0  0  0  0  0  0  0  0  0  0  0  0
  -33.2185  -14.3178    0.8432 H   0  0  0  0  0  0  0  0  0  0  0  0
  -32.4130  -10.0971    0.9009 H   0  0  0  0  0  0  0  0  0  0  0  0
  -34.1020  -12.8493    2.3143 H   0  0  0  0  0  0  0  0  0  0  0  0
  -26.6766   -7.0216    1.6150 H   0  0  0  0  0  0  0  0  0  0  0  0
  -28.1281   -5.0377    1.7321 H   0  0  0  0  0  0  0  0  0  0  0  0
  -30.4041   -5.0802    0.7671 H   0  0  0  0  0  0  0  0  0  0  0  0
  -31.2526   -7.1220   -0.3433 H   0  0  0  0  0  0  0  0  0  0  0  0
  1  2  1  0  0  0  0
  1 25  1  0  0  0  0
  1 26  1  0  0  0  0
  1 27  1  0  0  0  0
  2  3  2  0  0  0  0
  2  4  1  0  0  0  0
  4  5  1  0  0  0  0
  4 20  1  0  0  0  0
  5  6  2  0  0  0  0
  5 28  1  0  0  0  0
  6  7  1  0  0  0  0
  6 19  1  0  0  0  0
  7  8  1  0  0  0  0
  7 11  1  0  0  0  0
  8  9  1  0  0  0  0
  8 10  2  0  0  0  0
  9 29  1  0  0  0  0
  9 30  1  0  0  0  0
  9 31  1  0  0  0  0
 11 12  2  0  0  0  0
 11 17  1  0  0  0  0
 12 13  1  0  0  0  0
 12 14  1  0  0  0  0
 13 32  1  0  0  0  0
 13 33  1  0  0  0  0
 13 34  1  0  0  0  0
 14 15  2  0  0  0  0
 14 35  1  0  0  0  0
 15 16  1  0  0  0  0
 15 36  1  0  0  0  0
 16 17  2  0  0  0  0
 16 18  1  0  0  0  0
 17 37  1  0  0  0  0
 18 38  1  0  0  0  0
 19 20  2  0  0  0  0
 19 24  1  0  0  0  0
 20 21  1  0  0  0  0
 21 22  2  0  0  0  0
 21 39  1  0  0  0  0
 22 23  1  0  0  0  0
 22 40  1  0  0  0  0
 23 24  2  0  0  0  0
 23 41  1  0  0  0  0
 24 42  1  0  0  0  0
M  CHG  1   4   1
M  END
$$$$
