VC2
 OpenBabel04161910073D

 30 31  0  0  1  0  0  0  0  0999 V2000
  -17.3146   23.8184   -0.9942 O   0  0  0  0  0  0  0  0  0  0  0  0
  -16.2355   24.4026   -0.6451 C   0  0  0  0  0  0  0  0  0  0  0  0
  -15.3130   24.0822    0.1206 O   0  0  0  0  0  0  0  0  0  0  0  0
  -16.1242   25.7793   -1.3634 C   0  0  2  0  0  0  0  0  0  0  0  0
  -17.4270   26.1129   -2.1516 N   0  3  2  0  0  0  0  0  0  0  0  0
  -15.0005   25.7603   -2.4061 C   0  0  0  0  0  0  0  0  0  0  0  0
  -13.6413   26.0617   -1.7887 C   0  0  0  0  0  0  0  0  0  0  0  0
  -14.9454   24.4981   -3.2682 C   0  0  0  0  0  0  0  0  0  0  0  0
  -15.4200   27.1086   -3.5676 S   0  0  0  0  0  0  0  0  0  0  0  0
  -17.1807   27.1087   -3.2188 C   0  0  2  0  0  0  0  0  0  0  0  0
  -17.6210   28.4892   -2.7300 C   0  0  0  0  0  0  0  0  0  0  0  0
  -18.2637   28.2950   -1.0525 S   0  0  0  0  0  0  0  0  0  0  0  0
  -18.5679   26.5176   -1.2573 C   0  0  1  0  0  0  0  0  0  0  0  0
  -19.9006   26.2465   -1.9896 C   0  0  0  0  0  0  0  0  0  0  0  0
  -21.3942   26.8457   -1.1332 S   0  0  0  0  0  0  0  0  0  0  0  0
  -15.9890   26.5723   -0.6184 H   0  0  0  0  0  0  0  0  0  0  0  0
  -12.8489   26.0475   -2.5444 H   0  0  0  0  0  0  0  0  0  0  0  0
  -13.3802   25.3119   -1.0357 H   0  0  0  0  0  0  0  0  0  0  0  0
  -13.6236   27.0406   -1.2936 H   0  0  0  0  0  0  0  0  0  0  0  0
  -15.9134   24.2613   -3.7248 H   0  0  0  0  0  0  0  0  0  0  0  0
  -14.6351   23.6314   -2.6770 H   0  0  0  0  0  0  0  0  0  0  0  0
  -14.2129   24.6085   -4.0788 H   0  0  0  0  0  0  0  0  0  0  0  0
  -17.7365   26.7826   -4.1052 H   0  0  0  0  0  0  0  0  0  0  0  0
  -18.4158   28.8691   -3.3778 H   0  0  0  0  0  0  0  0  0  0  0  0
  -16.8176   29.2300   -2.7163 H   0  0  0  0  0  0  0  0  0  0  0  0
  -18.5071   25.9764   -0.3080 H   0  0  0  0  0  0  0  0  0  0  0  0
  -20.0173   25.1736   -2.1747 H   0  0  0  0  0  0  0  0  0  0  0  0
  -19.8989   26.7311   -2.9722 H   0  0  0  0  0  0  0  0  0  0  0  0
  -21.2514   26.1268   -0.0102 H   0  0  0  0  0  0  0  0  0  0  0  0
  -17.6680   25.1602   -2.4876 H   0  0  0  0  0  0  0  0  0  0  0  0
  1  2  2  0  0  0  0
  2  3  1  0  0  0  0
  2  4  1  0  0  0  0
  4  5  1  0  0  0  0
  4  6  1  0  0  0  0
  4 16  1  1  0  0  0
  5 10  1  0  0  0  0
  5 13  1  0  0  0  0
  5 30  1  6  0  0  0
  6  7  1  0  0  0  0
  6  8  1  0  0  0  0
  6  9  1  0  0  0  0
  7 17  1  0  0  0  0
  7 18  1  0  0  0  0
  7 19  1  0  0  0  0
  8 20  1  0  0  0  0
  8 21  1  0  0  0  0
  8 22  1  0  0  0  0
  9 10  1  0  0  0  0
 10 11  1  0  0  0  0
 10 23  1  6  0  0  0
 11 12  1  0  0  0  0
 11 24  1  0  0  0  0
 11 25  1  0  0  0  0
 12 13  1  0  0  0  0
 13 14  1  0  0  0  0
 13 26  1  1  0  0  0
 14 15  1  0  0  0  0
 14 27  1  0  0  0  0
 14 28  1  0  0  0  0
 15 29  1  0  0  0  0
M  CHG  1   5   1
M  END
$$$$
