VGL
 OpenBabel04161910263D

 12 12  0  0  0  0  0  0  0  0999 V2000
   12.9213   -6.4081  -35.1268 C   0  0  0  0  0  0  0  0  0  0  0  0
   10.6480   -6.4210  -35.5536 C   0  0  0  0  0  0  0  0  0  0  0  0
   10.3821   -6.3507  -34.1983 C   0  0  0  0  0  0  0  0  0  0  0  0
   14.3871   -6.4376  -35.5593 C   0  0  0  0  0  0  0  0  0  0  0  0
   12.6272   -6.3371  -33.7666 C   0  0  0  0  0  0  0  0  0  0  0  0
   14.6499   -6.4117  -36.8050 O   0  0  0  0  0  0  0  0  0  0  0  0
   15.2617   -6.4838  -34.6305 O   0  0  0  0  0  0  0  0  0  0  0  0
   11.9003   -6.4510  -36.0444 N   0  0  0  0  0  0  0  0  0  0  0  0
   11.3564   -6.3056  -33.2656 N   0  0  0  0  0  0  0  0  0  0  0  0
    9.8570   -6.4592  -36.2913 H   0  0  0  0  0  0  0  0  0  0  0  0
    9.3655   -6.3286  -33.8294 H   0  0  0  0  0  0  0  0  0  0  0  0
   13.4203   -6.3014  -33.0227 H   0  0  0  0  0  0  0  0  0  0  0  0
  1  4  1  0  0  0  0
  1  5  2  0  0  0  0
  1  8  1  0  0  0  0
  2  3  1  0  0  0  0
  2  8  2  0  0  0  0
  2 10  1  0  0  0  0
  3  9  2  0  0  0  0
  3 11  1  0  0  0  0
  4  6  2  0  0  0  0
  4  7  1  0  0  0  0
  5  9  1  0  0  0  0
  5 12  1  0  0  0  0
M  END
$$$$
