VIB
 OpenBabel04161910003D

 37 38  0  0  0  0  0  0  0  0999 V2000
    5.7940   19.1550   62.8815 C   0  0  0  0  0  0  0  0  0  0  0  0
    9.9164   17.7267   60.9356 N   0  0  0  0  0  0  0  0  0  0  0  0
   12.2980   19.2886   57.2729 C   0  0  0  0  0  0  0  0  0  0  0  0
   13.3351   15.6661   57.3521 O   0  0  0  0  0  0  0  0  0  0  0  0
   12.6584   15.3592   56.1332 C   0  0  0  0  0  0  0  0  0  0  0  0
   12.1158   16.6562   55.5162 C   0  0  0  0  0  0  0  0  0  0  0  0
    8.8703   17.5887   57.6841 C   0  0  0  0  0  0  0  0  0  0  0  0
    9.5289   16.4095   56.5171 S   0  0  0  0  0  0  0  0  0  0  0  0
   11.0506   17.2513   56.4072 C   0  0  0  0  0  0  0  0  0  0  0  0
   11.1412   18.3271   57.2064 C   0  0  0  0  0  0  0  0  0  0  0  0
   10.0578   18.3612   58.1794 N   0  0  0  0  0  0  0  0  0  0  0  0
    9.7290   19.6953   58.7882 C   0  0  0  0  0  0  0  0  0  0  0  0
    8.8531   18.6465   60.9234 C   0  0  0  0  0  0  0  0  0  0  0  0
    7.9268   18.4803   61.8681 N   0  0  0  0  0  0  0  0  0  0  0  0
    6.8654   19.3098   61.8370 C   0  0  0  0  0  0  0  0  0  0  0  0
    6.6792   20.2633   60.9125 N   0  0  0  0  0  0  0  0  0  0  0  0
    7.6251   20.3839   59.9703 C   0  0  0  0  0  0  0  0  0  0  0  0
    8.7476   19.5890   59.9100 C   0  0  0  0  0  0  0  0  0  0  0  0
    6.0519   18.3703   63.5983 H   0  0  0  0  0  0  0  0  0  0  0  0
    4.8462   18.8932   62.4003 H   0  0  0  0  0  0  0  0  0  0  0  0
    5.6630   20.0964   63.4241 H   0  0  0  0  0  0  0  0  0  0  0  0
   10.8140   18.1812   61.1007 H   0  0  0  0  0  0  0  0  0  0  0  0
    9.7305   17.1355   61.7589 H   0  0  0  0  0  0  0  0  0  0  0  0
   13.1409   18.9957   56.6423 H   0  0  0  0  0  0  0  0  0  0  0  0
   12.6769   19.3740   58.2944 H   0  0  0  0  0  0  0  0  0  0  0  0
   11.9797   20.2835   56.9386 H   0  0  0  0  0  0  0  0  0  0  0  0
   13.7287   14.8287   57.6671 H   0  0  0  0  0  0  0  0  0  0  0  0
   11.8609   14.6432   56.3560 H   0  0  0  0  0  0  0  0  0  0  0  0
   13.3650   14.8795   55.4509 H   0  0  0  0  0  0  0  0  0  0  0  0
   11.7011   16.4516   54.5225 H   0  0  0  0  0  0  0  0  0  0  0  0
   12.9486   17.3506   55.3697 H   0  0  0  0  0  0  0  0  0  0  0  0
    8.1611   18.2761   57.2129 H   0  0  0  0  0  0  0  0  0  0  0  0
    9.3674   20.3494   57.9848 H   0  0  0  0  0  0  0  0  0  0  0  0
   10.6540   20.1215   59.1931 H   0  0  0  0  0  0  0  0  0  0  0  0
    7.4176   21.1557   59.2294 H   0  0  0  0  0  0  0  0  0  0  0  0
    8.4162   17.0732   58.5341 H   0  0  0  0  0  0  0  0  0  0  0  0
   10.3703   17.7812   58.9768 H   0  0  0  0  0  0  0  0  0  0  0  0
  1 15  1  0  0  0  0
  1 19  1  0  0  0  0
  1 20  1  0  0  0  0
  1 21  1  0  0  0  0
  2 13  1  0  0  0  0
  2 22  1  0  0  0  0
  2 23  1  0  0  0  0
  3 10  1  0  0  0  0
  3 24  1  0  0  0  0
  3 25  1  0  0  0  0
  3 26  1  0  0  0  0
  4  5  1  0  0  0  0
  4 27  1  0  0  0  0
  5  6  1  0  0  0  0
  5 28  1  0  0  0  0
  5 29  1  0  0  0  0
  6  9  1  0  0  0  0
  6 30  1  0  0  0  0
  6 31  1  0  0  0  0
  7  8  1  0  0  0  0
  7 11  1  0  0  0  0
  7 32  1  0  0  0  0
  7 36  1  0  0  0  0
  8  9  1  0  0  0  0
  9 10  2  0  0  0  0
 10 11  1  0  0  0  0
 11 12  1  0  0  0  0
 11 37  1  0  0  0  0
 12 18  1  0  0  0  0
 12 33  1  0  0  0  0
 12 34  1  0  0  0  0
 13 14  2  0  0  0  0
 13 18  1  0  0  0  0
 14 15  1  0  0  0  0
 15 16  2  0  0  0  0
 16 17  1  0  0  0  0
 17 18  2  0  0  0  0
 17 35  1  0  0  0  0
M  END
$$$$
