VJJ
 OpenBabel04161910173D

 25 26  0  0  0  0  0  0  0  0999 V2000
   -3.5552    2.0042   15.9108 O   0  0  0  0  0  0  0  0  0  0  0  0
   -5.8061    2.1278   15.7116 O   0  0  0  0  0  0  0  0  0  0  0  0
   -0.4992    9.9807   13.9557 C   0  0  0  0  0  0  0  0  0  0  0  0
   -1.5115    9.5535   14.8182 C   0  0  0  0  0  0  0  0  0  0  0  0
    0.0307    9.1063   13.0071 C   0  0  0  0  0  0  0  0  0  0  0  0
   -5.4888    5.7950   13.6415 C   0  0  0  0  0  0  0  0  0  0  0  0
   -1.9931    8.2443   14.7376 C   0  0  0  0  0  0  0  0  0  0  0  0
   -0.4570    7.8052   12.9206 C   0  0  0  0  0  0  0  0  0  0  0  0
   -4.2219    6.3337   13.4178 C   0  0  0  0  0  0  0  0  0  0  0  0
   -5.6199    4.5724   14.3106 C   0  0  0  0  0  0  0  0  0  0  0  0
   -3.2311    4.4407   14.5614 C   0  0  0  0  0  0  0  0  0  0  0  0
   -1.8090    6.0570   13.6496 O   0  0  0  0  0  0  0  0  0  0  0  0
   -4.6306    2.5679   15.5254 C   0  0  0  0  0  0  0  0  0  0  0  0
   -1.4724    7.3780   13.7772 C   0  0  0  0  0  0  0  0  0  0  0  0
   -3.0977    5.6568   13.8915 C   0  0  0  0  0  0  0  0  0  0  0  0
   -4.4940    3.8810   14.7867 C   0  0  0  0  0  0  0  0  0  0  0  0
   -0.1136   10.9939   14.0296 H   0  0  0  0  0  0  0  0  0  0  0  0
   -1.9143   10.2328   15.5639 H   0  0  0  0  0  0  0  0  0  0  0  0
    0.8299    9.4261   12.3452 H   0  0  0  0  0  0  0  0  0  0  0  0
   -6.3751    6.3138   13.2909 H   0  0  0  0  0  0  0  0  0  0  0  0
   -2.7576    7.9114   15.4338 H   0  0  0  0  0  0  0  0  0  0  0  0
   -0.0455    7.1082   12.1938 H   0  0  0  0  0  0  0  0  0  0  0  0
   -4.1233    7.2650   12.8727 H   0  0  0  0  0  0  0  0  0  0  0  0
   -6.6082    4.1394   14.4627 H   0  0  0  0  0  0  0  0  0  0  0  0
   -2.3445    3.9151   14.9122 H   0  0  0  0  0  0  0  0  0  0  0  0
  1 13  2  0  0  0  0
  2 13  1  0  0  0  0
  3  4  2  0  0  0  0
  3  5  1  0  0  0  0
  3 17  1  0  0  0  0
  4  7  1  0  0  0  0
  4 18  1  0  0  0  0
  5  8  2  0  0  0  0
  5 19  1  0  0  0  0
  6  9  2  0  0  0  0
  6 10  1  0  0  0  0
  6 20  1  0  0  0  0
  7 14  2  0  0  0  0
  7 21  1  0  0  0  0
  8 14  1  0  0  0  0
  8 22  1  0  0  0  0
  9 15  1  0  0  0  0
  9 23  1  0  0  0  0
 10 16  2  0  0  0  0
 10 24  1  0  0  0  0
 11 15  2  0  0  0  0
 11 16  1  0  0  0  0
 11 25  1  0  0  0  0
 12 14  1  0  0  0  0
 12 15  1  0  0  0  0
 13 16  1  0  0  0  0
M  END
$$$$
