X6X
 OpenBabel04161910133D

 26 26  0  0  1  0  0  0  0  0999 V2000
   44.6158   -1.7323   12.7243 O   0  0  0  0  0  0  0  0  0  0  0  0
   45.1705   -2.6819   11.8221 C   0  0  2  0  0  0  0  0  0  0  0  0
   46.0891   -3.5832   12.6415 C   0  0  2  0  0  0  0  0  0  0  0  0
   45.4033   -4.2307   13.7246 O   0  0  0  0  0  0  0  0  0  0  0  0
   47.2301   -2.7423   13.2365 C   0  0  1  0  0  0  0  0  0  0  0  0
   48.1630   -3.6669   13.9707 N   0  3  0  0  0  0  0  0  0  0  0  0
   47.9835   -2.0391   12.1011 C   0  0  1  0  0  0  0  0  0  0  0  0
   48.7461   -3.0106   11.3861 O   0  0  0  0  0  0  0  0  0  0  0  0
   47.1379   -1.2805   11.2630 O   0  0  0  0  0  0  0  0  0  0  0  0
   46.0043   -1.9679   10.7157 C   0  0  2  0  0  0  0  0  0  0  0  0
   45.1591   -0.9638    9.9127 C   0  0  0  0  0  0  0  0  0  0  0  0
   45.9279   -0.3908    8.8501 O   0  0  0  0  0  0  0  0  0  0  0  0
   43.7758   -2.1097   13.0781 H   0  0  0  0  0  0  0  0  0  0  0  0
   44.3502   -3.2509   11.3600 H   0  0  0  0  0  0  0  0  0  0  0  0
   46.4793   -4.3825   12.0058 H   0  0  0  0  0  0  0  0  0  0  0  0
   44.9067   -3.5581   14.2375 H   0  0  0  0  0  0  0  0  0  0  0  0
   46.8512   -2.0348   13.9764 H   0  0  0  0  0  0  0  0  0  0  0  0
   48.9233   -3.1483   14.4288 H   0  0  0  0  0  0  0  0  0  0  0  0
   47.6475   -4.2126   14.6733 H   0  0  0  0  0  0  0  0  0  0  0  0
   48.7082   -1.3479   12.5416 H   0  0  0  0  0  0  0  0  0  0  0  0
   48.1754   -3.4325   10.7187 H   0  0  0  0  0  0  0  0  0  0  0  0
   46.3970   -2.7091   10.0066 H   0  0  0  0  0  0  0  0  0  0  0  0
   44.8266   -0.1376   10.5425 H   0  0  0  0  0  0  0  0  0  0  0  0
   44.2919   -1.4531    9.4734 H   0  0  0  0  0  0  0  0  0  0  0  0
   46.2406   -1.0932    8.2595 H   0  0  0  0  0  0  0  0  0  0  0  0
   48.6071   -4.3179   13.3123 H   0  0  0  0  0  0  0  0  0  0  0  0
  1  2  1  0  0  0  0
  1 13  1  0  0  0  0
  2  3  1  0  0  0  0
  2 10  1  0  0  0  0
  2 14  1  6  0  0  0
  3  4  1  0  0  0  0
  3  5  1  0  0  0  0
  3 15  1  6  0  0  0
  4 16  1  0  0  0  0
  5  6  1  0  0  0  0
  5  7  1  0  0  0  0
  5 17  1  1  0  0  0
  6 18  1  0  0  0  0
  6 19  1  0  0  0  0
  6 26  1  0  0  0  0
  7  8  1  0  0  0  0
  7  9  1  0  0  0  0
  7 20  1  1  0  0  0
  8 21  1  0  0  0  0
  9 10  1  0  0  0  0
 10 11  1  0  0  0  0
 10 22  1  6  0  0  0
 11 12  1  0  0  0  0
 11 23  1  0  0  0  0
 11 24  1  0  0  0  0
 12 25  1  0  0  0  0
M  CHG  1   6   1
M  END
$$$$
