XNH
 OpenBabel04161910553D

 69 73  0  0  1  0  0  0  0  0999 V2000
   61.8975   50.8993  126.2395 C   0  0  0  0  0  0  0  0  0  0  0  0
   62.9340   49.0751  126.8071 C   0  0  0  0  0  0  0  0  0  0  0  0
   63.6168   48.2456  127.7268 C   0  0  0  0  0  0  0  0  0  0  0  0
   62.3037   50.7312  142.5862 N   0  0  0  0  0  0  0  0  0  0  0  0
   61.9614   51.2472  132.3250 C   0  0  0  0  0  0  0  0  0  0  0  0
   62.8961   50.7630  133.4313 C   0  0  0  0  0  0  0  0  0  0  0  0
   63.7584   49.6231  132.8806 C   0  0  0  0  0  0  0  0  0  0  0  0
   64.5287   50.0639  131.6381 C   0  0  0  0  0  0  0  0  0  0  0  0
   62.1718   50.4371  134.7214 C   0  0  0  0  0  0  0  0  0  0  0  0
   61.8620   51.4703  135.6082 C   0  0  0  0  0  0  0  0  0  0  0  0
   61.2147   51.2065  136.8093 C   0  0  0  0  0  0  0  0  0  0  0  0
   60.8644   49.9097  137.1459 C   0  0  0  0  0  0  0  0  0  0  0  0
   59.8333   48.5622  138.8220 C   0  0  0  0  0  0  0  0  0  0  0  0
   59.2595   48.8316  140.2077 C   0  0  0  0  0  0  0  0  0  0  0  0
   63.4343   51.4160  143.1949 C   0  0  0  0  0  0  0  0  0  0  0  0
   62.1832   49.3695  142.7558 C   0  0  0  0  0  0  0  0  0  0  0  0
   61.0035   48.6447  142.1196 C   0  0  1  0  0  0  0  0  0  0  0  0
   60.0379   48.2313  143.2041 C   0  0  0  0  0  0  0  0  0  0  0  0
   61.8185   49.1351  135.0736 C   0  0  0  0  0  0  0  0  0  0  0  0
   62.9977   48.7208  143.4475 O   0  0  0  0  0  0  0  0  0  0  0  0
   61.3480   51.5521  141.8588 C   0  0  0  0  0  0  0  0  0  0  0  0
   60.0752   50.8525  141.4223 C   0  0  0  0  0  0  0  0  0  0  0  0
   60.3599   49.4476  141.0272 N   0  3  2  0  0  0  0  0  0  0  0  0
   60.2487   49.8356  138.3504 O   0  0  0  0  0  0  0  0  0  0  0  0
   61.1495   48.8700  136.2740 C   0  0  0  0  0  0  0  0  0  0  0  0
   62.7794   51.6967  131.1115 C   0  0  0  0  0  0  0  0  0  0  0  0
   63.6213   50.5946  130.6337 N   0  0  0  0  0  0  0  0  0  0  0  0
   63.4343   50.0845  129.3497 C   0  0  0  0  0  0  0  0  0  0  0  0
   63.8762   48.7067  128.9531 C   0  0  0  0  0  0  0  0  0  0  0  0
   62.8148   50.8586  128.4957 N   0  0  0  0  0  0  0  0  0  0  0  0
   62.5928   50.3219  127.2664 N   0  3  0  0  0  0  0  0  0  0  0  0
   62.5083   48.9232  125.5686 N   0  0  0  0  0  0  0  0  0  0  0  0
   61.8451   50.0851  125.2016 N   0  0  0  0  0  0  0  0  0  0  0  0
   61.3819   52.1190  126.3598 O   0  0  0  0  0  0  0  0  0  0  0  0
   60.4175   52.4852  125.3872 C   0  0  0  0  0  0  0  0  0  0  0  0
   63.9200   47.2485  127.4309 H   0  0  0  0  0  0  0  0  0  0  0  0
   61.3662   52.0904  132.6922 H   0  0  0  0  0  0  0  0  0  0  0  0
   61.2820   50.4370  132.0293 H   0  0  0  0  0  0  0  0  0  0  0  0
   63.5746   51.5876  133.6714 H   0  0  0  0  0  0  0  0  0  0  0  0
   63.1201   48.7686  132.6190 H   0  0  0  0  0  0  0  0  0  0  0  0
   64.4669   49.3071  133.6549 H   0  0  0  0  0  0  0  0  0  0  0  0
   65.0830   49.2140  131.2447 H   0  0  0  0  0  0  0  0  0  0  0  0
   65.2478   50.8413  131.9227 H   0  0  0  0  0  0  0  0  0  0  0  0
   62.1356   52.4926  135.3760 H   0  0  0  0  0  0  0  0  0  0  0  0
   60.9645   52.0206  137.4824 H   0  0  0  0  0  0  0  0  0  0  0  0
   59.0579   48.1352  138.1908 H   0  0  0  0  0  0  0  0  0  0  0  0
   60.6901   47.8861  138.9102 H   0  0  0  0  0  0  0  0  0  0  0  0
   58.9151   47.9153  140.6762 H   0  0  0  0  0  0  0  0  0  0  0  0
   58.4441   49.5622  140.1431 H   0  0  0  0  0  0  0  0  0  0  0  0
   63.3722   52.4821  142.9665 H   0  0  0  0  0  0  0  0  0  0  0  0
   64.3687   51.0086  142.7954 H   0  0  0  0  0  0  0  0  0  0  0  0
   63.4090   51.2704  144.2800 H   0  0  0  0  0  0  0  0  0  0  0  0
   61.4019   47.7485  141.6377 H   0  0  0  0  0  0  0  0  0  0  0  0
   60.5826   47.6701  143.9783 H   0  0  0  0  0  0  0  0  0  0  0  0
   59.2639   47.5827  142.7947 H   0  0  0  0  0  0  0  0  0  0  0  0
   59.5752   49.1014  143.6767 H   0  0  0  0  0  0  0  0  0  0  0  0
   62.0720   48.3113  134.4129 H   0  0  0  0  0  0  0  0  0  0  0  0
   61.8595   51.9480  140.9761 H   0  0  0  0  0  0  0  0  0  0  0  0
   61.0597   52.3809  142.5110 H   0  0  0  0  0  0  0  0  0  0  0  0
   59.6586   51.3626  140.5511 H   0  0  0  0  0  0  0  0  0  0  0  0
   59.3481   50.8289  142.2332 H   0  0  0  0  0  0  0  0  0  0  0  0
   60.8545   47.8498  136.4841 H   0  0  0  0  0  0  0  0  0  0  0  0
   63.4103   52.5444  131.4000 H   0  0  0  0  0  0  0  0  0  0  0  0
   62.0828   52.0286  130.3357 H   0  0  0  0  0  0  0  0  0  0  0  0
   64.3989   48.0999  129.6846 H   0  0  0  0  0  0  0  0  0  0  0  0
   60.0812   53.5104  125.6031 H   0  0  0  0  0  0  0  0  0  0  0  0
   59.5504   51.8200  125.4409 H   0  0  0  0  0  0  0  0  0  0  0  0
   60.8496   52.4637  124.3856 H   0  0  0  0  0  0  0  0  0  0  0  0
   61.1315   49.5467  140.3511 H   0  0  0  0  0  0  0  0  0  0  0  0
  1 31  1  0  0  0  0
  1 33  2  0  0  0  0
  1 34  1  0  0  0  0
  2  3  2  0  0  0  0
  2 31  1  0  0  0  0
  2 32  1  0  0  0  0
  3 29  1  0  0  0  0
  3 36  1  0  0  0  0
  4 15  1  0  0  0  0
  4 16  1  0  0  0  0
  4 21  1  0  0  0  0
  5  6  1  0  0  0  0
  5 26  1  0  0  0  0
  5 37  1  0  0  0  0
  5 38  1  0  0  0  0
  6  7  1  0  0  0  0
  6  9  1  0  0  0  0
  6 39  1  0  0  0  0
  7  8  1  0  0  0  0
  7 40  1  0  0  0  0
  7 41  1  0  0  0  0
  8 27  1  0  0  0  0
  8 42  1  0  0  0  0
  8 43  1  0  0  0  0
  9 10  2  0  0  0  0
  9 19  1  0  0  0  0
 10 11  1  0  0  0  0
 10 44  1  0  0  0  0
 11 12  2  0  0  0  0
 11 45  1  0  0  0  0
 12 24  1  0  0  0  0
 12 25  1  0  0  0  0
 13 14  1  0  0  0  0
 13 24  1  0  0  0  0
 13 46  1  0  0  0  0
 13 47  1  0  0  0  0
 14 23  1  0  0  0  0
 14 48  1  0  0  0  0
 14 49  1  0  0  0  0
 15 50  1  0  0  0  0
 15 51  1  0  0  0  0
 15 52  1  0  0  0  0
 16 17  1  0  0  0  0
 16 20  2  0  0  0  0
 17 18  1  0  0  0  0
 17 23  1  0  0  0  0
 17 53  1  6  0  0  0
 18 54  1  0  0  0  0
 18 55  1  0  0  0  0
 18 56  1  0  0  0  0
 19 25  2  0  0  0  0
 19 57  1  0  0  0  0
 21 22  1  0  0  0  0
 21 58  1  0  0  0  0
 21 59  1  0  0  0  0
 22 23  1  0  0  0  0
 22 60  1  0  0  0  0
 22 61  1  0  0  0  0
 23 69  1  6  0  0  0
 25 62  1  0  0  0  0
 26 27  1  0  0  0  0
 26 63  1  0  0  0  0
 26 64  1  0  0  0  0
 27 28  1  0  0  0  0
 28 29  2  0  0  0  0
 28 30  1  0  0  0  0
 29 65  1  0  0  0  0
 30 31  2  0  0  0  0
 32 33  1  0  0  0  0
 34 35  1  0  0  0  0
 35 66  1  0  0  0  0
 35 67  1  0  0  0  0
 35 68  1  0  0  0  0
M  CHG  2  23   1  31   1
M  END
$$$$
