XOS
 OpenBabel04161911593D

 29 30  0  0  0  0  0  0  0  0999 V2000
  -20.4913    0.6292  -30.5729 C   0  0  0  0  0  0  0  0  0  0  0  0
  -21.5659   -0.0549  -29.9881 C   0  0  0  0  0  0  0  0  0  0  0  0
  -21.6573   -0.0927  -28.5812 C   0  0  0  0  0  0  0  0  0  0  0  0
  -20.7013    0.5265  -27.7636 C   0  0  0  0  0  0  0  0  0  0  0  0
  -19.6420    1.2086  -28.3874 C   0  0  0  0  0  0  0  0  0  0  0  0
  -19.5364    1.2610  -29.7800 C   0  0  0  0  0  0  0  0  0  0  0  0
  -20.7476    0.5132  -26.2851 C   0  0  0  0  0  0  0  0  0  0  0  0
  -21.6315   -0.1458  -25.5123 C   0  0  0  0  0  0  0  0  0  0  0  0
  -21.5918   -0.0928  -24.0418 C   0  0  0  0  0  0  0  0  0  0  0  0
  -21.4875    1.1278  -23.3610 C   0  0  0  0  0  0  0  0  0  0  0  0
  -21.4633    1.1691  -21.9626 C   0  0  0  0  0  0  0  0  0  0  0  0
  -21.5547   -0.0140  -21.2412 C   0  0  0  0  0  0  0  0  0  0  0  0
  -21.6759   -1.2345  -21.8957 C   0  0  0  0  0  0  0  0  0  0  0  0
  -21.7013   -1.2718  -23.2946 C   0  0  0  0  0  0  0  0  0  0  0  0
  -22.6052   -0.7404  -30.8551 C   0  0  0  0  0  0  0  0  0  0  0  0
  -21.5312   -0.0143  -19.8762 O   0  0  0  0  0  0  0  0  0  0  0  0
  -22.3042   -0.9286  -32.0753 O   0  0  0  0  0  0  0  0  0  0  0  0
  -23.6957   -1.0738  -30.2947 O   0  0  0  0  0  0  0  0  0  0  0  0
  -20.4129    0.6634  -31.6583 H   0  0  0  0  0  0  0  0  0  0  0  0
  -22.5029   -0.6277  -28.1537 H   0  0  0  0  0  0  0  0  0  0  0  0
  -18.8804    1.7067  -27.7938 H   0  0  0  0  0  0  0  0  0  0  0  0
  -18.7133    1.7883  -30.2497 H   0  0  0  0  0  0  0  0  0  0  0  0
  -19.9648    1.0942  -25.8033 H   0  0  0  0  0  0  0  0  0  0  0  0
  -22.4144   -0.7639  -25.9404 H   0  0  0  0  0  0  0  0  0  0  0  0
  -21.4330    2.0599  -23.9191 H   0  0  0  0  0  0  0  0  0  0  0  0
  -21.3766    2.1300  -21.4656 H   0  0  0  0  0  0  0  0  0  0  0  0
  -21.7516   -2.1542  -21.3229 H   0  0  0  0  0  0  0  0  0  0  0  0
  -21.7942   -2.2345  -23.7967 H   0  0  0  0  0  0  0  0  0  0  0  0
  -21.4497    0.9068  -19.5735 H   0  0  0  0  0  0  0  0  0  0  0  0
  1  2  2  0  0  0  0
  1  6  1  0  0  0  0
  1 19  1  0  0  0  0
  2  3  1  0  0  0  0
  2 15  1  0  0  0  0
  3  4  2  0  0  0  0
  3 20  1  0  0  0  0
  4  5  1  0  0  0  0
  4  7  1  0  0  0  0
  5  6  2  0  0  0  0
  5 21  1  0  0  0  0
  6 22  1  0  0  0  0
  7  8  2  0  0  0  0
  7 23  1  0  0  0  0
  8  9  1  0  0  0  0
  8 24  1  0  0  0  0
  9 10  2  0  0  0  0
  9 14  1  0  0  0  0
 10 11  1  0  0  0  0
 10 25  1  0  0  0  0
 11 12  2  0  0  0  0
 11 26  1  0  0  0  0
 12 13  1  0  0  0  0
 12 16  1  0  0  0  0
 13 14  2  0  0  0  0
 13 27  1  0  0  0  0
 14 28  1  0  0  0  0
 15 17  2  0  0  0  0
 15 18  1  0  0  0  0
 16 29  1  0  0  0  0
M  END
$$$$
