XYY
 OpenBabel04161910193D

 49 51  0  0  1  0  0  0  0  0999 V2000
   13.1198   64.6535   30.3308 C   0  0  0  0  0  0  0  0  0  0  0  0
   17.1689   65.0280   32.6237 Cl  0  0  0  0  0  0  0  0  0  0  0  0
   13.9198   65.4192   31.3059 N   0  0  0  0  0  0  0  0  0  0  0  0
   14.9945   66.2575   30.7217 C   0  0  0  0  0  0  0  0  0  0  0  0
   16.1255   65.4505   30.1213 C   0  0  0  0  0  0  0  0  0  0  0  0
   16.1652   65.2534   28.7254 C   0  0  0  0  0  0  0  0  0  0  0  0
   17.1538   64.4567   28.1191 C   0  0  0  0  0  0  0  0  0  0  0  0
   18.1425   63.8876   28.9299 C   0  0  0  0  0  0  0  0  0  0  0  0
   18.1264   64.0821   30.3117 C   0  0  0  0  0  0  0  0  0  0  0  0
   17.1207   64.8503   30.9060 C   0  0  0  0  0  0  0  0  0  0  0  0
   17.1710   64.2024   26.6026 C   0  0  2  0  0  0  0  0  0  0  0  0
   17.8149   65.4096   25.9071 C   0  0  0  0  0  0  0  0  0  0  0  0
   18.1144   65.1245   24.4386 C   0  0  0  0  0  0  0  0  0  0  0  0
   17.7332   66.0309   23.6431 O   0  0  0  0  0  0  0  0  0  0  0  0
   18.7171   64.0436   24.1977 O   0  0  0  0  0  0  0  0  0  0  0  0
   15.7864   63.7764   26.0905 C   0  0  0  0  0  0  0  0  0  0  0  0
   15.0109   64.5811   25.2343 C   0  0  0  0  0  0  0  0  0  0  0  0
   13.7580   64.1766   24.7576 C   0  0  0  0  0  0  0  0  0  0  0  0
   13.2981   62.9316   25.1788 C   0  0  0  0  0  0  0  0  0  0  0  0
   12.1714   62.2019   24.9309 N   0  3  0  0  0  0  0  0  0  0  0  0
   11.0626   62.5613   24.0898 C   0  0  0  0  0  0  0  0  0  0  0  0
   12.1659   61.0324   25.5984 N   0  0  0  0  0  0  0  0  0  0  0  0
   13.3073   60.9586   26.2726 N   0  0  0  0  0  0  0  0  0  0  0  0
   14.0210   62.1043   26.0325 C   0  0  0  0  0  0  0  0  0  0  0  0
   15.2777   62.5200   26.4916 C   0  0  0  0  0  0  0  0  0  0  0  0
   13.0970   66.0331   32.6451 S   0  0  0  0  0  0  0  0  0  0  0  0
   12.1527   65.0343   33.0995 O   0  0  0  0  0  0  0  0  0  0  0  0
   14.0550   66.6201   33.5581 O   0  0  0  0  0  0  0  0  0  0  0  0
   12.1503   67.3750   31.9507 C   0  0  0  0  0  0  0  0  0  0  0  0
   13.7370   64.2484   29.5251 H   0  0  0  0  0  0  0  0  0  0  0  0
   12.3497   65.2822   29.8772 H   0  0  0  0  0  0  0  0  0  0  0  0
   12.6512   63.7956   30.8203 H   0  0  0  0  0  0  0  0  0  0  0  0
   15.4186   66.9388   31.4682 H   0  0  0  0  0  0  0  0  0  0  0  0
   14.5565   66.9113   29.9566 H   0  0  0  0  0  0  0  0  0  0  0  0
   15.3971   65.7028   28.0971 H   0  0  0  0  0  0  0  0  0  0  0  0
   18.9317   63.2835   28.4849 H   0  0  0  0  0  0  0  0  0  0  0  0
   18.9000   63.6241   30.9221 H   0  0  0  0  0  0  0  0  0  0  0  0
   17.8194   63.3319   26.4289 H   0  0  0  0  0  0  0  0  0  0  0  0
   18.7771   65.6528   26.3773 H   0  0  0  0  0  0  0  0  0  0  0  0
   17.1931   66.3083   26.0052 H   0  0  0  0  0  0  0  0  0  0  0  0
   15.3890   65.5428   24.8892 H   0  0  0  0  0  0  0  0  0  0  0  0
   13.1990   64.8052   24.0738 H   0  0  0  0  0  0  0  0  0  0  0  0
   10.3174   61.7610   24.1009 H   0  0  0  0  0  0  0  0  0  0  0  0
   11.4300   62.7103   23.0716 H   0  0  0  0  0  0  0  0  0  0  0  0
   10.6200   63.4827   24.4766 H   0  0  0  0  0  0  0  0  0  0  0  0
   15.8521   61.8705   27.1457 H   0  0  0  0  0  0  0  0  0  0  0  0
   11.5834   67.8338   32.7659 H   0  0  0  0  0  0  0  0  0  0  0  0
   11.4574   66.9856   31.2045 H   0  0  0  0  0  0  0  0  0  0  0  0
   12.8279   68.1119   31.5191 H   0  0  0  0  0  0  0  0  0  0  0  0
  1  3  1  0  0  0  0
  1 30  1  0  0  0  0
  1 31  1  0  0  0  0
  1 32  1  0  0  0  0
  2 10  1  0  0  0  0
  3  4  1  0  0  0  0
  3 26  1  0  0  0  0
  4  5  1  0  0  0  0
  4 33  1  0  0  0  0
  4 34  1  0  0  0  0
  5  6  2  0  0  0  0
  5 10  1  0  0  0  0
  6  7  1  0  0  0  0
  6 35  1  0  0  0  0
  7  8  2  0  0  0  0
  7 11  1  0  0  0  0
  8  9  1  0  0  0  0
  8 36  1  0  0  0  0
  9 10  2  0  0  0  0
  9 37  1  0  0  0  0
 11 12  1  0  0  0  0
 11 16  1  0  0  0  0
 11 38  1  6  0  0  0
 12 13  1  0  0  0  0
 12 39  1  0  0  0  0
 12 40  1  0  0  0  0
 13 14  2  0  0  0  0
 13 15  1  0  0  0  0
 16 17  1  0  0  0  0
 16 25  2  0  0  0  0
 17 18  2  0  0  0  0
 17 41  1  0  0  0  0
 18 19  1  0  0  0  0
 18 42  1  0  0  0  0
 19 20  2  0  0  0  0
 19 24  1  0  0  0  0
 20 21  1  0  0  0  0
 20 22  1  0  0  0  0
 21 43  1  0  0  0  0
 21 44  1  0  0  0  0
 21 45  1  0  0  0  0
 22 23  1  0  0  0  0
 23 24  2  0  0  0  0
 24 25  1  0  0  0  0
 25 46  1  0  0  0  0
 26 27  2  0  0  0  0
 26 28  2  0  0  0  0
 26 29  1  0  0  0  0
 29 47  1  0  0  0  0
 29 48  1  0  0  0  0
 29 49  1  0  0  0  0
M  CHG  1  20   1
M  END
$$$$
