XZN
 OpenBabel04161912093D

 66 69  0  0  0  0  0  0  0  0999 V2000
   -4.1227    7.5364    9.2565 C   0  0  0  0  0  0  0  0  0  0  0  0
   -1.1684   -2.0158   11.3769 O   0  0  0  0  0  0  0  0  0  0  0  0
   -9.0204    9.9108   10.7088 C   0  0  0  0  0  0  0  0  0  0  0  0
   -2.6350    1.4034   15.0922 N   0  0  0  0  0  0  0  0  0  0  0  0
   -4.0626   -1.6847   12.1772 Cl  0  0  0  0  0  0  0  0  0  0  0  0
    0.9161    0.0862   10.8142 Cl  0  0  0  0  0  0  0  0  0  0  0  0
   -3.2114    2.2845   14.6830 C   0  0  0  0  0  0  0  0  0  0  0  0
   -4.8014    3.9706   15.0862 C   0  0  0  0  0  0  0  0  0  0  0  0
   -6.2963    6.6073   13.1960 C   0  0  0  0  0  0  0  0  0  0  0  0
   -4.6604    5.5447   11.2235 C   0  0  0  0  0  0  0  0  0  0  0  0
   -8.9633    9.7661   12.2415 C   0  0  0  0  0  0  0  0  0  0  0  0
   -7.9360    8.7318   12.7292 C   0  0  0  0  0  0  0  0  0  0  0  0
  -10.6246   12.9429    7.4959 C   0  0  0  0  0  0  0  0  0  0  0  0
  -10.1989   12.0630   10.3872 C   0  0  0  0  0  0  0  0  0  0  0  0
  -10.5422   10.2026    8.8113 C   0  0  0  0  0  0  0  0  0  0  0  0
  -11.4679   12.7601    9.8538 C   0  0  0  0  0  0  0  0  0  0  0  0
  -11.8179   10.8741    8.2702 C   0  0  0  0  0  0  0  0  0  0  0  0
   -5.5590    5.0226   14.7571 N   0  0  0  0  0  0  0  0  0  0  0  0
   -2.9757    3.2708   11.9072 N   0  0  0  0  0  0  0  0  0  0  0  0
   -5.4551    7.2031    9.6671 O   0  0  0  0  0  0  0  0  0  0  0  0
   -7.1046    8.2760   11.6428 O   0  0  0  0  0  0  0  0  0  0  0  0
   -1.5940   -0.7112   11.5244 C   0  0  0  0  0  0  0  0  0  0  0  0
   -2.9190   -0.4283   11.8659 C   0  0  0  0  0  0  0  0  0  0  0  0
   -1.1711    1.6910   11.3932 C   0  0  0  0  0  0  0  0  0  0  0  0
   -3.9627    3.3722   14.1788 C   0  0  0  0  0  0  0  0  0  0  0  0
   -2.4982    1.9573   11.7511 C   0  0  0  0  0  0  0  0  0  0  0  0
   -5.4675    6.6567   10.9350 C   0  0  0  0  0  0  0  0  0  0  0  0
   -6.3089    7.1896   11.9257 C   0  0  0  0  0  0  0  0  0  0  0  0
   -3.8496    3.8538   12.8672 C   0  0  0  0  0  0  0  0  0  0  0  0
   -5.4958    5.5128   13.5040 C   0  0  0  0  0  0  0  0  0  0  0  0
   -4.6566    4.9611   12.5113 C   0  0  0  0  0  0  0  0  0  0  0  0
  -10.2403   10.5947   10.2103 N   0  0  0  0  0  0  0  0  0  0  0  0
   -3.3625    0.8876   11.9847 C   0  0  0  0  0  0  0  0  0  0  0  0
  -11.6826   12.3810    8.3989 N   0  3  0  0  0  0  0  0  0  0  0  0
   -0.5675   -2.5220   12.5799 C   0  0  0  0  0  0  0  0  0  0  0  0
   -0.7315    0.3615   11.2700 C   0  0  0  0  0  0  0  0  0  0  0  0
   -4.1542    7.9647    8.2461 H   0  0  0  0  0  0  0  0  0  0  0  0
   -3.4839    6.6500    9.2302 H   0  0  0  0  0  0  0  0  0  0  0  0
   -3.6971    8.2773    9.9422 H   0  0  0  0  0  0  0  0  0  0  0  0
   -8.9842    8.8970   10.2790 H   0  0  0  0  0  0  0  0  0  0  0  0
   -8.1254   10.4551   10.3804 H   0  0  0  0  0  0  0  0  0  0  0  0
   -4.8753    3.5929   16.1161 H   0  0  0  0  0  0  0  0  0  0  0  0
   -6.9352    7.0140   13.9853 H   0  0  0  0  0  0  0  0  0  0  0  0
   -4.0289    5.1281   10.4402 H   0  0  0  0  0  0  0  0  0  0  0  0
   -9.9539    9.4757   12.6240 H   0  0  0  0  0  0  0  0  0  0  0  0
   -8.7069   10.7394   12.6894 H   0  0  0  0  0  0  0  0  0  0  0  0
   -8.4802    7.8757   13.1686 H   0  0  0  0  0  0  0  0  0  0  0  0
   -7.2949    9.1760   13.5121 H   0  0  0  0  0  0  0  0  0  0  0  0
  -10.5763   14.0198    7.6540 H   0  0  0  0  0  0  0  0  0  0  0  0
  -10.9003   12.7181    6.4663 H   0  0  0  0  0  0  0  0  0  0  0  0
   -9.6671   12.4858    7.7380 H   0  0  0  0  0  0  0  0  0  0  0  0
  -10.1175   12.3127   11.4507 H   0  0  0  0  0  0  0  0  0  0  0  0
   -9.3309   12.4905    9.8657 H   0  0  0  0  0  0  0  0  0  0  0  0
   -9.7065   10.4631    8.1489 H   0  0  0  0  0  0  0  0  0  0  0  0
  -10.6988    9.1178    8.7512 H   0  0  0  0  0  0  0  0  0  0  0  0
  -11.3856   13.8521    9.8990 H   0  0  0  0  0  0  0  0  0  0  0  0
  -12.3564   12.4400   10.4134 H   0  0  0  0  0  0  0  0  0  0  0  0
  -12.6991   10.5683    8.8494 H   0  0  0  0  0  0  0  0  0  0  0  0
  -11.9830   10.6469    7.2112 H   0  0  0  0  0  0  0  0  0  0  0  0
   -2.6713    3.9114   11.1827 H   0  0  0  0  0  0  0  0  0  0  0  0
   -0.4659    2.5037   11.2073 H   0  0  0  0  0  0  0  0  0  0  0  0
   -4.3976    1.0949   12.2533 H   0  0  0  0  0  0  0  0  0  0  0  0
   -0.2419   -3.5621   12.4054 H   0  0  0  0  0  0  0  0  0  0  0  0
   -1.2901   -2.5202   13.4015 H   0  0  0  0  0  0  0  0  0  0  0  0
    0.3100   -1.9302   12.8567 H   0  0  0  0  0  0  0  0  0  0  0  0
  -12.5756   12.7880    8.1111 H   0  0  0  0  0  0  0  0  0  0  0  0
  1 20  1  0  0  0  0
  1 37  1  0  0  0  0
  1 38  1  0  0  0  0
  1 39  1  0  0  0  0
  2 22  1  0  0  0  0
  2 35  1  0  0  0  0
  3 11  1  0  0  0  0
  3 32  1  0  0  0  0
  3 40  1  0  0  0  0
  3 41  1  0  0  0  0
  4  7  3  0  0  0  0
  5 23  1  0  0  0  0
  6 36  1  0  0  0  0
  7 25  1  0  0  0  0
  8 18  2  0  0  0  0
  8 25  1  0  0  0  0
  8 42  1  0  0  0  0
  9 28  2  0  0  0  0
  9 30  1  0  0  0  0
  9 43  1  0  0  0  0
 10 27  2  0  0  0  0
 10 31  1  0  0  0  0
 10 44  1  0  0  0  0
 11 12  1  0  0  0  0
 11 45  1  0  0  0  0
 11 46  1  0  0  0  0
 12 21  1  0  0  0  0
 12 47  1  0  0  0  0
 12 48  1  0  0  0  0
 13 34  1  0  0  0  0
 13 49  1  0  0  0  0
 13 50  1  0  0  0  0
 13 51  1  0  0  0  0
 14 16  1  0  0  0  0
 14 32  1  0  0  0  0
 14 52  1  0  0  0  0
 14 53  1  0  0  0  0
 15 17  1  0  0  0  0
 15 32  1  0  0  0  0
 15 54  1  0  0  0  0
 15 55  1  0  0  0  0
 16 34  1  0  0  0  0
 16 56  1  0  0  0  0
 16 57  1  0  0  0  0
 17 34  1  0  0  0  0
 17 58  1  0  0  0  0
 17 59  1  0  0  0  0
 18 30  1  0  0  0  0
 19 26  1  0  0  0  0
 19 29  1  0  0  0  0
 19 60  1  0  0  0  0
 20 27  1  0  0  0  0
 21 28  1  0  0  0  0
 22 23  2  0  0  0  0
 22 36  1  0  0  0  0
 23 33  1  0  0  0  0
 24 26  1  0  0  0  0
 24 36  2  0  0  0  0
 24 61  1  0  0  0  0
 25 29  2  0  0  0  0
 26 33  2  0  0  0  0
 27 28  1  0  0  0  0
 29 31  1  0  0  0  0
 30 31  2  0  0  0  0
 33 62  1  0  0  0  0
 34 66  1  0  0  0  0
 35 63  1  0  0  0  0
 35 64  1  0  0  0  0
 35 65  1  0  0  0  0
M  CHG  1  34   1
M  END
$$$$
