Y0V
 OpenBabel04161909363D

 23 24  0  0  0  0  0  0  0  0999 V2000
   90.9391   95.4834  -44.7414 C   0  0  0  0  0  0  0  0  0  0  0  0
   92.4292   94.3128  -40.7755 I   0  0  0  0  0  0  0  0  0  0  0  0
   92.5233   91.9189  -43.0556 N   0  3  0  0  0  0  0  0  0  0  0  0
   90.1409   97.7352  -44.6140 O   0  0  0  0  0  0  0  0  0  0  0  0
   91.0431   94.3015  -45.4942 C   0  0  0  0  0  0  0  0  0  0  0  0
   91.6222   91.4841  -46.2975 I   0  0  0  0  0  0  0  0  0  0  0  0
   91.2088   96.5121  -42.5583 O   0  0  0  0  0  0  0  0  0  0  0  0
   91.5272   93.1105  -44.9632 C   0  0  0  0  0  0  0  0  0  0  0  0
   90.1806   96.6988  -46.6472 O   0  0  0  0  0  0  0  0  0  0  0  0
   91.9730   93.0925  -43.6217 C   0  0  0  0  0  0  0  0  0  0  0  0
   91.8748   94.2442  -42.8507 C   0  0  0  0  0  0  0  0  0  0  0  0
   91.3464   95.4450  -43.3968 C   0  0  0  0  0  0  0  0  0  0  0  0
   93.8634   91.7504  -42.7737 C   0  0  0  0  0  0  0  0  0  0  0  0
   94.0331   90.5780  -42.0710 C   0  0  0  0  0  0  0  0  0  0  0  0
   92.7485   90.0120  -41.8900 C   0  0  0  0  0  0  0  0  0  0  0  0
   91.8364   90.8601  -42.4844 C   0  0  0  0  0  0  0  0  0  0  0  0
   90.3803   96.7345  -45.3918 C   0  0  0  0  0  0  0  0  0  0  0  0
   90.7230   94.3508  -46.5502 H   0  0  0  0  0  0  0  0  0  0  0  0
   90.3855   96.9516  -42.8155 H   0  0  0  0  0  0  0  0  0  0  0  0
   94.5905   92.4875  -43.0864 H   0  0  0  0  0  0  0  0  0  0  0  0
   94.9748   90.1852  -41.7201 H   0  0  0  0  0  0  0  0  0  0  0  0
   92.5133   89.1002  -41.3647 H   0  0  0  0  0  0  0  0  0  0  0  0
   90.7504   90.8048  -42.5268 H   0  0  0  0  0  0  0  0  0  0  0  0
  1  5  2  0  0  0  0
  1 12  1  0  0  0  0
  1 17  1  0  0  0  0
  2 11  1  0  0  0  0
  3 10  1  0  0  0  0
  3 13  1  0  0  0  0
  3 16  1  0  0  0  0
  4 17  2  0  0  0  0
  5  8  1  0  0  0  0
  5 18  1  0  0  0  0
  6  8  1  0  0  0  0
  7 12  1  0  0  0  0
  7 19  1  0  0  0  0
  8 10  2  0  0  0  0
  9 17  1  0  0  0  0
 10 11  1  0  0  0  0
 11 12  2  0  0  0  0
 13 14  1  0  0  0  0
 13 20  1  0  0  0  0
 14 15  1  0  0  0  0
 14 21  1  0  0  0  0
 15 16  1  0  0  0  0
 15 22  1  0  0  0  0
 16 23  1  0  0  0  0
M  CHG  1   3   1
M  END
$$$$
