YH5
 OpenBabel04161911583D

 36 38  0  0  0  0  0  0  0  0999 V2000
   10.4197    1.5759   23.7303 C   0  0  0  0  0  0  0  0  0  0  0  0
   10.2182    1.9929   22.6014 O   0  0  0  0  0  0  0  0  0  0  0  0
    8.5044   -0.0863   24.0128 N   0  3  0  0  0  0  0  0  0  0  0  0
    6.8038   -1.9178   25.2147 S   0  0  0  0  0  0  0  0  0  0  0  0
    4.7406   -4.4886   19.6830 C   0  0  0  0  0  0  0  0  0  0  0  0
    3.6701   -3.6143   19.4677 C   0  0  0  0  0  0  0  0  0  0  0  0
    3.4748   -2.5221   20.3022 C   0  0  0  0  0  0  0  0  0  0  0  0
    4.3324   -2.3256   21.3735 C   0  0  0  0  0  0  0  0  0  0  0  0
    2.4231   -5.1023   18.2065 C   0  0  0  0  0  0  0  0  0  0  0  0
    8.9691   -0.7035   26.1069 N   0  0  0  0  0  0  0  0  0  0  0  0
    9.6187    0.6109   24.3995 C   0  0  0  0  0  0  0  0  0  0  0  0
    7.2708   -3.7877   22.8914 O   0  0  0  0  0  0  0  0  0  0  0  0
   10.8914    0.6529   26.3782 N   0  3  0  0  0  0  0  0  0  0  0  0
    8.1533   -0.8670   25.0921 C   0  0  0  0  0  0  0  0  0  0  0  0
    2.7819   -3.7444   18.4379 O   0  0  0  0  0  0  0  0  0  0  0  0
    9.8696    0.1894   25.6657 C   0  0  0  0  0  0  0  0  0  0  0  0
   11.4706    2.0155   24.5164 N   0  3  0  0  0  0  0  0  0  0  0  0
   11.7097    1.5753   25.8147 C   0  0  0  0  0  0  0  0  0  0  0  0
   12.7182    2.0661   26.4450 N   0  0  0  0  0  0  0  0  0  0  0  0
    6.0166   -1.8416   23.6278 C   0  0  0  0  0  0  0  0  0  0  0  0
    6.3141   -3.0307   22.7544 C   0  0  0  0  0  0  0  0  0  0  0  0
    5.3895   -3.2194   21.6105 C   0  0  0  0  0  0  0  0  0  0  0  0
    5.5974   -4.2998   20.7586 C   0  0  0  0  0  0  0  0  0  0  0  0
    8.0526   -0.0074   23.1080 H   0  0  0  0  0  0  0  0  0  0  0  0
    4.9389   -5.3251   19.0236 H   0  0  0  0  0  0  0  0  0  0  0  0
    2.6489   -1.8345   20.1390 H   0  0  0  0  0  0  0  0  0  0  0  0
    4.1365   -1.4639   22.0028 H   0  0  0  0  0  0  0  0  0  0  0  0
    1.6997   -5.1291   17.3905 H   0  0  0  0  0  0  0  0  0  0  0  0
    1.9624   -5.5290   19.1046 H   0  0  0  0  0  0  0  0  0  0  0  0
    3.2818   -5.7004   17.8909 H   0  0  0  0  0  0  0  0  0  0  0  0
   11.0850    0.3335   27.3218 H   0  0  0  0  0  0  0  0  0  0  0  0
   12.0778    2.6936   24.0960 H   0  0  0  0  0  0  0  0  0  0  0  0
   13.2211    2.7407   25.8715 H   0  0  0  0  0  0  0  0  0  0  0  0
    6.2657   -0.9392   23.0669 H   0  0  0  0  0  0  0  0  0  0  0  0
    4.9488   -1.8239   23.8536 H   0  0  0  0  0  0  0  0  0  0  0  0
    6.4200   -4.9939   20.9217 H   0  0  0  0  0  0  0  0  0  0  0  0
  1  2  2  0  0  0  0
  1 11  1  0  0  0  0
  1 17  1  0  0  0  0
  3 11  2  0  0  0  0
  3 14  1  0  0  0  0
  3 24  1  0  0  0  0
  4 14  1  0  0  0  0
  4 20  1  0  0  0  0
  5  6  2  0  0  0  0
  5 23  1  0  0  0  0
  5 25  1  0  0  0  0
  6  7  1  0  0  0  0
  6 15  1  0  0  0  0
  7  8  2  0  0  0  0
  7 26  1  0  0  0  0
  8 22  1  0  0  0  0
  8 27  1  0  0  0  0
  9 15  1  0  0  0  0
  9 28  1  0  0  0  0
  9 29  1  0  0  0  0
  9 30  1  0  0  0  0
 10 14  2  0  0  0  0
 10 16  1  0  0  0  0
 11 16  1  0  0  0  0
 12 21  2  0  0  0  0
 13 16  2  0  0  0  0
 13 18  1  0  0  0  0
 13 31  1  0  0  0  0
 17 18  1  0  0  0  0
 17 32  1  0  0  0  0
 18 19  2  0  0  0  0
 19 33  1  0  0  0  0
 20 21  1  0  0  0  0
 20 34  1  0  0  0  0
 20 35  1  0  0  0  0
 21 22  1  0  0  0  0
 22 23  2  0  0  0  0
 23 36  1  0  0  0  0
M  CHG  3   3   1  13   1  17   1
M  END
$$$$
