YIE
 OpenBabel04161910183D

 19 20  0  0  0  0  0  0  0  0999 V2000
   -6.8804    6.4759   12.4315 Cl  0  0  0  0  0  0  0  0  0  0  0  0
   -6.1413    5.0710   13.1077 C   0  0  0  0  0  0  0  0  0  0  0  0
   -6.0384    4.9452   14.4873 C   0  0  0  0  0  0  0  0  0  0  0  0
   -5.4453    3.8043   15.0300 C   0  0  0  0  0  0  0  0  0  0  0  0
   -4.9674    2.7720   14.2044 C   0  0  0  0  0  0  0  0  0  0  0  0
   -5.0629    2.9314   12.8126 C   0  0  0  0  0  0  0  0  0  0  0  0
   -5.6543    4.0752   12.2674 C   0  0  0  0  0  0  0  0  0  0  0  0
   -4.3077    1.5246   14.7773 C   0  0  0  0  0  0  0  0  0  0  0  0
   -4.8268    1.0811   16.0958 C   0  0  0  0  0  0  0  0  0  0  0  0
   -5.8227    0.1816   16.2377 N   0  0  0  0  0  0  0  0  0  0  0  0
   -6.0817    0.1968   17.5678 N   0  0  0  0  0  0  0  0  0  0  0  0
   -5.2292    1.0487   18.1851 N   0  0  0  0  0  0  0  0  0  0  0  0
   -4.3737    1.5683   17.2730 N   0  0  0  0  0  0  0  0  0  0  0  0
   -6.4203    5.7123   15.1535 H   0  0  0  0  0  0  0  0  0  0  0  0
   -5.3812    3.7230   16.1156 H   0  0  0  0  0  0  0  0  0  0  0  0
   -4.6886    2.1561   12.1475 H   0  0  0  0  0  0  0  0  0  0  0  0
   -5.7360    4.1749   11.1888 H   0  0  0  0  0  0  0  0  0  0  0  0
   -3.2276    1.7044   14.8539 H   0  0  0  0  0  0  0  0  0  0  0  0
   -4.4378    0.6936   14.0704 H   0  0  0  0  0  0  0  0  0  0  0  0
  1  2  1  0  0  0  0
  2  3  2  0  0  0  0
  2  7  1  0  0  0  0
  3  4  1  0  0  0  0
  3 14  1  0  0  0  0
  4  5  2  0  0  0  0
  4 15  1  0  0  0  0
  5  6  1  0  0  0  0
  5  8  1  0  0  0  0
  6  7  2  0  0  0  0
  6 16  1  0  0  0  0
  7 17  1  0  0  0  0
  8  9  1  0  0  0  0
  8 18  1  0  0  0  0
  8 19  1  0  0  0  0
  9 10  1  0  0  0  0
  9 13  2  0  0  0  0
 10 11  1  0  0  0  0
 11 12  2  0  0  0  0
 12 13  1  0  0  0  0
M  END
$$$$
