4NH8_2LC_A_301
 OpenBabel03301717333D

 55 58  0  0  1  0  0  0  0  0999 V2000
    7.4553   -9.7260  -23.1439 C   0  0  0  0  0  0  0  0  0  0  0  0
    6.3466  -10.6448  -23.5204 C   0  0  1  0  0  0  0  0  0  0  0  0
    5.0029  -10.3322  -23.4574 C   0  0  0  0  0  0  0  0  0  0  0  0
    4.2495  -11.3952  -23.9118 N   0  3  2  0  0  0  0  0  0  0  0  0
    5.1216  -12.4095  -24.2553 C   0  0  2  0  0  0  0  0  0  0  0  0
    6.4190  -11.9782  -24.0206 C   0  0  1  0  0  0  0  0  0  0  0  0
    7.5593  -12.8334  -24.3451 C   0  0  0  0  0  0  0  0  0  0  0  0
    8.7211  -12.4638  -24.1964 O   0  0  0  0  0  0  0  0  0  0  0  0
    7.2291  -14.2490  -24.8272 C   0  0  0  0  0  0  0  0  0  0  0  0
    5.9327  -14.3322  -25.6699 C   0  0  0  0  0  0  0  0  0  0  0  0
    6.1352  -13.6266  -27.0250 C   0  0  0  0  0  0  0  0  0  0  0  0
    5.6036  -15.8105  -25.9563 C   0  0  0  0  0  0  0  0  0  0  0  0
    4.7438  -13.7067  -24.8972 C   0  0  0  0  0  0  0  0  0  0  0  0
    2.8377  -11.3762  -24.0669 C   0  0  1  0  0  0  0  0  0  0  0  0
    2.2348  -10.2007  -24.5321 C   0  0  0  0  0  0  0  0  0  0  0  0
    0.8511  -10.1285  -24.7496 C   0  0  1  0  0  0  0  0  0  0  0  0
    0.2694   -8.9811  -25.2707 N   0  0  0  0  0  0  0  0  0  0  0  0
    0.9680   -7.7501  -25.6156 C   0  0  1  0  0  0  0  0  0  0  0  0
    1.4950   -7.8592  -27.0302 C   0  0  0  0  0  0  0  0  0  0  0  0
    0.2854   -7.5061  -27.8745 C   0  0  0  0  0  0  0  0  0  0  0  0
   -0.6114   -6.7336  -27.0619 O   0  0  0  0  0  0  0  0  0  0  0  0
   -0.0358   -6.6108  -25.7511 C   0  0  0  0  0  0  0  0  0  0  0  0
    0.0857  -11.2935  -24.5179 C   0  0  1  0  0  0  0  0  0  0  0  0
   -1.3814  -11.3411  -24.7880 C   0  0  0  0  0  0  0  0  0  0  0  0
   -1.8131  -10.6266  -25.8751 N   0  0  0  0  0  0  0  0  0  0  0  0
   -2.1626  -11.9717  -24.0959 O   0  0  0  0  0  0  0  0  0  0  0  0
    0.6965  -12.4566  -24.0390 C   0  0  1  0  0  0  0  0  0  0  0  0
   -0.0049  -13.5830  -23.8395 F   0  0  0  0  0  0  0  0  0  0  0  0
    2.0664  -12.4984  -23.8068 C   0  0  0  0  0  0  0  0  0  0  0  0
    7.0593   -8.7767  -22.7633 H   0  0  0  0  0  0  0  0  0  0  0  0
    8.0787   -9.4953  -24.0130 H   0  0  0  0  0  0  0  0  0  0  0  0
    8.0789  -10.1623  -22.3593 H   0  0  0  0  0  0  0  0  0  0  0  0
    4.5272   -9.4321  -23.0906 H   0  0  0  0  0  0  0  0  0  0  0  0
    7.1352  -14.8822  -23.9339 H   0  0  0  0  0  0  0  0  0  0  0  0
    8.0771  -14.6219  -25.4119 H   0  0  0  0  0  0  0  0  0  0  0  0
    6.9542  -14.0892  -27.5869 H   0  0  0  0  0  0  0  0  0  0  0  0
    6.3744  -12.5655  -26.9043 H   0  0  0  0  0  0  0  0  0  0  0  0
    5.2321  -13.6942  -27.6419 H   0  0  0  0  0  0  0  0  0  0  0  0
    6.4120  -16.2961  -26.5137 H   0  0  0  0  0  0  0  0  0  0  0  0
    4.6855  -15.9025  -26.5494 H   0  0  0  0  0  0  0  0  0  0  0  0
    5.4562  -16.3713  -25.0275 H   0  0  0  0  0  0  0  0  0  0  0  0
    3.9023  -13.5701  -25.5893 H   0  0  0  0  0  0  0  0  0  0  0  0
    4.4237  -14.3960  -24.1068 H   0  0  0  0  0  0  0  0  0  0  0  0
    2.8647   -9.3526  -24.7765 H   0  0  0  0  0  0  0  0  0  0  0  0
   -0.7458   -8.9078  -25.1811 H   0  0  0  0  0  0  0  0  0  0  0  0
    1.7306   -7.5013  -24.8708 H   0  0  0  0  0  0  0  0  0  0  0  0
    1.8985   -8.8430  -27.2915 H   0  0  0  0  0  0  0  0  0  0  0  0
    2.2866   -7.1200  -27.1953 H   0  0  0  0  0  0  0  0  0  0  0  0
   -0.2441   -8.4062  -28.2056 H   0  0  0  0  0  0  0  0  0  0  0  0
    0.5597   -6.9255  -28.7597 H   0  0  0  0  0  0  0  0  0  0  0  0
    0.4607   -5.6372  -25.6916 H   0  0  0  0  0  0  0  0  0  0  0  0
   -0.8305   -6.6468  -24.9987 H   0  0  0  0  0  0  0  0  0  0  0  0
   -2.7876  -10.6898  -26.1329 H   0  0  0  0  0  0  0  0  0  0  0  0
   -1.1570  -10.2174  -26.5284 H   0  0  0  0  0  0  0  0  0  0  0  0
    2.4885  -13.4139  -23.4026 H   0  0  0  0  0  0  0  0  0  0  0  0
  1 30  1  0  0  0  0
  1 31  1  0  0  0  0
  1 32  1  0  0  0  0
  2  1  1  6  0  0  0
  2  3  1  0  0  0  0
  2  6  1  0  0  0  0
  3 33  1  0  0  0  0
  4  3  1  6  0  0  0
  4  5  1  0  0  0  0
  4 14  1  0  0  0  0
  5  6  1  0  0  0  0
  5 13  1  6  0  0  0
  6  7  1  6  0  0  0
  7  8  2  0  0  0  0
  7  9  1  0  0  0  0
  9 10  1  0  0  0  0
  9 34  1  0  0  0  0
  9 35  1  0  0  0  0
 10 11  1  0  0  0  0
 10 12  1  0  0  0  0
 10 13  1  0  0  0  0
 11 36  1  0  0  0  0
 11 37  1  0  0  0  0
 11 38  1  0  0  0  0
 12 39  1  0  0  0  0
 12 40  1  0  0  0  0
 12 41  1  0  0  0  0
 13 42  1  0  0  0  0
 13 43  1  0  0  0  0
 14 15  1  6  0  0  0
 14 29  1  0  0  0  0
 15 16  1  0  0  0  0
 15 44  1  0  0  0  0
 16 17  1  6  0  0  0
 16 23  1  0  0  0  0
 17 18  1  0  0  0  0
 17 45  1  0  0  0  0
 18 19  1  0  0  0  0
 18 22  1  0  0  0  0
 18 46  1  1  0  0  0
 19 20  1  0  0  0  0
 19 47  1  0  0  0  0
 19 48  1  0  0  0  0
 20 21  1  0  0  0  0
 20 49  1  0  0  0  0
 20 50  1  0  0  0  0
 21 22  1  0  0  0  0
 22 51  1  0  0  0  0
 22 52  1  0  0  0  0
 23 24  1  6  0  0  0
 23 27  1  0  0  0  0
 24 25  1  0  0  0  0
 24 26  2  0  0  0  0
 25 53  1  0  0  0  0
 25 54  1  0  0  0  0
 27 28  1  6  0  0  0
 27 29  1  0  0  0  0
 29 55  1  0  0  0  0
M  CHG  1   4   1
M  END
$$$$
