4CWP_TV2_A_1224
 OpenBabel03301717273D

 37 41  0  0  0  0  0  0  0  0999 V2000
   -2.1766   11.9955   24.1026 N   0  0  0  0  0  0  0  0  0  0  0  0
   -1.1059   11.3372   24.5207 C   0  0  0  0  0  0  0  0  0  0  0  0
    0.0765   11.2927   23.9085 N   0  0  0  0  0  0  0  0  0  0  0  0
    0.7833   10.5244   24.7591 N   0  3  0  0  0  0  0  0  0  0  0  0
    0.0064   10.1359   25.8165 C   0  0  0  0  0  0  0  0  0  0  0  0
   -1.2005   10.6370   25.6843 N   0  0  0  0  0  0  0  0  0  0  0  0
    2.1219   10.1475   24.6333 C   0  0  0  0  0  0  0  0  0  0  0  0
    2.7056    9.3855   25.5212 N   0  0  0  0  0  0  0  0  0  0  0  0
    1.9594    8.9524   26.6488 C   0  0  0  0  0  0  0  0  0  0  0  0
    2.5880    8.1626   27.6096 C   0  0  0  0  0  0  0  0  0  0  0  0
    1.8819    7.7220   28.7321 C   0  0  0  0  0  0  0  0  0  0  0  0
    0.5413    8.0726   28.9059 C   0  0  0  0  0  0  0  0  0  0  0  0
   -0.1016    8.8689   27.9596 C   0  0  0  0  0  0  0  0  0  0  0  0
    0.6045    9.3049   26.8378 C   0  0  0  0  0  0  0  0  0  0  0  0
    2.8575   10.7061   23.4430 C   0  0  0  0  0  0  0  0  0  0  0  0
    3.7555   11.8592   23.8395 C   0  0  0  0  0  0  0  0  0  0  0  0
    5.1627   11.7390   23.7536 C   0  0  0  0  0  0  0  0  0  0  0  0
    6.0004   12.7900   24.1437 C   0  0  0  0  0  0  0  0  0  0  0  0
    5.4091   13.9388   24.6208 C   0  0  0  0  0  0  0  0  0  0  0  0
    4.0443   14.0648   24.7069 C   0  0  0  0  0  0  0  0  0  0  0  0
    3.1928   13.0544   24.3182 C   0  0  0  0  0  0  0  0  0  0  0  0
    6.0592   15.0515   25.0551 O   0  0  0  0  0  0  0  0  0  0  0  0
    4.9447   15.8870   25.4316 C   0  0  0  0  0  0  0  0  0  0  0  0
    3.6614   15.2671   25.2137 O   0  0  0  0  0  0  0  0  0  0  0  0
   -3.0565   11.8943   24.5881 H   0  0  0  0  0  0  0  0  0  0  0  0
   -2.1911   12.4540   23.2031 H   0  0  0  0  0  0  0  0  0  0  0  0
    3.6332    7.8930   27.4826 H   0  0  0  0  0  0  0  0  0  0  0  0
    2.3813    7.1045   29.4752 H   0  0  0  0  0  0  0  0  0  0  0  0
   -0.0022    7.7262   29.7816 H   0  0  0  0  0  0  0  0  0  0  0  0
   -1.1436    9.1494   28.0962 H   0  0  0  0  0  0  0  0  0  0  0  0
    2.1902   11.0232   22.6361 H   0  0  0  0  0  0  0  0  0  0  0  0
    3.4656    9.8918   23.0283 H   0  0  0  0  0  0  0  0  0  0  0  0
    5.6127   10.8167   23.3900 H   0  0  0  0  0  0  0  0  0  0  0  0
    7.0797   12.7014   24.0822 H   0  0  0  0  0  0  0  0  0  0  0  0
    2.1197   13.1952   24.3951 H   0  0  0  0  0  0  0  0  0  0  0  0
    4.9859   16.8134   24.8476 H   0  0  0  0  0  0  0  0  0  0  0  0
    5.0365   16.1372   26.4951 H   0  0  0  0  0  0  0  0  0  0  0  0
  1  2  1  0  0  0  0
  1 25  1  0  0  0  0
  1 26  1  0  0  0  0
  2  3  1  0  0  0  0
  2  6  2  0  0  0  0
  3  4  1  0  0  0  0
  4  5  2  0  0  0  0
  4  7  1  0  0  0  0
  5  6  1  0  0  0  0
  5 14  1  0  0  0  0
  7  8  2  0  0  0  0
  7 15  1  0  0  0  0
  8  9  1  0  0  0  0
  9 10  2  0  0  0  0
  9 14  1  0  0  0  0
 10 11  1  0  0  0  0
 10 27  1  0  0  0  0
 11 12  2  0  0  0  0
 11 28  1  0  0  0  0
 12 13  1  0  0  0  0
 12 29  1  0  0  0  0
 13 14  2  0  0  0  0
 13 30  1  0  0  0  0
 15 16  1  0  0  0  0
 15 31  1  0  0  0  0
 15 32  1  0  0  0  0
 16 17  2  0  0  0  0
 16 21  1  0  0  0  0
 17 18  1  0  0  0  0
 17 33  1  0  0  0  0
 18 19  2  0  0  0  0
 18 34  1  0  0  0  0
 19 20  1  0  0  0  0
 19 22  1  0  0  0  0
 20 21  2  0  0  0  0
 20 24  1  0  0  0  0
 21 35  1  0  0  0  0
 22 23  1  0  0  0  0
 23 24  1  0  0  0  0
 23 36  1  0  0  0  0
 23 37  1  0  0  0  0
M  CHG  1   4   1
M  END
$$$$
