2VCI_2GJ_A_1225
 OpenBabel03301717033D

 66 69  0  0  0  0  0  0  0  0999 V2000
   35.5048    4.9719   21.3045 C   0  0  0  0  0  0  0  0  0  0  0  0
   35.9895    3.5559   21.1066 C   0  0  0  0  0  0  0  0  0  0  0  0
   36.8641    3.1892   22.1808 O   0  0  0  0  0  0  0  0  0  0  0  0
   36.1902    3.1476   23.4463 C   0  0  0  0  0  0  0  0  0  0  0  0
   35.6766    4.5098   23.8473 C   0  0  0  0  0  0  0  0  0  0  0  0
   34.9760    5.1972   22.6995 N   0  3  0  0  0  0  0  0  0  0  0  0
   35.1152    6.6717   22.9606 C   0  0  0  0  0  0  0  0  0  0  0  0
   34.0977    7.1931   23.8964 C   0  0  0  0  0  0  0  0  0  0  0  0
   32.7378    7.0531   23.5861 C   0  0  0  0  0  0  0  0  0  0  0  0
   31.7840    7.5464   24.4543 C   0  0  0  0  0  0  0  0  0  0  0  0
   34.5071    7.8302   25.0757 C   0  0  0  0  0  0  0  0  0  0  0  0
   33.5527    8.3240   25.9500 C   0  0  0  0  0  0  0  0  0  0  0  0
   32.1912    8.1861   25.6270 C   0  0  0  0  0  0  0  0  0  0  0  0
   31.1833    8.7607   26.4770 C   0  0  0  0  0  0  0  0  0  0  0  0
   30.8055    8.3643   27.7620 C   0  0  0  0  0  0  0  0  0  0  0  0
   31.4425    7.2319   28.4986 C   0  0  0  0  0  0  0  0  0  0  0  0
   32.0602    6.3296   27.9785 O   0  0  0  0  0  0  0  0  0  0  0  0
   31.3155    7.3431   29.8811 N   0  0  0  0  0  0  0  0  0  0  0  0
   31.8146    6.4417   30.9219 C   0  0  0  0  0  0  0  0  0  0  0  0
   33.0153    5.6387   30.5017 C   0  0  0  0  0  0  0  0  0  0  0  0
   29.8083    9.1699   28.1980 N   0  0  0  0  0  0  0  0  0  0  0  0
   29.5542   10.1015   27.1623 O   0  0  0  0  0  0  0  0  0  0  0  0
   30.3769    9.8061   26.1167 C   0  0  0  0  0  0  0  0  0  0  0  0
   30.4146   10.5896   24.9196 C   0  0  0  0  0  0  0  0  0  0  0  0
   31.7155   10.8783   24.5008 C   0  0  0  0  0  0  0  0  0  0  0  0
   31.9746   11.4947   23.2812 C   0  0  0  0  0  0  0  0  0  0  0  0
   33.3842   11.9107   22.9797 C   0  0  0  0  0  0  0  0  0  0  0  0
   33.4612   13.2662   23.6690 C   0  0  0  0  0  0  0  0  0  0  0  0
   34.4551   10.9571   23.4970 C   0  0  0  0  0  0  0  0  0  0  0  0
   30.8903   11.8807   22.5095 C   0  0  0  0  0  0  0  0  0  0  0  0
   31.1502   12.5376   21.3405 O   0  0  0  0  0  0  0  0  0  0  0  0
   29.5800   11.5859   22.8979 C   0  0  0  0  0  0  0  0  0  0  0  0
   29.3472   10.9180   24.1046 C   0  0  0  0  0  0  0  0  0  0  0  0
   28.0551   10.6135   24.4526 O   0  0  0  0  0  0  0  0  0  0  0  0
   34.6911    5.2197   20.6118 H   0  0  0  0  0  0  0  0  0  0  0  0
   36.3297    5.6763   21.1587 H   0  0  0  0  0  0  0  0  0  0  0  0
   36.5287    3.5056   20.1497 H   0  0  0  0  0  0  0  0  0  0  0  0
   35.1425    2.8653   21.0500 H   0  0  0  0  0  0  0  0  0  0  0  0
   36.8897    2.8112   24.2217 H   0  0  0  0  0  0  0  0  0  0  0  0
   35.3584    2.4399   23.4073 H   0  0  0  0  0  0  0  0  0  0  0  0
   36.5127    5.1442   24.1548 H   0  0  0  0  0  0  0  0  0  0  0  0
   34.9601    4.4469   24.6759 H   0  0  0  0  0  0  0  0  0  0  0  0
   34.0111    4.8427   22.7079 H   0  0  0  0  0  0  0  0  0  0  0  0
   35.0675    7.1909   22.0006 H   0  0  0  0  0  0  0  0  0  0  0  0
   36.1289    6.8236   23.3591 H   0  0  0  0  0  0  0  0  0  0  0  0
   32.4245    6.5598   22.6709 H   0  0  0  0  0  0  0  0  0  0  0  0
   30.7212    7.4500   24.2266 H   0  0  0  0  0  0  0  0  0  0  0  0
   35.5658    7.9433   25.3095 H   0  0  0  0  0  0  0  0  0  0  0  0
   33.8609    8.8335   26.8659 H   0  0  0  0  0  0  0  0  0  0  0  0
   30.7857    8.1457   30.1870 H   0  0  0  0  0  0  0  0  0  0  0  0
   31.0028    5.7736   31.2392 H   0  0  0  0  0  0  0  0  0  0  0  0
   32.0822    7.0593   31.8016 H   0  0  0  0  0  0  0  0  0  0  0  0
   32.7526    5.0086   29.6498 H   0  0  0  0  0  0  0  0  0  0  0  0
   33.3568    4.9903   31.3116 H   0  0  0  0  0  0  0  0  0  0  0  0
   33.8297    6.3076   30.2110 H   0  0  0  0  0  0  0  0  0  0  0  0
   32.5428   10.6227   25.1461 H   0  0  0  0  0  0  0  0  0  0  0  0
   33.5621   11.9399   21.8996 H   0  0  0  0  0  0  0  0  0  0  0  0
   33.2272   13.1585   24.7436 H   0  0  0  0  0  0  0  0  0  0  0  0
   32.7135   13.9567   23.2493 H   0  0  0  0  0  0  0  0  0  0  0  0
   34.4459   13.7098   23.5751 H   0  0  0  0  0  0  0  0  0  0  0  0
   34.3989   10.8488   24.5816 H   0  0  0  0  0  0  0  0  0  0  0  0
   35.4521   11.3328   23.2521 H   0  0  0  0  0  0  0  0  0  0  0  0
   34.3366    9.9691   23.0377 H   0  0  0  0  0  0  0  0  0  0  0  0
   30.3398   12.7383   20.8465 H   0  0  0  0  0  0  0  0  0  0  0  0
   28.7545   11.8728   22.2804 H   0  0  0  0  0  0  0  0  0  0  0  0
   27.4197   10.9507   23.7954 H   0  0  0  0  0  0  0  0  0  0  0  0
  1  2  1  0  0  0  0
  1  6  1  0  0  0  0
  1 35  1  0  0  0  0
  1 36  1  0  0  0  0
  2  3  1  0  0  0  0
  2 37  1  0  0  0  0
  2 38  1  0  0  0  0
  3  4  1  0  0  0  0
  4  5  1  0  0  0  0
  4 39  1  0  0  0  0
  4 40  1  0  0  0  0
  5  6  1  0  0  0  0
  5 41  1  0  0  0  0
  5 42  1  0  0  0  0
  6  7  1  0  0  0  0
  6 43  1  0  0  0  0
  7  8  1  0  0  0  0
  7 44  1  0  0  0  0
  7 45  1  0  0  0  0
  8  9  2  0  0  0  0
  8 11  1  0  0  0  0
  9 10  1  0  0  0  0
  9 46  1  0  0  0  0
 10 13  2  0  0  0  0
 10 47  1  0  0  0  0
 11 12  2  0  0  0  0
 11 48  1  0  0  0  0
 12 13  1  0  0  0  0
 12 49  1  0  0  0  0
 13 14  1  0  0  0  0
 14 15  1  0  0  0  0
 14 23  2  0  0  0  0
 15 16  1  0  0  0  0
 15 21  2  0  0  0  0
 16 17  2  0  0  0  0
 16 18  1  0  0  0  0
 18 19  1  0  0  0  0
 18 50  1  0  0  0  0
 19 20  1  0  0  0  0
 19 51  1  0  0  0  0
 19 52  1  0  0  0  0
 20 53  1  0  0  0  0
 20 54  1  0  0  0  0
 20 55  1  0  0  0  0
 21 22  1  0  0  0  0
 22 23  1  0  0  0  0
 23 24  1  0  0  0  0
 24 25  2  0  0  0  0
 24 33  1  0  0  0  0
 25 26  1  0  0  0  0
 25 56  1  0  0  0  0
 26 27  1  0  0  0  0
 26 30  2  0  0  0  0
 27 28  1  0  0  0  0
 27 29  1  0  0  0  0
 27 57  1  0  0  0  0
 28 58  1  0  0  0  0
 28 59  1  0  0  0  0
 28 60  1  0  0  0  0
 29 61  1  0  0  0  0
 29 62  1  0  0  0  0
 29 63  1  0  0  0  0
 30 31  1  0  0  0  0
 30 32  1  0  0  0  0
 31 64  1  0  0  0  0
 32 33  2  0  0  0  0
 32 65  1  0  0  0  0
 33 34  1  0  0  0  0
 34 66  1  0  0  0  0
M  CHG  1   6   1
M  END
$$$$
