4YKZ_4EV_A_301
 OpenBabel03301717373D

 27 28  0  0  0  0  0  0  0  0999 V2000
   -2.6264   34.0847  -27.2609 O   0  0  0  0  0  0  0  0  0  0  0  0
   -2.0645   34.5903  -26.2934 C   0  0  0  0  0  0  0  0  0  0  0  0
   -1.5393   35.9794  -26.3981 C   0  0  0  0  0  0  0  0  0  0  0  0
   -1.3741   36.7705  -25.2549 C   0  0  0  0  0  0  0  0  0  0  0  0
   -0.9829   38.1051  -25.3804 C   0  0  0  0  0  0  0  0  0  0  0  0
   -0.7404   38.6482  -26.6412 C   0  0  0  0  0  0  0  0  0  0  0  0
   -1.2739   36.5203  -27.6652 C   0  0  0  0  0  0  0  0  0  0  0  0
   -0.8671   37.8486  -27.7737 C   0  0  0  0  0  0  0  0  0  0  0  0
   -0.5827   38.4108  -28.9833 O   0  0  0  0  0  0  0  0  0  0  0  0
   -1.9063   33.8163  -25.0375 C   0  0  0  0  0  0  0  0  0  0  0  0
   -3.0248   33.3426  -24.3435 C   0  0  0  0  0  0  0  0  0  0  0  0
   -4.2790   33.6016  -24.8194 O   0  0  0  0  0  0  0  0  0  0  0  0
   -2.8620   32.6398  -23.1472 C   0  0  0  0  0  0  0  0  0  0  0  0
   -1.5779   32.4005  -22.6582 C   0  0  0  0  0  0  0  0  0  0  0  0
   -1.4451   31.7241  -21.4874 O   0  0  0  0  0  0  0  0  0  0  0  0
   -0.4553   32.8486  -23.3501 C   0  0  0  0  0  0  0  0  0  0  0  0
   -0.6184   33.5609  -24.5424 C   0  0  0  0  0  0  0  0  0  0  0  0
   -1.5736   36.3749  -24.2646 H   0  0  0  0  0  0  0  0  0  0  0  0
   -0.8846   38.7237  -24.4916 H   0  0  0  0  0  0  0  0  0  0  0  0
   -0.4579   39.6937  -26.7382 H   0  0  0  0  0  0  0  0  0  0  0  0
   -1.3935   35.9039  -28.5526 H   0  0  0  0  0  0  0  0  0  0  0  0
   -0.6908   37.7387  -29.6788 H   0  0  0  0  0  0  0  0  0  0  0  0
   -4.9455   33.1670  -24.2638 H   0  0  0  0  0  0  0  0  0  0  0  0
   -3.7210   32.2843  -22.5869 H   0  0  0  0  0  0  0  0  0  0  0  0
   -0.5030   31.6337  -21.2731 H   0  0  0  0  0  0  0  0  0  0  0  0
    0.5451   32.6521  -22.9777 H   0  0  0  0  0  0  0  0  0  0  0  0
    0.2602   33.9080  -25.0793 H   0  0  0  0  0  0  0  0  0  0  0  0
  1  2  2  0  0  0  0
  2  3  1  0  0  0  0
  2 10  1  0  0  0  0
  3  4  2  0  0  0  0
  3  7  1  0  0  0  0
  4  5  1  0  0  0  0
  4 18  1  0  0  0  0
  5  6  2  0  0  0  0
  5 19  1  0  0  0  0
  6  8  1  0  0  0  0
  6 20  1  0  0  0  0
  7  8  2  0  0  0  0
  7 21  1  0  0  0  0
  8  9  1  0  0  0  0
  9 22  1  0  0  0  0
 10 11  2  0  0  0  0
 10 17  1  0  0  0  0
 11 12  1  0  0  0  0
 11 13  1  0  0  0  0
 12 23  1  0  0  0  0
 13 14  2  0  0  0  0
 13 24  1  0  0  0  0
 14 15  1  0  0  0  0
 14 16  1  0  0  0  0
 15 25  1  0  0  0  0
 16 17  2  0  0  0  0
 16 26  1  0  0  0  0
 17 27  1  0  0  0  0
M  END
$$$$
