2FWY_H64_A_1001
 OpenBabel03301717013D

 50 53  0  0  0  0  0  0  0  0999 V2000
    5.4555    5.7015   26.8592 C   0  0  0  0  0  0  0  0  0  0  0  0
    4.0355    5.4617   27.3680 C   0  0  0  0  0  0  0  0  0  0  0  0
    3.9209    4.0200   27.8403 C   0  0  0  0  0  0  0  0  0  0  0  0
    3.0186    5.6941   26.2796 N   0  3  0  0  0  0  0  0  0  0  0  0
    2.4876    7.0928   26.2109 C   0  0  0  0  0  0  0  0  0  0  0  0
    3.4925    8.0160   25.5417 C   0  0  0  0  0  0  0  0  0  0  0  0
    3.2559    9.4670   25.8955 C   0  0  0  0  0  0  0  0  0  0  0  0
    2.0974    9.9911   25.2511 N   0  3  0  0  0  0  0  0  0  0  0  0
    0.8353    9.9790   25.7987 C   0  0  0  0  0  0  0  0  0  0  0  0
    0.4321    9.4757   26.9702 N   0  0  0  0  0  0  0  0  0  0  0  0
   -0.8911    9.7085   27.1533 C   0  0  0  0  0  0  0  0  0  0  0  0
   -1.7585   10.3071   26.3114 N   0  0  0  0  0  0  0  0  0  0  0  0
   -1.3061   10.7384   25.1136 C   0  0  0  0  0  0  0  0  0  0  0  0
   -2.1830   11.2688   24.1933 N   0  0  0  0  0  0  0  0  0  0  0  0
    0.0480   10.5957   24.8248 C   0  0  0  0  0  0  0  0  0  0  0  0
    0.7918   10.9126   23.7088 N   0  0  0  0  0  0  0  0  0  0  0  0
    2.0001   10.5139   23.9946 C   0  0  0  0  0  0  0  0  0  0  0  0
    3.3351   10.6443   22.8892 S   0  0  0  0  0  0  0  0  0  0  0  0
    4.3003   11.9091   23.7309 C   0  0  0  0  0  0  0  0  0  0  0  0
    3.6366   13.0208   24.2792 C   0  0  0  0  0  0  0  0  0  0  0  0
    4.3959   14.0142   24.8491 C   0  0  0  0  0  0  0  0  0  0  0  0
    3.9312   15.2052   25.3205 O   0  0  0  0  0  0  0  0  0  0  0  0
    5.1639   15.9523   25.2756 C   0  0  0  0  0  0  0  0  0  0  0  0
    6.3095   15.0832   25.4155 O   0  0  0  0  0  0  0  0  0  0  0  0
    5.7683   13.9375   24.9127 C   0  0  0  0  0  0  0  0  0  0  0  0
    6.4593   12.8491   24.4339 C   0  0  0  0  0  0  0  0  0  0  0  0
    5.7164   11.8286   23.8266 C   0  0  0  0  0  0  0  0  0  0  0  0
    6.7001   10.3380   23.1597 Br  0  0  0  0  0  0  0  0  0  0  0  0
    6.1760    5.5071   27.6482 H   0  0  0  0  0  0  0  0  0  0  0  0
    5.6617    6.7307   26.5709 H   0  0  0  0  0  0  0  0  0  0  0  0
    5.6734    5.0764   25.9907 H   0  0  0  0  0  0  0  0  0  0  0  0
    3.7860    6.1346   28.1962 H   0  0  0  0  0  0  0  0  0  0  0  0
    4.1398    3.3209   27.0266 H   0  0  0  0  0  0  0  0  0  0  0  0
    2.9221    3.8019   28.2283 H   0  0  0  0  0  0  0  0  0  0  0  0
    4.6414    3.8412   28.6449 H   0  0  0  0  0  0  0  0  0  0  0  0
    2.2041    5.0851   26.4545 H   0  0  0  0  0  0  0  0  0  0  0  0
    3.3747    5.3893   25.3614 H   0  0  0  0  0  0  0  0  0  0  0  0
    2.2506    7.3935   27.2362 H   0  0  0  0  0  0  0  0  0  0  0  0
    1.5581    7.0471   25.6336 H   0  0  0  0  0  0  0  0  0  0  0  0
    3.5158    7.8274   24.4612 H   0  0  0  0  0  0  0  0  0  0  0  0
    4.4991    7.8444   25.8850 H   0  0  0  0  0  0  0  0  0  0  0  0
    4.1298   10.0488   25.6032 H   0  0  0  0  0  0  0  0  0  0  0  0
    3.1645    9.5993   26.9797 H   0  0  0  0  0  0  0  0  0  0  0  0
   -1.3182    9.3586   28.0909 H   0  0  0  0  0  0  0  0  0  0  0  0
   -1.7734   11.7476   23.3998 H   0  0  0  0  0  0  0  0  0  0  0  0
   -3.0816   11.5548   24.5406 H   0  0  0  0  0  0  0  0  0  0  0  0
    2.5595   13.1428   24.2199 H   0  0  0  0  0  0  0  0  0  0  0  0
    5.1727   16.7317   26.0440 H   0  0  0  0  0  0  0  0  0  0  0  0
    5.2241   16.4393   24.2908 H   0  0  0  0  0  0  0  0  0  0  0  0
    7.5427   12.8222   24.4829 H   0  0  0  0  0  0  0  0  0  0  0  0
  1  2  1  0  0  0  0
  1 29  1  0  0  0  0
  1 30  1  0  0  0  0
  1 31  1  0  0  0  0
  2  3  1  0  0  0  0
  2  4  1  0  0  0  0
  2 32  1  0  0  0  0
  3 33  1  0  0  0  0
  3 34  1  0  0  0  0
  3 35  1  0  0  0  0
  4  5  1  0  0  0  0
  4 36  1  0  0  0  0
  4 37  1  0  0  0  0
  5  6  1  0  0  0  0
  5 38  1  0  0  0  0
  5 39  1  0  0  0  0
  6  7  1  0  0  0  0
  6 40  1  0  0  0  0
  6 41  1  0  0  0  0
  7  8  1  0  0  0  0
  7 42  1  0  0  0  0
  7 43  1  0  0  0  0
  8  9  1  0  0  0  0
  8 17  2  0  0  0  0
  9 10  2  0  0  0  0
  9 15  1  0  0  0  0
 10 11  1  0  0  0  0
 11 12  2  0  0  0  0
 11 44  1  0  0  0  0
 12 13  1  0  0  0  0
 13 14  1  0  0  0  0
 13 15  2  0  0  0  0
 14 45  1  0  0  0  0
 14 46  1  0  0  0  0
 15 16  1  0  0  0  0
 16 17  1  0  0  0  0
 17 18  1  0  0  0  0
 18 19  1  0  0  0  0
 19 20  2  0  0  0  0
 19 27  1  0  0  0  0
 20 21  1  0  0  0  0
 20 47  1  0  0  0  0
 21 22  1  0  0  0  0
 21 25  2  0  0  0  0
 22 23  1  0  0  0  0
 23 24  1  0  0  0  0
 23 48  1  0  0  0  0
 23 49  1  0  0  0  0
 24 25  1  0  0  0  0
 25 26  1  0  0  0  0
 26 27  2  0  0  0  0
 26 50  1  0  0  0  0
 27 28  1  0  0  0  0
M  CHG  2   4   1   8   1
M  END
$$$$
