4CWQ_W2D_A_1224
 OpenBabel03301717273D

 42 46  0  0  0  0  0  0  0  0999 V2000
    3.1779   12.8518   24.3920 C   0  0  0  0  0  0  0  0  0  0  0  0
    4.0304   13.8561   24.7786 C   0  0  0  0  0  0  0  0  0  0  0  0
    3.6537   15.0880   25.2060 O   0  0  0  0  0  0  0  0  0  0  0  0
    4.9399   15.7109   25.3902 C   0  0  0  0  0  0  0  0  0  0  0  0
    6.0499   14.8127   25.1638 O   0  0  0  0  0  0  0  0  0  0  0  0
    5.3921   13.6880   24.7531 C   0  0  0  0  0  0  0  0  0  0  0  0
    5.9702   12.5022   24.3532 C   0  0  0  0  0  0  0  0  0  0  0  0
    5.1267   11.4539   23.9613 C   0  0  0  0  0  0  0  0  0  0  0  0
    3.7267   11.6311   23.9686 C   0  0  0  0  0  0  0  0  0  0  0  0
    2.7943   10.5271   23.5379 C   0  0  0  0  0  0  0  0  0  0  0  0
    1.9815   10.0405   24.6971 C   0  0  0  0  0  0  0  0  0  0  0  0
    2.5041    9.2752   25.6182 N   0  0  0  0  0  0  0  0  0  0  0  0
    1.7011    8.8775   26.7106 C   0  0  0  0  0  0  0  0  0  0  0  0
    2.2702    8.0641   27.6911 C   0  0  0  0  0  0  0  0  0  0  0  0
    1.4735    7.6285   28.7602 C   0  0  0  0  0  0  0  0  0  0  0  0
    2.1452    6.5139   29.9624 S   0  0  0  0  0  0  0  0  0  0  0  0
    3.5854    6.4827   29.8257 O   0  0  0  0  0  0  0  0  0  0  0  0
    1.3469    5.3096   29.9468 O   0  0  0  0  0  0  0  0  0  0  0  0
    1.8386    7.2818   31.4351 N   0  0  0  0  0  0  0  0  0  0  0  0
    0.1308    8.0099   28.8546 C   0  0  0  0  0  0  0  0  0  0  0  0
   -0.4353    8.8302   27.8784 C   0  0  0  0  0  0  0  0  0  0  0  0
    0.3470    9.2669   26.8176 C   0  0  0  0  0  0  0  0  0  0  0  0
   -0.1797   10.1116   25.7733 C   0  0  0  0  0  0  0  0  0  0  0  0
   -1.3705   10.6419   25.5803 N   0  0  0  0  0  0  0  0  0  0  0  0
    0.6546   10.4760   24.7596 N   0  3  0  0  0  0  0  0  0  0  0  0
    0.0213   11.2815   23.8835 N   0  0  0  0  0  0  0  0  0  0  0  0
   -1.1980   11.3459   24.4269 C   0  0  0  0  0  0  0  0  0  0  0  0
   -2.2140   12.0217   23.9241 N   0  0  0  0  0  0  0  0  0  0  0  0
    2.1051   13.0129   24.4117 H   0  0  0  0  0  0  0  0  0  0  0  0
    4.9992   16.1041   26.4113 H   0  0  0  0  0  0  0  0  0  0  0  0
    5.0186   16.5539   24.6934 H   0  0  0  0  0  0  0  0  0  0  0  0
    7.0489   12.3802   24.3403 H   0  0  0  0  0  0  0  0  0  0  0  0
    5.5617   10.5041   23.6556 H   0  0  0  0  0  0  0  0  0  0  0  0
    3.3737    9.6678   23.1764 H   0  0  0  0  0  0  0  0  0  0  0  0
    2.1839   10.8767   22.7012 H   0  0  0  0  0  0  0  0  0  0  0  0
    3.3066    7.7646   27.5960 H   0  0  0  0  0  0  0  0  0  0  0  0
    2.3097    8.1807   31.5345 H   0  0  0  0  0  0  0  0  0  0  0  0
    2.0775    6.6496   32.2069 H   0  0  0  0  0  0  0  0  0  0  0  0
   -0.4851    7.6508   29.6709 H   0  0  0  0  0  0  0  0  0  0  0  0
   -1.4798    9.1321   27.9368 H   0  0  0  0  0  0  0  0  0  0  0  0
   -2.1123   12.5217   23.0543 H   0  0  0  0  0  0  0  0  0  0  0  0
   -3.1419   11.9987   24.3380 H   0  0  0  0  0  0  0  0  0  0  0  0
  1  2  2  0  0  0  0
  1  9  1  0  0  0  0
  1 29  1  0  0  0  0
  2  3  1  0  0  0  0
  2  6  1  0  0  0  0
  3  4  1  0  0  0  0
  4  5  1  0  0  0  0
  4 30  1  0  0  0  0
  4 31  1  0  0  0  0
  5  6  1  0  0  0  0
  6  7  2  0  0  0  0
  7  8  1  0  0  0  0
  7 32  1  0  0  0  0
  8  9  2  0  0  0  0
  8 33  1  0  0  0  0
  9 10  1  0  0  0  0
 10 11  1  0  0  0  0
 10 34  1  0  0  0  0
 10 35  1  0  0  0  0
 11 12  2  0  0  0  0
 11 25  1  0  0  0  0
 12 13  1  0  0  0  0
 13 14  2  0  0  0  0
 13 22  1  0  0  0  0
 14 15  1  0  0  0  0
 14 36  1  0  0  0  0
 15 16  1  0  0  0  0
 15 20  2  0  0  0  0
 16 17  2  0  0  0  0
 16 18  2  0  0  0  0
 16 19  1  0  0  0  0
 19 37  1  0  0  0  0
 19 38  1  0  0  0  0
 20 21  1  0  0  0  0
 20 39  1  0  0  0  0
 21 22  2  0  0  0  0
 21 40  1  0  0  0  0
 22 23  1  0  0  0  0
 23 24  1  0  0  0  0
 23 25  2  0  0  0  0
 24 27  1  0  0  0  0
 25 26  1  0  0  0  0
 26 27  2  0  0  0  0
 27 28  1  0  0  0  0
 28 41  1  0  0  0  0
 28 42  1  0  0  0  0
M  CHG  1  25   1
M  END
$$$$
