3R4M_WOE_A_501
 OpenBabel03301717203D

 26 27  0  0  0  0  0  0  0  0999 V2000
   56.2593   36.2498   90.6611 C   0  0  0  0  0  0  0  0  0  0  0  0
   55.9698   35.9564   89.2983 O   0  0  0  0  0  0  0  0  0  0  0  0
   55.9747   37.0334   88.4428 C   0  0  0  0  0  0  0  0  0  0  0  0
   56.4814   38.2891   88.8208 C   0  0  0  0  0  0  0  0  0  0  0  0
   56.4806   39.3543   87.9335 C   0  0  0  0  0  0  0  0  0  0  0  0
   55.9772   39.1785   86.6502 C   0  0  0  0  0  0  0  0  0  0  0  0
   55.4820   37.9325   86.2546 C   0  0  0  0  0  0  0  0  0  0  0  0
   55.4649   36.8326   87.1433 C   0  0  0  0  0  0  0  0  0  0  0  0
   54.8914   35.5436   86.6990 C   0  0  0  0  0  0  0  0  0  0  0  0
   53.9721   34.8560   87.4585 C   0  0  0  0  0  0  0  0  0  0  0  0
   53.5505   33.6651   86.9319 C   0  0  0  0  0  0  0  0  0  0  0  0
   52.4138   32.6957   87.7792 Cl  0  0  0  0  0  0  0  0  0  0  0  0
   53.9519   33.1541   85.7618 N   0  0  0  0  0  0  0  0  0  0  0  0
   54.8229   33.8963   85.0859 C   0  0  0  0  0  0  0  0  0  0  0  0
   55.2420   33.4294   83.8753 N   0  0  0  0  0  0  0  0  0  0  0  0
   55.3069   35.0781   85.4912 N   0  0  0  0  0  0  0  0  0  0  0  0
   56.1814   35.3256   91.2403 H   0  0  0  0  0  0  0  0  0  0  0  0
   55.5308   36.9629   91.0628 H   0  0  0  0  0  0  0  0  0  0  0  0
   57.2839   36.6190   90.7735 H   0  0  0  0  0  0  0  0  0  0  0  0
   56.8944   38.4774   89.8038 H   0  0  0  0  0  0  0  0  0  0  0  0
   56.8753   40.3191   88.2439 H   0  0  0  0  0  0  0  0  0  0  0  0
   55.9655   40.0134   85.9489 H   0  0  0  0  0  0  0  0  0  0  0  0
   55.0838   37.8211   85.2461 H   0  0  0  0  0  0  0  0  0  0  0  0
   53.6121   35.2214   88.4095 H   0  0  0  0  0  0  0  0  0  0  0  0
   55.9546   33.9472   83.3913 H   0  0  0  0  0  0  0  0  0  0  0  0
   54.9297   32.5172   83.5881 H   0  0  0  0  0  0  0  0  0  0  0  0
  1  2  1  0  0  0  0
  1 17  1  0  0  0  0
  1 18  1  0  0  0  0
  1 19  1  0  0  0  0
  2  3  1  0  0  0  0
  3  4  2  0  0  0  0
  3  8  1  0  0  0  0
  4  5  1  0  0  0  0
  4 20  1  0  0  0  0
  5  6  2  0  0  0  0
  5 21  1  0  0  0  0
  6  7  1  0  0  0  0
  6 22  1  0  0  0  0
  7  8  2  0  0  0  0
  7 23  1  0  0  0  0
  8  9  1  0  0  0  0
  9 10  2  0  0  0  0
  9 16  1  0  0  0  0
 10 11  1  0  0  0  0
 10 24  1  0  0  0  0
 11 12  1  0  0  0  0
 11 13  2  0  0  0  0
 13 14  1  0  0  0  0
 14 15  1  0  0  0  0
 14 16  2  0  0  0  0
 15 25  1  0  0  0  0
 15 26  1  0  0  0  0
M  END
$$$$
