2XHR_C0P_A_1001
 OpenBabel03301717063D

 42 44  0  0  0  0  0  0  0  0999 V2000
   -3.6732   11.5539   23.7688 N   0  0  0  0  0  0  0  0  0  0  0  0
   -2.6803   11.1459   24.6420 C   0  0  0  0  0  0  0  0  0  0  0  0
   -3.0785   10.6550   25.8109 N   0  0  0  0  0  0  0  0  0  0  0  0
   -2.0863   10.2727   26.6277 C   0  0  0  0  0  0  0  0  0  0  0  0
   -2.5711    9.6317   28.1499 Cl  0  0  0  0  0  0  0  0  0  0  0  0
   -0.7610   10.3515   26.3144 C   0  0  0  0  0  0  0  0  0  0  0  0
   -0.4453   10.8839   25.0912 C   0  0  0  0  0  0  0  0  0  0  0  0
   -1.4119   11.2753   24.2314 N   0  0  0  0  0  0  0  0  0  0  0  0
    0.9623   11.0237   24.6787 C   0  0  0  0  0  0  0  0  0  0  0  0
    1.7528    9.8651   24.5431 C   0  0  0  0  0  0  0  0  0  0  0  0
    3.1039    9.9351   24.1974 C   0  0  0  0  0  0  0  0  0  0  0  0
    3.8778    8.8345   24.0204 O   0  0  0  0  0  0  0  0  0  0  0  0
    3.3311    7.5625   24.3456 C   0  0  0  0  0  0  0  0  0  0  0  0
    4.3972    6.5078   24.0508 C   0  0  0  0  0  0  0  0  0  0  0  0
    5.5638    6.5443   24.9501 N   0  0  0  0  0  0  0  0  0  0  0  0
    5.1682    6.6175   26.3741 C   0  0  0  0  0  0  0  0  0  0  0  0
    6.3974    6.6808   27.2818 C   0  0  0  0  0  0  0  0  0  0  0  0
    7.2416    7.7920   26.9475 O   0  0  0  0  0  0  0  0  0  0  0  0
    7.6653    7.6882   25.5789 C   0  0  0  0  0  0  0  0  0  0  0  0
    6.4659    7.6741   24.6292 C   0  0  0  0  0  0  0  0  0  0  0  0
    3.7102   11.1807   24.0026 C   0  0  0  0  0  0  0  0  0  0  0  0
    5.3859   11.3231   23.5973 Cl  0  0  0  0  0  0  0  0  0  0  0  0
    2.9639   12.3507   24.1524 C   0  0  0  0  0  0  0  0  0  0  0  0
    1.5981   12.2679   24.4758 C   0  0  0  0  0  0  0  0  0  0  0  0
    0.7424   13.7587   24.6602 Cl  0  0  0  0  0  0  0  0  0  0  0  0
   -3.4056   11.9436   22.8884 H   0  0  0  0  0  0  0  0  0  0  0  0
   -4.6278   11.4629   24.0549 H   0  0  0  0  0  0  0  0  0  0  0  0
   -0.0005   10.0188   27.0083 H   0  0  0  0  0  0  0  0  0  0  0  0
    1.2837    8.9043   24.7297 H   0  0  0  0  0  0  0  0  0  0  0  0
    2.4464    7.3602   23.7402 H   0  0  0  0  0  0  0  0  0  0  0  0
    3.0458    7.5123   25.3989 H   0  0  0  0  0  0  0  0  0  0  0  0
    4.7326    6.6356   23.0131 H   0  0  0  0  0  0  0  0  0  0  0  0
    3.9307    5.5162   24.1191 H   0  0  0  0  0  0  0  0  0  0  0  0
    4.5733    5.7370   26.6464 H   0  0  0  0  0  0  0  0  0  0  0  0
    4.5700    7.5124   26.5822 H   0  0  0  0  0  0  0  0  0  0  0  0
    6.9653    5.7506   27.1889 H   0  0  0  0  0  0  0  0  0  0  0  0
    6.0808    6.7918   28.3252 H   0  0  0  0  0  0  0  0  0  0  0  0
    8.2481    6.7696   25.4476 H   0  0  0  0  0  0  0  0  0  0  0  0
    8.3145    8.5433   25.3511 H   0  0  0  0  0  0  0  0  0  0  0  0
    5.9623    8.6371   24.7315 H   0  0  0  0  0  0  0  0  0  0  0  0
    6.8374    7.5871   23.6015 H   0  0  0  0  0  0  0  0  0  0  0  0
    3.4402   13.3165   24.0074 H   0  0  0  0  0  0  0  0  0  0  0  0
  1  2  1  0  0  0  0
  1 26  1  0  0  0  0
  1 27  1  0  0  0  0
  2  3  2  0  0  0  0
  2  8  1  0  0  0  0
  3  4  1  0  0  0  0
  4  5  1  0  0  0  0
  4  6  2  0  0  0  0
  6  7  1  0  0  0  0
  6 28  1  0  0  0  0
  7  8  2  0  0  0  0
  7  9  1  0  0  0  0
  9 10  2  0  0  0  0
  9 24  1  0  0  0  0
 10 11  1  0  0  0  0
 10 29  1  0  0  0  0
 11 12  1  0  0  0  0
 11 21  2  0  0  0  0
 12 13  1  0  0  0  0
 13 14  1  0  0  0  0
 13 30  1  0  0  0  0
 13 31  1  0  0  0  0
 14 15  1  0  0  0  0
 14 32  1  0  0  0  0
 14 33  1  0  0  0  0
 15 16  1  0  0  0  0
 15 20  1  0  0  0  0
 16 17  1  0  0  0  0
 16 34  1  0  0  0  0
 16 35  1  0  0  0  0
 17 18  1  0  0  0  0
 17 36  1  0  0  0  0
 17 37  1  0  0  0  0
 18 19  1  0  0  0  0
 19 20  1  0  0  0  0
 19 38  1  0  0  0  0
 19 39  1  0  0  0  0
 20 40  1  0  0  0  0
 20 41  1  0  0  0  0
 21 22  1  0  0  0  0
 21 23  1  0  0  0  0
 23 24  2  0  0  0  0
 23 42  1  0  0  0  0
 24 25  1  0  0  0  0
M  END
$$$$
