2YE5_2A7_A_1224
 OpenBabel03301717083D

 18 18  0  0  0  0  0  0  0  0999 V2000
   68.3037   34.6344   26.8575 C   0  0  0  0  0  0  0  0  0  0  0  0
   67.6916   33.7121   25.9411 O   0  0  0  0  0  0  0  0  0  0  0  0
   66.3497   33.4864   26.1422 C   0  0  0  0  0  0  0  0  0  0  0  0
   65.8711   32.7714   27.2463 C   0  0  0  0  0  0  0  0  0  0  0  0
   64.4982   32.4737   27.3569 C   0  0  0  0  0  0  0  0  0  0  0  0
   64.0702   31.7831   28.4677 O   0  0  0  0  0  0  0  0  0  0  0  0
   63.6137   32.8847   26.3729 C   0  0  0  0  0  0  0  0  0  0  0  0
   64.0958   33.5801   25.2586 C   0  0  0  0  0  0  0  0  0  0  0  0
   65.4723   33.8726   25.1343 C   0  0  0  0  0  0  0  0  0  0  0  0
   63.1969   33.9770   24.3033 O   0  0  0  0  0  0  0  0  0  0  0  0
   69.3684   34.7304   26.6024 H   0  0  0  0  0  0  0  0  0  0  0  0
   68.2498   34.2917   27.8953 H   0  0  0  0  0  0  0  0  0  0  0  0
   67.8618   35.6317   26.7615 H   0  0  0  0  0  0  0  0  0  0  0  0
   66.5636   32.4147   28.0033 H   0  0  0  0  0  0  0  0  0  0  0  0
   63.1132   31.6435   28.4519 H   0  0  0  0  0  0  0  0  0  0  0  0
   62.5473   32.6728   26.4576 H   0  0  0  0  0  0  0  0  0  0  0  0
   65.8244   34.3969   24.2573 H   0  0  0  0  0  0  0  0  0  0  0  0
   63.6255   34.4496   23.5708 H   0  0  0  0  0  0  0  0  0  0  0  0
  1  2  1  0  0  0  0
  1 11  1  0  0  0  0
  1 12  1  0  0  0  0
  1 13  1  0  0  0  0
  2  3  1  0  0  0  0
  3  4  2  0  0  0  0
  3  9  1  0  0  0  0
  4  5  1  0  0  0  0
  4 14  1  0  0  0  0
  5  6  1  0  0  0  0
  5  7  2  0  0  0  0
  6 15  1  0  0  0  0
  7  8  1  0  0  0  0
  7 16  1  0  0  0  0
  8  9  2  0  0  0  0
  8 10  1  0  0  0  0
  9 17  1  0  0  0  0
 10 18  1  0  0  0  0
M  END
$$$$
