4XIP_40W_A_301
 OpenBabel03301717353D

 42 44  0  0  1  0  0  0  0  0999 V2000
   -1.6279  -10.5458  -26.2180 N   0  0  0  0  0  0  0  0  0  0  0  0
    6.4999  -11.9891  -24.0794 C   0  0  2  0  0  0  0  0  0  0  0  0
    7.6130  -12.9025  -24.3384 C   0  0  0  0  0  0  0  0  0  0  0  0
    7.2387  -14.3359  -24.7294 C   0  0  0  0  0  0  0  0  0  0  0  0
    5.9376  -14.4338  -25.5633 C   0  0  0  0  0  0  0  0  0  0  0  0
    4.7675  -13.7162  -24.8405 C   0  0  0  0  0  0  0  0  0  0  0  0
    6.1622  -13.8342  -26.9652 C   0  0  0  0  0  0  0  0  0  0  0  0
    1.0451  -10.1411  -25.2126 C   0  0  0  0  0  0  0  0  0  0  0  0
    0.7548  -12.2440  -24.0392 C   0  0  0  0  0  0  0  0  0  0  0  0
   -1.2402  -11.1811  -25.0679 C   0  0  0  0  0  0  0  0  0  0  0  0
   -2.0497  -11.7409  -24.3439 O   0  0  0  0  0  0  0  0  0  0  0  0
    0.2139  -11.1804  -24.7725 C   0  0  2  0  0  0  0  0  0  0  0  0
    2.4122  -10.1717  -24.9365 C   0  0  0  0  0  0  0  0  0  0  0  0
    2.1283  -12.2926  -23.7850 C   0  0  0  0  0  0  0  0  0  0  0  0
    2.9541  -11.2595  -24.2442 C   0  0  1  0  0  0  0  0  0  0  0  0
    4.3549  -11.3142  -24.0480 N   0  3  2  0  0  0  0  0  0  0  0  0
    5.1397  -10.2521  -23.6562 C   0  0  0  0  0  0  0  0  0  0  0  0
    5.1923  -12.3856  -24.2970 C   0  0  2  0  0  0  0  0  0  0  0  0
    5.5624  -15.9169  -25.7444 C   0  0  0  0  0  0  0  0  0  0  0  0
    8.7881  -12.5724  -24.2152 O   0  0  0  0  0  0  0  0  0  0  0  0
    6.4717  -10.6264  -23.6534 C   0  0  2  0  0  0  0  0  0  0  0  0
    7.6046   -9.7329  -23.2904 C   0  0  0  0  0  0  0  0  0  0  0  0
   -2.6026  -10.5935  -26.4740 H   0  0  0  0  0  0  0  0  0  0  0  0
   -0.9729  -10.1945  -26.9007 H   0  0  0  0  0  0  0  0  0  0  0  0
    7.1344  -14.9102  -23.8010 H   0  0  0  0  0  0  0  0  0  0  0  0
    8.0749  -14.7657  -25.2933 H   0  0  0  0  0  0  0  0  0  0  0  0
    4.4296  -14.3318  -23.9962 H   0  0  0  0  0  0  0  0  0  0  0  0
    3.9282  -13.6065  -25.5352 H   0  0  0  0  0  0  0  0  0  0  0  0
    6.4404  -12.7765  -26.9209 H   0  0  0  0  0  0  0  0  0  0  0  0
    5.2556  -13.9139  -27.5752 H   0  0  0  0  0  0  0  0  0  0  0  0
    6.9629  -14.3652  -27.4934 H   0  0  0  0  0  0  0  0  0  0  0  0
    0.6411   -9.2981  -25.7648 H   0  0  0  0  0  0  0  0  0  0  0  0
    0.1080  -13.0399  -23.6766 H   0  0  0  0  0  0  0  0  0  0  0  0
    3.0442   -9.3728  -25.3182 H   0  0  0  0  0  0  0  0  0  0  0  0
    2.5273  -13.1173  -23.2013 H   0  0  0  0  0  0  0  0  0  0  0  0
    4.6893   -9.3074  -23.3727 H   0  0  0  0  0  0  0  0  0  0  0  0
    5.3927  -16.4039  -24.7777 H   0  0  0  0  0  0  0  0  0  0  0  0
    6.3566  -16.4681  -26.2603 H   0  0  0  0  0  0  0  0  0  0  0  0
    4.6449  -16.0212  -26.3352 H   0  0  0  0  0  0  0  0  0  0  0  0
    8.5733  -10.2275  -23.3789 H   0  0  0  0  0  0  0  0  0  0  0  0
    7.4988   -9.3822  -22.2587 H   0  0  0  0  0  0  0  0  0  0  0  0
    7.6151   -8.8539  -23.9434 H   0  0  0  0  0  0  0  0  0  0  0  0
  1 10  1  0  0  0  0
  1 23  1  0  0  0  0
  1 24  1  0  0  0  0
  2  3  1  6  0  0  0
  2 18  1  0  0  0  0
  2 21  1  0  0  0  0
  3  4  1  0  0  0  0
  3 20  2  0  0  0  0
  4  5  1  0  0  0  0
  4 25  1  0  0  0  0
  4 26  1  0  0  0  0
  5  6  1  0  0  0  0
  5  7  1  0  0  0  0
  5 19  1  0  0  0  0
  6 27  1  0  0  0  0
  6 28  1  0  0  0  0
  7 29  1  0  0  0  0
  7 30  1  0  0  0  0
  7 31  1  0  0  0  0
  8 12  1  0  0  0  0
  8 13  1  0  0  0  0
  8 32  1  0  0  0  0
  9 12  1  0  0  0  0
  9 14  1  0  0  0  0
  9 33  1  0  0  0  0
 10 11  2  0  0  0  0
 12 10  1  6  0  0  0
 13 34  1  0  0  0  0
 14 15  1  0  0  0  0
 14 35  1  0  0  0  0
 15 13  1  6  0  0  0
 15 16  1  0  0  0  0
 16 17  1  6  0  0  0
 16 18  1  0  0  0  0
 17 21  1  0  0  0  0
 17 36  1  0  0  0  0
 18  6  1  6  0  0  0
 19 37  1  0  0  0  0
 19 38  1  0  0  0  0
 19 39  1  0  0  0  0
 21 22  1  6  0  0  0
 22 40  1  0  0  0  0
 22 41  1  0  0  0  0
 22 42  1  0  0  0  0
M  CHG  1  16   1
M  END
$$$$
