3BM9_BXZ_A_1
 OpenBabel03301717153D

 27 29  0  0  0  0  0  0  0  0999 V2000
   -0.8608   37.4939   26.8414 C   0  0  0  0  0  0  0  0  0  0  0  0
   -0.2683   36.4485   26.1233 C   0  0  0  0  0  0  0  0  0  0  0  0
    0.8697   35.8247   26.6676 C   0  0  0  0  0  0  0  0  0  0  0  0
    1.3589   36.2771   27.8790 C   0  0  0  0  0  0  0  0  0  0  0  0
    0.8063   37.3210   28.6152 C   0  0  0  0  0  0  0  0  0  0  0  0
   -0.3261   37.9145   28.0573 C   0  0  0  0  0  0  0  0  0  0  0  0
   -0.9605   38.9444   28.6982 O   0  0  0  0  0  0  0  0  0  0  0  0
    2.4473   35.5452   28.2252 O   0  0  0  0  0  0  0  0  0  0  0  0
    2.6879   34.5858   27.2596 N   0  0  0  0  0  0  0  0  0  0  0  0
    1.7563   34.7651   26.3088 C   0  0  0  0  0  0  0  0  0  0  0  0
    1.6944   33.9325   25.1083 C   0  0  0  0  0  0  0  0  0  0  0  0
    0.4570   33.4063   24.7023 C   0  0  0  0  0  0  0  0  0  0  0  0
    0.3592   32.6417   23.5390 C   0  0  0  0  0  0  0  0  0  0  0  0
    1.4962   32.3968   22.7667 C   0  0  0  0  0  0  0  0  0  0  0  0
    2.7356   32.9021   23.1595 C   0  0  0  0  0  0  0  0  0  0  0  0
    2.8296   33.6671   24.3265 C   0  0  0  0  0  0  0  0  0  0  0  0
    4.0404   34.1948   24.6829 O   0  0  0  0  0  0  0  0  0  0  0  0
    1.3860   31.6613   21.6187 O   0  0  0  0  0  0  0  0  0  0  0  0
   -1.3381   31.9526   23.0488 Br  0  0  0  0  0  0  0  0  0  0  0  0
   -1.7494   37.9814   26.4437 H   0  0  0  0  0  0  0  0  0  0  0  0
   -0.6907   36.1280   25.1750 H   0  0  0  0  0  0  0  0  0  0  0  0
    1.2398   37.6311   29.5563 H   0  0  0  0  0  0  0  0  0  0  0  0
   -0.4876   39.1320   29.5261 H   0  0  0  0  0  0  0  0  0  0  0  0
   -0.4365   33.5888   25.2958 H   0  0  0  0  0  0  0  0  0  0  0  0
    3.6188   32.7126   22.5597 H   0  0  0  0  0  0  0  0  0  0  0  0
    4.7418   33.8675   24.0988 H   0  0  0  0  0  0  0  0  0  0  0  0
    2.2499   31.5913   21.1840 H   0  0  0  0  0  0  0  0  0  0  0  0
  1  2  2  0  0  0  0
  1  6  1  0  0  0  0
  1 20  1  0  0  0  0
  2  3  1  0  0  0  0
  2 21  1  0  0  0  0
  3  4  2  0  0  0  0
  3 10  1  0  0  0  0
  4  5  1  0  0  0  0
  4  8  1  0  0  0  0
  5  6  2  0  0  0  0
  5 22  1  0  0  0  0
  6  7  1  0  0  0  0
  7 23  1  0  0  0  0
  8  9  1  0  0  0  0
  9 10  2  0  0  0  0
 10 11  1  0  0  0  0
 11 12  2  0  0  0  0
 11 16  1  0  0  0  0
 12 13  1  0  0  0  0
 12 24  1  0  0  0  0
 13 14  2  0  0  0  0
 13 19  1  0  0  0  0
 14 15  1  0  0  0  0
 14 18  1  0  0  0  0
 15 16  2  0  0  0  0
 15 25  1  0  0  0  0
 16 17  1  0  0  0  0
 17 26  1  0  0  0  0
 18 27  1  0  0  0  0
M  END
$$$$
