1UYC_PU7_A_1224
 OpenBabel03301716573D

 48 50  0  0  0  0  0  0  0  0999 V2000
    7.6517   10.0696   23.0788 C   0  0  0  0  0  0  0  0  0  0  0  0
    6.6884   12.6195   23.8705 C   0  0  0  0  0  0  0  0  0  0  0  0
    6.3124   10.4685   22.7838 O   0  0  0  0  0  0  0  0  0  0  0  0
    5.8426   11.5771   23.4313 C   0  0  0  0  0  0  0  0  0  0  0  0
    6.1690   13.7568   24.4976 C   0  0  0  0  0  0  0  0  0  0  0  0
    4.8051   13.8733   24.7015 C   0  0  0  0  0  0  0  0  0  0  0  0
    4.1472   14.9029   25.3067 O   0  0  0  0  0  0  0  0  0  0  0  0
    4.9058   16.0633   25.6401 C   0  0  0  0  0  0  0  0  0  0  0  0
    3.9576   12.8521   24.2610 C   0  0  0  0  0  0  0  0  0  0  0  0
    4.4513   11.6964   23.6267 C   0  0  0  0  0  0  0  0  0  0  0  0
    3.4634   10.6534   23.1147 C   0  0  0  0  0  0  0  0  0  0  0  0
    2.2266   10.4743   23.9674 C   0  0  0  0  0  0  0  0  0  0  0  0
    1.0285   10.9603   23.7035 N   0  0  0  0  0  0  0  0  0  0  0  0
    0.2297   10.6158   24.7865 C   0  0  0  0  0  0  0  0  0  0  0  0
   -1.1206   10.8824   25.0983 C   0  0  0  0  0  0  0  0  0  0  0  0
   -1.9577   11.6255   24.2859 N   0  0  0  0  0  0  0  0  0  0  0  0
    0.9674    9.8863   25.7050 C   0  0  0  0  0  0  0  0  0  0  0  0
    0.5166    9.4011   26.8807 N   0  0  0  0  0  0  0  0  0  0  0  0
   -0.7893    9.7045   27.0674 C   0  0  0  0  0  0  0  0  0  0  0  0
   -1.6174   10.3961   26.2596 N   0  0  0  0  0  0  0  0  0  0  0  0
    2.2253    9.7778   25.1569 N   0  3  0  0  0  0  0  0  0  0  0  0
    3.3761    9.1617   25.7926 C   0  0  0  0  0  0  0  0  0  0  0  0
    3.4335    7.6334   25.6818 C   0  0  0  0  0  0  0  0  0  0  0  0
    3.8335    7.0076   24.3364 C   0  0  0  0  0  0  0  0  0  0  0  0
    5.2472    7.2686   23.8348 C   0  0  0  0  0  0  0  0  0  0  0  0
    7.8547    9.1418   22.5344 H   0  0  0  0  0  0  0  0  0  0  0  0
    7.7714    9.8618   24.1488 H   0  0  0  0  0  0  0  0  0  0  0  0
    8.3873   10.8051   22.7367 H   0  0  0  0  0  0  0  0  0  0  0  0
    7.7578   12.5791   23.7072 H   0  0  0  0  0  0  0  0  0  0  0  0
    6.8624   14.5308   24.8060 H   0  0  0  0  0  0  0  0  0  0  0  0
    4.2186   16.7754   26.1003 H   0  0  0  0  0  0  0  0  0  0  0  0
    5.3222   16.5241   24.7412 H   0  0  0  0  0  0  0  0  0  0  0  0
    5.6843   15.8269   26.3686 H   0  0  0  0  0  0  0  0  0  0  0  0
    2.8909   12.9771   24.4135 H   0  0  0  0  0  0  0  0  0  0  0  0
    3.9466    9.6780   23.0325 H   0  0  0  0  0  0  0  0  0  0  0  0
    3.1616   10.9297   22.0978 H   0  0  0  0  0  0  0  0  0  0  0  0
   -2.9374   11.5991   24.5032 H   0  0  0  0  0  0  0  0  0  0  0  0
   -1.6357   11.8317   23.3512 H   0  0  0  0  0  0  0  0  0  0  0  0
   -1.2280    9.3527   27.9967 H   0  0  0  0  0  0  0  0  0  0  0  0
    3.3317    9.4450   26.8533 H   0  0  0  0  0  0  0  0  0  0  0  0
    4.2932    9.6128   25.4054 H   0  0  0  0  0  0  0  0  0  0  0  0
    2.4457    7.2325   25.9403 H   0  0  0  0  0  0  0  0  0  0  0  0
    4.1276    7.2668   26.4476 H   0  0  0  0  0  0  0  0  0  0  0  0
    3.1165    7.2938   23.5601 H   0  0  0  0  0  0  0  0  0  0  0  0
    3.7453    5.9200   24.4546 H   0  0  0  0  0  0  0  0  0  0  0  0
    5.4149    8.3178   23.6103 H   0  0  0  0  0  0  0  0  0  0  0  0
    5.4130    6.7120   22.9034 H   0  0  0  0  0  0  0  0  0  0  0  0
    6.0099    6.9502   24.5506 H   0  0  0  0  0  0  0  0  0  0  0  0
  1  3  1  0  0  0  0
  1 26  1  0  0  0  0
  1 27  1  0  0  0  0
  1 28  1  0  0  0  0
  2  4  2  0  0  0  0
  2  5  1  0  0  0  0
  2 29  1  0  0  0  0
  3  4  1  0  0  0  0
  4 10  1  0  0  0  0
  5  6  2  0  0  0  0
  5 30  1  0  0  0  0
  6  7  1  0  0  0  0
  6  9  1  0  0  0  0
  7  8  1  0  0  0  0
  8 31  1  0  0  0  0
  8 32  1  0  0  0  0
  8 33  1  0  0  0  0
  9 10  2  0  0  0  0
  9 34  1  0  0  0  0
 10 11  1  0  0  0  0
 11 12  1  0  0  0  0
 11 35  1  0  0  0  0
 11 36  1  0  0  0  0
 12 13  1  0  0  0  0
 12 21  2  0  0  0  0
 13 14  1  0  0  0  0
 14 15  2  0  0  0  0
 14 17  1  0  0  0  0
 15 16  1  0  0  0  0
 15 20  1  0  0  0  0
 16 37  1  0  0  0  0
 16 38  1  0  0  0  0
 17 18  2  0  0  0  0
 17 21  1  0  0  0  0
 18 19  1  0  0  0  0
 19 20  2  0  0  0  0
 19 39  1  0  0  0  0
 21 22  1  0  0  0  0
 22 23  1  0  0  0  0
 22 40  1  0  0  0  0
 22 41  1  0  0  0  0
 23 24  1  0  0  0  0
 23 42  1  0  0  0  0
 23 43  1  0  0  0  0
 24 25  1  0  0  0  0
 24 44  1  0  0  0  0
 24 45  1  0  0  0  0
 25 46  1  0  0  0  0
 25 47  1  0  0  0  0
 25 48  1  0  0  0  0
M  CHG  1  21   1
M  END
$$$$
