1YC4_43P_A_301
 OpenBabel03301716593D

 34 36  0  0  0  0  0  0  0  0999 V2000
   32.7098   32.2172   -3.7624 O   0  0  0  0  0  0  0  0  0  0  0  0
   33.9025   32.0776   -3.1120 C   0  0  0  0  0  0  0  0  0  0  0  0
   33.8515   31.6939   -1.7787 C   0  0  0  0  0  0  0  0  0  0  0  0
   35.0319   31.5244   -1.0557 C   0  0  0  0  0  0  0  0  0  0  0  0
   34.8838   31.1674    0.2527 O   0  0  0  0  0  0  0  0  0  0  0  0
   36.2843   31.7053   -1.6589 C   0  0  0  0  0  0  0  0  0  0  0  0
   37.5855   31.3325   -0.9903 C   0  0  0  0  0  0  0  0  0  0  0  0
   37.7841   29.8216   -1.0395 C   0  0  0  0  0  0  0  0  0  0  0  0
   36.3174   32.1442   -2.9915 C   0  0  0  0  0  0  0  0  0  0  0  0
   35.1332   32.3294   -3.7239 C   0  0  0  0  0  0  0  0  0  0  0  0
   35.2125   32.8274   -5.0828 C   0  0  0  0  0  0  0  0  0  0  0  0
   34.9079   32.0654   -6.1821 N   0  3  0  0  0  0  0  0  0  0  0  0
   35.0457   32.7188   -7.3493 N   0  0  0  0  0  0  0  0  0  0  0  0
   35.4934   33.9206   -6.9855 C   0  0  0  0  0  0  0  0  0  0  0  0
   35.5933   34.0505   -5.5910 C   0  0  0  0  0  0  0  0  0  0  0  0
   35.9866   35.2464   -4.8259 C   0  0  0  0  0  0  0  0  0  0  0  0
   36.6354   36.3646   -5.3135 C   0  0  0  0  0  0  0  0  0  0  0  0
   36.7965   37.2955   -4.3240 N   0  0  0  0  0  0  0  0  0  0  0  0
   36.2492   36.7630   -3.2536 C   0  0  0  0  0  0  0  0  0  0  0  0
   35.7701   35.5103   -3.5000 N   0  3  0  0  0  0  0  0  0  0  0  0
   32.8549   32.6192   -4.6358 H   0  0  0  0  0  0  0  0  0  0  0  0
   32.8909   31.5228   -1.3002 H   0  0  0  0  0  0  0  0  0  0  0  0
   35.7439   31.1882    0.6984 H   0  0  0  0  0  0  0  0  0  0  0  0
   37.6115   31.6937    0.0434 H   0  0  0  0  0  0  0  0  0  0  0  0
   38.4282   31.8221   -1.4955 H   0  0  0  0  0  0  0  0  0  0  0  0
   36.9725   29.2942   -0.5262 H   0  0  0  0  0  0  0  0  0  0  0  0
   38.7269   29.5393   -0.5625 H   0  0  0  0  0  0  0  0  0  0  0  0
   37.8062   29.4632   -2.0752 H   0  0  0  0  0  0  0  0  0  0  0  0
   37.2770   32.3301   -3.4725 H   0  0  0  0  0  0  0  0  0  0  0  0
   34.5777   31.1045   -6.2013 H   0  0  0  0  0  0  0  0  0  0  0  0
   35.6929   34.6652   -7.7437 H   0  0  0  0  0  0  0  0  0  0  0  0
   36.9983   36.5337   -6.3136 H   0  0  0  0  0  0  0  0  0  0  0  0
   36.1668   37.2347   -2.2838 H   0  0  0  0  0  0  0  0  0  0  0  0
   35.2789   34.9175   -2.8417 H   0  0  0  0  0  0  0  0  0  0  0  0
  1  2  1  0  0  0  0
  1 21  1  0  0  0  0
  2  3  2  0  0  0  0
  2 10  1  0  0  0  0
  3  4  1  0  0  0  0
  3 22  1  0  0  0  0
  4  5  1  0  0  0  0
  4  6  2  0  0  0  0
  5 23  1  0  0  0  0
  6  7  1  0  0  0  0
  6  9  1  0  0  0  0
  7  8  1  0  0  0  0
  7 24  1  0  0  0  0
  7 25  1  0  0  0  0
  8 26  1  0  0  0  0
  8 27  1  0  0  0  0
  8 28  1  0  0  0  0
  9 10  2  0  0  0  0
  9 29  1  0  0  0  0
 10 11  1  0  0  0  0
 11 12  2  0  0  0  0
 11 15  1  0  0  0  0
 12 13  1  0  0  0  0
 12 30  1  0  0  0  0
 13 14  1  0  0  0  0
 14 15  2  0  0  0  0
 14 31  1  0  0  0  0
 15 16  1  0  0  0  0
 16 17  2  0  0  0  0
 16 20  1  0  0  0  0
 17 18  1  0  0  0  0
 17 32  1  0  0  0  0
 18 19  1  0  0  0  0
 19 20  2  0  0  0  0
 19 33  1  0  0  0  0
 20 34  1  0  0  0  0
M  CHG  2  12   1  20   1
M  END
$$$$
