2YE2_XQI_A_1225
 OpenBabel03301717073D

 23 23  0  0  0  0  0  0  0  0999 V2000
   65.1051   33.5690   26.2431 C   0  0  0  0  0  0  0  0  0  0  0  0
   63.9191   33.9479   25.5960 C   0  0  0  0  0  0  0  0  0  0  0  0
   65.0255   32.8969   27.4725 C   0  0  0  0  0  0  0  0  0  0  0  0
   62.6823   33.6605   26.1700 C   0  0  0  0  0  0  0  0  0  0  0  0
   63.7826   32.6128   28.0362 C   0  0  0  0  0  0  0  0  0  0  0  0
   62.6060   32.9905   27.3909 C   0  0  0  0  0  0  0  0  0  0  0  0
   61.5602   34.0490   25.5045 O   0  0  0  0  0  0  0  0  0  0  0  0
   63.7593   31.9548   29.2335 O   0  0  0  0  0  0  0  0  0  0  0  0
   67.2404   34.8846   26.4309 C   0  0  0  0  0  0  0  0  0  0  0  0
   68.1146   34.5951   27.2370 O   0  0  0  0  0  0  0  0  0  0  0  0
   66.4463   33.8841   25.6257 C   0  0  0  0  0  0  0  0  0  0  0  0
   66.7982   36.1478   26.1641 O   0  0  0  0  0  0  0  0  0  0  0  0
   67.3267   37.1408   27.0392 C   0  0  0  0  0  0  0  0  0  0  0  0
   63.9539   34.4718   24.6447 H   0  0  0  0  0  0  0  0  0  0  0  0
   65.9347   32.5935   27.9887 H   0  0  0  0  0  0  0  0  0  0  0  0
   61.6427   32.7664   27.8377 H   0  0  0  0  0  0  0  0  0  0  0  0
   60.7706   33.7904   26.0048 H   0  0  0  0  0  0  0  0  0  0  0  0
   62.8376   31.8238   29.5125 H   0  0  0  0  0  0  0  0  0  0  0  0
   66.3246   34.2822   24.6103 H   0  0  0  0  0  0  0  0  0  0  0  0
   67.0363   32.9651   25.5209 H   0  0  0  0  0  0  0  0  0  0  0  0
   66.9240   38.1112   26.7336 H   0  0  0  0  0  0  0  0  0  0  0  0
   68.4172   37.1766   26.9766 H   0  0  0  0  0  0  0  0  0  0  0  0
   67.0015   36.9380   28.0635 H   0  0  0  0  0  0  0  0  0  0  0  0
  1  2  2  0  0  0  0
  1  3  1  0  0  0  0
  1 11  1  0  0  0  0
  2  4  1  0  0  0  0
  2 14  1  0  0  0  0
  3  5  2  0  0  0  0
  3 15  1  0  0  0  0
  4  6  2  0  0  0  0
  4  7  1  0  0  0  0
  5  6  1  0  0  0  0
  5  8  1  0  0  0  0
  6 16  1  0  0  0  0
  7 17  1  0  0  0  0
  8 18  1  0  0  0  0
  9 10  2  0  0  0  0
  9 11  1  0  0  0  0
  9 12  1  0  0  0  0
 11 19  1  0  0  0  0
 11 20  1  0  0  0  0
 12 13  1  0  0  0  0
 13 21  1  0  0  0  0
 13 22  1  0  0  0  0
 13 23  1  0  0  0  0
M  END
$$$$
