017
 OpenBabel04111919163D

 75 78  0  0  1  0  0  0  0  0999 V2000
   10.0316  -15.7367    8.5612 N   0  0  0  0  0  0  0  0  0  0  0  0
    9.7359  -15.5616    7.2250 C   0  0  0  0  0  0  0  0  0  0  0  0
   10.1228  -14.3963    6.5589 C   0  0  0  0  0  0  0  0  0  0  0  0
    9.8196  -14.2159    5.2257 C   0  0  0  0  0  0  0  0  0  0  0  0
    9.1500  -15.2449    4.5273 C   0  0  0  0  0  0  0  0  0  0  0  0
    8.7758  -16.4091    5.1762 C   0  0  0  0  0  0  0  0  0  0  0  0
    9.0648  -16.5659    6.5319 C   0  0  0  0  0  0  0  0  0  0  0  0
    8.6957  -15.0063    2.8494 S   0  0  0  0  0  0  0  0  0  0  0  0
    7.5426  -15.8645    2.6235 O   0  0  0  0  0  0  0  0  0  0  0  0
    8.6043  -13.5858    2.6276 O   0  0  0  0  0  0  0  0  0  0  0  0
   10.0199  -15.6326    1.9842 N   0  0  0  0  0  0  0  0  0  0  0  0
   11.3523  -15.0568    2.3076 C   0  0  0  0  0  0  0  0  0  0  0  0
   12.0042  -14.2561    1.1843 C   0  0  0  0  0  0  0  0  0  0  0  0
   12.4432  -15.1224    0.0197 C   0  0  0  0  0  0  0  0  0  0  0  0
   11.1376  -13.1046    0.6935 C   0  0  0  0  0  0  0  0  0  0  0  0
   10.0425  -17.1061    1.8195 C   0  0  0  0  0  0  0  0  0  0  0  0
    9.8402  -17.4898    0.3573 C   0  0  1  0  0  0  0  0  0  0  0  0
   10.1565  -18.8742    0.1513 O   0  0  0  0  0  0  0  0  0  0  0  0
    8.4502  -17.1435   -0.1761 C   0  0  1  0  0  0  0  0  0  0  0  0
    8.4926  -17.2983   -1.6132 N   0  0  0  0  0  0  0  0  0  0  0  0
    8.3987  -16.2732   -2.4875 C   0  0  0  0  0  0  0  0  0  0  0  0
    8.2797  -15.0900   -2.1888 O   0  0  0  0  0  0  0  0  0  0  0  0
    8.3951  -16.7651   -3.7385 O   0  0  0  0  0  0  0  0  0  0  0  0
    7.9934  -15.8702   -4.7898 C   0  0  1  0  0  0  0  0  0  0  0  0
    8.9396  -16.0897   -5.9479 C   0  0  0  0  0  0  0  0  0  0  0  0
    8.4488  -17.2503   -6.6368 O   0  0  0  0  0  0  0  0  0  0  0  0
    7.0398  -17.3463   -6.3981 C   0  0  1  0  0  0  0  0  0  0  0  0
    6.6663  -18.6329   -5.9110 O   0  0  0  0  0  0  0  0  0  0  0  0
    5.9888  -18.4939   -4.6628 C   0  0  0  0  0  0  0  0  0  0  0  0
    5.7501  -17.0233   -4.4022 C   0  0  0  0  0  0  0  0  0  0  0  0
    6.6567  -16.3067   -5.3650 C   0  0  1  0  0  0  0  0  0  0  0  0
    7.3808  -18.0691    0.4134 C   0  0  0  0  0  0  0  0  0  0  0  0
    5.3861  -16.6247   -0.0453 C   0  0  0  0  0  0  0  0  0  0  0  0
    4.1803  -16.3890   -0.6900 C   0  0  0  0  0  0  0  0  0  0  0  0
    3.6390  -17.3649   -1.5236 C   0  0  0  0  0  0  0  0  0  0  0  0
    4.3006  -18.5765   -1.7170 C   0  0  0  0  0  0  0  0  0  0  0  0
    5.5123  -18.8132   -1.0796 C   0  0  0  0  0  0  0  0  0  0  0  0
    6.0499  -17.8401   -0.2334 C   0  0  0  0  0  0  0  0  0  0  0  0
   10.4678  -14.9925    9.0872 H   0  0  0  0  0  0  0  0  0  0  0  0
    9.6869  -16.5492    9.0531 H   0  0  0  0  0  0  0  0  0  0  0  0
   10.6356  -13.6041    7.0887 H   0  0  0  0  0  0  0  0  0  0  0  0
   10.0835  -13.2858    4.7295 H   0  0  0  0  0  0  0  0  0  0  0  0
    8.2293  -17.1952    4.6495 H   0  0  0  0  0  0  0  0  0  0  0  0
    8.7401  -17.4702    7.0341 H   0  0  0  0  0  0  0  0  0  0  0  0
   12.0307  -15.8549    2.6270 H   0  0  0  0  0  0  0  0  0  0  0  0
   11.2749  -14.3916    3.1629 H   0  0  0  0  0  0  0  0  0  0  0  0
   12.9164  -13.8229    1.6147 H   0  0  0  0  0  0  0  0  0  0  0  0
   12.9509  -14.5346   -0.7476 H   0  0  0  0  0  0  0  0  0  0  0  0
   11.5826  -15.5433   -0.4804 H   0  0  0  0  0  0  0  0  0  0  0  0
   13.1070  -15.9263    0.3536 H   0  0  0  0  0  0  0  0  0  0  0  0
   10.8421  -12.4599    1.5263 H   0  0  0  0  0  0  0  0  0  0  0  0
   10.2347  -13.4654    0.1900 H   0  0  0  0  0  0  0  0  0  0  0  0
   11.6988  -12.4926   -0.0198 H   0  0  0  0  0  0  0  0  0  0  0  0
    9.2800  -17.5928    2.4315 H   0  0  0  0  0  0  0  0  0  0  0  0
   10.9829  -17.5346    2.1769 H   0  0  0  0  0  0  0  0  0  0  0  0
   10.5525  -16.9760   -0.2697 H   0  0  0  0  0  0  0  0  0  0  0  0
    9.5518  -19.4094    0.6871 H   0  0  0  0  0  0  0  0  0  0  0  0
    8.2116  -16.0908    0.0530 H   0  0  0  0  0  0  0  0  0  0  0  0
    8.5798  -18.2338   -1.9935 H   0  0  0  0  0  0  0  0  0  0  0  0
    7.9789  -14.8220   -4.4672 H   0  0  0  0  0  0  0  0  0  0  0  0
    9.9653  -16.2730   -5.6139 H   0  0  0  0  0  0  0  0  0  0  0  0
    8.9363  -15.2514   -6.6529 H   0  0  0  0  0  0  0  0  0  0  0  0
    6.5228  -17.1856   -7.3496 H   0  0  0  0  0  0  0  0  0  0  0  0
    6.6043  -18.9519   -3.8822 H   0  0  0  0  0  0  0  0  0  0  0  0
    5.0434  -19.0449   -4.7043 H   0  0  0  0  0  0  0  0  0  0  0  0
    5.9470  -16.7591   -3.3614 H   0  0  0  0  0  0  0  0  0  0  0  0
    4.7017  -16.7717   -4.5882 H   0  0  0  0  0  0  0  0  0  0  0  0
    6.1506  -15.4593   -5.8427 H   0  0  0  0  0  0  0  0  0  0  0  0
    7.2769  -17.9567    1.4954 H   0  0  0  0  0  0  0  0  0  0  0  0
    7.6669  -19.1124    0.2509 H   0  0  0  0  0  0  0  0  0  0  0  0
    5.8217  -15.8530    0.5870 H   0  0  0  0  0  0  0  0  0  0  0  0
    3.6722  -15.4406   -0.5417 H   0  0  0  0  0  0  0  0  0  0  0  0
    2.6991  -17.1741   -2.0346 H   0  0  0  0  0  0  0  0  0  0  0  0
    3.8887  -19.3267   -2.3836 H   0  0  0  0  0  0  0  0  0  0  0  0
    6.0488  -19.7415   -1.2651 H   0  0  0  0  0  0  0  0  0  0  0  0
  1  2  1  0  0  0  0
  1 39  1  0  0  0  0
  1 40  1  0  0  0  0
  2  3  2  0  0  0  0
  2  7  1  0  0  0  0
  3  4  1  0  0  0  0
  3 41  1  0  0  0  0
  4  5  2  0  0  0  0
  4 42  1  0  0  0  0
  5  6  1  0  0  0  0
  5  8  1  0  0  0  0
  6  7  2  0  0  0  0
  6 43  1  0  0  0  0
  7 44  1  0  0  0  0
  8  9  2  0  0  0  0
  8 10  2  0  0  0  0
  8 11  1  0  0  0  0
 11 12  1  0  0  0  0
 11 16  1  0  0  0  0
 12 13  1  0  0  0  0
 12 45  1  0  0  0  0
 12 46  1  0  0  0  0
 13 14  1  0  0  0  0
 13 15  1  0  0  0  0
 13 47  1  0  0  0  0
 14 48  1  0  0  0  0
 14 49  1  0  0  0  0
 14 50  1  0  0  0  0
 15 51  1  0  0  0  0
 15 52  1  0  0  0  0
 15 53  1  0  0  0  0
 16 17  1  0  0  0  0
 16 54  1  0  0  0  0
 16 55  1  0  0  0  0
 17 18  1  0  0  0  0
 17 19  1  0  0  0  0
 17 56  1  6  0  0  0
 18 57  1  0  0  0  0
 19 20  1  0  0  0  0
 19 32  1  0  0  0  0
 19 58  1  1  0  0  0
 20 21  1  0  0  0  0
 20 59  1  0  0  0  0
 21 22  2  0  0  0  0
 21 23  1  0  0  0  0
 23 24  1  0  0  0  0
 24 25  1  0  0  0  0
 24 31  1  0  0  0  0
 24 60  1  1  0  0  0
 25 26  1  0  0  0  0
 25 61  1  0  0  0  0
 25 62  1  0  0  0  0
 26 27  1  0  0  0  0
 27 28  1  0  0  0  0
 27 31  1  0  0  0  0
 27 63  1  6  0  0  0
 28 29  1  0  0  0  0
 29 30  1  0  0  0  0
 29 64  1  0  0  0  0
 29 65  1  0  0  0  0
 30 31  1  0  0  0  0
 30 66  1  0  0  0  0
 30 67  1  0  0  0  0
 31 68  1  6  0  0  0
 32 38  1  0  0  0  0
 32 69  1  0  0  0  0
 32 70  1  0  0  0  0
 33 34  2  0  0  0  0
 33 38  1  0  0  0  0
 33 71  1  0  0  0  0
 34 35  1  0  0  0  0
 34 72  1  0  0  0  0
 35 36  2  0  0  0  0
 35 73  1  0  0  0  0
 36 37  1  0  0  0  0
 36 74  1  0  0  0  0
 37 38  2  0  0  0  0
 37 75  1  0  0  0  0
M  END
$$$$
