017
 OpenBabel04111921113D

 75 78  0  0  1  0  0  0  0  0999 V2000
   14.3045   35.0107   18.3764 N   0  0  0  0  0  0  0  0  0  0  0  0
   15.1391   34.5038   17.3940 C   0  0  0  0  0  0  0  0  0  0  0  0
   16.2450   35.2349   16.9418 C   0  0  0  0  0  0  0  0  0  0  0  0
   17.1446   34.6711   16.0409 C   0  0  0  0  0  0  0  0  0  0  0  0
   16.9578   33.3466   15.6304 C   0  0  0  0  0  0  0  0  0  0  0  0
   15.8775   32.6001   16.0857 C   0  0  0  0  0  0  0  0  0  0  0  0
   14.9797   33.1805   16.9697 C   0  0  0  0  0  0  0  0  0  0  0  0
   18.0656   32.6153   14.4649 S   0  0  0  0  0  0  0  0  0  0  0  0
   17.3762   31.4963   13.8595 O   0  0  0  0  0  0  0  0  0  0  0  0
   18.6187   33.6840   13.6593 O   0  0  0  0  0  0  0  0  0  0  0  0
   19.2917   32.0028   15.4679 N   0  0  0  0  0  0  0  0  0  0  0  0
   20.0159   33.0068   16.2855 C   0  0  0  0  0  0  0  0  0  0  0  0
   21.5047   32.6814   16.4134 C   0  0  0  0  0  0  0  0  0  0  0  0
   22.1946   32.6319   15.0498 C   0  0  0  0  0  0  0  0  0  0  0  0
   22.1623   33.7379   17.3008 C   0  0  0  0  0  0  0  0  0  0  0  0
   19.0167   30.7273   16.1686 C   0  0  0  0  0  0  0  0  0  0  0  0
   19.9079   29.6041   15.6181 C   0  0  1  0  0  0  0  0  0  0  0  0
   19.8486   28.4663   16.4960 O   0  0  0  0  0  0  0  0  0  0  0  0
   19.5958   29.2035   14.1553 C   0  0  1  0  0  0  0  0  0  0  0  0
   20.7107   28.3957   13.6621 N   0  0  0  0  0  0  0  0  0  0  0  0
   21.5804   28.7868   12.7022 C   0  0  0  0  0  0  0  0  0  0  0  0
   21.5803   29.8607   12.1128 O   0  0  0  0  0  0  0  0  0  0  0  0
   22.4361   27.7689   12.4722 O   0  0  0  0  0  0  0  0  0  0  0  0
   23.3229   27.8679   11.3437 C   0  0  1  0  0  0  0  0  0  0  0  0
   24.6513   27.2687   11.7609 C   0  0  0  0  0  0  0  0  0  0  0  0
   24.4972   25.8469   11.6359 O   0  0  0  0  0  0  0  0  0  0  0  0
   23.5346   25.6031   10.6071 C   0  0  1  0  0  0  0  0  0  0  0  0
   22.5090   24.7081   11.0370 O   0  0  0  0  0  0  0  0  0  0  0  0
   21.2601   25.4006   11.0299 C   0  0  0  0  0  0  0  0  0  0  0  0
   21.4196   26.6148   10.1401 C   0  0  0  0  0  0  0  0  0  0  0  0
   22.8923   26.9276   10.2270 C   0  0  1  0  0  0  0  0  0  0  0  0
   18.2672   28.4290   13.9980 C   0  0  0  0  0  0  0  0  0  0  0  0
   18.0940   26.6626   12.2071 C   0  0  0  0  0  0  0  0  0  0  0  0
   17.9053   26.2729   10.8818 C   0  0  0  0  0  0  0  0  0  0  0  0
   17.6302   27.2270    9.9053 C   0  0  0  0  0  0  0  0  0  0  0  0
   17.5301   28.5712   10.2558 C   0  0  0  0  0  0  0  0  0  0  0  0
   17.7155   28.9628   11.5814 C   0  0  0  0  0  0  0  0  0  0  0  0
   18.0041   28.0120   12.5689 C   0  0  0  0  0  0  0  0  0  0  0  0
   14.3189   36.0057   18.5725 H   0  0  0  0  0  0  0  0  0  0  0  0
   13.4317   34.5283   18.5549 H   0  0  0  0  0  0  0  0  0  0  0  0
   16.4005   36.2578   17.2786 H   0  0  0  0  0  0  0  0  0  0  0  0
   17.9804   35.2602   15.6706 H   0  0  0  0  0  0  0  0  0  0  0  0
   15.7281   31.5735   15.7592 H   0  0  0  0  0  0  0  0  0  0  0  0
   14.1388   32.5906   17.3223 H   0  0  0  0  0  0  0  0  0  0  0  0
   19.5535   33.0519   17.2798 H   0  0  0  0  0  0  0  0  0  0  0  0
   19.9218   34.0039   15.8446 H   0  0  0  0  0  0  0  0  0  0  0  0
   21.6275   31.7092   16.9030 H   0  0  0  0  0  0  0  0  0  0  0  0
   23.2614   32.4171   15.1675 H   0  0  0  0  0  0  0  0  0  0  0  0
   22.0939   33.5834   14.5169 H   0  0  0  0  0  0  0  0  0  0  0  0
   21.7697   31.8475   14.4159 H   0  0  0  0  0  0  0  0  0  0  0  0
   21.6636   33.7875   18.2749 H   0  0  0  0  0  0  0  0  0  0  0  0
   22.1045   34.7315   16.8423 H   0  0  0  0  0  0  0  0  0  0  0  0
   23.2158   33.4993   17.4718 H   0  0  0  0  0  0  0  0  0  0  0  0
   17.9652   30.4385   16.0974 H   0  0  0  0  0  0  0  0  0  0  0  0
   19.1964   30.8357   17.2454 H   0  0  0  0  0  0  0  0  0  0  0  0
   20.9512   29.9358   15.6531 H   0  0  0  0  0  0  0  0  0  0  0  0
   18.9202   28.1977   16.5969 H   0  0  0  0  0  0  0  0  0  0  0  0
   19.5586   30.1099   13.5411 H   0  0  0  0  0  0  0  0  0  0  0  0
   20.8650   27.4760   14.0640 H   0  0  0  0  0  0  0  0  0  0  0  0
   23.4381   28.9043   10.9993 H   0  0  0  0  0  0  0  0  0  0  0  0
   24.9215   27.5069   12.7936 H   0  0  0  0  0  0  0  0  0  0  0  0
   25.4655   27.5735   11.0943 H   0  0  0  0  0  0  0  0  0  0  0  0
   24.0508   25.1370    9.7614 H   0  0  0  0  0  0  0  0  0  0  0  0
   21.0179   25.6775   12.0601 H   0  0  0  0  0  0  0  0  0  0  0  0
   20.4781   24.7269   10.6690 H   0  0  0  0  0  0  0  0  0  0  0  0
   20.7750   27.4461   10.4357 H   0  0  0  0  0  0  0  0  0  0  0  0
   21.1508   26.3521    9.1108 H   0  0  0  0  0  0  0  0  0  0  0  0
   23.2922   27.2795    9.2687 H   0  0  0  0  0  0  0  0  0  0  0  0
   17.4120   29.0168   14.3503 H   0  0  0  0  0  0  0  0  0  0  0  0
   18.2792   27.5301   14.6274 H   0  0  0  0  0  0  0  0  0  0  0  0
   18.3352   25.9093   12.9531 H   0  0  0  0  0  0  0  0  0  0  0  0
   17.9924   25.2249   10.6094 H   0  0  0  0  0  0  0  0  0  0  0  0
   17.4979   26.9246    8.8707 H   0  0  0  0  0  0  0  0  0  0  0  0
   17.3133   29.3195    9.4982 H   0  0  0  0  0  0  0  0  0  0  0  0
   17.6491   30.0195   11.8316 H   0  0  0  0  0  0  0  0  0  0  0  0
  1  2  1  0  0  0  0
  1 39  1  0  0  0  0
  1 40  1  0  0  0  0
  2  3  2  0  0  0  0
  2  7  1  0  0  0  0
  3  4  1  0  0  0  0
  3 41  1  0  0  0  0
  4  5  2  0  0  0  0
  4 42  1  0  0  0  0
  5  6  1  0  0  0  0
  5  8  1  0  0  0  0
  6  7  2  0  0  0  0
  6 43  1  0  0  0  0
  7 44  1  0  0  0  0
  8  9  2  0  0  0  0
  8 10  2  0  0  0  0
  8 11  1  0  0  0  0
 11 12  1  0  0  0  0
 11 16  1  0  0  0  0
 12 13  1  0  0  0  0
 12 45  1  0  0  0  0
 12 46  1  0  0  0  0
 13 14  1  0  0  0  0
 13 15  1  0  0  0  0
 13 47  1  0  0  0  0
 14 48  1  0  0  0  0
 14 49  1  0  0  0  0
 14 50  1  0  0  0  0
 15 51  1  0  0  0  0
 15 52  1  0  0  0  0
 15 53  1  0  0  0  0
 16 17  1  0  0  0  0
 16 54  1  0  0  0  0
 16 55  1  0  0  0  0
 17 18  1  0  0  0  0
 17 19  1  0  0  0  0
 17 56  1  1  0  0  0
 18 57  1  0  0  0  0
 19 20  1  0  0  0  0
 19 32  1  0  0  0  0
 19 58  1  6  0  0  0
 20 21  1  0  0  0  0
 20 59  1  0  0  0  0
 21 22  2  0  0  0  0
 21 23  1  0  0  0  0
 23 24  1  0  0  0  0
 24 25  1  0  0  0  0
 24 31  1  0  0  0  0
 24 60  1  6  0  0  0
 25 26  1  0  0  0  0
 25 61  1  0  0  0  0
 25 62  1  0  0  0  0
 26 27  1  0  0  0  0
 27 28  1  0  0  0  0
 27 31  1  0  0  0  0
 27 63  1  6  0  0  0
 28 29  1  0  0  0  0
 29 30  1  0  0  0  0
 29 64  1  0  0  0  0
 29 65  1  0  0  0  0
 30 31  1  0  0  0  0
 30 66  1  0  0  0  0
 30 67  1  0  0  0  0
 31 68  1  6  0  0  0
 32 38  1  0  0  0  0
 32 69  1  0  0  0  0
 32 70  1  0  0  0  0
 33 34  2  0  0  0  0
 33 38  1  0  0  0  0
 33 71  1  0  0  0  0
 34 35  1  0  0  0  0
 34 72  1  0  0  0  0
 35 36  2  0  0  0  0
 35 73  1  0  0  0  0
 36 37  1  0  0  0  0
 36 74  1  0  0  0  0
 37 38  2  0  0  0  0
 37 75  1  0  0  0  0
M  END
$$$$
