017
 OpenBabel04111921113D

 75 78  0  0  1  0  0  0  0  0999 V2000
   14.2507   34.8068   18.2412 N   0  0  0  0  0  0  0  0  0  0  0  0
   15.1413   34.2157   17.3722 C   0  0  0  0  0  0  0  0  0  0  0  0
   14.9973   32.8702   17.0280 C   0  0  0  0  0  0  0  0  0  0  0  0
   15.9058   32.2627   16.1631 C   0  0  0  0  0  0  0  0  0  0  0  0
   16.9648   33.0113   15.6475 C   0  0  0  0  0  0  0  0  0  0  0  0
   17.1245   34.3553   15.9821 C   0  0  0  0  0  0  0  0  0  0  0  0
   16.2107   34.9490   16.8500 C   0  0  0  0  0  0  0  0  0  0  0  0
   18.0489   32.2708   14.4570 S   0  0  0  0  0  0  0  0  0  0  0  0
   17.3401   31.1460   13.8847 O   0  0  0  0  0  0  0  0  0  0  0  0
   18.5781   33.3272   13.6352 O   0  0  0  0  0  0  0  0  0  0  0  0
   19.3064   31.6655   15.4398 N   0  0  0  0  0  0  0  0  0  0  0  0
   20.0258   32.6856   16.2540 C   0  0  0  0  0  0  0  0  0  0  0  0
   21.5066   32.3408   16.4418 C   0  0  0  0  0  0  0  0  0  0  0  0
   22.2413   32.2479   15.1059 C   0  0  0  0  0  0  0  0  0  0  0  0
   22.1891   33.3999   17.3096 C   0  0  0  0  0  0  0  0  0  0  0  0
   19.0219   30.3861   16.1349 C   0  0  0  0  0  0  0  0  0  0  0  0
   19.9076   29.2559   15.5906 C   0  0  1  0  0  0  0  0  0  0  0  0
   19.8289   28.1184   16.4672 O   0  0  0  0  0  0  0  0  0  0  0  0
   19.5717   28.8154   14.1494 C   0  0  1  0  0  0  0  0  0  0  0  0
   20.6880   27.9955   13.6775 N   0  0  0  0  0  0  0  0  0  0  0  0
   21.5706   28.3743   12.7214 C   0  0  0  0  0  0  0  0  0  0  0  0
   21.5740   29.4340   12.1212 O   0  0  0  0  0  0  0  0  0  0  0  0
   22.4379   27.3631   12.5365 O   0  0  0  0  0  0  0  0  0  0  0  0
   23.3543   27.4706   11.4285 C   0  0  1  0  0  0  0  0  0  0  0  0
   24.6857   26.9128   11.8891 C   0  0  0  0  0  0  0  0  0  0  0  0
   24.5545   25.4865   11.7949 O   0  0  0  0  0  0  0  0  0  0  0  0
   23.6535   25.2095   10.7172 C   0  0  1  0  0  0  0  0  0  0  0  0
   22.6513   24.2616   11.0834 O   0  0  0  0  0  0  0  0  0  0  0  0
   21.3739   24.9007   11.0540 C   0  0  0  0  0  0  0  0  0  0  0  0
   21.5090   26.1456   10.2049 C   0  0  0  0  0  0  0  0  0  0  0  0
   22.9700   26.5070   10.3170 C   0  0  1  0  0  0  0  0  0  0  0  0
   18.2664   27.9991   14.0252 C   0  0  0  0  0  0  0  0  0  0  0  0
   17.6669   28.5998   11.6366 C   0  0  0  0  0  0  0  0  0  0  0  0
   17.4769   28.2605   10.2977 C   0  0  0  0  0  0  0  0  0  0  0  0
   17.6152   26.9369    9.8892 C   0  0  0  0  0  0  0  0  0  0  0  0
   17.9427   25.9533   10.8201 C   0  0  0  0  0  0  0  0  0  0  0  0
   18.1271   26.2907   12.1618 C   0  0  0  0  0  0  0  0  0  0  0  0
   17.9918   27.6190   12.5835 C   0  0  0  0  0  0  0  0  0  0  0  0
   13.4670   34.2838   18.6078 H   0  0  0  0  0  0  0  0  0  0  0  0
   14.3263   35.7907   18.4782 H   0  0  0  0  0  0  0  0  0  0  0  0
   14.1588   32.2927   17.3998 H   0  0  0  0  0  0  0  0  0  0  0  0
   15.7648   31.2231   15.8816 H   0  0  0  0  0  0  0  0  0  0  0  0
   17.9399   34.9476   15.5702 H   0  0  0  0  0  0  0  0  0  0  0  0
   16.3268   36.0031   17.1027 H   0  0  0  0  0  0  0  0  0  0  0  0
   19.5331   32.7671   17.2306 H   0  0  0  0  0  0  0  0  0  0  0  0
   19.9612   33.6691   15.7762 H   0  0  0  0  0  0  0  0  0  0  0  0
   21.5900   31.3794   16.9603 H   0  0  0  0  0  0  0  0  0  0  0  0
   23.2998   32.0212   15.2700 H   0  0  0  0  0  0  0  0  0  0  0  0
   22.1774   33.1916   14.5534 H   0  0  0  0  0  0  0  0  0  0  0  0
   21.8262   31.4582   14.4748 H   0  0  0  0  0  0  0  0  0  0  0  0
   21.6835   33.5063   18.2744 H   0  0  0  0  0  0  0  0  0  0  0  0
   22.1924   34.3779   16.8150 H   0  0  0  0  0  0  0  0  0  0  0  0
   23.2296   33.1182   17.5029 H   0  0  0  0  0  0  0  0  0  0  0  0
   17.9711   30.0999   16.0519 H   0  0  0  0  0  0  0  0  0  0  0  0
   19.1912   30.4995   17.2120 H   0  0  0  0  0  0  0  0  0  0  0  0
   20.9537   29.5830   15.6054 H   0  0  0  0  0  0  0  0  0  0  0  0
   20.2035   28.3818   17.3253 H   0  0  0  0  0  0  0  0  0  0  0  0
   19.5146   29.7021   13.5087 H   0  0  0  0  0  0  0  0  0  0  0  0
   20.8148   27.0803   14.0850 H   0  0  0  0  0  0  0  0  0  0  0  0
   23.4529   28.5018   11.0747 H   0  0  0  0  0  0  0  0  0  0  0  0
   24.9273   27.1856   12.9208 H   0  0  0  0  0  0  0  0  0  0  0  0
   25.5085   27.2182   11.2335 H   0  0  0  0  0  0  0  0  0  0  0  0
   24.2364   24.7845    9.8938 H   0  0  0  0  0  0  0  0  0  0  0  0
   21.0833   25.1378   12.0818 H   0  0  0  0  0  0  0  0  0  0  0  0
   20.6312   24.2078   10.6460 H   0  0  0  0  0  0  0  0  0  0  0  0
   20.8316   26.9434   10.5179 H   0  0  0  0  0  0  0  0  0  0  0  0
   21.2604   25.9070    9.1650 H   0  0  0  0  0  0  0  0  0  0  0  0
   23.3688   26.8679    9.3621 H   0  0  0  0  0  0  0  0  0  0  0  0
   17.4037   28.5506   14.4137 H   0  0  0  0  0  0  0  0  0  0  0  0
   18.3338   27.0839   14.6294 H   0  0  0  0  0  0  0  0  0  0  0  0
   17.5796   29.6430   11.9305 H   0  0  0  0  0  0  0  0  0  0  0  0
   17.2266   29.0340    9.5768 H   0  0  0  0  0  0  0  0  0  0  0  0
   17.4695   26.6738    8.8457 H   0  0  0  0  0  0  0  0  0  0  0  0
   18.0675   24.9233   10.4986 H   0  0  0  0  0  0  0  0  0  0  0  0
   18.3999   25.5149   12.8728 H   0  0  0  0  0  0  0  0  0  0  0  0
  1  2  1  0  0  0  0
  1 39  1  0  0  0  0
  1 40  1  0  0  0  0
  2  3  2  0  0  0  0
  2  7  1  0  0  0  0
  3  4  1  0  0  0  0
  3 41  1  0  0  0  0
  4  5  2  0  0  0  0
  4 42  1  0  0  0  0
  5  6  1  0  0  0  0
  5  8  1  0  0  0  0
  6  7  2  0  0  0  0
  6 43  1  0  0  0  0
  7 44  1  0  0  0  0
  8  9  2  0  0  0  0
  8 10  2  0  0  0  0
  8 11  1  0  0  0  0
 11 12  1  0  0  0  0
 11 16  1  0  0  0  0
 12 13  1  0  0  0  0
 12 45  1  0  0  0  0
 12 46  1  0  0  0  0
 13 14  1  0  0  0  0
 13 15  1  0  0  0  0
 13 47  1  0  0  0  0
 14 48  1  0  0  0  0
 14 49  1  0  0  0  0
 14 50  1  0  0  0  0
 15 51  1  0  0  0  0
 15 52  1  0  0  0  0
 15 53  1  0  0  0  0
 16 17  1  0  0  0  0
 16 54  1  0  0  0  0
 16 55  1  0  0  0  0
 17 18  1  0  0  0  0
 17 19  1  0  0  0  0
 17 56  1  1  0  0  0
 18 57  1  0  0  0  0
 19 20  1  0  0  0  0
 19 32  1  0  0  0  0
 19 58  1  6  0  0  0
 20 21  1  0  0  0  0
 20 59  1  0  0  0  0
 21 22  2  0  0  0  0
 21 23  1  0  0  0  0
 23 24  1  0  0  0  0
 24 25  1  0  0  0  0
 24 31  1  0  0  0  0
 24 60  1  6  0  0  0
 25 26  1  0  0  0  0
 25 61  1  0  0  0  0
 25 62  1  0  0  0  0
 26 27  1  0  0  0  0
 27 28  1  0  0  0  0
 27 31  1  0  0  0  0
 27 63  1  6  0  0  0
 28 29  1  0  0  0  0
 29 30  1  0  0  0  0
 29 64  1  0  0  0  0
 29 65  1  0  0  0  0
 30 31  1  0  0  0  0
 30 66  1  0  0  0  0
 30 67  1  0  0  0  0
 31 68  1  6  0  0  0
 32 38  1  0  0  0  0
 32 69  1  0  0  0  0
 32 70  1  0  0  0  0
 33 34  2  0  0  0  0
 33 38  1  0  0  0  0
 33 71  1  0  0  0  0
 34 35  1  0  0  0  0
 34 72  1  0  0  0  0
 35 36  2  0  0  0  0
 35 73  1  0  0  0  0
 36 37  1  0  0  0  0
 36 74  1  0  0  0  0
 37 38  2  0  0  0  0
 37 75  1  0  0  0  0
M  END
$$$$
