03V
 OpenBabel04111917543D

 19 20  0  0  0  0  0  0  0  0999 V2000
   22.4437    7.6001   -3.5011 C   0  0  0  0  0  0  0  0  0  0  0  0
   23.7287    5.7175   -4.0915 O   0  0  0  0  0  0  0  0  0  0  0  0
   22.5887    6.2205   -3.5366 C   0  0  0  0  0  0  0  0  0  0  0  0
   21.6016    5.3837   -3.0220 C   0  0  0  0  0  0  0  0  0  0  0  0
   20.4386    5.9327   -2.4561 C   0  0  0  0  0  0  0  0  0  0  0  0
   20.2824    7.3390   -2.4168 C   0  0  0  0  0  0  0  0  0  0  0  0
   21.2936    8.1591   -2.9432 C   0  0  0  0  0  0  0  0  0  0  0  0
   19.1194    7.8859   -1.8517 C   0  0  0  0  0  0  0  0  0  0  0  0
   18.1228    7.0592   -1.3306 C   0  0  0  0  0  0  0  0  0  0  0  0
   18.2759    5.6764   -1.3680 C   0  0  0  0  0  0  0  0  0  0  0  0
   19.4256    5.1160   -1.9271 C   0  0  0  0  0  0  0  0  0  0  0  0
   23.2223    8.2401   -3.9058 H   0  0  0  0  0  0  0  0  0  0  0  0
   23.6932    4.7481   -4.0489 H   0  0  0  0  0  0  0  0  0  0  0  0
   21.7264    4.3056   -3.0554 H   0  0  0  0  0  0  0  0  0  0  0  0
   21.1928    9.2416   -2.9221 H   0  0  0  0  0  0  0  0  0  0  0  0
   18.9817    8.9642   -1.8132 H   0  0  0  0  0  0  0  0  0  0  0  0
   17.2279    7.4965   -0.8958 H   0  0  0  0  0  0  0  0  0  0  0  0
   17.5003    5.0325   -0.9617 H   0  0  0  0  0  0  0  0  0  0  0  0
   19.5249    4.0331   -1.9461 H   0  0  0  0  0  0  0  0  0  0  0  0
  1  3  2  0  0  0  0
  1  7  1  0  0  0  0
  1 12  1  0  0  0  0
  2  3  1  0  0  0  0
  2 13  1  0  0  0  0
  3  4  1  0  0  0  0
  4  5  2  0  0  0  0
  4 14  1  0  0  0  0
  5  6  1  0  0  0  0
  5 11  1  0  0  0  0
  6  7  2  0  0  0  0
  6  8  1  0  0  0  0
  7 15  1  0  0  0  0
  8  9  2  0  0  0  0
  8 16  1  0  0  0  0
  9 10  1  0  0  0  0
  9 17  1  0  0  0  0
 10 11  2  0  0  0  0
 10 18  1  0  0  0  0
 11 19  1  0  0  0  0
M  END
$$$$
