0EY
 OpenBabel04111919013D

 40 42  0  0  1  0  0  0  0  0999 V2000
   34.6173   -4.4501   12.3595 C   0  0  0  0  0  0  0  0  0  0  0  0
   35.5432   -4.3115   13.2565 C   0  0  0  0  0  0  0  0  0  0  0  0
   36.3071   -3.0719   13.3469 C   0  0  0  0  0  0  0  0  0  0  0  0
   36.8194   -0.8787   12.4754 C   0  0  0  0  0  0  0  0  0  0  0  0
   36.3781    0.5296   12.5511 C   0  0  0  0  0  0  0  0  0  0  0  0
   36.4065    1.2868   13.6818 C   0  0  0  0  0  0  0  0  0  0  0  0
   35.8970   -2.0113   12.4385 N   0  0  0  0  0  0  0  0  0  0  0  0
   34.3122   -3.4568   11.4568 N   0  0  0  0  0  0  0  0  0  0  0  0
   34.6738   -1.3888   10.6360 O   0  0  0  0  0  0  0  0  0  0  0  0
   34.9632   -2.2374   11.4571 C   0  0  0  0  0  0  0  0  0  0  0  0
   33.9096   -5.6467   12.2486 O   0  0  0  0  0  0  0  0  0  0  0  0
   36.1772    1.3843   11.4801 N   0  0  0  0  0  0  0  0  0  0  0  0
   35.9936    2.6280   11.9336 N   0  0  0  0  0  0  0  0  0  0  0  0
   36.0782    2.5573   13.2715 N   0  3  0  0  0  0  0  0  0  0  0  0
   36.1053    3.6905   14.2057 C   0  0  2  0  0  0  0  0  0  0  0  0
   35.9508    4.9947   13.6219 O   0  0  0  0  0  0  0  0  0  0  0  0
   37.2321    5.3343   13.0682 C   0  0  1  0  0  0  0  0  0  0  0  0
   37.4390    6.8382   13.1671 C   0  0  0  0  0  0  0  0  0  0  0  0
   38.6650    7.2099   12.5478 O   0  0  0  0  0  0  0  0  0  0  0  0
   38.2951    4.5104   13.8055 C   0  0  2  0  0  0  0  0  0  0  0  0
   39.0628    3.7351   12.8790 O   0  0  0  0  0  0  0  0  0  0  0  0
   37.5077    3.6453   14.7710 C   0  0  1  0  0  0  0  0  0  0  0  0
   37.5239    4.1876   16.0882 O   0  0  0  0  0  0  0  0  0  0  0  0
   35.8109   -5.0599   13.9702 H   0  0  0  0  0  0  0  0  0  0  0  0
   37.3529   -3.2850   13.1218 H   0  0  0  0  0  0  0  0  0  0  0  0
   36.1563   -2.6308   14.3236 H   0  0  0  0  0  0  0  0  0  0  0  0
   37.3672   -1.0372   13.4261 H   0  0  0  0  0  0  0  0  0  0  0  0
   37.5104   -1.0134   11.6479 H   0  0  0  0  0  0  0  0  0  0  0  0
   36.6577    1.0484   14.7001 H   0  0  0  0  0  0  0  0  0  0  0  0
   33.6114   -3.5828   10.7468 H   0  0  0  0  0  0  0  0  0  0  0  0
   32.9887   -5.4087   12.4187 H   0  0  0  0  0  0  0  0  0  0  0  0
   35.3038    3.5275   14.9432 H   0  0  0  0  0  0  0  0  0  0  0  0
   37.2218    5.0743   12.0060 H   0  0  0  0  0  0  0  0  0  0  0  0
   37.4538    7.1508   14.2164 H   0  0  0  0  0  0  0  0  0  0  0  0
   36.6110    7.3515   12.6614 H   0  0  0  0  0  0  0  0  0  0  0  0
   38.7573    8.1753   12.6157 H   0  0  0  0  0  0  0  0  0  0  0  0
   38.9855    5.1467   14.3589 H   0  0  0  0  0  0  0  0  0  0  0  0
   39.7277    3.2252   13.3704 H   0  0  0  0  0  0  0  0  0  0  0  0
   37.9096    2.6269   14.8334 H   0  0  0  0  0  0  0  0  0  0  0  0
   36.9915    3.6107   16.6663 H   0  0  0  0  0  0  0  0  0  0  0  0
  1  2  2  0  0  0  0
  1  8  1  0  0  0  0
  1 11  1  0  0  0  0
  2  3  1  0  0  0  0
  2 24  1  0  0  0  0
  3  7  1  0  0  0  0
  3 25  1  0  0  0  0
  3 26  1  0  0  0  0
  4  5  1  0  0  0  0
  4  7  1  0  0  0  0
  4 27  1  0  0  0  0
  4 28  1  0  0  0  0
  5  6  2  0  0  0  0
  5 12  1  0  0  0  0
  6 14  1  0  0  0  0
  6 29  1  0  0  0  0
  7 10  1  0  0  0  0
  8 10  1  0  0  0  0
  8 30  1  0  0  0  0
  9 10  2  0  0  0  0
 11 31  1  0  0  0  0
 12 13  1  0  0  0  0
 13 14  2  0  0  0  0
 14 15  1  0  0  0  0
 15 16  1  0  0  0  0
 15 22  1  0  0  0  0
 15 32  1  1  0  0  0
 16 17  1  0  0  0  0
 17 18  1  0  0  0  0
 17 20  1  0  0  0  0
 17 33  1  6  0  0  0
 18 19  1  0  0  0  0
 18 34  1  0  0  0  0
 18 35  1  0  0  0  0
 19 36  1  0  0  0  0
 20 21  1  0  0  0  0
 20 22  1  0  0  0  0
 20 37  1  1  0  0  0
 21 38  1  0  0  0  0
 22 23  1  0  0  0  0
 22 39  1  1  0  0  0
 23 40  1  0  0  0  0
M  CHG  1  14   1
M  END
$$$$
