0FT
 OpenBabel04111919023D

 43 45  0  0  1  0  0  0  0  0999 V2000
   35.4135    4.6156   23.8194 C   0  0  0  0  0  0  0  0  0  0  0  0
   36.5588    4.4736   23.1793 C   0  0  0  0  0  0  0  0  0  0  0  0
   37.3568    3.2639   23.3245 C   0  0  0  0  0  0  0  0  0  0  0  0
   37.6378    1.0670   24.3658 C   0  0  0  0  0  0  0  0  0  0  0  0
   37.2751   -0.3538   23.9239 C   0  0  0  0  0  0  0  0  0  0  0  0
   37.5696   -0.9673   22.7304 C   0  0  0  0  0  0  0  0  0  0  0  0
   36.7771    2.2347   24.1283 N   0  0  0  0  0  0  0  0  0  0  0  0
   34.9551    3.6283   24.6271 N   0  0  0  0  0  0  0  0  0  0  0  0
   35.1438    1.5843   25.5884 O   0  0  0  0  0  0  0  0  0  0  0  0
   35.6268    2.4535   24.8080 C   0  0  0  0  0  0  0  0  0  0  0  0
   34.6498    5.7347   23.6770 O   0  0  0  0  0  0  0  0  0  0  0  0
   37.1097    5.5251   22.2890 C   0  0  0  0  0  0  0  0  0  0  0  0
   36.7766   -1.3517   24.7608 N   0  0  0  0  0  0  0  0  0  0  0  0
   36.7056   -2.5081   24.1028 N   0  0  0  0  0  0  0  0  0  0  0  0
   37.1276   -2.2669   22.8557 N   0  3  0  0  0  0  0  0  0  0  0  0
   37.3054   -3.3073   21.8462 C   0  0  2  0  0  0  0  0  0  0  0  0
   37.1713   -4.6556   22.3600 O   0  0  0  0  0  0  0  0  0  0  0  0
   38.4919   -5.1267   22.7366 C   0  0  1  0  0  0  0  0  0  0  0  0
   38.7882   -6.4233   21.9744 C   0  0  0  0  0  0  0  0  0  0  0  0
   40.0943   -6.3935   21.4187 O   0  0  0  0  0  0  0  0  0  0  0  0
   39.4678   -3.9914   22.4393 C   0  0  2  0  0  0  0  0  0  0  0  0
   39.7817   -3.2372   23.6149 O   0  0  0  0  0  0  0  0  0  0  0  0
   38.7364   -3.1835   21.3873 C   0  0  1  0  0  0  0  0  0  0  0  0
   38.8534   -3.7606   20.0922 O   0  0  0  0  0  0  0  0  0  0  0  0
   38.3008    3.5468   23.7801 H   0  0  0  0  0  0  0  0  0  0  0  0
   37.4708    2.8207   22.3439 H   0  0  0  0  0  0  0  0  0  0  0  0
   38.5630    1.3229   23.8289 H   0  0  0  0  0  0  0  0  0  0  0  0
   37.8198    1.0600   25.4338 H   0  0  0  0  0  0  0  0  0  0  0  0
   38.0409   -0.5722   21.8431 H   0  0  0  0  0  0  0  0  0  0  0  0
   34.0752    3.7164   25.1016 H   0  0  0  0  0  0  0  0  0  0  0  0
   34.5698    6.1661   24.5320 H   0  0  0  0  0  0  0  0  0  0  0  0
   36.4146    6.3628   22.2767 H   0  0  0  0  0  0  0  0  0  0  0  0
   37.2256    5.1392   21.2722 H   0  0  0  0  0  0  0  0  0  0  0  0
   38.0795    5.8696   22.6613 H   0  0  0  0  0  0  0  0  0  0  0  0
   36.5670   -3.1392   21.0551 H   0  0  0  0  0  0  0  0  0  0  0  0
   38.4914   -5.3659   23.8014 H   0  0  0  0  0  0  0  0  0  0  0  0
   38.0616   -6.5589   21.1680 H   0  0  0  0  0  0  0  0  0  0  0  0
   38.7196   -7.2696   22.6676 H   0  0  0  0  0  0  0  0  0  0  0  0
   40.2611   -7.2275   20.9507 H   0  0  0  0  0  0  0  0  0  0  0  0
   40.4103   -4.3518   22.0486 H   0  0  0  0  0  0  0  0  0  0  0  0
   38.9700   -2.8762   24.0163 H   0  0  0  0  0  0  0  0  0  0  0  0
   39.0800   -2.1453   21.3380 H   0  0  0  0  0  0  0  0  0  0  0  0
   38.4668   -4.6537   20.1353 H   0  0  0  0  0  0  0  0  0  0  0  0
  1  2  2  0  0  0  0
  1  8  1  0  0  0  0
  1 11  1  0  0  0  0
  2  3  1  0  0  0  0
  2 12  1  0  0  0  0
  3  7  1  0  0  0  0
  3 25  1  0  0  0  0
  3 26  1  0  0  0  0
  4  5  1  0  0  0  0
  4  7  1  0  0  0  0
  4 27  1  0  0  0  0
  4 28  1  0  0  0  0
  5  6  2  0  0  0  0
  5 13  1  0  0  0  0
  6 15  1  0  0  0  0
  6 29  1  0  0  0  0
  7 10  1  0  0  0  0
  8 10  1  0  0  0  0
  8 30  1  0  0  0  0
  9 10  2  0  0  0  0
 11 31  1  0  0  0  0
 12 32  1  0  0  0  0
 12 33  1  0  0  0  0
 12 34  1  0  0  0  0
 13 14  1  0  0  0  0
 14 15  2  0  0  0  0
 15 16  1  0  0  0  0
 16 17  1  0  0  0  0
 16 23  1  0  0  0  0
 16 35  1  6  0  0  0
 17 18  1  0  0  0  0
 18 19  1  0  0  0  0
 18 21  1  0  0  0  0
 18 36  1  1  0  0  0
 19 20  1  0  0  0  0
 19 37  1  0  0  0  0
 19 38  1  0  0  0  0
 20 39  1  0  0  0  0
 21 22  1  0  0  0  0
 21 23  1  0  0  0  0
 21 40  1  6  0  0  0
 22 41  1  0  0  0  0
 23 24  1  0  0  0  0
 23 42  1  1  0  0  0
 24 43  1  0  0  0  0
M  CHG  1  15   1
M  END
$$$$
