0GH
 OpenBabel04111919043D

 95 97  0  0  1  0  0  0  0  0999 V2000
   49.5663   -2.5644    8.2353 C   0  0  0  0  0  0  0  0  0  0  0  0
   48.9677   -3.5831    9.2073 C   0  0  0  0  0  0  0  0  0  0  0  0
   50.0725   -4.4644    9.7862 C   0  0  0  0  0  0  0  0  0  0  0  0
   48.2046   -2.9018   10.3456 C   0  0  0  0  0  0  0  0  0  0  0  0
   47.0443   -2.1851    9.8476 N   0  0  0  0  0  0  0  0  0  0  0  0
   45.8347   -2.2692   10.4984 C   0  0  0  0  0  0  0  0  0  0  0  0
   45.5847   -3.0587   11.4042 O   0  0  0  0  0  0  0  0  0  0  0  0
   44.7303   -1.3639    9.9365 C   0  0  2  0  0  0  0  0  0  0  0  0
   44.7412   -0.0078   10.6581 C   0  0  1  0  0  0  0  0  0  0  0  0
   44.1555   -0.0774   12.0658 C   0  0  0  0  0  0  0  0  0  0  0  0
   46.0624    0.5211   10.7437 O   0  0  0  0  0  0  0  0  0  0  0  0
   43.3906   -2.0404   10.0499 N   0  3  0  0  0  0  0  0  0  0  0  0
   43.2489   -3.2287    9.1512 C   0  0  0  0  0  0  0  0  0  0  0  0
   42.6411   -4.3980    9.9222 C   0  0  2  0  0  0  0  0  0  0  0  0
   42.4618   -5.5943    8.9873 C   0  0  0  0  0  0  0  0  0  0  0  0
   41.7021   -6.7319    9.6318 C   0  0  0  0  0  0  0  0  0  0  0  0
   40.6904   -7.3616    8.9235 C   0  0  0  0  0  0  0  0  0  0  0  0
   39.9330   -8.3675    9.5279 C   0  0  0  0  0  0  0  0  0  0  0  0
   40.1835   -8.7203   10.8508 C   0  0  0  0  0  0  0  0  0  0  0  0
   41.2017   -8.1018   11.5671 C   0  0  0  0  0  0  0  0  0  0  0  0
   41.9758   -7.1225   10.9554 C   0  0  0  0  0  0  0  0  0  0  0  0
   41.3722   -3.9893   10.5203 N   0  0  0  0  0  0  0  0  0  0  0  0
   41.3204   -3.6383   11.8478 C   0  0  0  0  0  0  0  0  0  0  0  0
   42.3237   -3.2823   12.4537 O   0  0  0  0  0  0  0  0  0  0  0  0
   39.9836   -3.6283   12.4623 C   0  0  0  0  0  0  0  0  0  0  0  0
   38.9961   -4.5014   12.0443 C   0  0  0  0  0  0  0  0  0  0  0  0
   39.7438   -2.7449   13.5088 C   0  0  0  0  0  0  0  0  0  0  0  0
   38.5212   -2.7501   14.1938 C   0  0  0  0  0  0  0  0  0  0  0  0
   38.3214   -1.8926   15.3413 N   0  0  0  0  0  0  0  0  0  0  0  0
   39.4887   -1.1159   15.8275 C   0  0  0  0  0  0  0  0  0  0  0  0
   36.8342   -1.0258   15.4356 S   0  0  0  0  0  0  0  0  0  0  0  0
   37.1137    0.2552   16.0572 O   0  0  0  0  0  0  0  0  0  0  0  0
   36.1594   -1.0927   14.1581 O   0  0  0  0  0  0  0  0  0  0  0  0
   35.9133   -1.9914   16.6227 C   0  0  0  0  0  0  0  0  0  0  0  0
   37.5420   -3.6562   13.7926 C   0  0  0  0  0  0  0  0  0  0  0  0
   37.7681   -4.4878   12.6952 C   0  0  0  0  0  0  0  0  0  0  0  0
   36.7024   -5.3876   12.2437 C   0  0  0  0  0  0  0  0  0  0  0  0
   35.9037   -5.8477   13.0596 O   0  0  0  0  0  0  0  0  0  0  0  0
   36.6915   -5.6378   10.9000 N   0  0  0  0  0  0  0  0  0  0  0  0
   35.6549   -6.4280   10.2917 C   0  0  2  0  0  0  0  0  0  0  0  0
   36.2875   -7.5616    9.5059 C   0  0  0  0  0  0  0  0  0  0  0  0
   34.7910   -5.5391    9.4205 C   0  0  0  0  0  0  0  0  0  0  0  0
   33.4170   -5.4631    9.6981 C   0  0  0  0  0  0  0  0  0  0  0  0
   32.6054   -4.6017    8.9606 C   0  0  0  0  0  0  0  0  0  0  0  0
   33.1500   -3.8151    7.9482 C   0  0  0  0  0  0  0  0  0  0  0  0
   34.5132   -3.8990    7.6560 C   0  0  0  0  0  0  0  0  0  0  0  0
   35.3302   -4.7626    8.3867 C   0  0  0  0  0  0  0  0  0  0  0  0
   50.1289   -3.0671    7.4420 H   0  0  0  0  0  0  0  0  0  0  0  0
   50.2454   -1.8793    8.7539 H   0  0  0  0  0  0  0  0  0  0  0  0
   48.7869   -1.9672    7.7517 H   0  0  0  0  0  0  0  0  0  0  0  0
   48.2706   -4.2226    8.6503 H   0  0  0  0  0  0  0  0  0  0  0  0
   49.6581   -5.2037   10.4803 H   0  0  0  0  0  0  0  0  0  0  0  0
   50.8099   -3.8650   10.3310 H   0  0  0  0  0  0  0  0  0  0  0  0
   50.5921   -5.0057    8.9901 H   0  0  0  0  0  0  0  0  0  0  0  0
   48.8319   -2.1721   10.8694 H   0  0  0  0  0  0  0  0  0  0  0  0
   47.8816   -3.6476   11.0788 H   0  0  0  0  0  0  0  0  0  0  0  0
   47.2359   -1.4191    9.2199 H   0  0  0  0  0  0  0  0  0  0  0  0
   44.9050   -1.2130    8.8637 H   0  0  0  0  0  0  0  0  0  0  0  0
   44.1468    0.7046   10.0750 H   0  0  0  0  0  0  0  0  0  0  0  0
   44.2637    0.8853   12.5745 H   0  0  0  0  0  0  0  0  0  0  0  0
   44.6720   -0.8217   12.6813 H   0  0  0  0  0  0  0  0  0  0  0  0
   43.0907   -0.3309   12.0432 H   0  0  0  0  0  0  0  0  0  0  0  0
   46.4527    0.6290    9.8595 H   0  0  0  0  0  0  0  0  0  0  0  0
   43.3009   -2.3776   11.0395 H   0  0  0  0  0  0  0  0  0  0  0  0
   44.2274   -3.5043    8.7515 H   0  0  0  0  0  0  0  0  0  0  0  0
   42.5964   -2.9097    8.3328 H   0  0  0  0  0  0  0  0  0  0  0  0
   43.3329   -4.6723   10.7288 H   0  0  0  0  0  0  0  0  0  0  0  0
   43.4417   -5.9634    8.6509 H   0  0  0  0  0  0  0  0  0  0  0  0
   41.9203   -5.2609    8.0942 H   0  0  0  0  0  0  0  0  0  0  0  0
   40.4655   -7.0905    7.8895 H   0  0  0  0  0  0  0  0  0  0  0  0
   39.1521   -8.8695    8.9698 H   0  0  0  0  0  0  0  0  0  0  0  0
   39.5875   -9.4969   11.3245 H   0  0  0  0  0  0  0  0  0  0  0  0
   41.3972   -8.3821   12.6005 H   0  0  0  0  0  0  0  0  0  0  0  0
   42.7718   -6.6640   11.5372 H   0  0  0  0  0  0  0  0  0  0  0  0
   40.5165   -4.2191   10.0307 H   0  0  0  0  0  0  0  0  0  0  0  0
   39.1830   -5.2341   11.2655 H   0  0  0  0  0  0  0  0  0  0  0  0
   40.5431   -2.0619   13.7749 H   0  0  0  0  0  0  0  0  0  0  0  0
   40.4002   -1.7238   15.8321 H   0  0  0  0  0  0  0  0  0  0  0  0
   39.3464   -0.7869   16.8577 H   0  0  0  0  0  0  0  0  0  0  0  0
   39.6494   -0.2551   15.1676 H   0  0  0  0  0  0  0  0  0  0  0  0
   34.9568   -1.4831   16.7748 H   0  0  0  0  0  0  0  0  0  0  0  0
   36.4585   -2.0292   17.5672 H   0  0  0  0  0  0  0  0  0  0  0  0
   35.7257   -2.9938   16.2380 H   0  0  0  0  0  0  0  0  0  0  0  0
   36.5835   -3.7235   14.2991 H   0  0  0  0  0  0  0  0  0  0  0  0
   37.2488   -5.0634   10.2825 H   0  0  0  0  0  0  0  0  0  0  0  0
   35.0407   -6.8669   11.0850 H   0  0  0  0  0  0  0  0  0  0  0  0
   35.5198   -8.1844    9.0372 H   0  0  0  0  0  0  0  0  0  0  0  0
   36.8832   -8.1887   10.1770 H   0  0  0  0  0  0  0  0  0  0  0  0
   36.9576   -7.1890    8.7234 H   0  0  0  0  0  0  0  0  0  0  0  0
   32.9831   -6.0469   10.4975 H   0  0  0  0  0  0  0  0  0  0  0  0
   31.5423   -4.5445    9.1839 H   0  0  0  0  0  0  0  0  0  0  0  0
   32.5135   -3.1491    7.3817 H   0  0  0  0  0  0  0  0  0  0  0  0
   34.9326   -3.2916    6.8596 H   0  0  0  0  0  0  0  0  0  0  0  0
   36.3852   -4.8102    8.1470 H   0  0  0  0  0  0  0  0  0  0  0  0
   42.6040   -1.3955    9.9174 H   0  0  0  0  0  0  0  0  0  0  0  0
  1  2  1  0  0  0  0
  1 48  1  0  0  0  0
  1 49  1  0  0  0  0
  1 50  1  0  0  0  0
  2  3  1  0  0  0  0
  2  4  1  0  0  0  0
  2 51  1  0  0  0  0
  3 52  1  0  0  0  0
  3 53  1  0  0  0  0
  3 54  1  0  0  0  0
  4  5  1  0  0  0  0
  4 55  1  0  0  0  0
  4 56  1  0  0  0  0
  5  6  1  0  0  0  0
  5 57  1  0  0  0  0
  6  7  2  0  0  0  0
  6  8  1  0  0  0  0
  8  9  1  0  0  0  0
  8 12  1  0  0  0  0
  8 58  1  6  0  0  0
  9 10  1  0  0  0  0
  9 11  1  0  0  0  0
  9 59  1  6  0  0  0
 10 60  1  0  0  0  0
 10 61  1  0  0  0  0
 10 62  1  0  0  0  0
 11 63  1  0  0  0  0
 12 13  1  0  0  0  0
 12 64  1  0  0  0  0
 12 95  1  0  0  0  0
 13 14  1  0  0  0  0
 13 65  1  0  0  0  0
 13 66  1  0  0  0  0
 14 15  1  0  0  0  0
 14 22  1  0  0  0  0
 14 67  1  1  0  0  0
 15 16  1  0  0  0  0
 15 68  1  0  0  0  0
 15 69  1  0  0  0  0
 16 17  2  0  0  0  0
 16 21  1  0  0  0  0
 17 18  1  0  0  0  0
 17 70  1  0  0  0  0
 18 19  2  0  0  0  0
 18 71  1  0  0  0  0
 19 20  1  0  0  0  0
 19 72  1  0  0  0  0
 20 21  2  0  0  0  0
 20 73  1  0  0  0  0
 21 74  1  0  0  0  0
 22 23  1  0  0  0  0
 22 75  1  0  0  0  0
 23 24  2  0  0  0  0
 23 25  1  0  0  0  0
 25 26  2  0  0  0  0
 25 27  1  0  0  0  0
 26 36  1  0  0  0  0
 26 76  1  0  0  0  0
 27 28  2  0  0  0  0
 27 77  1  0  0  0  0
 28 29  1  0  0  0  0
 28 35  1  0  0  0  0
 29 30  1  0  0  0  0
 29 31  1  0  0  0  0
 30 78  1  0  0  0  0
 30 79  1  0  0  0  0
 30 80  1  0  0  0  0
 31 32  2  0  0  0  0
 31 33  2  0  0  0  0
 31 34  1  0  0  0  0
 34 81  1  0  0  0  0
 34 82  1  0  0  0  0
 34 83  1  0  0  0  0
 35 36  2  0  0  0  0
 35 84  1  0  0  0  0
 36 37  1  0  0  0  0
 37 38  2  0  0  0  0
 37 39  1  0  0  0  0
 39 40  1  0  0  0  0
 39 85  1  0  0  0  0
 40 41  1  0  0  0  0
 40 42  1  0  0  0  0
 40 86  1  1  0  0  0
 41 87  1  0  0  0  0
 41 88  1  0  0  0  0
 41 89  1  0  0  0  0
 42 43  2  0  0  0  0
 42 47  1  0  0  0  0
 43 44  1  0  0  0  0
 43 90  1  0  0  0  0
 44 45  2  0  0  0  0
 44 91  1  0  0  0  0
 45 46  1  0  0  0  0
 45 92  1  0  0  0  0
 46 47  2  0  0  0  0
 46 93  1  0  0  0  0
 47 94  1  0  0  0  0
M  CHG  1  12   1
M  END
$$$$
