0HN
 OpenBabel04111918293D

 17 18  0  0  0  0  0  0  0  0999 V2000
  -15.2608   -0.3989   -0.1073 O   0  0  0  0  0  0  0  0  0  0  0  0
  -15.7320   -0.2496    1.0635 C   0  0  0  0  0  0  0  0  0  0  0  0
  -16.9105    0.1307    1.3483 O   0  0  0  0  0  0  0  0  0  0  0  0
  -14.8045   -0.5525    2.2268 C   0  0  0  0  0  0  0  0  0  0  0  0
  -13.4762   -0.9700    2.0092 C   0  0  0  0  0  0  0  0  0  0  0  0
  -12.6786   -1.2316    3.1071 C   0  0  0  0  0  0  0  0  0  0  0  0
  -11.3825   -1.6487    3.0775 O   0  0  0  0  0  0  0  0  0  0  0  0
  -11.1177   -1.8038    4.4856 C   0  0  0  0  0  0  0  0  0  0  0  0
  -12.2093   -1.3902    5.3298 O   0  0  0  0  0  0  0  0  0  0  0  0
  -13.1488   -1.0872    4.3926 C   0  0  0  0  0  0  0  0  0  0  0  0
  -14.4379   -0.6805    4.6532 C   0  0  0  0  0  0  0  0  0  0  0  0
  -15.2679   -0.4167    3.5591 C   0  0  0  0  0  0  0  0  0  0  0  0
  -13.0971   -1.0826    0.9980 H   0  0  0  0  0  0  0  0  0  0  0  0
  -10.2295   -1.2158    4.7453 H   0  0  0  0  0  0  0  0  0  0  0  0
  -10.9046   -2.8601    4.6874 H   0  0  0  0  0  0  0  0  0  0  0  0
  -14.8031   -0.5707    5.6658 H   0  0  0  0  0  0  0  0  0  0  0  0
  -16.2965   -0.0988    3.7244 H   0  0  0  0  0  0  0  0  0  0  0  0
  1  2  2  0  0  0  0
  2  3  1  0  0  0  0
  2  4  1  0  0  0  0
  4  5  2  0  0  0  0
  4 12  1  0  0  0  0
  5  6  1  0  0  0  0
  5 13  1  0  0  0  0
  6  7  1  0  0  0  0
  6 10  2  0  0  0  0
  7  8  1  0  0  0  0
  8  9  1  0  0  0  0
  8 14  1  0  0  0  0
  8 15  1  0  0  0  0
  9 10  1  0  0  0  0
 10 11  1  0  0  0  0
 11 12  2  0  0  0  0
 11 16  1  0  0  0  0
 12 17  1  0  0  0  0
M  END
$$$$
