0HO
 OpenBabel04111918293D

 15 16  0  0  0  0  0  0  0  0999 V2000
   15.4550   11.4694    1.9634 O   0  0  0  0  0  0  0  0  0  0  0  0
   15.2024   11.8456    3.1504 C   0  0  0  0  0  0  0  0  0  0  0  0
   15.2755   13.0343    3.5919 O   0  0  0  0  0  0  0  0  0  0  0  0
   14.7808   10.7746    4.1405 C   0  0  0  0  0  0  0  0  0  0  0  0
   14.4526   11.1739    5.4580 C   0  0  0  0  0  0  0  0  0  0  0  0
   14.1061   10.1612    6.3728 C   0  0  0  0  0  0  0  0  0  0  0  0
   13.7810   10.3371    7.6647 N   0  0  0  0  0  0  0  0  0  0  0  0
   13.4939    8.8272    8.2827 S   0  0  0  0  0  0  0  0  0  0  0  0
   13.7458    7.8775    6.9429 N   0  0  0  0  0  0  0  0  0  0  0  0
   14.0822    8.7150    5.9476 C   0  0  0  0  0  0  0  0  0  0  0  0
   14.3987    8.3460    4.6189 C   0  0  0  0  0  0  0  0  0  0  0  0
   14.7400    9.3993    3.7492 C   0  0  0  0  0  0  0  0  0  0  0  0
   14.4812   12.2205    5.7507 H   0  0  0  0  0  0  0  0  0  0  0  0
   14.3915    7.3118    4.2993 H   0  0  0  0  0  0  0  0  0  0  0  0
   14.9990    9.1574    2.7134 H   0  0  0  0  0  0  0  0  0  0  0  0
  1  2  2  0  0  0  0
  2  3  1  0  0  0  0
  2  4  1  0  0  0  0
  4  5  2  0  0  0  0
  4 12  1  0  0  0  0
  5  6  1  0  0  0  0
  5 13  1  0  0  0  0
  6  7  2  0  0  0  0
  6 10  1  0  0  0  0
  7  8  1  0  0  0  0
  8  9  1  0  0  0  0
  9 10  2  0  0  0  0
 10 11  1  0  0  0  0
 11 12  2  0  0  0  0
 11 14  1  0  0  0  0
 12 15  1  0  0  0  0
M  END
$$$$
