0J2
 OpenBabel04111918283D

 28 29  0  0  1  0  0  0  0  0999 V2000
  -11.7598   25.8840    9.5241 C   0  0  0  0  0  0  0  0  0  0  0  0
  -10.0442   25.9149    7.7168 C   0  0  0  0  0  0  0  0  0  0  0  0
  -13.1652   26.3193    9.9351 C   0  0  0  0  0  0  0  0  0  0  0  0
  -13.4159   27.5534    9.8574 O   0  0  0  0  0  0  0  0  0  0  0  0
  -13.8733   25.3996   10.4443 O   0  0  0  0  0  0  0  0  0  0  0  0
  -12.7424   24.4020    7.1213 N   0  0  0  0  0  0  0  0  0  0  0  0
  -13.5999   23.8182    6.2251 N   0  0  0  0  0  0  0  0  0  0  0  0
  -14.4256   27.7708    3.5967 O   0  0  0  0  0  0  0  0  0  0  0  0
  -11.4792   26.3091    8.0823 C   0  0  1  0  0  0  0  0  0  0  0  0
  -16.4090   23.8276    2.5622 N   0  0  0  0  0  0  0  0  0  0  0  0
  -14.5312   26.6090    3.9677 C   0  0  0  0  0  0  0  0  0  0  0  0
  -13.8667   25.9233    5.1197 C   0  0  0  0  0  0  0  0  0  0  0  0
  -15.3590   25.8053    3.1962 N   0  3  0  0  0  0  0  0  0  0  0  0
  -14.1653   24.5723    5.2546 C   0  0  0  0  0  0  0  0  0  0  0  0
  -12.4603   25.7439    7.0406 C   0  0  0  0  0  0  0  0  0  0  0  0
  -12.9665   26.5806    6.0095 C   0  0  0  0  0  0  0  0  0  0  0  0
  -15.0245   23.8481    4.3862 N   0  0  0  0  0  0  0  0  0  0  0  0
  -12.6200   27.8095    5.8710 O   0  0  0  0  0  0  0  0  0  0  0  0
  -15.5748   24.4845    3.4204 C   0  0  0  0  0  0  0  0  0  0  0  0
  -11.6305   24.8031    9.6529 H   0  0  0  0  0  0  0  0  0  0  0  0
  -11.0387   26.3644   10.2060 H   0  0  0  0  0  0  0  0  0  0  0  0
   -9.8068   26.2099    6.6904 H   0  0  0  0  0  0  0  0  0  0  0  0
   -9.8952   24.8338    7.8057 H   0  0  0  0  0  0  0  0  0  0  0  0
   -9.3248   26.4083    8.3824 H   0  0  0  0  0  0  0  0  0  0  0  0
  -11.5157   27.4070    8.0711 H   0  0  0  0  0  0  0  0  0  0  0  0
  -16.8472   24.2405    1.7627 H   0  0  0  0  0  0  0  0  0  0  0  0
  -16.5231   22.8385    2.7335 H   0  0  0  0  0  0  0  0  0  0  0  0
  -15.7861   26.3002    2.4390 H   0  0  0  0  0  0  0  0  0  0  0  0
  1  3  1  0  0  0  0
  1  9  1  0  0  0  0
  1 20  1  0  0  0  0
  1 21  1  0  0  0  0
  2  9  1  0  0  0  0
  2 22  1  0  0  0  0
  2 23  1  0  0  0  0
  2 24  1  0  0  0  0
  3  4  2  0  0  0  0
  3  5  1  0  0  0  0
  6  7  2  0  0  0  0
  6 15  1  0  0  0  0
  7 14  1  0  0  0  0
  8 11  2  0  0  0  0
  9 15  1  0  0  0  0
  9 25  1  6  0  0  0
 10 19  1  0  0  0  0
 10 26  1  0  0  0  0
 10 27  1  0  0  0  0
 11 12  1  0  0  0  0
 11 13  1  0  0  0  0
 12 14  2  0  0  0  0
 12 16  1  0  0  0  0
 13 19  1  0  0  0  0
 13 28  1  0  0  0  0
 14 17  1  0  0  0  0
 15 16  2  0  0  0  0
 16 18  1  0  0  0  0
 17 19  2  0  0  0  0
M  CHG  1  13   1
M  END
$$$$
