0J4
 OpenBabel04111918283D

 25 26  0  0  1  0  0  0  0  0999 V2000
  -14.7096   27.6205    3.6322 O   0  0  0  0  0  0  0  0  0  0  0  0
  -14.7693   26.4451    3.9659 C   0  0  0  0  0  0  0  0  0  0  0  0
  -15.4732   25.6320    3.1204 N   0  3  0  0  0  0  0  0  0  0  0  0
  -15.6022   24.2980    3.2492 C   0  0  0  0  0  0  0  0  0  0  0  0
  -16.2823   23.6679    2.2666 N   0  0  0  0  0  0  0  0  0  0  0  0
  -15.0946   23.6461    4.2432 N   0  0  0  0  0  0  0  0  0  0  0  0
  -14.3808   24.3798    5.2188 C   0  0  0  0  0  0  0  0  0  0  0  0
  -14.1850   25.7607    5.1650 C   0  0  0  0  0  0  0  0  0  0  0  0
  -13.4567   26.4488    6.1613 C   0  0  0  0  0  0  0  0  0  0  0  0
  -13.2264   27.7006    6.0881 O   0  0  0  0  0  0  0  0  0  0  0  0
  -13.8739   23.6381    6.2221 N   0  0  0  0  0  0  0  0  0  0  0  0
  -13.1812   24.2551    7.2260 N   0  0  0  0  0  0  0  0  0  0  0  0
  -12.9958   25.6198    7.2145 C   0  0  0  0  0  0  0  0  0  0  0  0
  -12.1445   26.1692    8.3590 C   0  0  1  0  0  0  0  0  0  0  0  0
  -10.7868   26.6774    7.8569 C   0  0  0  0  0  0  0  0  0  0  0  0
  -12.8738   27.2186    9.2342 C   0  0  0  0  0  0  0  0  0  0  0  0
  -13.9029   26.7980    9.8525 O   0  0  0  0  0  0  0  0  0  0  0  0
  -12.2635   28.3157    9.4559 O   0  0  0  0  0  0  0  0  0  0  0  0
  -15.8482   26.1309    2.3311 H   0  0  0  0  0  0  0  0  0  0  0  0
  -16.4572   22.6855    2.3923 H   0  0  0  0  0  0  0  0  0  0  0  0
  -16.7509   24.1773    1.5370 H   0  0  0  0  0  0  0  0  0  0  0  0
  -11.9289   25.3368    9.0426 H   0  0  0  0  0  0  0  0  0  0  0  0
  -10.2651   25.9171    7.2649 H   0  0  0  0  0  0  0  0  0  0  0  0
  -10.1408   26.9597    8.6954 H   0  0  0  0  0  0  0  0  0  0  0  0
  -10.8856   27.5692    7.2314 H   0  0  0  0  0  0  0  0  0  0  0  0
  1  2  2  0  0  0  0
  2  3  1  0  0  0  0
  2  8  1  0  0  0  0
  3  4  1  0  0  0  0
  3 19  1  0  0  0  0
  4  5  1  0  0  0  0
  4  6  2  0  0  0  0
  5 20  1  0  0  0  0
  5 21  1  0  0  0  0
  6  7  1  0  0  0  0
  7  8  2  0  0  0  0
  7 11  1  0  0  0  0
  8  9  1  0  0  0  0
  9 10  1  0  0  0  0
  9 13  2  0  0  0  0
 11 12  2  0  0  0  0
 12 13  1  0  0  0  0
 13 14  1  0  0  0  0
 14 15  1  0  0  0  0
 14 16  1  0  0  0  0
 14 22  1  1  0  0  0
 15 23  1  0  0  0  0
 15 24  1  0  0  0  0
 15 25  1  0  0  0  0
 16 17  2  0  0  0  0
 16 18  1  0  0  0  0
M  CHG  1   3   1
M  END
$$$$
