0J6
 OpenBabel04111918303D

 33 36  0  0  0  0  0  0  0  0999 V2000
   -9.3046   55.4648   13.8050 O   0  0  0  0  0  0  0  0  0  0  0  0
   -8.9400   55.5873   12.6376 C   0  0  0  0  0  0  0  0  0  0  0  0
   -9.7147   56.5433   11.7670 C   0  0  0  0  0  0  0  0  0  0  0  0
  -10.7536   57.2538   12.4274 C   0  0  0  0  0  0  0  0  0  0  0  0
  -11.4346   58.1358   11.5927 C   0  0  0  0  0  0  0  0  0  0  0  0
  -12.4618   58.9497   11.9462 C   0  0  0  0  0  0  0  0  0  0  0  0
  -12.7831   59.6254   10.8067 N   0  3  0  0  0  0  0  0  0  0  0  0
  -12.0334   59.2854    9.7354 N   0  0  0  0  0  0  0  0  0  0  0  0
  -11.1791   58.3555   10.1924 C   0  0  0  0  0  0  0  0  0  0  0  0
  -10.1444   57.6397    9.5486 C   0  0  0  0  0  0  0  0  0  0  0  0
   -9.4296   56.7352   10.3808 C   0  0  0  0  0  0  0  0  0  0  0  0
   -7.8385   54.9579   12.0827 N   0  0  0  0  0  0  0  0  0  0  0  0
   -6.9573   54.1289   12.8100 C   0  0  0  0  0  0  0  0  0  0  0  0
   -5.6144   54.1026   12.4311 C   0  0  0  0  0  0  0  0  0  0  0  0
   -7.3890   53.3375   13.8781 C   0  0  0  0  0  0  0  0  0  0  0  0
   -6.4841   52.5597   14.5994 C   0  0  0  0  0  0  0  0  0  0  0  0
   -5.1361   52.5745   14.2589 C   0  0  0  0  0  0  0  0  0  0  0  0
   -4.7033   53.3381   13.1701 C   0  0  0  0  0  0  0  0  0  0  0  0
   -3.2472   53.3294   12.7980 C   0  0  0  0  0  0  0  0  0  0  0  0
   -2.7767   53.6844   11.5758 N   0  0  0  0  0  0  0  0  0  0  0  0
   -1.4432   53.4690   11.6525 N   0  0  0  0  0  0  0  0  0  0  0  0
   -1.1241   53.0668   12.9007 N   0  0  0  0  0  0  0  0  0  0  0  0
   -2.2528   52.9516   13.6362 N   0  0  0  0  0  0  0  0  0  0  0  0
  -10.9805   57.1200   13.4803 H   0  0  0  0  0  0  0  0  0  0  0  0
  -12.9823   59.1295   12.8858 H   0  0  0  0  0  0  0  0  0  0  0  0
  -13.4972   60.3315   10.6831 H   0  0  0  0  0  0  0  0  0  0  0  0
   -9.9161   57.7701    8.5002 H   0  0  0  0  0  0  0  0  0  0  0  0
   -8.6252   56.1798    9.8904 H   0  0  0  0  0  0  0  0  0  0  0  0
   -7.4983   55.2337   11.1740 H   0  0  0  0  0  0  0  0  0  0  0  0
   -5.2448   54.7291   11.6217 H   0  0  0  0  0  0  0  0  0  0  0  0
   -8.4409   53.2906   14.1414 H   0  0  0  0  0  0  0  0  0  0  0  0
   -6.8300   51.9422   15.4221 H   0  0  0  0  0  0  0  0  0  0  0  0
   -4.4256   51.9666   14.8145 H   0  0  0  0  0  0  0  0  0  0  0  0
  1  2  2  0  0  0  0
  2  3  1  0  0  0  0
  2 12  1  0  0  0  0
  3  4  2  0  0  0  0
  3 11  1  0  0  0  0
  4  5  1  0  0  0  0
  4 24  1  0  0  0  0
  5  6  1  0  0  0  0
  5  9  2  0  0  0  0
  6  7  2  0  0  0  0
  6 25  1  0  0  0  0
  7  8  1  0  0  0  0
  7 26  1  0  0  0  0
  8  9  1  0  0  0  0
  9 10  1  0  0  0  0
 10 11  2  0  0  0  0
 10 27  1  0  0  0  0
 11 28  1  0  0  0  0
 12 13  1  0  0  0  0
 12 29  1  0  0  0  0
 13 14  2  0  0  0  0
 13 15  1  0  0  0  0
 14 18  1  0  0  0  0
 14 30  1  0  0  0  0
 15 16  2  0  0  0  0
 15 31  1  0  0  0  0
 16 17  1  0  0  0  0
 16 32  1  0  0  0  0
 17 18  2  0  0  0  0
 17 33  1  0  0  0  0
 18 19  1  0  0  0  0
 19 20  1  0  0  0  0
 19 23  2  0  0  0  0
 20 21  1  0  0  0  0
 21 22  2  0  0  0  0
 22 23  1  0  0  0  0
M  CHG  1   7   1
M  END
$$$$
