0J8
 OpenBabel04111919033D

 58 62  0  0  0  0  0  0  0  0999 V2000
   -1.1492  -17.5740   14.6687 C   0  0  0  0  0  0  0  0  0  0  0  0
   -2.1979  -16.6754   14.4492 C   0  0  0  0  0  0  0  0  0  0  0  0
   -2.1786  -15.4891   15.1988 C   0  0  0  0  0  0  0  0  0  0  0  0
   -1.2077  -15.2700   16.0889 N   0  0  0  0  0  0  0  0  0  0  0  0
   -0.1917  -17.3439   15.5408 N   0  0  0  0  0  0  0  0  0  0  0  0
   -7.6193  -21.0971   10.6379 C   0  0  0  0  0  0  0  0  0  0  0  0
   -8.3544  -22.2701   10.0260 C   0  0  0  0  0  0  0  0  0  0  0  0
   -8.3014  -22.2615    8.5389 N   0  3  0  0  0  0  0  0  0  0  0  0
   -7.4635  -21.2480    7.8437 C   0  0  0  0  0  0  0  0  0  0  0  0
   -6.1611  -20.9189    8.5482 C   0  0  0  0  0  0  0  0  0  0  0  0
   -6.2064  -20.9616   10.0803 C   0  0  0  0  0  0  0  0  0  0  0  0
   -5.5055  -19.8276   10.6771 N   0  3  0  0  0  0  0  0  0  0  0  0
   -4.4800  -19.8982   11.5744 C   0  0  0  0  0  0  0  0  0  0  0  0
   -5.8640  -18.5645   10.3747 N   0  0  0  0  0  0  0  0  0  0  0  0
   -5.0080  -17.8161   11.0767 C   0  0  0  0  0  0  0  0  0  0  0  0
   -4.1218  -18.5977   11.8570 C   0  0  0  0  0  0  0  0  0  0  0  0
   -3.0988  -18.2132   12.7954 C   0  0  0  0  0  0  0  0  0  0  0  0
   -3.1774  -17.0133   13.4941 C   0  0  0  0  0  0  0  0  0  0  0  0
   -2.0105  -19.0205   13.0808 C   0  0  0  0  0  0  0  0  0  0  0  0
   -1.0636  -18.7202   13.9879 N   0  0  0  0  0  0  0  0  0  0  0  0
   -0.2350  -16.1905   16.2476 C   0  0  0  0  0  0  0  0  0  0  0  0
    0.8947  -15.8823   17.2164 C   0  0  0  0  0  0  0  0  0  0  0  0
    1.6791  -16.9554   17.5221 F   0  0  0  0  0  0  0  0  0  0  0  0
    1.7437  -14.9262   16.7374 F   0  0  0  0  0  0  0  0  0  0  0  0
    0.4403  -15.4076   18.4145 F   0  0  0  0  0  0  0  0  0  0  0  0
   -3.0736  -14.4480   14.9412 N   0  0  0  0  0  0  0  0  0  0  0  0
   -2.9717  -13.2289   15.7469 C   0  0  0  0  0  0  0  0  0  0  0  0
   -3.6388  -13.3636   17.0996 C   0  0  0  0  0  0  0  0  0  0  0  0
   -2.8556  -13.4242   18.2686 C   0  0  0  0  0  0  0  0  0  0  0  0
   -5.0360  -13.4402   17.2165 C   0  0  0  0  0  0  0  0  0  0  0  0
   -5.6437  -13.6050   18.4656 C   0  0  0  0  0  0  0  0  0  0  0  0
   -4.8623  -13.6919   19.6188 C   0  0  0  0  0  0  0  0  0  0  0  0
   -3.4704  -13.5983   19.5169 C   0  0  0  0  0  0  0  0  0  0  0  0
   -2.6467  -13.7113   20.7243 N   0  0  0  0  0  0  0  0  0  0  0  0
   -3.1668  -14.2473   21.7171 O   0  0  0  0  0  0  0  0  0  0  0  0
   -1.4926  -13.2744   20.6773 O   0  0  0  0  0  0  0  0  0  0  0  0
   -7.5739  -21.2430   11.7250 H   0  0  0  0  0  0  0  0  0  0  0  0
   -8.1921  -20.1757   10.4724 H   0  0  0  0  0  0  0  0  0  0  0  0
   -9.4125  -22.2646   10.3104 H   0  0  0  0  0  0  0  0  0  0  0  0
   -7.9235  -23.2258   10.3437 H   0  0  0  0  0  0  0  0  0  0  0  0
   -8.0533  -23.2049    8.2049 H   0  0  0  0  0  0  0  0  0  0  0  0
   -8.0842  -20.3541    7.7293 H   0  0  0  0  0  0  0  0  0  0  0  0
   -7.2613  -21.6536    6.8462 H   0  0  0  0  0  0  0  0  0  0  0  0
   -5.8480  -19.9314    8.1870 H   0  0  0  0  0  0  0  0  0  0  0  0
   -5.3732  -21.6018    8.2031 H   0  0  0  0  0  0  0  0  0  0  0  0
   -5.6414  -21.8503   10.3915 H   0  0  0  0  0  0  0  0  0  0  0  0
   -4.1081  -20.8457   11.9410 H   0  0  0  0  0  0  0  0  0  0  0  0
   -5.0523  -16.7362   11.0108 H   0  0  0  0  0  0  0  0  0  0  0  0
   -4.0097  -16.3393   13.3208 H   0  0  0  0  0  0  0  0  0  0  0  0
   -1.8528  -19.9663   12.5644 H   0  0  0  0  0  0  0  0  0  0  0  0
   -4.0236  -14.7132   14.7229 H   0  0  0  0  0  0  0  0  0  0  0  0
   -3.4626  -12.4150   15.1988 H   0  0  0  0  0  0  0  0  0  0  0  0
   -1.9272  -12.9098   15.8520 H   0  0  0  0  0  0  0  0  0  0  0  0
   -1.7711  -13.3617   18.1931 H   0  0  0  0  0  0  0  0  0  0  0  0
   -5.6642  -13.3798   16.3297 H   0  0  0  0  0  0  0  0  0  0  0  0
   -6.7258  -13.6768   18.5402 H   0  0  0  0  0  0  0  0  0  0  0  0
   -5.3479  -13.8341   20.5838 H   0  0  0  0  0  0  0  0  0  0  0  0
   -9.2653  -22.1294    8.1939 H   0  0  0  0  0  0  0  0  0  0  0  0
  1  2  2  0  0  0  0
  1  5  1  0  0  0  0
  1 20  1  0  0  0  0
  2  3  1  0  0  0  0
  2 18  1  0  0  0  0
  3  4  2  0  0  0  0
  3 26  1  0  0  0  0
  4 21  1  0  0  0  0
  5 21  2  0  0  0  0
  6  7  1  0  0  0  0
  6 11  1  0  0  0  0
  6 37  1  0  0  0  0
  6 38  1  0  0  0  0
  7  8  1  0  0  0  0
  7 39  1  0  0  0  0
  7 40  1  0  0  0  0
  8  9  1  0  0  0  0
  8 41  1  0  0  0  0
  8 58  1  0  0  0  0
  9 10  1  0  0  0  0
  9 42  1  0  0  0  0
  9 43  1  0  0  0  0
 10 11  1  0  0  0  0
 10 44  1  0  0  0  0
 10 45  1  0  0  0  0
 11 12  1  0  0  0  0
 11 46  1  0  0  0  0
 12 13  2  0  0  0  0
 12 14  1  0  0  0  0
 13 16  1  0  0  0  0
 13 47  1  0  0  0  0
 14 15  1  0  0  0  0
 15 16  2  0  0  0  0
 15 48  1  0  0  0  0
 16 17  1  0  0  0  0
 17 18  2  0  0  0  0
 17 19  1  0  0  0  0
 18 49  1  0  0  0  0
 19 20  2  0  0  0  0
 19 50  1  0  0  0  0
 21 22  1  0  0  0  0
 22 23  1  0  0  0  0
 22 24  1  0  0  0  0
 22 25  1  0  0  0  0
 26 27  1  0  0  0  0
 26 51  1  0  0  0  0
 27 28  1  0  0  0  0
 27 52  1  0  0  0  0
 27 53  1  0  0  0  0
 28 29  2  0  0  0  0
 28 30  1  0  0  0  0
 29 33  1  0  0  0  0
 29 54  1  0  0  0  0
 30 31  2  0  0  0  0
 30 55  1  0  0  0  0
 31 32  1  0  0  0  0
 31 56  1  0  0  0  0
 32 33  2  0  0  0  0
 32 57  1  0  0  0  0
 33 34  1  0  0  0  0
 34 35  2  0  0  0  0
 34 36  2  0  0  0  0
M  CHG  2   8   1  12   1
M  END
$$$$
