0J9
 OpenBabel04111919053D

 43 46  0  0  0  0  0  0  0  0999 V2000
   83.8181   49.8056  -38.3080 N   0  0  0  0  0  0  0  0  0  0  0  0
   82.6720   50.3937  -37.9194 C   0  0  0  0  0  0  0  0  0  0  0  0
   81.8140   49.9803  -36.9751 N   0  0  0  0  0  0  0  0  0  0  0  0
   82.2281   48.8437  -36.3884 C   0  0  0  0  0  0  0  0  0  0  0  0
   83.3824   48.1375  -36.6853 C   0  0  0  0  0  0  0  0  0  0  0  0
   84.1951   48.6611  -37.7015 C   0  0  0  0  0  0  0  0  0  0  0  0
   79.1868   48.5378  -35.8238 C   0  0  0  0  0  0  0  0  0  0  0  0
   79.8783   47.3497  -33.7531 C   0  0  0  0  0  0  0  0  0  0  0  0
   80.4184   49.7782  -33.9945 C   0  0  0  0  0  0  0  0  0  0  0  0
   85.3926   48.1065  -38.1199 N   0  0  0  0  0  0  0  0  0  0  0  0
   83.0689   41.8249  -35.3594 C   0  0  0  0  0  0  0  0  0  0  0  0
   82.1004   42.8153  -35.3789 C   0  0  0  0  0  0  0  0  0  0  0  0
   85.6792   46.1615  -35.7694 C   0  0  0  0  0  0  0  0  0  0  0  0
   84.4062   42.1634  -35.4814 C   0  0  0  0  0  0  0  0  0  0  0  0
   86.1743   43.8111  -35.7279 C   0  0  0  0  0  0  0  0  0  0  0  0
   82.4853   44.1494  -35.5172 C   0  0  0  0  0  0  0  0  0  0  0  0
   82.3120   47.0908  -34.9647 N   0  0  0  0  0  0  0  0  0  0  0  0
   84.3010   45.8940  -35.7140 C   0  0  0  0  0  0  0  0  0  0  0  0
   83.3638   47.0209  -35.7948 C   0  0  0  0  0  0  0  0  0  0  0  0
   84.8157   43.5065  -35.6071 C   0  0  0  0  0  0  0  0  0  0  0  0
   83.8444   44.5407  -35.6113 C   0  0  0  0  0  0  0  0  0  0  0  0
   81.5945   48.1443  -35.3923 N   0  3  0  0  0  0  0  0  0  0  0  0
   80.2991   48.4509  -34.7605 C   0  0  0  0  0  0  0  0  0  0  0  0
   86.6103   45.1315  -35.8168 C   0  0  0  0  0  0  0  0  0  0  0  0
   82.4090   51.3131  -38.4342 H   0  0  0  0  0  0  0  0  0  0  0  0
   78.2207   48.7790  -35.3657 H   0  0  0  0  0  0  0  0  0  0  0  0
   79.0767   47.5847  -36.3553 H   0  0  0  0  0  0  0  0  0  0  0  0
   79.3854   49.3075  -36.5749 H   0  0  0  0  0  0  0  0  0  0  0  0
   80.6163   47.2303  -32.9509 H   0  0  0  0  0  0  0  0  0  0  0  0
   79.7677   46.3762  -34.2476 H   0  0  0  0  0  0  0  0  0  0  0  0
   78.9184   47.5878  -33.2803 H   0  0  0  0  0  0  0  0  0  0  0  0
   80.6940   50.6068  -34.6545 H   0  0  0  0  0  0  0  0  0  0  0  0
   81.1901   49.7111  -33.2183 H   0  0  0  0  0  0  0  0  0  0  0  0
   79.4734   50.0453  -33.5104 H   0  0  0  0  0  0  0  0  0  0  0  0
   85.4996   47.1077  -38.0173 H   0  0  0  0  0  0  0  0  0  0  0  0
   85.7640   48.5270  -38.9613 H   0  0  0  0  0  0  0  0  0  0  0  0
   82.7773   40.7832  -35.2471 H   0  0  0  0  0  0  0  0  0  0  0  0
   81.0466   42.5645  -35.2794 H   0  0  0  0  0  0  0  0  0  0  0  0
   86.0440   47.1877  -35.8019 H   0  0  0  0  0  0  0  0  0  0  0  0
   85.1540   41.3724  -35.4727 H   0  0  0  0  0  0  0  0  0  0  0  0
   86.9197   43.0194  -35.7505 H   0  0  0  0  0  0  0  0  0  0  0  0
   81.6864   44.8860  -35.5293 H   0  0  0  0  0  0  0  0  0  0  0  0
   87.6678   45.3554  -35.9149 H   0  0  0  0  0  0  0  0  0  0  0  0
  1  2  1  0  0  0  0
  1  6  2  0  0  0  0
  2  3  2  0  0  0  0
  2 25  1  0  0  0  0
  3  4  1  0  0  0  0
  4  5  1  0  0  0  0
  4 22  2  0  0  0  0
  5  6  1  0  0  0  0
  5 19  2  0  0  0  0
  6 10  1  0  0  0  0
  7 23  1  0  0  0  0
  7 26  1  0  0  0  0
  7 27  1  0  0  0  0
  7 28  1  0  0  0  0
  8 23  1  0  0  0  0
  8 29  1  0  0  0  0
  8 30  1  0  0  0  0
  8 31  1  0  0  0  0
  9 23  1  0  0  0  0
  9 32  1  0  0  0  0
  9 33  1  0  0  0  0
  9 34  1  0  0  0  0
 10 35  1  0  0  0  0
 10 36  1  0  0  0  0
 11 12  2  0  0  0  0
 11 14  1  0  0  0  0
 11 37  1  0  0  0  0
 12 16  1  0  0  0  0
 12 38  1  0  0  0  0
 13 18  2  0  0  0  0
 13 24  1  0  0  0  0
 13 39  1  0  0  0  0
 14 20  2  0  0  0  0
 14 40  1  0  0  0  0
 15 20  1  0  0  0  0
 15 24  2  0  0  0  0
 15 41  1  0  0  0  0
 16 21  2  0  0  0  0
 16 42  1  0  0  0  0
 17 19  1  0  0  0  0
 17 22  1  0  0  0  0
 18 19  1  0  0  0  0
 18 21  1  0  0  0  0
 20 21  1  0  0  0  0
 22 23  1  0  0  0  0
 24 43  1  0  0  0  0
M  CHG  1  22   1
M  END
$$$$
