0JB
 OpenBabel04111918303D

 33 36  0  0  0  0  0  0  0  0999 V2000
   -9.2964   55.3141   13.6971 O   0  0  0  0  0  0  0  0  0  0  0  0
   -8.7983   55.4318   12.5811 C   0  0  0  0  0  0  0  0  0  0  0  0
   -9.4725   56.3085   11.5922 C   0  0  0  0  0  0  0  0  0  0  0  0
   -9.1875   56.3412   10.2117 C   0  0  0  0  0  0  0  0  0  0  0  0
   -8.3402   55.6460    9.3759 N   0  3  0  0  0  0  0  0  0  0  0  0
   -8.4465   56.1647    8.1185 C   0  0  0  0  0  0  0  0  0  0  0  0
   -9.3726   57.0905    8.0567 N   0  0  0  0  0  0  0  0  0  0  0  0
   -9.8473   57.2096    9.3408 C   0  0  0  0  0  0  0  0  0  0  0  0
  -10.8516   58.0595    9.8300 C   0  0  0  0  0  0  0  0  0  0  0  0
  -11.1634   58.0328   11.1899 C   0  0  0  0  0  0  0  0  0  0  0  0
  -10.4832   57.1777   12.0539 C   0  0  0  0  0  0  0  0  0  0  0  0
   -7.6159   54.8597   12.1706 N   0  0  0  0  0  0  0  0  0  0  0  0
   -6.7950   54.0143   12.9201 C   0  0  0  0  0  0  0  0  0  0  0  0
   -5.4552   53.9200   12.5161 C   0  0  0  0  0  0  0  0  0  0  0  0
   -7.2308   53.2871   14.0323 C   0  0  0  0  0  0  0  0  0  0  0  0
   -6.3210   52.5327   14.7760 C   0  0  0  0  0  0  0  0  0  0  0  0
   -4.9733   52.5047   14.4126 C   0  0  0  0  0  0  0  0  0  0  0  0
   -4.5459   53.1918   13.2705 C   0  0  0  0  0  0  0  0  0  0  0  0
   -3.0918   53.1689   12.8638 C   0  0  0  0  0  0  0  0  0  0  0  0
   -2.0810   52.7479   13.6597 N   0  0  0  0  0  0  0  0  0  0  0  0
   -0.9650   52.9138   12.9115 N   0  0  0  0  0  0  0  0  0  0  0  0
   -1.3096   53.3702   11.6885 N   0  0  0  0  0  0  0  0  0  0  0  0
   -2.6453   53.5832   11.6504 N   0  0  0  0  0  0  0  0  0  0  0  0
   -7.7309   54.8788    9.6215 H   0  0  0  0  0  0  0  0  0  0  0  0
   -7.8348   55.8165    7.2975 H   0  0  0  0  0  0  0  0  0  0  0  0
  -11.3697   58.7221    9.1481 H   0  0  0  0  0  0  0  0  0  0  0  0
  -11.9385   58.6908   11.5797 H   0  0  0  0  0  0  0  0  0  0  0  0
  -10.7392   57.1887   13.1150 H   0  0  0  0  0  0  0  0  0  0  0  0
   -7.1474   55.2954   11.3929 H   0  0  0  0  0  0  0  0  0  0  0  0
   -5.0947   54.4701   11.6489 H   0  0  0  0  0  0  0  0  0  0  0  0
   -8.2724   53.2975   14.3374 H   0  0  0  0  0  0  0  0  0  0  0  0
   -6.6612   51.9766   15.6433 H   0  0  0  0  0  0  0  0  0  0  0  0
   -4.2614   51.9336   15.0078 H   0  0  0  0  0  0  0  0  0  0  0  0
  1  2  2  0  0  0  0
  2  3  1  0  0  0  0
  2 12  1  0  0  0  0
  3  4  2  0  0  0  0
  3 11  1  0  0  0  0
  4  5  1  0  0  0  0
  4  8  1  0  0  0  0
  5  6  2  0  0  0  0
  5 24  1  0  0  0  0
  6  7  1  0  0  0  0
  6 25  1  0  0  0  0
  7  8  1  0  0  0  0
  8  9  2  0  0  0  0
  9 10  1  0  0  0  0
  9 26  1  0  0  0  0
 10 11  2  0  0  0  0
 10 27  1  0  0  0  0
 11 28  1  0  0  0  0
 12 13  1  0  0  0  0
 12 29  1  0  0  0  0
 13 14  2  0  0  0  0
 13 15  1  0  0  0  0
 14 18  1  0  0  0  0
 14 30  1  0  0  0  0
 15 16  2  0  0  0  0
 15 31  1  0  0  0  0
 16 17  1  0  0  0  0
 16 32  1  0  0  0  0
 17 18  2  0  0  0  0
 17 33  1  0  0  0  0
 18 19  1  0  0  0  0
 19 20  1  0  0  0  0
 19 23  2  0  0  0  0
 20 21  1  0  0  0  0
 21 22  2  0  0  0  0
 22 23  1  0  0  0  0
M  CHG  1   5   1
M  END
$$$$
