0JD
 OpenBabel04111919013D

 20 21  0  0  1  0  0  0  0  0999 V2000
   15.3387   12.9962    3.8126 O   0  0  0  0  0  0  0  0  0  0  0  0
   15.4014   11.7860    3.4388 C   0  0  0  0  0  0  0  0  0  0  0  0
   15.6413   11.3581    2.2574 O   0  0  0  0  0  0  0  0  0  0  0  0
   15.2020   10.6914    4.4647 C   0  0  1  0  0  0  0  0  0  0  0  0
   14.5103   11.2309    5.6009 O   0  0  0  0  0  0  0  0  0  0  0  0
   14.1098   10.2415    6.4405 C   0  0  0  0  0  0  0  0  0  0  0  0
   13.6753   10.6544    7.6869 C   0  0  0  0  0  0  0  0  0  0  0  0
   13.3457    9.7002    8.6347 C   0  0  0  0  0  0  0  0  0  0  0  0
   13.4390    8.3473    8.3260 C   0  0  0  0  0  0  0  0  0  0  0  0
   13.8372    7.9420    7.0579 C   0  0  0  0  0  0  0  0  0  0  0  0
   14.1256    8.8938    6.0974 C   0  0  0  0  0  0  0  0  0  0  0  0
   14.3837    8.4327    4.8340 O   0  0  0  0  0  0  0  0  0  0  0  0
   14.4372    9.5135    3.8798 C   0  0  0  0  0  0  0  0  0  0  0  0
   16.1825   10.3119    4.7731 H   0  0  0  0  0  0  0  0  0  0  0  0
   13.6107   11.7103    7.9166 H   0  0  0  0  0  0  0  0  0  0  0  0
   13.0294   10.0077    9.6196 H   0  0  0  0  0  0  0  0  0  0  0  0
   13.1839    7.6110    9.0724 H   0  0  0  0  0  0  0  0  0  0  0  0
   13.8945    6.8921    6.8103 H   0  0  0  0  0  0  0  0  0  0  0  0
   14.9505    9.1121    2.9972 H   0  0  0  0  0  0  0  0  0  0  0  0
   13.4119    9.7895    3.5960 H   0  0  0  0  0  0  0  0  0  0  0  0
  1  2  2  0  0  0  0
  2  3  1  0  0  0  0
  2  4  1  0  0  0  0
  4  5  1  0  0  0  0
  4 13  1  0  0  0  0
  4 14  1  1  0  0  0
  5  6  1  0  0  0  0
  6  7  2  0  0  0  0
  6 11  1  0  0  0  0
  7  8  1  0  0  0  0
  7 15  1  0  0  0  0
  8  9  2  0  0  0  0
  8 16  1  0  0  0  0
  9 10  1  0  0  0  0
  9 17  1  0  0  0  0
 10 11  2  0  0  0  0
 10 18  1  0  0  0  0
 11 12  1  0  0  0  0
 12 13  1  0  0  0  0
 13 19  1  0  0  0  0
 13 20  1  0  0  0  0
M  END
$$$$
