0JD
 OpenBabel04111918303D

 20 21  0  0  1  0  0  0  0  0999 V2000
   15.2084   13.0351    3.6766 O   0  0  0  0  0  0  0  0  0  0  0  0
   15.3631   11.8331    3.3142 C   0  0  0  0  0  0  0  0  0  0  0  0
   15.7783   11.4059    2.1950 O   0  0  0  0  0  0  0  0  0  0  0  0
   15.0814   10.7389    4.3602 C   0  0  1  0  0  0  0  0  0  0  0  0
   14.3526   11.2427    5.5077 O   0  0  0  0  0  0  0  0  0  0  0  0
   14.0726   10.2076    6.3614 C   0  0  0  0  0  0  0  0  0  0  0  0
   13.8216   10.5371    7.6908 C   0  0  0  0  0  0  0  0  0  0  0  0
   13.6186    9.5254    8.6318 C   0  0  0  0  0  0  0  0  0  0  0  0
   13.6678    8.1859    8.2348 C   0  0  0  0  0  0  0  0  0  0  0  0
   13.8846    7.8575    6.8932 C   0  0  0  0  0  0  0  0  0  0  0  0
   14.0640    8.8694    5.9515 C   0  0  0  0  0  0  0  0  0  0  0  0
   14.2487    8.4775    4.6506 O   0  0  0  0  0  0  0  0  0  0  0  0
   14.2748    9.6093    3.7462 C   0  0  0  0  0  0  0  0  0  0  0  0
   16.0592   10.3804    4.7140 H   0  0  0  0  0  0  0  0  0  0  0  0
   13.8073   11.5821    7.9886 H   0  0  0  0  0  0  0  0  0  0  0  0
   13.4428    9.7807    9.6697 H   0  0  0  0  0  0  0  0  0  0  0  0
   13.5352    7.3979    8.9692 H   0  0  0  0  0  0  0  0  0  0  0  0
   13.9181    6.8207    6.5820 H   0  0  0  0  0  0  0  0  0  0  0  0
   14.6947    9.2502    2.8024 H   0  0  0  0  0  0  0  0  0  0  0  0
   13.2355    9.9089    3.5574 H   0  0  0  0  0  0  0  0  0  0  0  0
  1  2  2  0  0  0  0
  2  3  1  0  0  0  0
  2  4  1  0  0  0  0
  4  5  1  0  0  0  0
  4 13  1  0  0  0  0
  4 14  1  1  0  0  0
  5  6  1  0  0  0  0
  6  7  2  0  0  0  0
  6 11  1  0  0  0  0
  7  8  1  0  0  0  0
  7 15  1  0  0  0  0
  8  9  2  0  0  0  0
  8 16  1  0  0  0  0
  9 10  1  0  0  0  0
  9 17  1  0  0  0  0
 10 11  2  0  0  0  0
 10 18  1  0  0  0  0
 11 12  1  0  0  0  0
 12 13  1  0  0  0  0
 13 19  1  0  0  0  0
 13 20  1  0  0  0  0
M  END
$$$$
