0JV
 OpenBabel04111918323D

 87 90  0  0  1  0  0  0  0  0999 V2000
   21.7569   28.7446   14.6632 O   0  0  0  0  0  0  0  0  0  0  0  0
   23.1424   28.7021   14.9509 C   0  0  0  0  0  0  0  0  0  0  0  0
   21.1201   27.5863   15.0162 C   0  0  0  0  0  0  0  0  0  0  0  0
   19.7381   27.5952   14.8245 C   0  0  0  0  0  0  0  0  0  0  0  0
   18.9668   26.4865   15.1421 C   0  0  0  0  0  0  0  0  0  0  0  0
   19.5695   25.3556   15.6635 C   0  0  0  0  0  0  0  0  0  0  0  0
   20.9560   25.3284   15.8502 C   0  0  0  0  0  0  0  0  0  0  0  0
   21.7345   26.4509   15.5330 C   0  0  0  0  0  0  0  0  0  0  0  0
   18.5476   23.9143   16.0109 S   0  0  0  0  0  0  0  0  0  0  0  0
   17.5020   23.8918   15.0498 O   0  0  0  0  0  0  0  0  0  0  0  0
   19.4420   22.7681   16.2111 O   0  0  0  0  0  0  0  0  0  0  0  0
   17.8854   24.2395   17.5217 N   0  0  0  0  0  0  0  0  0  0  0  0
   18.8242   24.5556   18.6064 C   0  0  0  0  0  0  0  0  0  0  0  0
   18.5090   23.7994   19.8912 C   0  0  0  0  0  0  0  0  0  0  0  0
   18.6321   22.2887   19.7237 C   0  0  0  0  0  0  0  0  0  0  0  0
   19.4849   24.2719   20.9618 C   0  0  0  0  0  0  0  0  0  0  0  0
   16.6007   24.9594   17.5445 C   0  0  0  0  0  0  0  0  0  0  0  0
   15.4751   24.0342   18.0372 C   0  0  1  0  0  0  0  0  0  0  0  0
   14.2950   24.7767   18.3975 O   0  0  0  0  0  0  0  0  0  0  0  0
   15.1042   22.9013   17.0702 C   0  0  1  0  0  0  0  0  0  0  0  0
   14.2074   21.9575   17.7742 N   0  0  0  0  0  0  0  0  0  0  0  0
   14.5087   20.6674   18.0035 C   0  0  0  0  0  0  0  0  0  0  0  0
   15.5543   20.1474   17.7560 O   0  0  0  0  0  0  0  0  0  0  0  0
   13.4536   20.0169   18.5795 O   0  0  0  0  0  0  0  0  0  0  0  0
   13.6985   18.6199   18.8662 C   0  0  1  0  0  0  0  0  0  0  0  0
   12.6465   18.1877   19.8777 C   0  0  0  0  0  0  0  0  0  0  0  0
   11.4193   17.8403   19.0404 C   0  0  1  0  0  0  0  0  0  0  0  0
   10.6873   19.0215   18.6465 O   0  0  0  0  0  0  0  0  0  0  0  0
   10.5781   19.0496   17.1997 C   0  0  0  0  0  0  0  0  0  0  0  0
   10.9491   17.6525   16.7200 C   0  0  2  0  0  0  0  0  0  0  0  0
   11.9542   17.2167   17.7726 C   0  0  1  0  0  0  0  0  0  0  0  0
   13.3862   17.7813   17.6231 C   0  0  0  0  0  0  0  0  0  0  0  0
   11.4784   17.5293   15.3663 N   0  0  0  0  0  0  0  0  0  0  0  0
   10.7342   17.8224   14.2605 C   0  0  0  0  0  0  0  0  0  0  0  0
    9.6273   18.3286   14.3473 O   0  0  0  0  0  0  0  0  0  0  0  0
   11.2810   17.5361   13.0449 O   0  0  0  0  0  0  0  0  0  0  0  0
   10.2712   17.8270   12.0449 C   0  0  0  0  0  0  0  0  0  0  0  0
   14.4275   23.4076   15.7882 C   0  0  0  0  0  0  0  0  0  0  0  0
   12.8196   21.7251   14.8712 C   0  0  0  0  0  0  0  0  0  0  0  0
   12.4945   20.6310   14.0766 C   0  0  0  0  0  0  0  0  0  0  0  0
   13.4761   20.0348   13.2966 C   0  0  0  0  0  0  0  0  0  0  0  0
   14.7776   20.5301   13.3086 C   0  0  0  0  0  0  0  0  0  0  0  0
   15.1020   21.6304   14.1061 C   0  0  0  0  0  0  0  0  0  0  0  0
   14.1148   22.2482   14.8804 C   0  0  0  0  0  0  0  0  0  0  0  0
   23.5914   29.6430   14.6508 H   0  0  0  0  0  0  0  0  0  0  0  0
   23.6106   27.8895   14.3880 H   0  0  0  0  0  0  0  0  0  0  0  0
   23.2880   28.5612   16.0264 H   0  0  0  0  0  0  0  0  0  0  0  0
   19.2720   28.4839   14.4198 H   0  0  0  0  0  0  0  0  0  0  0  0
   17.8946   26.5216   14.9771 H   0  0  0  0  0  0  0  0  0  0  0  0
   21.4317   24.4579   16.2480 H   0  0  0  0  0  0  0  0  0  0  0  0
   22.8086   26.3951   15.6983 H   0  0  0  0  0  0  0  0  0  0  0  0
   18.7846   25.6354   18.7888 H   0  0  0  0  0  0  0  0  0  0  0  0
   19.8369   24.3040   18.2841 H   0  0  0  0  0  0  0  0  0  0  0  0
   17.4897   24.0343   20.2104 H   0  0  0  0  0  0  0  0  0  0  0  0
   18.4056   21.7813   20.6697 H   0  0  0  0  0  0  0  0  0  0  0  0
   19.6504   22.0141   19.4244 H   0  0  0  0  0  0  0  0  0  0  0  0
   17.9361   21.9191   18.9643 H   0  0  0  0  0  0  0  0  0  0  0  0
   19.4148   25.3576   21.0944 H   0  0  0  0  0  0  0  0  0  0  0  0
   20.5163   24.0289   20.6754 H   0  0  0  0  0  0  0  0  0  0  0  0
   19.2696   23.7906   21.9198 H   0  0  0  0  0  0  0  0  0  0  0  0
   16.3709   25.3383   16.5496 H   0  0  0  0  0  0  0  0  0  0  0  0
   16.6830   25.8249   18.2066 H   0  0  0  0  0  0  0  0  0  0  0  0
   15.8258   23.5670   18.9582 H   0  0  0  0  0  0  0  0  0  0  0  0
   13.9631   25.2408   17.6118 H   0  0  0  0  0  0  0  0  0  0  0  0
   16.0139   22.3764   16.7897 H   0  0  0  0  0  0  0  0  0  0  0  0
   13.3237   22.3072   18.1019 H   0  0  0  0  0  0  0  0  0  0  0  0
   14.7297   18.4718   19.2258 H   0  0  0  0  0  0  0  0  0  0  0  0
   12.4217   18.9978   20.5695 H   0  0  0  0  0  0  0  0  0  0  0  0
   12.9793   17.3001   20.4232 H   0  0  0  0  0  0  0  0  0  0  0  0
   10.7415   17.1664   19.5768 H   0  0  0  0  0  0  0  0  0  0  0  0
   11.2655   19.8065   16.8073 H   0  0  0  0  0  0  0  0  0  0  0  0
    9.5552   19.3302   16.9280 H   0  0  0  0  0  0  0  0  0  0  0  0
   10.0460   17.0287   16.7923 H   0  0  0  0  0  0  0  0  0  0  0  0
   12.0082   16.1281   17.8348 H   0  0  0  0  0  0  0  0  0  0  0  0
   14.0835   16.9376   17.5499 H   0  0  0  0  0  0  0  0  0  0  0  0
   13.4707   18.3934   16.7262 H   0  0  0  0  0  0  0  0  0  0  0  0
   12.4281   17.2291   15.2603 H   0  0  0  0  0  0  0  0  0  0  0  0
   10.6585   17.6377   11.0426 H   0  0  0  0  0  0  0  0  0  0  0  0
    9.9487   18.8816   12.0971 H   0  0  0  0  0  0  0  0  0  0  0  0
    9.3918   17.1820   12.2081 H   0  0  0  0  0  0  0  0  0  0  0  0
   15.0749   24.1199   15.2684 H   0  0  0  0  0  0  0  0  0  0  0  0
   13.4973   23.9508   16.0208 H   0  0  0  0  0  0  0  0  0  0  0  0
   12.0527   22.1820   15.4880 H   0  0  0  0  0  0  0  0  0  0  0  0
   11.4801   20.2546   14.0707 H   0  0  0  0  0  0  0  0  0  0  0  0
   13.2302   19.1816   12.6726 H   0  0  0  0  0  0  0  0  0  0  0  0
   15.5324   20.0549   12.6905 H   0  0  0  0  0  0  0  0  0  0  0  0
   16.1230   22.0045   14.1108 H   0  0  0  0  0  0  0  0  0  0  0  0
  1  2  1  0  0  0  0
  1  3  1  0  0  0  0
  2 45  1  0  0  0  0
  2 46  1  0  0  0  0
  2 47  1  0  0  0  0
  3  4  2  0  0  0  0
  3  8  1  0  0  0  0
  4  5  1  0  0  0  0
  4 48  1  0  0  0  0
  5  6  2  0  0  0  0
  5 49  1  0  0  0  0
  6  7  1  0  0  0  0
  6  9  1  0  0  0  0
  7  8  2  0  0  0  0
  7 50  1  0  0  0  0
  8 51  1  0  0  0  0
  9 10  2  0  0  0  0
  9 11  2  0  0  0  0
  9 12  1  0  0  0  0
 12 13  1  0  0  0  0
 12 17  1  0  0  0  0
 13 14  1  0  0  0  0
 13 52  1  0  0  0  0
 13 53  1  0  0  0  0
 14 15  1  0  0  0  0
 14 16  1  0  0  0  0
 14 54  1  0  0  0  0
 15 55  1  0  0  0  0
 15 56  1  0  0  0  0
 15 57  1  0  0  0  0
 16 58  1  0  0  0  0
 16 59  1  0  0  0  0
 16 60  1  0  0  0  0
 17 18  1  0  0  0  0
 17 61  1  0  0  0  0
 17 62  1  0  0  0  0
 18 19  1  0  0  0  0
 18 20  1  0  0  0  0
 18 63  1  1  0  0  0
 19 64  1  0  0  0  0
 20 21  1  0  0  0  0
 20 38  1  0  0  0  0
 20 65  1  6  0  0  0
 21 22  1  0  0  0  0
 21 66  1  0  0  0  0
 22 23  2  0  0  0  0
 22 24  1  0  0  0  0
 24 25  1  0  0  0  0
 25 26  1  0  0  0  0
 25 32  1  0  0  0  0
 25 67  1  1  0  0  0
 26 27  1  0  0  0  0
 26 68  1  0  0  0  0
 26 69  1  0  0  0  0
 27 28  1  0  0  0  0
 27 31  1  0  0  0  0
 27 70  1  1  0  0  0
 28 29  1  0  0  0  0
 29 30  1  0  0  0  0
 29 71  1  0  0  0  0
 29 72  1  0  0  0  0
 30 31  1  0  0  0  0
 30 33  1  0  0  0  0
 30 73  1  1  0  0  0
 31 32  1  0  0  0  0
 31 74  1  1  0  0  0
 32 75  1  0  0  0  0
 32 76  1  0  0  0  0
 33 34  1  0  0  0  0
 33 77  1  0  0  0  0
 34 35  2  0  0  0  0
 34 36  1  0  0  0  0
 36 37  1  0  0  0  0
 37 78  1  0  0  0  0
 37 79  1  0  0  0  0
 37 80  1  0  0  0  0
 38 44  1  0  0  0  0
 38 81  1  0  0  0  0
 38 82  1  0  0  0  0
 39 40  2  0  0  0  0
 39 44  1  0  0  0  0
 39 83  1  0  0  0  0
 40 41  1  0  0  0  0
 40 84  1  0  0  0  0
 41 42  2  0  0  0  0
 41 85  1  0  0  0  0
 42 43  1  0  0  0  0
 42 86  1  0  0  0  0
 43 44  2  0  0  0  0
 43 87  1  0  0  0  0
M  END
$$$$
