0KJ
 OpenBabel04111918333D

 76 79  0  0  1  0  0  0  0  0999 V2000
   21.8343   23.3675   11.5186 O   0  0  0  0  0  0  0  0  0  0  0  0
   21.7528   24.3958   10.8705 C   0  0  0  0  0  0  0  0  0  0  0  0
   22.8167   25.1113   10.3801 N   0  0  0  0  0  0  0  0  0  0  0  0
   22.4392   26.3799    9.8109 C   0  0  1  0  0  0  0  0  0  0  0  0
   20.9299   26.2650    9.6153 C   0  0  0  0  0  0  0  0  0  0  0  0
   20.4857   25.1039   10.4974 C   0  0  0  0  0  0  0  0  0  0  0  0
   22.8229   27.5666   10.7093 C   0  0  0  0  0  0  0  0  0  0  0  0
   22.1786   27.4240   11.9915 O   0  0  0  0  0  0  0  0  0  0  0  0
   21.3702   28.4330   12.3842 C   0  0  0  0  0  0  0  0  0  0  0  0
   21.3042   29.5271   11.8391 O   0  0  0  0  0  0  0  0  0  0  0  0
   20.6073   28.0369   13.4418 N   0  0  0  0  0  0  0  0  0  0  0  0
   19.5431   28.8676   14.0185 C   0  0  1  0  0  0  0  0  0  0  0  0
   18.1960   28.1128   13.9695 C   0  0  0  0  0  0  0  0  0  0  0  0
   17.7671   27.7720   12.5647 C   0  0  0  0  0  0  0  0  0  0  0  0
   17.6543   26.4352   12.1716 C   0  0  0  0  0  0  0  0  0  0  0  0
   17.3005   26.1151   10.8614 C   0  0  0  0  0  0  0  0  0  0  0  0
   17.0548   27.1264    9.9359 C   0  0  0  0  0  0  0  0  0  0  0  0
   17.1522   28.4601   10.3218 C   0  0  0  0  0  0  0  0  0  0  0  0
   17.5019   28.7811   11.6311 C   0  0  0  0  0  0  0  0  0  0  0  0
   19.9447   29.2784   15.4557 C   0  0  2  0  0  0  0  0  0  0  0  0
   19.9143   28.1516   16.3454 O   0  0  0  0  0  0  0  0  0  0  0  0
   19.0943   30.4130   16.0539 C   0  0  0  0  0  0  0  0  0  0  0  0
   19.3249   31.6779   15.3141 N   0  0  0  0  0  0  0  0  0  0  0  0
   20.1318   32.6776   16.0313 C   0  0  0  0  0  0  0  0  0  0  0  0
   21.6333   32.3800   15.9992 C   0  0  1  0  0  0  0  0  0  0  0  0
   22.2111   32.4203   14.5826 C   0  0  0  0  0  0  0  0  0  0  0  0
   22.3708   33.3683   16.9218 C   0  0  0  0  0  0  0  0  0  0  0  0
   22.2208   34.8303   16.5157 C   0  0  0  0  0  0  0  0  0  0  0  0
   18.0159   32.3012   14.4092 S   0  0  0  0  0  0  0  0  0  0  0  0
   17.1869   31.1973   13.9678 O   0  0  0  0  0  0  0  0  0  0  0  0
   18.5370   33.2699   13.4629 O   0  0  0  0  0  0  0  0  0  0  0  0
   17.0850   33.1980   15.6273 C   0  0  0  0  0  0  0  0  0  0  0  0
   16.1134   32.5333   16.3731 C   0  0  0  0  0  0  0  0  0  0  0  0
   15.3706   33.2355   17.3245 C   0  0  0  0  0  0  0  0  0  0  0  0
   17.3219   34.5697   15.7807 C   0  0  0  0  0  0  0  0  0  0  0  0
   16.5659   35.2554   16.7394 C   0  0  0  0  0  0  0  0  0  0  0  0
   16.6292   36.9232   17.1642 S   0  0  0  0  0  0  0  0  0  0  0  0
   15.3879   36.6622   18.3115 C   0  0  0  0  0  0  0  0  0  0  0  0
   14.9305   35.4349   18.4138 N   0  0  0  0  0  0  0  0  0  0  0  0
   15.5944   34.6176   17.5154 C   0  0  0  0  0  0  0  0  0  0  0  0
   23.7614   24.8291   10.6088 H   0  0  0  0  0  0  0  0  0  0  0  0
   22.9475   26.4672    8.8446 H   0  0  0  0  0  0  0  0  0  0  0  0
   20.6958   26.0425    8.5675 H   0  0  0  0  0  0  0  0  0  0  0  0
   20.3972   27.1897    9.8632 H   0  0  0  0  0  0  0  0  0  0  0  0
   20.0132   25.4589   11.4125 H   0  0  0  0  0  0  0  0  0  0  0  0
   19.8196   24.4258    9.9575 H   0  0  0  0  0  0  0  0  0  0  0  0
   22.5466   28.4979   10.2013 H   0  0  0  0  0  0  0  0  0  0  0  0
   23.9073   27.5795   10.8660 H   0  0  0  0  0  0  0  0  0  0  0  0
   20.7533   27.0990   13.7979 H   0  0  0  0  0  0  0  0  0  0  0  0
   19.4699   29.7755   13.4089 H   0  0  0  0  0  0  0  0  0  0  0  0
   17.3923   28.6897   14.4403 H   0  0  0  0  0  0  0  0  0  0  0  0
   18.2722   27.1848   14.5496 H   0  0  0  0  0  0  0  0  0  0  0  0
   17.8787   25.6336   12.8721 H   0  0  0  0  0  0  0  0  0  0  0  0
   17.2451   25.0733   10.5583 H   0  0  0  0  0  0  0  0  0  0  0  0
   16.7887   26.8761    8.9136 H   0  0  0  0  0  0  0  0  0  0  0  0
   16.9607   29.2559    9.6074 H   0  0  0  0  0  0  0  0  0  0  0  0
   17.5795   29.8292   11.9104 H   0  0  0  0  0  0  0  0  0  0  0  0
   20.9904   29.6017   15.4250 H   0  0  0  0  0  0  0  0  0  0  0  0
   18.9960   27.8423   16.4202 H   0  0  0  0  0  0  0  0  0  0  0  0
   19.3565   30.5451   17.1090 H   0  0  0  0  0  0  0  0  0  0  0  0
   18.0389   30.1329   16.0721 H   0  0  0  0  0  0  0  0  0  0  0  0
   19.7841   32.7263   17.0698 H   0  0  0  0  0  0  0  0  0  0  0  0
   19.9617   33.6665   15.5948 H   0  0  0  0  0  0  0  0  0  0  0  0
   21.8081   31.3760   16.4021 H   0  0  0  0  0  0  0  0  0  0  0  0
   23.2862   32.2109   14.6091 H   0  0  0  0  0  0  0  0  0  0  0  0
   22.0712   33.3984   14.1123 H   0  0  0  0  0  0  0  0  0  0  0  0
   21.7424   31.6744   13.9344 H   0  0  0  0  0  0  0  0  0  0  0  0
   23.4359   33.1113   16.9473 H   0  0  0  0  0  0  0  0  0  0  0  0
   21.9937   33.2470   17.9452 H   0  0  0  0  0  0  0  0  0  0  0  0
   22.7619   35.4732   17.2138 H   0  0  0  0  0  0  0  0  0  0  0  0
   21.1742   35.1488   16.5255 H   0  0  0  0  0  0  0  0  0  0  0  0
   22.6229   35.0105   15.5150 H   0  0  0  0  0  0  0  0  0  0  0  0
   15.9210   31.4730   16.2181 H   0  0  0  0  0  0  0  0  0  0  0  0
   14.6106   32.7265   17.9109 H   0  0  0  0  0  0  0  0  0  0  0  0
   18.0661   35.0925   15.1874 H   0  0  0  0  0  0  0  0  0  0  0  0
   15.0091   37.4742   18.9176 H   0  0  0  0  0  0  0  0  0  0  0  0
  1  2  2  0  0  0  0
  2  3  1  0  0  0  0
  2  6  1  0  0  0  0
  3  4  1  0  0  0  0
  3 41  1  0  0  0  0
  4  5  1  0  0  0  0
  4  7  1  0  0  0  0
  4 42  1  6  0  0  0
  5  6  1  0  0  0  0
  5 43  1  0  0  0  0
  5 44  1  0  0  0  0
  6 45  1  0  0  0  0
  6 46  1  0  0  0  0
  7  8  1  0  0  0  0
  7 47  1  0  0  0  0
  7 48  1  0  0  0  0
  8  9  1  0  0  0  0
  9 10  2  0  0  0  0
  9 11  1  0  0  0  0
 11 12  1  0  0  0  0
 11 49  1  0  0  0  0
 12 13  1  0  0  0  0
 12 20  1  0  0  0  0
 12 50  1  6  0  0  0
 13 14  1  0  0  0  0
 13 51  1  0  0  0  0
 13 52  1  0  0  0  0
 14 15  2  0  0  0  0
 14 19  1  0  0  0  0
 15 16  1  0  0  0  0
 15 53  1  0  0  0  0
 16 17  2  0  0  0  0
 16 54  1  0  0  0  0
 17 18  1  0  0  0  0
 17 55  1  0  0  0  0
 18 19  2  0  0  0  0
 18 56  1  0  0  0  0
 19 57  1  0  0  0  0
 20 21  1  0  0  0  0
 20 22  1  0  0  0  0
 20 58  1  6  0  0  0
 21 59  1  0  0  0  0
 22 23  1  0  0  0  0
 22 60  1  0  0  0  0
 22 61  1  0  0  0  0
 23 24  1  0  0  0  0
 23 29  1  0  0  0  0
 24 25  1  0  0  0  0
 24 62  1  0  0  0  0
 24 63  1  0  0  0  0
 25 26  1  0  0  0  0
 25 27  1  0  0  0  0
 25 64  1  1  0  0  0
 26 65  1  0  0  0  0
 26 66  1  0  0  0  0
 26 67  1  0  0  0  0
 27 28  1  0  0  0  0
 27 68  1  0  0  0  0
 27 69  1  0  0  0  0
 28 70  1  0  0  0  0
 28 71  1  0  0  0  0
 28 72  1  0  0  0  0
 29 30  2  0  0  0  0
 29 31  2  0  0  0  0
 29 32  1  0  0  0  0
 32 33  2  0  0  0  0
 32 35  1  0  0  0  0
 33 34  1  0  0  0  0
 33 73  1  0  0  0  0
 34 40  2  0  0  0  0
 34 74  1  0  0  0  0
 35 36  2  0  0  0  0
 35 75  1  0  0  0  0
 36 37  1  0  0  0  0
 36 40  1  0  0  0  0
 37 38  1  0  0  0  0
 38 39  2  0  0  0  0
 38 76  1  0  0  0  0
 39 40  1  0  0  0  0
M  END
$$$$
