0KK
 OpenBabel04111918343D

 36 38  0  0  0  0  0  0  0  0999 V2000
   21.8563   13.2203   22.7052 O   0  0  0  0  0  0  0  0  0  0  0  0
   22.0019   12.0207   22.8285 C   0  0  0  0  0  0  0  0  0  0  0  0
   21.7274   10.8739   21.7883 C   0  0  0  0  0  0  0  0  0  0  0  0
   22.1236    9.6860   22.6044 N   0  0  0  0  0  0  0  0  0  0  0  0
   22.4827   10.0719   23.8572 C   0  0  0  0  0  0  0  0  0  0  0  0
   22.4380   11.3944   24.0290 N   0  0  0  0  0  0  0  0  0  0  0  0
   22.8350    9.2026   24.8035 N   0  0  0  0  0  0  0  0  0  0  0  0
   22.7494   12.1710   25.2149 C   0  0  0  0  0  0  0  0  0  0  0  0
   20.2597   10.6954   21.4341 C   0  0  0  0  0  0  0  0  0  0  0  0
   19.8773    9.7479   20.4647 C   0  0  0  0  0  0  0  0  0  0  0  0
   18.5403    9.6127   20.0887 C   0  0  0  0  0  0  0  0  0  0  0  0
   17.5653   10.4102   20.6808 C   0  0  0  0  0  0  0  0  0  0  0  0
   17.9208   11.3336   21.6573 C   0  0  0  0  0  0  0  0  0  0  0  0
   19.2545   11.4712   22.0365 C   0  0  0  0  0  0  0  0  0  0  0  0
   22.6389   11.0708   20.5907 C   0  0  0  0  0  0  0  0  0  0  0  0
   22.4492   12.2031   19.7702 C   0  0  0  0  0  0  0  0  0  0  0  0
   23.2730   12.4397   18.6712 C   0  0  0  0  0  0  0  0  0  0  0  0
   24.2955   11.5486   18.3723 C   0  0  0  0  0  0  0  0  0  0  0  0
   24.4944   10.4225   19.1701 C   0  0  0  0  0  0  0  0  0  0  0  0
   23.6727   10.1809   20.2711 C   0  0  0  0  0  0  0  0  0  0  0  0
   22.0288    8.7257   22.3110 H   0  0  0  0  0  0  0  0  0  0  0  0
   23.0938    9.5309   25.7267 H   0  0  0  0  0  0  0  0  0  0  0  0
   22.6150   13.2400   25.0221 H   0  0  0  0  0  0  0  0  0  0  0  0
   23.7913   12.0028   25.4972 H   0  0  0  0  0  0  0  0  0  0  0  0
   22.0759   11.8840   26.0264 H   0  0  0  0  0  0  0  0  0  0  0  0
   20.6176    9.1271   19.9610 H   0  0  0  0  0  0  0  0  0  0  0  0
   18.2573    8.8964   19.3201 H   0  0  0  0  0  0  0  0  0  0  0  0
   16.5253   10.3182   20.3765 H   0  0  0  0  0  0  0  0  0  0  0  0
   17.1600   11.9614   22.1163 H   0  0  0  0  0  0  0  0  0  0  0  0
   19.4739   12.2225   22.7919 H   0  0  0  0  0  0  0  0  0  0  0  0
   21.6556   12.9230   19.9777 H   0  0  0  0  0  0  0  0  0  0  0  0
   23.1138   13.3179   18.0505 H   0  0  0  0  0  0  0  0  0  0  0  0
   24.9385   11.7297   17.5161 H   0  0  0  0  0  0  0  0  0  0  0  0
   25.2964    9.7294   18.9265 H   0  0  0  0  0  0  0  0  0  0  0  0
   23.8605    9.2890   20.8600 H   0  0  0  0  0  0  0  0  0  0  0  0
   22.8427    8.2029   24.6456 H   0  0  0  0  0  0  0  0  0  0  0  0
  1  2  2  0  0  0  0
  2  3  1  0  0  0  0
  2  6  1  0  0  0  0
  3  4  1  0  0  0  0
  3  9  1  0  0  0  0
  3 15  1  0  0  0  0
  4  5  1  0  0  0  0
  4 21  1  0  0  0  0
  5  6  1  0  0  0  0
  5  7  2  0  0  0  0
  6  8  1  0  0  0  0
  7 22  1  0  0  0  0
  7 36  1  0  0  0  0
  8 23  1  0  0  0  0
  8 24  1  0  0  0  0
  8 25  1  0  0  0  0
  9 10  2  0  0  0  0
  9 14  1  0  0  0  0
 10 11  1  0  0  0  0
 10 26  1  0  0  0  0
 11 12  2  0  0  0  0
 11 27  1  0  0  0  0
 12 13  1  0  0  0  0
 12 28  1  0  0  0  0
 13 14  2  0  0  0  0
 13 29  1  0  0  0  0
 14 30  1  0  0  0  0
 15 16  2  0  0  0  0
 15 20  1  0  0  0  0
 16 17  1  0  0  0  0
 16 31  1  0  0  0  0
 17 18  2  0  0  0  0
 17 32  1  0  0  0  0
 18 19  1  0  0  0  0
 18 33  1  0  0  0  0
 19 20  2  0  0  0  0
 19 34  1  0  0  0  0
 20 35  1  0  0  0  0
M  END
$$$$
