0KM
 OpenBabel04111918343D

 50 53  0  0  1  0  0  0  0  0999 V2000
   22.8329   12.9580   22.2293 O   0  0  0  0  0  0  0  0  0  0  0  0
   22.7676   11.7589   22.4326 C   0  0  0  0  0  0  0  0  0  0  0  0
   22.5259   10.5796   21.4128 C   0  0  1  0  0  0  0  0  0  0  0  0
   22.7033    9.4126   22.3366 N   0  0  0  0  0  0  0  0  0  0  0  0
   22.8776    9.8353   23.6143 C   0  0  0  0  0  0  0  0  0  0  0  0
   22.9330   11.1636   23.7197 N   0  0  0  0  0  0  0  0  0  0  0  0
   22.9973    8.9954   24.6405 N   0  0  0  0  0  0  0  0  0  0  0  0
   23.1728   11.9703   24.9030 C   0  0  0  0  0  0  0  0  0  0  0  0
   21.0893   10.5921   20.9029 C   0  0  0  0  0  0  0  0  0  0  0  0
   20.3333    9.4141   20.7804 C   0  0  0  0  0  0  0  0  0  0  0  0
   19.0315    9.4520   20.2779 C   0  0  0  0  0  0  0  0  0  0  0  0
   18.4690   10.6599   19.8751 C   0  0  0  0  0  0  0  0  0  0  0  0
   19.2077   11.8336   19.9632 C   0  0  0  0  0  0  0  0  0  0  0  0
   20.5055   11.8008   20.4685 C   0  0  0  0  0  0  0  0  0  0  0  0
   23.6187   10.5793   20.3550 C   0  0  0  0  0  0  0  0  0  0  0  0
   23.3488   10.8577   19.0075 C   0  0  0  0  0  0  0  0  0  0  0  0
   24.3797   11.0432   18.0902 C   0  0  0  0  0  0  0  0  0  0  0  0
   25.7069   10.9337   18.4956 C   0  0  0  0  0  0  0  0  0  0  0  0
   26.0281   10.6176   19.8202 C   0  0  0  0  0  0  0  0  0  0  0  0
   24.9666   10.4412   20.7320 C   0  0  0  0  0  0  0  0  0  0  0  0
   30.0068   10.4806   21.4203 C   0  0  0  0  0  0  0  0  0  0  0  0
   27.7848    9.5729   21.2560 C   0  0  0  0  0  0  0  0  0  0  0  0
   27.4221   10.5260   20.2893 C   0  0  0  0  0  0  0  0  0  0  0  0
   28.4124   11.4171   19.8514 C   0  0  0  0  0  0  0  0  0  0  0  0
   29.6918   11.3950   20.4121 C   0  0  0  0  0  0  0  0  0  0  0  0
   29.0516    9.5598   21.8397 C   0  0  0  0  0  0  0  0  0  0  0  0
   29.2124    8.6069   22.8051 O   0  0  0  0  0  0  0  0  0  0  0  0
   30.4161    8.6636   23.5584 C   0  0  0  0  0  0  0  0  0  0  0  0
   22.7537    8.4471   22.0464 H   0  0  0  0  0  0  0  0  0  0  0  0
   23.1367    9.3517   25.5795 H   0  0  0  0  0  0  0  0  0  0  0  0
   23.1925   13.0348   24.6499 H   0  0  0  0  0  0  0  0  0  0  0  0
   24.1404   11.7025   25.3328 H   0  0  0  0  0  0  0  0  0  0  0  0
   22.3697   11.8026   25.6245 H   0  0  0  0  0  0  0  0  0  0  0  0
   20.7370    8.4443   21.0558 H   0  0  0  0  0  0  0  0  0  0  0  0
   18.4534    8.5346   20.1899 H   0  0  0  0  0  0  0  0  0  0  0  0
   17.4561   10.6855   19.4801 H   0  0  0  0  0  0  0  0  0  0  0  0
   18.7779   12.7756   19.6283 H   0  0  0  0  0  0  0  0  0  0  0  0
   21.0636   12.7382   20.4801 H   0  0  0  0  0  0  0  0  0  0  0  0
   22.3322   10.9748   18.6383 H   0  0  0  0  0  0  0  0  0  0  0  0
   24.1452   11.2932   17.0576 H   0  0  0  0  0  0  0  0  0  0  0  0
   26.4894   11.0972   17.7573 H   0  0  0  0  0  0  0  0  0  0  0  0
   25.2180   10.2467   21.7737 H   0  0  0  0  0  0  0  0  0  0  0  0
   30.9998   10.5157   21.8499 H   0  0  0  0  0  0  0  0  0  0  0  0
   27.0670    8.8242   21.5821 H   0  0  0  0  0  0  0  0  0  0  0  0
   28.1947   12.1616   19.0884 H   0  0  0  0  0  0  0  0  0  0  0  0
   30.4410   12.1064   20.0721 H   0  0  0  0  0  0  0  0  0  0  0  0
   30.3897    7.8525   24.2920 H   0  0  0  0  0  0  0  0  0  0  0  0
   30.4851    9.6095   24.1056 H   0  0  0  0  0  0  0  0  0  0  0  0
   31.2904    8.5082   22.9194 H   0  0  0  0  0  0  0  0  0  0  0  0
   22.9175    7.9918   24.5337 H   0  0  0  0  0  0  0  0  0  0  0  0
  1  2  2  0  0  0  0
  2  3  1  0  0  0  0
  2  6  1  0  0  0  0
  3  4  1  0  0  0  0
  3  9  1  6  0  0  0
  3 15  1  0  0  0  0
  4  5  1  0  0  0  0
  4 29  1  0  0  0  0
  5  6  1  0  0  0  0
  5  7  2  0  0  0  0
  6  8  1  0  0  0  0
  7 30  1  0  0  0  0
  7 50  1  0  0  0  0
  8 31  1  0  0  0  0
  8 32  1  0  0  0  0
  8 33  1  0  0  0  0
  9 10  2  0  0  0  0
  9 14  1  0  0  0  0
 10 11  1  0  0  0  0
 10 34  1  0  0  0  0
 11 12  2  0  0  0  0
 11 35  1  0  0  0  0
 12 13  1  0  0  0  0
 12 36  1  0  0  0  0
 13 14  2  0  0  0  0
 13 37  1  0  0  0  0
 14 38  1  0  0  0  0
 15 16  2  0  0  0  0
 15 20  1  0  0  0  0
 16 17  1  0  0  0  0
 16 39  1  0  0  0  0
 17 18  2  0  0  0  0
 17 40  1  0  0  0  0
 18 19  1  0  0  0  0
 18 41  1  0  0  0  0
 19 20  2  0  0  0  0
 19 23  1  0  0  0  0
 20 42  1  0  0  0  0
 21 25  2  0  0  0  0
 21 26  1  0  0  0  0
 21 43  1  0  0  0  0
 22 23  1  0  0  0  0
 22 26  2  0  0  0  0
 22 44  1  0  0  0  0
 23 24  2  0  0  0  0
 24 25  1  0  0  0  0
 24 45  1  0  0  0  0
 25 46  1  0  0  0  0
 26 27  1  0  0  0  0
 27 28  1  0  0  0  0
 28 47  1  0  0  0  0
 28 48  1  0  0  0  0
 28 49  1  0  0  0  0
M  END
$$$$
