0KP
 OpenBabel04111918343D

 45 48  0  0  1  0  0  0  0  0999 V2000
   22.5368   13.1027   22.3868 O   0  0  0  0  0  0  0  0  0  0  0  0
   22.5373   11.9019   22.5843 C   0  0  0  0  0  0  0  0  0  0  0  0
   22.3401   10.7129   21.5529 C   0  0  1  0  0  0  0  0  0  0  0  0
   22.5623    9.5544   22.4807 N   0  0  0  0  0  0  0  0  0  0  0  0
   22.7727    9.9769   23.7489 C   0  0  0  0  0  0  0  0  0  0  0  0
   22.7705   11.3058   23.8621 N   0  0  0  0  0  0  0  0  0  0  0  0
   22.9894    9.1298   24.7539 N   0  0  0  0  0  0  0  0  0  0  0  0
   23.0112   12.0960   25.0555 C   0  0  0  0  0  0  0  0  0  0  0  0
   20.9026   10.6383   21.0353 C   0  0  0  0  0  0  0  0  0  0  0  0
   20.2775    9.4040   20.7664 C   0  0  0  0  0  0  0  0  0  0  0  0
   18.9694    9.3490   20.2744 C   0  0  0  0  0  0  0  0  0  0  0  0
   18.2643   10.5218   20.0268 C   0  0  0  0  0  0  0  0  0  0  0  0
   18.8696   11.7518   20.2552 C   0  0  0  0  0  0  0  0  0  0  0  0
   20.1768   11.8110   20.7446 C   0  0  0  0  0  0  0  0  0  0  0  0
   23.4573   10.7007   20.5124 C   0  0  0  0  0  0  0  0  0  0  0  0
   23.1990   10.7736   19.1346 C   0  0  0  0  0  0  0  0  0  0  0  0
   24.2434   10.8369   18.2102 C   0  0  0  0  0  0  0  0  0  0  0  0
   25.5685   10.8370   18.6413 C   0  0  0  0  0  0  0  0  0  0  0  0
   25.8750   10.7597   20.0035 C   0  0  0  0  0  0  0  0  0  0  0  0
   24.8108   10.6769   20.9219 C   0  0  0  0  0  0  0  0  0  0  0  0
   29.8418   10.9013   21.4442 C   0  0  0  0  0  0  0  0  0  0  0  0
   29.0976    9.8082   21.7170 N   0  0  0  0  0  0  0  0  0  0  0  0
   27.8407    9.7882   21.2141 C   0  0  0  0  0  0  0  0  0  0  0  0
   27.2641   10.8180   20.4712 C   0  0  0  0  0  0  0  0  0  0  0  0
   28.0750   11.9310   20.2164 C   0  0  0  0  0  0  0  0  0  0  0  0
   29.3798   11.9760   20.7043 C   0  0  0  0  0  0  0  0  0  0  0  0
   22.6295    8.5907   22.1918 H   0  0  0  0  0  0  0  0  0  0  0  0
   23.1554    9.4684   25.6956 H   0  0  0  0  0  0  0  0  0  0  0  0
   22.9574   13.1659   24.8344 H   0  0  0  0  0  0  0  0  0  0  0  0
   24.0099   11.8721   25.4407 H   0  0  0  0  0  0  0  0  0  0  0  0
   22.2532   11.8577   25.8061 H   0  0  0  0  0  0  0  0  0  0  0  0
   20.7952    8.4596   20.9097 H   0  0  0  0  0  0  0  0  0  0  0  0
   18.4999    8.3885   20.0694 H   0  0  0  0  0  0  0  0  0  0  0  0
   17.2488   10.4788   19.6382 H   0  0  0  0  0  0  0  0  0  0  0  0
   18.3267   12.6704   20.0394 H   0  0  0  0  0  0  0  0  0  0  0  0
   20.6120   12.8024   20.8690 H   0  0  0  0  0  0  0  0  0  0  0  0
   22.1835   10.8042   18.7410 H   0  0  0  0  0  0  0  0  0  0  0  0
   24.0233   10.9068   17.1461 H   0  0  0  0  0  0  0  0  0  0  0  0
   26.3647   10.9047   17.9007 H   0  0  0  0  0  0  0  0  0  0  0  0
   25.0660   10.6403   21.9803 H   0  0  0  0  0  0  0  0  0  0  0  0
   30.8513   10.8916   21.8466 H   0  0  0  0  0  0  0  0  0  0  0  0
   27.2912    8.8766   21.4328 H   0  0  0  0  0  0  0  0  0  0  0  0
   27.6935   12.7744   19.6446 H   0  0  0  0  0  0  0  0  0  0  0  0
   30.0188   12.8319   20.5130 H   0  0  0  0  0  0  0  0  0  0  0  0
   22.9742    8.1257   24.6222 H   0  0  0  0  0  0  0  0  0  0  0  0
  1  2  2  0  0  0  0
  2  3  1  0  0  0  0
  2  6  1  0  0  0  0
  3  4  1  0  0  0  0
  3  9  1  6  0  0  0
  3 15  1  0  0  0  0
  4  5  1  0  0  0  0
  4 27  1  0  0  0  0
  5  6  1  0  0  0  0
  5  7  2  0  0  0  0
  6  8  1  0  0  0  0
  7 28  1  0  0  0  0
  7 45  1  0  0  0  0
  8 29  1  0  0  0  0
  8 30  1  0  0  0  0
  8 31  1  0  0  0  0
  9 10  2  0  0  0  0
  9 14  1  0  0  0  0
 10 11  1  0  0  0  0
 10 32  1  0  0  0  0
 11 12  2  0  0  0  0
 11 33  1  0  0  0  0
 12 13  1  0  0  0  0
 12 34  1  0  0  0  0
 13 14  2  0  0  0  0
 13 35  1  0  0  0  0
 14 36  1  0  0  0  0
 15 16  2  0  0  0  0
 15 20  1  0  0  0  0
 16 17  1  0  0  0  0
 16 37  1  0  0  0  0
 17 18  2  0  0  0  0
 17 38  1  0  0  0  0
 18 19  1  0  0  0  0
 18 39  1  0  0  0  0
 19 20  2  0  0  0  0
 19 24  1  0  0  0  0
 20 40  1  0  0  0  0
 21 22  2  0  0  0  0
 21 26  1  0  0  0  0
 21 41  1  0  0  0  0
 22 23  1  0  0  0  0
 23 24  2  0  0  0  0
 23 42  1  0  0  0  0
 24 25  1  0  0  0  0
 25 26  2  0  0  0  0
 25 43  1  0  0  0  0
 26 44  1  0  0  0  0
M  END
$$$$
