0KR
 OpenBabel04111918353D

 47 50  0  0  1  0  0  0  0  0999 V2000
   22.3861   10.6541   21.7826 C   0  0  2  0  0  0  0  0  0  0  0  0
   22.6649    9.4526   22.6398 N   0  0  0  0  0  0  0  0  0  0  0  0
   22.8733    9.8900   23.9228 C   0  0  0  0  0  0  0  0  0  0  0  0
   22.8856   11.2238   24.0419 N   0  0  0  0  0  0  0  0  0  0  0  0
   22.6135   11.8326   22.7822 C   0  0  0  0  0  0  0  0  0  0  0  0
   20.9321   10.7164   21.3419 C   0  0  0  0  0  0  0  0  0  0  0  0
   22.5635   13.0230   22.5680 O   0  0  0  0  0  0  0  0  0  0  0  0
   23.4095   10.7695   20.6718 C   0  0  0  0  0  0  0  0  0  0  0  0
   24.7886   10.7489   20.9571 C   0  0  0  0  0  0  0  0  0  0  0  0
   25.7602   10.9369   19.9590 C   0  0  0  0  0  0  0  0  0  0  0  0
   25.3152   11.1147   18.6425 C   0  0  0  0  0  0  0  0  0  0  0  0
   23.9579   11.1524   18.3365 C   0  0  0  0  0  0  0  0  0  0  0  0
   23.0193   10.9877   19.3479 C   0  0  0  0  0  0  0  0  0  0  0  0
   23.0559    9.0740   24.9602 N   0  0  0  0  0  0  0  0  0  0  0  0
   23.1433   12.0413   25.2268 C   0  0  0  0  0  0  0  0  0  0  0  0
   19.7871   10.2280   22.2204 C   0  0  0  0  0  0  0  0  0  0  0  0
   20.1567    9.4756   20.9630 C   0  0  0  0  0  0  0  0  0  0  0  0
   27.1857   10.9915   20.3037 C   0  0  0  0  0  0  0  0  0  0  0  0
   27.7312   10.1933   21.3137 C   0  0  0  0  0  0  0  0  0  0  0  0
   29.0738   10.2977   21.6499 C   0  0  0  0  0  0  0  0  0  0  0  0
   29.8511   11.2174   20.9574 C   0  0  0  0  0  0  0  0  0  0  0  0
   28.0610   11.8740   19.6684 C   0  0  0  0  0  0  0  0  0  0  0  0
   29.6425    9.4948   22.6726 C   0  0  0  0  0  0  0  0  0  0  0  0
   29.3767   12.0108   19.9674 N   0  0  0  0  0  0  0  0  0  0  0  0
   30.1803    8.8361   23.5432 C   0  0  0  0  0  0  0  0  0  0  0  0
   30.8643    8.0793   24.5772 C   0  0  0  0  0  0  0  0  0  0  0  0
   22.7311    8.4833   22.3279 H   0  0  0  0  0  0  0  0  0  0  0  0
   20.7462   11.6359   20.7718 H   0  0  0  0  0  0  0  0  0  0  0  0
   25.1173   10.6040   21.9858 H   0  0  0  0  0  0  0  0  0  0  0  0
   26.0346   11.2315   17.8339 H   0  0  0  0  0  0  0  0  0  0  0  0
   23.6334   11.3132   17.3113 H   0  0  0  0  0  0  0  0  0  0  0  0
   21.9666   11.0283   19.0882 H   0  0  0  0  0  0  0  0  0  0  0  0
   23.2366    9.4707   25.8722 H   0  0  0  0  0  0  0  0  0  0  0  0
   23.3434   11.3854   26.0741 H   0  0  0  0  0  0  0  0  0  0  0  0
   22.2695   12.6615   25.4564 H   0  0  0  0  0  0  0  0  0  0  0  0
   24.0158   12.6883   25.0691 H   0  0  0  0  0  0  0  0  0  0  0  0
   18.8466   10.7829   22.2482 H   0  0  0  0  0  0  0  0  0  0  0  0
   20.0043    9.7908   23.1896 H   0  0  0  0  0  0  0  0  0  0  0  0
   20.6456    8.5104   21.0409 H   0  0  0  0  0  0  0  0  0  0  0  0
   19.4838    9.5054   20.1064 H   0  0  0  0  0  0  0  0  0  0  0  0
   27.1026    9.4793   21.8355 H   0  0  0  0  0  0  0  0  0  0  0  0
   30.9057   11.3319   21.1976 H   0  0  0  0  0  0  0  0  0  0  0  0
   27.6901   12.5212   18.8757 H   0  0  0  0  0  0  0  0  0  0  0  0
   30.2348    7.2470   24.9070 H   0  0  0  0  0  0  0  0  0  0  0  0
   31.0771    8.7280   25.4341 H   0  0  0  0  0  0  0  0  0  0  0  0
   31.8080    7.6823   24.1882 H   0  0  0  0  0  0  0  0  0  0  0  0
   23.0273    8.0643   24.8844 H   0  0  0  0  0  0  0  0  0  0  0  0
  1  2  1  0  0  0  0
  1  5  1  0  0  0  0
  1  6  1  6  0  0  0
  1  8  1  0  0  0  0
  2  3  1  0  0  0  0
  2 27  1  0  0  0  0
  3  4  1  0  0  0  0
  3 14  2  0  0  0  0
  4  5  1  0  0  0  0
  4 15  1  0  0  0  0
  5  7  2  0  0  0  0
  6 16  1  0  0  0  0
  6 17  1  0  0  0  0
  6 28  1  0  0  0  0
  8  9  2  0  0  0  0
  8 13  1  0  0  0  0
  9 10  1  0  0  0  0
  9 29  1  0  0  0  0
 10 11  2  0  0  0  0
 10 18  1  0  0  0  0
 11 12  1  0  0  0  0
 11 30  1  0  0  0  0
 12 13  2  0  0  0  0
 12 31  1  0  0  0  0
 13 32  1  0  0  0  0
 14 33  1  0  0  0  0
 14 47  1  0  0  0  0
 15 34  1  0  0  0  0
 15 35  1  0  0  0  0
 15 36  1  0  0  0  0
 16 17  1  0  0  0  0
 16 37  1  0  0  0  0
 16 38  1  0  0  0  0
 17 39  1  0  0  0  0
 17 40  1  0  0  0  0
 18 19  2  0  0  0  0
 18 22  1  0  0  0  0
 19 20  1  0  0  0  0
 19 41  1  0  0  0  0
 20 21  2  0  0  0  0
 20 23  1  0  0  0  0
 21 24  1  0  0  0  0
 21 42  1  0  0  0  0
 22 24  2  0  0  0  0
 22 43  1  0  0  0  0
 23 25  3  0  0  0  0
 25 26  1  0  0  0  0
 26 44  1  0  0  0  0
 26 45  1  0  0  0  0
 26 46  1  0  0  0  0
M  END
$$$$
