0LI
 OpenBabel04111922153D

 68 72  0  0  0  0  0  0  0  0999 V2000
   87.5370   -1.0236    9.4004 N   0  3  0  0  0  0  0  0  0  0  0  0
   86.1576    0.6933   25.2077 N   0  0  0  0  0  0  0  0  0  0  0  0
   88.6165    1.5837   13.2754 C   0  0  0  0  0  0  0  0  0  0  0  0
   89.0799    2.0257   14.5623 C   0  0  0  0  0  0  0  0  0  0  0  0
   90.1820    2.8588   14.6918 C   0  0  0  0  0  0  0  0  0  0  0  0
   90.6241    3.2382   15.9612 C   0  0  0  0  0  0  0  0  0  0  0  0
   89.9743    2.7755   17.0920 C   0  0  0  0  0  0  0  0  0  0  0  0
   88.4323    1.5665   15.6884 C   0  0  0  0  0  0  0  0  0  0  0  0
   88.1403    1.2111   20.5461 C   0  0  0  0  0  0  0  0  0  0  0  0
   87.7286    1.4752   22.8974 C   0  0  0  0  0  0  0  0  0  0  0  0
   87.1137   -0.5806   21.8037 C   0  0  0  0  0  0  0  0  0  0  0  0
   86.6619   -0.3323   24.2959 C   0  0  0  0  0  0  0  0  0  0  0  0
   84.8315    1.2082   24.8298 C   0  0  0  0  0  0  0  0  0  0  0  0
   84.6192    2.4919   25.6291 C   0  0  0  0  0  0  0  0  0  0  0  0
   86.2003    0.2753   26.6228 C   0  0  0  0  0  0  0  0  0  0  0  0
   85.7990    0.2471    8.0746 C   0  0  0  0  0  0  0  0  0  0  0  0
   85.1208    1.3899    8.0793 C   0  0  0  0  0  0  0  0  0  0  0  0
   85.3967    2.3136    9.2071 C   0  0  0  0  0  0  0  0  0  0  0  0
   86.2189    2.1540   10.2013 N   0  0  0  0  0  0  0  0  0  0  0  0
   86.8881    0.9276   10.1121 N   0  3  0  0  0  0  0  0  0  0  0  0
   86.7344    0.0119    9.1563 C   0  0  0  0  0  0  0  0  0  0  0  0
   88.2110   -0.7391   10.5661 C   0  0  0  0  0  0  0  0  0  0  0  0
   87.8054    0.4859   11.0054 C   0  0  0  0  0  0  0  0  0  0  0  0
   88.2599    1.1513   12.2481 C   0  0  0  0  0  0  0  0  0  0  0  0
   88.8748    1.9397   16.9549 C   0  0  0  0  0  0  0  0  0  0  0  0
   90.9099    3.3475   13.4882 C   0  0  0  0  0  0  0  0  0  0  0  0
   88.1517    1.3978   18.1155 C   0  0  0  0  0  0  0  0  0  0  0  0
   87.1767    0.6869   17.9079 O   0  0  0  0  0  0  0  0  0  0  0  0
   88.6361    1.7441   19.3563 N   0  0  0  0  0  0  0  0  0  0  0  0
   88.2138    1.9740   21.6974 C   0  0  0  0  0  0  0  0  0  0  0  0
   87.1660    0.2026   22.9720 C   0  0  0  0  0  0  0  0  0  0  0  0
   87.5977   -0.0612   20.6043 C   0  0  0  0  0  0  0  0  0  0  0  0
   86.5524   -1.9726   21.8212 C   0  0  0  0  0  0  0  0  0  0  0  0
   87.2009   -2.7392   22.7379 F   0  0  0  0  0  0  0  0  0  0  0  0
   85.2310   -1.9998   22.1477 F   0  0  0  0  0  0  0  0  0  0  0  0
   86.6460   -2.6374   20.6449 F   0  0  0  0  0  0  0  0  0  0  0  0
   85.8386    1.4346   27.5712 C   0  0  0  0  0  0  0  0  0  0  0  0
   84.0781    3.1822   27.9602 C   0  0  0  0  0  0  0  0  0  0  0  0
   84.5563    2.0884   27.0911 N   0  3  0  0  0  0  0  0  0  0  0  0
   91.4798    3.8964   16.0629 H   0  0  0  0  0  0  0  0  0  0  0  0
   90.3356    3.0751   18.0614 H   0  0  0  0  0  0  0  0  0  0  0  0
   87.5765    0.9076   15.5928 H   0  0  0  0  0  0  0  0  0  0  0  0
   87.7781    2.0821   23.7916 H   0  0  0  0  0  0  0  0  0  0  0  0
   85.8702   -1.0470   24.0862 H   0  0  0  0  0  0  0  0  0  0  0  0
   87.5088   -0.8434   24.7640 H   0  0  0  0  0  0  0  0  0  0  0  0
   84.0336    0.4893   25.0723 H   0  0  0  0  0  0  0  0  0  0  0  0
   84.7773    1.4482   23.7646 H   0  0  0  0  0  0  0  0  0  0  0  0
   83.6757    2.9768   25.3655 H   0  0  0  0  0  0  0  0  0  0  0  0
   85.4541    3.1859   25.4859 H   0  0  0  0  0  0  0  0  0  0  0  0
   87.2129   -0.0519   26.8887 H   0  0  0  0  0  0  0  0  0  0  0  0
   85.5011   -0.5507   26.8050 H   0  0  0  0  0  0  0  0  0  0  0  0
   85.6910   -0.4998    7.3214 H   0  0  0  0  0  0  0  0  0  0  0  0
   84.4145    1.6239    7.3053 H   0  0  0  0  0  0  0  0  0  0  0  0
   84.8299    3.2567    9.1996 H   0  0  0  0  0  0  0  0  0  0  0  0
   88.9194   -1.4080   11.0095 H   0  0  0  0  0  0  0  0  0  0  0  0
   90.4324    2.9561   12.5886 H   0  0  0  0  0  0  0  0  0  0  0  0
   91.9416    2.9967   13.5209 H   0  0  0  0  0  0  0  0  0  0  0  0
   90.8755    4.4360   13.4612 H   0  0  0  0  0  0  0  0  0  0  0  0
   89.3630    2.4326   19.4337 H   0  0  0  0  0  0  0  0  0  0  0  0
   88.6188    2.9745   21.6669 H   0  0  0  0  0  0  0  0  0  0  0  0
   87.5569   -0.6810   19.7139 H   0  0  0  0  0  0  0  0  0  0  0  0
   86.6276    2.1896   27.5775 H   0  0  0  0  0  0  0  0  0  0  0  0
   85.6611    1.0629   28.5872 H   0  0  0  0  0  0  0  0  0  0  0  0
   83.1594    3.5768   27.5223 H   0  0  0  0  0  0  0  0  0  0  0  0
   84.8469    3.9496   28.0076 H   0  0  0  0  0  0  0  0  0  0  0  0
   83.8760    2.7636   28.9461 H   0  0  0  0  0  0  0  0  0  0  0  0
   87.6211   -1.8589    8.8209 H   0  0  0  0  0  0  0  0  0  0  0  0
   83.8566    1.3420   27.1271 H   0  0  0  0  0  0  0  0  0  0  0  0
  1 21  1  0  0  0  0
  1 22  2  0  0  0  0
  1 67  1  0  0  0  0
  2 12  1  0  0  0  0
  2 13  1  0  0  0  0
  2 15  1  0  0  0  0
  3  4  1  0  0  0  0
  3 24  3  0  0  0  0
  4  5  2  0  0  0  0
  4  8  1  0  0  0  0
  5  6  1  0  0  0  0
  5 26  1  0  0  0  0
  6  7  2  0  0  0  0
  6 40  1  0  0  0  0
  7 25  1  0  0  0  0
  7 41  1  0  0  0  0
  8 25  2  0  0  0  0
  8 42  1  0  0  0  0
  9 29  1  0  0  0  0
  9 30  2  0  0  0  0
  9 32  1  0  0  0  0
 10 30  1  0  0  0  0
 10 31  2  0  0  0  0
 10 43  1  0  0  0  0
 11 31  1  0  0  0  0
 11 32  2  0  0  0  0
 11 33  1  0  0  0  0
 12 31  1  0  0  0  0
 12 44  1  0  0  0  0
 12 45  1  0  0  0  0
 13 14  1  0  0  0  0
 13 46  1  0  0  0  0
 13 47  1  0  0  0  0
 14 39  1  0  0  0  0
 14 48  1  0  0  0  0
 14 49  1  0  0  0  0
 15 37  1  0  0  0  0
 15 50  1  0  0  0  0
 15 51  1  0  0  0  0
 16 17  1  0  0  0  0
 16 21  2  0  0  0  0
 16 52  1  0  0  0  0
 17 18  2  0  0  0  0
 17 53  1  0  0  0  0
 18 19  1  0  0  0  0
 18 54  1  0  0  0  0
 19 20  1  0  0  0  0
 20 21  1  0  0  0  0
 20 23  2  0  0  0  0
 22 23  1  0  0  0  0
 22 55  1  0  0  0  0
 23 24  1  0  0  0  0
 25 27  1  0  0  0  0
 26 56  1  0  0  0  0
 26 57  1  0  0  0  0
 26 58  1  0  0  0  0
 27 28  2  0  0  0  0
 27 29  1  0  0  0  0
 29 59  1  0  0  0  0
 30 60  1  0  0  0  0
 32 61  1  0  0  0  0
 33 34  1  0  0  0  0
 33 35  1  0  0  0  0
 33 36  1  0  0  0  0
 37 39  1  0  0  0  0
 37 62  1  0  0  0  0
 37 63  1  0  0  0  0
 38 39  1  0  0  0  0
 38 64  1  0  0  0  0
 38 65  1  0  0  0  0
 38 66  1  0  0  0  0
 39 68  1  0  0  0  0
M  CHG  3   1   1  20   1  39   1
M  END
$$$$
