0LJ
 OpenBabel04111918363D

 45 47  0  0  1  0  0  0  0  0999 V2000
   27.4819  -15.1981   38.5367 C   0  0  0  0  0  0  0  0  0  0  0  0
   29.0362  -15.2367   35.0446 C   0  0  1  0  0  0  0  0  0  0  0  0
   29.0503  -15.4118   32.5927 C   0  0  0  0  0  0  0  0  0  0  0  0
   29.6457  -12.9193   32.2352 C   0  0  0  0  0  0  0  0  0  0  0  0
   29.9228  -11.7009   32.8612 C   0  0  0  0  0  0  0  0  0  0  0  0
   29.6468  -12.7169   35.0503 C   0  0  0  0  0  0  0  0  0  0  0  0
   27.1086  -15.4003   43.4509 C   0  0  0  0  0  0  0  0  0  0  0  0
   25.7599  -15.0533   43.4386 C   0  0  0  0  0  0  0  0  0  0  0  0
   25.1198  -14.8514   42.2226 C   0  0  0  0  0  0  0  0  0  0  0  0
   25.8207  -14.9961   41.0154 C   0  0  0  0  0  0  0  0  0  0  0  0
   27.1814  -15.3344   40.9925 C   0  0  0  0  0  0  0  0  0  0  0  0
   27.8058  -15.5488   42.2380 C   0  0  0  0  0  0  0  0  0  0  0  0
   24.9014  -14.8699   44.9185 Cl  0  0  0  0  0  0  0  0  0  0  0  0
   23.8224  -14.5268   42.1796 F   0  0  0  0  0  0  0  0  0  0  0  0
   27.9246  -15.4983   39.8194 N   0  0  0  0  0  0  0  0  0  0  0  0
   26.3779  -14.7867   38.1796 O   0  0  0  0  0  0  0  0  0  0  0  0
   28.5160  -15.4227   37.4225 C   0  0  0  0  0  0  0  0  0  0  0  0
   28.0979  -15.1628   36.1404 N   0  0  0  0  0  0  0  0  0  0  0  0
   29.6330  -15.8486   37.7134 O   0  0  0  0  0  0  0  0  0  0  0  0
   28.4020  -15.9856   33.8558 C   0  0  1  0  0  0  0  0  0  0  0  0
   29.3610  -14.0184   33.0263 C   0  0  0  0  0  0  0  0  0  0  0  0
   29.3561  -13.9164   34.4239 C   0  0  0  0  0  0  0  0  0  0  0  0
   28.6098  -17.4393   33.9419 N   0  0  0  0  0  0  0  0  0  0  0  0
   29.9232  -11.6006   34.2601 C   0  0  0  0  0  0  0  0  0  0  0  0
   27.7514  -18.3269   33.4292 C   0  0  0  0  0  0  0  0  0  0  0  0
   26.6432  -17.9357   32.8006 N   0  0  0  0  0  0  0  0  0  0  0  0
   28.0058  -19.6272   33.5277 N   0  0  0  0  0  0  0  0  0  0  0  0
   29.9559  -15.7605   35.3414 H   0  0  0  0  0  0  0  0  0  0  0  0
   28.3486  -15.4605   31.7564 H   0  0  0  0  0  0  0  0  0  0  0  0
   29.9621  -15.9722   32.3615 H   0  0  0  0  0  0  0  0  0  0  0  0
   29.6489  -12.9860   31.1517 H   0  0  0  0  0  0  0  0  0  0  0  0
   30.1425  -10.8201   32.2605 H   0  0  0  0  0  0  0  0  0  0  0  0
   29.6524  -12.6325   36.1346 H   0  0  0  0  0  0  0  0  0  0  0  0
   27.6224  -15.5491   44.4005 H   0  0  0  0  0  0  0  0  0  0  0  0
   25.2501  -14.8317   40.1078 H   0  0  0  0  0  0  0  0  0  0  0  0
   28.8648  -15.8091   42.2898 H   0  0  0  0  0  0  0  0  0  0  0  0
   28.8866  -15.8217   39.9033 H   0  0  0  0  0  0  0  0  0  0  0  0
   27.1795  -14.7471   35.9789 H   0  0  0  0  0  0  0  0  0  0  0  0
   27.3228  -15.7745   33.8620 H   0  0  0  0  0  0  0  0  0  0  0  0
   29.4427  -17.7758   34.4156 H   0  0  0  0  0  0  0  0  0  0  0  0
   30.1428  -10.6449   34.7318 H   0  0  0  0  0  0  0  0  0  0  0  0
   25.9879  -18.6019   32.4127 H   0  0  0  0  0  0  0  0  0  0  0  0
   28.8417  -19.9759   33.9804 H   0  0  0  0  0  0  0  0  0  0  0  0
   27.3710  -20.3112   33.1375 H   0  0  0  0  0  0  0  0  0  0  0  0
   26.4032  -16.9618   32.6843 H   0  0  0  0  0  0  0  0  0  0  0  0
  1 15  1  0  0  0  0
  1 16  2  0  0  0  0
  1 17  1  0  0  0  0
  2 18  1  0  0  0  0
  2 20  1  0  0  0  0
  2 22  1  0  0  0  0
  2 28  1  1  0  0  0
  3 20  1  0  0  0  0
  3 21  1  0  0  0  0
  3 29  1  0  0  0  0
  3 30  1  0  0  0  0
  4  5  2  0  0  0  0
  4 21  1  0  0  0  0
  4 31  1  0  0  0  0
  5 24  1  0  0  0  0
  5 32  1  0  0  0  0
  6 22  1  0  0  0  0
  6 24  2  0  0  0  0
  6 33  1  0  0  0  0
  7  8  2  0  0  0  0
  7 12  1  0  0  0  0
  7 34  1  0  0  0  0
  8  9  1  0  0  0  0
  8 13  1  0  0  0  0
  9 10  2  0  0  0  0
  9 14  1  0  0  0  0
 10 11  1  0  0  0  0
 10 35  1  0  0  0  0
 11 12  2  0  0  0  0
 11 15  1  0  0  0  0
 12 36  1  0  0  0  0
 15 37  1  0  0  0  0
 17 18  1  0  0  0  0
 17 19  2  0  0  0  0
 18 38  1  0  0  0  0
 20 23  1  0  0  0  0
 20 39  1  6  0  0  0
 21 22  2  0  0  0  0
 23 25  1  0  0  0  0
 23 40  1  0  0  0  0
 24 41  1  0  0  0  0
 25 26  2  0  0  0  0
 25 27  1  0  0  0  0
 26 42  1  0  0  0  0
 26 45  1  0  0  0  0
 27 43  1  0  0  0  0
 27 44  1  0  0  0  0
M  END
$$$$
