0LL
 OpenBabel04111918353D

 40 42  0  0  1  0  0  0  0  0999 V2000
   27.1417  -14.8780   39.0117 C   0  0  0  0  0  0  0  0  0  0  0  0
   26.8622  -15.0072   41.5129 C   0  0  0  0  0  0  0  0  0  0  0  0
   25.4464  -14.5539   43.9450 C   0  0  0  0  0  0  0  0  0  0  0  0
   24.7854  -14.5860   42.7260 C   0  0  0  0  0  0  0  0  0  0  0  0
   25.4798  -14.8003   41.5259 C   0  0  0  0  0  0  0  0  0  0  0  0
   25.9184  -14.3376   32.0677 C   0  0  0  0  0  0  0  0  0  0  0  0
   26.4945  -14.9690   33.1913 C   0  0  0  0  0  0  0  0  0  0  0  0
   27.4508  -14.3122   33.9562 C   0  0  0  0  0  0  0  0  0  0  0  0
   27.8512  -13.0278   33.5647 C   0  0  0  0  0  0  0  0  0  0  0  0
   27.2805  -12.3816   32.4618 C   0  0  0  0  0  0  0  0  0  0  0  0
   26.3092  -13.0429   31.7037 C   0  0  0  0  0  0  0  0  0  0  0  0
   28.2084  -14.7927   35.1927 C   0  0  1  0  0  0  0  0  0  0  0  0
   29.3740  -13.7708   35.2356 C   0  0  2  0  0  0  0  0  0  0  0  0
   28.8987  -12.5013   34.4954 C   0  0  0  0  0  0  0  0  0  0  0  0
   30.5850  -14.3430   34.5765 N   0  3  0  0  0  0  0  0  0  0  0  0
   27.4924  -14.7132   36.4793 N   0  0  0  0  0  0  0  0  0  0  0  0
   28.0526  -15.0988   37.7299 C   0  0  0  0  0  0  0  0  0  0  0  0
   27.6026  -15.2224   40.2912 N   0  0  0  0  0  0  0  0  0  0  0  0
   26.0618  -14.3539   38.7743 O   0  0  0  0  0  0  0  0  0  0  0  0
   29.1624  -15.5539   37.8178 O   0  0  0  0  0  0  0  0  0  0  0  0
   27.5178  -14.9906   42.7605 C   0  0  0  0  0  0  0  0  0  0  0  0
   26.8207  -14.7503   43.9694 C   0  0  0  0  0  0  0  0  0  0  0  0
   24.5595  -14.2653   45.3911 Cl  0  0  0  0  0  0  0  0  0  0  0  0
   23.4570  -14.4027   42.6912 F   0  0  0  0  0  0  0  0  0  0  0  0
   24.9065  -14.8085   40.6120 H   0  0  0  0  0  0  0  0  0  0  0  0
   25.1574  -14.8553   31.4779 H   0  0  0  0  0  0  0  0  0  0  0  0
   26.1672  -15.9722   33.4451 H   0  0  0  0  0  0  0  0  0  0  0  0
   27.5815  -11.3751   32.1761 H   0  0  0  0  0  0  0  0  0  0  0  0
   25.8506  -12.5641   30.8344 H   0  0  0  0  0  0  0  0  0  0  0  0
   28.5520  -15.8301   35.0394 H   0  0  0  0  0  0  0  0  0  0  0  0
   29.6897  -13.5355   36.2575 H   0  0  0  0  0  0  0  0  0  0  0  0
   28.4518  -11.8052   35.2111 H   0  0  0  0  0  0  0  0  0  0  0  0
   29.7035  -12.0110   33.9448 H   0  0  0  0  0  0  0  0  0  0  0  0
   31.3777  -13.6858   34.6140 H   0  0  0  0  0  0  0  0  0  0  0  0
   30.8760  -15.2149   35.0492 H   0  0  0  0  0  0  0  0  0  0  0  0
   26.5565  -14.3265   36.4731 H   0  0  0  0  0  0  0  0  0  0  0  0
   28.5190  -15.6482   40.3826 H   0  0  0  0  0  0  0  0  0  0  0  0
   28.5974  -15.1106   42.8327 H   0  0  0  0  0  0  0  0  0  0  0  0
   27.3506  -14.7240   44.9217 H   0  0  0  0  0  0  0  0  0  0  0  0
   30.3871  -14.5607   33.5887 H   0  0  0  0  0  0  0  0  0  0  0  0
  1 17  1  0  0  0  0
  1 18  1  0  0  0  0
  1 19  2  0  0  0  0
  2  5  2  0  0  0  0
  2 18  1  0  0  0  0
  2 21  1  0  0  0  0
  3  4  2  0  0  0  0
  3 22  1  0  0  0  0
  3 23  1  0  0  0  0
  4  5  1  0  0  0  0
  4 24  1  0  0  0  0
  5 25  1  0  0  0  0
  6  7  2  0  0  0  0
  6 11  1  0  0  0  0
  6 26  1  0  0  0  0
  7  8  1  0  0  0  0
  7 27  1  0  0  0  0
  8  9  2  0  0  0  0
  8 12  1  0  0  0  0
  9 10  1  0  0  0  0
  9 14  1  0  0  0  0
 10 11  2  0  0  0  0
 10 28  1  0  0  0  0
 11 29  1  0  0  0  0
 12 13  1  0  0  0  0
 12 16  1  0  0  0  0
 12 30  1  6  0  0  0
 13 14  1  0  0  0  0
 13 15  1  0  0  0  0
 13 31  1  1  0  0  0
 14 32  1  0  0  0  0
 14 33  1  0  0  0  0
 15 34  1  0  0  0  0
 15 35  1  0  0  0  0
 15 40  1  0  0  0  0
 16 17  1  0  0  0  0
 16 36  1  0  0  0  0
 17 20  2  0  0  0  0
 18 37  1  0  0  0  0
 21 22  2  0  0  0  0
 21 38  1  0  0  0  0
 22 39  1  0  0  0  0
M  CHG  1  15   1
M  END
$$$$
