0LO
 OpenBabel04111918383D

 23 24  0  0  0  0  0  0  0  0999 V2000
  -73.9056   35.1451  -44.9342 C   0  0  0  0  0  0  0  0  0  0  0  0
  -74.1970   35.2795  -46.2902 C   0  0  0  0  0  0  0  0  0  0  0  0
  -73.3578   34.6900  -47.2261 C   0  0  0  0  0  0  0  0  0  0  0  0
  -72.2428   33.9799  -46.8229 C   0  0  0  0  0  0  0  0  0  0  0  0
  -71.9545   33.8543  -45.4616 C   0  0  0  0  0  0  0  0  0  0  0  0
  -72.7809   34.4322  -44.4865 C   0  0  0  0  0  0  0  0  0  0  0  0
  -72.4966   34.3005  -43.0481 C   0  0  0  0  0  0  0  0  0  0  0  0
  -71.5057   33.4564  -42.5313 C   0  0  0  0  0  0  0  0  0  0  0  0
  -73.2204   35.0166  -42.0970 C   0  0  0  0  0  0  0  0  0  0  0  0
  -73.0353   34.9614  -40.7597 N   0  0  0  0  0  0  0  0  0  0  0  0
  -72.0653   34.1168  -40.3247 C   0  0  0  0  0  0  0  0  0  0  0  0
  -71.2820   33.3355  -41.1571 C   0  0  0  0  0  0  0  0  0  0  0  0
  -70.1998   32.4719  -40.6070 C   0  0  0  0  0  0  0  0  0  0  0  0
  -70.5153   31.5874  -39.7521 O   0  0  0  0  0  0  0  0  0  0  0  0
  -69.0390   32.7048  -41.0677 O   0  0  0  0  0  0  0  0  0  0  0  0
  -74.5887   35.6100  -44.2318 H   0  0  0  0  0  0  0  0  0  0  0  0
  -75.0685   35.8331  -46.5960 H   0  0  0  0  0  0  0  0  0  0  0  0
  -73.5918   34.7944  -48.3004 H   0  0  0  0  0  0  0  0  0  0  0  0
  -71.5825   33.5159  -47.5516 H   0  0  0  0  0  0  0  0  0  0  0  0
  -71.0684   33.2983  -45.1710 H   0  0  0  0  0  0  0  0  0  0  0  0
  -70.8734   32.8651  -43.1924 H   0  0  0  0  0  0  0  0  0  0  0  0
  -74.0118   35.6967  -42.3963 H   0  0  0  0  0  0  0  0  0  0  0  0
  -71.9032   34.0919  -39.2538 H   0  0  0  0  0  0  0  0  0  0  0  0
  1  2  2  0  0  0  0
  1  6  1  0  0  0  0
  1 16  1  0  0  0  0
  2  3  1  0  0  0  0
  2 17  1  0  0  0  0
  3  4  2  0  0  0  0
  3 18  1  0  0  0  0
  4  5  1  0  0  0  0
  4 19  1  0  0  0  0
  5  6  2  0  0  0  0
  5 20  1  0  0  0  0
  6  7  1  0  0  0  0
  7  8  2  0  0  0  0
  7  9  1  0  0  0  0
  8 12  1  0  0  0  0
  8 21  1  0  0  0  0
  9 10  2  0  0  0  0
  9 22  1  0  0  0  0
 10 11  1  0  0  0  0
 11 12  2  0  0  0  0
 11 23  1  0  0  0  0
 12 13  1  0  0  0  0
 13 14  2  0  0  0  0
 13 15  1  0  0  0  0
M  END
$$$$
