0NH
 OpenBabel04111918413D

 42 45  0  0  0  0  0  0  0  0999 V2000
  -14.7349   29.4476   -2.9694 C   0  0  0  0  0  0  0  0  0  0  0  0
  -14.4357   29.8130   -1.4968 C   0  0  0  0  0  0  0  0  0  0  0  0
  -13.3429   30.9277   -1.5177 C   0  0  0  0  0  0  0  0  0  0  0  0
  -13.7925   32.2628   -2.1025 C   0  0  0  0  0  0  0  0  0  0  0  0
  -15.0543   32.7135   -1.4894 N   0  0  0  0  0  0  0  0  0  0  0  0
  -16.1421   31.7250   -1.3801 C   0  0  0  0  0  0  0  0  0  0  0  0
  -15.6309   30.4361   -0.7401 C   0  0  0  0  0  0  0  0  0  0  0  0
  -15.4745   34.3462   -1.6647 S   0  0  0  0  0  0  0  0  0  0  0  0
  -16.5665   34.6183   -0.7574 O   0  0  0  0  0  0  0  0  0  0  0  0
  -14.2597   35.1255   -1.6216 O   0  0  0  0  0  0  0  0  0  0  0  0
  -16.1225   34.4522   -3.3258 C   0  0  0  0  0  0  0  0  0  0  0  0
  -13.9549   28.5991   -0.7847 N   0  3  0  0  0  0  0  0  0  0  0  0
  -12.6817   28.4839   -0.2391 C   0  0  0  0  0  0  0  0  0  0  0  0
  -12.4454   27.3051    0.2834 N   0  0  0  0  0  0  0  0  0  0  0  0
  -13.5949   26.6062    0.0880 C   0  0  0  0  0  0  0  0  0  0  0  0
  -14.5386   27.3907   -0.5596 C   0  0  0  0  0  0  0  0  0  0  0  0
  -15.7615   26.8363   -0.8417 C   0  0  0  0  0  0  0  0  0  0  0  0
  -16.9349   27.3323   -1.4671 C   0  0  0  0  0  0  0  0  0  0  0  0
  -17.8427   26.2873   -1.4697 C   0  0  0  0  0  0  0  0  0  0  0  0
  -17.2514   25.1996   -0.8704 N   0  3  0  0  0  0  0  0  0  0  0  0
  -15.9866   25.5288   -0.4757 C   0  0  0  0  0  0  0  0  0  0  0  0
  -15.1191   24.7144    0.1466 N   0  0  0  0  0  0  0  0  0  0  0  0
  -13.9141   25.2772    0.4311 C   0  0  0  0  0  0  0  0  0  0  0  0
  -15.1185   30.2945   -3.5445 H   0  0  0  0  0  0  0  0  0  0  0  0
  -15.4631   28.6473   -3.0806 H   0  0  0  0  0  0  0  0  0  0  0  0
  -13.8263   29.0945   -3.4715 H   0  0  0  0  0  0  0  0  0  0  0  0
  -12.4590   30.5867   -2.0733 H   0  0  0  0  0  0  0  0  0  0  0  0
  -13.0119   31.1296   -0.4890 H   0  0  0  0  0  0  0  0  0  0  0  0
  -13.8723   32.2148   -3.1918 H   0  0  0  0  0  0  0  0  0  0  0  0
  -12.9994   32.9798   -1.8594 H   0  0  0  0  0  0  0  0  0  0  0  0
  -16.5914   31.5275   -2.3587 H   0  0  0  0  0  0  0  0  0  0  0  0
  -16.9330   32.1159   -0.7313 H   0  0  0  0  0  0  0  0  0  0  0  0
  -15.3272   30.6508    0.2951 H   0  0  0  0  0  0  0  0  0  0  0  0
  -16.4699   29.7500   -0.6422 H   0  0  0  0  0  0  0  0  0  0  0  0
  -16.4069   35.4962   -3.4911 H   0  0  0  0  0  0  0  0  0  0  0  0
  -17.0076   33.8215   -3.4187 H   0  0  0  0  0  0  0  0  0  0  0  0
  -15.3526   34.1721   -4.0459 H   0  0  0  0  0  0  0  0  0  0  0  0
  -11.9458   29.2761   -0.2519 H   0  0  0  0  0  0  0  0  0  0  0  0
  -17.1610   28.2990   -1.8882 H   0  0  0  0  0  0  0  0  0  0  0  0
  -18.8542   26.2213   -1.8491 H   0  0  0  0  0  0  0  0  0  0  0  0
  -17.6614   24.2868   -0.7367 H   0  0  0  0  0  0  0  0  0  0  0  0
  -13.1899   24.6448    0.9291 H   0  0  0  0  0  0  0  0  0  0  0  0
  1  2  1  0  0  0  0
  1 24  1  0  0  0  0
  1 25  1  0  0  0  0
  1 26  1  0  0  0  0
  2  3  1  0  0  0  0
  2  7  1  0  0  0  0
  2 12  1  0  0  0  0
  3  4  1  0  0  0  0
  3 27  1  0  0  0  0
  3 28  1  0  0  0  0
  4  5  1  0  0  0  0
  4 29  1  0  0  0  0
  4 30  1  0  0  0  0
  5  6  1  0  0  0  0
  5  8  1  0  0  0  0
  6  7  1  0  0  0  0
  6 31  1  0  0  0  0
  6 32  1  0  0  0  0
  7 33  1  0  0  0  0
  7 34  1  0  0  0  0
  8  9  2  0  0  0  0
  8 10  2  0  0  0  0
  8 11  1  0  0  0  0
 11 35  1  0  0  0  0
 11 36  1  0  0  0  0
 11 37  1  0  0  0  0
 12 13  2  0  0  0  0
 12 16  1  0  0  0  0
 13 14  1  0  0  0  0
 13 38  1  0  0  0  0
 14 15  1  0  0  0  0
 15 16  1  0  0  0  0
 15 23  2  0  0  0  0
 16 17  2  0  0  0  0
 17 18  1  0  0  0  0
 17 21  1  0  0  0  0
 18 19  2  0  0  0  0
 18 39  1  0  0  0  0
 19 20  1  0  0  0  0
 19 40  1  0  0  0  0
 20 21  2  0  0  0  0
 20 41  1  0  0  0  0
 21 22  1  0  0  0  0
 22 23  1  0  0  0  0
 23 42  1  0  0  0  0
M  CHG  2  12   1  20   1
M  END
$$$$
