0NL
 OpenBabel04111918413D

 48 51  0  0  1  0  0  0  0  0999 V2000
    3.8796   49.8513   -0.5441 C   0  0  0  0  0  0  0  0  0  0  0  0
    4.0969   49.7347    0.9675 C   0  0  0  0  0  0  0  0  0  0  0  0
    2.7870   49.2084    1.5748 C   0  0  0  0  0  0  0  0  0  0  0  0
    5.2026   48.7190    1.2820 C   0  0  0  0  0  0  0  0  0  0  0  0
    4.3481   51.0302    1.5979 O   0  0  0  0  0  0  0  0  0  0  0  0
    5.4941   51.7110    1.3312 C   0  0  0  0  0  0  0  0  0  0  0  0
    6.3512   51.3760    0.5190 O   0  0  0  0  0  0  0  0  0  0  0  0
    5.5962   52.8293    2.1157 N   0  0  0  0  0  0  0  0  0  0  0  0
    6.8008   53.6505    2.1377 C   0  0  2  0  0  0  0  0  0  0  0  0
    6.7805   54.5942    3.3435 C   0  0  0  0  0  0  0  0  0  0  0  0
    7.0809   55.9797    2.8114 C   0  0  0  0  0  0  0  0  0  0  0  0
    6.6459   55.9578    1.3510 C   0  0  2  0  0  0  0  0  0  0  0  0
    6.9565   54.5331    0.8835 C   0  0  0  0  0  0  0  0  0  0  0  0
    7.2549   57.0680    0.6504 N   0  3  0  0  0  0  0  0  0  0  0  0
    8.5166   57.0763    0.0860 C   0  0  0  0  0  0  0  0  0  0  0  0
    8.8643   58.2753   -0.3369 N   0  0  0  0  0  0  0  0  0  0  0  0
    7.8030   59.0863   -0.0165 C   0  0  0  0  0  0  0  0  0  0  0  0
    6.8162   58.3462    0.6100 C   0  0  0  0  0  0  0  0  0  0  0  0
    5.6769   58.9617    1.0518 C   0  0  0  0  0  0  0  0  0  0  0  0
    4.5263   58.4948    1.7433 C   0  0  0  0  0  0  0  0  0  0  0  0
    3.7028   59.6005    1.8985 C   0  0  0  0  0  0  0  0  0  0  0  0
    4.3408   60.7021    1.3582 N   0  3  0  0  0  0  0  0  0  0  0  0
    5.5402   60.3127    0.8270 C   0  0  0  0  0  0  0  0  0  0  0  0
    6.4444   61.1005    0.2144 N   0  0  0  0  0  0  0  0  0  0  0  0
    7.5835   60.4642   -0.2052 C   0  0  0  0  0  0  0  0  0  0  0  0
    3.6695   48.8691   -0.9873 H   0  0  0  0  0  0  0  0  0  0  0  0
    4.7532   50.2658   -1.0514 H   0  0  0  0  0  0  0  0  0  0  0  0
    3.0313   50.5080   -0.7644 H   0  0  0  0  0  0  0  0  0  0  0  0
    2.8750   49.1009    2.6607 H   0  0  0  0  0  0  0  0  0  0  0  0
    2.5106   48.2344    1.1525 H   0  0  0  0  0  0  0  0  0  0  0  0
    1.9646   49.9074    1.3873 H   0  0  0  0  0  0  0  0  0  0  0  0
    6.1652   49.0196    0.8611 H   0  0  0  0  0  0  0  0  0  0  0  0
    4.9653   47.7311    0.8699 H   0  0  0  0  0  0  0  0  0  0  0  0
    5.3406   48.6172    2.3633 H   0  0  0  0  0  0  0  0  0  0  0  0
    4.8362   53.0031    2.7620 H   0  0  0  0  0  0  0  0  0  0  0  0
    7.6673   52.9779    2.1997 H   0  0  0  0  0  0  0  0  0  0  0  0
    7.5188   54.2994    4.0977 H   0  0  0  0  0  0  0  0  0  0  0  0
    5.8032   54.5955    3.8376 H   0  0  0  0  0  0  0  0  0  0  0  0
    8.1544   56.1888    2.8956 H   0  0  0  0  0  0  0  0  0  0  0  0
    6.5548   56.7538    3.3806 H   0  0  0  0  0  0  0  0  0  0  0  0
    5.5645   56.0765    1.2565 H   0  0  0  0  0  0  0  0  0  0  0  0
    6.2894   54.2269    0.0693 H   0  0  0  0  0  0  0  0  0  0  0  0
    7.9779   54.4470    0.5010 H   0  0  0  0  0  0  0  0  0  0  0  0
    9.1544   56.2020    0.0188 H   0  0  0  0  0  0  0  0  0  0  0  0
    4.2702   57.5050    2.0970 H   0  0  0  0  0  0  0  0  0  0  0  0
    2.7183   59.6946    2.3457 H   0  0  0  0  0  0  0  0  0  0  0  0
    3.9782   61.6484    1.2980 H   0  0  0  0  0  0  0  0  0  0  0  0
    8.3250   61.0797   -0.7023 H   0  0  0  0  0  0  0  0  0  0  0  0
  1  2  1  0  0  0  0
  1 26  1  0  0  0  0
  1 27  1  0  0  0  0
  1 28  1  0  0  0  0
  2  3  1  0  0  0  0
  2  4  1  0  0  0  0
  2  5  1  0  0  0  0
  3 29  1  0  0  0  0
  3 30  1  0  0  0  0
  3 31  1  0  0  0  0
  4 32  1  0  0  0  0
  4 33  1  0  0  0  0
  4 34  1  0  0  0  0
  5  6  1  0  0  0  0
  6  7  2  0  0  0  0
  6  8  1  0  0  0  0
  8  9  1  0  0  0  0
  8 35  1  0  0  0  0
  9 10  1  0  0  0  0
  9 13  1  0  0  0  0
  9 36  1  1  0  0  0
 10 11  1  0  0  0  0
 10 37  1  0  0  0  0
 10 38  1  0  0  0  0
 11 12  1  0  0  0  0
 11 39  1  0  0  0  0
 11 40  1  0  0  0  0
 12 13  1  0  0  0  0
 12 14  1  0  0  0  0
 12 41  1  6  0  0  0
 13 42  1  0  0  0  0
 13 43  1  0  0  0  0
 14 15  2  0  0  0  0
 14 18  1  0  0  0  0
 15 16  1  0  0  0  0
 15 44  1  0  0  0  0
 16 17  1  0  0  0  0
 17 18  1  0  0  0  0
 17 25  2  0  0  0  0
 18 19  2  0  0  0  0
 19 20  1  0  0  0  0
 19 23  1  0  0  0  0
 20 21  2  0  0  0  0
 20 45  1  0  0  0  0
 21 22  1  0  0  0  0
 21 46  1  0  0  0  0
 22 23  2  0  0  0  0
 22 47  1  0  0  0  0
 23 24  1  0  0  0  0
 24 25  1  0  0  0  0
 25 48  1  0  0  0  0
M  CHG  2  14   1  22   1
M  END
$$$$
