0NT
 OpenBabel04111918413D

 57 61  0  0  1  0  0  0  0  0999 V2000
    8.8569   51.6704    1.4842 C   0  0  0  0  0  0  0  0  0  0  0  0
    6.7982   49.4317    3.6864 C   0  0  0  0  0  0  0  0  0  0  0  0
    6.4061   52.2165    1.6971 C   0  0  0  0  0  0  0  0  0  0  0  0
    9.1819   50.3016    0.9137 C   0  0  0  0  0  0  0  0  0  0  0  0
    6.6381   47.9170    3.6287 C   0  0  0  0  0  0  0  0  0  0  0  0
    5.4312   50.0341    3.9932 C   0  0  0  0  0  0  0  0  0  0  0  0
    7.3591   49.9535    2.3804 N   0  3  2  0  0  0  0  0  0  0  0  0
    8.6810   49.3540    1.9756 C   0  0  0  0  0  0  0  0  0  0  0  0
    7.5954   51.4858    2.3369 C   0  0  1  0  0  0  0  0  0  0  0  0
    5.6353   51.5451    1.0049 O   0  0  0  0  0  0  0  0  0  0  0  0
    6.2700   53.5809    1.8980 N   0  0  0  0  0  0  0  0  0  0  0  0
    5.1764   54.2974    1.2304 C   0  0  0  0  0  0  0  0  0  0  0  0
    5.7177   55.4639    0.3956 C   0  0  0  0  0  0  0  0  0  0  0  0
    6.6208   56.3671    1.2585 C   0  0  1  0  0  0  0  0  0  0  0  0
    7.7423   55.5406    1.9194 C   0  0  0  0  0  0  0  0  0  0  0  0
    7.1379   54.4101    2.7402 C   0  0  0  0  0  0  0  0  0  0  0  0
    7.0880   57.5655    0.5762 N   0  3  0  0  0  0  0  0  0  0  0  0
    8.3417   57.7237    0.0131 C   0  0  0  0  0  0  0  0  0  0  0  0
    8.5401   58.9458   -0.4288 N   0  0  0  0  0  0  0  0  0  0  0  0
    7.3820   59.6239   -0.1409 C   0  0  0  0  0  0  0  0  0  0  0  0
    6.4806   58.7708    0.4754 C   0  0  0  0  0  0  0  0  0  0  0  0
    5.2551   59.2497    0.8570 C   0  0  0  0  0  0  0  0  0  0  0  0
    4.1369   58.6416    1.4853 C   0  0  0  0  0  0  0  0  0  0  0  0
    3.1810   59.6431    1.6274 C   0  0  0  0  0  0  0  0  0  0  0  0
    3.7060   60.8154    1.0968 N   0  3  0  0  0  0  0  0  0  0  0  0
    4.9656   60.5792    0.6181 C   0  0  0  0  0  0  0  0  0  0  0  0
    5.7896   61.4638    0.0287 N   0  0  0  0  0  0  0  0  0  0  0  0
    7.0070   60.9630   -0.3528 C   0  0  0  0  0  0  0  0  0  0  0  0
    8.7273   52.4074    0.6840 H   0  0  0  0  0  0  0  0  0  0  0  0
    9.6843   52.0179    2.1137 H   0  0  0  0  0  0  0  0  0  0  0  0
    7.5163   49.7089    4.4660 H   0  0  0  0  0  0  0  0  0  0  0  0
   10.2514   50.1717    0.7219 H   0  0  0  0  0  0  0  0  0  0  0  0
    8.6485   50.1406   -0.0308 H   0  0  0  0  0  0  0  0  0  0  0  0
    6.2464   47.5518    4.5847 H   0  0  0  0  0  0  0  0  0  0  0  0
    7.5889   47.4091    3.4542 H   0  0  0  0  0  0  0  0  0  0  0  0
    5.9328   47.6222    2.8436 H   0  0  0  0  0  0  0  0  0  0  0  0
    5.4562   51.1237    4.0528 H   0  0  0  0  0  0  0  0  0  0  0  0
    5.0839   49.6666    4.9667 H   0  0  0  0  0  0  0  0  0  0  0  0
    4.6856   49.7375    3.2471 H   0  0  0  0  0  0  0  0  0  0  0  0
    9.3300   49.3665    2.8592 H   0  0  0  0  0  0  0  0  0  0  0  0
    8.5278   48.3365    1.6116 H   0  0  0  0  0  0  0  0  0  0  0  0
    7.7542   51.7951    3.3729 H   0  0  0  0  0  0  0  0  0  0  0  0
    4.4955   54.6680    2.0075 H   0  0  0  0  0  0  0  0  0  0  0  0
    4.5959   53.6199    0.5956 H   0  0  0  0  0  0  0  0  0  0  0  0
    4.8749   56.0378   -0.0060 H   0  0  0  0  0  0  0  0  0  0  0  0
    6.2703   55.0678   -0.4668 H   0  0  0  0  0  0  0  0  0  0  0  0
    6.0123   56.7406    2.0878 H   0  0  0  0  0  0  0  0  0  0  0  0
    8.3506   56.1813    2.5697 H   0  0  0  0  0  0  0  0  0  0  0  0
    8.4156   55.1112    1.1654 H   0  0  0  0  0  0  0  0  0  0  0  0
    7.9389   53.8250    3.1927 H   0  0  0  0  0  0  0  0  0  0  0  0
    6.5329   54.8131    3.5617 H   0  0  0  0  0  0  0  0  0  0  0  0
    9.0894   56.9404   -0.0367 H   0  0  0  0  0  0  0  0  0  0  0  0
    3.9908   57.6254    1.8193 H   0  0  0  0  0  0  0  0  0  0  0  0
    2.1870   59.6325    2.0539 H   0  0  0  0  0  0  0  0  0  0  0  0
    3.2421   61.7144    1.0652 H   0  0  0  0  0  0  0  0  0  0  0  0
    7.6867   61.6605   -0.8283 H   0  0  0  0  0  0  0  0  0  0  0  0
    6.6631   49.7734    1.6296 H   0  0  0  0  0  0  0  0  0  0  0  0
  1  4  1  0  0  0  0
  1  9  1  0  0  0  0
  1 29  1  0  0  0  0
  1 30  1  0  0  0  0
  2  5  1  0  0  0  0
  2  6  1  0  0  0  0
  2  7  1  0  0  0  0
  2 31  1  0  0  0  0
  3  9  1  0  0  0  0
  3 10  2  0  0  0  0
  3 11  1  0  0  0  0
  4  8  1  0  0  0  0
  4 32  1  0  0  0  0
  4 33  1  0  0  0  0
  5 34  1  0  0  0  0
  5 35  1  0  0  0  0
  5 36  1  0  0  0  0
  6 37  1  0  0  0  0
  6 38  1  0  0  0  0
  6 39  1  0  0  0  0
  7  8  1  0  0  0  0
  7  9  1  0  0  0  0
  7 57  1  6  0  0  0
  8 40  1  0  0  0  0
  8 41  1  0  0  0  0
  9 42  1  1  0  0  0
 11 12  1  0  0  0  0
 11 16  1  0  0  0  0
 12 13  1  0  0  0  0
 12 43  1  0  0  0  0
 12 44  1  0  0  0  0
 13 14  1  0  0  0  0
 13 45  1  0  0  0  0
 13 46  1  0  0  0  0
 14 15  1  0  0  0  0
 14 17  1  0  0  0  0
 14 47  1  1  0  0  0
 15 16  1  0  0  0  0
 15 48  1  0  0  0  0
 15 49  1  0  0  0  0
 16 50  1  0  0  0  0
 16 51  1  0  0  0  0
 17 18  2  0  0  0  0
 17 21  1  0  0  0  0
 18 19  1  0  0  0  0
 18 52  1  0  0  0  0
 19 20  1  0  0  0  0
 20 21  1  0  0  0  0
 20 28  2  0  0  0  0
 21 22  2  0  0  0  0
 22 23  1  0  0  0  0
 22 26  1  0  0  0  0
 23 24  2  0  0  0  0
 23 53  1  0  0  0  0
 24 25  1  0  0  0  0
 24 54  1  0  0  0  0
 25 26  2  0  0  0  0
 25 55  1  0  0  0  0
 26 27  1  0  0  0  0
 27 28  1  0  0  0  0
 28 56  1  0  0  0  0
M  CHG  3   7   1  17   1  25   1
M  END
$$$$
