0NV
 OpenBabel04111918423D

 47 51  0  0  1  0  0  0  0  0999 V2000
   10.9456   26.7222    8.8197 C   0  0  0  0  0  0  0  0  0  0  0  0
   10.7226   25.3339    8.2549 C   0  0  0  0  0  0  0  0  0  0  0  0
   11.6862   25.0648    7.1238 N   0  3  1  0  0  0  0  0  0  0  0  0
   13.1180   25.2343    7.5348 C   0  0  0  0  0  0  0  0  0  0  0  0
   13.3532   26.6257    8.0662 C   0  0  0  0  0  0  0  0  0  0  0  0
   12.4071   26.8319    9.2573 C   0  0  1  0  0  0  0  0  0  0  0  0
   12.6743   28.0771    9.9340 N   0  3  0  0  0  0  0  0  0  0  0  0
   12.9310   29.2505    9.2399 C   0  0  0  0  0  0  0  0  0  0  0  0
   13.1590   30.2403   10.0687 N   0  0  0  0  0  0  0  0  0  0  0  0
   13.0438   29.6906   11.3272 C   0  0  0  0  0  0  0  0  0  0  0  0
   13.1959   30.2807   12.5967 C   0  0  0  0  0  0  0  0  0  0  0  0
   13.0242   29.5761   13.7667 N   0  0  0  0  0  0  0  0  0  0  0  0
   12.7115   28.2673   13.6315 C   0  0  0  0  0  0  0  0  0  0  0  0
   12.5105   27.3624   14.6625 N   0  3  0  0  0  0  0  0  0  0  0  0
   12.2444   26.1214   14.0995 C   0  0  0  0  0  0  0  0  0  0  0  0
   12.2353   26.2567   12.7030 C   0  0  0  0  0  0  0  0  0  0  0  0
   12.5529   27.6107   12.4270 C   0  0  0  0  0  0  0  0  0  0  0  0
   12.7278   28.3423   11.2543 C   0  0  0  0  0  0  0  0  0  0  0  0
   11.4980   23.6715    6.5418 C   0  0  0  0  0  0  0  0  0  0  0  0
   10.0743   23.3373    6.2357 C   0  0  0  0  0  0  0  0  0  0  0  0
    9.3772   22.4114    7.0322 C   0  0  0  0  0  0  0  0  0  0  0  0
    8.0521   22.0965    6.7807 C   0  0  0  0  0  0  0  0  0  0  0  0
    7.4133   22.7168    5.7110 C   0  0  0  0  0  0  0  0  0  0  0  0
    8.0923   23.6510    4.9228 C   0  0  0  0  0  0  0  0  0  0  0  0
    9.4206   23.9683    5.1828 C   0  0  0  0  0  0  0  0  0  0  0  0
   10.2789   26.8732    9.6813 H   0  0  0  0  0  0  0  0  0  0  0  0
   10.6983   27.4943    8.0756 H   0  0  0  0  0  0  0  0  0  0  0  0
    9.7076   25.2334    7.8702 H   0  0  0  0  0  0  0  0  0  0  0  0
   10.9171   24.5752    9.0190 H   0  0  0  0  0  0  0  0  0  0  0  0
   13.7360   25.0252    6.6626 H   0  0  0  0  0  0  0  0  0  0  0  0
   13.3003   24.4933    8.3180 H   0  0  0  0  0  0  0  0  0  0  0  0
   13.1809   27.3857    7.2882 H   0  0  0  0  0  0  0  0  0  0  0  0
   14.3984   26.7318    8.3922 H   0  0  0  0  0  0  0  0  0  0  0  0
   12.5980   26.0203    9.9660 H   0  0  0  0  0  0  0  0  0  0  0  0
   12.9474   29.3578    8.1694 H   0  0  0  0  0  0  0  0  0  0  0  0
   13.4567   31.3291   12.7087 H   0  0  0  0  0  0  0  0  0  0  0  0
   12.5643   27.5882   15.6470 H   0  0  0  0  0  0  0  0  0  0  0  0
   12.0773   25.2395   14.6996 H   0  0  0  0  0  0  0  0  0  0  0  0
   12.0265   25.4092   12.0533 H   0  0  0  0  0  0  0  0  0  0  0  0
   11.9074   22.9656    7.2741 H   0  0  0  0  0  0  0  0  0  0  0  0
   12.0985   23.6177    5.6259 H   0  0  0  0  0  0  0  0  0  0  0  0
    9.8789   21.9179    7.8570 H   0  0  0  0  0  0  0  0  0  0  0  0
    7.5115   21.3742    7.3966 H   0  0  0  0  0  0  0  0  0  0  0  0
    6.3799   22.4770    5.4804 H   0  0  0  0  0  0  0  0  0  0  0  0
    7.5745   24.1295    4.0981 H   0  0  0  0  0  0  0  0  0  0  0  0
    9.9366   24.6908    4.5540 H   0  0  0  0  0  0  0  0  0  0  0  0
   11.4789   25.7290    6.3648 H   0  0  0  0  0  0  0  0  0  0  0  0
  1  2  1  0  0  0  0
  1  6  1  0  0  0  0
  1 26  1  0  0  0  0
  1 27  1  0  0  0  0
  2  3  1  0  0  0  0
  2 28  1  0  0  0  0
  2 29  1  0  0  0  0
  3  4  1  0  0  0  0
  3 19  1  0  0  0  0
  3 47  1  6  0  0  0
  4  5  1  0  0  0  0
  4 30  1  0  0  0  0
  4 31  1  0  0  0  0
  5  6  1  0  0  0  0
  5 32  1  0  0  0  0
  5 33  1  0  0  0  0
  6  7  1  0  0  0  0
  6 34  1  1  0  0  0
  7  8  2  0  0  0  0
  7 18  1  0  0  0  0
  8  9  1  0  0  0  0
  8 35  1  0  0  0  0
  9 10  1  0  0  0  0
 10 11  2  0  0  0  0
 10 18  1  0  0  0  0
 11 12  1  0  0  0  0
 11 36  1  0  0  0  0
 12 13  1  0  0  0  0
 13 14  2  0  0  0  0
 13 17  1  0  0  0  0
 14 15  1  0  0  0  0
 14 37  1  0  0  0  0
 15 16  2  0  0  0  0
 15 38  1  0  0  0  0
 16 17  1  0  0  0  0
 16 39  1  0  0  0  0
 17 18  2  0  0  0  0
 19 20  1  0  0  0  0
 19 40  1  0  0  0  0
 19 41  1  0  0  0  0
 20 21  2  0  0  0  0
 20 25  1  0  0  0  0
 21 22  1  0  0  0  0
 21 42  1  0  0  0  0
 22 23  2  0  0  0  0
 22 43  1  0  0  0  0
 23 24  1  0  0  0  0
 23 44  1  0  0  0  0
 24 25  2  0  0  0  0
 24 45  1  0  0  0  0
 25 46  1  0  0  0  0
M  CHG  3   3   1   7   1  14   1
M  END
$$$$
