0NW
 OpenBabel04111918423D

 75 78  0  0  1  0  0  0  0  0999 V2000
   16.2758    2.4900   21.1650 C   0  0  0  0  0  0  0  0  0  0  0  0
   15.6977    1.8533   22.2642 C   0  0  0  0  0  0  0  0  0  0  0  0
   16.0451    0.5343   22.6169 C   0  0  0  0  0  0  0  0  0  0  0  0
   18.6561   -0.1937   19.9009 C   0  0  0  0  0  0  0  0  0  0  0  0
   20.0771    0.0107   20.4468 C   0  0  1  0  0  0  0  0  0  0  0  0
   20.2931    1.4492   20.9335 C   0  0  0  0  0  0  0  0  0  0  0  0
   20.7386    3.8020   20.4476 C   0  0  0  0  0  0  0  0  0  0  0  0
   21.9599    4.4743   19.8367 C   0  0  0  0  0  0  0  0  0  0  0  0
   21.9622    4.3201   18.3122 C   0  0  2  0  0  0  0  0  0  0  0  0
   21.9930    2.8229   17.9962 C   0  0  0  0  0  0  0  0  0  0  0  0
   20.7346    2.1723   18.5497 C   0  0  0  0  0  0  0  0  0  0  0  0
   25.1032    0.2689   20.6362 C   0  0  0  0  0  0  0  0  0  0  0  0
   25.0861    1.3197   21.5591 C   0  0  0  0  0  0  0  0  0  0  0  0
   24.0421    1.4470   22.4999 C   0  0  0  0  0  0  0  0  0  0  0  0
   23.0104    0.4912   22.4619 C   0  0  0  0  0  0  0  0  0  0  0  0
   24.0097    2.5468   23.4847 C   0  0  0  0  0  0  0  0  0  0  0  0
   23.7666    2.3494   24.8632 C   0  0  0  0  0  0  0  0  0  0  0  0
   15.4189   -0.1430   23.7800 C   0  0  0  0  0  0  0  0  0  0  0  0
   14.5512    0.4708   24.5425 N   0  0  0  0  0  0  0  0  0  0  0  0
   15.7341   -1.3955   24.0727 N   0  0  0  0  0  0  0  0  0  0  0  0
   17.0034   -0.1129   21.8134 C   0  0  0  0  0  0  0  0  0  0  0  0
   17.5803    0.5110   20.6990 C   0  0  0  0  0  0  0  0  0  0  0  0
   20.3242   -0.9331   21.5412 N   0  0  0  0  0  0  0  0  0  0  0  0
   21.7538   -1.7900   21.5782 S   0  0  0  0  0  0  0  0  0  0  0  0
   23.0383   -0.5642   21.5550 C   0  0  0  0  0  0  0  0  0  0  0  0
   24.1829    3.8767   23.0403 C   0  0  0  0  0  0  0  0  0  0  0  0
   24.0856    4.9539   23.9232 C   0  0  0  0  0  0  0  0  0  0  0  0
   23.8194    4.7270   25.2662 C   0  0  0  0  0  0  0  0  0  0  0  0
   23.6880    6.0506   26.3535 Cl  0  0  0  0  0  0  0  0  0  0  0  0
   23.6657    3.4294   25.7426 C   0  0  0  0  0  0  0  0  0  0  0  0
   23.6054    0.7760   25.5764 Cl  0  0  0  0  0  0  0  0  0  0  0  0
   24.0802   -0.6770   20.6340 C   0  0  0  0  0  0  0  0  0  0  0  0
   21.7799   -2.4597   22.8565 O   0  0  0  0  0  0  0  0  0  0  0  0
   21.8061   -2.5025   20.3215 O   0  0  0  0  0  0  0  0  0  0  0  0
   20.6198    2.4141   19.9901 N   0  0  0  0  0  0  0  0  0  0  0  0
   23.1641    5.0486   17.6984 C   0  0  0  0  0  0  0  0  0  0  0  0
   22.7477    5.9940   16.5774 C   0  0  0  0  0  0  0  0  0  0  0  0
   22.5550    5.2259   15.3270 N   0  3  0  0  0  0  0  0  0  0  0  0
   20.1412    1.7292   22.1276 O   0  0  0  0  0  0  0  0  0  0  0  0
   17.2057    1.8199   20.3825 C   0  0  0  0  0  0  0  0  0  0  0  0
   15.9998    3.5149   20.9253 H   0  0  0  0  0  0  0  0  0  0  0  0
   14.9702    2.4298   22.8240 H   0  0  0  0  0  0  0  0  0  0  0  0
   18.4314   -1.2679   19.8663 H   0  0  0  0  0  0  0  0  0  0  0  0
   18.5992    0.1524   18.8631 H   0  0  0  0  0  0  0  0  0  0  0  0
   20.7943   -0.2270   19.6593 H   0  0  0  0  0  0  0  0  0  0  0  0
   19.8228    4.3317   20.1620 H   0  0  0  0  0  0  0  0  0  0  0  0
   20.8188    3.8545   21.5383 H   0  0  0  0  0  0  0  0  0  0  0  0
   22.8637    4.0039   20.2416 H   0  0  0  0  0  0  0  0  0  0  0  0
   21.9840    5.5314   20.1250 H   0  0  0  0  0  0  0  0  0  0  0  0
   21.0212    4.7398   17.9223 H   0  0  0  0  0  0  0  0  0  0  0  0
   22.8731    2.3617   18.4674 H   0  0  0  0  0  0  0  0  0  0  0  0
   22.0681    2.6405   16.9203 H   0  0  0  0  0  0  0  0  0  0  0  0
   20.7702    1.1138   18.3016 H   0  0  0  0  0  0  0  0  0  0  0  0
   19.8400    2.5790   18.0642 H   0  0  0  0  0  0  0  0  0  0  0  0
   25.9337    0.1665   19.9398 H   0  0  0  0  0  0  0  0  0  0  0  0
   25.9174    2.0229   21.5611 H   0  0  0  0  0  0  0  0  0  0  0  0
   22.1805    0.5719   23.1626 H   0  0  0  0  0  0  0  0  0  0  0  0
   14.1092    0.0204   25.3336 H   0  0  0  0  0  0  0  0  0  0  0  0
   16.3970   -1.9304   23.5344 H   0  0  0  0  0  0  0  0  0  0  0  0
   15.3154   -1.8770   24.8596 H   0  0  0  0  0  0  0  0  0  0  0  0
   17.3415   -1.1228   22.0314 H   0  0  0  0  0  0  0  0  0  0  0  0
   19.8293   -0.8315   22.4230 H   0  0  0  0  0  0  0  0  0  0  0  0
   24.3823    4.0830   21.9928 H   0  0  0  0  0  0  0  0  0  0  0  0
   24.2169    5.9726   23.5550 H   0  0  0  0  0  0  0  0  0  0  0  0
   23.4719    3.2571   26.7989 H   0  0  0  0  0  0  0  0  0  0  0  0
   24.1188   -1.5127   19.9385 H   0  0  0  0  0  0  0  0  0  0  0  0
   23.9075    4.3305   17.3343 H   0  0  0  0  0  0  0  0  0  0  0  0
   23.6652    5.6467   18.4704 H   0  0  0  0  0  0  0  0  0  0  0  0
   23.5292    6.7324   16.3790 H   0  0  0  0  0  0  0  0  0  0  0  0
   21.8072    6.5131   16.7925 H   0  0  0  0  0  0  0  0  0  0  0  0
   22.2916    5.8484   14.5485 H   0  0  0  0  0  0  0  0  0  0  0  0
   23.4252    4.7536   15.0420 H   0  0  0  0  0  0  0  0  0  0  0  0
   17.6566    2.3409   19.5422 H   0  0  0  0  0  0  0  0  0  0  0  0
   14.2622    1.4334   24.3778 H   0  0  0  0  0  0  0  0  0  0  0  0
   21.8194    4.5133   15.4038 H   0  0  0  0  0  0  0  0  0  0  0  0
  1  2  2  0  0  0  0
  1 40  1  0  0  0  0
  1 41  1  0  0  0  0
  2  3  1  0  0  0  0
  2 42  1  0  0  0  0
  3 18  1  0  0  0  0
  3 21  2  0  0  0  0
  4  5  1  0  0  0  0
  4 22  1  0  0  0  0
  4 43  1  0  0  0  0
  4 44  1  0  0  0  0
  5  6  1  0  0  0  0
  5 23  1  0  0  0  0
  5 45  1  6  0  0  0
  6 35  1  0  0  0  0
  6 39  2  0  0  0  0
  7  8  1  0  0  0  0
  7 35  1  0  0  0  0
  7 46  1  0  0  0  0
  7 47  1  0  0  0  0
  8  9  1  0  0  0  0
  8 48  1  0  0  0  0
  8 49  1  0  0  0  0
  9 10  1  0  0  0  0
  9 36  1  0  0  0  0
  9 50  1  6  0  0  0
 10 11  1  0  0  0  0
 10 51  1  0  0  0  0
 10 52  1  0  0  0  0
 11 35  1  0  0  0  0
 11 53  1  0  0  0  0
 11 54  1  0  0  0  0
 12 13  2  0  0  0  0
 12 32  1  0  0  0  0
 12 55  1  0  0  0  0
 13 14  1  0  0  0  0
 13 56  1  0  0  0  0
 14 15  2  0  0  0  0
 14 16  1  0  0  0  0
 15 25  1  0  0  0  0
 15 57  1  0  0  0  0
 16 17  2  0  0  0  0
 16 26  1  0  0  0  0
 17 30  1  0  0  0  0
 17 31  1  0  0  0  0
 18 19  2  0  0  0  0
 18 20  1  0  0  0  0
 19 58  1  0  0  0  0
 19 74  1  0  0  0  0
 20 59  1  0  0  0  0
 20 60  1  0  0  0  0
 21 22  1  0  0  0  0
 21 61  1  0  0  0  0
 22 40  2  0  0  0  0
 23 24  1  0  0  0  0
 23 62  1  0  0  0  0
 24 25  1  0  0  0  0
 24 33  2  0  0  0  0
 24 34  2  0  0  0  0
 25 32  2  0  0  0  0
 26 27  2  0  0  0  0
 26 63  1  0  0  0  0
 27 28  1  0  0  0  0
 27 64  1  0  0  0  0
 28 29  1  0  0  0  0
 28 30  2  0  0  0  0
 30 65  1  0  0  0  0
 32 66  1  0  0  0  0
 36 37  1  0  0  0  0
 36 67  1  0  0  0  0
 36 68  1  0  0  0  0
 37 38  1  0  0  0  0
 37 69  1  0  0  0  0
 37 70  1  0  0  0  0
 38 71  1  0  0  0  0
 38 72  1  0  0  0  0
 38 75  1  0  0  0  0
 40 73  1  0  0  0  0
M  CHG  1  38   1
M  END
$$$$
