0O2
 OpenBabel04111921303D

 51 53  0  0  1  0  0  0  0  0999 V2000
   95.5727  -22.8220  105.2347 P   0  0  0  0  0  0  0  0  0  0  0  0
   94.1155  -22.7059  104.7279 O   0  0  0  0  0  0  0  0  0  0  0  0
   95.8080  -23.6065  106.4846 O   0  0  0  0  0  0  0  0  0  0  0  0
   96.1515  -21.3817  105.3507 O   0  0  0  0  0  0  0  0  0  0  0  0
   94.6020  -28.8315  107.1790 P   0  0  0  0  0  0  0  0  0  0  0  0
   94.6241  -30.3735  106.9629 O   0  0  0  0  0  0  0  0  0  0  0  0
   94.2884  -28.5571  108.6824 O   0  0  0  0  0  0  0  0  0  0  0  0
   95.8601  -28.1872  106.7057 O   0  0  0  0  0  0  0  0  0  0  0  0
   93.2884  -27.6593  104.8623 P   0  0  2  0  0  0  0  0  0  0  0  0
   94.2868  -26.5825  104.7391 O   0  0  0  0  0  0  0  0  0  0  0  0
   91.8351  -27.3278  104.4905 O   0  0  0  0  0  0  0  0  0  0  0  0
   93.2857  -28.3189  106.3556 O   0  0  0  0  0  0  0  0  0  0  0  0
   93.7542  -28.9015  103.9288 O   0  0  0  0  0  0  0  0  0  0  0  0
   93.8991  -29.1145  102.3702 P   0  0  2  0  0  0  0  0  0  0  0  0
   92.6347  -28.8267  101.5498 O   0  0  0  0  0  0  0  0  0  0  0  0
   94.4437  -30.5357  102.1757 O   0  0  0  0  0  0  0  0  0  0  0  0
   95.0430  -28.1105  101.7561 O   0  0  0  0  0  0  0  0  0  0  0  0
   96.3123  -28.1664  102.3772 C   0  0  0  0  0  0  0  0  0  0  0  0
   97.2259  -27.1132  101.7961 C   0  0  1  0  0  0  0  0  0  0  0  0
   97.4968  -27.3722  100.3685 O   0  0  0  0  0  0  0  0  0  0  0  0
   96.6674  -25.7027  101.9338 C   0  0  1  0  0  0  0  0  0  0  0  0
   97.7055  -24.8909  102.4852 O   0  0  0  0  0  0  0  0  0  0  0  0
   96.4053  -25.2677  100.5085 C   0  0  1  0  0  0  0  0  0  0  0  0
   96.6101  -23.8727  100.2172 O   0  0  0  0  0  0  0  0  0  0  0  0
   97.4038  -26.0978   99.7467 C   0  0  2  0  0  0  0  0  0  0  0  0
   97.0656  -26.2621   98.3485 N   0  3  0  0  0  0  0  0  0  0  0  0
   95.8198  -26.5108   97.8096 C   0  0  0  0  0  0  0  0  0  0  0  0
   95.8469  -26.5991   96.4821 N   0  0  0  0  0  0  0  0  0  0  0  0
   97.1667  -26.3998   96.1772 C   0  0  0  0  0  0  0  0  0  0  0  0
   97.8506  -26.3743   94.9265 C   0  0  0  0  0  0  0  0  0  0  0  0
   97.3006  -26.5303   93.8058 O   0  0  0  0  0  0  0  0  0  0  0  0
   99.2066  -26.1553   94.9273 N   0  3  0  0  0  0  0  0  0  0  0  0
   99.9302  -25.9370   96.0975 C   0  0  0  0  0  0  0  0  0  0  0  0
  101.1802  -25.7270   95.9569 N   0  0  0  0  0  0  0  0  0  0  0  0
   99.2590  -25.9646   97.2727 N   0  3  0  0  0  0  0  0  0  0  0  0
   97.9173  -26.1899   97.2806 C   0  0  0  0  0  0  0  0  0  0  0  0
   97.5507  -24.5735  104.1190 P   0  0  2  0  0  0  0  0  0  0  0  0
   98.9383  -23.9015  104.3894 O   0  0  0  0  0  0  0  0  0  0  0  0
   97.2481  -25.8558  104.7479 O   0  0  0  0  0  0  0  0  0  0  0  0
   96.3791  -23.4717  103.9778 O   0  0  0  0  0  0  0  0  0  0  0  0
   96.7660  -29.1400  102.1852 H   0  0  0  0  0  0  0  0  0  0  0  0
   96.1975  -27.9957  103.4449 H   0  0  0  0  0  0  0  0  0  0  0  0
   98.1793  -27.1587  102.3391 H   0  0  0  0  0  0  0  0  0  0  0  0
   95.7390  -25.6667  102.4936 H   0  0  0  0  0  0  0  0  0  0  0  0
   95.3874  -25.5494  100.2204 H   0  0  0  0  0  0  0  0  0  0  0  0
   96.0361  -23.4007  100.8583 H   0  0  0  0  0  0  0  0  0  0  0  0
   98.3846  -25.6038   99.7601 H   0  0  0  0  0  0  0  0  0  0  0  0
   94.9246  -26.6241   98.4249 H   0  0  0  0  0  0  0  0  0  0  0  0
   99.6699  -26.1425   94.0439 H   0  0  0  0  0  0  0  0  0  0  0  0
  101.6013  -25.5692   96.8897 H   0  0  0  0  0  0  0  0  0  0  0  0
   99.7631  -25.8099   98.1166 H   0  0  0  0  0  0  0  0  0  0  0  0
  1  2  2  0  0  0  0
  1  3  1  0  0  0  0
  1  4  1  0  0  0  0
  1 40  1  0  0  0  0
  5  6  2  0  0  0  0
  5  7  1  0  0  0  0
  5  8  1  0  0  0  0
  5 12  1  0  0  0  0
  9 10  2  6  0  0  0
  9 11  1  0  0  0  0
  9 12  1  0  0  0  0
  9 13  1  0  0  0  0
 14 13  1  1  0  0  0
 14 15  2  0  0  0  0
 14 16  1  0  0  0  0
 14 17  1  0  0  0  0
 17 18  1  0  0  0  0
 18 19  1  0  0  0  0
 18 41  1  0  0  0  0
 18 42  1  0  0  0  0
 19 20  1  0  0  0  0
 19 21  1  0  0  0  0
 19 43  1  1  0  0  0
 20 25  1  0  0  0  0
 21 22  1  0  0  0  0
 21 23  1  0  0  0  0
 21 44  1  1  0  0  0
 23 24  1  0  0  0  0
 23 25  1  0  0  0  0
 23 45  1  6  0  0  0
 24 46  1  0  0  0  0
 25 26  1  0  0  0  0
 25 47  1  1  0  0  0
 26 27  2  0  0  0  0
 26 36  1  0  0  0  0
 27 28  1  0  0  0  0
 27 48  1  0  0  0  0
 28 29  2  0  0  0  0
 29 30  1  0  0  0  0
 29 36  1  0  0  0  0
 30 31  2  0  0  0  0
 30 32  1  0  0  0  0
 32 33  1  0  0  0  0
 32 49  1  0  0  0  0
 33 34  2  0  0  0  0
 33 35  1  0  0  0  0
 34 50  1  0  0  0  0
 35 36  2  0  0  0  0
 35 51  1  0  0  0  0
 37 22  1  6  0  0  0
 37 38  2  0  0  0  0
 37 39  1  0  0  0  0
 37 40  1  0  0  0  0
M  CHG  3  26   1  32   1  35   1
M  END
$$$$
