0OC
 OpenBabel04111918433D

 20 20  0  0  0  0  0  0  0  0999 V2000
   13.8046    9.8718    6.5751 C   0  0  0  0  0  0  0  0  0  0  0  0
   13.7159    8.9834    7.7372 N   0  0  0  0  0  0  0  0  0  0  0  0
   13.6946    7.5342    7.5307 C   0  0  0  0  0  0  0  0  0  0  0  0
   13.0652    9.6351    9.1822 S   0  0  0  0  0  0  0  0  0  0  0  0
   12.5054   10.9444    8.9236 O   0  0  0  0  0  0  0  0  0  0  0  0
   12.4508    8.5930    9.9457 O   0  0  0  0  0  0  0  0  0  0  0  0
   14.5678    9.9321   10.0513 C   0  0  0  0  0  0  0  0  0  0  0  0
   15.5085    8.8929   10.4369 C   0  0  0  0  0  0  0  0  0  0  0  0
   16.6742    9.3906   10.9819 C   0  0  0  0  0  0  0  0  0  0  0  0
   16.5880   11.1072   11.0503 S   0  0  0  0  0  0  0  0  0  0  0  0
   15.0262   11.1929   10.3267 C   0  0  0  0  0  0  0  0  0  0  0  0
   14.2645    9.3920    5.7035 H   0  0  0  0  0  0  0  0  0  0  0  0
   14.4012   10.7618    6.8102 H   0  0  0  0  0  0  0  0  0  0  0  0
   12.7942   10.1834    6.2985 H   0  0  0  0  0  0  0  0  0  0  0  0
   14.1666    7.2292    6.5856 H   0  0  0  0  0  0  0  0  0  0  0  0
   12.6566    7.1958    7.5164 H   0  0  0  0  0  0  0  0  0  0  0  0
   14.2276    7.0117    8.3339 H   0  0  0  0  0  0  0  0  0  0  0  0
   15.2776    7.8400   10.2991 H   0  0  0  0  0  0  0  0  0  0  0  0
   17.5132    8.7807   11.3405 H   0  0  0  0  0  0  0  0  0  0  0  0
   14.4546   12.0993   10.1154 H   0  0  0  0  0  0  0  0  0  0  0  0
  1  2  1  0  0  0  0
  1 12  1  0  0  0  0
  1 13  1  0  0  0  0
  1 14  1  0  0  0  0
  2  3  1  0  0  0  0
  2  4  1  0  0  0  0
  3 15  1  0  0  0  0
  3 16  1  0  0  0  0
  3 17  1  0  0  0  0
  4  5  2  0  0  0  0
  4  6  2  0  0  0  0
  4  7  1  0  0  0  0
  7  8  1  0  0  0  0
  7 11  2  0  0  0  0
  8  9  2  0  0  0  0
  8 18  1  0  0  0  0
  9 10  1  0  0  0  0
  9 19  1  0  0  0  0
 10 11  1  0  0  0  0
 11 20  1  0  0  0  0
M  END
$$$$
