0PK
 OpenBabel04111921523D

 68 69  0  0  1  0  0  0  0  0999 V2000
   50.4322   20.4371   -8.5542 C   0  0  0  0  0  0  0  0  0  0  0  0
   49.9103   21.2372   -7.8612 O   0  0  0  0  0  0  0  0  0  0  0  0
   50.8170   20.5732   -9.8547 O   0  0  0  0  0  0  0  0  0  0  0  0
   50.9924   21.8725  -10.3855 C   0  0  0  0  0  0  0  0  0  0  0  0
   50.4930   21.7675  -11.8081 C   0  0  0  0  0  0  0  0  0  0  0  0
   50.4362   20.5991  -12.5880 C   0  0  0  0  0  0  0  0  0  0  0  0
   50.0085   22.9008  -12.3941 C   0  0  0  0  0  0  0  0  0  0  0  0
   49.8903   20.5602  -13.8902 C   0  0  0  0  0  0  0  0  0  0  0  0
   49.4694   22.8333  -13.6950 C   0  0  0  0  0  0  0  0  0  0  0  0
   49.3708   21.6905  -14.4628 C   0  0  0  0  0  0  0  0  0  0  0  0
   50.7301   19.1395   -8.2506 N   0  0  0  0  0  0  0  0  0  0  0  0
   50.6501   18.6442   -6.8858 C   0  0  2  0  0  0  0  0  0  0  0  0
   52.1172   19.1911   -5.9745 P   0  0  1  0  0  0  0  0  0  0  0  0
   53.3046   18.5321   -6.6453 O   0  0  0  0  0  0  0  0  0  0  0  0
   52.1006   20.7032   -5.8984 O   0  0  0  0  0  0  0  0  0  0  0  0
   50.6562   17.1343   -6.9786 C   0  0  0  0  0  0  0  0  0  0  0  0
   49.3651   16.7715   -7.6523 C   0  0  0  0  0  0  0  0  0  0  0  0
   48.2006   16.7781   -6.8762 C   0  0  0  0  0  0  0  0  0  0  0  0
   49.3101   16.5454   -9.0255 C   0  0  0  0  0  0  0  0  0  0  0  0
   46.9756   16.4868   -7.4521 C   0  0  0  0  0  0  0  0  0  0  0  0
   48.0825   16.2455   -9.6032 C   0  0  0  0  0  0  0  0  0  0  0  0
   46.9262   16.2074   -8.8165 C   0  0  0  0  0  0  0  0  0  0  0  0
   51.7443   18.5336   -4.3549 N   0  0  0  0  0  0  0  0  0  0  0  0
   52.9325   18.3393   -3.4948 C   0  0  2  0  0  0  0  0  0  0  0  0
   53.6629   17.0072   -3.6933 C   0  0  0  0  0  0  0  0  0  0  0  0
   54.8777   16.9210   -3.6020 O   0  0  0  0  0  0  0  0  0  0  0  0
   52.5922   18.4734   -2.0188 C   0  0  0  0  0  0  0  0  0  0  0  0
   53.8238   18.3814   -1.1090 C   0  0  0  0  0  0  0  0  0  0  0  0
   54.6842   19.6363   -1.2361 C   0  0  0  0  0  0  0  0  0  0  0  0
   53.2062   18.2018    0.2652 C   0  0  0  0  0  0  0  0  0  0  0  0
   52.8548   15.9121   -3.7163 N   0  0  0  0  0  0  0  0  0  0  0  0
   53.3340   14.5204   -3.8947 C   0  0  2  0  0  0  0  0  0  0  0  0
   52.6716   13.7989   -5.1423 C   0  0  0  0  0  0  0  0  0  0  0  0
   51.6072   14.3706   -5.5740 O   0  0  0  0  0  0  0  0  0  0  0  0
   53.0175   13.8045   -2.5876 C   0  0  0  0  0  0  0  0  0  0  0  0
   53.2042   12.7537   -5.5956 O   0  0  0  0  0  0  0  0  0  0  0  0
   52.0587   22.1629  -10.3841 H   0  0  0  0  0  0  0  0  0  0  0  0
   50.4265   22.6411   -9.8421 H   0  0  0  0  0  0  0  0  0  0  0  0
   50.7934   19.6667  -12.1767 H   0  0  0  0  0  0  0  0  0  0  0  0
   50.0136   23.8371  -11.8501 H   0  0  0  0  0  0  0  0  0  0  0  0
   49.8736   19.6462  -14.4629 H   0  0  0  0  0  0  0  0  0  0  0  0
   49.1227   23.7360  -14.1143 H   0  0  0  0  0  0  0  0  0  0  0  0
   48.9144   21.7137  -15.4596 H   0  0  0  0  0  0  0  0  0  0  0  0
   51.1469   18.5515   -8.9331 H   0  0  0  0  0  0  0  0  0  0  0  0
   49.7587   19.0198   -6.3541 H   0  0  0  0  0  0  0  0  0  0  0  0
   50.7160   16.6800   -5.9874 H   0  0  0  0  0  0  0  0  0  0  0  0
   51.5240   16.8117   -7.5631 H   0  0  0  0  0  0  0  0  0  0  0  0
   48.2794   17.0105   -5.8195 H   0  0  0  0  0  0  0  0  0  0  0  0
   50.2214   16.6029   -9.6264 H   0  0  0  0  0  0  0  0  0  0  0  0
   46.0792   16.4718   -6.8403 H   0  0  0  0  0  0  0  0  0  0  0  0
   48.0333   16.0335  -10.6657 H   0  0  0  0  0  0  0  0  0  0  0  0
   45.9668   15.9597   -9.2661 H   0  0  0  0  0  0  0  0  0  0  0  0
   50.8059   18.2988   -4.0072 H   0  0  0  0  0  0  0  0  0  0  0  0
   53.6146   19.1340   -3.7735 H   0  0  0  0  0  0  0  0  0  0  0  0
   51.8949   17.6816   -1.7059 H   0  0  0  0  0  0  0  0  0  0  0  0
   52.1149   19.4422   -1.8156 H   0  0  0  0  0  0  0  0  0  0  0  0
   54.4467   17.5070   -1.3431 H   0  0  0  0  0  0  0  0  0  0  0  0
   55.5787   19.5667   -0.6085 H   0  0  0  0  0  0  0  0  0  0  0  0
   54.1123   20.5223   -0.9374 H   0  0  0  0  0  0  0  0  0  0  0  0
   55.0102   19.7755   -2.2754 H   0  0  0  0  0  0  0  0  0  0  0  0
   52.6090   17.2761    0.2738 H   0  0  0  0  0  0  0  0  0  0  0  0
   52.5284   19.0404    0.4690 H   0  0  0  0  0  0  0  0  0  0  0  0
   53.9663   18.1435    1.0369 H   0  0  0  0  0  0  0  0  0  0  0  0
   51.8578   16.0682   -3.7895 H   0  0  0  0  0  0  0  0  0  0  0  0
   54.4252   14.5356   -4.0161 H   0  0  0  0  0  0  0  0  0  0  0  0
   53.3591   12.7690   -2.6273 H   0  0  0  0  0  0  0  0  0  0  0  0
   51.9349   13.8152   -2.4014 H   0  0  0  0  0  0  0  0  0  0  0  0
   53.5084   14.3031   -1.7336 H   0  0  0  0  0  0  0  0  0  0  0  0
  1  2  2  0  0  0  0
  1  3  1  0  0  0  0
  1 11  1  0  0  0  0
  3  4  1  0  0  0  0
  4  5  1  0  0  0  0
  4 37  1  0  0  0  0
  4 38  1  0  0  0  0
  5  6  2  0  0  0  0
  5  7  1  0  0  0  0
  6  8  1  0  0  0  0
  6 39  1  0  0  0  0
  7  9  2  0  0  0  0
  7 40  1  0  0  0  0
  8 10  2  0  0  0  0
  8 41  1  0  0  0  0
  9 10  1  0  0  0  0
  9 42  1  0  0  0  0
 10 43  1  0  0  0  0
 11 12  1  0  0  0  0
 11 44  1  0  0  0  0
 12 13  1  0  0  0  0
 12 16  1  0  0  0  0
 12 45  1  1  0  0  0
 13 14  2  6  0  0  0
 13 15  1  0  0  0  0
 13 23  1  0  0  0  0
 16 17  1  0  0  0  0
 16 46  1  0  0  0  0
 16 47  1  0  0  0  0
 17 18  2  0  0  0  0
 17 19  1  0  0  0  0
 18 20  1  0  0  0  0
 18 48  1  0  0  0  0
 19 21  2  0  0  0  0
 19 49  1  0  0  0  0
 20 22  2  0  0  0  0
 20 50  1  0  0  0  0
 21 22  1  0  0  0  0
 21 51  1  0  0  0  0
 22 52  1  0  0  0  0
 23 24  1  0  0  0  0
 23 53  1  0  0  0  0
 24 27  1  0  0  0  0
 24 25  1  0  0  0  0
 24 54  1  6  0  0  0
 25 26  2  0  0  0  0
 25 31  1  0  0  0  0
 27 28  1  0  0  0  0
 27 55  1  0  0  0  0
 27 56  1  0  0  0  0
 28 29  1  0  0  0  0
 28 30  1  0  0  0  0
 28 57  1  0  0  0  0
 29 58  1  0  0  0  0
 29 59  1  0  0  0  0
 29 60  1  0  0  0  0
 30 61  1  0  0  0  0
 30 62  1  0  0  0  0
 30 63  1  0  0  0  0
 31 32  1  0  0  0  0
 31 64  1  0  0  0  0
 32 35  1  0  0  0  0
 32 33  1  0  0  0  0
 32 65  1  6  0  0  0
 33 34  2  0  0  0  0
 33 36  1  0  0  0  0
 35 66  1  0  0  0  0
 35 67  1  0  0  0  0
 35 68  1  0  0  0  0
M  END
$$$$
