0QY
 OpenBabel04111918473D

 51 55  0  0  1  0  0  0  0  0999 V2000
   25.1594   -8.1791   13.0048 O   0  0  0  0  0  0  0  0  0  0  0  0
   24.7117   -7.9828   14.1349 C   0  0  0  0  0  0  0  0  0  0  0  0
   24.3743   -9.2365   14.9946 C   0  0  1  0  0  0  0  0  0  0  0  0
   23.6868  -10.3217   14.1521 N   0  3  0  0  0  0  0  0  0  0  0  0
   24.6188  -11.4728   13.9672 C   0  0  0  0  0  0  0  0  0  0  0  0
   25.5209  -11.4103   15.1731 C   0  0  0  0  0  0  0  0  0  0  0  0
   25.6389   -9.9298   15.5119 C   0  0  0  0  0  0  0  0  0  0  0  0
   24.4794   -6.7339   14.7128 N   0  0  0  0  0  0  0  0  0  0  0  0
   24.7551   -5.4769   14.1314 C   0  0  0  0  0  0  0  0  0  0  0  0
   24.8146   -4.3668   14.9184 C   0  0  0  0  0  0  0  0  0  0  0  0
   25.1462   -2.9472   14.4129 C   0  0  0  0  0  0  0  0  0  0  0  0
   24.9751   -5.3797   12.6022 C   0  0  0  0  0  0  0  0  0  0  0  0
   25.2698   -3.9813   12.1329 C   0  0  0  0  0  0  0  0  0  0  0  0
   25.3488   -2.8916   12.9455 C   0  0  0  0  0  0  0  0  0  0  0  0
   25.6359   -1.8341   12.1304 N   0  3  0  0  0  0  0  0  0  0  0  0
   25.7163   -2.3193   10.8284 C   0  0  0  0  0  0  0  0  0  0  0  0
   26.0263   -1.4391    9.6353 C   0  0  0  0  0  0  0  0  0  0  0  0
   24.8199   -1.1354    8.7952 C   0  0  2  0  0  0  0  0  0  0  0  0
   24.4101   -1.8001    7.6529 C   0  0  0  0  0  0  0  0  0  0  0  0
   23.2550   -1.2185    7.1994 N   0  3  0  0  0  0  0  0  0  0  0  0
   22.9068   -0.1563    8.0112 C   0  0  2  0  0  0  0  0  0  0  0  0
   21.8232    0.7328    7.9477 C   0  0  0  0  0  0  0  0  0  0  0  0
   21.7424    1.7361    8.9239 C   0  0  0  0  0  0  0  0  0  0  0  0
   22.7106    1.8514    9.9156 C   0  0  0  0  0  0  0  0  0  0  0  0
   23.7833    0.9583    9.9619 C   0  0  0  0  0  0  0  0  0  0  0  0
   23.8839   -0.0728    9.0027 C   0  0  1  0  0  0  0  0  0  0  0  0
   25.5174   -3.6270   10.8187 N   0  0  0  0  0  0  0  0  0  0  0  0
   23.6739   -8.9938   15.7985 H   0  0  0  0  0  0  0  0  0  0  0  0
   22.8185  -10.6357   14.6022 H   0  0  0  0  0  0  0  0  0  0  0  0
   25.1567  -11.3187   13.0277 H   0  0  0  0  0  0  0  0  0  0  0  0
   24.0290  -12.3945   13.9201 H   0  0  0  0  0  0  0  0  0  0  0  0
   26.4968  -11.8626   14.9631 H   0  0  0  0  0  0  0  0  0  0  0  0
   25.0802  -11.9632   16.0110 H   0  0  0  0  0  0  0  0  0  0  0  0
   25.7389   -9.7994   16.5946 H   0  0  0  0  0  0  0  0  0  0  0  0
   26.5445   -9.5169   15.0539 H   0  0  0  0  0  0  0  0  0  0  0  0
   24.1193   -6.6966   15.6623 H   0  0  0  0  0  0  0  0  0  0  0  0
   24.6718   -4.4295   15.9936 H   0  0  0  0  0  0  0  0  0  0  0  0
   26.0571   -2.6046   14.9180 H   0  0  0  0  0  0  0  0  0  0  0  0
   24.3297   -2.2728   14.6994 H   0  0  0  0  0  0  0  0  0  0  0  0
   24.0588   -5.7288   12.1110 H   0  0  0  0  0  0  0  0  0  0  0  0
   25.8164   -6.0131   12.3135 H   0  0  0  0  0  0  0  0  0  0  0  0
   25.7638   -0.8683   12.3879 H   0  0  0  0  0  0  0  0  0  0  0  0
   26.7852   -1.9348    9.0163 H   0  0  0  0  0  0  0  0  0  0  0  0
   26.4808   -0.4964    9.9599 H   0  0  0  0  0  0  0  0  0  0  0  0
   24.8431   -2.6476    7.1366 H   0  0  0  0  0  0  0  0  0  0  0  0
   22.7317   -1.5212    6.3877 H   0  0  0  0  0  0  0  0  0  0  0  0
   21.0631    0.6586    7.1756 H   0  0  0  0  0  0  0  0  0  0  0  0
   20.9150    2.4416    8.9067 H   0  0  0  0  0  0  0  0  0  0  0  0
   22.6369    2.6403   10.6611 H   0  0  0  0  0  0  0  0  0  0  0  0
   24.5373    1.0610   10.7315 H   0  0  0  0  0  0  0  0  0  0  0  0
   23.4401   -9.9366   13.2257 H   0  0  0  0  0  0  0  0  0  0  0  0
  1  2  2  0  0  0  0
  2  3  1  0  0  0  0
  2  8  1  0  0  0  0
  3  4  1  0  0  0  0
  3  7  1  0  0  0  0
  3 28  1  1  0  0  0
  4  5  1  0  0  0  0
  4 29  1  0  0  0  0
  4 51  1  0  0  0  0
  5  6  1  0  0  0  0
  5 30  1  0  0  0  0
  5 31  1  0  0  0  0
  6  7  1  0  0  0  0
  6 32  1  0  0  0  0
  6 33  1  0  0  0  0
  7 34  1  0  0  0  0
  7 35  1  0  0  0  0
  8  9  1  0  0  0  0
  8 36  1  0  0  0  0
  9 10  2  0  0  0  0
  9 12  1  0  0  0  0
 10 11  1  0  0  0  0
 10 37  1  0  0  0  0
 11 14  1  0  0  0  0
 11 38  1  0  0  0  0
 11 39  1  0  0  0  0
 12 13  1  0  0  0  0
 12 40  1  0  0  0  0
 12 41  1  0  0  0  0
 13 14  2  0  0  0  0
 13 27  1  0  0  0  0
 14 15  1  0  0  0  0
 15 16  2  0  0  0  0
 15 42  1  0  0  0  0
 16 17  1  0  0  0  0
 16 27  1  0  0  0  0
 17 43  1  0  0  0  0
 17 44  1  0  0  0  0
 18 17  1  6  0  0  0
 18 19  1  0  0  0  0
 18 26  1  0  0  0  0
 19 20  1  0  0  0  0
 19 45  1  0  0  0  0
 20 46  1  0  0  0  0
 21 20  1  6  0  0  0
 21 22  1  0  0  0  0
 21 26  1  0  0  0  0
 22 23  1  0  0  0  0
 22 47  1  0  0  0  0
 23 24  1  0  0  0  0
 23 48  1  0  0  0  0
 24 25  1  0  0  0  0
 24 49  1  0  0  0  0
 25 50  1  0  0  0  0
 26 25  1  1  0  0  0
M  CHG  3   4   1  15   1  20   1
M  END
$$$$
