0R3
 OpenBabel04111918483D

 60 62  0  0  1  0  0  0  0  0999 V2000
  -16.2019    2.5643  -15.1325 C   0  0  0  0  0  0  0  0  0  0  0  0
  -17.1247    3.5976  -15.0812 C   0  0  0  0  0  0  0  0  0  0  0  0
  -16.6686    5.0394  -14.2637 Cl  0  0  0  0  0  0  0  0  0  0  0  0
  -18.3580    3.4910  -15.7207 C   0  0  0  0  0  0  0  0  0  0  0  0
  -18.6607    2.3303  -16.4385 C   0  0  0  0  0  0  0  0  0  0  0  0
  -17.7222    1.2906  -16.5103 C   0  0  0  0  0  0  0  0  0  0  0  0
  -16.4779    1.4032  -15.8661 C   0  0  0  0  0  0  0  0  0  0  0  0
  -15.3826    0.3482  -15.9545 C   0  0  1  0  0  0  0  0  0  0  0  0
  -15.8866   -1.0336  -15.5933 C   0  0  0  0  0  0  0  0  0  0  0  0
  -14.7515   -2.0473  -15.4684 C   0  0  1  0  0  0  0  0  0  0  0  0
  -13.9611   -1.9428  -14.1455 C   0  0  0  0  0  0  0  0  0  0  0  0
  -14.7757   -2.2656  -12.8773 C   0  0  0  0  0  0  0  0  0  0  0  0
  -15.5238   -1.3173  -12.4481 O   0  0  0  0  0  0  0  0  0  0  0  0
  -14.6253   -3.4093  -12.4162 O   0  0  0  0  0  0  0  0  0  0  0  0
  -15.3911   -3.4371  -15.5663 C   0  0  0  0  0  0  0  0  0  0  0  0
  -13.7518   -1.9545  -16.6103 C   0  0  0  0  0  0  0  0  0  0  0  0
  -12.8719   -2.8279  -16.7106 O   0  0  0  0  0  0  0  0  0  0  0  0
  -13.8230   -0.8850  -17.5092 N   0  0  0  0  0  0  0  0  0  0  0  0
  -13.0827   -1.0151  -18.7798 C   0  0  1  0  0  0  0  0  0  0  0  0
  -11.5758   -1.2063  -18.5007 C   0  0  0  0  0  0  0  0  0  0  0  0
  -10.7109   -0.0631  -19.0101 C   0  0  0  0  0  0  0  0  0  0  0  0
  -13.6918   -2.1220  -19.6939 C   0  0  1  0  0  0  0  0  0  0  0  0
  -15.1147   -2.2439  -19.5322 O   0  0  0  0  0  0  0  0  0  0  0  0
  -13.4993   -1.7619  -21.1564 C   0  0  0  0  0  0  0  0  0  0  0  0
  -14.6537    0.3193  -17.3069 C   0  0  2  0  0  0  0  0  0  0  0  0
  -13.9071    1.6479  -17.5527 C   0  0  0  0  0  0  0  0  0  0  0  0
  -12.8079    2.0525  -16.7734 C   0  0  0  0  0  0  0  0  0  0  0  0
  -12.2160    3.2982  -17.0109 C   0  0  0  0  0  0  0  0  0  0  0  0
  -12.7247    4.1420  -18.0059 C   0  0  0  0  0  0  0  0  0  0  0  0
  -12.0110    5.6934  -18.2395 Cl  0  0  0  0  0  0  0  0  0  0  0  0
  -13.8104    3.7590  -18.7916 C   0  0  0  0  0  0  0  0  0  0  0  0
  -14.3994    2.5138  -18.5614 C   0  0  0  0  0  0  0  0  0  0  0  0
  -15.2533    2.6780  -14.6088 H   0  0  0  0  0  0  0  0  0  0  0  0
  -19.0704    4.3084  -15.6590 H   0  0  0  0  0  0  0  0  0  0  0  0
  -19.6200    2.2368  -16.9434 H   0  0  0  0  0  0  0  0  0  0  0  0
  -17.9625    0.3901  -17.0707 H   0  0  0  0  0  0  0  0  0  0  0  0
  -14.6401    0.6043  -15.1934 H   0  0  0  0  0  0  0  0  0  0  0  0
  -16.5900   -1.3785  -16.3622 H   0  0  0  0  0  0  0  0  0  0  0  0
  -16.4238   -0.9740  -14.6463 H   0  0  0  0  0  0  0  0  0  0  0  0
  -13.4940   -0.9474  -14.0906 H   0  0  0  0  0  0  0  0  0  0  0  0
  -13.1258   -2.6736  -14.1765 H   0  0  0  0  0  0  0  0  0  0  0  0
  -15.9684   -3.5181  -16.4965 H   0  0  0  0  0  0  0  0  0  0  0  0
  -16.0687   -3.6066  -14.7238 H   0  0  0  0  0  0  0  0  0  0  0  0
  -14.6237   -4.2175  -15.5680 H   0  0  0  0  0  0  0  0  0  0  0  0
  -13.2041   -0.0773  -19.3260 H   0  0  0  0  0  0  0  0  0  0  0  0
  -11.2271   -2.1413  -18.9505 H   0  0  0  0  0  0  0  0  0  0  0  0
  -11.4153   -1.2693  -17.4173 H   0  0  0  0  0  0  0  0  0  0  0  0
   -9.6567   -0.2437  -18.7646 H   0  0  0  0  0  0  0  0  0  0  0  0
  -11.0085    0.8849  -18.5533 H   0  0  0  0  0  0  0  0  0  0  0  0
  -10.8028    0.0286  -20.0968 H   0  0  0  0  0  0  0  0  0  0  0  0
  -13.2333   -3.0922  -19.4747 H   0  0  0  0  0  0  0  0  0  0  0  0
  -15.5141   -1.3894  -19.7624 H   0  0  0  0  0  0  0  0  0  0  0  0
  -13.9492   -2.5317  -21.7928 H   0  0  0  0  0  0  0  0  0  0  0  0
  -12.4399   -1.6652  -21.3887 H   0  0  0  0  0  0  0  0  0  0  0  0
  -14.0060   -0.8105  -21.3732 H   0  0  0  0  0  0  0  0  0  0  0  0
  -15.4110    0.2704  -18.0947 H   0  0  0  0  0  0  0  0  0  0  0  0
  -12.4105    1.4063  -15.9903 H   0  0  0  0  0  0  0  0  0  0  0  0
  -11.3618    3.6145  -16.4160 H   0  0  0  0  0  0  0  0  0  0  0  0
  -14.1944    4.4228  -19.5639 H   0  0  0  0  0  0  0  0  0  0  0  0
  -15.2544    2.2079  -19.1633 H   0  0  0  0  0  0  0  0  0  0  0  0
  1  2  2  0  0  0  0
  1  7  1  0  0  0  0
  1 33  1  0  0  0  0
  2  3  1  0  0  0  0
  2  4  1  0  0  0  0
  4  5  2  0  0  0  0
  4 34  1  0  0  0  0
  5  6  1  0  0  0  0
  5 35  1  0  0  0  0
  6  7  2  0  0  0  0
  6 36  1  0  0  0  0
  7  8  1  0  0  0  0
  8  9  1  0  0  0  0
  8 25  1  0  0  0  0
  8 37  1  1  0  0  0
  9 10  1  0  0  0  0
  9 38  1  0  0  0  0
  9 39  1  0  0  0  0
 10 11  1  1  0  0  0
 10 15  1  0  0  0  0
 10 16  1  0  0  0  0
 11 12  1  0  0  0  0
 11 40  1  0  0  0  0
 11 41  1  0  0  0  0
 12 13  2  0  0  0  0
 12 14  1  0  0  0  0
 15 42  1  0  0  0  0
 15 43  1  0  0  0  0
 15 44  1  0  0  0  0
 16 17  2  0  0  0  0
 16 18  1  0  0  0  0
 18 19  1  0  0  0  0
 18 25  1  0  0  0  0
 19 20  1  0  0  0  0
 19 22  1  0  0  0  0
 19 45  1  6  0  0  0
 20 21  1  0  0  0  0
 20 46  1  0  0  0  0
 20 47  1  0  0  0  0
 21 48  1  0  0  0  0
 21 49  1  0  0  0  0
 21 50  1  0  0  0  0
 22 23  1  0  0  0  0
 22 24  1  0  0  0  0
 22 51  1  1  0  0  0
 23 52  1  0  0  0  0
 24 53  1  0  0  0  0
 24 54  1  0  0  0  0
 24 55  1  0  0  0  0
 25 26  1  0  0  0  0
 25 56  1  6  0  0  0
 26 27  2  0  0  0  0
 26 32  1  0  0  0  0
 27 28  1  0  0  0  0
 27 57  1  0  0  0  0
 28 29  2  0  0  0  0
 28 58  1  0  0  0  0
 29 30  1  0  0  0  0
 29 31  1  0  0  0  0
 31 32  2  0  0  0  0
 31 59  1  0  0  0  0
 32 60  1  0  0  0  0
M  END
$$$$
