0RT
 OpenBabel04111919073D

 48 51  0  0  0  0  0  0  0  0999 V2000
   -6.6032    6.4030   11.9120 F   0  0  0  0  0  0  0  0  0  0  0  0
   -6.4113    7.7192   12.1032 C   0  0  0  0  0  0  0  0  0  0  0  0
   -6.6166    8.3518   10.9224 F   0  0  0  0  0  0  0  0  0  0  0  0
   -5.1145    7.9096   12.4340 F   0  0  0  0  0  0  0  0  0  0  0  0
   -7.3137    8.2854   13.1886 C   0  0  0  0  0  0  0  0  0  0  0  0
   -8.7641    8.2227   12.8162 C   0  0  0  0  0  0  0  0  0  0  0  0
   -9.6913    6.8042   13.0541 S   0  0  0  0  0  0  0  0  0  0  0  0
   -9.5224    9.2192   12.2446 C   0  0  0  0  0  0  0  0  0  0  0  0
  -10.8976    8.8522   12.0338 C   0  0  0  0  0  0  0  0  0  0  0  0
  -11.0865    7.5307   12.3841 C   0  0  0  0  0  0  0  0  0  0  0  0
  -12.2162    6.8133   12.2428 N   0  0  0  0  0  0  0  0  0  0  0  0
  -13.1963    7.5283   11.6978 C   0  0  0  0  0  0  0  0  0  0  0  0
  -13.1657    8.8278   11.3537 N   0  0  0  0  0  0  0  0  0  0  0  0
  -12.0229    9.5412   11.5286 C   0  0  0  0  0  0  0  0  0  0  0  0
  -12.0203   10.8872   11.1634 N   0  0  0  0  0  0  0  0  0  0  0  0
  -11.2354   11.8493   11.9451 C   0  0  0  0  0  0  0  0  0  0  0  0
  -12.1173   12.9179   12.5935 C   0  0  0  0  0  0  0  0  0  0  0  0
  -13.2742   11.3798   10.5661 C   0  0  0  0  0  0  0  0  0  0  0  0
  -13.1897   12.8943   10.2943 C   0  0  0  0  0  0  0  0  0  0  0  0
  -12.9875   13.6065   11.5896 N   0  0  0  0  0  0  0  0  0  0  0  0
  -13.6201   14.7214   11.9179 C   0  0  0  0  0  0  0  0  0  0  0  0
  -13.5724   15.3620   13.5295 S   0  0  0  0  0  0  0  0  0  0  0  0
  -14.3950   16.9071   13.0430 C   0  0  0  0  0  0  0  0  0  0  0  0
  -15.4270   17.2523   14.1143 C   0  0  0  0  0  0  0  0  0  0  0  0
  -13.3184   17.9795   12.8863 C   0  0  0  0  0  0  0  0  0  0  0  0
  -15.0680   16.5792   11.7000 C   0  0  0  0  0  0  0  0  0  0  0  0
  -14.3481   15.4427   11.0968 N   0  0  0  0  0  0  0  0  0  0  0  0
   -7.0454    9.3340   13.3504 H   0  0  0  0  0  0  0  0  0  0  0  0
   -7.1341    7.7687   14.1349 H   0  0  0  0  0  0  0  0  0  0  0  0
   -9.0930   10.1762   11.9850 H   0  0  0  0  0  0  0  0  0  0  0  0
  -14.1274    7.0050   11.5100 H   0  0  0  0  0  0  0  0  0  0  0  0
  -10.5242   12.3327   11.2630 H   0  0  0  0  0  0  0  0  0  0  0  0
  -10.6630   11.4029   12.7588 H   0  0  0  0  0  0  0  0  0  0  0  0
  -11.4552   13.6513   13.0709 H   0  0  0  0  0  0  0  0  0  0  0  0
  -12.7653   12.4595   13.3492 H   0  0  0  0  0  0  0  0  0  0  0  0
  -14.1159   11.2072   11.2509 H   0  0  0  0  0  0  0  0  0  0  0  0
  -13.4768   10.8571    9.6225 H   0  0  0  0  0  0  0  0  0  0  0  0
  -14.1209   13.2188    9.8266 H   0  0  0  0  0  0  0  0  0  0  0  0
  -12.3514   13.1367    9.6326 H   0  0  0  0  0  0  0  0  0  0  0  0
  -15.9521   18.1757   13.8639 H   0  0  0  0  0  0  0  0  0  0  0  0
  -14.9618   17.3805   15.0990 H   0  0  0  0  0  0  0  0  0  0  0  0
  -16.1799   16.4599   14.2049 H   0  0  0  0  0  0  0  0  0  0  0  0
  -13.7623   18.9373   12.5957 H   0  0  0  0  0  0  0  0  0  0  0  0
  -12.5900   17.7122   12.1106 H   0  0  0  0  0  0  0  0  0  0  0  0
  -12.7656   18.1423   13.8199 H   0  0  0  0  0  0  0  0  0  0  0  0
  -15.0421   17.4246   11.0075 H   0  0  0  0  0  0  0  0  0  0  0  0
  -16.1161   16.2749   11.8236 H   0  0  0  0  0  0  0  0  0  0  0  0
  -14.4263   15.2126   10.1231 H   0  0  0  0  0  0  0  0  0  0  0  0
  1  2  1  0  0  0  0
  2  3  1  0  0  0  0
  2  4  1  0  0  0  0
  2  5  1  0  0  0  0
  5  6  1  0  0  0  0
  5 28  1  0  0  0  0
  5 29  1  0  0  0  0
  6  7  1  0  0  0  0
  6  8  2  0  0  0  0
  7 10  1  0  0  0  0
  8  9  1  0  0  0  0
  8 30  1  0  0  0  0
  9 10  2  0  0  0  0
  9 14  1  0  0  0  0
 10 11  1  0  0  0  0
 11 12  2  0  0  0  0
 12 13  1  0  0  0  0
 12 31  1  0  0  0  0
 13 14  2  0  0  0  0
 14 15  1  0  0  0  0
 15 16  1  0  0  0  0
 15 18  1  0  0  0  0
 16 17  1  0  0  0  0
 16 32  1  0  0  0  0
 16 33  1  0  0  0  0
 17 20  1  0  0  0  0
 17 34  1  0  0  0  0
 17 35  1  0  0  0  0
 18 19  1  0  0  0  0
 18 36  1  0  0  0  0
 18 37  1  0  0  0  0
 19 20  1  0  0  0  0
 19 38  1  0  0  0  0
 19 39  1  0  0  0  0
 20 21  2  0  0  0  0
 21 22  1  0  0  0  0
 21 27  1  0  0  0  0
 22 23  1  0  0  0  0
 23 24  1  0  0  0  0
 23 25  1  0  0  0  0
 23 26  1  0  0  0  0
 24 40  1  0  0  0  0
 24 41  1  0  0  0  0
 24 42  1  0  0  0  0
 25 43  1  0  0  0  0
 25 44  1  0  0  0  0
 25 45  1  0  0  0  0
 26 27  1  0  0  0  0
 26 46  1  0  0  0  0
 26 47  1  0  0  0  0
 27 48  1  0  0  0  0
M  END
$$$$
