0S2
 OpenBabel04111918463D

 57 58  0  0  1  0  0  0  0  0999 V2000
    6.2442   31.8614   76.3964 C   0  0  0  0  0  0  0  0  0  0  0  0
    7.0494   33.1073   76.7714 C   0  0  0  0  0  0  0  0  0  0  0  0
    7.3549   35.3252   75.6945 C   0  0  0  0  0  0  0  0  0  0  0  0
    8.2980   32.6883   77.5548 C   0  0  0  0  0  0  0  0  0  0  0  0
    7.8234   36.1388   74.4749 C   0  0  2  0  0  0  0  0  0  0  0  0
    9.2944   36.5199   74.6926 C   0  0  0  0  0  0  0  0  0  0  0  0
    9.8384   37.4086   73.5809 C   0  0  0  0  0  0  0  0  0  0  0  0
    8.9549   38.6387   73.3544 C   0  0  2  0  0  0  0  0  0  0  0  0
    7.4974   38.2270   73.1130 C   0  0  0  0  0  0  0  0  0  0  0  0
    6.9683   37.3902   74.2770 C   0  0  0  0  0  0  0  0  0  0  0  0
   10.4330   31.8341   72.2740 C   0  0  0  0  0  0  0  0  0  0  0  0
    9.1171   32.9032   74.0908 C   0  0  0  0  0  0  0  0  0  0  0  0
    9.2342   32.3190   72.8527 C   0  0  0  0  0  0  0  0  0  0  0  0
    7.7505   32.2177   72.0475 S   0  0  0  0  0  0  0  0  0  0  0  0
    6.9113   32.9894   73.3319 C   0  0  0  0  0  0  0  0  0  0  0  0
    7.7693   33.3150   74.3765 C   0  0  0  0  0  0  0  0  0  0  0  0
    7.4112   33.9292   75.5944 N   0  0  0  0  0  0  0  0  0  0  0  0
    5.4487   33.2474   73.2183 C   0  0  0  0  0  0  0  0  0  0  0  0
    4.8216   32.6090   72.3145 O   0  0  0  0  0  0  0  0  0  0  0  0
    4.9381   34.0930   74.0144 O   0  0  0  0  0  0  0  0  0  0  0  0
    7.0874   35.9133   76.7523 O   0  0  0  0  0  0  0  0  0  0  0  0
    9.4955   39.4627   72.1910 C   0  0  0  0  0  0  0  0  0  0  0  0
   11.4185   31.4038   71.7168 C   0  0  0  0  0  0  0  0  0  0  0  0
   12.6013   30.8744   71.0183 C   0  0  0  0  0  0  0  0  0  0  0  0
   13.8555   31.5202   71.6200 C   0  0  0  0  0  0  0  0  0  0  0  0
   12.6662   29.3538   71.1859 C   0  0  0  0  0  0  0  0  0  0  0  0
   12.5312   31.2218   69.5279 C   0  0  0  0  0  0  0  0  0  0  0  0
    5.9907   31.2680   77.2792 H   0  0  0  0  0  0  0  0  0  0  0  0
    6.8090   31.2130   75.7175 H   0  0  0  0  0  0  0  0  0  0  0  0
    5.3106   32.1435   75.9015 H   0  0  0  0  0  0  0  0  0  0  0  0
    6.4277   33.7106   77.4467 H   0  0  0  0  0  0  0  0  0  0  0  0
    8.8820   33.5584   77.8640 H   0  0  0  0  0  0  0  0  0  0  0  0
    8.9437   32.0444   76.9498 H   0  0  0  0  0  0  0  0  0  0  0  0
    8.0252   32.1241   78.4565 H   0  0  0  0  0  0  0  0  0  0  0  0
    7.7411   35.5595   73.5526 H   0  0  0  0  0  0  0  0  0  0  0  0
    9.9156   35.6222   74.7708 H   0  0  0  0  0  0  0  0  0  0  0  0
    9.3949   37.0503   75.6486 H   0  0  0  0  0  0  0  0  0  0  0  0
    9.9161   36.8252   72.6547 H   0  0  0  0  0  0  0  0  0  0  0  0
   10.8545   37.7285   73.8428 H   0  0  0  0  0  0  0  0  0  0  0  0
    8.9905   39.2628   74.2575 H   0  0  0  0  0  0  0  0  0  0  0  0
    7.4205   37.6467   72.1833 H   0  0  0  0  0  0  0  0  0  0  0  0
    6.8708   39.1165   72.9899 H   0  0  0  0  0  0  0  0  0  0  0  0
    6.9673   37.9985   75.1894 H   0  0  0  0  0  0  0  0  0  0  0  0
    5.9279   37.1022   74.0855 H   0  0  0  0  0  0  0  0  0  0  0  0
    9.9613   33.0468   74.7532 H   0  0  0  0  0  0  0  0  0  0  0  0
   10.5354   39.7527   72.3770 H   0  0  0  0  0  0  0  0  0  0  0  0
    8.9089   40.3764   72.0576 H   0  0  0  0  0  0  0  0  0  0  0  0
    9.4648   38.8941   71.2556 H   0  0  0  0  0  0  0  0  0  0  0  0
   14.7600   31.1434   71.1307 H   0  0  0  0  0  0  0  0  0  0  0  0
   13.9330   31.3122   72.6912 H   0  0  0  0  0  0  0  0  0  0  0  0
   13.8311   32.6085   71.4916 H   0  0  0  0  0  0  0  0  0  0  0  0
   11.7741   28.8721   70.7651 H   0  0  0  0  0  0  0  0  0  0  0  0
   12.7241   29.0715   72.2430 H   0  0  0  0  0  0  0  0  0  0  0  0
   13.5412   28.9383   70.6766 H   0  0  0  0  0  0  0  0  0  0  0  0
   12.4851   32.3063   69.3767 H   0  0  0  0  0  0  0  0  0  0  0  0
   11.6454   30.7823   69.0565 H   0  0  0  0  0  0  0  0  0  0  0  0
   13.4150   30.8478   68.9982 H   0  0  0  0  0  0  0  0  0  0  0  0
  1  2  1  0  0  0  0
  1 28  1  0  0  0  0
  1 29  1  0  0  0  0
  1 30  1  0  0  0  0
  2  4  1  0  0  0  0
  2 17  1  0  0  0  0
  2 31  1  0  0  0  0
  3  5  1  0  0  0  0
  3 17  1  0  0  0  0
  3 21  2  0  0  0  0
  4 32  1  0  0  0  0
  4 33  1  0  0  0  0
  4 34  1  0  0  0  0
  5  6  1  0  0  0  0
  5 10  1  0  0  0  0
  5 35  1  6  0  0  0
  6  7  1  0  0  0  0
  6 36  1  0  0  0  0
  6 37  1  0  0  0  0
  7  8  1  0  0  0  0
  7 38  1  0  0  0  0
  7 39  1  0  0  0  0
  8  9  1  0  0  0  0
  8 22  1  0  0  0  0
  8 40  1  1  0  0  0
  9 10  1  0  0  0  0
  9 41  1  0  0  0  0
  9 42  1  0  0  0  0
 10 43  1  0  0  0  0
 10 44  1  0  0  0  0
 11 13  1  0  0  0  0
 11 23  3  0  0  0  0
 12 13  2  0  0  0  0
 12 16  1  0  0  0  0
 12 45  1  0  0  0  0
 13 14  1  0  0  0  0
 14 15  1  0  0  0  0
 15 16  2  0  0  0  0
 15 18  1  0  0  0  0
 16 17  1  0  0  0  0
 18 19  2  0  0  0  0
 18 20  1  0  0  0  0
 22 46  1  0  0  0  0
 22 47  1  0  0  0  0
 22 48  1  0  0  0  0
 23 24  1  0  0  0  0
 24 25  1  0  0  0  0
 24 26  1  0  0  0  0
 24 27  1  0  0  0  0
 25 49  1  0  0  0  0
 25 50  1  0  0  0  0
 25 51  1  0  0  0  0
 26 52  1  0  0  0  0
 26 53  1  0  0  0  0
 26 54  1  0  0  0  0
 27 55  1  0  0  0  0
 27 56  1  0  0  0  0
 27 57  1  0  0  0  0
M  END
$$$$
