0SR
 OpenBabel04111918513D

 63 65  0  0  0  0  0  0  0  0999 V2000
  -39.6819   23.0852  102.0062 O   0  0  0  0  0  0  0  0  0  0  0  0
  -40.4226   22.1559  102.3337 C   0  0  0  0  0  0  0  0  0  0  0  0
  -40.4057   21.6062  103.6357 N   0  0  0  0  0  0  0  0  0  0  0  0
  -39.4434   21.9939  104.5861 C   0  0  0  0  0  0  0  0  0  0  0  0
  -38.9657   23.2592  104.8512 C   0  0  0  0  0  0  0  0  0  0  0  0
  -37.9983   23.0891  105.8749 C   0  0  0  0  0  0  0  0  0  0  0  0
  -37.1661   24.1632  106.5564 C   0  0  0  0  0  0  0  0  0  0  0  0
  -36.7777   25.2452  105.5487 C   0  0  0  0  0  0  0  0  0  0  0  0
  -35.8901   23.5650  107.1535 C   0  0  0  0  0  0  0  0  0  0  0  0
  -37.9847   24.8015  107.6801 C   0  0  0  0  0  0  0  0  0  0  0  0
  -37.9481   21.8242  106.3029 N   0  0  0  0  0  0  0  0  0  0  0  0
  -38.8025   21.1566  105.4962 N   0  3  0  0  0  0  0  0  0  0  0  0
  -38.8665   19.7396  105.5608 C   0  0  0  0  0  0  0  0  0  0  0  0
  -38.8670   19.1037  106.8060 C   0  0  0  0  0  0  0  0  0  0  0  0
  -38.8611   18.9739  104.3886 C   0  0  0  0  0  0  0  0  0  0  0  0
  -38.8769   17.5770  104.4672 C   0  0  0  0  0  0  0  0  0  0  0  0
  -38.9049   16.9371  105.7115 C   0  0  0  0  0  0  0  0  0  0  0  0
  -38.9325   15.4401  105.7948 C   0  0  0  0  0  0  0  0  0  0  0  0
  -38.9029   17.7086  106.8789 C   0  0  0  0  0  0  0  0  0  0  0  0
  -41.2732   21.5317  101.4590 N   0  0  0  0  0  0  0  0  0  0  0  0
  -41.2774   21.9211  100.0546 C   0  0  0  0  0  0  0  0  0  0  0  0
  -42.0694   23.1962   99.7601 C   0  0  0  0  0  0  0  0  0  0  0  0
  -42.4677   23.1706   98.2864 C   0  0  0  0  0  0  0  0  0  0  0  0
  -42.3733   24.5156   97.6496 N   0  3  0  0  0  0  0  0  0  0  0  0
  -43.4710   25.4516   98.1126 C   0  0  0  0  0  0  0  0  0  0  0  0
  -43.3522   26.7647   97.3485 C   0  0  0  0  0  0  0  0  0  0  0  0
  -43.4097   26.5625   95.9317 O   0  0  0  0  0  0  0  0  0  0  0  0
  -42.3380   25.7400   95.4631 C   0  0  0  0  0  0  0  0  0  0  0  0
  -42.4011   24.3726   96.1278 C   0  0  0  0  0  0  0  0  0  0  0  0
  -40.9929   20.8241  103.8921 H   0  0  0  0  0  0  0  0  0  0  0  0
  -39.2548   24.1979  104.3799 H   0  0  0  0  0  0  0  0  0  0  0  0
  -36.1689   26.0193  106.0242 H   0  0  0  0  0  0  0  0  0  0  0  0
  -37.6701   25.7256  105.1316 H   0  0  0  0  0  0  0  0  0  0  0  0
  -36.2079   24.8082  104.7207 H   0  0  0  0  0  0  0  0  0  0  0  0
  -36.1369   22.7885  107.8882 H   0  0  0  0  0  0  0  0  0  0  0  0
  -35.2962   24.3306  107.6553 H   0  0  0  0  0  0  0  0  0  0  0  0
  -35.2786   23.1048  106.3671 H   0  0  0  0  0  0  0  0  0  0  0  0
  -38.9023   25.2475  107.2821 H   0  0  0  0  0  0  0  0  0  0  0  0
  -37.4062   25.5828  108.1830 H   0  0  0  0  0  0  0  0  0  0  0  0
  -38.2657   24.0443  108.4194 H   0  0  0  0  0  0  0  0  0  0  0  0
  -38.8522   19.6834  107.7261 H   0  0  0  0  0  0  0  0  0  0  0  0
  -38.7597   19.4400  103.4137 H   0  0  0  0  0  0  0  0  0  0  0  0
  -38.8579   16.9791  103.5583 H   0  0  0  0  0  0  0  0  0  0  0  0
  -38.9529   15.1113  106.8398 H   0  0  0  0  0  0  0  0  0  0  0  0
  -38.0436   15.0152  105.3181 H   0  0  0  0  0  0  0  0  0  0  0  0
  -39.8291   15.0574  105.2977 H   0  0  0  0  0  0  0  0  0  0  0  0
  -38.9155   17.2209  107.8521 H   0  0  0  0  0  0  0  0  0  0  0  0
  -41.8967   20.7918  101.7612 H   0  0  0  0  0  0  0  0  0  0  0  0
  -41.6959   21.0982   99.4636 H   0  0  0  0  0  0  0  0  0  0  0  0
  -40.2449   22.0878   99.7180 H   0  0  0  0  0  0  0  0  0  0  0  0
  -41.4625   24.0773  100.0019 H   0  0  0  0  0  0  0  0  0  0  0  0
  -42.9712   23.2266  100.3831 H   0  0  0  0  0  0  0  0  0  0  0  0
  -43.5005   22.8270   98.1654 H   0  0  0  0  0  0  0  0  0  0  0  0
  -41.8017   22.5188   97.7129 H   0  0  0  0  0  0  0  0  0  0  0  0
  -43.3377   25.6067   99.1875 H   0  0  0  0  0  0  0  0  0  0  0  0
  -44.4262   24.9542   97.9155 H   0  0  0  0  0  0  0  0  0  0  0  0
  -42.4112   27.2622   97.6052 H   0  0  0  0  0  0  0  0  0  0  0  0
  -44.1860   27.4084   97.6362 H   0  0  0  0  0  0  0  0  0  0  0  0
  -41.3778   26.2297   95.6603 H   0  0  0  0  0  0  0  0  0  0  0  0
  -42.4408   25.6100   94.3795 H   0  0  0  0  0  0  0  0  0  0  0  0
  -43.3369   23.8626   95.8793 H   0  0  0  0  0  0  0  0  0  0  0  0
  -41.5387   23.7635   95.8462 H   0  0  0  0  0  0  0  0  0  0  0  0
  -41.4715   24.9488   97.8911 H   0  0  0  0  0  0  0  0  0  0  0  0
  1  2  2  0  0  0  0
  2  3  1  0  0  0  0
  2 20  1  0  0  0  0
  3  4  1  0  0  0  0
  3 30  1  0  0  0  0
  4  5  1  0  0  0  0
  4 12  2  0  0  0  0
  5  6  2  0  0  0  0
  5 31  1  0  0  0  0
  6  7  1  0  0  0  0
  6 11  1  0  0  0  0
  7  8  1  0  0  0  0
  7  9  1  0  0  0  0
  7 10  1  0  0  0  0
  8 32  1  0  0  0  0
  8 33  1  0  0  0  0
  8 34  1  0  0  0  0
  9 35  1  0  0  0  0
  9 36  1  0  0  0  0
  9 37  1  0  0  0  0
 10 38  1  0  0  0  0
 10 39  1  0  0  0  0
 10 40  1  0  0  0  0
 11 12  1  0  0  0  0
 12 13  1  0  0  0  0
 13 14  2  0  0  0  0
 13 15  1  0  0  0  0
 14 19  1  0  0  0  0
 14 41  1  0  0  0  0
 15 16  2  0  0  0  0
 15 42  1  0  0  0  0
 16 17  1  0  0  0  0
 16 43  1  0  0  0  0
 17 18  1  0  0  0  0
 17 19  2  0  0  0  0
 18 44  1  0  0  0  0
 18 45  1  0  0  0  0
 18 46  1  0  0  0  0
 19 47  1  0  0  0  0
 20 21  1  0  0  0  0
 20 48  1  0  0  0  0
 21 22  1  0  0  0  0
 21 49  1  0  0  0  0
 21 50  1  0  0  0  0
 22 23  1  0  0  0  0
 22 51  1  0  0  0  0
 22 52  1  0  0  0  0
 23 24  1  0  0  0  0
 23 53  1  0  0  0  0
 23 54  1  0  0  0  0
 24 25  1  0  0  0  0
 24 29  1  0  0  0  0
 24 63  1  0  0  0  0
 25 26  1  0  0  0  0
 25 55  1  0  0  0  0
 25 56  1  0  0  0  0
 26 27  1  0  0  0  0
 26 57  1  0  0  0  0
 26 58  1  0  0  0  0
 27 28  1  0  0  0  0
 28 29  1  0  0  0  0
 28 59  1  0  0  0  0
 28 60  1  0  0  0  0
 29 61  1  0  0  0  0
 29 62  1  0  0  0  0
M  CHG  2  12   1  24   1
M  END
$$$$
