0UQ
 OpenBabel04111918553D

 65 68  0  0  1  0  0  0  0  0999 V2000
   22.3978   34.6398   42.4754 C   0  0  0  0  0  0  0  0  0  0  0  0
   23.4125   34.9250   41.3963 C   0  0  0  0  0  0  0  0  0  0  0  0
   23.1626   36.2493   40.7169 N   0  3  1  0  0  0  0  0  0  0  0  0
   22.9212   37.4188   41.6504 C   0  0  2  0  0  0  0  0  0  0  0  0
   21.8551   37.0926   42.6774 C   0  0  0  0  0  0  0  0  0  0  0  0
   22.1106   35.7947   43.4259 C   0  0  2  0  0  0  0  0  0  0  0  0
   22.4812   38.6362   40.8607 C   0  0  0  0  0  0  0  0  0  0  0  0
   23.0941   35.9080   44.5290 N   0  0  0  0  0  0  0  0  0  0  0  0
   20.7898   35.4668   44.1602 C   0  0  0  0  0  0  0  0  0  0  0  0
   24.4320   36.3769   44.4921 C   0  0  0  0  0  0  0  0  0  0  0  0
   25.5349   35.5640   44.2354 C   0  0  0  0  0  0  0  0  0  0  0  0
   26.8204   36.1166   44.2705 C   0  0  0  0  0  0  0  0  0  0  0  0
   26.9987   37.4649   44.5851 C   0  0  0  0  0  0  0  0  0  0  0  0
   25.8834   38.2457   44.8543 C   0  0  0  0  0  0  0  0  0  0  0  0
   24.6165   37.7066   44.8074 C   0  0  0  0  0  0  0  0  0  0  0  0
   25.9883   39.5459   45.1518 F   0  0  0  0  0  0  0  0  0  0  0  0
   24.2138   36.5291   39.6435 C   0  0  0  0  0  0  0  0  0  0  0  0
   25.6243   36.6520   40.1138 C   0  0  0  0  0  0  0  0  0  0  0  0
   26.4199   35.5163   40.1747 C   0  0  0  0  0  0  0  0  0  0  0  0
   27.7388   35.5921   40.6007 C   0  0  0  0  0  0  0  0  0  0  0  0
   28.2660   36.8197   40.9758 C   0  0  0  0  0  0  0  0  0  0  0  0
   27.4836   37.9655   40.9057 C   0  0  0  0  0  0  0  0  0  0  0  0
   26.1682   37.8799   40.4729 C   0  0  0  0  0  0  0  0  0  0  0  0
   28.5740   34.5200   40.6862 O   0  0  0  0  0  0  0  0  0  0  0  0
   28.2466   33.3893   39.8721 C   0  0  0  0  0  0  0  0  0  0  0  0
   28.4718   33.6925   38.3972 C   0  0  0  0  0  0  0  0  0  0  0  0
   29.1668   32.2625   40.3044 C   0  0  0  0  0  0  0  0  0  0  0  0
   22.6582   35.0697   45.9357 S   0  0  0  0  0  0  0  0  0  0  0  0
   21.1349   34.6256   45.3159 N   0  0  0  0  0  0  0  0  0  0  0  0
   22.5508   36.0213   46.9882 O   0  0  0  0  0  0  0  0  0  0  0  0
   20.0428   34.5551   46.2963 C   0  0  0  0  0  0  0  0  0  0  0  0
   23.4825   33.8667   46.0365 O   0  0  0  0  0  0  0  0  0  0  0  0
   22.7517   33.7789   43.0532 H   0  0  0  0  0  0  0  0  0  0  0  0
   21.4611   34.3447   41.9778 H   0  0  0  0  0  0  0  0  0  0  0  0
   23.3540   34.1472   40.6223 H   0  0  0  0  0  0  0  0  0  0  0  0
   24.4127   34.9325   41.8229 H   0  0  0  0  0  0  0  0  0  0  0  0
   23.8568   37.6466   42.1603 H   0  0  0  0  0  0  0  0  0  0  0  0
   20.8720   37.0345   42.1762 H   0  0  0  0  0  0  0  0  0  0  0  0
   21.8022   37.9153   43.4021 H   0  0  0  0  0  0  0  0  0  0  0  0
   22.2917   39.4710   41.5424 H   0  0  0  0  0  0  0  0  0  0  0  0
   21.5675   38.4252   40.2923 H   0  0  0  0  0  0  0  0  0  0  0  0
   23.2635   38.9499   40.1685 H   0  0  0  0  0  0  0  0  0  0  0  0
   20.1050   34.9269   43.4906 H   0  0  0  0  0  0  0  0  0  0  0  0
   20.3017   36.3909   44.4897 H   0  0  0  0  0  0  0  0  0  0  0  0
   25.4217   34.5052   44.0197 H   0  0  0  0  0  0  0  0  0  0  0  0
   27.6909   35.4963   44.0509 H   0  0  0  0  0  0  0  0  0  0  0  0
   27.9939   37.8968   44.6242 H   0  0  0  0  0  0  0  0  0  0  0  0
   23.7632   38.3328   45.0344 H   0  0  0  0  0  0  0  0  0  0  0  0
   23.9307   37.4476   39.1264 H   0  0  0  0  0  0  0  0  0  0  0  0
   24.1506   35.7137   38.9155 H   0  0  0  0  0  0  0  0  0  0  0  0
   25.9922   34.5688   39.8720 H   0  0  0  0  0  0  0  0  0  0  0  0
   29.2963   36.8885   41.3150 H   0  0  0  0  0  0  0  0  0  0  0  0
   27.8988   38.9285   41.1924 H   0  0  0  0  0  0  0  0  0  0  0  0
   25.5744   38.7860   40.4081 H   0  0  0  0  0  0  0  0  0  0  0  0
   27.2093   33.0766   40.0332 H   0  0  0  0  0  0  0  0  0  0  0  0
   28.2056   32.8255   37.7856 H   0  0  0  0  0  0  0  0  0  0  0  0
   29.5216   33.9499   38.2209 H   0  0  0  0  0  0  0  0  0  0  0  0
   27.8587   34.5426   38.0822 H   0  0  0  0  0  0  0  0  0  0  0  0
   28.9735   31.3600   39.7159 H   0  0  0  0  0  0  0  0  0  0  0  0
   29.0139   32.0403   41.3656 H   0  0  0  0  0  0  0  0  0  0  0  0
   30.2130   32.5604   40.1679 H   0  0  0  0  0  0  0  0  0  0  0  0
   19.1126   34.2812   45.7787 H   0  0  0  0  0  0  0  0  0  0  0  0
   19.8958   35.5371   46.7645 H   0  0  0  0  0  0  0  0  0  0  0  0
   20.2597   33.8078   47.0528 H   0  0  0  0  0  0  0  0  0  0  0  0
   22.2965   36.1305   40.1775 H   0  0  0  0  0  0  0  0  0  0  0  0
  1  2  1  0  0  0  0
  1 33  1  0  0  0  0
  1 34  1  0  0  0  0
  2  3  1  0  0  0  0
  2 35  1  0  0  0  0
  2 36  1  0  0  0  0
  3  4  1  0  0  0  0
  3 17  1  0  0  0  0
  3 65  1  6  0  0  0
  4  5  1  0  0  0  0
  4  7  1  0  0  0  0
  4 37  1  1  0  0  0
  5  6  1  0  0  0  0
  5 38  1  0  0  0  0
  5 39  1  0  0  0  0
  6  1  1  6  0  0  0
  6  8  1  0  0  0  0
  6  9  1  0  0  0  0
  7 40  1  0  0  0  0
  7 41  1  0  0  0  0
  7 42  1  0  0  0  0
  8 10  1  0  0  0  0
  8 28  1  0  0  0  0
  9 29  1  0  0  0  0
  9 43  1  0  0  0  0
  9 44  1  0  0  0  0
 10 11  2  0  0  0  0
 10 15  1  0  0  0  0
 11 12  1  0  0  0  0
 11 45  1  0  0  0  0
 12 13  2  0  0  0  0
 12 46  1  0  0  0  0
 13 14  1  0  0  0  0
 13 47  1  0  0  0  0
 14 15  2  0  0  0  0
 14 16  1  0  0  0  0
 15 48  1  0  0  0  0
 17 18  1  0  0  0  0
 17 49  1  0  0  0  0
 17 50  1  0  0  0  0
 18 19  2  0  0  0  0
 18 23  1  0  0  0  0
 19 20  1  0  0  0  0
 19 51  1  0  0  0  0
 20 21  2  0  0  0  0
 20 24  1  0  0  0  0
 21 22  1  0  0  0  0
 21 52  1  0  0  0  0
 22 23  2  0  0  0  0
 22 53  1  0  0  0  0
 23 54  1  0  0  0  0
 24 25  1  0  0  0  0
 25 26  1  0  0  0  0
 25 27  1  0  0  0  0
 25 55  1  0  0  0  0
 26 56  1  0  0  0  0
 26 57  1  0  0  0  0
 26 58  1  0  0  0  0
 27 59  1  0  0  0  0
 27 60  1  0  0  0  0
 27 61  1  0  0  0  0
 28 29  1  0  0  0  0
 28 30  2  0  0  0  0
 28 32  2  0  0  0  0
 29 31  1  0  0  0  0
 31 62  1  0  0  0  0
 31 63  1  0  0  0  0
 31 64  1  0  0  0  0
M  CHG  1   3   1
M  END
$$$$
