0VB
 OpenBabel04111918593D

 58 60  0  0  0  0  0  0  0  0999 V2000
   -4.6886   17.6825   28.8321 C   0  0  0  0  0  0  0  0  0  0  0  0
   -3.2168   16.8597   30.5899 C   0  0  0  0  0  0  0  0  0  0  0  0
   -3.8051   17.0327   27.8333 C   0  0  0  0  0  0  0  0  0  0  0  0
   -2.3289   16.2233   29.5991 C   0  0  0  0  0  0  0  0  0  0  0  0
   -3.2794   11.4006   34.9496 C   0  0  0  0  0  0  0  0  0  0  0  0
   -5.0054   11.2047   33.2606 C   0  0  0  0  0  0  0  0  0  0  0  0
   -4.4123   17.5981   30.2458 C   0  0  0  0  0  0  0  0  0  0  0  0
   -5.9364   17.9258   32.6931 C   0  0  0  0  0  0  0  0  0  0  0  0
   -4.5945   11.7835   34.4784 C   0  0  0  0  0  0  0  0  0  0  0  0
   -2.3855   10.4754   34.1865 C   0  0  0  0  0  0  0  0  0  0  0  0
   -2.8153    9.9233   32.9209 C   0  0  0  0  0  0  0  0  0  0  0  0
   -2.5978   16.2937   28.2217 C   0  0  0  0  0  0  0  0  0  0  0  0
   -4.1609   10.3163   32.5090 C   0  0  0  0  0  0  0  0  0  0  0  0
   -5.3500   18.3424   31.3198 C   0  0  0  0  0  0  0  0  0  0  0  0
   -6.7510   18.9397   33.2128 C   0  0  0  0  0  0  0  0  0  0  0  0
   -5.8511   16.5501   33.2993 C   0  0  0  0  0  0  0  0  0  0  0  0
   -1.0365    9.5932   31.1009 C   0  0  0  0  0  0  0  0  0  0  0  0
   -5.3051   15.2574   35.4600 C   0  0  0  0  0  0  0  0  0  0  0  0
   -0.9892   10.1722   34.7920 C   0  0  0  0  0  0  0  0  0  0  0  0
   -7.5875   19.0034   34.4910 C   0  0  0  0  0  0  0  0  0  0  0  0
   -0.0612    8.7264   30.2267 C   0  0  0  0  0  0  0  0  0  0  0  0
   -0.4924   15.0385   27.5972 C   0  0  0  0  0  0  0  0  0  0  0  0
   -5.6520   12.6949   35.1713 C   0  0  0  0  0  0  0  0  0  0  0  0
   -5.7208   19.6008   30.9995 N   0  0  0  0  0  0  0  0  0  0  0  0
   -5.3789   16.5411   34.7917 N   0  0  0  0  0  0  0  0  0  0  0  0
   -4.8596   15.1636   36.8090 N   0  0  0  0  0  0  0  0  0  0  0  0
   -1.8936    9.0283   32.0784 N   0  0  0  0  0  0  0  0  0  0  0  0
   -5.6489   14.1465   34.7742 N   0  0  0  0  0  0  0  0  0  0  0  0
   -6.1722   15.5119   32.7744 O   0  0  0  0  0  0  0  0  0  0  0  0
   -1.0104   10.7998   30.9077 O   0  0  0  0  0  0  0  0  0  0  0  0
   -1.7803   15.6851   27.2516 O   0  0  0  0  0  0  0  0  0  0  0  0
   -6.7042   20.2678   32.1322 S   0  0  0  0  0  0  0  0  0  0  0  0
   -4.9415    9.7704   31.0286 Cl  0  0  0  0  0  0  0  0  0  0  0  0
   -5.6004   18.2303   28.5059 H   0  0  0  0  0  0  0  0  0  0  0  0
   -2.9235   16.7424   31.6391 H   0  0  0  0  0  0  0  0  0  0  0  0
   -4.1035   17.1410   26.7692 H   0  0  0  0  0  0  0  0  0  0  0  0
   -1.4363   15.6748   29.9335 H   0  0  0  0  0  0  0  0  0  0  0  0
   -2.8746   11.8077   35.8877 H   0  0  0  0  0  0  0  0  0  0  0  0
   -6.0027   11.4742   32.8710 H   0  0  0  0  0  0  0  0  0  0  0  0
   -0.8295   10.7015   35.7525 H   0  0  0  0  0  0  0  0  0  0  0  0
   -0.1659   10.4878   34.1333 H   0  0  0  0  0  0  0  0  0  0  0  0
   -0.8544    9.1019   35.0128 H   0  0  0  0  0  0  0  0  0  0  0  0
   -8.1021   19.9627   34.6428 H   0  0  0  0  0  0  0  0  0  0  0  0
   -6.9580   18.8466   35.3802 H   0  0  0  0  0  0  0  0  0  0  0  0
   -8.3634   18.2222   34.5138 H   0  0  0  0  0  0  0  0  0  0  0  0
    0.5016    9.4043   29.5427 H   0  0  0  0  0  0  0  0  0  0  0  0
   -0.5745    8.0123   29.5681 H   0  0  0  0  0  0  0  0  0  0  0  0
    0.7089    8.1961   30.8051 H   0  0  0  0  0  0  0  0  0  0  0  0
   -0.0107   14.6108   26.6883 H   0  0  0  0  0  0  0  0  0  0  0  0
   -0.6063   14.1890   28.2991 H   0  0  0  0  0  0  0  0  0  0  0  0
    0.2388   15.7578   28.0117 H   0  0  0  0  0  0  0  0  0  0  0  0
   -5.6320   12.6583   36.2593 H   0  0  0  0  0  0  0  0  0  0  0  0
   -6.6609   12.3241   34.8590 H   0  0  0  0  0  0  0  0  0  0  0  0
   -5.1088   17.3645   35.2065 H   0  0  0  0  0  0  0  0  0  0  0  0
   -4.8344   14.2629   37.3050 H   0  0  0  0  0  0  0  0  0  0  0  0
   -1.9262    8.0426   32.2604 H   0  0  0  0  0  0  0  0  0  0  0  0
   -6.0717   14.3265   33.8539 H   0  0  0  0  0  0  0  0  0  0  0  0
   -4.5403   15.9109   37.4072 H   0  0  0  0  0  0  0  0  0  0  0  0
  1  3  2  0  0  0  0
  1  7  1  0  0  0  0
  1 34  1  0  0  0  0
  2  4  1  0  0  0  0
  2  7  2  0  0  0  0
  2 35  1  0  0  0  0
  3 12  1  0  0  0  0
  3 36  1  0  0  0  0
  4 12  2  0  0  0  0
  4 37  1  0  0  0  0
  5  9  2  0  0  0  0
  5 10  1  0  0  0  0
  5 38  1  0  0  0  0
  6  9  1  0  0  0  0
  6 13  2  0  0  0  0
  6 39  1  0  0  0  0
  7 14  1  0  0  0  0
  8 14  1  0  0  0  0
  8 15  2  0  0  0  0
  8 16  1  0  0  0  0
  9 23  1  0  0  0  0
 10 11  2  0  0  0  0
 10 19  1  0  0  0  0
 11 13  1  0  0  0  0
 11 27  1  0  0  0  0
 12 31  1  0  0  0  0
 13 33  1  0  0  0  0
 14 24  2  0  0  0  0
 15 20  1  0  0  0  0
 15 32  1  0  0  0  0
 16 25  1  0  0  0  0
 16 29  2  0  0  0  0
 17 21  1  0  0  0  0
 17 27  1  0  0  0  0
 17 30  2  0  0  0  0
 18 25  1  0  0  0  0
 18 26  2  0  0  0  0
 18 28  1  0  0  0  0
 19 40  1  0  0  0  0
 19 41  1  0  0  0  0
 19 42  1  0  0  0  0
 20 43  1  0  0  0  0
 20 44  1  0  0  0  0
 20 45  1  0  0  0  0
 21 46  1  0  0  0  0
 21 47  1  0  0  0  0
 21 48  1  0  0  0  0
 22 31  1  0  0  0  0
 22 49  1  0  0  0  0
 22 50  1  0  0  0  0
 22 51  1  0  0  0  0
 23 28  1  0  0  0  0
 23 52  1  0  0  0  0
 23 53  1  0  0  0  0
 24 32  1  0  0  0  0
 25 54  1  0  0  0  0
 26 55  1  0  0  0  0
 26 58  1  0  0  0  0
 27 56  1  0  0  0  0
 28 57  1  0  0  0  0
M  END
$$$$
