0VR
 OpenBabel04111918493D

 41 41  0  0  1  0  0  0  0  0999 V2000
   19.1929   17.5305   24.8256 P   0  0  0  0  0  0  0  0  0  0  0  0
   20.4777   17.9326   24.1130 O   0  0  0  0  0  0  0  0  0  0  0  0
   18.8657   18.3749   26.0493 O   0  0  0  0  0  0  0  0  0  0  0  0
   19.1207   16.0286   25.0621 O   0  0  0  0  0  0  0  0  0  0  0  0
   17.9638   17.9363   23.7915 O   0  0  0  0  0  0  0  0  0  0  0  0
   17.2417   16.9155   23.1165 C   0  0  0  0  0  0  0  0  0  0  0  0
   16.1615   17.5505   22.2291 C   0  0  1  0  0  0  0  0  0  0  0  0
   15.1539   18.1986   23.0293 O   0  0  0  0  0  0  0  0  0  0  0  0
   16.7329   18.5627   21.2509 C   0  0  1  0  0  0  0  0  0  0  0  0
   17.7926   17.9154   20.5504 O   0  0  0  0  0  0  0  0  0  0  0  0
   15.7655   19.0217   20.1585 C   0  0  1  0  0  0  0  0  0  0  0  0
   14.3950   18.7324   20.4293 O   0  0  0  0  0  0  0  0  0  0  0  0
   15.8772   20.5208   19.9519 C   0  0  0  0  0  0  0  0  0  0  0  0
   14.7053   20.9289   19.1928 N   0  0  0  0  0  0  0  0  0  0  0  0
   12.9216   22.3256   18.9189 C   0  0  0  0  0  0  0  0  0  0  0  0
   13.9451   22.0327   19.6407 C   0  0  0  0  0  0  0  0  0  0  0  0
   14.3630   22.7419   20.8398 C   0  0  0  0  0  0  0  0  0  0  0  0
   13.4504   23.9201   21.1824 C   0  0  0  0  0  0  0  0  0  0  0  0
   12.2807   24.1432   20.2273 C   0  0  0  0  0  0  0  0  0  0  0  0
   12.0609   23.3889   19.1961 C   0  0  0  0  0  0  0  0  0  0  0  0
   12.5189   21.5707   17.7187 C   0  0  0  0  0  0  0  0  0  0  0  0
   12.5280   20.3178   17.9123 O   0  0  0  0  0  0  0  0  0  0  0  0
   12.3418   22.2597   16.6743 O   0  0  0  0  0  0  0  0  0  0  0  0
   16.7512   16.2676   23.8455 H   0  0  0  0  0  0  0  0  0  0  0  0
   17.9192   16.3373   22.4917 H   0  0  0  0  0  0  0  0  0  0  0  0
   15.6644   16.7563   21.6595 H   0  0  0  0  0  0  0  0  0  0  0  0
   14.8230   17.4882   23.6159 H   0  0  0  0  0  0  0  0  0  0  0  0
   17.1103   19.4393   21.7877 H   0  0  0  0  0  0  0  0  0  0  0  0
   18.1804   18.5480   19.9341 H   0  0  0  0  0  0  0  0  0  0  0  0
   16.0157   18.5273   19.2143 H   0  0  0  0  0  0  0  0  0  0  0  0
   14.1938   19.1563   21.2935 H   0  0  0  0  0  0  0  0  0  0  0  0
   16.7453   20.7700   19.3561 H   0  0  0  0  0  0  0  0  0  0  0  0
   15.9140   21.0220   20.9088 H   0  0  0  0  0  0  0  0  0  0  0  0
   14.9455   21.1316   18.2260 H   0  0  0  0  0  0  0  0  0  0  0  0
   15.3973   23.0445   20.6142 H   0  0  0  0  0  0  0  0  0  0  0  0
   14.3637   21.9646   21.6179 H   0  0  0  0  0  0  0  0  0  0  0  0
   14.0782   24.8158   21.2064 H   0  0  0  0  0  0  0  0  0  0  0  0
   13.0683   23.7475   22.1932 H   0  0  0  0  0  0  0  0  0  0  0  0
   11.5686   24.9644   20.3836 H   0  0  0  0  0  0  0  0  0  0  0  0
   11.2391   23.4823   18.4573 H   0  0  0  0  0  0  0  0  0  0  0  0
   13.9999   20.1458   19.1643 H   0  0  0  0  0  0  0  0  0  0  0  0
  1  2  2  0  0  0  0
  1  3  1  0  0  0  0
  1  4  1  0  0  0  0
  1  5  1  0  0  0  0
  5  6  1  0  0  0  0
  6  7  1  0  0  0  0
  6 24  1  0  0  0  0
  6 25  1  0  0  0  0
  7  8  1  0  0  0  0
  7  9  1  0  0  0  0
  7 26  1  6  0  0  0
  8 27  1  0  0  0  0
  9 10  1  0  0  0  0
  9 11  1  0  0  0  0
  9 28  1  1  0  0  0
 10 29  1  0  0  0  0
 11 12  1  0  0  0  0
 11 13  1  0  0  0  0
 11 30  1  6  0  0  0
 12 31  1  0  0  0  0
 13 14  1  0  0  0  0
 13 32  1  0  0  0  0
 13 33  1  0  0  0  0
 14 16  1  0  0  0  0
 14 34  1  0  0  0  0
 14 41  1  0  0  0  0
 15 16  2  0  0  0  0
 15 20  1  0  0  0  0
 15 21  1  0  0  0  0
 16 17  1  0  0  0  0
 17 18  1  0  0  0  0
 17 35  1  0  0  0  0
 17 36  1  0  0  0  0
 18 19  1  0  0  0  0
 18 37  1  0  0  0  0
 18 38  1  0  0  0  0
 19 20  2  0  0  0  0
 19 39  1  0  0  0  0
 20 40  1  0  0  0  0
 21 22  2  0  0  0  0
 21 23  1  0  0  0  0
M  END
$$$$
