0W1
 OpenBabel04111919003D

 20 21  0  0  0  0  0  0  0  0999 V2000
   11.8726    4.1623  -15.5594 O   0  0  0  0  0  0  0  0  0  0  0  0
   12.4550    3.3343  -14.7889 C   0  0  0  0  0  0  0  0  0  0  0  0
   11.9097    2.3572  -14.1953 O   0  0  0  0  0  0  0  0  0  0  0  0
   13.9151    3.5380  -14.5916 C   0  0  0  0  0  0  0  0  0  0  0  0
   14.6512    4.4420  -15.3534 C   0  0  0  0  0  0  0  0  0  0  0  0
   14.9169    2.6956  -13.4261 S   0  0  0  0  0  0  0  0  0  0  0  0
   16.2547    3.5339  -13.9532 C   0  0  0  0  0  0  0  0  0  0  0  0
   15.9773    4.3883  -14.9453 C   0  0  0  0  0  0  0  0  0  0  0  0
   17.1355    5.0194  -15.3440 C   0  0  0  0  0  0  0  0  0  0  0  0
   17.2978    6.0192  -16.4205 C   0  0  0  0  0  0  0  0  0  0  0  0
   18.1669    4.5747  -14.5911 N   0  0  0  0  0  0  0  0  0  0  0  0
   17.5855    3.6592  -13.7368 N   0  3  0  0  0  0  0  0  0  0  0  0
   18.3951    2.9652  -12.7671 C   0  0  0  0  0  0  0  0  0  0  0  0
   14.2174    5.0511  -16.1401 H   0  0  0  0  0  0  0  0  0  0  0  0
   18.3350    6.3539  -16.5148 H   0  0  0  0  0  0  0  0  0  0  0  0
   16.6725    6.8960  -16.2220 H   0  0  0  0  0  0  0  0  0  0  0  0
   16.9864    5.6010  -17.3841 H   0  0  0  0  0  0  0  0  0  0  0  0
   19.4311    3.3110  -12.8368 H   0  0  0  0  0  0  0  0  0  0  0  0
   18.3553    1.8934  -12.9751 H   0  0  0  0  0  0  0  0  0  0  0  0
   18.0098    3.1761  -11.7667 H   0  0  0  0  0  0  0  0  0  0  0  0
  1  2  2  0  0  0  0
  2  3  1  0  0  0  0
  2  4  1  0  0  0  0
  4  5  2  0  0  0  0
  4  6  1  0  0  0  0
  5  8  1  0  0  0  0
  5 14  1  0  0  0  0
  6  7  1  0  0  0  0
  7  8  1  0  0  0  0
  7 12  2  0  0  0  0
  8  9  2  0  0  0  0
  9 10  1  0  0  0  0
  9 11  1  0  0  0  0
 10 15  1  0  0  0  0
 10 16  1  0  0  0  0
 10 17  1  0  0  0  0
 11 12  1  0  0  0  0
 12 13  1  0  0  0  0
 13 18  1  0  0  0  0
 13 19  1  0  0  0  0
 13 20  1  0  0  0  0
M  CHG  1  12   1
M  END
$$$$
