0X2
 OpenBabel04111919033D

 26 27  0  0  0  0  0  0  0  0999 V2000
   13.2757  -13.0576   22.0683 C   0  0  0  0  0  0  0  0  0  0  0  0
   12.1186  -12.4210   21.6001 C   0  0  0  0  0  0  0  0  0  0  0  0
   11.7942  -12.4700   20.2408 C   0  0  0  0  0  0  0  0  0  0  0  0
   14.7302  -13.0122   27.8084 C   0  0  0  0  0  0  0  0  0  0  0  0
   13.6680  -12.8921   23.4772 C   0  0  0  0  0  0  0  0  0  0  0  0
   13.9619  -14.0963   25.6124 C   0  0  0  0  0  0  0  0  0  0  0  0
   14.0415  -15.2859   26.2212 C   0  0  0  0  0  0  0  0  0  0  0  0
   14.4954  -15.2928   27.6207 C   0  0  0  0  0  0  0  0  0  0  0  0
   14.2848  -12.8290   26.3623 C   0  0  0  0  0  0  0  0  0  0  0  0
   13.5863  -14.0256   24.2755 N   0  0  0  0  0  0  0  0  0  0  0  0
   14.8065  -14.2720   28.3453 N   0  0  0  0  0  0  0  0  0  0  0  0
   14.1100  -13.7271   21.1658 C   0  0  0  0  0  0  0  0  0  0  0  0
   15.0195  -12.0208   28.4782 O   0  0  0  0  0  0  0  0  0  0  0  0
   14.0495  -11.7811   23.8235 O   0  0  0  0  0  0  0  0  0  0  0  0
   15.5710  -14.5095   21.6571 Cl  0  0  0  0  0  0  0  0  0  0  0  0
   13.7839  -13.7649   19.8042 C   0  0  0  0  0  0  0  0  0  0  0  0
   11.0360  -11.5776   22.6500 Cl  0  0  0  0  0  0  0  0  0  0  0  0
   12.6263  -13.1389   19.3430 C   0  0  0  0  0  0  0  0  0  0  0  0
   10.8972  -11.9747   19.8735 H   0  0  0  0  0  0  0  0  0  0  0  0
   13.8400  -16.2385   25.7508 H   0  0  0  0  0  0  0  0  0  0  0  0
   14.5782  -16.2912   28.0743 H   0  0  0  0  0  0  0  0  0  0  0  0
   15.1093  -12.3031   25.8696 H   0  0  0  0  0  0  0  0  0  0  0  0
   13.3942  -12.1907   26.3858 H   0  0  0  0  0  0  0  0  0  0  0  0
   13.2871  -14.8870   23.8291 H   0  0  0  0  0  0  0  0  0  0  0  0
   14.4363  -14.2677   19.0925 H   0  0  0  0  0  0  0  0  0  0  0  0
   12.3777  -13.1593   18.2835 H   0  0  0  0  0  0  0  0  0  0  0  0
  1  2  2  0  0  0  0
  1  5  1  0  0  0  0
  1 12  1  0  0  0  0
  2  3  1  0  0  0  0
  2 17  1  0  0  0  0
  3 18  2  0  0  0  0
  3 19  1  0  0  0  0
  4  9  1  0  0  0  0
  4 11  1  0  0  0  0
  4 13  2  0  0  0  0
  5 10  1  0  0  0  0
  5 14  2  0  0  0  0
  6  7  2  0  0  0  0
  6  9  1  0  0  0  0
  6 10  1  0  0  0  0
  7  8  1  0  0  0  0
  7 20  1  0  0  0  0
  8 11  2  0  0  0  0
  8 21  1  0  0  0  0
  9 22  1  0  0  0  0
  9 23  1  0  0  0  0
 10 24  1  0  0  0  0
 12 15  1  0  0  0  0
 12 16  2  0  0  0  0
 16 18  1  0  0  0  0
 16 25  1  0  0  0  0
 18 26  1  0  0  0  0
M  END
$$$$
