0XH
 OpenBabel04111919053D

 36 38  0  0  1  0  0  0  0  0999 V2000
   -5.2904   -3.8614  -16.2366 C   0  0  0  0  0  0  0  0  0  0  0  0
   -4.6577   -5.1046  -16.1878 C   0  0  0  0  0  0  0  0  0  0  0  0
   -5.3942   -6.2601  -15.8930 C   0  0  0  0  0  0  0  0  0  0  0  0
   -6.7712   -6.1672  -15.6240 C   0  0  0  0  0  0  0  0  0  0  0  0
   -7.3974   -4.9215  -15.6835 C   0  0  0  0  0  0  0  0  0  0  0  0
   -6.6602   -3.7721  -15.9867 C   0  0  0  0  0  0  0  0  0  0  0  0
   -9.0950   -4.7352  -15.4091 Cl  0  0  0  0  0  0  0  0  0  0  0  0
   -7.5571   -7.3581  -15.2466 C   0  0  0  0  0  0  0  0  0  0  0  0
   -7.8298   -7.5057  -14.0632 O   0  0  0  0  0  0  0  0  0  0  0  0
   -7.9215   -8.1602  -16.2932 N   0  0  0  0  0  0  0  0  0  0  0  0
   -8.7651   -9.3043  -16.2377 C   0  0  0  0  0  0  0  0  0  0  0  0
   -9.5202   -9.6850  -15.1491 C   0  0  0  0  0  0  0  0  0  0  0  0
  -10.3570  -10.7830  -15.2929 C   0  0  0  0  0  0  0  0  0  0  0  0
  -10.4727  -11.5039  -16.4360 N   0  0  0  0  0  0  0  0  0  0  0  0
   -9.6870  -11.1529  -17.4705 C   0  0  0  0  0  0  0  0  0  0  0  0
   -8.8398  -10.0528  -17.4137 C   0  0  0  0  0  0  0  0  0  0  0  0
   -9.8194  -11.9046  -18.6420 N   0  0  0  0  0  0  0  0  0  0  0  0
   -8.8535  -12.0288  -19.6213 C   0  0  0  0  0  0  0  0  0  0  0  0
   -7.7366  -11.5313  -19.5943 O   0  0  0  0  0  0  0  0  0  0  0  0
   -9.2639  -12.8614  -20.7897 C   0  0  1  0  0  0  0  0  0  0  0  0
   -8.4812  -12.7613  -22.0889 C   0  0  0  0  0  0  0  0  0  0  0  0
   -8.3893  -13.9934  -21.2479 C   0  0  1  0  0  0  0  0  0  0  0  0
   -7.2085  -14.2255  -20.5695 F   0  0  0  0  0  0  0  0  0  0  0  0
   -4.5442   -7.7626  -15.8637 Cl  0  0  0  0  0  0  0  0  0  0  0  0
   -4.7198   -2.9628  -16.4609 H   0  0  0  0  0  0  0  0  0  0  0  0
   -3.5890   -5.1612  -16.3796 H   0  0  0  0  0  0  0  0  0  0  0  0
   -7.1506   -2.8003  -16.0252 H   0  0  0  0  0  0  0  0  0  0  0  0
   -7.5308   -7.9501  -17.2054 H   0  0  0  0  0  0  0  0  0  0  0  0
   -9.5134   -9.1400  -14.2074 H   0  0  0  0  0  0  0  0  0  0  0  0
  -10.9834  -11.1066  -14.4693 H   0  0  0  0  0  0  0  0  0  0  0  0
   -8.2789   -9.7476  -18.2827 H   0  0  0  0  0  0  0  0  0  0  0  0
  -10.6538  -12.4715  -18.6683 H   0  0  0  0  0  0  0  0  0  0  0  0
  -10.3320  -13.0167  -20.8937 H   0  0  0  0  0  0  0  0  0  0  0  0
   -7.6170  -12.1066  -22.1231 H   0  0  0  0  0  0  0  0  0  0  0  0
   -9.0199  -12.8238  -23.0264 H   0  0  0  0  0  0  0  0  0  0  0  0
   -8.8142  -14.9197  -21.6030 H   0  0  0  0  0  0  0  0  0  0  0  0
  1  2  2  0  0  0  0
  1  6  1  0  0  0  0
  1 25  1  0  0  0  0
  2  3  1  0  0  0  0
  2 26  1  0  0  0  0
  3  4  2  0  0  0  0
  3 24  1  0  0  0  0
  4  5  1  0  0  0  0
  4  8  1  0  0  0  0
  5  6  2  0  0  0  0
  5  7  1  0  0  0  0
  6 27  1  0  0  0  0
  8  9  2  0  0  0  0
  8 10  1  0  0  0  0
 10 11  1  0  0  0  0
 10 28  1  0  0  0  0
 11 12  2  0  0  0  0
 11 16  1  0  0  0  0
 12 13  1  0  0  0  0
 12 29  1  0  0  0  0
 13 14  2  0  0  0  0
 13 30  1  0  0  0  0
 14 15  1  0  0  0  0
 15 16  2  0  0  0  0
 15 17  1  0  0  0  0
 16 31  1  0  0  0  0
 17 18  1  0  0  0  0
 17 32  1  0  0  0  0
 18 19  2  0  0  0  0
 18 20  1  0  0  0  0
 20 21  1  0  0  0  0
 20 22  1  0  0  0  0
 20 33  1  6  0  0  0
 21 22  1  0  0  0  0
 21 34  1  0  0  0  0
 21 35  1  0  0  0  0
 22 23  1  0  0  0  0
 22 36  1  6  0  0  0
M  END
$$$$
