0XP
 OpenBabel04111919053D

 37 39  0  0  1  0  0  0  0  0999 V2000
   -9.3360   -9.7005  -15.2287 C   0  0  0  0  0  0  0  0  0  0  0  0
  -10.1433  -10.8121  -15.3981 C   0  0  0  0  0  0  0  0  0  0  0  0
  -10.2506  -11.4844  -16.5769 N   0  0  0  0  0  0  0  0  0  0  0  0
   -9.5010  -11.0592  -17.6226 C   0  0  0  0  0  0  0  0  0  0  0  0
   -8.6922   -9.9384  -17.5340 C   0  0  0  0  0  0  0  0  0  0  0  0
   -8.6031   -9.2508  -16.3202 C   0  0  0  0  0  0  0  0  0  0  0  0
   -7.7778   -8.1021  -16.3319 N   0  0  0  0  0  0  0  0  0  0  0  0
   -7.5499   -7.1973  -15.3211 C   0  0  0  0  0  0  0  0  0  0  0  0
   -8.0045   -7.2588  -14.1923 O   0  0  0  0  0  0  0  0  0  0  0  0
   -6.6801   -6.0519  -15.7029 C   0  0  0  0  0  0  0  0  0  0  0  0
   -7.2259   -4.7606  -15.7743 C   0  0  0  0  0  0  0  0  0  0  0  0
   -6.4137   -3.6837  -16.1369 C   0  0  0  0  0  0  0  0  0  0  0  0
   -5.0607   -3.8915  -16.4326 C   0  0  0  0  0  0  0  0  0  0  0  0
   -4.5171   -5.1791  -16.3657 C   0  0  0  0  0  0  0  0  0  0  0  0
   -5.3240   -6.2586  -16.0023 C   0  0  0  0  0  0  0  0  0  0  0  0
   -4.6025   -7.8300  -15.9563 Cl  0  0  0  0  0  0  0  0  0  0  0  0
   -4.2420   -2.7991  -16.7979 C   0  0  0  0  0  0  0  0  0  0  0  0
   -3.5569   -1.8901  -17.1016 N   0  0  0  0  0  0  0  0  0  0  0  0
   -8.8972   -4.4416  -15.4544 Cl  0  0  0  0  0  0  0  0  0  0  0  0
   -9.6798  -11.7529  -18.8359 N   0  0  0  0  0  0  0  0  0  0  0  0
   -8.7079  -12.0030  -19.7732 C   0  0  0  0  0  0  0  0  0  0  0  0
   -7.5437  -11.6505  -19.6715 O   0  0  0  0  0  0  0  0  0  0  0  0
   -9.1724  -12.7708  -20.9804 C   0  0  1  0  0  0  0  0  0  0  0  0
   -8.3294  -12.7388  -22.2631 C   0  0  0  0  0  0  0  0  0  0  0  0
   -8.3750  -13.9879  -21.4182 C   0  0  1  0  0  0  0  0  0  0  0  0
   -7.2642  -14.3088  -20.6448 F   0  0  0  0  0  0  0  0  0  0  0  0
   -9.3072   -9.2104  -14.2677 H   0  0  0  0  0  0  0  0  0  0  0  0
  -10.7500  -11.1959  -14.5727 H   0  0  0  0  0  0  0  0  0  0  0  0
   -8.1750   -9.5729  -18.4111 H   0  0  0  0  0  0  0  0  0  0  0  0
   -7.2915   -7.9248  -17.1976 H   0  0  0  0  0  0  0  0  0  0  0  0
   -6.8288   -2.6754  -16.1801 H   0  0  0  0  0  0  0  0  0  0  0  0
   -3.4610   -5.3363  -16.5914 H   0  0  0  0  0  0  0  0  0  0  0  0
  -10.5999  -12.1283  -18.9960 H   0  0  0  0  0  0  0  0  0  0  0  0
  -10.2556  -12.7946  -21.0804 H   0  0  0  0  0  0  0  0  0  0  0  0
   -7.4227  -12.1299  -22.2849 H   0  0  0  0  0  0  0  0  0  0  0  0
   -8.8148  -12.7229  -23.2365 H   0  0  0  0  0  0  0  0  0  0  0  0
   -8.8504  -14.8954  -21.7771 H   0  0  0  0  0  0  0  0  0  0  0  0
  1  2  2  0  0  0  0
  1  6  1  0  0  0  0
  1 27  1  0  0  0  0
  2  3  1  0  0  0  0
  2 28  1  0  0  0  0
  3  4  2  0  0  0  0
  4  5  1  0  0  0  0
  4 20  1  0  0  0  0
  5  6  2  0  0  0  0
  5 29  1  0  0  0  0
  6  7  1  0  0  0  0
  7  8  1  0  0  0  0
  7 30  1  0  0  0  0
  8  9  2  0  0  0  0
  8 10  1  0  0  0  0
 10 11  2  0  0  0  0
 10 15  1  0  0  0  0
 11 12  1  0  0  0  0
 11 19  1  0  0  0  0
 12 13  2  0  0  0  0
 12 31  1  0  0  0  0
 13 14  1  0  0  0  0
 13 17  1  0  0  0  0
 14 15  2  0  0  0  0
 14 32  1  0  0  0  0
 15 16  1  0  0  0  0
 17 18  3  0  0  0  0
 20 21  1  0  0  0  0
 20 33  1  0  0  0  0
 21 22  2  0  0  0  0
 21 23  1  0  0  0  0
 23 24  1  0  0  0  0
 23 25  1  0  0  0  0
 23 34  1  6  0  0  0
 24 25  1  0  0  0  0
 24 35  1  0  0  0  0
 24 36  1  0  0  0  0
 25 26  1  0  0  0  0
 25 37  1  6  0  0  0
M  END
$$$$
