0XR
 OpenBabel04111919073D

 27 27  0  0  0  0  0  0  0  0999 V2000
    9.8729  -20.8647  121.0188 C   0  0  0  0  0  0  0  0  0  0  0  0
    9.1928  -19.5844  120.5839 C   0  0  0  0  0  0  0  0  0  0  0  0
    8.9652  -19.6288  119.1378 O   0  0  0  0  0  0  0  0  0  0  0  0
    8.1314  -18.6167  118.7441 C   0  0  0  0  0  0  0  0  0  0  0  0
    7.6818  -17.8040  119.5558 O   0  0  0  0  0  0  0  0  0  0  0  0
    7.7805  -18.5177  117.3035 C   0  0  0  0  0  0  0  0  0  0  0  0
    7.1399  -17.3320  116.9248 C   0  0  0  0  0  0  0  0  0  0  0  0
    6.6611  -17.2055  115.5121 C   0  0  0  0  0  0  0  0  0  0  0  0
    6.8726  -18.2312  114.5987 C   0  0  0  0  0  0  0  0  0  0  0  0
    5.9393  -16.0725  115.0723 C   0  0  0  0  0  0  0  0  0  0  0  0
    5.4346  -16.0154  113.7545 C   0  0  0  0  0  0  0  0  0  0  0  0
    5.6606  -17.0739  112.8891 C   0  0  0  0  0  0  0  0  0  0  0  0
    5.1799  -17.0168  111.6045 O   0  0  0  0  0  0  0  0  0  0  0  0
    6.3776  -18.1818  113.2989 C   0  0  0  0  0  0  0  0  0  0  0  0
    6.5703  -19.2246  112.4353 O   0  0  0  0  0  0  0  0  0  0  0  0
   10.0528  -20.8584  122.0993 H   0  0  0  0  0  0  0  0  0  0  0  0
   10.8316  -20.9753  120.4977 H   0  0  0  0  0  0  0  0  0  0  0  0
    9.2431  -21.7270  120.7671 H   0  0  0  0  0  0  0  0  0  0  0  0
    9.8275  -18.7186  120.8330 H   0  0  0  0  0  0  0  0  0  0  0  0
    8.2307  -19.4804  121.1123 H   0  0  0  0  0  0  0  0  0  0  0  0
    7.9928  -19.3367  116.6249 H   0  0  0  0  0  0  0  0  0  0  0  0
    6.9559  -16.4931  117.6244 H   0  0  0  0  0  0  0  0  0  0  0  0
    7.4336  -19.1131  114.8946 H   0  0  0  0  0  0  0  0  0  0  0  0
    5.7588  -15.2459  115.7413 H   0  0  0  0  0  0  0  0  0  0  0  0
    4.8806  -15.1431  113.4286 H   0  0  0  0  0  0  0  0  0  0  0  0
    4.2305  -16.9317  111.6478 H   0  0  0  0  0  0  0  0  0  0  0  0
    7.0782  -19.9045  112.8680 H   0  0  0  0  0  0  0  0  0  0  0  0
  1  2  1  0  0  0  0
  1 16  1  0  0  0  0
  1 17  1  0  0  0  0
  1 18  1  0  0  0  0
  2  3  1  0  0  0  0
  2 19  1  0  0  0  0
  2 20  1  0  0  0  0
  3  4  1  0  0  0  0
  4  5  2  0  0  0  0
  4  6  1  0  0  0  0
  6  7  2  0  0  0  0
  6 21  1  0  0  0  0
  7  8  1  0  0  0  0
  7 22  1  0  0  0  0
  8  9  2  0  0  0  0
  8 10  1  0  0  0  0
  9 14  1  0  0  0  0
  9 23  1  0  0  0  0
 10 11  2  0  0  0  0
 10 24  1  0  0  0  0
 11 12  1  0  0  0  0
 11 25  1  0  0  0  0
 12 13  1  0  0  0  0
 12 14  2  0  0  0  0
 13 26  1  0  0  0  0
 14 15  1  0  0  0  0
 15 27  1  0  0  0  0
M  END
$$$$
