10N
 OpenBabel04111919093D

 52 55  0  0  1  0  0  0  0  0999 V2000
   23.6391   -6.7100  -39.4048 N   0  3  0  0  0  0  0  0  0  0  0  0
   22.8271   -5.6669  -39.2573 C   0  0  0  0  0  0  0  0  0  0  0  0
   21.9795   -5.2754  -40.2695 C   0  0  2  0  0  0  0  0  0  0  0  0
   21.9565   -5.9570  -41.4957 C   0  0  2  0  0  0  0  0  0  0  0  0
   21.0844   -5.5402  -42.4851 N   0  0  0  0  0  0  0  0  0  0  0  0
   20.6732   -6.4749  -43.5074 C   0  0  0  0  0  0  0  0  0  0  0  0
   19.6996   -5.8494  -44.4283 C   0  0  2  0  0  0  0  0  0  0  0  0
   20.1479   -5.0724  -45.4923 C   0  0  0  0  0  0  0  0  0  0  0  0
   19.2353   -4.4703  -46.3424 C   0  0  0  0  0  0  0  0  0  0  0  0
   17.8931   -4.6582  -46.1067 C   0  0  0  0  0  0  0  0  0  0  0  0
   17.4255   -5.4058  -45.0863 N   0  0  0  0  0  0  0  0  0  0  0  0
   18.3298   -5.9640  -44.2574 C   0  0  1  0  0  0  0  0  0  0  0  0
   17.7973   -6.7703  -43.2252 N   0  0  0  0  0  0  0  0  0  0  0  0
   17.3119   -6.0273  -41.8361 S   0  0  0  0  0  0  0  0  0  0  0  0
   18.2998   -5.0127  -41.5388 O   0  0  0  0  0  0  0  0  0  0  0  0
   15.9227   -5.6824  -42.0070 O   0  0  0  0  0  0  0  0  0  0  0  0
   17.4327   -7.3527  -40.5805 C   0  0  0  0  0  0  0  0  0  0  0  0
   17.5510   -8.1643  -43.4503 C   0  0  0  0  0  0  0  0  0  0  0  0
   22.8223   -7.0743  -41.6333 C   0  0  2  0  0  0  0  0  0  0  0  0
   23.6398   -7.3976  -40.5696 C   0  0  2  0  0  0  0  0  0  0  0  0
   24.4017   -8.4790  -40.8885 N   0  3  0  0  0  0  0  0  0  0  0  0
   24.0979   -8.8819  -42.1722 C   0  0  2  0  0  0  0  0  0  0  0  0
   23.1255   -8.0255  -42.6472 C   0  0  0  0  0  0  0  0  0  0  0  0
   24.7327  -10.0111  -42.8235 C   0  0  0  0  0  0  0  0  0  0  0  0
   25.9084  -10.5414  -42.2981 C   0  0  0  0  0  0  0  0  0  0  0  0
   26.5292  -11.6203  -42.9071 C   0  0  0  0  0  0  0  0  0  0  0  0
   25.9716  -12.1798  -44.0471 C   0  0  0  0  0  0  0  0  0  0  0  0
   24.7990  -11.6611  -44.5810 C   0  0  0  0  0  0  0  0  0  0  0  0
   24.1789  -10.5781  -43.9722 C   0  0  0  0  0  0  0  0  0  0  0  0
   21.1445   -4.1670  -40.0307 C   0  0  0  0  0  0  0  0  0  0  0  0
   20.4618   -3.2317  -39.8122 N   0  0  0  0  0  0  0  0  0  0  0  0
   22.8667   -5.1460  -38.3093 H   0  0  0  0  0  0  0  0  0  0  0  0
   20.7135   -4.5806  -42.4975 H   0  0  0  0  0  0  0  0  0  0  0  0
   20.2417   -7.3726  -43.0377 H   0  0  0  0  0  0  0  0  0  0  0  0
   21.5481   -6.7858  -44.0882 H   0  0  0  0  0  0  0  0  0  0  0  0
   21.2127   -4.9384  -45.6589 H   0  0  0  0  0  0  0  0  0  0  0  0
   19.5588   -3.8645  -47.1735 H   0  0  0  0  0  0  0  0  0  0  0  0
   17.1487   -4.2039  -46.7550 H   0  0  0  0  0  0  0  0  0  0  0  0
   17.1409   -6.9604  -39.6028 H   0  0  0  0  0  0  0  0  0  0  0  0
   18.4594   -7.7217  -40.5405 H   0  0  0  0  0  0  0  0  0  0  0  0
   16.7528   -8.1648  -40.8608 H   0  0  0  0  0  0  0  0  0  0  0  0
   17.9186   -8.4536  -44.4345 H   0  0  0  0  0  0  0  0  0  0  0  0
   16.4902   -8.3923  -43.3650 H   0  0  0  0  0  0  0  0  0  0  0  0
   18.1100   -8.7335  -42.6914 H   0  0  0  0  0  0  0  0  0  0  0  0
   25.0849   -8.9364  -40.2984 H   0  0  0  0  0  0  0  0  0  0  0  0
   22.6999   -8.1129  -43.6436 H   0  0  0  0  0  0  0  0  0  0  0  0
   26.3560  -10.1180  -41.4100 H   0  0  0  0  0  0  0  0  0  0  0  0
   27.4460  -12.0268  -42.4971 H   0  0  0  0  0  0  0  0  0  0  0  0
   26.4527  -13.0252  -44.5234 H   0  0  0  0  0  0  0  0  0  0  0  0
   24.3717  -12.1032  -45.4731 H   0  0  0  0  0  0  0  0  0  0  0  0
   23.2609  -10.1897  -44.4010 H   0  0  0  0  0  0  0  0  0  0  0  0
   24.2524   -6.9845  -38.6433 H   0  0  0  0  0  0  0  0  0  0  0  0
  1  2  1  0  0  0  0
  1 52  1  0  0  0  0
  2  3  1  0  0  0  0
  2 32  1  0  0  0  0
  3  4  1  0  0  0  0
  3 30  1  6  0  0  0
  4  5  1  1  0  0  0
  4 19  1  0  0  0  0
  5  6  1  0  0  0  0
  5 33  1  0  0  0  0
  6 34  1  0  0  0  0
  6 35  1  0  0  0  0
  7  6  1  1  0  0  0
  7  8  1  0  0  0  0
  7 12  1  0  0  0  0
  8  9  1  0  0  0  0
  8 36  1  0  0  0  0
  9 10  1  0  0  0  0
  9 37  1  0  0  0  0
 10 11  1  0  0  0  0
 10 38  1  0  0  0  0
 11 12  1  0  0  0  0
 12 13  1  6  0  0  0
 13 14  1  0  0  0  0
 13 18  1  0  0  0  0
 14 15  2  0  0  0  0
 14 16  2  0  0  0  0
 14 17  1  0  0  0  0
 17 39  1  0  0  0  0
 17 40  1  0  0  0  0
 17 41  1  0  0  0  0
 18 42  1  0  0  0  0
 18 43  1  0  0  0  0
 18 44  1  0  0  0  0
 19 20  1  0  0  0  0
 19 23  1  6  0  0  0
 20  1  1  1  0  0  0
 20 21  1  0  0  0  0
 21 22  1  0  0  0  0
 21 45  1  0  0  0  0
 22 23  1  0  0  0  0
 22 24  1  1  0  0  0
 23 46  1  0  0  0  0
 24 25  1  0  0  0  0
 24 29  1  0  0  0  0
 25 26  1  0  0  0  0
 25 47  1  0  0  0  0
 26 27  1  0  0  0  0
 26 48  1  0  0  0  0
 27 28  1  0  0  0  0
 27 49  1  0  0  0  0
 28 29  1  0  0  0  0
 28 50  1  0  0  0  0
 29 51  1  0  0  0  0
 30 31  3  0  0  0  0
M  CHG  2   1   1  21   1
M  END
$$$$
