10Q
 OpenBabel04111919123D

 53 57  0  0  1  0  0  0  0  0999 V2000
   21.9697   10.7445   21.1770 C   0  0  2  0  0  0  0  0  0  0  0  0
   21.4896   12.1232   21.6109 C   0  0  2  0  0  0  0  0  0  0  0  0
   22.6874   11.6408   23.7867 N   0  0  0  0  0  0  0  0  0  0  0  0
   22.5792   10.3144   23.5665 C   0  0  0  0  0  0  0  0  0  0  0  0
   22.2199   12.6138   22.8346 C   0  0  0  0  0  0  0  0  0  0  0  0
   22.2359    9.8595   22.3516 N   0  0  0  0  0  0  0  0  0  0  0  0
   23.2344   10.8506   20.3313 C   0  0  0  0  0  0  0  0  0  0  0  0
   19.6044   10.7765   21.0528 N   0  0  0  0  0  0  0  0  0  0  0  0
   20.7514   10.1687   20.3995 C   0  0  0  0  0  0  0  0  0  0  0  0
   19.9800   11.9691   21.8275 C   0  0  0  0  0  0  0  0  0  0  0  0
   24.5510   10.8154   20.7629 C   0  0  0  0  0  0  0  0  0  0  0  0
   25.5384   11.0463   19.7443 C   0  0  0  0  0  0  0  0  0  0  0  0
   23.2087   11.2120   18.6483 S   0  0  0  0  0  0  0  0  0  0  0  0
   24.9128   11.2554   18.5279 C   0  0  0  0  0  0  0  0  0  0  0  0
   18.3198   10.3148   21.0228 C   0  0  0  0  0  0  0  0  0  0  0  0
   29.7721    9.5122   23.6093 N   0  0  0  0  0  0  0  0  0  0  0  0
   22.8459    9.4042   24.5264 N   0  0  0  0  0  0  0  0  0  0  0  0
   26.9960   11.0558   19.9482 C   0  0  0  0  0  0  0  0  0  0  0  0
   17.7340    9.5252   20.0046 C   0  0  0  0  0  0  0  0  0  0  0  0
   29.4214    9.9607   22.5987 C   0  0  0  0  0  0  0  0  0  0  0  0
   22.3849   13.8087   23.0456 O   0  0  0  0  0  0  0  0  0  0  0  0
   16.3927    9.1048   20.1236 C   0  0  0  0  0  0  0  0  0  0  0  0
   27.5384   10.5183   21.1319 C   0  0  0  0  0  0  0  0  0  0  0  0
   23.3170   12.1782   25.0166 C   0  0  0  0  0  0  0  0  0  0  0  0
   28.9194   10.5182   21.3798 C   0  0  0  0  0  0  0  0  0  0  0  0
   17.5685   10.6449   22.1082 N   0  0  0  0  0  0  0  0  0  0  0  0
   27.8963   11.6003   19.0166 C   0  0  0  0  0  0  0  0  0  0  0  0
   16.2872   10.2154   22.2002 C   0  0  0  0  0  0  0  0  0  0  0  0
   29.2717   11.6044   19.2617 C   0  0  0  0  0  0  0  0  0  0  0  0
   15.6587    9.4524   21.2398 C   0  0  0  0  0  0  0  0  0  0  0  0
   29.7895   11.0669   20.4409 C   0  0  0  0  0  0  0  0  0  0  0  0
   18.4294    9.1431   18.8114 C   0  0  0  0  0  0  0  0  0  0  0  0
   19.0003    8.8006   17.8563 N   0  0  0  0  0  0  0  0  0  0  0  0
   21.6643   12.8557   20.8112 H   0  0  0  0  0  0  0  0  0  0  0  0
   22.0656    8.8659   22.2532 H   0  0  0  0  0  0  0  0  0  0  0  0
   20.7319    9.0760   20.4936 H   0  0  0  0  0  0  0  0  0  0  0  0
   20.7580   10.4392   19.3446 H   0  0  0  0  0  0  0  0  0  0  0  0
   19.4624   12.8533   21.4330 H   0  0  0  0  0  0  0  0  0  0  0  0
   19.7259   11.8655   22.8875 H   0  0  0  0  0  0  0  0  0  0  0  0
   24.8058   10.6660   21.7962 H   0  0  0  0  0  0  0  0  0  0  0  0
   25.3518   11.4567   17.5586 H   0  0  0  0  0  0  0  0  0  0  0  0
   22.7779    8.4073   24.3714 H   0  0  0  0  0  0  0  0  0  0  0  0
   15.9250    8.5114   19.3375 H   0  0  0  0  0  0  0  0  0  0  0  0
   26.8918   10.0808   21.8844 H   0  0  0  0  0  0  0  0  0  0  0  0
   23.6625   11.3864   25.6842 H   0  0  0  0  0  0  0  0  0  0  0  0
   22.5984   12.7847   25.5736 H   0  0  0  0  0  0  0  0  0  0  0  0
   24.2052   12.7615   24.7550 H   0  0  0  0  0  0  0  0  0  0  0  0
   27.5404   12.0413   18.0870 H   0  0  0  0  0  0  0  0  0  0  0  0
   15.7590   10.5098   23.1049 H   0  0  0  0  0  0  0  0  0  0  0  0
   29.9540   12.0289   18.5299 H   0  0  0  0  0  0  0  0  0  0  0  0
   14.6242    9.1447   21.3581 H   0  0  0  0  0  0  0  0  0  0  0  0
   30.8623   11.0776   20.6212 H   0  0  0  0  0  0  0  0  0  0  0  0
   23.1124    9.6687   25.4661 H   0  0  0  0  0  0  0  0  0  0  0  0
  1  2  1  0  0  0  0
  1  6  1  0  0  0  0
  1  7  1  6  0  0  0
  1  9  1  0  0  0  0
  2  5  1  0  0  0  0
  2 10  1  0  0  0  0
  2 34  1  6  0  0  0
  3  4  1  0  0  0  0
  3  5  1  0  0  0  0
  3 24  1  0  0  0  0
  4  6  1  0  0  0  0
  4 17  2  0  0  0  0
  5 21  2  0  0  0  0
  6 35  1  0  0  0  0
  7 11  2  0  0  0  0
  7 13  1  0  0  0  0
  8  9  1  0  0  0  0
  8 10  1  0  0  0  0
  8 15  1  0  0  0  0
  9 36  1  0  0  0  0
  9 37  1  0  0  0  0
 10 38  1  0  0  0  0
 10 39  1  0  0  0  0
 11 12  1  0  0  0  0
 11 40  1  0  0  0  0
 12 14  2  0  0  0  0
 12 18  1  0  0  0  0
 13 14  1  0  0  0  0
 14 41  1  0  0  0  0
 15 19  2  0  0  0  0
 15 26  1  0  0  0  0
 16 20  3  0  0  0  0
 17 42  1  0  0  0  0
 17 53  1  0  0  0  0
 18 23  2  0  0  0  0
 18 27  1  0  0  0  0
 19 22  1  0  0  0  0
 19 32  1  0  0  0  0
 20 25  1  0  0  0  0
 22 30  2  0  0  0  0
 22 43  1  0  0  0  0
 23 25  1  0  0  0  0
 23 44  1  0  0  0  0
 24 45  1  0  0  0  0
 24 46  1  0  0  0  0
 24 47  1  0  0  0  0
 25 31  2  0  0  0  0
 26 28  2  0  0  0  0
 27 29  2  0  0  0  0
 27 48  1  0  0  0  0
 28 30  1  0  0  0  0
 28 49  1  0  0  0  0
 29 31  1  0  0  0  0
 29 50  1  0  0  0  0
 30 51  1  0  0  0  0
 31 52  1  0  0  0  0
 32 33  3  0  0  0  0
M  END
$$$$
