10W
 OpenBabel04111919123D

 53 57  0  0  1  0  0  0  0  0999 V2000
   21.5171   12.2217   23.2394 C   0  0  0  0  0  0  0  0  0  0  0  0
   22.2313   11.3565   24.1300 N   0  0  0  0  0  0  0  0  0  0  0  0
   22.2355   10.0115   23.9820 C   0  0  0  0  0  0  0  0  0  0  0  0
   21.7545    9.4555   22.8525 N   0  0  0  0  0  0  0  0  0  0  0  0
   22.7338    9.2019   24.9233 N   0  0  0  0  0  0  0  0  0  0  0  0
   22.9719   11.9923   25.2409 C   0  0  0  0  0  0  0  0  0  0  0  0
   21.4583   13.4264   23.4468 O   0  0  0  0  0  0  0  0  0  0  0  0
   20.7858   11.6042   22.0944 C   0  0  1  0  0  0  0  0  0  0  0  0
   21.3915   10.2780   21.6703 C   0  0  2  0  0  0  0  0  0  0  0  0
   20.2198    9.5974   20.9006 C   0  0  0  0  0  0  0  0  0  0  0  0
   19.0245   10.1608   21.5319 N   0  0  0  0  0  0  0  0  0  0  0  0
   19.3509   11.2556   22.4458 C   0  0  0  0  0  0  0  0  0  0  0  0
   22.6161   10.5178   20.8004 C   0  0  0  0  0  0  0  0  0  0  0  0
   22.6941   11.1175   19.5554 C   0  0  0  0  0  0  0  0  0  0  0  0
   24.0380   11.2951   19.1045 C   0  0  0  0  0  0  0  0  0  0  0  0
   24.9761   10.8425   20.0123 C   0  0  0  0  0  0  0  0  0  0  0  0
   24.1821   10.1552   21.3679 S   0  0  0  0  0  0  0  0  0  0  0  0
   26.4510   10.8933   19.9577 C   0  0  0  0  0  0  0  0  0  0  0  0
   27.2254   10.4878   21.0572 C   0  0  0  0  0  0  0  0  0  0  0  0
   28.6194   10.5597   21.0521 C   0  0  0  0  0  0  0  0  0  0  0  0
   29.2601   11.0491   19.9255 C   0  0  0  0  0  0  0  0  0  0  0  0
   28.5282   11.4500   18.8091 C   0  0  0  0  0  0  0  0  0  0  0  0
   27.1321   11.3750   18.8278 C   0  0  0  0  0  0  0  0  0  0  0  0
   29.3393   10.1450   22.2127 C   0  0  0  0  0  0  0  0  0  0  0  0
   29.8234    9.7886   23.2104 N   0  0  0  0  0  0  0  0  0  0  0  0
   30.5928   11.1323   19.8851 F   0  0  0  0  0  0  0  0  0  0  0  0
   17.7364    9.7752   21.2309 C   0  0  0  0  0  0  0  0  0  0  0  0
   17.4490    8.8179   20.2427 C   0  0  0  0  0  0  0  0  0  0  0  0
   16.1357    8.4208   19.9515 C   0  0  0  0  0  0  0  0  0  0  0  0
   15.0692    8.9777   20.6462 C   0  0  0  0  0  0  0  0  0  0  0  0
   15.3169    9.9313   21.6239 C   0  0  0  0  0  0  0  0  0  0  0  0
   16.6316   10.3183   21.9082 C   0  0  0  0  0  0  0  0  0  0  0  0
   21.6667    8.4478   22.7999 H   0  0  0  0  0  0  0  0  0  0  0  0
   22.7656    8.1946   24.8152 H   0  0  0  0  0  0  0  0  0  0  0  0
   22.8708   13.0807   25.2326 H   0  0  0  0  0  0  0  0  0  0  0  0
   24.0381   11.7587   25.1440 H   0  0  0  0  0  0  0  0  0  0  0  0
   22.5888   11.6292   26.1989 H   0  0  0  0  0  0  0  0  0  0  0  0
   20.7929   12.3245   21.2667 H   0  0  0  0  0  0  0  0  0  0  0  0
   20.2495    8.5086   21.0372 H   0  0  0  0  0  0  0  0  0  0  0  0
   20.2363    9.8110   19.8265 H   0  0  0  0  0  0  0  0  0  0  0  0
   18.7138   12.1346   22.2995 H   0  0  0  0  0  0  0  0  0  0  0  0
   19.2465   10.9157   23.4834 H   0  0  0  0  0  0  0  0  0  0  0  0
   21.8374   11.4593   18.9839 H   0  0  0  0  0  0  0  0  0  0  0  0
   24.2937   11.7661   18.1627 H   0  0  0  0  0  0  0  0  0  0  0  0
   26.7510   10.1101   21.9620 H   0  0  0  0  0  0  0  0  0  0  0  0
   29.0560   11.8248   17.9365 H   0  0  0  0  0  0  0  0  0  0  0  0
   26.5965   11.7000   17.9391 H   0  0  0  0  0  0  0  0  0  0  0  0
   18.2421    8.3572   19.6602 H   0  0  0  0  0  0  0  0  0  0  0  0
   15.9465    7.6793   19.1785 H   0  0  0  0  0  0  0  0  0  0  0  0
   14.0497    8.6736   20.4236 H   0  0  0  0  0  0  0  0  0  0  0  0
   14.4895   10.3799   22.1692 H   0  0  0  0  0  0  0  0  0  0  0  0
   16.7660   11.0632   22.6865 H   0  0  0  0  0  0  0  0  0  0  0  0
   23.1193    9.5702   25.7849 H   0  0  0  0  0  0  0  0  0  0  0  0
  1  2  1  0  0  0  0
  1  7  2  0  0  0  0
  1  8  1  0  0  0  0
  2  3  1  0  0  0  0
  2  6  1  0  0  0  0
  3  4  1  0  0  0  0
  3  5  2  0  0  0  0
  4  9  1  0  0  0  0
  4 33  1  0  0  0  0
  5 34  1  0  0  0  0
  5 53  1  0  0  0  0
  6 35  1  0  0  0  0
  6 36  1  0  0  0  0
  6 37  1  0  0  0  0
  8  9  1  0  0  0  0
  8 12  1  0  0  0  0
  8 38  1  6  0  0  0
  9 10  1  0  0  0  0
  9 13  1  6  0  0  0
 10 11  1  0  0  0  0
 10 39  1  0  0  0  0
 10 40  1  0  0  0  0
 11 12  1  0  0  0  0
 11 27  1  0  0  0  0
 12 41  1  0  0  0  0
 12 42  1  0  0  0  0
 13 14  2  0  0  0  0
 13 17  1  0  0  0  0
 14 15  1  0  0  0  0
 14 43  1  0  0  0  0
 15 16  2  0  0  0  0
 15 44  1  0  0  0  0
 16 17  1  0  0  0  0
 16 18  1  0  0  0  0
 18 19  2  0  0  0  0
 18 23  1  0  0  0  0
 19 20  1  0  0  0  0
 19 45  1  0  0  0  0
 20 21  2  0  0  0  0
 20 24  1  0  0  0  0
 21 22  1  0  0  0  0
 21 26  1  0  0  0  0
 22 23  2  0  0  0  0
 22 46  1  0  0  0  0
 23 47  1  0  0  0  0
 24 25  3  0  0  0  0
 27 28  2  0  0  0  0
 27 32  1  0  0  0  0
 28 29  1  0  0  0  0
 28 48  1  0  0  0  0
 29 30  2  0  0  0  0
 29 49  1  0  0  0  0
 30 31  1  0  0  0  0
 30 50  1  0  0  0  0
 31 32  2  0  0  0  0
 31 51  1  0  0  0  0
 32 52  1  0  0  0  0
M  END
$$$$
