11E
 OpenBabel04111919123D

 25 26  0  0  0  0  0  0  0  0999 V2000
  -23.4259  -16.0106    9.1635 O   0  0  0  0  0  0  0  0  0  0  0  0
  -24.2165  -15.0917    9.5221 C   0  0  0  0  0  0  0  0  0  0  0  0
  -25.0851  -14.4610    8.8460 O   0  0  0  0  0  0  0  0  0  0  0  0
  -24.4281  -14.9626   11.0360 C   0  0  0  0  0  0  0  0  0  0  0  0
  -25.5866  -15.8090   11.2738 N   0  0  0  0  0  0  0  0  0  0  0  0
  -26.4450  -15.7455   12.3076 C   0  0  0  0  0  0  0  0  0  0  0  0
  -26.3048  -15.0833   13.3061 O   0  0  0  0  0  0  0  0  0  0  0  0
  -27.5907  -16.6478   12.1408 C   0  0  0  0  0  0  0  0  0  0  0  0
  -28.0067  -17.3646   13.2552 C   0  0  0  0  0  0  0  0  0  0  0  0
  -28.1810  -16.7940   10.8865 C   0  0  0  0  0  0  0  0  0  0  0  0
  -29.2151  -17.7215   10.7884 C   0  0  0  0  0  0  0  0  0  0  0  0
  -30.1066  -18.1185    9.3877 S   0  0  0  0  0  0  0  0  0  0  0  0
  -29.6701  -18.4664   11.8785 C   0  0  0  0  0  0  0  0  0  0  0  0
  -29.0567  -18.2777   13.1381 C   0  0  0  0  0  0  0  0  0  0  0  0
  -30.7181  -19.3263   11.5749 N   0  0  0  0  0  0  0  0  0  0  0  0
  -31.0249  -19.2187   10.3023 C   0  0  0  0  0  0  0  0  0  0  0  0
  -32.0138  -19.9210    9.7195 N   0  0  0  0  0  0  0  0  0  0  0  0
  -24.6258  -13.9203   11.3138 H   0  0  0  0  0  0  0  0  0  0  0  0
  -23.5978  -15.3505   11.6295 H   0  0  0  0  0  0  0  0  0  0  0  0
  -25.8132  -16.3612   10.4569 H   0  0  0  0  0  0  0  0  0  0  0  0
  -27.4885  -17.2223   14.1976 H   0  0  0  0  0  0  0  0  0  0  0  0
  -27.8612  -16.2360   10.0076 H   0  0  0  0  0  0  0  0  0  0  0  0
  -29.3863  -18.8249   14.0155 H   0  0  0  0  0  0  0  0  0  0  0  0
  -32.5394  -20.5656   10.2647 H   0  0  0  0  0  0  0  0  0  0  0  0
  -32.2166  -19.8064    8.7335 H   0  0  0  0  0  0  0  0  0  0  0  0
  1  2  2  0  0  0  0
  2  3  1  0  0  0  0
  2  4  1  0  0  0  0
  4  5  1  0  0  0  0
  4 18  1  0  0  0  0
  4 19  1  0  0  0  0
  5  6  1  0  0  0  0
  5 20  1  0  0  0  0
  6  7  2  0  0  0  0
  6  8  1  0  0  0  0
  8  9  2  0  0  0  0
  8 10  1  0  0  0  0
  9 14  1  0  0  0  0
  9 21  1  0  0  0  0
 10 11  2  0  0  0  0
 10 22  1  0  0  0  0
 11 12  1  0  0  0  0
 11 13  1  0  0  0  0
 12 16  1  0  0  0  0
 13 14  2  0  0  0  0
 13 15  1  0  0  0  0
 14 23  1  0  0  0  0
 15 16  2  0  0  0  0
 16 17  1  0  0  0  0
 17 24  1  0  0  0  0
 17 25  1  0  0  0  0
M  END
$$$$
