11Y
 OpenBabel04111919243D

 43 46  0  0  1  0  0  0  0  0999 V2000
   -3.0804   19.3926    0.8611 O   0  0  0  0  0  0  0  0  0  0  0  0
   -3.1453   20.1234   -0.1771 C   0  0  0  0  0  0  0  0  0  0  0  0
   -4.2229   20.4552   -0.7537 O   0  0  0  0  0  0  0  0  0  0  0  0
   -1.8235   20.6239   -0.7348 C   0  0  0  0  0  0  0  0  0  0  0  0
   -0.6372   20.2006   -0.0809 C   0  0  0  0  0  0  0  0  0  0  0  0
   -1.6836   21.4857   -1.8349 C   0  0  0  0  0  0  0  0  0  0  0  0
   -2.9852   22.0894   -2.8001 Cl  0  0  0  0  0  0  0  0  0  0  0  0
   -0.4083   21.9250   -2.2339 C   0  0  0  0  0  0  0  0  0  0  0  0
    0.7340   21.5306   -1.5444 C   0  0  0  0  0  0  0  0  0  0  0  0
    0.6212   20.6511   -0.4684 C   0  0  0  0  0  0  0  0  0  0  0  0
    1.7591   20.2828    0.2731 N   0  0  0  0  0  0  0  0  0  0  0  0
    2.7272   21.2508    0.7335 C   0  0  1  0  0  0  0  0  0  0  0  0
    2.1006   22.2698    1.6624 C   0  0  0  0  0  0  0  0  0  0  0  0
    1.3897   21.8123    3.1638 S   0  0  0  0  0  0  0  0  0  0  0  0
    1.0342   23.4351    3.5669 C   0  0  0  0  0  0  0  0  0  0  0  0
    1.4510   24.2946    2.5844 C   0  0  0  0  0  0  0  0  0  0  0  0
    1.2616   26.1688    2.6465 Br  0  0  0  0  0  0  0  0  0  0  0  0
    2.0623   23.6413    1.4886 C   0  0  0  0  0  0  0  0  0  0  0  0
    2.1138   18.9850    0.6229 C   0  0  0  0  0  0  0  0  0  0  0  0
    1.6076   17.9137    0.3446 O   0  0  0  0  0  0  0  0  0  0  0  0
    3.4220   19.0904    1.3406 C   0  0  0  0  0  0  0  0  0  0  0  0
    4.1976   18.0236    1.7011 O   0  0  0  0  0  0  0  0  0  0  0  0
    3.7482   20.3743    1.3775 C   0  0  0  0  0  0  0  0  0  0  0  0
    4.9804   21.0314    1.8405 C   0  0  0  0  0  0  0  0  0  0  0  0
    5.2917   22.1291    1.3640 O   0  0  0  0  0  0  0  0  0  0  0  0
    5.8568   20.4229    2.8499 C   0  0  0  0  0  0  0  0  0  0  0  0
    7.2379   20.6250    2.7153 C   0  0  0  0  0  0  0  0  0  0  0  0
    8.1165   20.0879    3.6511 C   0  0  0  0  0  0  0  0  0  0  0  0
    7.6162   19.3623    4.7347 C   0  0  0  0  0  0  0  0  0  0  0  0
    6.2421   19.1879    4.8872 C   0  0  0  0  0  0  0  0  0  0  0  0
    5.3565   19.7231    3.9520 C   0  0  0  0  0  0  0  0  0  0  0  0
   -0.7307   19.5610    0.7944 H   0  0  0  0  0  0  0  0  0  0  0  0
   -0.3098   22.5813   -3.0951 H   0  0  0  0  0  0  0  0  0  0  0  0
    1.7009   21.8836   -1.8927 H   0  0  0  0  0  0  0  0  0  0  0  0
    3.1668   21.7411   -0.1427 H   0  0  0  0  0  0  0  0  0  0  0  0
    0.5399   23.6700    4.4988 H   0  0  0  0  0  0  0  0  0  0  0  0
    2.4720   24.1370    0.6163 H   0  0  0  0  0  0  0  0  0  0  0  0
    4.0014   17.3124    1.0606 H   0  0  0  0  0  0  0  0  0  0  0  0
    7.6255   21.2051    1.8790 H   0  0  0  0  0  0  0  0  0  0  0  0
    9.1869   20.2382    3.5401 H   0  0  0  0  0  0  0  0  0  0  0  0
    8.3018   18.9430    5.4633 H   0  0  0  0  0  0  0  0  0  0  0  0
    5.8524   18.6292    5.7387 H   0  0  0  0  0  0  0  0  0  0  0  0
    4.2876   19.5863    4.0911 H   0  0  0  0  0  0  0  0  0  0  0  0
  1  2  2  0  0  0  0
  2  3  1  0  0  0  0
  2  4  1  0  0  0  0
  4  5  2  0  0  0  0
  4  6  1  0  0  0  0
  5 10  1  0  0  0  0
  5 32  1  0  0  0  0
  6  7  1  0  0  0  0
  6  8  2  0  0  0  0
  8  9  1  0  0  0  0
  8 33  1  0  0  0  0
  9 10  2  0  0  0  0
  9 34  1  0  0  0  0
 10 11  1  0  0  0  0
 11 12  1  0  0  0  0
 11 19  1  0  0  0  0
 12 13  1  0  0  0  0
 12 23  1  0  0  0  0
 12 35  1  6  0  0  0
 13 14  1  0  0  0  0
 13 18  2  0  0  0  0
 14 15  1  0  0  0  0
 15 16  2  0  0  0  0
 15 36  1  0  0  0  0
 16 17  1  0  0  0  0
 16 18  1  0  0  0  0
 18 37  1  0  0  0  0
 19 20  2  0  0  0  0
 19 21  1  0  0  0  0
 21 22  1  0  0  0  0
 21 23  2  0  0  0  0
 22 38  1  0  0  0  0
 23 24  1  0  0  0  0
 24 25  2  0  0  0  0
 24 26  1  0  0  0  0
 26 27  2  0  0  0  0
 26 31  1  0  0  0  0
 27 28  1  0  0  0  0
 27 39  1  0  0  0  0
 28 29  2  0  0  0  0
 28 40  1  0  0  0  0
 29 30  1  0  0  0  0
 29 41  1  0  0  0  0
 30 31  2  0  0  0  0
 30 42  1  0  0  0  0
 31 43  1  0  0  0  0
M  END
$$$$
