12R
 OpenBabel04111919273D

 27 29  0  0  0  0  0  0  0  0999 V2000
  -31.7443   -9.0328   13.6185 C   0  0  0  0  0  0  0  0  0  0  0  0
  -35.8841   -9.9015   11.6786 C   0  0  0  0  0  0  0  0  0  0  0  0
  -31.8291   -7.6712   13.3240 C   0  0  0  0  0  0  0  0  0  0  0  0
  -30.9722   -6.6752   13.8647 C   0  0  0  0  0  0  0  0  0  0  0  0
  -32.7033   -7.0039   12.5007 C   0  0  0  0  0  0  0  0  0  0  0  0
  -34.8656   -9.8249   12.6343 C   0  0  0  0  0  0  0  0  0  0  0  0
  -29.9835   -6.9781   14.7376 N   0  0  0  0  0  0  0  0  0  0  0  0
  -30.7587   -9.3213   14.5157 N   0  0  0  0  0  0  0  0  0  0  0  0
  -29.9630   -8.3150   14.9965 C   0  0  0  0  0  0  0  0  0  0  0  0
  -31.2778   -5.4655   13.3885 N   0  0  0  0  0  0  0  0  0  0  0  0
  -32.3220   -5.6919   12.5646 N   0  3  0  0  0  0  0  0  0  0  0  0
  -32.4982  -10.0917   13.1082 N   0  0  0  0  0  0  0  0  0  0  0  0
  -33.5319  -10.0199   12.2452 N   0  0  0  0  0  0  0  0  0  0  0  0
  -37.2204   -9.7477   12.0536 C   0  0  0  0  0  0  0  0  0  0  0  0
  -37.5488   -9.5256   13.3897 C   0  0  0  0  0  0  0  0  0  0  0  0
  -36.5490   -9.4826   14.3560 C   0  0  0  0  0  0  0  0  0  0  0  0
  -35.2185   -9.6465   13.9788 C   0  0  0  0  0  0  0  0  0  0  0  0
  -35.6446  -10.0919   10.6359 H   0  0  0  0  0  0  0  0  0  0  0  0
  -33.5405   -7.3118   11.8948 H   0  0  0  0  0  0  0  0  0  0  0  0
  -29.1876   -8.6386   15.6855 H   0  0  0  0  0  0  0  0  0  0  0  0
  -32.7325   -4.9024   12.0783 H   0  0  0  0  0  0  0  0  0  0  0  0
  -32.3513  -10.9625   13.6123 H   0  0  0  0  0  0  0  0  0  0  0  0
  -33.3103   -9.8544   11.2653 H   0  0  0  0  0  0  0  0  0  0  0  0
  -38.0048   -9.8043   11.3037 H   0  0  0  0  0  0  0  0  0  0  0  0
  -38.5865   -9.3912   13.6812 H   0  0  0  0  0  0  0  0  0  0  0  0
  -36.7954   -9.3219   15.4010 H   0  0  0  0  0  0  0  0  0  0  0  0
  -34.4503   -9.6130   14.7468 H   0  0  0  0  0  0  0  0  0  0  0  0
  1  3  2  0  0  0  0
  1  8  1  0  0  0  0
  1 12  1  0  0  0  0
  2  6  2  0  0  0  0
  2 14  1  0  0  0  0
  2 18  1  0  0  0  0
  3  4  1  0  0  0  0
  3  5  1  0  0  0  0
  4  7  2  0  0  0  0
  4 10  1  0  0  0  0
  5 11  2  0  0  0  0
  5 19  1  0  0  0  0
  6 13  1  0  0  0  0
  6 17  1  0  0  0  0
  7  9  1  0  0  0  0
  8  9  2  0  0  0  0
  9 20  1  0  0  0  0
 10 11  1  0  0  0  0
 11 21  1  0  0  0  0
 12 13  1  0  0  0  0
 12 22  1  0  0  0  0
 13 23  1  0  0  0  0
 14 15  2  0  0  0  0
 14 24  1  0  0  0  0
 15 16  1  0  0  0  0
 15 25  1  0  0  0  0
 16 17  2  0  0  0  0
 16 26  1  0  0  0  0
 17 27  1  0  0  0  0
M  CHG  1  11   1
M  END
$$$$
