15H
 OpenBabel04111919153D

 57 61  0  0  1  0  0  0  0  0999 V2000
   17.7582   88.0872   43.9615 N   0  0  0  0  0  0  0  0  0  0  0  0
   18.8369   88.3144   44.7720 C   0  0  0  0  0  0  0  0  0  0  0  0
   20.1652   88.5362   44.3427 C   0  0  0  0  0  0  0  0  0  0  0  0
   21.1707   88.7477   45.2832 C   0  0  0  0  0  0  0  0  0  0  0  0
   20.8655   88.7540   46.6441 C   0  0  0  0  0  0  0  0  0  0  0  0
   19.5573   88.5414   47.0922 C   0  0  0  0  0  0  0  0  0  0  0  0
   18.5601   88.3143   46.1378 C   0  0  0  0  0  0  0  0  0  0  0  0
   16.8850   87.9944   46.3678 S   0  0  0  0  0  0  0  0  0  0  0  0
   16.6602   87.9018   44.6607 C   0  0  0  0  0  0  0  0  0  0  0  0
   15.4254   87.6597   44.1683 N   0  0  0  0  0  0  0  0  0  0  0  0
   14.9344   88.0487   42.9109 C   0  0  0  0  0  0  0  0  0  0  0  0
   13.5502   87.9852   42.6895 C   0  0  0  0  0  0  0  0  0  0  0  0
   13.0018   88.3959   41.4773 C   0  0  0  0  0  0  0  0  0  0  0  0
   15.7444   88.5742   41.8930 C   0  0  0  0  0  0  0  0  0  0  0  0
   15.2075   88.9873   40.6785 C   0  0  0  0  0  0  0  0  0  0  0  0
   13.8409   88.8739   40.4738 C   0  0  0  0  0  0  0  0  0  0  0  0
   13.3116   89.2408   39.2699 O   0  0  0  0  0  0  0  0  0  0  0  0
   13.1010   88.1637   38.4081 C   0  0  0  0  0  0  0  0  0  0  0  0
   13.9941   87.1482   38.4074 N   0  0  0  0  0  0  0  0  0  0  0  0
   13.7541   86.1725   37.5065 C   0  0  0  0  0  0  0  0  0  0  0  0
   12.6836   86.2368   36.6477 C   0  0  0  0  0  0  0  0  0  0  0  0
   11.8053   87.2760   36.6140 N   0  0  0  0  0  0  0  0  0  0  0  0
   11.9992   88.2687   37.5223 C   0  0  0  0  0  0  0  0  0  0  0  0
   11.1871   89.4061   37.5307 N   0  0  0  0  0  0  0  0  0  0  0  0
   10.1912   89.5338   38.5953 C   0  0  0  0  0  0  0  0  0  0  0  0
    9.6966   90.9809   38.7279 C   0  0  0  0  0  0  0  0  0  0  0  0
   11.0302   90.0869   36.2567 C   0  0  0  0  0  0  0  0  0  0  0  0
   10.6319   91.5433   36.5055 C   0  0  0  0  0  0  0  0  0  0  0  0
    9.3598   91.5935   37.3579 C   0  0  0  0  0  0  0  0  0  0  0  0
    8.7749   93.0184   37.4152 C   0  0  2  0  0  0  0  0  0  0  0  0
    9.3744   93.9173   38.4868 C   0  0  0  0  0  0  0  0  0  0  0  0
    7.3676   92.9074   37.6400 O   0  0  0  0  0  0  0  0  0  0  0  0
   20.3935   88.5312   43.2806 H   0  0  0  0  0  0  0  0  0  0  0  0
   22.1955   88.9145   44.9581 H   0  0  0  0  0  0  0  0  0  0  0  0
   21.6552   88.9199   47.3737 H   0  0  0  0  0  0  0  0  0  0  0  0
   19.3206   88.5428   48.1497 H   0  0  0  0  0  0  0  0  0  0  0  0
   14.7515   87.2058   44.7690 H   0  0  0  0  0  0  0  0  0  0  0  0
   12.8842   87.6200   43.4660 H   0  0  0  0  0  0  0  0  0  0  0  0
   11.9322   88.3253   41.3134 H   0  0  0  0  0  0  0  0  0  0  0  0
   16.8192   88.6580   42.0113 H   0  0  0  0  0  0  0  0  0  0  0  0
   15.8606   89.3523   39.8920 H   0  0  0  0  0  0  0  0  0  0  0  0
   14.4556   85.3437   37.5050 H   0  0  0  0  0  0  0  0  0  0  0  0
   12.4991   85.4332   35.9388 H   0  0  0  0  0  0  0  0  0  0  0  0
   10.6334   89.2549   39.5589 H   0  0  0  0  0  0  0  0  0  0  0  0
    9.3317   88.8698   38.4419 H   0  0  0  0  0  0  0  0  0  0  0  0
   10.4875   91.5671   39.2166 H   0  0  0  0  0  0  0  0  0  0  0  0
    8.8229   91.0177   39.3892 H   0  0  0  0  0  0  0  0  0  0  0  0
   10.2956   89.6027   35.6013 H   0  0  0  0  0  0  0  0  0  0  0  0
   11.9905   90.0973   35.7261 H   0  0  0  0  0  0  0  0  0  0  0  0
   10.4741   92.0493   35.5474 H   0  0  0  0  0  0  0  0  0  0  0  0
   11.4492   92.0703   37.0170 H   0  0  0  0  0  0  0  0  0  0  0  0
    8.6053   90.9484   36.8861 H   0  0  0  0  0  0  0  0  0  0  0  0
    8.9003   93.5017   36.4385 H   0  0  0  0  0  0  0  0  0  0  0  0
    8.8921   94.9006   38.4789 H   0  0  0  0  0  0  0  0  0  0  0  0
   10.4475   94.0527   38.3284 H   0  0  0  0  0  0  0  0  0  0  0  0
    9.2098   93.5102   39.4901 H   0  0  0  0  0  0  0  0  0  0  0  0
    6.9780   93.7916   37.5230 H   0  0  0  0  0  0  0  0  0  0  0  0
  1  2  1  0  0  0  0
  1  9  2  0  0  0  0
  2  3  2  0  0  0  0
  2  7  1  0  0  0  0
  3  4  1  0  0  0  0
  3 33  1  0  0  0  0
  4  5  2  0  0  0  0
  4 34  1  0  0  0  0
  5  6  1  0  0  0  0
  5 35  1  0  0  0  0
  6  7  2  0  0  0  0
  6 36  1  0  0  0  0
  7  8  1  0  0  0  0
  8  9  1  0  0  0  0
  9 10  1  0  0  0  0
 10 11  1  0  0  0  0
 10 37  1  0  0  0  0
 11 12  2  0  0  0  0
 11 14  1  0  0  0  0
 12 13  1  0  0  0  0
 12 38  1  0  0  0  0
 13 16  2  0  0  0  0
 13 39  1  0  0  0  0
 14 15  2  0  0  0  0
 14 40  1  0  0  0  0
 15 16  1  0  0  0  0
 15 41  1  0  0  0  0
 16 17  1  0  0  0  0
 17 18  1  0  0  0  0
 18 19  2  0  0  0  0
 18 23  1  0  0  0  0
 19 20  1  0  0  0  0
 20 21  2  0  0  0  0
 20 42  1  0  0  0  0
 21 22  1  0  0  0  0
 21 43  1  0  0  0  0
 22 23  2  0  0  0  0
 23 24  1  0  0  0  0
 24 25  1  0  0  0  0
 24 27  1  0  0  0  0
 25 26  1  0  0  0  0
 25 44  1  0  0  0  0
 25 45  1  0  0  0  0
 26 29  1  0  0  0  0
 26 46  1  0  0  0  0
 26 47  1  0  0  0  0
 27 28  1  0  0  0  0
 27 48  1  0  0  0  0
 27 49  1  0  0  0  0
 28 29  1  0  0  0  0
 28 50  1  0  0  0  0
 28 51  1  0  0  0  0
 29 30  1  0  0  0  0
 29 52  1  0  0  0  0
 30 31  1  0  0  0  0
 30 32  1  0  0  0  0
 30 53  1  6  0  0  0
 31 54  1  0  0  0  0
 31 55  1  0  0  0  0
 31 56  1  0  0  0  0
 32 57  1  0  0  0  0
M  END
$$$$
