15U
 OpenBabel04111919153D

 71 73  0  0  1  0  0  0  0  0999 V2000
    2.5621   13.6897    0.1845 S   0  0  0  0  0  0  0  0  0  0  0  0
    1.7553   12.4959    0.0861 O   0  0  0  0  0  0  0  0  0  0  0  0
    2.5260   14.5148    1.3701 O   0  0  0  0  0  0  0  0  0  0  0  0
    2.8532   12.5300   -4.2390 C   0  0  0  0  0  0  0  0  0  0  0  0
    3.2267   13.6551   -5.1978 C   0  0  2  0  0  0  0  0  0  0  0  0
    2.1916   14.7716   -5.0508 C   0  0  0  0  0  0  0  0  0  0  0  0
    2.0271   15.1703   -3.5994 C   0  0  0  0  0  0  0  0  0  0  0  0
    1.5078   16.4401   -3.3141 C   0  0  0  0  0  0  0  0  0  0  0  0
    1.3454   16.8547   -1.9913 C   0  0  0  0  0  0  0  0  0  0  0  0
    1.7003   16.0034   -0.9519 C   0  0  0  0  0  0  0  0  0  0  0  0
    2.2018   14.7209   -1.2320 C   0  0  0  0  0  0  0  0  0  0  0  0
    2.3845   14.2804   -2.5583 C   0  0  0  0  0  0  0  0  0  0  0  0
    3.3007   13.1380   -6.6320 C   0  0  0  0  0  0  0  0  0  0  0  0
    2.8064   12.9979   -2.8701 N   0  0  0  0  0  0  0  0  0  0  0  0
    4.1478   13.2215   -0.0222 N   0  0  0  0  0  0  0  0  0  0  0  0
    5.1934   14.2453   -0.0108 C   0  0  2  0  0  0  0  0  0  0  0  0
    5.7611   14.5308   -1.4140 C   0  0  0  0  0  0  0  0  0  0  0  0
    5.7625   13.6297   -2.2652 O   0  0  0  0  0  0  0  0  0  0  0  0
    6.2806   13.7952    0.9624 C   0  0  0  0  0  0  0  0  0  0  0  0
    7.1564   12.6642    0.4253 C   0  0  0  0  0  0  0  0  0  0  0  0
    8.3999   12.5182    1.2871 C   0  0  0  0  0  0  0  0  0  0  0  0
    8.7023   11.0952    1.4843 N   0  0  0  0  0  0  0  0  0  0  0  0
    9.5039   10.3770    0.6994 C   0  0  0  0  0  0  0  0  0  0  0  0
    9.6495    9.0736    0.9413 N   0  0  0  0  0  0  0  0  0  0  0  0
   10.1667   10.9113   -0.3271 N   0  0  0  0  0  0  0  0  0  0  0  0
    6.2729   15.7884   -1.6529 N   0  0  0  0  0  0  0  0  0  0  0  0
    6.4722   16.8422   -0.6128 C   0  0  2  0  0  0  0  0  0  0  0  0
    5.8778   18.1627   -1.1081 C   0  0  0  0  0  0  0  0  0  0  0  0
    6.4166   18.5353   -2.4924 C   0  0  1  0  0  0  0  0  0  0  0  0
    6.1647   17.3764   -3.4747 C   0  0  0  0  0  0  0  0  0  0  0  0
    6.8622   16.1282   -2.9497 C   0  0  0  0  0  0  0  0  0  0  0  0
    7.9289   16.9124   -0.0305 C   0  0  0  0  0  0  0  0  0  0  0  0
    8.6108   15.8465   -0.1559 O   0  0  0  0  0  0  0  0  0  0  0  0
    8.2256   17.9805    0.5649 O   0  0  0  0  0  0  0  0  0  0  0  0
    5.7990   19.8300   -2.9954 C   0  0  0  0  0  0  0  0  0  0  0  0
    3.5718   11.7059   -4.3211 H   0  0  0  0  0  0  0  0  0  0  0  0
    1.8658   12.1211   -4.4836 H   0  0  0  0  0  0  0  0  0  0  0  0
    4.2155   14.0516   -4.9263 H   0  0  0  0  0  0  0  0  0  0  0  0
    1.2170   14.4503   -5.4414 H   0  0  0  0  0  0  0  0  0  0  0  0
    2.5134   15.6376   -5.6426 H   0  0  0  0  0  0  0  0  0  0  0  0
    1.2193   17.1127   -4.1136 H   0  0  0  0  0  0  0  0  0  0  0  0
    0.9445   17.8397   -1.7693 H   0  0  0  0  0  0  0  0  0  0  0  0
    1.5592   16.3370    0.0715 H   0  0  0  0  0  0  0  0  0  0  0  0
    4.0414   12.3345   -6.7115 H   0  0  0  0  0  0  0  0  0  0  0  0
    3.5974   13.9367   -7.3196 H   0  0  0  0  0  0  0  0  0  0  0  0
    2.3361   12.7408   -6.9659 H   0  0  0  0  0  0  0  0  0  0  0  0
    3.3443   12.4754   -2.1913 H   0  0  0  0  0  0  0  0  0  0  0  0
    4.3478   12.2859   -0.3446 H   0  0  0  0  0  0  0  0  0  0  0  0
    4.7328   15.1538    0.3851 H   0  0  0  0  0  0  0  0  0  0  0  0
    5.8138   13.4565    1.8944 H   0  0  0  0  0  0  0  0  0  0  0  0
    6.9117   14.6442    1.2358 H   0  0  0  0  0  0  0  0  0  0  0  0
    7.4844   12.8467   -0.6031 H   0  0  0  0  0  0  0  0  0  0  0  0
    6.5773   11.7326    0.4042 H   0  0  0  0  0  0  0  0  0  0  0  0
    8.2701   12.9560    2.2789 H   0  0  0  0  0  0  0  0  0  0  0  0
    9.2540   13.0320    0.8364 H   0  0  0  0  0  0  0  0  0  0  0  0
    8.2833   10.6478    2.2881 H   0  0  0  0  0  0  0  0  0  0  0  0
   10.2402    8.4933    0.3529 H   0  0  0  0  0  0  0  0  0  0  0  0
   10.0829   11.9020   -0.5452 H   0  0  0  0  0  0  0  0  0  0  0  0
   10.7829   10.3764   -0.9191 H   0  0  0  0  0  0  0  0  0  0  0  0
    5.8886   16.6005    0.2765 H   0  0  0  0  0  0  0  0  0  0  0  0
    6.0750   18.9709   -0.3936 H   0  0  0  0  0  0  0  0  0  0  0  0
    4.7839   18.0588   -1.1681 H   0  0  0  0  0  0  0  0  0  0  0  0
    7.5007   18.6928   -2.4097 H   0  0  0  0  0  0  0  0  0  0  0  0
    6.5254   17.6309   -4.4744 H   0  0  0  0  0  0  0  0  0  0  0  0
    5.0851   17.1791   -3.5506 H   0  0  0  0  0  0  0  0  0  0  0  0
    6.7751   15.3047   -3.6608 H   0  0  0  0  0  0  0  0  0  0  0  0
    7.9316   16.3262   -2.8099 H   0  0  0  0  0  0  0  0  0  0  0  0
    5.9913   20.6428   -2.2802 H   0  0  0  0  0  0  0  0  0  0  0  0
    4.7139   19.7379   -3.1155 H   0  0  0  0  0  0  0  0  0  0  0  0
    6.2329   20.1158   -3.9522 H   0  0  0  0  0  0  0  0  0  0  0  0
    9.1440    8.6103    1.6859 H   0  0  0  0  0  0  0  0  0  0  0  0
  1  2  2  0  0  0  0
  1  3  2  0  0  0  0
  1 11  1  0  0  0  0
  1 15  1  0  0  0  0
  4  5  1  0  0  0  0
  4 14  1  0  0  0  0
  4 36  1  0  0  0  0
  4 37  1  0  0  0  0
  5  6  1  0  0  0  0
  5 13  1  0  0  0  0
  5 38  1  1  0  0  0
  6  7  1  0  0  0  0
  6 39  1  0  0  0  0
  6 40  1  0  0  0  0
  7  8  2  0  0  0  0
  7 12  1  0  0  0  0
  8  9  1  0  0  0  0
  8 41  1  0  0  0  0
  9 10  2  0  0  0  0
  9 42  1  0  0  0  0
 10 11  1  0  0  0  0
 10 43  1  0  0  0  0
 11 12  2  0  0  0  0
 12 14  1  0  0  0  0
 13 44  1  0  0  0  0
 13 45  1  0  0  0  0
 13 46  1  0  0  0  0
 14 47  1  0  0  0  0
 15 16  1  0  0  0  0
 15 48  1  0  0  0  0
 16 17  1  0  0  0  0
 16 19  1  0  0  0  0
 16 49  1  1  0  0  0
 17 18  2  0  0  0  0
 17 26  1  0  0  0  0
 19 20  1  0  0  0  0
 19 50  1  0  0  0  0
 19 51  1  0  0  0  0
 20 21  1  0  0  0  0
 20 52  1  0  0  0  0
 20 53  1  0  0  0  0
 21 22  1  0  0  0  0
 21 54  1  0  0  0  0
 21 55  1  0  0  0  0
 22 23  1  0  0  0  0
 22 56  1  0  0  0  0
 23 24  2  0  0  0  0
 23 25  1  0  0  0  0
 24 57  1  0  0  0  0
 24 71  1  0  0  0  0
 25 58  1  0  0  0  0
 25 59  1  0  0  0  0
 26 27  1  0  0  0  0
 26 31  1  0  0  0  0
 27 28  1  0  0  0  0
 27 32  1  0  0  0  0
 27 60  1  1  0  0  0
 28 29  1  0  0  0  0
 28 61  1  0  0  0  0
 28 62  1  0  0  0  0
 29 30  1  0  0  0  0
 29 35  1  0  0  0  0
 29 63  1  1  0  0  0
 30 31  1  0  0  0  0
 30 64  1  0  0  0  0
 30 65  1  0  0  0  0
 31 66  1  0  0  0  0
 31 67  1  0  0  0  0
 32 33  2  0  0  0  0
 32 34  1  0  0  0  0
 35 68  1  0  0  0  0
 35 69  1  0  0  0  0
 35 70  1  0  0  0  0
M  END
$$$$
