164
 OpenBabel04111920303D

 27 27  0  0  1  0  0  0  0  0999 V2000
   23.4087   76.2903   11.8047 O   0  0  0  0  0  0  0  0  0  0  0  0
   24.4167   75.5314   11.9686 C   0  0  0  0  0  0  0  0  0  0  0  0
   24.4938   74.5209   12.7262 O   0  0  0  0  0  0  0  0  0  0  0  0
   25.6772   75.9510   11.1913 C   0  0  1  0  0  0  0  0  0  0  0  0
   26.0726   77.3255   11.7640 C   0  0  1  0  0  0  0  0  0  0  0  0
   27.0750   77.2660   12.8899 C   0  0  0  0  0  0  0  0  0  0  0  0
   27.8531   76.1901   13.0823 C   0  0  0  0  0  0  0  0  0  0  0  0
   27.7986   75.0707   12.1725 C   0  0  0  0  0  0  0  0  0  0  0  0
   26.6806   78.1201   10.7263 O   0  0  0  0  0  0  0  0  0  0  0  0
   26.7981   74.9277   11.2816 C   0  0  0  0  0  0  0  0  0  0  0  0
   26.7621   73.7933   10.2944 C   0  0  0  0  0  0  0  0  0  0  0  0
   25.8544   73.7262    9.4599 O   0  0  0  0  0  0  0  0  0  0  0  0
   27.8852   72.7644   10.2723 C   0  0  0  0  0  0  0  0  0  0  0  0
   29.1362   73.3163    9.5977 C   0  0  0  0  0  0  0  0  0  0  0  0
   30.2177   72.2918    9.2690 C   0  0  0  0  0  0  0  0  0  0  0  0
   29.9346   71.0775    9.4621 O   0  0  0  0  0  0  0  0  0  0  0  0
   31.3005   72.7931    8.8462 O   0  0  0  0  0  0  0  0  0  0  0  0
   25.3950   76.0860   10.1392 H   0  0  0  0  0  0  0  0  0  0  0  0
   25.2039   77.8948   12.1087 H   0  0  0  0  0  0  0  0  0  0  0  0
   27.1323   78.1063   13.5687 H   0  0  0  0  0  0  0  0  0  0  0  0
   28.5606   76.1401   13.9017 H   0  0  0  0  0  0  0  0  0  0  0  0
   28.6108   74.3576   12.2591 H   0  0  0  0  0  0  0  0  0  0  0  0
   26.9170   78.9646   11.1356 H   0  0  0  0  0  0  0  0  0  0  0  0
   27.5058   71.8899    9.7292 H   0  0  0  0  0  0  0  0  0  0  0  0
   28.0901   72.4097   11.2884 H   0  0  0  0  0  0  0  0  0  0  0  0
   29.5998   74.0780   10.2354 H   0  0  0  0  0  0  0  0  0  0  0  0
   28.8592   73.8246    8.6656 H   0  0  0  0  0  0  0  0  0  0  0  0
  1  2  2  0  0  0  0
  2  3  1  0  0  0  0
  2  4  1  0  0  0  0
  4  5  1  0  0  0  0
  4 10  1  0  0  0  0
  4 18  1  6  0  0  0
  5  6  1  0  0  0  0
  5  9  1  0  0  0  0
  5 19  1  1  0  0  0
  6  7  2  0  0  0  0
  6 20  1  0  0  0  0
  7  8  1  0  0  0  0
  7 21  1  0  0  0  0
  8 10  2  0  0  0  0
  8 22  1  0  0  0  0
  9 23  1  0  0  0  0
 10 11  1  0  0  0  0
 11 12  2  0  0  0  0
 11 13  1  0  0  0  0
 13 14  1  0  0  0  0
 13 24  1  0  0  0  0
 13 25  1  0  0  0  0
 14 15  1  0  0  0  0
 14 26  1  0  0  0  0
 14 27  1  0  0  0  0
 15 16  2  0  0  0  0
 15 17  1  0  0  0  0
M  END
$$$$
