16G
 OpenBabel04111921573D

 33 33  0  0  1  0  0  0  0  0999 V2000
  -41.9740   -8.6732   25.3861 C   0  0  1  0  0  0  0  0  0  0  0  0
  -41.2847   -7.8554   24.2624 C   0  0  1  0  0  0  0  0  0  0  0  0
  -42.2132   -7.7338   23.0466 C   0  0  2  0  0  0  0  0  0  0  0  0
  -42.7610   -9.1048   22.6691 C   0  0  1  0  0  0  0  0  0  0  0  0
  -43.5583   -9.5921   23.8617 C   0  0  1  0  0  0  0  0  0  0  0  0
  -44.3544  -10.8486   23.5388 C   0  0  0  0  0  0  0  0  0  0  0  0
  -40.1729   -5.5584   24.1583 C   0  0  0  0  0  0  0  0  0  0  0  0
  -39.8585   -4.3093   24.9078 C   0  0  0  0  0  0  0  0  0  0  0  0
  -40.8847   -6.5257   24.8075 N   0  0  0  0  0  0  0  0  0  0  0  0
  -42.8890   -7.8265   26.0712 O   0  0  0  0  0  0  0  0  0  0  0  0
  -41.5271   -7.2429   21.8902 O   0  0  0  0  0  0  0  0  0  0  0  0
  -43.5710   -8.9923   21.5034 O   0  0  0  0  0  0  0  0  0  0  0  0
  -42.6278   -9.8344   24.9402 O   0  0  0  0  0  0  0  0  0  0  0  0
  -45.1014  -11.1284   24.7107 O   0  0  0  0  0  0  0  0  0  0  0  0
  -39.8190   -5.6834   22.9576 O   0  0  0  0  0  0  0  0  0  0  0  0
  -46.2463  -12.3109   24.7068 P   0  0  0  0  0  0  0  0  0  0  0  0
  -47.2388  -11.8982   23.6308 O   0  0  0  0  0  0  0  0  0  0  0  0
  -45.4630  -13.5715   24.3869 O   0  0  0  0  0  0  0  0  0  0  0  0
  -46.8050  -12.2277   26.1188 O   0  0  0  0  0  0  0  0  0  0  0  0
  -41.1864   -8.9412   26.1078 H   0  0  0  0  0  0  0  0  0  0  0  0
  -40.3885   -8.3906   23.9276 H   0  0  0  0  0  0  0  0  0  0  0  0
  -43.0428   -7.0513   23.2851 H   0  0  0  0  0  0  0  0  0  0  0  0
  -41.9180   -9.7824   22.4717 H   0  0  0  0  0  0  0  0  0  0  0  0
  -44.2854   -8.8152   24.1484 H   0  0  0  0  0  0  0  0  0  0  0  0
  -43.6620  -11.6577   23.2937 H   0  0  0  0  0  0  0  0  0  0  0  0
  -45.0265  -10.6624   22.6939 H   0  0  0  0  0  0  0  0  0  0  0  0
  -39.2924   -3.6168   24.2651 H   0  0  0  0  0  0  0  0  0  0  0  0
  -39.2430   -4.5429   25.7787 H   0  0  0  0  0  0  0  0  0  0  0  0
  -40.7752   -3.8063   25.2241 H   0  0  0  0  0  0  0  0  0  0  0  0
  -41.1924   -6.3778   25.7636 H   0  0  0  0  0  0  0  0  0  0  0  0
  -43.5989   -7.6494   25.4314 H   0  0  0  0  0  0  0  0  0  0  0  0
  -41.1291   -6.3798   22.1307 H   0  0  0  0  0  0  0  0  0  0  0  0
  -43.0002   -8.6714   20.7839 H   0  0  0  0  0  0  0  0  0  0  0  0
  1  2  1  0  0  0  0
  1 10  1  0  0  0  0
  1 13  1  0  0  0  0
  1 20  1  1  0  0  0
  2  3  1  0  0  0  0
  2  9  1  0  0  0  0
  2 21  1  6  0  0  0
  3  4  1  0  0  0  0
  3 11  1  0  0  0  0
  3 22  1  1  0  0  0
  4  5  1  0  0  0  0
  4 12  1  0  0  0  0
  4 23  1  6  0  0  0
  5  6  1  0  0  0  0
  5 13  1  0  0  0  0
  5 24  1  1  0  0  0
  6 14  1  0  0  0  0
  6 25  1  0  0  0  0
  6 26  1  0  0  0  0
  7  8  1  0  0  0  0
  7  9  1  0  0  0  0
  7 15  2  0  0  0  0
  8 27  1  0  0  0  0
  8 28  1  0  0  0  0
  8 29  1  0  0  0  0
  9 30  1  0  0  0  0
 10 31  1  0  0  0  0
 11 32  1  0  0  0  0
 12 33  1  0  0  0  0
 14 16  1  0  0  0  0
 16 17  2  0  0  0  0
 16 18  1  0  0  0  0
 16 19  1  0  0  0  0
M  END
$$$$
