16Z
 OpenBabel04111919383D

 37 38  0  0  1  0  0  0  0  0999 V2000
  -17.7511   15.0106   36.9842 C   0  0  0  0  0  0  0  0  0  0  0  0
  -18.0242   15.1681   35.5948 O   0  0  0  0  0  0  0  0  0  0  0  0
  -17.5187   14.2193   34.7540 C   0  0  0  0  0  0  0  0  0  0  0  0
  -17.9956   14.2846   33.4469 C   0  0  0  0  0  0  0  0  0  0  0  0
  -17.5600   13.3662   32.4905 C   0  0  0  0  0  0  0  0  0  0  0  0
  -16.5900   13.2408   35.0974 C   0  0  0  0  0  0  0  0  0  0  0  0
  -16.1525   12.3174   34.1448 C   0  0  0  0  0  0  0  0  0  0  0  0
  -16.6312   12.3677   32.8240 C   0  0  0  0  0  0  0  0  0  0  0  0
  -16.2629   11.3376   31.7813 C   0  0  1  0  0  0  0  0  0  0  0  0
  -14.7504   10.9528   31.7276 C   0  0  2  0  0  0  0  0  0  0  0  0
  -14.0416   11.6832   30.7321 O   0  0  0  0  0  0  0  0  0  0  0  0
  -14.7931    9.4699   31.3617 C   0  0  2  0  0  0  0  0  0  0  0  0
  -15.1681    9.3228   29.9837 O   0  0  0  0  0  0  0  0  0  0  0  0
  -15.9367    8.9711   32.2530 C   0  0  2  0  0  0  0  0  0  0  0  0
  -16.4053    7.5653   31.9256 C   0  0  0  0  0  0  0  0  0  0  0  0
  -17.0131    9.9942   31.9348 N   0  3  1  0  0  0  0  0  0  0  0  0
  -18.2272    9.9705   32.8039 C   0  0  0  0  0  0  0  0  0  0  0  0
  -18.2215   15.8424   37.5155 H   0  0  0  0  0  0  0  0  0  0  0  0
  -16.6765   15.0541   37.1874 H   0  0  0  0  0  0  0  0  0  0  0  0
  -18.1865   14.0786   37.3593 H   0  0  0  0  0  0  0  0  0  0  0  0
  -18.7204   15.0481   33.1758 H   0  0  0  0  0  0  0  0  0  0  0  0
  -17.9720   13.4407   31.4848 H   0  0  0  0  0  0  0  0  0  0  0  0
  -16.1866   13.1621   36.1062 H   0  0  0  0  0  0  0  0  0  0  0  0
  -15.4494   11.5584   34.4669 H   0  0  0  0  0  0  0  0  0  0  0  0
  -16.5666   11.7135   30.7909 H   0  0  0  0  0  0  0  0  0  0  0  0
  -14.2513   11.0911   32.6938 H   0  0  0  0  0  0  0  0  0  0  0  0
  -13.0848   11.6084   30.9123 H   0  0  0  0  0  0  0  0  0  0  0  0
  -13.8450    8.9560   31.5274 H   0  0  0  0  0  0  0  0  0  0  0  0
  -14.4886    9.7835   29.4487 H   0  0  0  0  0  0  0  0  0  0  0  0
  -15.6906    9.0709   33.3176 H   0  0  0  0  0  0  0  0  0  0  0  0
  -17.2081    7.2525   32.6006 H   0  0  0  0  0  0  0  0  0  0  0  0
  -15.5793    6.8576   32.0488 H   0  0  0  0  0  0  0  0  0  0  0  0
  -16.7766    7.4783   30.8994 H   0  0  0  0  0  0  0  0  0  0  0  0
  -18.9036   10.7637   32.4788 H   0  0  0  0  0  0  0  0  0  0  0  0
  -17.9258   10.0953   33.8462 H   0  0  0  0  0  0  0  0  0  0  0  0
  -18.7227    9.0054   32.6702 H   0  0  0  0  0  0  0  0  0  0  0  0
  -17.3120    9.7717   30.9727 H   0  0  0  0  0  0  0  0  0  0  0  0
  1  2  1  0  0  0  0
  1 18  1  0  0  0  0
  1 19  1  0  0  0  0
  1 20  1  0  0  0  0
  2  3  1  0  0  0  0
  3  4  2  0  0  0  0
  3  6  1  0  0  0  0
  4  5  1  0  0  0  0
  4 21  1  0  0  0  0
  5  8  2  0  0  0  0
  5 22  1  0  0  0  0
  6  7  2  0  0  0  0
  6 23  1  0  0  0  0
  7  8  1  0  0  0  0
  7 24  1  0  0  0  0
  8  9  1  0  0  0  0
  9 10  1  0  0  0  0
  9 16  1  0  0  0  0
  9 25  1  6  0  0  0
 10 11  1  0  0  0  0
 10 12  1  0  0  0  0
 10 26  1  1  0  0  0
 11 27  1  0  0  0  0
 12 13  1  0  0  0  0
 12 14  1  0  0  0  0
 12 28  1  1  0  0  0
 13 29  1  0  0  0  0
 14 15  1  0  0  0  0
 14 16  1  0  0  0  0
 14 30  1  1  0  0  0
 15 31  1  0  0  0  0
 15 32  1  0  0  0  0
 15 33  1  0  0  0  0
 16 17  1  0  0  0  0
 16 37  1  6  0  0  0
 17 34  1  0  0  0  0
 17 35  1  0  0  0  0
 17 36  1  0  0  0  0
M  CHG  1  16   1
M  END
$$$$
