18U
 OpenBabel04111919423D

 31 32  0  0  0  0  0  0  0  0999 V2000
   81.4561    4.3480   33.3733 C   0  0  0  0  0  0  0  0  0  0  0  0
   82.1315    4.0678   34.5613 C   0  0  0  0  0  0  0  0  0  0  0  0
   83.5194    4.2553   34.6393 C   0  0  0  0  0  0  0  0  0  0  0  0
   84.3090    3.9029   35.8773 C   0  0  0  0  0  0  0  0  0  0  0  0
   85.4018    3.2811   35.6775 O   0  0  0  0  0  0  0  0  0  0  0  0
   83.8508    4.2625   37.0031 O   0  0  0  0  0  0  0  0  0  0  0  0
   84.1975    4.7442   33.5096 C   0  0  0  0  0  0  0  0  0  0  0  0
   83.5253    5.0293   32.3249 C   0  0  0  0  0  0  0  0  0  0  0  0
   82.1480    4.8124   32.2408 C   0  0  0  0  0  0  0  0  0  0  0  0
   81.4342    5.1262   30.9591 C   0  0  0  0  0  0  0  0  0  0  0  0
   80.1573    4.4461   30.8754 N   0  0  0  0  0  0  0  0  0  0  0  0
   78.8573    5.4209   30.6566 S   0  0  0  0  0  0  0  0  0  0  0  0
   77.6122    4.6727   30.6125 O   0  0  0  0  0  0  0  0  0  0  0  0
   78.9826    6.5057   31.5978 O   0  0  0  0  0  0  0  0  0  0  0  0
   79.0387    6.1791   29.0921 C   0  0  0  0  0  0  0  0  0  0  0  0
   79.1360    7.6046   29.0245 C   0  0  0  0  0  0  0  0  0  0  0  0
   79.3130    8.0776   27.7485 C   0  0  0  0  0  0  0  0  0  0  0  0
   79.3964    6.8044   26.6227 S   0  0  0  0  0  0  0  0  0  0  0  0
   79.2062    5.5928   27.8449 C   0  0  0  0  0  0  0  0  0  0  0  0
   79.2189    4.1346   27.4870 C   0  0  0  0  0  0  0  0  0  0  0  0
   79.0000    3.3003   28.4131 O   0  0  0  0  0  0  0  0  0  0  0  0
   79.4606    3.8458   26.2767 O   0  0  0  0  0  0  0  0  0  0  0  0
   80.3799    4.1883   33.3277 H   0  0  0  0  0  0  0  0  0  0  0  0
   81.5893    3.6798   35.4182 H   0  0  0  0  0  0  0  0  0  0  0  0
   85.2753    4.8862   33.5695 H   0  0  0  0  0  0  0  0  0  0  0  0
   84.0788    5.3996   31.4667 H   0  0  0  0  0  0  0  0  0  0  0  0
   82.0565    4.8723   30.0935 H   0  0  0  0  0  0  0  0  0  0  0  0
   81.2878    6.2132   30.9160 H   0  0  0  0  0  0  0  0  0  0  0  0
   80.0616    3.4308   30.8157 H   0  0  0  0  0  0  0  0  0  0  0  0
   79.0709    8.2536   29.8837 H   0  0  0  0  0  0  0  0  0  0  0  0
   79.3894    9.1134   27.4517 H   0  0  0  0  0  0  0  0  0  0  0  0
  1  2  2  0  0  0  0
  1  9  1  0  0  0  0
  1 23  1  0  0  0  0
  2  3  1  0  0  0  0
  2 24  1  0  0  0  0
  3  4  1  0  0  0  0
  3  7  2  0  0  0  0
  4  5  2  0  0  0  0
  4  6  1  0  0  0  0
  7  8  1  0  0  0  0
  7 25  1  0  0  0  0
  8  9  2  0  0  0  0
  8 26  1  0  0  0  0
  9 10  1  0  0  0  0
 10 11  1  0  0  0  0
 10 27  1  0  0  0  0
 10 28  1  0  0  0  0
 11 12  1  0  0  0  0
 11 29  1  0  0  0  0
 12 13  2  0  0  0  0
 12 14  2  0  0  0  0
 12 15  1  0  0  0  0
 15 16  1  0  0  0  0
 15 19  2  0  0  0  0
 16 17  2  0  0  0  0
 16 30  1  0  0  0  0
 17 18  1  0  0  0  0
 17 31  1  0  0  0  0
 18 19  1  0  0  0  0
 19 20  1  0  0  0  0
 20 21  2  0  0  0  0
 20 22  1  0  0  0  0
M  END
$$$$
