1B3
 OpenBabel04111919193D

 48 50  0  0  1  0  0  0  0  0999 V2000
   24.2097  -37.7360  -18.2734 Cl  0  0  0  0  0  0  0  0  0  0  0  0
   22.7965  -37.8336  -17.3206 C   0  0  0  0  0  0  0  0  0  0  0  0
   21.6413  -37.6952  -17.9811 N   0  0  0  0  0  0  0  0  0  0  0  0
   22.9767  -38.0245  -16.0065 N   0  0  0  0  0  0  0  0  0  0  0  0
   21.8616  -38.0904  -15.2750 C   0  0  0  0  0  0  0  0  0  0  0  0
   22.0347  -38.2808  -13.9183 N   0  0  0  0  0  0  0  0  0  0  0  0
   20.5923  -37.9681  -15.8507 C   0  0  0  0  0  0  0  0  0  0  0  0
   20.5401  -37.7658  -17.2361 C   0  0  0  0  0  0  0  0  0  0  0  0
   19.2988  -37.6231  -17.8489 C   0  0  0  0  0  0  0  0  0  0  0  0
   19.3969  -38.0374  -15.1184 C   0  0  0  0  0  0  0  0  0  0  0  0
   18.1741  -37.8919  -15.7503 C   0  0  0  0  0  0  0  0  0  0  0  0
   18.0875  -37.6484  -17.1264 C   0  0  0  0  0  0  0  0  0  0  0  0
   16.7800  -37.3807  -17.7605 C   0  0  0  0  0  0  0  0  0  0  0  0
   15.5820  -37.6455  -17.0807 C   0  0  0  0  0  0  0  0  0  0  0  0
   16.6783  -36.8002  -19.0390 C   0  0  0  0  0  0  0  0  0  0  0  0
   15.4462  -36.5216  -19.6269 C   0  0  0  0  0  0  0  0  0  0  0  0
   14.2805  -36.7951  -18.9269 C   0  0  0  0  0  0  0  0  0  0  0  0
   14.3536  -37.3548  -17.6544 C   0  0  0  0  0  0  0  0  0  0  0  0
   12.9160  -37.7655  -16.7202 S   0  0  0  0  0  0  0  0  0  0  0  0
   12.4214  -39.0224  -17.2325 O   0  0  0  0  0  0  0  0  0  0  0  0
   13.1388  -37.5345  -15.3213 O   0  0  0  0  0  0  0  0  0  0  0  0
   11.7977  -36.6525  -17.2258 N   0  0  0  0  0  0  0  0  0  0  0  0
   11.8893  -35.3062  -16.9029 C   0  0  0  0  0  0  0  0  0  0  0  0
   12.8022  -34.7899  -16.2764 O   0  0  0  0  0  0  0  0  0  0  0  0
   10.7170  -34.4763  -17.3642 C   0  0  1  0  0  0  0  0  0  0  0  0
   10.3617  -33.4734  -16.3088 N   0  3  0  0  0  0  0  0  0  0  0  0
   11.1043  -33.7151  -18.6363 C   0  0  1  0  0  0  0  0  0  0  0  0
   11.0419  -34.6279  -19.8514 C   0  0  0  0  0  0  0  0  0  0  0  0
   10.1791  -32.6324  -18.7751 O   0  0  0  0  0  0  0  0  0  0  0  0
   21.2698  -38.3409  -13.2683 H   0  0  0  0  0  0  0  0  0  0  0  0
   22.9778  -38.3663  -13.5688 H   0  0  0  0  0  0  0  0  0  0  0  0
   19.2915  -37.4782  -18.9253 H   0  0  0  0  0  0  0  0  0  0  0  0
   19.3936  -38.1854  -14.0440 H   0  0  0  0  0  0  0  0  0  0  0  0
   17.2966  -37.9485  -15.1153 H   0  0  0  0  0  0  0  0  0  0  0  0
   15.5723  -38.0922  -16.0903 H   0  0  0  0  0  0  0  0  0  0  0  0
   17.5682  -36.5307  -19.6015 H   0  0  0  0  0  0  0  0  0  0  0  0
   15.4148  -36.0998  -20.6297 H   0  0  0  0  0  0  0  0  0  0  0  0
   13.3350  -36.5964  -19.4033 H   0  0  0  0  0  0  0  0  0  0  0  0
   11.0459  -37.0862  -17.7498 H   0  0  0  0  0  0  0  0  0  0  0  0
    9.8233  -35.0929  -17.5060 H   0  0  0  0  0  0  0  0  0  0  0  0
    9.6040  -32.8757  -16.6676 H   0  0  0  0  0  0  0  0  0  0  0  0
   10.1048  -33.9185  -15.4202 H   0  0  0  0  0  0  0  0  0  0  0  0
   12.1120  -33.2902  -18.5425 H   0  0  0  0  0  0  0  0  0  0  0  0
   11.3010  -34.0879  -20.7653 H   0  0  0  0  0  0  0  0  0  0  0  0
   10.0394  -35.0470  -19.9825 H   0  0  0  0  0  0  0  0  0  0  0  0
   11.7326  -35.4617  -19.7490 H   0  0  0  0  0  0  0  0  0  0  0  0
   10.4172  -32.1300  -19.5819 H   0  0  0  0  0  0  0  0  0  0  0  0
   11.1786  -32.8708  -16.1311 H   0  0  0  0  0  0  0  0  0  0  0  0
  1  2  1  0  0  0  0
  2  3  2  0  0  0  0
  2  4  1  0  0  0  0
  3  8  1  0  0  0  0
  4  5  2  0  0  0  0
  5  6  1  0  0  0  0
  5  7  1  0  0  0  0
  6 30  1  0  0  0  0
  6 31  1  0  0  0  0
  7  8  2  0  0  0  0
  7 10  1  0  0  0  0
  8  9  1  0  0  0  0
  9 12  2  0  0  0  0
  9 32  1  0  0  0  0
 10 11  2  0  0  0  0
 10 33  1  0  0  0  0
 11 12  1  0  0  0  0
 11 34  1  0  0  0  0
 12 13  1  0  0  0  0
 13 14  2  0  0  0  0
 13 15  1  0  0  0  0
 14 18  1  0  0  0  0
 14 35  1  0  0  0  0
 15 16  2  0  0  0  0
 15 36  1  0  0  0  0
 16 17  1  0  0  0  0
 16 37  1  0  0  0  0
 17 18  2  0  0  0  0
 17 38  1  0  0  0  0
 18 19  1  0  0  0  0
 19 20  2  0  0  0  0
 19 21  2  0  0  0  0
 19 22  1  0  0  0  0
 22 23  1  0  0  0  0
 22 39  1  0  0  0  0
 23 24  2  0  0  0  0
 23 25  1  0  0  0  0
 25 26  1  0  0  0  0
 25 27  1  0  0  0  0
 25 40  1  6  0  0  0
 26 41  1  0  0  0  0
 26 42  1  0  0  0  0
 26 48  1  0  0  0  0
 27 28  1  0  0  0  0
 27 29  1  0  0  0  0
 27 43  1  1  0  0  0
 28 44  1  0  0  0  0
 28 45  1  0  0  0  0
 28 46  1  0  0  0  0
 29 47  1  0  0  0  0
M  CHG  1  26   1
M  END
$$$$
