1C1
 OpenBabel04111919203D

 48 50  0  0  1  0  0  0  0  0999 V2000
    1.2654  -15.1951  -10.4423 N   0  0  0  0  0  0  0  0  0  0  0  0
    0.5633  -14.9674  -11.5506 C   0  0  0  0  0  0  0  0  0  0  0  0
   -0.2216  -13.8780  -11.6420 N   0  0  0  0  0  0  0  0  0  0  0  0
   -1.0335  -13.5361  -12.8214 C   0  0  0  0  0  0  0  0  0  0  0  0
   -2.5364  -13.5329  -12.5368 C   0  0  1  0  0  0  0  0  0  0  0  0
   -3.2849  -13.0882  -13.8170 C   0  0  0  0  0  0  0  0  0  0  0  0
   -4.0955  -14.2836  -14.2055 C   0  0  0  0  0  0  0  0  0  0  0  0
   -4.9188  -14.4118  -15.3186 C   0  0  0  0  0  0  0  0  0  0  0  0
   -5.6342  -15.5970  -15.5017 C   0  0  0  0  0  0  0  0  0  0  0  0
   -5.5305  -16.6336  -14.5636 C   0  0  0  0  0  0  0  0  0  0  0  0
   -4.7012  -16.5078  -13.4482 C   0  0  0  0  0  0  0  0  0  0  0  0
   -3.9881  -15.3103  -13.2724 C   0  0  0  0  0  0  0  0  0  0  0  0
   -3.0940  -14.9281  -12.1301 C   0  0  2  0  0  0  0  0  0  0  0  0
   -3.8449  -14.8405  -10.9045 N   0  0  0  0  0  0  0  0  0  0  0  0
   -3.3715  -15.2597   -9.6838 C   0  0  0  0  0  0  0  0  0  0  0  0
   -2.2306  -15.6675   -9.4676 O   0  0  0  0  0  0  0  0  0  0  0  0
   -4.4020  -15.0993   -8.5406 C   0  0  0  0  0  0  0  0  0  0  0  0
   -5.4857  -14.6151   -8.8365 O   0  0  0  0  0  0  0  0  0  0  0  0
   -3.9216  -15.4324   -7.2861 N   0  0  0  0  0  0  0  0  0  0  0  0
   -4.5391  -15.0671   -6.0758 C   0  0  0  0  0  0  0  0  0  0  0  0
   -5.9092  -14.8243   -5.9811 C   0  0  0  0  0  0  0  0  0  0  0  0
   -6.4867  -14.5535   -4.7411 C   0  0  0  0  0  0  0  0  0  0  0  0
   -7.8161  -14.4061   -4.6825 F   0  0  0  0  0  0  0  0  0  0  0  0
   -5.7116  -14.4858   -3.5904 C   0  0  0  0  0  0  0  0  0  0  0  0
   -6.4492  -14.2079   -2.0636 Cl  0  0  0  0  0  0  0  0  0  0  0  0
   -4.3320  -14.6716   -3.6791 C   0  0  0  0  0  0  0  0  0  0  0  0
   -3.7497  -14.9647   -4.9180 C   0  0  0  0  0  0  0  0  0  0  0  0
    0.6748  -15.8531  -12.5546 N   0  0  0  0  0  0  0  0  0  0  0  0
    1.8334  -16.0295  -10.3463 H   0  0  0  0  0  0  0  0  0  0  0  0
   -0.2403  -13.2532  -10.8504 H   0  0  0  0  0  0  0  0  0  0  0  0
   -0.8161  -14.2106  -13.6487 H   0  0  0  0  0  0  0  0  0  0  0  0
   -0.7045  -12.5425  -13.1460 H   0  0  0  0  0  0  0  0  0  0  0  0
   -2.7104  -12.8021  -11.7326 H   0  0  0  0  0  0  0  0  0  0  0  0
   -2.5932  -12.8248  -14.6234 H   0  0  0  0  0  0  0  0  0  0  0  0
   -3.9278  -12.2284  -13.5981 H   0  0  0  0  0  0  0  0  0  0  0  0
   -5.0240  -13.6099  -16.0410 H   0  0  0  0  0  0  0  0  0  0  0  0
   -6.3025  -15.7090  -16.3520 H   0  0  0  0  0  0  0  0  0  0  0  0
   -6.1113  -17.5445  -14.7070 H   0  0  0  0  0  0  0  0  0  0  0  0
   -4.6395  -17.3076  -12.7264 H   0  0  0  0  0  0  0  0  0  0  0  0
   -2.2889  -15.6627  -12.0191 H   0  0  0  0  0  0  0  0  0  0  0  0
   -4.7612  -14.3903  -10.9157 H   0  0  0  0  0  0  0  0  0  0  0  0
   -3.0152  -15.8872   -7.2378 H   0  0  0  0  0  0  0  0  0  0  0  0
   -6.5728  -14.8960   -6.8329 H   0  0  0  0  0  0  0  0  0  0  0  0
   -3.7131  -14.5868   -2.7905 H   0  0  0  0  0  0  0  0  0  0  0  0
   -2.6677  -15.0583   -4.9732 H   0  0  0  0  0  0  0  0  0  0  0  0
    1.2462  -16.6746  -12.4687 H   0  0  0  0  0  0  0  0  0  0  0  0
    0.1731  -15.7591  -13.4273 H   0  0  0  0  0  0  0  0  0  0  0  0
    1.2143  -14.5911   -9.6293 H   0  0  0  0  0  0  0  0  0  0  0  0
  1  2  2  0  0  0  0
  1 29  1  0  0  0  0
  1 48  1  0  0  0  0
  2  3  1  0  0  0  0
  2 28  1  0  0  0  0
  3  4  1  0  0  0  0
  3 30  1  0  0  0  0
  4  5  1  0  0  0  0
  4 31  1  0  0  0  0
  4 32  1  0  0  0  0
  5  6  1  0  0  0  0
  5 13  1  0  0  0  0
  5 33  1  1  0  0  0
  6  7  1  0  0  0  0
  6 34  1  0  0  0  0
  6 35  1  0  0  0  0
  7  8  2  0  0  0  0
  7 12  1  0  0  0  0
  8  9  1  0  0  0  0
  8 36  1  0  0  0  0
  9 10  2  0  0  0  0
  9 37  1  0  0  0  0
 10 11  1  0  0  0  0
 10 38  1  0  0  0  0
 11 12  2  0  0  0  0
 11 39  1  0  0  0  0
 12 13  1  0  0  0  0
 13 14  1  0  0  0  0
 13 40  1  1  0  0  0
 14 15  1  0  0  0  0
 14 41  1  0  0  0  0
 15 16  2  0  0  0  0
 15 17  1  0  0  0  0
 17 18  2  0  0  0  0
 17 19  1  0  0  0  0
 19 20  1  0  0  0  0
 19 42  1  0  0  0  0
 20 21  2  0  0  0  0
 20 27  1  0  0  0  0
 21 22  1  0  0  0  0
 21 43  1  0  0  0  0
 22 23  1  0  0  0  0
 22 24  2  0  0  0  0
 24 25  1  0  0  0  0
 24 26  1  0  0  0  0
 26 27  2  0  0  0  0
 26 44  1  0  0  0  0
 27 45  1  0  0  0  0
 28 46  1  0  0  0  0
 28 47  1  0  0  0  0
M  END
$$$$
