1D5
 OpenBabel04111919253D

 43 46  0  0  1  0  0  0  0  0999 V2000
   -4.7851   19.9031   -3.1009 O   0  0  0  0  0  0  0  0  0  0  0  0
   -3.6571   20.3456   -3.4702 C   0  0  0  0  0  0  0  0  0  0  0  0
   -2.9771   20.0444   -4.4927 O   0  0  0  0  0  0  0  0  0  0  0  0
   -3.0899   21.4599   -2.5931 C   0  0  0  0  0  0  0  0  0  0  0  0
   -1.8534   21.0646   -1.8275 C   0  0  0  0  0  0  0  0  0  0  0  0
   -0.6088   21.5820   -2.2020 C   0  0  0  0  0  0  0  0  0  0  0  0
    0.5324   21.2422   -1.4817 C   0  0  0  0  0  0  0  0  0  0  0  0
   -1.9474   20.2041   -0.7306 C   0  0  0  0  0  0  0  0  0  0  0  0
   -0.8013   19.8355   -0.0271 C   0  0  0  0  0  0  0  0  0  0  0  0
    0.4422   20.3578   -0.3994 C   0  0  0  0  0  0  0  0  0  0  0  0
    1.5917   20.0183    0.3136 N   0  0  0  0  0  0  0  0  0  0  0  0
    2.6021   20.9943    0.6619 C   0  0  1  0  0  0  0  0  0  0  0  0
    2.0253   22.0344    1.5946 C   0  0  0  0  0  0  0  0  0  0  0  0
    1.4219   21.6243    3.1553 S   0  0  0  0  0  0  0  0  0  0  0  0
    1.0557   23.2542    3.5139 C   0  0  0  0  0  0  0  0  0  0  0  0
    1.3941   24.0809    2.4710 C   0  0  0  0  0  0  0  0  0  0  0  0
    1.1719   25.9497    2.4710 Br  0  0  0  0  0  0  0  0  0  0  0  0
    1.9458   23.3958    1.3665 C   0  0  0  0  0  0  0  0  0  0  0  0
    1.9660   18.7273    0.6723 C   0  0  0  0  0  0  0  0  0  0  0  0
    1.3642   17.6791    0.5358 O   0  0  0  0  0  0  0  0  0  0  0  0
    3.3454   18.8563    1.2321 C   0  0  0  0  0  0  0  0  0  0  0  0
    4.0587   17.7485    1.5980 O   0  0  0  0  0  0  0  0  0  0  0  0
    3.6821   20.1509    1.2561 C   0  0  0  0  0  0  0  0  0  0  0  0
    4.8958   20.8920    1.7564 C   0  0  0  0  0  0  0  0  0  0  0  0
    5.0928   22.0172    1.2962 O   0  0  0  0  0  0  0  0  0  0  0  0
    5.7699   20.3001    2.7746 C   0  0  0  0  0  0  0  0  0  0  0  0
    7.3723   20.9086    2.9962 S   0  0  0  0  0  0  0  0  0  0  0  0
    7.6988   19.7873    4.2224 C   0  0  0  0  0  0  0  0  0  0  0  0
    9.2303   19.7539    5.0001 Cl  0  0  0  0  0  0  0  0  0  0  0  0
    6.6406   18.9651    4.4978 C   0  0  0  0  0  0  0  0  0  0  0  0
    5.5135   19.2968    3.6947 C   0  0  0  0  0  0  0  0  0  0  0  0
   -3.8444   21.7909   -1.8699 H   0  0  0  0  0  0  0  0  0  0  0  0
   -2.8696   22.3259   -3.2258 H   0  0  0  0  0  0  0  0  0  0  0  0
   -0.5242   22.2307   -3.0648 H   0  0  0  0  0  0  0  0  0  0  0  0
    1.4779   21.6237   -1.8202 H   0  0  0  0  0  0  0  0  0  0  0  0
   -2.9173   19.8142   -0.4310 H   0  0  0  0  0  0  0  0  0  0  0  0
   -0.8955   19.1806    0.8361 H   0  0  0  0  0  0  0  0  0  0  0  0
    2.9645   21.4548   -0.2677 H   0  0  0  0  0  0  0  0  0  0  0  0
    0.6161   23.5242    4.4623 H   0  0  0  0  0  0  0  0  0  0  0  0
    2.2853   23.8566    0.4455 H   0  0  0  0  0  0  0  0  0  0  0  0
    4.9604   18.0133    1.8325 H   0  0  0  0  0  0  0  0  0  0  0  0
    6.6498   18.1831    5.2470 H   0  0  0  0  0  0  0  0  0  0  0  0
    4.5615   18.7888    3.7883 H   0  0  0  0  0  0  0  0  0  0  0  0
  1  2  2  0  0  0  0
  2  3  1  0  0  0  0
  2  4  1  0  0  0  0
  4  5  1  0  0  0  0
  4 32  1  0  0  0  0
  4 33  1  0  0  0  0
  5  6  2  0  0  0  0
  5  8  1  0  0  0  0
  6  7  1  0  0  0  0
  6 34  1  0  0  0  0
  7 10  2  0  0  0  0
  7 35  1  0  0  0  0
  8  9  2  0  0  0  0
  8 36  1  0  0  0  0
  9 10  1  0  0  0  0
  9 37  1  0  0  0  0
 10 11  1  0  0  0  0
 11 12  1  0  0  0  0
 11 19  1  0  0  0  0
 12 13  1  0  0  0  0
 12 23  1  0  0  0  0
 12 38  1  6  0  0  0
 13 14  1  0  0  0  0
 13 18  2  0  0  0  0
 14 15  1  0  0  0  0
 15 16  2  0  0  0  0
 15 39  1  0  0  0  0
 16 17  1  0  0  0  0
 16 18  1  0  0  0  0
 18 40  1  0  0  0  0
 19 20  2  0  0  0  0
 19 21  1  0  0  0  0
 21 22  1  0  0  0  0
 21 23  2  0  0  0  0
 22 41  1  0  0  0  0
 23 24  1  0  0  0  0
 24 25  2  0  0  0  0
 24 26  1  0  0  0  0
 26 27  1  0  0  0  0
 26 31  2  0  0  0  0
 27 28  1  0  0  0  0
 28 29  1  0  0  0  0
 28 30  2  0  0  0  0
 30 31  1  0  0  0  0
 30 42  1  0  0  0  0
 31 43  1  0  0  0  0
M  END
$$$$
