1DE
 OpenBabel04111919253D

 46 50  0  0  1  0  0  0  0  0999 V2000
    0.9768   21.7891    2.7936 C   0  0  0  0  0  0  0  0  0  0  0  0
    0.4392   22.6790    3.7089 C   0  0  0  0  0  0  0  0  0  0  0  0
   -0.2247   22.3421    4.8491 O   0  0  0  0  0  0  0  0  0  0  0  0
   -0.5638   23.6462    5.3661 C   0  0  0  0  0  0  0  0  0  0  0  0
   -0.0432   24.7258    4.5701 O   0  0  0  0  0  0  0  0  0  0  0  0
    0.5454   24.0403    3.5499 C   0  0  0  0  0  0  0  0  0  0  0  0
    1.1999   24.5786    2.4611 C   0  0  0  0  0  0  0  0  0  0  0  0
    1.3533   26.2772    2.2610 Cl  0  0  0  0  0  0  0  0  0  0  0  0
    1.7596   23.7079    1.5196 C   0  0  0  0  0  0  0  0  0  0  0  0
    1.6587   22.3034    1.6711 C   0  0  0  0  0  0  0  0  0  0  0  0
    2.3188   21.4018    0.6337 C   0  0  1  0  0  0  0  0  0  0  0  0
    3.3718   20.5056    1.2272 C   0  0  0  0  0  0  0  0  0  0  0  0
    4.5854   21.1602    1.7678 C   0  0  0  0  0  0  0  0  0  0  0  0
    4.8344   22.2845    1.3226 O   0  0  0  0  0  0  0  0  0  0  0  0
    5.4196   20.5136    2.7712 C   0  0  0  0  0  0  0  0  0  0  0  0
    5.1620   19.4587    3.6304 C   0  0  0  0  0  0  0  0  0  0  0  0
    6.2855   19.1206    4.4440 C   0  0  0  0  0  0  0  0  0  0  0  0
    7.3359   19.9648    4.2072 C   0  0  0  0  0  0  0  0  0  0  0  0
    8.8723   19.9278    4.9725 Cl  0  0  0  0  0  0  0  0  0  0  0  0
    7.0083   21.1343    3.0357 S   0  0  0  0  0  0  0  0  0  0  0  0
    3.0776   19.2132    1.0667 C   0  0  0  0  0  0  0  0  0  0  0  0
    3.8009   18.0981    1.3641 O   0  0  0  0  0  0  0  0  0  0  0  0
    1.8050   19.1335    0.3104 C   0  0  0  0  0  0  0  0  0  0  0  0
    1.3614   18.0633   -0.0590 O   0  0  0  0  0  0  0  0  0  0  0  0
    1.4108   20.4358    0.0683 N   0  0  0  0  0  0  0  0  0  0  0  0
    0.3277   20.7872   -0.7494 C   0  0  0  0  0  0  0  0  0  0  0  0
   -0.9189   20.2104   -0.5012 C   0  0  0  0  0  0  0  0  0  0  0  0
    0.4788   21.7092   -1.7897 C   0  0  0  0  0  0  0  0  0  0  0  0
   -0.6091   22.0271   -2.5966 C   0  0  0  0  0  0  0  0  0  0  0  0
   -1.8593   21.4590   -2.3347 C   0  0  0  0  0  0  0  0  0  0  0  0
   -2.0345   20.5523   -1.2754 C   0  0  0  0  0  0  0  0  0  0  0  0
   -3.3874   19.9572   -0.9554 C   0  0  0  0  0  0  0  0  0  0  0  0
   -4.3560   20.2922   -1.7100 O   0  0  0  0  0  0  0  0  0  0  0  0
   -3.4603   19.1796    0.0461 O   0  0  0  0  0  0  0  0  0  0  0  0
    0.8576   20.7208    2.9493 H   0  0  0  0  0  0  0  0  0  0  0  0
   -0.1594   23.7377    6.3815 H   0  0  0  0  0  0  0  0  0  0  0  0
   -1.6554   23.7410    5.4193 H   0  0  0  0  0  0  0  0  0  0  0  0
    2.2884   24.1220    0.6631 H   0  0  0  0  0  0  0  0  0  0  0  0
    2.7583   21.9860   -0.1843 H   0  0  0  0  0  0  0  0  0  0  0  0
    4.2195   18.9274    3.6734 H   0  0  0  0  0  0  0  0  0  0  0  0
    6.3059   18.3082    5.1588 H   0  0  0  0  0  0  0  0  0  0  0  0
    3.2666   17.3484    1.0178 H   0  0  0  0  0  0  0  0  0  0  0  0
   -1.0528   19.5217    0.3308 H   0  0  0  0  0  0  0  0  0  0  0  0
    1.4477   22.1361   -2.0279 H   0  0  0  0  0  0  0  0  0  0  0  0
   -0.4915   22.7069   -3.4349 H   0  0  0  0  0  0  0  0  0  0  0  0
   -2.7143   21.7145   -2.9567 H   0  0  0  0  0  0  0  0  0  0  0  0
  1  2  2  0  0  0  0
  1 10  1  0  0  0  0
  1 35  1  0  0  0  0
  2  3  1  0  0  0  0
  2  6  1  0  0  0  0
  3  4  1  0  0  0  0
  4  5  1  0  0  0  0
  4 36  1  0  0  0  0
  4 37  1  0  0  0  0
  5  6  1  0  0  0  0
  6  7  2  0  0  0  0
  7  8  1  0  0  0  0
  7  9  1  0  0  0  0
  9 10  2  0  0  0  0
  9 38  1  0  0  0  0
 10 11  1  0  0  0  0
 11 12  1  0  0  0  0
 11 25  1  0  0  0  0
 11 39  1  6  0  0  0
 12 13  1  0  0  0  0
 12 21  2  0  0  0  0
 13 14  2  0  0  0  0
 13 15  1  0  0  0  0
 15 16  2  0  0  0  0
 15 20  1  0  0  0  0
 16 17  1  0  0  0  0
 16 40  1  0  0  0  0
 17 18  2  0  0  0  0
 17 41  1  0  0  0  0
 18 19  1  0  0  0  0
 18 20  1  0  0  0  0
 21 22  1  0  0  0  0
 21 23  1  0  0  0  0
 22 42  1  0  0  0  0
 23 24  2  0  0  0  0
 23 25  1  0  0  0  0
 25 26  1  0  0  0  0
 26 27  2  0  0  0  0
 26 28  1  0  0  0  0
 27 31  1  0  0  0  0
 27 43  1  0  0  0  0
 28 29  2  0  0  0  0
 28 44  1  0  0  0  0
 29 30  1  0  0  0  0
 29 45  1  0  0  0  0
 30 31  2  0  0  0  0
 30 46  1  0  0  0  0
 31 32  1  0  0  0  0
 32 33  2  0  0  0  0
 32 34  1  0  0  0  0
M  END
$$$$
