1DL
 OpenBabel04111919243D

 46 49  0  0  1  0  0  0  0  0999 V2000
   -3.1689   19.0894    0.5392 O   0  0  0  0  0  0  0  0  0  0  0  0
   -3.2080   19.8688   -0.4661 C   0  0  0  0  0  0  0  0  0  0  0  0
   -4.2687   20.1729   -1.1009 O   0  0  0  0  0  0  0  0  0  0  0  0
   -1.8891   20.4853   -0.9223 C   0  0  0  0  0  0  0  0  0  0  0  0
   -0.7300   20.1235   -0.2101 C   0  0  0  0  0  0  0  0  0  0  0  0
   -1.7399   21.3927   -1.9991 C   0  0  0  0  0  0  0  0  0  0  0  0
   -2.8913   21.8437   -2.8514 C   0  0  0  0  0  0  0  0  0  0  0  0
   -0.4696   21.9122   -2.3109 C   0  0  0  0  0  0  0  0  0  0  0  0
    0.6492   21.5588   -1.5685 C   0  0  0  0  0  0  0  0  0  0  0  0
    0.5212   20.6523   -0.5202 C   0  0  0  0  0  0  0  0  0  0  0  0
    1.6354   20.2867    0.2453 N   0  0  0  0  0  0  0  0  0  0  0  0
    2.6323   21.2263    0.6786 C   0  0  1  0  0  0  0  0  0  0  0  0
    2.0323   22.2446    1.6221 C   0  0  0  0  0  0  0  0  0  0  0  0
    1.3704   21.7889    3.1473 S   0  0  0  0  0  0  0  0  0  0  0  0
    1.0066   23.4096    3.5454 C   0  0  0  0  0  0  0  0  0  0  0  0
    1.3792   24.2645    2.5411 C   0  0  0  0  0  0  0  0  0  0  0  0
    1.1566   26.1338    2.5924 Br  0  0  0  0  0  0  0  0  0  0  0  0
    1.9704   23.6129    1.4350 C   0  0  0  0  0  0  0  0  0  0  0  0
    1.9624   18.9817    0.5750 C   0  0  0  0  0  0  0  0  0  0  0  0
    1.3946   17.9378    0.3057 O   0  0  0  0  0  0  0  0  0  0  0  0
    3.2875   19.0491    1.2515 C   0  0  0  0  0  0  0  0  0  0  0  0
    3.9549   17.9203    1.6498 O   0  0  0  0  0  0  0  0  0  0  0  0
    3.6604   20.3346    1.3001 C   0  0  0  0  0  0  0  0  0  0  0  0
    4.8705   21.0340    1.7898 C   0  0  0  0  0  0  0  0  0  0  0  0
    5.1877   22.1208    1.3097 O   0  0  0  0  0  0  0  0  0  0  0  0
    5.7267   20.4555    2.8596 C   0  0  0  0  0  0  0  0  0  0  0  0
    7.0879   20.7875    2.8550 C   0  0  0  0  0  0  0  0  0  0  0  0
    7.9393   20.2682    3.8305 C   0  0  0  0  0  0  0  0  0  0  0  0
    7.4341   19.4216    4.8155 C   0  0  0  0  0  0  0  0  0  0  0  0
    6.0751   19.1093    4.8380 C   0  0  0  0  0  0  0  0  0  0  0  0
    5.2168   19.6416    3.8737 C   0  0  0  0  0  0  0  0  0  0  0  0
   -0.8333   19.4463    0.6379 H   0  0  0  0  0  0  0  0  0  0  0  0
   -2.5497   22.5359   -3.6303 H   0  0  0  0  0  0  0  0  0  0  0  0
   -3.6265   22.3821   -2.2477 H   0  0  0  0  0  0  0  0  0  0  0  0
   -3.3475   20.9914   -3.3617 H   0  0  0  0  0  0  0  0  0  0  0  0
   -0.3495   22.5941   -3.1484 H   0  0  0  0  0  0  0  0  0  0  0  0
    1.6145   21.9531   -1.8628 H   0  0  0  0  0  0  0  0  0  0  0  0
    3.0623   21.7137   -0.2057 H   0  0  0  0  0  0  0  0  0  0  0  0
    0.5375   23.6504    4.4886 H   0  0  0  0  0  0  0  0  0  0  0  0
    2.3446   24.1001    0.5430 H   0  0  0  0  0  0  0  0  0  0  0  0
    4.8069   18.1704    2.0173 H   0  0  0  0  0  0  0  0  0  0  0  0
    7.4898   21.4521    2.0923 H   0  0  0  0  0  0  0  0  0  0  0  0
    8.9959   20.5253    3.8219 H   0  0  0  0  0  0  0  0  0  0  0  0
    8.0978   19.0133    5.5739 H   0  0  0  0  0  0  0  0  0  0  0  0
    5.6807   18.4541    5.6120 H   0  0  0  0  0  0  0  0  0  0  0  0
    4.1572   19.3992    3.9299 H   0  0  0  0  0  0  0  0  0  0  0  0
  1  2  2  0  0  0  0
  2  3  1  0  0  0  0
  2  4  1  0  0  0  0
  4  5  2  0  0  0  0
  4  6  1  0  0  0  0
  5 10  1  0  0  0  0
  5 32  1  0  0  0  0
  6  7  1  0  0  0  0
  6  8  2  0  0  0  0
  7 33  1  0  0  0  0
  7 34  1  0  0  0  0
  7 35  1  0  0  0  0
  8  9  1  0  0  0  0
  8 36  1  0  0  0  0
  9 10  2  0  0  0  0
  9 37  1  0  0  0  0
 10 11  1  0  0  0  0
 11 12  1  0  0  0  0
 11 19  1  0  0  0  0
 12 13  1  0  0  0  0
 12 23  1  0  0  0  0
 12 38  1  6  0  0  0
 13 14  1  0  0  0  0
 13 18  2  0  0  0  0
 14 15  1  0  0  0  0
 15 16  2  0  0  0  0
 15 39  1  0  0  0  0
 16 17  1  0  0  0  0
 16 18  1  0  0  0  0
 18 40  1  0  0  0  0
 19 20  2  0  0  0  0
 19 21  1  0  0  0  0
 21 22  1  0  0  0  0
 21 23  2  0  0  0  0
 22 41  1  0  0  0  0
 23 24  1  0  0  0  0
 24 25  2  0  0  0  0
 24 26  1  0  0  0  0
 26 27  2  0  0  0  0
 26 31  1  0  0  0  0
 27 28  1  0  0  0  0
 27 42  1  0  0  0  0
 28 29  2  0  0  0  0
 28 43  1  0  0  0  0
 29 30  1  0  0  0  0
 29 44  1  0  0  0  0
 30 31  2  0  0  0  0
 30 45  1  0  0  0  0
 31 46  1  0  0  0  0
M  END
$$$$
