1E4
 OpenBabel04111919233D

 80 83  0  0  1  0  0  0  0  0999 V2000
   14.1636   11.6907   29.8558 C   0  0  0  0  0  0  0  0  0  0  0  0
   13.4062   12.7810   30.3387 C   0  0  0  0  0  0  0  0  0  0  0  0
   13.8858   13.5465   31.4096 C   0  0  0  0  0  0  0  0  0  0  0  0
   15.0795   13.2165   32.0523 C   0  0  0  0  0  0  0  0  0  0  0  0
   15.8353   12.1395   31.5687 C   0  0  0  0  0  0  0  0  0  0  0  0
   15.3834   11.3898   30.4655 C   0  0  0  0  0  0  0  0  0  0  0  0
   15.4986   14.1135   33.0058 O   0  0  0  0  0  0  0  0  0  0  0  0
   15.3107   13.6851   34.3666 C   0  0  0  0  0  0  0  0  0  0  0  0
   15.3374   14.8855   35.3729 C   0  0  2  0  0  0  0  0  0  0  0  0
   13.9117   15.3136   35.8370 C   0  0  2  0  0  0  0  0  0  0  0  0
   12.8429   16.1720   38.1191 C   0  0  2  0  0  0  0  0  0  0  0  0
   13.3072   15.2341   39.2778 C   0  0  0  0  0  0  0  0  0  0  0  0
   12.1355   14.7284   39.9768 O   0  0  0  0  0  0  0  0  0  0  0  0
   12.3597   13.7296   40.8977 C   0  0  0  0  0  0  0  0  0  0  0  0
   11.8148   13.8740   42.1963 C   0  0  0  0  0  0  0  0  0  0  0  0
   11.9607   12.8763   43.2003 C   0  0  0  0  0  0  0  0  0  0  0  0
   12.6576   11.7149   42.8185 C   0  0  0  0  0  0  0  0  0  0  0  0
   13.1545   11.5584   41.5260 C   0  0  0  0  0  0  0  0  0  0  0  0
   13.0034   12.5451   40.5593 C   0  0  0  0  0  0  0  0  0  0  0  0
   11.4458   13.0340   44.6011 C   0  0  0  0  0  0  0  0  0  0  0  0
   13.8024   10.4273   41.2124 F   0  0  0  0  0  0  0  0  0  0  0  0
   11.2061   11.9381   45.4431 C   0  0  0  0  0  0  0  0  0  0  0  0
   10.8064   12.1331   46.7723 C   0  0  0  0  0  0  0  0  0  0  0  0
   10.6478   13.4461   47.2458 C   0  0  0  0  0  0  0  0  0  0  0  0
   10.8952   14.4759   46.3548 C   0  0  0  0  0  0  0  0  0  0  0  0
   11.2823   14.3088   45.0497 N   0  0  0  0  0  0  0  0  0  0  0  0
   10.2186   13.7015   48.6598 C   0  0  0  0  0  0  0  0  0  0  0  0
   13.8305   16.4318   36.9302 C   0  0  1  0  0  0  0  0  0  0  0  0
   17.3443   11.6800   32.2716 Cl  0  0  0  0  0  0  0  0  0  0  0  0
   12.2572   13.0881   29.6469 O   0  0  0  0  0  0  0  0  0  0  0  0
   11.3115   13.9151   30.3254 C   0  0  0  0  0  0  0  0  0  0  0  0
   13.6513   10.9665   28.7528 N   0  0  0  0  0  0  0  0  0  0  0  0
   14.3848   10.3071   27.7823 C   0  0  0  0  0  0  0  0  0  0  0  0
   13.7775   10.4488   26.3900 C   0  0  0  0  0  0  0  0  0  0  0  0
   15.4529    9.7241   27.9565 O   0  0  0  0  0  0  0  0  0  0  0  0
   12.5178    9.1722   26.1221 S   0  0  0  0  0  0  0  0  0  0  0  0
   11.0475   10.0782   26.5704 C   0  0  0  0  0  0  0  0  0  0  0  0
    9.8276    9.4224   26.5453 C   0  0  0  0  0  0  0  0  0  0  0  0
    8.6807   10.1371   26.8800 C   0  0  0  0  0  0  0  0  0  0  0  0
    8.7700   11.4858   27.2305 C   0  0  0  0  0  0  0  0  0  0  0  0
   10.0339   12.0534   27.2166 C   0  0  0  0  0  0  0  0  0  0  0  0
   11.1747   11.3773   26.9135 N   0  0  0  0  0  0  0  0  0  0  0  0
    7.5667   12.2906   27.6251 C   0  0  0  0  0  0  0  0  0  0  0  0
    7.7816   13.4503   28.0979 O   0  0  0  0  0  0  0  0  0  0  0  0
   10.4779   14.8363   49.1492 O   0  0  0  0  0  0  0  0  0  0  0  0
    6.4324   11.7440   27.4627 O   0  0  0  0  0  0  0  0  0  0  0  0
    9.6243   12.7426   49.2712 O   0  0  0  0  0  0  0  0  0  0  0  0
   16.0770   15.9811   34.8218 O   0  0  0  0  0  0  0  0  0  0  0  0
   15.1326   16.7967   37.4127 O   0  0  0  0  0  0  0  0  0  0  0  0
   13.1471   14.1759   36.2404 O   0  0  0  0  0  0  0  0  0  0  0  0
   12.5407   17.4688   38.6838 O   0  0  0  0  0  0  0  0  0  0  0  0
   13.3659   14.4341   31.7505 H   0  0  0  0  0  0  0  0  0  0  0  0
   15.9759   10.5501   30.1123 H   0  0  0  0  0  0  0  0  0  0  0  0
   16.1471   13.0245   34.6186 H   0  0  0  0  0  0  0  0  0  0  0  0
   14.3859   13.1082   34.4830 H   0  0  0  0  0  0  0  0  0  0  0  0
   15.8789   14.5420   36.2648 H   0  0  0  0  0  0  0  0  0  0  0  0
   13.4016   15.7166   34.9521 H   0  0  0  0  0  0  0  0  0  0  0  0
   11.8942   15.8014   37.7165 H   0  0  0  0  0  0  0  0  0  0  0  0
   13.8928   15.8019   40.0105 H   0  0  0  0  0  0  0  0  0  0  0  0
   13.9188   14.4140   38.8972 H   0  0  0  0  0  0  0  0  0  0  0  0
   11.2686   14.7859   42.4362 H   0  0  0  0  0  0  0  0  0  0  0  0
   12.8410   10.9094   43.5234 H   0  0  0  0  0  0  0  0  0  0  0  0
   13.3729   12.3515   39.5603 H   0  0  0  0  0  0  0  0  0  0  0  0
   11.3266   10.9139   45.1083 H   0  0  0  0  0  0  0  0  0  0  0  0
   10.6183   11.2988   47.4283 H   0  0  0  0  0  0  0  0  0  0  0  0
   10.7835   15.5027   46.6795 H   0  0  0  0  0  0  0  0  0  0  0  0
   13.4628   17.3295   36.4090 H   0  0  0  0  0  0  0  0  0  0  0  0
   10.4362   14.0487   29.6844 H   0  0  0  0  0  0  0  0  0  0  0  0
   11.7144   14.9150   30.5199 H   0  0  0  0  0  0  0  0  0  0  0  0
   10.9845   13.4352   31.2533 H   0  0  0  0  0  0  0  0  0  0  0  0
   12.6652   11.1497   28.5345 H   0  0  0  0  0  0  0  0  0  0  0  0
   14.5717   10.3251   25.6450 H   0  0  0  0  0  0  0  0  0  0  0  0
   13.4064   11.4678   26.2334 H   0  0  0  0  0  0  0  0  0  0  0  0
    9.7563    8.3747   26.2796 H   0  0  0  0  0  0  0  0  0  0  0  0
    7.7075    9.6503   26.8790 H   0  0  0  0  0  0  0  0  0  0  0  0
   10.1688   13.1055   27.4593 H   0  0  0  0  0  0  0  0  0  0  0  0
   16.1458   16.6663   35.5101 H   0  0  0  0  0  0  0  0  0  0  0  0
   15.0592   17.6918   37.7937 H   0  0  0  0  0  0  0  0  0  0  0  0
   13.5356   13.8042   37.0472 H   0  0  0  0  0  0  0  0  0  0  0  0
   13.3490   17.8164   39.0929 H   0  0  0  0  0  0  0  0  0  0  0  0
  1  2  2  0  0  0  0
  1  6  1  0  0  0  0
  1 32  1  0  0  0  0
  2  3  1  0  0  0  0
  2 30  1  0  0  0  0
  3  4  2  0  0  0  0
  3 52  1  0  0  0  0
  4  5  1  0  0  0  0
  4  7  1  0  0  0  0
  5  6  2  0  0  0  0
  5 29  1  0  0  0  0
  6 53  1  0  0  0  0
  7  8  1  0  0  0  0
  8  9  1  0  0  0  0
  8 54  1  0  0  0  0
  8 55  1  0  0  0  0
  9 10  1  0  0  0  0
  9 48  1  0  0  0  0
  9 56  1  1  0  0  0
 10 28  1  0  0  0  0
 10 50  1  0  0  0  0
 10 57  1  6  0  0  0
 11 12  1  0  0  0  0
 11 28  1  0  0  0  0
 11 51  1  0  0  0  0
 11 58  1  6  0  0  0
 12 13  1  0  0  0  0
 12 59  1  0  0  0  0
 12 60  1  0  0  0  0
 13 14  1  0  0  0  0
 14 15  2  0  0  0  0
 14 19  1  0  0  0  0
 15 16  1  0  0  0  0
 15 61  1  0  0  0  0
 16 17  2  0  0  0  0
 16 20  1  0  0  0  0
 17 18  1  0  0  0  0
 17 62  1  0  0  0  0
 18 19  2  0  0  0  0
 18 21  1  0  0  0  0
 19 63  1  0  0  0  0
 20 22  2  0  0  0  0
 20 26  1  0  0  0  0
 22 23  1  0  0  0  0
 22 64  1  0  0  0  0
 23 24  2  0  0  0  0
 23 65  1  0  0  0  0
 24 25  1  0  0  0  0
 24 27  1  0  0  0  0
 25 26  2  0  0  0  0
 25 66  1  0  0  0  0
 27 45  2  0  0  0  0
 27 47  1  0  0  0  0
 28 49  1  0  0  0  0
 28 67  1  6  0  0  0
 30 31  1  0  0  0  0
 31 68  1  0  0  0  0
 31 69  1  0  0  0  0
 31 70  1  0  0  0  0
 32 33  1  0  0  0  0
 32 71  1  0  0  0  0
 33 34  1  0  0  0  0
 33 35  2  0  0  0  0
 34 36  1  0  0  0  0
 34 72  1  0  0  0  0
 34 73  1  0  0  0  0
 36 37  1  0  0  0  0
 37 38  2  0  0  0  0
 37 42  1  0  0  0  0
 38 39  1  0  0  0  0
 38 74  1  0  0  0  0
 39 40  2  0  0  0  0
 39 75  1  0  0  0  0
 40 41  1  0  0  0  0
 40 43  1  0  0  0  0
 41 42  2  0  0  0  0
 41 76  1  0  0  0  0
 43 44  2  0  0  0  0
 43 46  1  0  0  0  0
 48 77  1  0  0  0  0
 49 78  1  0  0  0  0
 50 79  1  0  0  0  0
 51 80  1  0  0  0  0
M  END
$$$$
