1E7
 OpenBabel04111919243D

 35 36  0  0  0  0  0  0  0  0999 V2000
   14.1754    9.8929   27.2804 C   0  0  0  0  0  0  0  0  0  0  0  0
   13.6301   10.8953   28.1065 N   0  0  0  0  0  0  0  0  0  0  0  0
   14.1029   11.4243   29.3860 C   0  0  0  0  0  0  0  0  0  0  0  0
   15.0668    9.1147   27.6039 O   0  0  0  0  0  0  0  0  0  0  0  0
   13.6198    9.8476   25.8024 C   0  0  0  0  0  0  0  0  0  0  0  0
   12.1213    8.7796   25.6698 S   0  0  0  0  0  0  0  0  0  0  0  0
   10.7774    9.9096   26.1625 C   0  0  0  0  0  0  0  0  0  0  0  0
    9.4417    9.4944   26.0388 C   0  0  0  0  0  0  0  0  0  0  0  0
    8.4104   10.3957   26.4440 C   0  0  0  0  0  0  0  0  0  0  0  0
    8.7038   11.6914   26.9471 C   0  0  0  0  0  0  0  0  0  0  0  0
   10.0732   11.9966   27.0299 C   0  0  0  0  0  0  0  0  0  0  0  0
   11.1045   11.1366   26.6566 N   0  0  0  0  0  0  0  0  0  0  0  0
    7.6148   12.7364   27.3913 C   0  0  0  0  0  0  0  0  0  0  0  0
    7.8140   13.9372   27.1736 O   0  0  0  0  0  0  0  0  0  0  0  0
    6.5692   12.2378   27.9711 O   0  0  0  0  0  0  0  0  0  0  0  0
   15.3207   10.9980   30.0259 C   0  0  0  0  0  0  0  0  0  0  0  0
   15.7712   11.5663   31.2610 C   0  0  0  0  0  0  0  0  0  0  0  0
   15.0258   12.5805   31.8865 C   0  0  0  0  0  0  0  0  0  0  0  0
   13.8149   13.0270   31.2783 C   0  0  0  0  0  0  0  0  0  0  0  0
   13.3328   12.4684   30.0457 C   0  0  0  0  0  0  0  0  0  0  0  0
   12.1588   12.8964   29.4278 O   0  0  0  0  0  0  0  0  0  0  0  0
   17.2517   11.0226   32.0227 Cl  0  0  0  0  0  0  0  0  0  0  0  0
   11.1979   13.7075   30.1490 C   0  0  0  0  0  0  0  0  0  0  0  0
   12.7180   11.2463   27.7852 H   0  0  0  0  0  0  0  0  0  0  0  0
   14.4060    9.4400   25.1379 H   0  0  0  0  0  0  0  0  0  0  0  0
   13.3880   10.8464   25.4237 H   0  0  0  0  0  0  0  0  0  0  0  0
    9.1955    8.5060   25.6408 H   0  0  0  0  0  0  0  0  0  0  0  0
    7.3614   10.0966   26.3563 H   0  0  0  0  0  0  0  0  0  0  0  0
   10.3851   12.9617   27.4116 H   0  0  0  0  0  0  0  0  0  0  0  0
   15.9285   10.2141   29.5758 H   0  0  0  0  0  0  0  0  0  0  0  0
   15.3681   13.0221   32.8313 H   0  0  0  0  0  0  0  0  0  0  0  0
   13.2684   13.8139   31.7951 H   0  0  0  0  0  0  0  0  0  0  0  0
   10.3206   13.9490   29.5188 H   0  0  0  0  0  0  0  0  0  0  0  0
   11.6401   14.6617   30.4523 H   0  0  0  0  0  0  0  0  0  0  0  0
   10.8221   13.1712   31.0265 H   0  0  0  0  0  0  0  0  0  0  0  0
  1  2  1  0  0  0  0
  1  4  2  0  0  0  0
  1  5  1  0  0  0  0
  2  3  1  0  0  0  0
  2 24  1  0  0  0  0
  3 16  2  0  0  0  0
  3 20  1  0  0  0  0
  5  6  1  0  0  0  0
  5 25  1  0  0  0  0
  5 26  1  0  0  0  0
  6  7  1  0  0  0  0
  7  8  2  0  0  0  0
  7 12  1  0  0  0  0
  8  9  1  0  0  0  0
  8 27  1  0  0  0  0
  9 10  2  0  0  0  0
  9 28  1  0  0  0  0
 10 11  1  0  0  0  0
 10 13  1  0  0  0  0
 11 12  2  0  0  0  0
 11 29  1  0  0  0  0
 13 14  2  0  0  0  0
 13 15  1  0  0  0  0
 16 17  1  0  0  0  0
 16 30  1  0  0  0  0
 17 18  2  0  0  0  0
 17 22  1  0  0  0  0
 18 19  1  0  0  0  0
 18 31  1  0  0  0  0
 19 20  2  0  0  0  0
 19 32  1  0  0  0  0
 20 21  1  0  0  0  0
 21 23  1  0  0  0  0
 23 33  1  0  0  0  0
 23 34  1  0  0  0  0
 23 35  1  0  0  0  0
M  END
$$$$
