1EP
 OpenBabel04111919283D

 45 46  0  0  1  0  0  0  0  0999 V2000
  -18.6843  -11.4524  -60.7765 N   0  0  0  0  0  0  0  0  0  0  0  0
  -19.9901  -11.1402  -60.5537 C   0  0  0  0  0  0  0  0  0  0  0  0
  -20.4460  -10.1681  -59.9737 O   0  0  0  0  0  0  0  0  0  0  0  0
  -20.7720  -12.1321  -61.0989 N   0  0  0  0  0  0  0  0  0  0  0  0
  -19.9920  -13.1945  -61.6809 C   0  0  2  0  0  0  0  0  0  0  0  0
  -18.5742  -12.6506  -61.4271 C   0  0  0  0  0  0  0  0  0  0  0  0
  -17.5387  -13.2108  -61.7550 O   0  0  0  0  0  0  0  0  0  0  0  0
  -20.3611  -13.4267  -63.1531 C   0  0  0  0  0  0  0  0  0  0  0  0
  -19.9025  -14.8073  -63.6235 C   0  0  0  0  0  0  0  0  0  0  0  0
  -19.8360  -12.3424  -64.0972 C   0  0  0  0  0  0  0  0  0  0  0  0
  -17.5661  -10.6160  -60.3827 C   0  0  0  0  0  0  0  0  0  0  0  0
  -17.4423   -9.3529  -61.2058 C   0  0  0  0  0  0  0  0  0  0  0  0
  -17.0199   -8.1581  -60.6137 C   0  0  0  0  0  0  0  0  0  0  0  0
  -16.9162   -6.9833  -61.3694 C   0  0  0  0  0  0  0  0  0  0  0  0
  -17.2297   -6.9639  -62.7408 C   0  0  0  0  0  0  0  0  0  0  0  0
  -17.6127   -8.1784  -63.3270 C   0  0  0  0  0  0  0  0  0  0  0  0
  -17.7048   -9.3519  -62.5774 C   0  0  0  0  0  0  0  0  0  0  0  0
  -17.1534   -5.6594  -63.5491 C   0  0  0  0  0  0  0  0  0  0  0  0
  -15.7079   -5.1243  -63.5457 C   0  0  0  0  0  0  0  0  0  0  0  0
  -17.5739   -5.8356  -65.0264 C   0  0  0  0  0  0  0  0  0  0  0  0
  -18.0912   -4.6007  -62.9317 C   0  0  0  0  0  0  0  0  0  0  0  0
  -21.7802  -12.1038  -61.0187 H   0  0  0  0  0  0  0  0  0  0  0  0
  -20.1465  -14.0863  -61.0688 H   0  0  0  0  0  0  0  0  0  0  0  0
  -21.4572  -13.4148  -63.2298 H   0  0  0  0  0  0  0  0  0  0  0  0
  -20.1806  -14.9721  -64.6702 H   0  0  0  0  0  0  0  0  0  0  0  0
  -20.3803  -15.5931  -63.0285 H   0  0  0  0  0  0  0  0  0  0  0  0
  -18.8182  -14.9259  -63.5376 H   0  0  0  0  0  0  0  0  0  0  0  0
  -20.1547  -11.3480  -63.7705 H   0  0  0  0  0  0  0  0  0  0  0  0
  -20.2218  -12.4944  -65.1110 H   0  0  0  0  0  0  0  0  0  0  0  0
  -18.7431  -12.3545  -64.1588 H   0  0  0  0  0  0  0  0  0  0  0  0
  -16.6333  -11.1830  -60.4732 H   0  0  0  0  0  0  0  0  0  0  0  0
  -17.7138  -10.3554  -59.3279 H   0  0  0  0  0  0  0  0  0  0  0  0
  -16.7795   -8.1228  -59.5531 H   0  0  0  0  0  0  0  0  0  0  0  0
  -16.5949   -6.0749  -60.8629 H   0  0  0  0  0  0  0  0  0  0  0  0
  -17.8598   -8.2508  -64.3815 H   0  0  0  0  0  0  0  0  0  0  0  0
  -18.0000  -10.2631  -63.0878 H   0  0  0  0  0  0  0  0  0  0  0  0
  -15.6326   -4.1972  -64.1259 H   0  0  0  0  0  0  0  0  0  0  0  0
  -15.0179   -5.8515  -63.9899 H   0  0  0  0  0  0  0  0  0  0  0  0
  -15.3494   -4.9035  -62.5347 H   0  0  0  0  0  0  0  0  0  0  0  0
  -18.6028   -6.2064  -65.1091 H   0  0  0  0  0  0  0  0  0  0  0  0
  -16.9153   -6.5407  -65.5479 H   0  0  0  0  0  0  0  0  0  0  0  0
  -17.5269   -4.8865  -65.5710 H   0  0  0  0  0  0  0  0  0  0  0  0
  -17.8459   -4.3840  -61.8865 H   0  0  0  0  0  0  0  0  0  0  0  0
  -19.1356   -4.9333  -62.9623 H   0  0  0  0  0  0  0  0  0  0  0  0
  -18.0274   -3.6533  -63.4796 H   0  0  0  0  0  0  0  0  0  0  0  0
  1  2  1  0  0  0  0
  1  6  1  0  0  0  0
  1 11  1  0  0  0  0
  2  3  2  0  0  0  0
  2  4  1  0  0  0  0
  4  5  1  0  0  0  0
  4 22  1  0  0  0  0
  5  6  1  0  0  0  0
  5  8  1  0  0  0  0
  5 23  1  1  0  0  0
  6  7  2  0  0  0  0
  8  9  1  0  0  0  0
  8 10  1  0  0  0  0
  8 24  1  0  0  0  0
  9 25  1  0  0  0  0
  9 26  1  0  0  0  0
  9 27  1  0  0  0  0
 10 28  1  0  0  0  0
 10 29  1  0  0  0  0
 10 30  1  0  0  0  0
 11 12  1  0  0  0  0
 11 31  1  0  0  0  0
 11 32  1  0  0  0  0
 12 13  2  0  0  0  0
 12 17  1  0  0  0  0
 13 14  1  0  0  0  0
 13 33  1  0  0  0  0
 14 15  2  0  0  0  0
 14 34  1  0  0  0  0
 15 16  1  0  0  0  0
 15 18  1  0  0  0  0
 16 17  2  0  0  0  0
 16 35  1  0  0  0  0
 17 36  1  0  0  0  0
 18 19  1  0  0  0  0
 18 20  1  0  0  0  0
 18 21  1  0  0  0  0
 19 37  1  0  0  0  0
 19 38  1  0  0  0  0
 19 39  1  0  0  0  0
 20 40  1  0  0  0  0
 20 41  1  0  0  0  0
 20 42  1  0  0  0  0
 21 43  1  0  0  0  0
 21 44  1  0  0  0  0
 21 45  1  0  0  0  0
M  END
$$$$
