1F1
 OpenBabel04111918443D

 18 19  0  0  1  0  0  0  0  0999 V2000
    9.0312   22.5222   24.5256 O   0  0  0  0  0  0  0  0  0  0  0  0
    9.5013   23.6914   24.3499 C   0  0  0  0  0  0  0  0  0  0  0  0
    8.9554   24.7755   24.7315 O   0  0  0  0  0  0  0  0  0  0  0  0
   10.8301   23.8018   23.6214 C   0  0  2  0  0  0  0  0  0  0  0  0
   11.4327   25.0547   23.4265 C   0  0  0  0  0  0  0  0  0  0  0  0
   12.6579   25.1881   22.7585 C   0  0  0  0  0  0  0  0  0  0  0  0
   13.3017   24.0382   22.2695 C   0  0  2  0  0  0  0  0  0  0  0  0
   14.5170   23.8084   21.5672 C   0  0  0  0  0  0  0  0  0  0  0  0
   14.6261   22.4534   21.3488 C   0  0  0  0  0  0  0  0  0  0  0  0
   13.5211   21.8530   21.8958 N   0  3  0  0  0  0  0  0  0  0  0  0
   12.6980   22.7977   22.4641 C   0  0  2  0  0  0  0  0  0  0  0  0
   11.4737   22.6494   23.1303 C   0  0  0  0  0  0  0  0  0  0  0  0
   10.9310   25.9438   23.8067 H   0  0  0  0  0  0  0  0  0  0  0  0
   13.0969   26.1705   22.6241 H   0  0  0  0  0  0  0  0  0  0  0  0
   15.2281   24.5617   21.2590 H   0  0  0  0  0  0  0  0  0  0  0  0
   15.3889   21.8684   20.8550 H   0  0  0  0  0  0  0  0  0  0  0  0
   13.3225   20.8637   21.8921 H   0  0  0  0  0  0  0  0  0  0  0  0
   11.0158   21.6737   23.2737 H   0  0  0  0  0  0  0  0  0  0  0  0
  1  2  2  0  0  0  0
  2  3  1  0  0  0  0
  4  2  1  6  0  0  0
  4  5  1  0  0  0  0
  4 12  1  0  0  0  0
  5  6  1  0  0  0  0
  5 13  1  0  0  0  0
  6 14  1  0  0  0  0
  7  6  1  6  0  0  0
  7  8  1  0  0  0  0
  7 11  1  0  0  0  0
  8  9  1  0  0  0  0
  8 15  1  0  0  0  0
  9 10  1  0  0  0  0
  9 16  1  0  0  0  0
 10 17  1  0  0  0  0
 11 10  1  6  0  0  0
 11 12  1  0  0  0  0
 12 18  1  0  0  0  0
M  CHG  1  10   1
M  END
$$$$
