1FT
 OpenBabel04111919333D

 48 49  0  0  1  0  0  0  0  0999 V2000
   28.7975   -1.7026   14.9851 O   0  0  0  0  0  0  0  0  0  0  0  0
   28.7382   -0.1901   15.1050 P   0  0  0  0  0  0  0  0  0  0  0  0
   28.8261    0.5552   13.7968 O   0  0  0  0  0  0  0  0  0  0  0  0
   29.6177    0.3383   16.2420 O   0  0  0  0  0  0  0  0  0  0  0  0
   27.2068    0.0979   15.6237 O   0  0  0  0  0  0  0  0  0  0  0  0
   27.0158    0.1657   17.0277 C   0  0  0  0  0  0  0  0  0  0  0  0
   27.3838   -1.1761   17.7069 C   0  0  2  0  0  0  0  0  0  0  0  0
   26.2269   -2.0174   17.9465 O   0  0  0  0  0  0  0  0  0  0  0  0
   28.3220   -1.0526   18.9267 C   0  0  1  0  0  0  0  0  0  0  0  0
   29.2091    0.0721   18.8466 O   0  0  0  0  0  0  0  0  0  0  0  0
   27.5638   -0.9940   20.2588 C   0  0  2  0  0  0  0  0  0  0  0  0
   28.4385   -1.3312   21.3598 O   0  0  0  0  0  0  0  0  0  0  0  0
   26.3522   -1.9395   20.3117 C   0  0  1  0  0  0  0  0  0  0  0  0
   25.6800   -1.7274   21.5706 O   0  0  0  0  0  0  0  0  0  0  0  0
   25.4734   -1.6803   19.0827 C   0  0  2  0  0  0  0  0  0  0  0  0
   23.8806   -2.6156   19.1938 S   0  0  0  0  0  0  0  0  0  0  0  0
   23.9709   -3.8584   17.7955 C   0  0  1  0  0  0  0  0  0  0  0  0
   23.2800   -5.1324   18.3484 C   0  0  2  0  0  0  0  0  0  0  0  0
   24.0898   -5.7203   19.3864 O   0  0  0  0  0  0  0  0  0  0  0  0
   23.0190   -6.1808   17.2630 C   0  0  1  0  0  0  0  0  0  0  0  0
   22.1846   -7.2431   17.7805 O   0  0  0  0  0  0  0  0  0  0  0  0
   22.2976   -5.5276   16.0790 C   0  0  2  0  0  0  0  0  0  0  0  0
   22.1571   -6.4929   15.0327 O   0  0  0  0  0  0  0  0  0  0  0  0
   23.0287   -4.4307   15.5762 O   0  0  0  0  0  0  0  0  0  0  0  0
   23.2510   -3.3571   16.5156 C   0  0  2  0  0  0  0  0  0  0  0  0
   24.1026   -2.3141   15.7681 C   0  0  0  0  0  0  0  0  0  0  0  0
   23.3019   -1.3243   15.1177 O   0  0  0  0  0  0  0  0  0  0  0  0
   25.9645    0.4197   17.1927 H   0  0  0  0  0  0  0  0  0  0  0  0
   27.5805    1.0226   17.4046 H   0  0  0  0  0  0  0  0  0  0  0  0
   27.9448   -1.7830   17.0073 H   0  0  0  0  0  0  0  0  0  0  0  0
   28.9648   -1.9422   18.9512 H   0  0  0  0  0  0  0  0  0  0  0  0
   29.5098    0.1445   17.8850 H   0  0  0  0  0  0  0  0  0  0  0  0
   27.2359    0.0338   20.4595 H   0  0  0  0  0  0  0  0  0  0  0  0
   27.8600   -1.5306   22.1074 H   0  0  0  0  0  0  0  0  0  0  0  0
   26.7059   -2.9788   20.3102 H   0  0  0  0  0  0  0  0  0  0  0  0
   25.2154   -0.8747   21.5026 H   0  0  0  0  0  0  0  0  0  0  0  0
   25.1614   -0.6283   19.0504 H   0  0  0  0  0  0  0  0  0  0  0  0
   25.0153   -4.1136   17.5853 H   0  0  0  0  0  0  0  0  0  0  0  0
   22.3151   -4.8906   18.8160 H   0  0  0  0  0  0  0  0  0  0  0  0
   24.3006   -4.9929   20.0032 H   0  0  0  0  0  0  0  0  0  0  0  0
   23.9654   -6.6390   16.9505 H   0  0  0  0  0  0  0  0  0  0  0  0
   22.3938   -8.0356   17.2582 H   0  0  0  0  0  0  0  0  0  0  0  0
   21.2821   -5.2199   16.3565 H   0  0  0  0  0  0  0  0  0  0  0  0
   21.7357   -7.2699   15.4270 H   0  0  0  0  0  0  0  0  0  0  0  0
   22.2696   -2.9358   16.7634 H   0  0  0  0  0  0  0  0  0  0  0  0
   24.7356   -2.7906   15.0125 H   0  0  0  0  0  0  0  0  0  0  0  0
   24.7190   -1.7458   16.4446 H   0  0  0  0  0  0  0  0  0  0  0  0
   23.9730   -0.6910   14.7820 H   0  0  0  0  0  0  0  0  0  0  0  0
  1  2  2  0  0  0  0
  2  3  1  0  0  0  0
  2  4  1  0  0  0  0
  2  5  1  0  0  0  0
  5  6  1  0  0  0  0
  6  7  1  0  0  0  0
  6 28  1  0  0  0  0
  6 29  1  0  0  0  0
  7  8  1  0  0  0  0
  7  9  1  0  0  0  0
  7 30  1  6  0  0  0
  8 15  1  0  0  0  0
  9 10  1  0  0  0  0
  9 11  1  0  0  0  0
  9 31  1  1  0  0  0
 10 32  1  0  0  0  0
 11 12  1  0  0  0  0
 11 13  1  0  0  0  0
 11 33  1  1  0  0  0
 12 34  1  0  0  0  0
 13 14  1  0  0  0  0
 13 15  1  0  0  0  0
 13 35  1  6  0  0  0
 14 36  1  0  0  0  0
 15 16  1  0  0  0  0
 15 37  1  6  0  0  0
 16 17  1  0  0  0  0
 17 18  1  0  0  0  0
 17 25  1  0  0  0  0
 17 38  1  6  0  0  0
 18 19  1  0  0  0  0
 18 20  1  0  0  0  0
 18 39  1  1  0  0  0
 19 40  1  0  0  0  0
 20 21  1  0  0  0  0
 20 22  1  0  0  0  0
 20 41  1  6  0  0  0
 21 42  1  0  0  0  0
 22 23  1  0  0  0  0
 22 24  1  0  0  0  0
 22 43  1  1  0  0  0
 23 44  1  0  0  0  0
 24 25  1  0  0  0  0
 25 26  1  0  0  0  0
 25 45  1  1  0  0  0
 26 27  1  0  0  0  0
 26 46  1  0  0  0  0
 26 47  1  0  0  0  0
 27 48  1  0  0  0  0
M  END
$$$$
