1GE
 OpenBabel04111919333D

 65 70  0  0  1  0  0  0  0  0999 V2000
    9.4460   34.2352   28.6065 C   0  0  0  0  0  0  0  0  0  0  0  0
    9.8008   33.8949   27.2961 C   0  0  0  0  0  0  0  0  0  0  0  0
    9.2253   34.5650   26.2073 C   0  0  0  0  0  0  0  0  0  0  0  0
    8.2844   35.5953   26.3810 C   0  0  0  0  0  0  0  0  0  0  0  0
    7.9453   35.9665   27.6865 C   0  0  0  0  0  0  0  0  0  0  0  0
    8.5279   35.2883   28.7735 C   0  0  0  0  0  0  0  0  0  0  0  0
    9.9809   33.5101   29.7836 C   0  0  0  0  0  0  0  0  0  0  0  0
   10.5034   32.3091   29.6687 N   0  0  0  0  0  0  0  0  0  0  0  0
    9.9186   34.0638   30.9819 N   0  0  0  0  0  0  0  0  0  0  0  0
    7.6185   36.1188   25.2979 N   0  0  0  0  0  0  0  0  0  0  0  0
    6.8803   37.3929   25.4179 C   0  0  2  0  0  0  0  0  0  0  0  0
    6.0330   37.3796   26.7013 C   0  0  1  0  0  0  0  0  0  0  0  0
    6.8645   36.9930   27.9448 C   0  0  2  0  0  0  0  0  0  0  0  0
    5.3746   38.7334   27.0543 C   0  0  0  0  0  0  0  0  0  0  0  0
    6.4103   39.3361   27.9485 C   0  0  0  0  0  0  0  0  0  0  0  0
    7.2784   38.3536   28.4532 C   0  0  0  0  0  0  0  0  0  0  0  0
    6.5612   40.6750   28.2710 C   0  0  0  0  0  0  0  0  0  0  0  0
    7.6125   41.0358   29.1126 C   0  0  0  0  0  0  0  0  0  0  0  0
    8.4752   40.0609   29.6333 C   0  0  0  0  0  0  0  0  0  0  0  0
    8.3051   38.7107   29.3127 C   0  0  0  0  0  0  0  0  0  0  0  0
    5.9386   37.5179   24.2140 C   0  0  0  0  0  0  0  0  0  0  0  0
    5.7956   38.7335   23.5101 C   0  0  0  0  0  0  0  0  0  0  0  0
    4.7567   38.8145   22.5618 C   0  0  0  0  0  0  0  0  0  0  0  0
    3.9402   37.7124   22.2729 C   0  0  0  0  0  0  0  0  0  0  0  0
    4.1137   36.4902   22.9180 C   0  0  0  0  0  0  0  0  0  0  0  0
    5.0992   36.4089   23.9004 C   0  0  0  0  0  0  0  0  0  0  0  0
    6.7079   39.8907   23.6604 C   0  0  0  0  0  0  0  0  0  0  0  0
    6.2739   41.1409   24.1201 C   0  0  0  0  0  0  0  0  0  0  0  0
    7.1671   42.2281   24.1994 C   0  0  0  0  0  0  0  0  0  0  0  0
    8.5128   42.1006   23.8150 C   0  0  0  0  0  0  0  0  0  0  0  0
    8.9419   40.8506   23.3486 C   0  0  0  0  0  0  0  0  0  0  0  0
    8.0534   39.7686   23.2766 C   0  0  0  0  0  0  0  0  0  0  0  0
    9.4617   43.2820   23.8928 C   0  0  0  0  0  0  0  0  0  0  0  0
    9.0599   44.2900   24.5584 O   0  0  0  0  0  0  0  0  0  0  0  0
   10.5735   43.1718   23.3043 O   0  0  0  0  0  0  0  0  0  0  0  0
    3.2834   35.4670   22.5377 O   0  0  0  0  0  0  0  0  0  0  0  0
    3.4197   34.2142   23.1864 C   0  0  0  0  0  0  0  0  0  0  0  0
    2.9606   37.8466   21.3220 O   0  0  0  0  0  0  0  0  0  0  0  0
   10.5206   33.1111   27.0765 H   0  0  0  0  0  0  0  0  0  0  0  0
    9.5146   34.2718   25.1973 H   0  0  0  0  0  0  0  0  0  0  0  0
    8.1954   35.5882   29.7628 H   0  0  0  0  0  0  0  0  0  0  0  0
   10.8628   31.7923   30.4608 H   0  0  0  0  0  0  0  0  0  0  0  0
    9.5395   34.9967   31.1050 H   0  0  0  0  0  0  0  0  0  0  0  0
   10.2480   33.6037   31.8093 H   0  0  0  0  0  0  0  0  0  0  0  0
    7.9303   35.8722   24.3631 H   0  0  0  0  0  0  0  0  0  0  0  0
    7.6196   38.2129   25.4281 H   0  0  0  0  0  0  0  0  0  0  0  0
    5.2408   36.6328   26.5773 H   0  0  0  0  0  0  0  0  0  0  0  0
    6.1649   36.5581   28.6659 H   0  0  0  0  0  0  0  0  0  0  0  0
    4.4504   38.5599   27.6167 H   0  0  0  0  0  0  0  0  0  0  0  0
    5.1387   39.3650   26.1973 H   0  0  0  0  0  0  0  0  0  0  0  0
    5.9094   41.4364   27.8519 H   0  0  0  0  0  0  0  0  0  0  0  0
    7.7785   42.0862   29.3451 H   0  0  0  0  0  0  0  0  0  0  0  0
    9.2979   40.3701   30.2733 H   0  0  0  0  0  0  0  0  0  0  0  0
    8.9950   37.9799   29.7117 H   0  0  0  0  0  0  0  0  0  0  0  0
    4.6116   39.7520   22.0330 H   0  0  0  0  0  0  0  0  0  0  0  0
    5.2310   35.4876   24.4647 H   0  0  0  0  0  0  0  0  0  0  0  0
    5.2435   41.3049   24.4234 H   0  0  0  0  0  0  0  0  0  0  0  0
    6.8140   43.2017   24.5457 H   0  0  0  0  0  0  0  0  0  0  0  0
    9.9749   40.7316   23.0303 H   0  0  0  0  0  0  0  0  0  0  0  0
    8.4283   38.8163   22.9051 H   0  0  0  0  0  0  0  0  0  0  0  0
    2.7147   33.5099   22.7345 H   0  0  0  0  0  0  0  0  0  0  0  0
    3.1648   34.3006   24.2483 H   0  0  0  0  0  0  0  0  0  0  0  0
    4.4256   33.8009   23.0540 H   0  0  0  0  0  0  0  0  0  0  0  0
    2.9985   38.7463   20.9645 H   0  0  0  0  0  0  0  0  0  0  0  0
   10.5375   31.8411   28.7696 H   0  0  0  0  0  0  0  0  0  0  0  0
  1  2  2  0  0  0  0
  1  6  1  0  0  0  0
  1  7  1  0  0  0  0
  2  3  1  0  0  0  0
  2 39  1  0  0  0  0
  3  4  2  0  0  0  0
  3 40  1  0  0  0  0
  4  5  1  0  0  0  0
  4 10  1  0  0  0  0
  5  6  2  0  0  0  0
  5 13  1  0  0  0  0
  6 41  1  0  0  0  0
  7  8  2  0  0  0  0
  7  9  1  0  0  0  0
  8 42  1  0  0  0  0
  8 65  1  0  0  0  0
  9 43  1  0  0  0  0
  9 44  1  0  0  0  0
 10 11  1  0  0  0  0
 10 45  1  0  0  0  0
 11 12  1  0  0  0  0
 11 21  1  0  0  0  0
 11 46  1  1  0  0  0
 12 13  1  0  0  0  0
 12 14  1  0  0  0  0
 12 47  1  6  0  0  0
 13 16  1  0  0  0  0
 13 48  1  1  0  0  0
 14 15  1  0  0  0  0
 14 49  1  0  0  0  0
 14 50  1  0  0  0  0
 15 16  2  0  0  0  0
 15 17  1  0  0  0  0
 16 20  1  0  0  0  0
 17 18  2  0  0  0  0
 17 51  1  0  0  0  0
 18 19  1  0  0  0  0
 18 52  1  0  0  0  0
 19 20  2  0  0  0  0
 19 53  1  0  0  0  0
 20 54  1  0  0  0  0
 21 22  2  0  0  0  0
 21 26  1  0  0  0  0
 22 23  1  0  0  0  0
 22 27  1  0  0  0  0
 23 24  2  0  0  0  0
 23 55  1  0  0  0  0
 24 25  1  0  0  0  0
 24 38  1  0  0  0  0
 25 26  2  0  0  0  0
 25 36  1  0  0  0  0
 26 56  1  0  0  0  0
 27 28  2  0  0  0  0
 27 32  1  0  0  0  0
 28 29  1  0  0  0  0
 28 57  1  0  0  0  0
 29 30  2  0  0  0  0
 29 58  1  0  0  0  0
 30 31  1  0  0  0  0
 30 33  1  0  0  0  0
 31 32  2  0  0  0  0
 31 59  1  0  0  0  0
 32 60  1  0  0  0  0
 33 34  2  0  0  0  0
 33 35  1  0  0  0  0
 36 37  1  0  0  0  0
 37 61  1  0  0  0  0
 37 62  1  0  0  0  0
 37 63  1  0  0  0  0
 38 64  1  0  0  0  0
M  END
$$$$
