1HA
 OpenBabel04111921263D

 99103  0  0  1  0  0  0  0  0999 V2000
   34.6420  -14.1236  184.5020 O   0  0  0  0  0  0  0  0  0  0  0  0
   33.4429  -13.4440  184.4824 C   0  0  0  0  0  0  0  0  0  0  0  0
   33.0349  -12.9545  183.2372 C   0  0  0  0  0  0  0  0  0  0  0  0
   33.7826  -13.2251  182.0728 C   0  0  0  0  0  0  0  0  0  0  0  0
   33.3796  -12.7658  180.8291 C   0  0  0  0  0  0  0  0  0  0  0  0
   32.1855  -12.0197  180.7390 C   0  0  0  0  0  0  0  0  0  0  0  0
   31.4318  -11.7379  181.8755 C   0  0  0  0  0  0  0  0  0  0  0  0
   31.8296  -12.2025  183.1395 C   0  0  0  0  0  0  0  0  0  0  0  0
   31.0714  -11.9590  184.2945 C   0  0  0  0  0  0  0  0  0  0  0  0
   31.4959  -12.4513  185.5400 C   0  0  0  0  0  0  0  0  0  0  0  0
   32.6736  -13.2211  185.6348 C   0  0  0  0  0  0  0  0  0  0  0  0
   33.0402  -13.7941  186.9507 C   0  0  0  0  0  0  0  0  0  0  0  0
   33.1221  -13.1116  187.9608 O   0  0  0  0  0  0  0  0  0  0  0  0
   33.3274  -15.5439  186.9282 S   0  0  0  0  0  0  0  0  0  0  0  0
   33.8003  -15.9075  188.6489 C   0  0  0  0  0  0  0  0  0  0  0  0
   32.6359  -15.6895  189.6196 C   0  0  0  0  0  0  0  0  0  0  0  0
   33.0644  -15.3020  190.9550 N   0  0  0  0  0  0  0  0  0  0  0  0
   33.8848  -16.1099  191.7128 C   0  0  0  0  0  0  0  0  0  0  0  0
   34.3267  -17.1683  191.2717 O   0  0  0  0  0  0  0  0  0  0  0  0
   34.1554  -15.6498  193.1274 C   0  0  0  0  0  0  0  0  0  0  0  0
   33.2049  -16.4191  194.0279 C   0  0  0  0  0  0  0  0  0  0  0  0
   33.3408  -16.0271  195.4088 N   0  0  0  0  0  0  0  0  0  0  0  0
   34.3470  -16.5816  196.1844 C   0  0  0  0  0  0  0  0  0  0  0  0
   35.2476  -17.2898  195.6626 O   0  0  0  0  0  0  0  0  0  0  0  0
   34.3947  -16.1774  197.6730 C   0  0  2  0  0  0  0  0  0  0  0  0
   33.0873  -15.7990  198.0793 O   0  0  0  0  0  0  0  0  0  0  0  0
   35.3349  -14.9882  197.9839 C   0  0  0  0  0  0  0  0  0  0  0  0
   36.7932  -15.3534  197.6529 C   0  0  0  0  0  0  0  0  0  0  0  0
   34.9324  -13.7574  197.1540 C   0  0  0  0  0  0  0  0  0  0  0  0
   35.2238  -14.6190  199.4986 C   0  0  0  0  0  0  0  0  0  0  0  0
   35.0400  -15.7954  200.2634 O   0  0  0  0  0  0  0  0  0  0  0  0
   34.8191  -15.7359  201.8726 P   0  0  2  0  0  0  0  0  0  0  0  0
   35.3042  -14.3717  202.3311 O   0  0  0  0  0  0  0  0  0  0  0  0
   35.4996  -16.9573  202.4592 O   0  0  0  0  0  0  0  0  0  0  0  0
   33.2284  -15.7665  202.0397 O   0  0  0  0  0  0  0  0  0  0  0  0
   32.0722  -16.7044  201.4621 P   0  0  1  0  0  0  0  0  0  0  0  0
   32.5547  -17.4099  200.2209 O   0  0  0  0  0  0  0  0  0  0  0  0
   31.3736  -17.4529  202.5693 O   0  0  0  0  0  0  0  0  0  0  0  0
   31.0730  -15.5261  200.9154 O   0  0  0  0  0  0  0  0  0  0  0  0
   30.0735  -14.9567  201.7558 C   0  0  0  0  0  0  0  0  0  0  0  0
   28.6870  -15.0025  201.0664 C   0  0  1  0  0  0  0  0  0  0  0  0
   28.7227  -14.2680  199.7798 O   0  0  0  0  0  0  0  0  0  0  0  0
   28.2664  -16.4526  200.7546 C   0  0  1  0  0  0  0  0  0  0  0  0
   26.8406  -16.5720  200.7623 O   0  0  0  0  0  0  0  0  0  0  0  0
   26.0948  -17.1964  202.0846 P   0  0  0  0  0  0  0  0  0  0  0  0
   26.3341  -16.1779  203.1827 O   0  0  0  0  0  0  0  0  0  0  0  0
   24.6386  -17.2780  201.6284 O   0  0  0  0  0  0  0  0  0  0  0  0
   26.7243  -18.5627  202.2973 O   0  0  0  0  0  0  0  0  0  0  0  0
   28.7282  -16.6009  199.3031 C   0  0  1  0  0  0  0  0  0  0  0  0
   28.1053  -17.6366  198.5330 O   0  0  0  0  0  0  0  0  0  0  0  0
   28.3674  -15.2309  198.7552 C   0  0  2  0  0  0  0  0  0  0  0  0
   29.0678  -14.9315  197.5108 N   0  3  0  0  0  0  0  0  0  0  0  0
   30.3864  -14.5578  197.4108 C   0  0  0  0  0  0  0  0  0  0  0  0
   30.7665  -14.3679  196.1518 N   0  0  0  0  0  0  0  0  0  0  0  0
   29.6481  -14.6803  195.4083 C   0  0  0  0  0  0  0  0  0  0  0  0
   28.5819  -15.0380  196.2267 C   0  0  0  0  0  0  0  0  0  0  0  0
   27.3466  -15.3809  195.8118 N   0  0  0  0  0  0  0  0  0  0  0  0
   27.2466  -15.3486  194.4706 C   0  0  0  0  0  0  0  0  0  0  0  0
   28.1835  -15.0085  193.5575 N   0  0  0  0  0  0  0  0  0  0  0  0
   29.4098  -14.6702  194.0155 C   0  0  0  0  0  0  0  0  0  0  0  0
   30.3447  -14.3070  193.0620 N   0  0  0  0  0  0  0  0  0  0  0  0
   34.8109  -14.4931  185.3833 H   0  0  0  0  0  0  0  0  0  0  0  0
   34.7113  -13.7984  182.1433 H   0  0  0  0  0  0  0  0  0  0  0  0
   33.9580  -12.9700  179.9489 H   0  0  0  0  0  0  0  0  0  0  0  0
   31.8679  -11.6683  179.7653 H   0  0  0  0  0  0  0  0  0  0  0  0
   30.5309  -11.1367  181.7826 H   0  0  0  0  0  0  0  0  0  0  0  0
   30.1370  -11.3946  184.2376 H   0  0  0  0  0  0  0  0  0  0  0  0
   30.9013  -12.2464  186.4274 H   0  0  0  0  0  0  0  0  0  0  0  0
   34.6843  -15.3198  188.9152 H   0  0  0  0  0  0  0  0  0  0  0  0
   34.1102  -16.9630  188.6799 H   0  0  0  0  0  0  0  0  0  0  0  0
   32.0283  -16.6005  189.6979 H   0  0  0  0  0  0  0  0  0  0  0  0
   31.9724  -14.8946  189.2708 H   0  0  0  0  0  0  0  0  0  0  0  0
   32.6721  -14.4596  191.3568 H   0  0  0  0  0  0  0  0  0  0  0  0
   34.0233  -14.5675  193.2431 H   0  0  0  0  0  0  0  0  0  0  0  0
   35.2011  -15.8646  193.3841 H   0  0  0  0  0  0  0  0  0  0  0  0
   33.4113  -17.4940  193.9388 H   0  0  0  0  0  0  0  0  0  0  0  0
   32.1734  -16.2634  193.7047 H   0  0  0  0  0  0  0  0  0  0  0  0
   32.5899  -15.5194  195.8975 H   0  0  0  0  0  0  0  0  0  0  0  0
   34.7240  -17.0733  198.2219 H   0  0  0  0  0  0  0  0  0  0  0  0
   33.0779  -15.9323  199.0622 H   0  0  0  0  0  0  0  0  0  0  0  0
   37.4640  -14.5042  197.8292 H   0  0  0  0  0  0  0  0  0  0  0  0
   36.9114  -15.6335  196.6013 H   0  0  0  0  0  0  0  0  0  0  0  0
   37.1403  -16.1891  198.2684 H   0  0  0  0  0  0  0  0  0  0  0  0
   33.8963  -13.4679  197.3645 H   0  0  0  0  0  0  0  0  0  0  0  0
   35.0098  -13.9601  196.0807 H   0  0  0  0  0  0  0  0  0  0  0  0
   35.5741  -12.9011  197.3758 H   0  0  0  0  0  0  0  0  0  0  0  0
   34.3821  -13.9379  199.6642 H   0  0  0  0  0  0  0  0  0  0  0  0
   36.1420  -14.1127  199.8212 H   0  0  0  0  0  0  0  0  0  0  0  0
   30.3668  -13.9167  201.9493 H   0  0  0  0  0  0  0  0  0  0  0  0
   30.0111  -15.4627  202.7241 H   0  0  0  0  0  0  0  0  0  0  0  0
   27.9528  -14.4713  201.6873 H   0  0  0  0  0  0  0  0  0  0  0  0
   28.7351  -17.1819  201.4190 H   0  0  0  0  0  0  0  0  0  0  0  0
   29.8111  -16.7373  199.2391 H   0  0  0  0  0  0  0  0  0  0  0  0
   27.1546  -17.5837  198.7583 H   0  0  0  0  0  0  0  0  0  0  0  0
   27.2905  -15.1510  198.5548 H   0  0  0  0  0  0  0  0  0  0  0  0
   31.0092  -14.4569  198.2954 H   0  0  0  0  0  0  0  0  0  0  0  0
   26.2764  -15.6138  194.0594 H   0  0  0  0  0  0  0  0  0  0  0  0
   30.0520  -14.3664  192.1016 H   0  0  0  0  0  0  0  0  0  0  0  0
   31.2697  -14.0581  193.3749 H   0  0  0  0  0  0  0  0  0  0  0  0
  1  2  1  0  0  0  0
  1 62  1  0  0  0  0
  2  3  2  0  0  0  0
  2 11  1  0  0  0  0
  3  4  1  0  0  0  0
  3  8  1  0  0  0  0
  4  5  2  0  0  0  0
  4 63  1  0  0  0  0
  5  6  1  0  0  0  0
  5 64  1  0  0  0  0
  6  7  2  0  0  0  0
  6 65  1  0  0  0  0
  7  8  1  0  0  0  0
  7 66  1  0  0  0  0
  8  9  2  0  0  0  0
  9 10  1  0  0  0  0
  9 67  1  0  0  0  0
 10 11  2  0  0  0  0
 10 68  1  0  0  0  0
 11 12  1  0  0  0  0
 12 13  2  0  0  0  0
 12 14  1  0  0  0  0
 14 15  1  0  0  0  0
 15 16  1  0  0  0  0
 15 69  1  0  0  0  0
 15 70  1  0  0  0  0
 16 17  1  0  0  0  0
 16 71  1  0  0  0  0
 16 72  1  0  0  0  0
 17 18  1  0  0  0  0
 17 73  1  0  0  0  0
 18 19  2  0  0  0  0
 18 20  1  0  0  0  0
 20 21  1  0  0  0  0
 20 74  1  0  0  0  0
 20 75  1  0  0  0  0
 21 22  1  0  0  0  0
 21 76  1  0  0  0  0
 21 77  1  0  0  0  0
 22 23  1  0  0  0  0
 22 78  1  0  0  0  0
 23 24  2  0  0  0  0
 23 25  1  0  0  0  0
 25 26  1  0  0  0  0
 25 27  1  0  0  0  0
 25 79  1  1  0  0  0
 26 80  1  0  0  0  0
 27 28  1  0  0  0  0
 27 29  1  0  0  0  0
 27 30  1  0  0  0  0
 28 81  1  0  0  0  0
 28 82  1  0  0  0  0
 28 83  1  0  0  0  0
 29 84  1  0  0  0  0
 29 85  1  0  0  0  0
 29 86  1  0  0  0  0
 30 31  1  0  0  0  0
 30 87  1  0  0  0  0
 30 88  1  0  0  0  0
 32 31  1  6  0  0  0
 32 33  2  0  0  0  0
 32 34  1  0  0  0  0
 32 35  1  0  0  0  0
 36 35  1  1  0  0  0
 36 37  2  0  0  0  0
 36 38  1  0  0  0  0
 36 39  1  0  0  0  0
 39 40  1  0  0  0  0
 40 41  1  0  0  0  0
 40 89  1  0  0  0  0
 40 90  1  0  0  0  0
 41 42  1  0  0  0  0
 41 43  1  0  0  0  0
 41 91  1  1  0  0  0
 42 51  1  0  0  0  0
 43 44  1  0  0  0  0
 43 49  1  0  0  0  0
 43 92  1  1  0  0  0
 44 45  1  0  0  0  0
 45 46  2  0  0  0  0
 45 47  1  0  0  0  0
 45 48  1  0  0  0  0
 49 50  1  0  0  0  0
 49 51  1  0  0  0  0
 49 93  1  6  0  0  0
 50 94  1  0  0  0  0
 51 52  1  0  0  0  0
 51 95  1  6  0  0  0
 52 53  2  0  0  0  0
 52 56  1  0  0  0  0
 53 54  1  0  0  0  0
 53 96  1  0  0  0  0
 54 55  1  0  0  0  0
 55 56  2  0  0  0  0
 55 60  1  0  0  0  0
 56 57  1  0  0  0  0
 57 58  2  0  0  0  0
 58 59  1  0  0  0  0
 58 97  1  0  0  0  0
 59 60  2  0  0  0  0
 60 61  1  0  0  0  0
 61 98  1  0  0  0  0
 61 99  1  0  0  0  0
M  CHG  1  52   1
M  END
$$$$
