1J5
 OpenBabel04111919343D

 42 45  0  0  1  0  0  0  0  0999 V2000
   11.0356   57.1443   -1.8517 C   0  0  0  0  0  0  0  0  0  0  0  0
   10.0771   56.5951   -0.7980 C   0  0  1  0  0  0  0  0  0  0  0  0
   10.7212   56.4517    0.4646 O   0  0  0  0  0  0  0  0  0  0  0  0
    8.9440   57.5456   -0.5594 C   0  0  0  0  0  0  0  0  0  0  0  0
    7.7534   57.2561    0.1149 N   0  3  0  0  0  0  0  0  0  0  0  0
    7.0162   58.4130    0.1343 C   0  0  0  0  0  0  0  0  0  0  0  0
    7.7991   59.3559   -0.5195 C   0  0  0  0  0  0  0  0  0  0  0  0
    8.9685   58.8060   -0.9362 N   0  0  0  0  0  0  0  0  0  0  0  0
    7.3485   60.6740   -0.6680 C   0  0  0  0  0  0  0  0  0  0  0  0
    6.1398   61.0871   -0.1963 N   0  0  0  0  0  0  0  0  0  0  0  0
    5.4026   60.1407    0.4177 C   0  0  0  0  0  0  0  0  0  0  0  0
    5.7847   58.8208    0.6077 C   0  0  0  0  0  0  0  0  0  0  0  0
    4.7161   58.1778    1.2919 C   0  0  0  0  0  0  0  0  0  0  0  0
    3.7234   59.1205    1.4910 C   0  0  0  0  0  0  0  0  0  0  0  0
    4.1475   60.3136    0.9572 N   0  3  0  0  0  0  0  0  0  0  0  0
    7.4572   55.9240    0.6439 C   0  0  1  0  0  0  0  0  0  0  0  0
    7.2600   55.9758    2.1625 C   0  0  0  0  0  0  0  0  0  0  0  0
    6.8241   54.6317    2.7345 C   0  0  0  0  0  0  0  0  0  0  0  0
    5.6499   54.0285    1.9458 C   0  0  1  0  0  0  0  0  0  0  0  0
    5.9182   53.9561    0.4368 C   0  0  0  0  0  0  0  0  0  0  0  0
    6.2528   55.3391   -0.0993 C   0  0  0  0  0  0  0  0  0  0  0  0
    5.3877   52.6906    2.4535 C   0  0  0  0  0  0  0  0  0  0  0  0
    5.1974   51.6196    2.8972 N   0  0  0  0  0  0  0  0  0  0  0  0
   10.5200   57.2540   -2.8174 H   0  0  0  0  0  0  0  0  0  0  0  0
   11.8879   56.4671   -1.9808 H   0  0  0  0  0  0  0  0  0  0  0  0
   11.4189   58.1291   -1.5471 H   0  0  0  0  0  0  0  0  0  0  0  0
    9.6977   55.6268   -1.1389 H   0  0  0  0  0  0  0  0  0  0  0  0
   11.4726   55.8466    0.3697 H   0  0  0  0  0  0  0  0  0  0  0  0
    7.9555   61.4258   -1.1674 H   0  0  0  0  0  0  0  0  0  0  0  0
    4.6146   57.1573    1.6288 H   0  0  0  0  0  0  0  0  0  0  0  0
    2.7630   58.9879    1.9779 H   0  0  0  0  0  0  0  0  0  0  0  0
    3.6254   61.1847    0.9558 H   0  0  0  0  0  0  0  0  0  0  0  0
    8.3141   55.2459    0.4570 H   0  0  0  0  0  0  0  0  0  0  0  0
    6.4951   56.7202    2.3966 H   0  0  0  0  0  0  0  0  0  0  0  0
    8.1949   56.2970    2.6450 H   0  0  0  0  0  0  0  0  0  0  0  0
    6.5278   54.7601    3.7908 H   0  0  0  0  0  0  0  0  0  0  0  0
    7.6789   53.9352    2.7122 H   0  0  0  0  0  0  0  0  0  0  0  0
    4.7636   54.6588    2.1055 H   0  0  0  0  0  0  0  0  0  0  0  0
    5.0313   53.5566   -0.0820 H   0  0  0  0  0  0  0  0  0  0  0  0
    6.7599   53.2722    0.2395 H   0  0  0  0  0  0  0  0  0  0  0  0
    6.4647   55.2873   -1.1774 H   0  0  0  0  0  0  0  0  0  0  0  0
    5.3876   55.9977    0.0370 H   0  0  0  0  0  0  0  0  0  0  0  0
  1  2  1  0  0  0  0
  1 24  1  0  0  0  0
  1 25  1  0  0  0  0
  1 26  1  0  0  0  0
  2  3  1  0  0  0  0
  2  4  1  0  0  0  0
  2 27  1  6  0  0  0
  3 28  1  0  0  0  0
  4  5  2  0  0  0  0
  4  8  1  0  0  0  0
  5  6  1  0  0  0  0
  5 16  1  0  0  0  0
  6  7  1  0  0  0  0
  6 12  2  0  0  0  0
  7  8  1  0  0  0  0
  7  9  2  0  0  0  0
  9 10  1  0  0  0  0
  9 29  1  0  0  0  0
 10 11  1  0  0  0  0
 11 12  1  0  0  0  0
 11 15  2  0  0  0  0
 12 13  1  0  0  0  0
 13 14  2  0  0  0  0
 13 30  1  0  0  0  0
 14 15  1  0  0  0  0
 14 31  1  0  0  0  0
 15 32  1  0  0  0  0
 16 17  1  0  0  0  0
 16 21  1  0  0  0  0
 16 33  1  6  0  0  0
 17 18  1  0  0  0  0
 17 34  1  0  0  0  0
 17 35  1  0  0  0  0
 18 19  1  0  0  0  0
 18 36  1  0  0  0  0
 18 37  1  0  0  0  0
 19 20  1  0  0  0  0
 19 22  1  0  0  0  0
 19 38  1  1  0  0  0
 20 21  1  0  0  0  0
 20 39  1  0  0  0  0
 20 40  1  0  0  0  0
 21 41  1  0  0  0  0
 21 42  1  0  0  0  0
 22 23  3  0  0  0  0
M  CHG  2   5   1  15   1
M  END
$$$$
