1J5
 OpenBabel04111919343D

 42 45  0  0  1  0  0  0  0  0999 V2000
  -18.7973  -11.7049  -11.9505 C   0  0  0  0  0  0  0  0  0  0  0  0
  -17.3045  -11.5246  -12.1742 C   0  0  1  0  0  0  0  0  0  0  0  0
  -16.9436  -12.0600  -13.4492 O   0  0  0  0  0  0  0  0  0  0  0  0
  -16.8935  -10.0724  -12.1323 C   0  0  0  0  0  0  0  0  0  0  0  0
  -15.6859   -9.5733  -11.6105 N   0  3  0  0  0  0  0  0  0  0  0  0
  -15.7214   -8.2052  -11.7333 C   0  0  0  0  0  0  0  0  0  0  0  0
  -16.9469   -7.9284  -12.3331 C   0  0  0  0  0  0  0  0  0  0  0  0
  -17.6439   -9.0821  -12.5727 N   0  0  0  0  0  0  0  0  0  0  0  0
  -17.3065   -6.5983  -12.6057 C   0  0  0  0  0  0  0  0  0  0  0  0
  -16.4927   -5.5418  -12.3148 N   0  0  0  0  0  0  0  0  0  0  0  0
  -15.3136   -5.8511  -11.7348 C   0  0  0  0  0  0  0  0  0  0  0  0
  -14.8875   -7.1391  -11.4273 C   0  0  0  0  0  0  0  0  0  0  0  0
  -13.5976   -7.0035  -10.8216 C   0  0  0  0  0  0  0  0  0  0  0  0
  -13.2840   -5.6517  -10.7985 C   0  0  0  0  0  0  0  0  0  0  0  0
  -14.3360   -4.9519  -11.3486 N   0  3  0  0  0  0  0  0  0  0  0  0
  -14.6469  -10.4525  -11.0797 C   0  0  1  0  0  0  0  0  0  0  0  0
  -13.3259  -10.2729  -11.8338 C   0  0  0  0  0  0  0  0  0  0  0  0
  -12.2718  -11.2402  -11.2965 C   0  0  0  0  0  0  0  0  0  0  0  0
  -12.1102  -11.0582   -9.7786 C   0  0  1  0  0  0  0  0  0  0  0  0
  -13.4375  -11.2654   -9.0368 C   0  0  0  0  0  0  0  0  0  0  0  0
  -14.4926  -10.2961   -9.5603 C   0  0  0  0  0  0  0  0  0  0  0  0
  -11.1287  -11.9868   -9.2395 C   0  0  0  0  0  0  0  0  0  0  0  0
  -10.3698  -12.7621   -8.7856 N   0  0  0  0  0  0  0  0  0  0  0  0
  -19.0810  -11.3036  -10.9710 H   0  0  0  0  0  0  0  0  0  0  0  0
  -19.0618  -12.7707  -11.9899 H   0  0  0  0  0  0  0  0  0  0  0  0
  -19.3695  -11.1810  -12.7289 H   0  0  0  0  0  0  0  0  0  0  0  0
  -16.7722  -12.0886  -11.4095 H   0  0  0  0  0  0  0  0  0  0  0  0
  -17.4514  -11.5789  -14.1294 H   0  0  0  0  0  0  0  0  0  0  0  0
  -18.2633   -6.3567  -13.0647 H   0  0  0  0  0  0  0  0  0  0  0  0
  -12.9216   -7.7534  -10.4269 H   0  0  0  0  0  0  0  0  0  0  0  0
  -12.3809   -5.1768  -10.4200 H   0  0  0  0  0  0  0  0  0  0  0  0
  -14.3922   -3.9406  -11.4575 H   0  0  0  0  0  0  0  0  0  0  0  0
  -14.9426  -11.5035  -11.2424 H   0  0  0  0  0  0  0  0  0  0  0  0
  -12.9675   -9.2490  -11.7104 H   0  0  0  0  0  0  0  0  0  0  0  0
  -13.4842  -10.4379  -12.9093 H   0  0  0  0  0  0  0  0  0  0  0  0
  -11.3090  -11.0617  -11.7992 H   0  0  0  0  0  0  0  0  0  0  0  0
  -12.5833  -12.2741  -11.5188 H   0  0  0  0  0  0  0  0  0  0  0  0
  -11.7702  -10.0307   -9.5983 H   0  0  0  0  0  0  0  0  0  0  0  0
  -13.2840  -11.1109   -7.9574 H   0  0  0  0  0  0  0  0  0  0  0  0
  -13.7835  -12.3033   -9.1825 H   0  0  0  0  0  0  0  0  0  0  0  0
  -15.4547  -10.4866   -9.0624 H   0  0  0  0  0  0  0  0  0  0  0  0
  -14.1880   -9.2685   -9.3273 H   0  0  0  0  0  0  0  0  0  0  0  0
  1  2  1  0  0  0  0
  1 24  1  0  0  0  0
  1 25  1  0  0  0  0
  1 26  1  0  0  0  0
  2  3  1  0  0  0  0
  2  4  1  0  0  0  0
  2 27  1  1  0  0  0
  3 28  1  0  0  0  0
  4  5  2  0  0  0  0
  4  8  1  0  0  0  0
  5  6  1  0  0  0  0
  5 16  1  0  0  0  0
  6  7  1  0  0  0  0
  6 12  2  0  0  0  0
  7  8  1  0  0  0  0
  7  9  2  0  0  0  0
  9 10  1  0  0  0  0
  9 29  1  0  0  0  0
 10 11  1  0  0  0  0
 11 12  1  0  0  0  0
 11 15  2  0  0  0  0
 12 13  1  0  0  0  0
 13 14  2  0  0  0  0
 13 30  1  0  0  0  0
 14 15  1  0  0  0  0
 14 31  1  0  0  0  0
 15 32  1  0  0  0  0
 16 17  1  0  0  0  0
 16 21  1  0  0  0  0
 16 33  1  6  0  0  0
 17 18  1  0  0  0  0
 17 34  1  0  0  0  0
 17 35  1  0  0  0  0
 18 19  1  0  0  0  0
 18 36  1  0  0  0  0
 18 37  1  0  0  0  0
 19 20  1  0  0  0  0
 19 22  1  0  0  0  0
 19 38  1  1  0  0  0
 20 21  1  0  0  0  0
 20 39  1  0  0  0  0
 20 40  1  0  0  0  0
 21 41  1  0  0  0  0
 21 42  1  0  0  0  0
 22 23  3  0  0  0  0
M  CHG  2   5   1  15   1
M  END
$$$$
