1JR
 OpenBabel04111919373D

 33 36  0  0  1  0  0  0  0  0999 V2000
   -3.1032    8.1916   10.4178 C   0  0  0  0  0  0  0  0  0  0  0  0
   -3.6143    7.5234   11.5251 C   0  0  0  0  0  0  0  0  0  0  0  0
   -2.6049    7.4770    9.3384 C   0  0  0  0  0  0  0  0  0  0  0  0
   -3.9512    5.1733    5.4632 C   0  0  0  0  0  0  0  0  0  0  0  0
   -3.6346    6.1277   11.5474 C   0  0  0  0  0  0  0  0  0  0  0  0
   -2.6149    6.0830    9.3729 C   0  0  0  0  0  0  0  0  0  0  0  0
   -3.0838    4.5111    6.3271 C   0  0  0  0  0  0  0  0  0  0  0  0
   -5.2651    4.7518    5.4158 C   0  0  0  0  0  0  0  0  0  0  0  0
   -4.8875    3.1233    7.0063 C   0  0  0  0  0  0  0  0  0  0  0  0
   -3.1388    5.3919   10.4657 C   0  0  0  0  0  0  0  0  0  0  0  0
   -3.5491    3.4679    7.1470 C   0  0  0  0  0  0  0  0  0  0  0  0
   -2.9651    2.9811    9.4956 C   0  0  0  0  0  0  0  0  0  0  0  0
   -3.1622    3.9406   10.4652 C   0  0  0  0  0  0  0  0  0  0  0  0
   -3.0913    1.7497   10.1541 C   0  0  0  0  0  0  0  0  0  0  0  0
   -2.9155    0.6568    9.2284 C   0  0  0  0  0  0  0  0  0  0  0  0
   -2.6151    2.7495    8.0719 C   0  0  1  0  0  0  0  0  0  0  0  0
   -5.7504    3.7346    6.1602 N   0  0  0  0  0  0  0  0  0  0  0  0
   -3.4114    3.1977   11.6127 N   0  3  0  0  0  0  0  0  0  0  0  0
   -3.3715    1.8605   11.4544 N   0  0  0  0  0  0  0  0  0  0  0  0
   -2.7218    1.2898    7.9966 N   0  0  0  0  0  0  0  0  0  0  0  0
   -2.9489   -0.5439    9.4263 O   0  0  0  0  0  0  0  0  0  0  0  0
   -3.0947    9.2746   10.3930 H   0  0  0  0  0  0  0  0  0  0  0  0
   -3.9998    8.0797   12.3706 H   0  0  0  0  0  0  0  0  0  0  0  0
   -2.2152    7.9908    8.4637 H   0  0  0  0  0  0  0  0  0  0  0  0
   -3.6102    5.9952    4.8429 H   0  0  0  0  0  0  0  0  0  0  0  0
   -4.0534    5.6456   12.4262 H   0  0  0  0  0  0  0  0  0  0  0  0
   -2.1966    5.5495    8.5339 H   0  0  0  0  0  0  0  0  0  0  0  0
   -2.0429    4.8267    6.3616 H   0  0  0  0  0  0  0  0  0  0  0  0
   -5.9807    5.2327    4.7556 H   0  0  0  0  0  0  0  0  0  0  0  0
   -5.3176    2.3009    7.5742 H   0  0  0  0  0  0  0  0  0  0  0  0
   -1.5700    3.0110    7.8698 H   0  0  0  0  0  0  0  0  0  0  0  0
   -3.6028    3.5550   12.5410 H   0  0  0  0  0  0  0  0  0  0  0  0
   -2.6911    0.7584    7.1402 H   0  0  0  0  0  0  0  0  0  0  0  0
  1  2  2  0  0  0  0
  1  3  1  0  0  0  0
  1 22  1  0  0  0  0
  2  5  1  0  0  0  0
  2 23  1  0  0  0  0
  3  6  2  0  0  0  0
  3 24  1  0  0  0  0
  4  7  2  0  0  0  0
  4  8  1  0  0  0  0
  4 25  1  0  0  0  0
  5 10  2  0  0  0  0
  5 26  1  0  0  0  0
  6 10  1  0  0  0  0
  6 27  1  0  0  0  0
  7 11  1  0  0  0  0
  7 28  1  0  0  0  0
  8 17  2  0  0  0  0
  8 29  1  0  0  0  0
  9 11  2  0  0  0  0
  9 17  1  0  0  0  0
  9 30  1  0  0  0  0
 10 13  1  0  0  0  0
 11 16  1  0  0  0  0
 12 13  1  0  0  0  0
 12 14  2  0  0  0  0
 12 16  1  0  0  0  0
 13 18  2  0  0  0  0
 14 15  1  0  0  0  0
 14 19  1  0  0  0  0
 15 20  1  0  0  0  0
 15 21  2  0  0  0  0
 16 20  1  0  0  0  0
 16 31  1  6  0  0  0
 18 19  1  0  0  0  0
 18 32  1  0  0  0  0
 20 33  1  0  0  0  0
M  CHG  1  18   1
M  END
$$$$
