1K3
 OpenBabel04111919393D

 59 63  0  0  0  0  0  0  0  0999 V2000
   16.0962  -20.6715  -22.1951 C   0  0  0  0  0  0  0  0  0  0  0  0
   15.0061  -21.5261  -22.5274 O   0  0  0  0  0  0  0  0  0  0  0  0
   14.9977  -22.7631  -21.9551 C   0  0  0  0  0  0  0  0  0  0  0  0
   15.9515  -23.2688  -21.0758 C   0  0  0  0  0  0  0  0  0  0  0  0
   15.8267  -24.5631  -20.5635 C   0  0  0  0  0  0  0  0  0  0  0  0
   13.9167  -23.5669  -22.3185 C   0  0  0  0  0  0  0  0  0  0  0  0
   13.8015  -24.8648  -21.8221 C   0  0  0  0  0  0  0  0  0  0  0  0
   14.7510  -25.3866  -20.9274 C   0  0  0  0  0  0  0  0  0  0  0  0
   14.6562  -26.7466  -20.4196 C   0  0  0  0  0  0  0  0  0  0  0  0
   15.6986  -27.6567  -20.2585 C   0  0  0  0  0  0  0  0  0  0  0  0
   13.3279  -27.2503  -20.0260 N   0  3  0  0  0  0  0  0  0  0  0  0
   12.1669  -26.5579  -20.0024 N   0  0  0  0  0  0  0  0  0  0  0  0
   11.2939  -27.4370  -19.6314 C   0  0  0  0  0  0  0  0  0  0  0  0
   11.8432  -28.6483  -19.3509 N   0  3  0  0  0  0  0  0  0  0  0  0
   13.1432  -28.4906  -19.5935 C   0  0  0  0  0  0  0  0  0  0  0  0
   14.1839  -29.4023  -19.4632 C   0  0  0  0  0  0  0  0  0  0  0  0
   15.4651  -28.9563  -19.7903 C   0  0  0  0  0  0  0  0  0  0  0  0
    9.9526  -27.2110  -19.5698 N   0  0  0  0  0  0  0  0  0  0  0  0
    9.2272  -26.0613  -19.9302 C   0  0  0  0  0  0  0  0  0  0  0  0
    9.8147  -24.9012  -20.4204 C   0  0  0  0  0  0  0  0  0  0  0  0
    9.0504  -23.7936  -20.7540 C   0  0  0  0  0  0  0  0  0  0  0  0
    7.6572  -23.7839  -20.6377 C   0  0  0  0  0  0  0  0  0  0  0  0
    7.0796  -24.9585  -20.1385 C   0  0  0  0  0  0  0  0  0  0  0  0
    7.8449  -26.0769  -19.8001 C   0  0  0  0  0  0  0  0  0  0  0  0
    6.9068  -22.6987  -21.0481 N   0  0  0  0  0  0  0  0  0  0  0  0
    7.5807  -21.4570  -21.4867 C   0  0  0  0  0  0  0  0  0  0  0  0
    6.8121  -20.8289  -22.6451 C   0  0  0  0  0  0  0  0  0  0  0  0
    5.4033  -20.5743  -22.1679 N   0  3  0  0  0  0  0  0  0  0  0  0
    4.6572  -19.6752  -23.0770 C   0  0  0  0  0  0  0  0  0  0  0  0
    4.7214  -21.9062  -21.9464 C   0  0  0  0  0  0  0  0  0  0  0  0
    5.4442  -22.6567  -20.8163 C   0  0  0  0  0  0  0  0  0  0  0  0
   15.9572  -19.7316  -22.7360 H   0  0  0  0  0  0  0  0  0  0  0  0
   17.0520  -21.1023  -22.5127 H   0  0  0  0  0  0  0  0  0  0  0  0
   16.1023  -20.4440  -21.1239 H   0  0  0  0  0  0  0  0  0  0  0  0
   16.8149  -22.6834  -20.7702 H   0  0  0  0  0  0  0  0  0  0  0  0
   16.5900  -24.9182  -19.8734 H   0  0  0  0  0  0  0  0  0  0  0  0
   13.1671  -23.1867  -23.0105 H   0  0  0  0  0  0  0  0  0  0  0  0
   12.9606  -25.4663  -22.1620 H   0  0  0  0  0  0  0  0  0  0  0  0
   16.7129  -27.3524  -20.5183 H   0  0  0  0  0  0  0  0  0  0  0  0
   11.3724  -29.4770  -19.0494 H   0  0  0  0  0  0  0  0  0  0  0  0
   13.9975  -30.4093  -19.1106 H   0  0  0  0  0  0  0  0  0  0  0  0
   16.3149  -29.6359  -19.6948 H   0  0  0  0  0  0  0  0  0  0  0  0
    9.3298  -27.9331  -19.2171 H   0  0  0  0  0  0  0  0  0  0  0  0
   10.8818  -24.7811  -20.5722 H   0  0  0  0  0  0  0  0  0  0  0  0
    9.6257  -22.9466  -21.1088 H   0  0  0  0  0  0  0  0  0  0  0  0
    6.0125  -25.0666  -19.9902 H   0  0  0  0  0  0  0  0  0  0  0  0
    7.3197  -26.9593  -19.4370 H   0  0  0  0  0  0  0  0  0  0  0  0
    8.5841  -21.6062  -21.8859 H   0  0  0  0  0  0  0  0  0  0  0  0
    7.6603  -20.7570  -20.6455 H   0  0  0  0  0  0  0  0  0  0  0  0
    6.7593  -21.5163  -23.5006 H   0  0  0  0  0  0  0  0  0  0  0  0
    7.2615  -19.8846  -22.9592 H   0  0  0  0  0  0  0  0  0  0  0  0
    3.6798  -19.4945  -22.6279 H   0  0  0  0  0  0  0  0  0  0  0  0
    4.5764  -20.1689  -24.0465 H   0  0  0  0  0  0  0  0  0  0  0  0
    5.2220  -18.7429  -23.1474 H   0  0  0  0  0  0  0  0  0  0  0  0
    4.7855  -22.4685  -22.8873 H   0  0  0  0  0  0  0  0  0  0  0  0
    3.6740  -21.7255  -21.6972 H   0  0  0  0  0  0  0  0  0  0  0  0
    5.2362  -22.1807  -19.8507 H   0  0  0  0  0  0  0  0  0  0  0  0
    4.9844  -23.6468  -20.8046 H   0  0  0  0  0  0  0  0  0  0  0  0
    5.4716  -20.1159  -21.2487 H   0  0  0  0  0  0  0  0  0  0  0  0
  1  2  1  0  0  0  0
  1 32  1  0  0  0  0
  1 33  1  0  0  0  0
  1 34  1  0  0  0  0
  2  3  1  0  0  0  0
  3  4  2  0  0  0  0
  3  6  1  0  0  0  0
  4  5  1  0  0  0  0
  4 35  1  0  0  0  0
  5  8  2  0  0  0  0
  5 36  1  0  0  0  0
  6  7  2  0  0  0  0
  6 37  1  0  0  0  0
  7  8  1  0  0  0  0
  7 38  1  0  0  0  0
  8  9  1  0  0  0  0
  9 10  2  0  0  0  0
  9 11  1  0  0  0  0
 10 17  1  0  0  0  0
 10 39  1  0  0  0  0
 11 12  1  0  0  0  0
 11 15  2  0  0  0  0
 12 13  1  0  0  0  0
 13 14  2  0  0  0  0
 13 18  1  0  0  0  0
 14 15  1  0  0  0  0
 14 40  1  0  0  0  0
 15 16  1  0  0  0  0
 16 17  2  0  0  0  0
 16 41  1  0  0  0  0
 17 42  1  0  0  0  0
 18 19  1  0  0  0  0
 18 43  1  0  0  0  0
 19 20  2  0  0  0  0
 19 24  1  0  0  0  0
 20 21  1  0  0  0  0
 20 44  1  0  0  0  0
 21 22  2  0  0  0  0
 21 45  1  0  0  0  0
 22 23  1  0  0  0  0
 22 25  1  0  0  0  0
 23 24  2  0  0  0  0
 23 46  1  0  0  0  0
 24 47  1  0  0  0  0
 25 26  1  0  0  0  0
 25 31  1  0  0  0  0
 26 27  1  0  0  0  0
 26 48  1  0  0  0  0
 26 49  1  0  0  0  0
 27 28  1  0  0  0  0
 27 50  1  0  0  0  0
 27 51  1  0  0  0  0
 28 29  1  0  0  0  0
 28 30  1  0  0  0  0
 28 59  1  0  0  0  0
 29 52  1  0  0  0  0
 29 53  1  0  0  0  0
 29 54  1  0  0  0  0
 30 31  1  0  0  0  0
 30 55  1  0  0  0  0
 30 56  1  0  0  0  0
 31 57  1  0  0  0  0
 31 58  1  0  0  0  0
M  CHG  3  11   1  14   1  28   1
M  END
$$$$
