1MD
 OpenBabel04111919393D

 48 50  0  0  0  0  0  0  0  0999 V2000
   48.1647   50.1167   35.4071 C   0  0  0  0  0  0  0  0  0  0  0  0
   47.1496   50.8713   34.7338 C   0  0  0  0  0  0  0  0  0  0  0  0
   47.4202   51.4481   33.4612 C   0  0  0  0  0  0  0  0  0  0  0  0
   48.5793   51.2538   32.8080 N   0  0  0  0  0  0  0  0  0  0  0  0
   49.3571   49.9829   34.7167 C   0  0  0  0  0  0  0  0  0  0  0  0
   49.5141   50.5406   33.4509 C   0  0  0  0  0  0  0  0  0  0  0  0
   50.9110   50.3128   32.9386 C   0  0  0  0  0  0  0  0  0  0  0  0
   51.4900   49.5571   34.0288 N   0  0  0  0  0  0  0  0  0  0  0  0
   50.6388   49.3246   35.0941 C   0  0  0  0  0  0  0  0  0  0  0  0
   52.6133   48.6858   33.9186 C   0  0  0  0  0  0  0  0  0  0  0  0
   52.2327   47.3997   33.1408 C   0  0  0  0  0  0  0  0  0  0  0  0
   46.4845   52.3794   32.7380 C   0  0  0  0  0  0  0  0  0  0  0  0
   48.0454   49.6095   36.8084 C   0  0  0  0  0  0  0  0  0  0  0  0
   45.7702   50.9953   35.3021 C   0  0  0  0  0  0  0  0  0  0  0  0
   45.6972   51.8529   36.4930 N   0  3  0  0  0  0  0  0  0  0  0  0
   47.4472   48.3729   37.1024 C   0  0  0  0  0  0  0  0  0  0  0  0
   47.3681   47.9492   38.4483 C   0  0  0  0  0  0  0  0  0  0  0  0
   47.8860   48.7552   39.4951 C   0  0  0  0  0  0  0  0  0  0  0  0
   48.4527   49.9977   39.2474 C   0  0  0  0  0  0  0  0  0  0  0  0
   48.5401   50.3907   37.9045 C   0  0  0  0  0  0  0  0  0  0  0  0
   49.2416   51.9489   37.5999 Cl  0  0  0  0  0  0  0  0  0  0  0  0
   47.8101   48.1797   41.1217 Cl  0  0  0  0  0  0  0  0  0  0  0  0
   53.3443   46.5789   32.8941 N   0  0  0  0  0  0  0  0  0  0  0  0
   53.2102   45.2990   32.1640 C   0  0  0  0  0  0  0  0  0  0  0  0
   51.0938   47.1772   32.7908 O   0  0  0  0  0  0  0  0  0  0  0  0
   50.9138   48.7300   36.0833 O   0  0  0  0  0  0  0  0  0  0  0  0
   54.6203   46.9303   33.5018 C   0  0  0  0  0  0  0  0  0  0  0  0
   51.4415   51.2663   32.8299 H   0  0  0  0  0  0  0  0  0  0  0  0
   50.9009   49.7642   31.9971 H   0  0  0  0  0  0  0  0  0  0  0  0
   52.9456   48.3873   34.9340 H   0  0  0  0  0  0  0  0  0  0  0  0
   53.4190   49.2230   33.4108 H   0  0  0  0  0  0  0  0  0  0  0  0
   46.9253   52.6737   31.7748 H   0  0  0  0  0  0  0  0  0  0  0  0
   46.3242   53.2871   33.3320 H   0  0  0  0  0  0  0  0  0  0  0  0
   45.5289   51.8896   32.5424 H   0  0  0  0  0  0  0  0  0  0  0  0
   45.3894   50.0126   35.5916 H   0  0  0  0  0  0  0  0  0  0  0  0
   45.0794   51.4302   34.5784 H   0  0  0  0  0  0  0  0  0  0  0  0
   44.7373   51.9091   36.8577 H   0  0  0  0  0  0  0  0  0  0  0  0
   46.2948   51.4807   37.2412 H   0  0  0  0  0  0  0  0  0  0  0  0
   47.0589   47.7305   36.2980 H   0  0  0  0  0  0  0  0  0  0  0  0
   46.9077   46.9840   38.6928 H   0  0  0  0  0  0  0  0  0  0  0  0
   48.8418   50.6477   40.0471 H   0  0  0  0  0  0  0  0  0  0  0  0
   54.1872   44.8092   32.0662 H   0  0  0  0  0  0  0  0  0  0  0  0
   52.8025   45.4665   31.1555 H   0  0  0  0  0  0  0  0  0  0  0  0
   52.5278   44.6201   32.6945 H   0  0  0  0  0  0  0  0  0  0  0  0
   54.5808   47.8968   34.0066 H   0  0  0  0  0  0  0  0  0  0  0  0
   55.3942   47.0273   32.7492 H   0  0  0  0  0  0  0  0  0  0  0  0
   54.8869   46.2150   34.2718 H   0  0  0  0  0  0  0  0  0  0  0  0
   46.0214   52.8046   36.2775 H   0  0  0  0  0  0  0  0  0  0  0  0
  1  2  2  0  0  0  0
  1  5  1  0  0  0  0
  1 13  1  0  0  0  0
  2  3  1  0  0  0  0
  2 14  1  0  0  0  0
  3  4  2  0  0  0  0
  3 12  1  0  0  0  0
  4  6  1  0  0  0  0
  5  6  2  0  0  0  0
  5  9  1  0  0  0  0
  6  7  1  0  0  0  0
  7  8  1  0  0  0  0
  7 28  1  0  0  0  0
  7 29  1  0  0  0  0
  8  9  1  0  0  0  0
  8 10  1  0  0  0  0
  9 26  2  0  0  0  0
 10 11  1  0  0  0  0
 10 30  1  0  0  0  0
 10 31  1  0  0  0  0
 11 23  1  0  0  0  0
 11 25  2  0  0  0  0
 12 32  1  0  0  0  0
 12 33  1  0  0  0  0
 12 34  1  0  0  0  0
 13 16  2  0  0  0  0
 13 20  1  0  0  0  0
 14 15  1  0  0  0  0
 14 35  1  0  0  0  0
 14 36  1  0  0  0  0
 15 37  1  0  0  0  0
 15 38  1  0  0  0  0
 15 48  1  0  0  0  0
 16 17  1  0  0  0  0
 16 39  1  0  0  0  0
 17 18  2  0  0  0  0
 17 40  1  0  0  0  0
 18 19  1  0  0  0  0
 18 22  1  0  0  0  0
 19 20  2  0  0  0  0
 19 41  1  0  0  0  0
 20 21  1  0  0  0  0
 23 24  1  0  0  0  0
 23 27  1  0  0  0  0
 24 42  1  0  0  0  0
 24 43  1  0  0  0  0
 24 44  1  0  0  0  0
 27 45  1  0  0  0  0
 27 46  1  0  0  0  0
 27 47  1  0  0  0  0
M  CHG  1  15   1
M  END
$$$$
