1OA
 OpenBabel04111919443D

 45 48  0  0  0  0  0  0  0  0999 V2000
  -68.1544   45.2374    3.5422 C   0  0  0  0  0  0  0  0  0  0  0  0
  -68.6378   44.4076    4.5468 C   0  0  0  0  0  0  0  0  0  0  0  0
  -69.6913   43.5478    4.2640 C   0  0  0  0  0  0  0  0  0  0  0  0
  -70.2685   43.4990    3.0026 C   0  0  0  0  0  0  0  0  0  0  0  0
  -69.7745   44.3246    1.9948 C   0  0  0  0  0  0  0  0  0  0  0  0
  -68.7282   45.1931    2.2742 C   0  0  0  0  0  0  0  0  0  0  0  0
  -68.1818   46.0427    1.3173 N   0  0  0  0  0  0  0  0  0  0  0  0
  -68.4049   46.0149   -0.0383 C   0  0  0  0  0  0  0  0  0  0  0  0
  -69.1775   45.2779   -0.6331 O   0  0  0  0  0  0  0  0  0  0  0  0
  -67.5496   46.9300   -0.7534 C   0  0  0  0  0  0  0  0  0  0  0  0
  -67.4168   47.0468   -2.1405 C   0  0  0  0  0  0  0  0  0  0  0  0
  -66.4748   47.9699   -2.4666 N   0  0  0  0  0  0  0  0  0  0  0  0
  -66.0382   48.4644   -1.2741 N   0  3  0  0  0  0  0  0  0  0  0  0
  -66.6619   47.8435   -0.2019 C   0  0  0  0  0  0  0  0  0  0  0  0
  -66.3467   48.1257    1.1160 N   0  0  0  0  0  0  0  0  0  0  0  0
  -65.4601   49.0424    1.3316 C   0  0  0  0  0  0  0  0  0  0  0  0
  -64.7311   49.7707    0.2472 C   0  0  0  0  0  0  0  0  0  0  0  0
  -65.0521   49.4412   -1.0033 C   0  0  0  0  0  0  0  0  0  0  0  0
  -64.3483   50.0676   -2.0222 O   0  0  0  0  0  0  0  0  0  0  0  0
  -65.0150   49.3787    2.7487 C   0  0  0  0  0  0  0  0  0  0  0  0
  -66.0145   48.8899    3.7919 C   0  0  0  0  0  0  0  0  0  0  0  0
  -65.4747   49.1828    5.1771 C   0  0  0  0  0  0  0  0  0  0  0  0
  -64.2139   48.4027    5.3509 N   0  3  0  0  0  0  0  0  0  0  0  0
  -63.1450   48.8330    4.4083 C   0  0  0  0  0  0  0  0  0  0  0  0
  -63.6539   48.7047    2.9839 C   0  0  0  0  0  0  0  0  0  0  0  0
  -70.1589   42.7460    5.2295 F   0  0  0  0  0  0  0  0  0  0  0  0
  -67.3148   45.8876    3.7436 H   0  0  0  0  0  0  0  0  0  0  0  0
  -68.1961   44.4244    5.5344 H   0  0  0  0  0  0  0  0  0  0  0  0
  -71.0891   42.8268    2.7955 H   0  0  0  0  0  0  0  0  0  0  0  0
  -70.2319   44.2651    1.0125 H   0  0  0  0  0  0  0  0  0  0  0  0
  -67.4781   46.7148    1.6307 H   0  0  0  0  0  0  0  0  0  0  0  0
  -67.9228   46.4846   -2.9237 H   0  0  0  0  0  0  0  0  0  0  0  0
  -63.9606   50.4848    0.5063 H   0  0  0  0  0  0  0  0  0  0  0  0
  -64.0011   49.3576   -2.5868 H   0  0  0  0  0  0  0  0  0  0  0  0
  -64.9142   50.4689    2.8437 H   0  0  0  0  0  0  0  0  0  0  0  0
  -66.1724   47.8122    3.6734 H   0  0  0  0  0  0  0  0  0  0  0  0
  -66.9840   49.3811    3.6602 H   0  0  0  0  0  0  0  0  0  0  0  0
  -66.1690   48.8786    5.9601 H   0  0  0  0  0  0  0  0  0  0  0  0
  -65.2170   50.2413    5.2889 H   0  0  0  0  0  0  0  0  0  0  0  0
  -63.8793   48.5013    6.3204 H   0  0  0  0  0  0  0  0  0  0  0  0
  -62.2745   48.1906    4.5767 H   0  0  0  0  0  0  0  0  0  0  0  0
  -62.8908   49.8680    4.6535 H   0  0  0  0  0  0  0  0  0  0  0  0
  -62.9050   49.1350    2.3119 H   0  0  0  0  0  0  0  0  0  0  0  0
  -63.7460   47.6407    2.7322 H   0  0  0  0  0  0  0  0  0  0  0  0
  -64.4045   47.3973    5.2255 H   0  0  0  0  0  0  0  0  0  0  0  0
  1  2  2  0  0  0  0
  1  6  1  0  0  0  0
  1 27  1  0  0  0  0
  2  3  1  0  0  0  0
  2 28  1  0  0  0  0
  3  4  2  0  0  0  0
  3 26  1  0  0  0  0
  4  5  1  0  0  0  0
  4 29  1  0  0  0  0
  5  6  2  0  0  0  0
  5 30  1  0  0  0  0
  6  7  1  0  0  0  0
  7  8  1  0  0  0  0
  7 31  1  0  0  0  0
  8  9  2  0  0  0  0
  8 10  1  0  0  0  0
 10 11  2  0  0  0  0
 10 14  1  0  0  0  0
 11 12  1  0  0  0  0
 11 32  1  0  0  0  0
 12 13  1  0  0  0  0
 13 14  2  0  0  0  0
 13 18  1  0  0  0  0
 14 15  1  0  0  0  0
 15 16  2  0  0  0  0
 16 17  1  0  0  0  0
 16 20  1  0  0  0  0
 17 18  2  0  0  0  0
 17 33  1  0  0  0  0
 18 19  1  0  0  0  0
 19 34  1  0  0  0  0
 20 21  1  0  0  0  0
 20 25  1  0  0  0  0
 20 35  1  0  0  0  0
 21 22  1  0  0  0  0
 21 36  1  0  0  0  0
 21 37  1  0  0  0  0
 22 23  1  0  0  0  0
 22 38  1  0  0  0  0
 22 39  1  0  0  0  0
 23 24  1  0  0  0  0
 23 40  1  0  0  0  0
 23 45  1  0  0  0  0
 24 25  1  0  0  0  0
 24 41  1  0  0  0  0
 24 42  1  0  0  0  0
 25 43  1  0  0  0  0
 25 44  1  0  0  0  0
M  CHG  2  13   1  23   1
M  END
$$$$
