1OB
 OpenBabel04111919443D

 43 46  0  0  0  0  0  0  0  0999 V2000
  -18.1666  -35.6177    5.2702 C   0  0  0  0  0  0  0  0  0  0  0  0
  -18.5010  -36.9489    5.4730 C   0  0  0  0  0  0  0  0  0  0  0  0
  -19.8285  -37.3052    5.7106 C   0  0  0  0  0  0  0  0  0  0  0  0
  -20.8222  -36.3265    5.7306 C   0  0  0  0  0  0  0  0  0  0  0  0
  -20.4820  -34.9960    5.5156 C   0  0  0  0  0  0  0  0  0  0  0  0
  -19.1551  -34.6345    5.2817 C   0  0  0  0  0  0  0  0  0  0  0  0
  -18.7878  -33.1984    5.0637 C   0  0  0  0  0  0  0  0  0  0  0  0
  -18.1126  -32.9421    3.7221 C   0  0  0  0  0  0  0  0  0  0  0  0
  -17.2505  -31.7574    3.6393 C   0  0  0  0  0  0  0  0  0  0  0  0
  -16.6628  -31.5386    2.4553 C   0  0  0  0  0  0  0  0  0  0  0  0
  -16.8671  -32.3763    1.3538 N   0  3  0  0  0  0  0  0  0  0  0  0
  -17.6964  -33.4593    1.5179 C   0  0  0  0  0  0  0  0  0  0  0  0
  -18.3240  -33.7388    2.7050 N   0  0  0  0  0  0  0  0  0  0  0  0
  -17.7240  -34.0914    0.2974 C   0  0  0  0  0  0  0  0  0  0  0  0
  -16.8929  -33.3468   -0.5586 C   0  0  0  0  0  0  0  0  0  0  0  0
  -16.3578  -32.3008    0.0838 N   0  0  0  0  0  0  0  0  0  0  0  0
  -18.4921  -35.2496   -0.0578 C   0  0  0  0  0  0  0  0  0  0  0  0
  -18.4339  -35.7022   -1.1884 O   0  0  0  0  0  0  0  0  0  0  0  0
  -19.2651  -35.7357    0.9685 N   0  0  0  0  0  0  0  0  0  0  0  0
  -20.1374  -36.8213    0.9367 C   0  0  0  0  0  0  0  0  0  0  0  0
  -20.6651  -37.2380    2.1566 C   0  0  0  0  0  0  0  0  0  0  0  0
  -21.5440  -38.3143    2.2143 C   0  0  0  0  0  0  0  0  0  0  0  0
  -21.8977  -38.9640    1.0412 C   0  0  0  0  0  0  0  0  0  0  0  0
  -21.3821  -38.5540   -0.1799 C   0  0  0  0  0  0  0  0  0  0  0  0
  -20.5014  -37.4764   -0.2318 C   0  0  0  0  0  0  0  0  0  0  0  0
  -22.7429  -39.9997    1.0842 F   0  0  0  0  0  0  0  0  0  0  0  0
  -15.8538  -30.4394    2.3075 O   0  0  0  0  0  0  0  0  0  0  0  0
  -20.1624  -38.6588    5.9229 C   0  0  0  0  0  0  0  0  0  0  0  0
  -20.4351  -39.7912    6.0995 N   0  0  0  0  0  0  0  0  0  0  0  0
  -17.1327  -35.3358    5.0977 H   0  0  0  0  0  0  0  0  0  0  0  0
  -17.7222  -37.7049    5.4469 H   0  0  0  0  0  0  0  0  0  0  0  0
  -21.8606  -36.5940    5.9056 H   0  0  0  0  0  0  0  0  0  0  0  0
  -21.2517  -34.2314    5.5330 H   0  0  0  0  0  0  0  0  0  0  0  0
  -18.1126  -32.8879    5.8730 H   0  0  0  0  0  0  0  0  0  0  0  0
  -19.6955  -32.5853    5.1087 H   0  0  0  0  0  0  0  0  0  0  0  0
  -17.1320  -31.1335    4.5038 H   0  0  0  0  0  0  0  0  0  0  0  0
  -16.6885  -33.5563   -1.6196 H   0  0  0  0  0  0  0  0  0  0  0  0
  -19.1935  -35.2362    1.8507 H   0  0  0  0  0  0  0  0  0  0  0  0
  -20.3857  -36.7282    3.0677 H   0  0  0  0  0  0  0  0  0  0  0  0
  -21.9470  -38.6417    3.1643 H   0  0  0  0  0  0  0  0  0  0  0  0
  -21.6603  -39.0730   -1.0884 H   0  0  0  0  0  0  0  0  0  0  0  0
  -20.1176  -37.1543   -1.1916 H   0  0  0  0  0  0  0  0  0  0  0  0
  -14.9925  -30.7806    1.9929 H   0  0  0  0  0  0  0  0  0  0  0  0
  1  2  2  0  0  0  0
  1  6  1  0  0  0  0
  1 30  1  0  0  0  0
  2  3  1  0  0  0  0
  2 31  1  0  0  0  0
  3  4  2  0  0  0  0
  3 28  1  0  0  0  0
  4  5  1  0  0  0  0
  4 32  1  0  0  0  0
  5  6  2  0  0  0  0
  5 33  1  0  0  0  0
  6  7  1  0  0  0  0
  7  8  1  0  0  0  0
  7 34  1  0  0  0  0
  7 35  1  0  0  0  0
  8  9  2  0  0  0  0
  8 13  1  0  0  0  0
  9 10  1  0  0  0  0
  9 36  1  0  0  0  0
 10 11  2  0  0  0  0
 10 27  1  0  0  0  0
 11 12  1  0  0  0  0
 11 16  1  0  0  0  0
 12 13  2  0  0  0  0
 12 14  1  0  0  0  0
 14 15  2  0  0  0  0
 14 17  1  0  0  0  0
 15 16  1  0  0  0  0
 15 37  1  0  0  0  0
 17 18  2  0  0  0  0
 17 19  1  0  0  0  0
 19 20  1  0  0  0  0
 19 38  1  0  0  0  0
 20 21  2  0  0  0  0
 20 25  1  0  0  0  0
 21 22  1  0  0  0  0
 21 39  1  0  0  0  0
 22 23  2  0  0  0  0
 22 40  1  0  0  0  0
 23 24  1  0  0  0  0
 23 26  1  0  0  0  0
 24 25  2  0  0  0  0
 24 41  1  0  0  0  0
 25 42  1  0  0  0  0
 27 43  1  0  0  0  0
 28 29  3  0  0  0  0
M  CHG  1  11   1
M  END
$$$$
