1OM
 OpenBabel04111919443D

 52 54  0  0  0  0  0  0  0  0999 V2000
    1.2319    3.3516    1.5713 O   0  0  0  0  0  0  0  0  0  0  0  0
    1.4258    4.4241    0.7527 C   0  0  0  0  0  0  0  0  0  0  0  0
    1.3995    4.2370   -0.6282 C   0  0  0  0  0  0  0  0  0  0  0  0
    1.5983    5.3254   -1.4907 C   0  0  0  0  0  0  0  0  0  0  0  0
    1.8585    6.5996   -0.9617 C   0  0  0  0  0  0  0  0  0  0  0  0
    1.8777    6.7500    0.4386 C   0  0  0  0  0  0  0  0  0  0  0  0
    1.6526    5.6787    1.2931 C   0  0  0  0  0  0  0  0  0  0  0  0
    2.2853    7.8224   -1.7789 C   0  0  0  0  0  0  0  0  0  0  0  0
    1.4954    9.1061   -1.6088 C   0  0  0  0  0  0  0  0  0  0  0  0
    2.1126   10.3183   -1.9532 C   0  0  0  0  0  0  0  0  0  0  0  0
    1.4699   11.5375   -1.7496 C   0  0  0  0  0  0  0  0  0  0  0  0
    0.1906   11.6124   -1.1845 C   0  0  0  0  0  0  0  0  0  0  0  0
   -0.4997   12.7816   -0.9726 N   0  0  0  0  0  0  0  0  0  0  0  0
   -1.9559   12.7123   -0.8062 C   0  0  0  0  0  0  0  0  0  0  0  0
    0.0776   14.0879   -1.2458 C   0  0  0  0  0  0  0  0  0  0  0  0
   -0.3921   10.3631   -0.8146 C   0  0  0  0  0  0  0  0  0  0  0  0
    0.2322    9.1423   -1.0312 C   0  0  0  0  0  0  0  0  0  0  0  0
    2.9127    7.5905   -3.1435 C   0  0  0  0  0  0  0  0  0  0  0  0
    2.5581    8.2752   -4.3130 C   0  0  0  0  0  0  0  0  0  0  0  0
    3.3751    8.1900   -5.4425 C   0  0  0  0  0  0  0  0  0  0  0  0
    4.5449    7.4131   -5.4543 C   0  0  0  0  0  0  0  0  0  0  0  0
    5.3639    7.3506   -6.5671 N   0  0  0  0  0  0  0  0  0  0  0  0
    4.8862    7.8209   -7.8574 C   0  0  0  0  0  0  0  0  0  0  0  0
    6.7628    6.9751   -6.4525 C   0  0  0  0  0  0  0  0  0  0  0  0
    4.8404    6.6952   -4.2891 C   0  0  0  0  0  0  0  0  0  0  0  0
    4.0531    6.7879   -3.1569 C   0  0  0  0  0  0  0  0  0  0  0  0
    1.2587    3.6610    2.4976 H   0  0  0  0  0  0  0  0  0  0  0  0
    1.2496    3.2404   -1.0413 H   0  0  0  0  0  0  0  0  0  0  0  0
    1.6078    5.1512   -2.5631 H   0  0  0  0  0  0  0  0  0  0  0  0
    2.0882    7.7293    0.8658 H   0  0  0  0  0  0  0  0  0  0  0  0
    1.6919    5.8438    2.3651 H   0  0  0  0  0  0  0  0  0  0  0  0
    3.1943    8.1047   -1.2139 H   0  0  0  0  0  0  0  0  0  0  0  0
    3.1184   10.3214   -2.3788 H   0  0  0  0  0  0  0  0  0  0  0  0
    2.0200   12.4169   -2.0591 H   0  0  0  0  0  0  0  0  0  0  0  0
   -2.4152   13.7039   -0.7699 H   0  0  0  0  0  0  0  0  0  0  0  0
   -2.2011   12.2179    0.1411 H   0  0  0  0  0  0  0  0  0  0  0  0
   -2.4303   12.1571   -1.6265 H   0  0  0  0  0  0  0  0  0  0  0  0
    1.1637   14.0697   -1.3601 H   0  0  0  0  0  0  0  0  0  0  0  0
   -0.1179   14.7477   -0.3956 H   0  0  0  0  0  0  0  0  0  0  0  0
   -0.3469   14.5387   -2.1485 H   0  0  0  0  0  0  0  0  0  0  0  0
   -1.3546   10.3258   -0.3152 H   0  0  0  0  0  0  0  0  0  0  0  0
   -0.2713    8.2352   -0.7056 H   0  0  0  0  0  0  0  0  0  0  0  0
    1.7061    8.9479   -4.3516 H   0  0  0  0  0  0  0  0  0  0  0  0
    3.0986    8.7942   -6.3013 H   0  0  0  0  0  0  0  0  0  0  0  0
    5.6545    7.7137   -8.6282 H   0  0  0  0  0  0  0  0  0  0  0  0
    4.6123    8.8819   -7.8284 H   0  0  0  0  0  0  0  0  0  0  0  0
    4.0141    7.2359   -8.1729 H   0  0  0  0  0  0  0  0  0  0  0  0
    7.0748    6.6802   -5.4484 H   0  0  0  0  0  0  0  0  0  0  0  0
    7.4002    7.8214   -6.7226 H   0  0  0  0  0  0  0  0  0  0  0  0
    6.9716    6.1307   -7.1144 H   0  0  0  0  0  0  0  0  0  0  0  0
    5.6951    6.0334   -4.2167 H   0  0  0  0  0  0  0  0  0  0  0  0
    4.3645    6.2645   -2.2530 H   0  0  0  0  0  0  0  0  0  0  0  0
  1  2  1  0  0  0  0
  1 27  1  0  0  0  0
  2  3  2  0  0  0  0
  2  7  1  0  0  0  0
  3  4  1  0  0  0  0
  3 28  1  0  0  0  0
  4  5  2  0  0  0  0
  4 29  1  0  0  0  0
  5  6  1  0  0  0  0
  5  8  1  0  0  0  0
  6  7  2  0  0  0  0
  6 30  1  0  0  0  0
  7 31  1  0  0  0  0
  8  9  1  0  0  0  0
  8 18  1  0  0  0  0
  8 32  1  0  0  0  0
  9 10  2  0  0  0  0
  9 17  1  0  0  0  0
 10 11  1  0  0  0  0
 10 33  1  0  0  0  0
 11 12  2  0  0  0  0
 11 34  1  0  0  0  0
 12 13  1  0  0  0  0
 12 16  1  0  0  0  0
 13 14  1  0  0  0  0
 13 15  1  0  0  0  0
 14 35  1  0  0  0  0
 14 36  1  0  0  0  0
 14 37  1  0  0  0  0
 15 38  1  0  0  0  0
 15 39  1  0  0  0  0
 15 40  1  0  0  0  0
 16 17  2  0  0  0  0
 16 41  1  0  0  0  0
 17 42  1  0  0  0  0
 18 19  2  0  0  0  0
 18 26  1  0  0  0  0
 19 20  1  0  0  0  0
 19 43  1  0  0  0  0
 20 21  2  0  0  0  0
 20 44  1  0  0  0  0
 21 22  1  0  0  0  0
 21 25  1  0  0  0  0
 22 23  1  0  0  0  0
 22 24  1  0  0  0  0
 23 45  1  0  0  0  0
 23 46  1  0  0  0  0
 23 47  1  0  0  0  0
 24 48  1  0  0  0  0
 24 49  1  0  0  0  0
 24 50  1  0  0  0  0
 25 26  2  0  0  0  0
 25 51  1  0  0  0  0
 26 52  1  0  0  0  0
M  END
$$$$
