1SY
 OpenBabel04111920113D

 67 73  0  0  1  0  0  0  0  0999 V2000
  -55.8290    3.2110   66.5141 C   0  0  0  0  0  0  0  0  0  0  0  0
  -56.6591    6.7174   66.5548 N   0  0  0  0  0  0  0  0  0  0  0  0
  -56.4803    5.4100   66.9098 C   0  0  0  0  0  0  0  0  0  0  0  0
  -55.9543    4.4818   66.0697 N   0  0  0  0  0  0  0  0  0  0  0  0
  -56.2132    2.7322   67.6926 N   0  0  0  0  0  0  0  0  0  0  0  0
  -56.7303    3.7152   68.4459 C   0  0  0  0  0  0  0  0  0  0  0  0
  -56.8879    5.0250   68.1733 C   0  0  0  0  0  0  0  0  0  0  0  0
  -57.4661    5.7313   69.2077 N   0  0  0  0  0  0  0  0  0  0  0  0
  -57.6448    4.8239   70.1438 C   0  0  0  0  0  0  0  0  0  0  0  0
  -57.2493    3.6111   69.6905 N   0  3  0  0  0  0  0  0  0  0  0  0
  -57.1856    2.3007   70.2450 C   0  0  1  0  0  0  0  0  0  0  0  0
  -55.7667    2.0649   70.6186 C   0  0  2  0  0  0  0  0  0  0  0  0
  -55.5254    0.6411   70.5426 O   0  0  0  0  0  0  0  0  0  0  0  0
  -55.8593    2.6816   72.0079 C   0  0  1  0  0  0  0  0  0  0  0  0
  -57.1747    2.1276   72.5406 C   0  0  1  0  0  0  0  0  0  0  0  0
  -57.7987    2.8510   73.7549 C   0  0  0  0  0  0  0  0  0  0  0  0
  -58.0092    4.1998   73.4068 O   0  0  0  0  0  0  0  0  0  0  0  0
  -58.2002    5.3907   74.4860 P   0  0  2  0  0  0  0  0  0  0  0  0
  -58.2796    6.6813   73.6929 O   0  0  0  0  0  0  0  0  0  0  0  0
  -56.8697    5.5223   75.3662 O   0  0  0  0  0  0  0  0  0  0  0  0
  -55.5960    5.4708   74.8491 C   0  0  2  0  0  0  0  0  0  0  0  0
  -54.9462    4.4380   75.7492 C   0  0  2  0  0  0  0  0  0  0  0  0
  -55.3934    4.3461   77.1308 O   0  0  0  0  0  0  0  0  0  0  0  0
  -53.4906    4.8568   75.6614 C   0  0  1  0  0  0  0  0  0  0  0  0
  -52.8363    3.9403   74.6412 C   0  0  0  0  0  0  0  0  0  0  0  0
  -53.3711    4.1887   73.3611 O   0  0  0  0  0  0  0  0  0  0  0  0
  -53.3328    2.9731   72.3292 P   0  0  2  0  0  0  0  0  0  0  0  0
  -54.7428    2.2433   72.6982 O   0  0  0  0  0  0  0  0  0  0  0  0
  -52.2841    2.0078   72.7936 O   0  0  0  0  0  0  0  0  0  0  0  0
  -53.3128    3.5649   70.9520 O   0  0  0  0  0  0  0  0  0  0  0  0
  -53.4073    6.2367   75.2849 O   0  0  0  0  0  0  0  0  0  0  0  0
  -54.7303    6.7038   74.9961 C   0  0  1  0  0  0  0  0  0  0  0  0
  -54.5696    7.4445   73.7748 N   0  3  0  0  0  0  0  0  0  0  0  0
  -53.9940    7.0905   72.5885 C   0  0  0  0  0  0  0  0  0  0  0  0
  -54.0237    8.0713   71.7028 N   0  0  0  0  0  0  0  0  0  0  0  0
  -54.8935    8.7310   73.6539 C   0  0  0  0  0  0  0  0  0  0  0  0
  -54.6081    9.0752   72.4025 C   0  0  0  0  0  0  0  0  0  0  0  0
  -54.9061   10.4198   71.9678 C   0  0  0  0  0  0  0  0  0  0  0  0
  -55.4939   11.1753   73.0141 N   0  3  0  0  0  0  0  0  0  0  0  0
  -55.7614   10.7196   74.2955 C   0  0  0  0  0  0  0  0  0  0  0  0
  -56.2876   11.4480   75.2017 N   0  0  0  0  0  0  0  0  0  0  0  0
  -55.4241    9.4522   74.6120 N   0  3  0  0  0  0  0  0  0  0  0  0
  -54.6595   10.8404   70.8908 O   0  0  0  0  0  0  0  0  0  0  0  0
  -59.2335    5.0361   75.5042 O   0  0  0  0  0  0  0  0  0  0  0  0
  -58.0425    2.2154   71.3849 O   0  0  0  0  0  0  0  0  0  0  0  0
  -55.3926    2.4918   65.8331 H   0  0  0  0  0  0  0  0  0  0  0  0
  -57.0544    7.3310   67.2589 H   0  0  0  0  0  0  0  0  0  0  0  0
  -56.3320    7.0051   65.6664 H   0  0  0  0  0  0  0  0  0  0  0  0
  -58.0702    5.0461   71.1192 H   0  0  0  0  0  0  0  0  0  0  0  0
  -57.4727    1.5887   69.4515 H   0  0  0  0  0  0  0  0  0  0  0  0
  -55.0619    2.6064   69.9525 H   0  0  0  0  0  0  0  0  0  0  0  0
  -54.6076    0.4637   70.8015 H   0  0  0  0  0  0  0  0  0  0  0  0
  -55.9132    3.7863   71.9980 H   0  0  0  0  0  0  0  0  0  0  0  0
  -57.0632    1.0703   72.8114 H   0  0  0  0  0  0  0  0  0  0  0  0
  -57.1253    2.8329   74.6078 H   0  0  0  0  0  0  0  0  0  0  0  0
  -58.7550    2.3905   74.0483 H   0  0  0  0  0  0  0  0  0  0  0  0
  -55.5964    5.1781   73.8059 H   0  0  0  0  0  0  0  0  0  0  0  0
  -55.0878    3.4487   75.3024 H   0  0  0  0  0  0  0  0  0  0  0  0
  -56.3495    4.1308   77.1719 H   0  0  0  0  0  0  0  0  0  0  0  0
  -53.0113    4.7681   76.6296 H   0  0  0  0  0  0  0  0  0  0  0  0
  -53.0510    2.8979   74.9075 H   0  0  0  0  0  0  0  0  0  0  0  0
  -51.7591    4.0953   74.6401 H   0  0  0  0  0  0  0  0  0  0  0  0
  -55.0862    7.3912   75.8000 H   0  0  0  0  0  0  0  0  0  0  0  0
  -53.5786    6.1202   72.3756 H   0  0  0  0  0  0  0  0  0  0  0  0
  -55.7328   12.1077   72.7192 H   0  0  0  0  0  0  0  0  0  0  0  0
  -56.3909   10.8671   76.0577 H   0  0  0  0  0  0  0  0  0  0  0  0
  -55.6364    9.1288   75.5290 H   0  0  0  0  0  0  0  0  0  0  0  0
  1  4  2  0  0  0  0
  1  5  1  0  0  0  0
  1 46  1  0  0  0  0
  2  3  1  0  0  0  0
  2 47  1  0  0  0  0
  2 48  1  0  0  0  0
  3  4  1  0  0  0  0
  3  7  2  0  0  0  0
  5  6  2  0  0  0  0
  6  7  1  0  0  0  0
  6 10  1  0  0  0  0
  7  8  1  0  0  0  0
  8  9  1  0  0  0  0
  9 10  2  0  0  0  0
  9 49  1  0  0  0  0
 10 11  1  0  0  0  0
 11 12  1  0  0  0  0
 11 45  1  0  0  0  0
 11 50  1  6  0  0  0
 12 13  1  0  0  0  0
 12 14  1  0  0  0  0
 12 51  1  6  0  0  0
 13 52  1  0  0  0  0
 14 15  1  0  0  0  0
 14 28  1  0  0  0  0
 14 53  1  6  0  0  0
 15 16  1  0  0  0  0
 15 45  1  0  0  0  0
 15 54  1  1  0  0  0
 16 17  1  0  0  0  0
 16 55  1  0  0  0  0
 16 56  1  0  0  0  0
 17 18  1  0  0  0  0
 18 19  2  6  0  0  0
 18 20  1  0  0  0  0
 18 44  1  0  0  0  0
 20 21  1  0  0  0  0
 21 22  1  0  0  0  0
 21 32  1  0  0  0  0
 21 57  1  6  0  0  0
 22 23  1  0  0  0  0
 22 24  1  0  0  0  0
 22 58  1  6  0  0  0
 23 59  1  0  0  0  0
 24 25  1  0  0  0  0
 24 31  1  0  0  0  0
 24 60  1  1  0  0  0
 25 26  1  0  0  0  0
 25 61  1  0  0  0  0
 25 62  1  0  0  0  0
 26 27  1  0  0  0  0
 27 28  1  0  0  0  0
 27 29  2  1  0  0  0
 27 30  1  0  0  0  0
 31 32  1  0  0  0  0
 32 33  1  0  0  0  0
 32 63  1  1  0  0  0
 33 34  2  0  0  0  0
 33 36  1  0  0  0  0
 34 35  1  0  0  0  0
 34 64  1  0  0  0  0
 35 37  2  0  0  0  0
 36 37  1  0  0  0  0
 36 42  2  0  0  0  0
 37 38  1  0  0  0  0
 38 39  1  0  0  0  0
 38 43  2  0  0  0  0
 39 40  1  0  0  0  0
 39 65  1  0  0  0  0
 40 41  2  0  0  0  0
 40 42  1  0  0  0  0
 41 66  1  0  0  0  0
 42 67  1  0  0  0  0
M  CHG  4  10   1  33   1  39   1  42   1
M  END
$$$$
