1SY
 OpenBabel04111919563D

 67 73  0  0  1  0  0  0  0  0999 V2000
   52.2070    8.6547  -17.4877 C   0  0  0  0  0  0  0  0  0  0  0  0
   49.7238   10.9285  -18.7227 N   0  0  0  0  0  0  0  0  0  0  0  0
   50.3822    9.7543  -18.4514 C   0  0  0  0  0  0  0  0  0  0  0  0
   51.5387    9.8083  -17.7257 N   0  0  0  0  0  0  0  0  0  0  0  0
   51.8921    7.4191  -17.8904 N   0  0  0  0  0  0  0  0  0  0  0  0
   50.7399    7.4189  -18.5816 C   0  0  0  0  0  0  0  0  0  0  0  0
   49.9342    8.4942  -18.8870 C   0  0  0  0  0  0  0  0  0  0  0  0
   48.8478    8.0811  -19.6325 N   0  0  0  0  0  0  0  0  0  0  0  0
   48.9732    6.7646  -19.7363 C   0  0  0  0  0  0  0  0  0  0  0  0
   50.1205    6.3313  -19.1353 N   0  3  0  0  0  0  0  0  0  0  0  0
   50.6681    5.0086  -18.9386 C   0  0  1  0  0  0  0  0  0  0  0  0
   50.4161    4.5084  -17.5257 C   0  0  2  0  0  0  0  0  0  0  0  0
   51.4993    3.6387  -17.1589 O   0  0  0  0  0  0  0  0  0  0  0  0
   49.1197    3.7409  -17.6746 C   0  0  1  0  0  0  0  0  0  0  0  0
   49.3445    3.0970  -19.0507 C   0  0  1  0  0  0  0  0  0  0  0  0
   48.0425    2.7947  -19.7815 C   0  0  0  0  0  0  0  0  0  0  0  0
   47.2692    3.9797  -19.8299 O   0  0  0  0  0  0  0  0  0  0  0  0
   45.7771    3.9550  -20.4430 P   0  0  2  0  0  0  0  0  0  0  0  0
   45.1728    5.3212  -20.3002 O   0  0  0  0  0  0  0  0  0  0  0  0
   45.0327    2.9664  -19.3904 O   0  0  0  0  0  0  0  0  0  0  0  0
   45.2529    3.1108  -18.0003 C   0  0  2  0  0  0  0  0  0  0  0  0
   45.2416    1.7382  -17.3514 C   0  0  2  0  0  0  0  0  0  0  0  0
   44.2138    0.8949  -17.9045 O   0  0  0  0  0  0  0  0  0  0  0  0
   44.8705    2.0247  -15.9096 C   0  0  1  0  0  0  0  0  0  0  0  0
   46.1110    2.1625  -15.0161 C   0  0  0  0  0  0  0  0  0  0  0  0
   46.8806    3.2934  -15.3612 O   0  0  0  0  0  0  0  0  0  0  0  0
   48.4888    3.2806  -15.1588 P   0  0  1  0  0  0  0  0  0  0  0  0
   48.9209    2.7756  -16.6486 O   0  0  0  0  0  0  0  0  0  0  0  0
   48.9654    4.6894  -14.9753 O   0  0  0  0  0  0  0  0  0  0  0  0
   48.8646    2.1935  -14.1874 O   0  0  0  0  0  0  0  0  0  0  0  0
   44.0472    3.2156  -15.9264 O   0  0  0  0  0  0  0  0  0  0  0  0
   44.1374    3.8086  -17.2504 C   0  0  1  0  0  0  0  0  0  0  0  0
   44.3319    5.2310  -17.0942 N   0  3  0  0  0  0  0  0  0  0  0  0
   45.4079    5.8449  -16.4933 C   0  0  0  0  0  0  0  0  0  0  0  0
   45.3000    7.1537  -16.4794 N   0  0  0  0  0  0  0  0  0  0  0  0
   43.5003    6.2297  -17.4953 C   0  0  0  0  0  0  0  0  0  0  0  0
   44.1261    7.3998  -17.1420 C   0  0  0  0  0  0  0  0  0  0  0  0
   43.4921    8.6662  -17.4610 C   0  0  0  0  0  0  0  0  0  0  0  0
   42.2578    8.5255  -18.1022 N   0  3  0  0  0  0  0  0  0  0  0  0
   41.6508    7.3302  -18.4510 C   0  0  0  0  0  0  0  0  0  0  0  0
   40.5213    7.4028  -19.0389 N   0  0  0  0  0  0  0  0  0  0  0  0
   42.3001    6.1611  -18.1265 N   0  3  0  0  0  0  0  0  0  0  0  0
   43.9387    9.7745  -17.1659 O   0  0  0  0  0  0  0  0  0  0  0  0
   45.8102    3.2273  -21.7587 O   0  0  0  0  0  0  0  0  0  0  0  0
   50.1098    4.0400  -19.8485 O   0  0  0  0  0  0  0  0  0  0  0  0
   53.1257    8.7333  -16.9127 H   0  0  0  0  0  0  0  0  0  0  0  0
   48.8217   10.8591  -19.1766 H   0  0  0  0  0  0  0  0  0  0  0  0
   50.0490   11.7834  -18.3075 H   0  0  0  0  0  0  0  0  0  0  0  0
   48.2645    6.1118  -20.2317 H   0  0  0  0  0  0  0  0  0  0  0  0
   51.7407    5.0783  -19.1488 H   0  0  0  0  0  0  0  0  0  0  0  0
   50.3544    5.3115  -16.7902 H   0  0  0  0  0  0  0  0  0  0  0  0
   51.2112    3.2669  -16.3047 H   0  0  0  0  0  0  0  0  0  0  0  0
   48.2738    4.4356  -17.7100 H   0  0  0  0  0  0  0  0  0  0  0  0
   49.9328    2.1726  -18.9558 H   0  0  0  0  0  0  0  0  0  0  0  0
   47.4986    2.0226  -19.2360 H   0  0  0  0  0  0  0  0  0  0  0  0
   48.2490    2.4510  -20.7987 H   0  0  0  0  0  0  0  0  0  0  0  0
   46.2099    3.5895  -17.7982 H   0  0  0  0  0  0  0  0  0  0  0  0
   46.1905    1.2064  -17.4551 H   0  0  0  0  0  0  0  0  0  0  0  0
   44.3714    0.8907  -18.8676 H   0  0  0  0  0  0  0  0  0  0  0  0
   44.2482    1.2132  -15.5121 H   0  0  0  0  0  0  0  0  0  0  0  0
   46.7138    1.2554  -15.1212 H   0  0  0  0  0  0  0  0  0  0  0  0
   45.7845    2.2504  -13.9740 H   0  0  0  0  0  0  0  0  0  0  0  0
   43.1783    3.6545  -17.7590 H   0  0  0  0  0  0  0  0  0  0  0  0
   46.2483    5.2957  -16.0858 H   0  0  0  0  0  0  0  0  0  0  0  0
   41.7799    9.3786  -18.3302 H   0  0  0  0  0  0  0  0  0  0  0  0
   40.1787    6.4623  -19.2592 H   0  0  0  0  0  0  0  0  0  0  0  0
   41.9316    5.2913  -18.4827 H   0  0  0  0  0  0  0  0  0  0  0  0
  1  4  2  0  0  0  0
  1  5  1  0  0  0  0
  1 46  1  0  0  0  0
  2  3  1  0  0  0  0
  2 47  1  0  0  0  0
  2 48  1  0  0  0  0
  3  4  1  0  0  0  0
  3  7  2  0  0  0  0
  5  6  2  0  0  0  0
  6  7  1  0  0  0  0
  6 10  1  0  0  0  0
  7  8  1  0  0  0  0
  8  9  1  0  0  0  0
  9 10  2  0  0  0  0
  9 49  1  0  0  0  0
 10 11  1  0  0  0  0
 11 12  1  0  0  0  0
 11 45  1  0  0  0  0
 11 50  1  6  0  0  0
 12 13  1  0  0  0  0
 12 14  1  0  0  0  0
 12 51  1  1  0  0  0
 13 52  1  0  0  0  0
 14 15  1  0  0  0  0
 14 28  1  0  0  0  0
 14 53  1  6  0  0  0
 15 16  1  0  0  0  0
 15 45  1  0  0  0  0
 15 54  1  1  0  0  0
 16 17  1  0  0  0  0
 16 55  1  0  0  0  0
 16 56  1  0  0  0  0
 17 18  1  0  0  0  0
 18 19  2  6  0  0  0
 18 20  1  0  0  0  0
 18 44  1  0  0  0  0
 20 21  1  0  0  0  0
 21 22  1  0  0  0  0
 21 32  1  0  0  0  0
 21 57  1  1  0  0  0
 22 23  1  0  0  0  0
 22 24  1  0  0  0  0
 22 58  1  6  0  0  0
 23 59  1  0  0  0  0
 24 25  1  0  0  0  0
 24 31  1  0  0  0  0
 24 60  1  1  0  0  0
 25 26  1  0  0  0  0
 25 61  1  0  0  0  0
 25 62  1  0  0  0  0
 26 27  1  0  0  0  0
 27 28  1  0  0  0  0
 27 29  2  1  0  0  0
 27 30  1  0  0  0  0
 31 32  1  0  0  0  0
 32 33  1  0  0  0  0
 32 63  1  6  0  0  0
 33 34  2  0  0  0  0
 33 36  1  0  0  0  0
 34 35  1  0  0  0  0
 34 64  1  0  0  0  0
 35 37  2  0  0  0  0
 36 37  1  0  0  0  0
 36 42  2  0  0  0  0
 37 38  1  0  0  0  0
 38 39  1  0  0  0  0
 38 43  2  0  0  0  0
 39 40  1  0  0  0  0
 39 65  1  0  0  0  0
 40 41  2  0  0  0  0
 40 42  1  0  0  0  0
 41 66  1  0  0  0  0
 42 67  1  0  0  0  0
M  CHG  4  10   1  33   1  39   1  42   1
M  END
$$$$
