1U1
 OpenBabel04111920013D

 16 16  0  0  0  0  0  0  0  0999 V2000
   23.3302    6.2851   10.2855 C   0  0  0  0  0  0  0  0  0  0  0  0
   22.2359    5.8211    9.4800 C   0  0  0  0  0  0  0  0  0  0  0  0
   21.5033    4.8302   10.1113 C   0  0  0  0  0  0  0  0  0  0  0  0
   22.1407    4.5135   11.6888 S   0  0  0  0  0  0  0  0  0  0  0  0
   23.3812    5.6346   11.4815 C   0  0  0  0  0  0  0  0  0  0  0  0
   24.5324    5.8377   12.7400 Cl  0  0  0  0  0  0  0  0  0  0  0  0
   20.3505    4.0571    9.5926 C   0  0  0  0  0  0  0  0  0  0  0  0
   19.6833    3.3457   10.4253 O   0  0  0  0  0  0  0  0  0  0  0  0
   20.2088    4.0875    8.3247 O   0  0  0  0  0  0  0  0  0  0  0  0
   21.9720    6.4706    7.8964 S   0  0  0  0  0  0  0  0  0  0  0  0
   22.9805    7.5133    7.7676 O   0  0  0  0  0  0  0  0  0  0  0  0
   20.5837    6.8240    7.7503 O   0  0  0  0  0  0  0  0  0  0  0  0
   22.4723    5.3323    6.7366 N   0  0  0  0  0  0  0  0  0  0  0  0
   24.0470    7.0460    9.9774 H   0  0  0  0  0  0  0  0  0  0  0  0
   22.0213    5.4843    5.8377 H   0  0  0  0  0  0  0  0  0  0  0  0
   22.3520    4.3805    7.0902 H   0  0  0  0  0  0  0  0  0  0  0  0
  1  2  1  0  0  0  0
  1  5  2  0  0  0  0
  1 14  1  0  0  0  0
  2  3  2  0  0  0  0
  2 10  1  0  0  0  0
  3  4  1  0  0  0  0
  3  7  1  0  0  0  0
  4  5  1  0  0  0  0
  5  6  1  0  0  0  0
  7  8  2  0  0  0  0
  7  9  1  0  0  0  0
 10 11  2  0  0  0  0
 10 12  2  0  0  0  0
 10 13  1  0  0  0  0
 13 15  1  0  0  0  0
 13 16  1  0  0  0  0
M  END
$$$$
