1U5
 OpenBabel04111920023D

 27 28  0  0  1  0  0  0  0  0999 V2000
   26.1896    7.4969   16.1801 C   0  0  0  0  0  0  0  0  0  0  0  0
   24.6776    7.4796   15.9480 C   0  0  0  0  0  0  0  0  0  0  0  0
   23.9923    8.5296   16.8377 C   0  0  0  0  0  0  0  0  0  0  0  0
   24.2930    7.5650   14.4564 C   0  0  2  0  0  0  0  0  0  0  0  0
   24.7487    8.7920   13.6892 C   0  0  0  0  0  0  0  0  0  0  0  0
   22.7718    7.2849   14.4576 C   0  0  0  0  0  0  0  0  0  0  0  0
   22.6434    6.2220   15.5918 C   0  0  0  0  0  0  0  0  0  0  0  0
   24.1006    6.0583   16.0702 C   0  0  2  0  0  0  0  0  0  0  0  0
   24.3576    5.2978   17.4081 C   0  0  0  0  0  0  0  0  0  0  0  0
   23.6359    5.6606   18.3784 O   0  0  0  0  0  0  0  0  0  0  0  0
   25.2657    4.4239   17.3938 O   0  0  0  0  0  0  0  0  0  0  0  0
   24.7702    5.3627   14.9803 O   0  0  0  0  0  0  0  0  0  0  0  0
   24.9022    6.2634   13.9754 C   0  0  0  0  0  0  0  0  0  0  0  0
   25.4181    5.9971   12.8869 O   0  0  0  0  0  0  0  0  0  0  0  0
   26.5886    8.5143   16.1057 H   0  0  0  0  0  0  0  0  0  0  0  0
   26.6989    6.8827   15.4318 H   0  0  0  0  0  0  0  0  0  0  0  0
   26.4386    7.0928   17.1682 H   0  0  0  0  0  0  0  0  0  0  0  0
   24.4526    9.5174   16.7076 H   0  0  0  0  0  0  0  0  0  0  0  0
   24.0582    8.2582   17.8987 H   0  0  0  0  0  0  0  0  0  0  0  0
   22.9318    8.6321   16.5920 H   0  0  0  0  0  0  0  0  0  0  0  0
   24.4246    8.7596   12.6374 H   0  0  0  0  0  0  0  0  0  0  0  0
   25.8450    8.8516   13.6964 H   0  0  0  0  0  0  0  0  0  0  0  0
   24.3501    9.7094   14.1417 H   0  0  0  0  0  0  0  0  0  0  0  0
   22.4220    6.8933   13.4928 H   0  0  0  0  0  0  0  0  0  0  0  0
   22.1936    8.1886   14.6896 H   0  0  0  0  0  0  0  0  0  0  0  0
   22.2426    5.2775   15.2045 H   0  0  0  0  0  0  0  0  0  0  0  0
   21.9987    6.5708   16.4037 H   0  0  0  0  0  0  0  0  0  0  0  0
  1  2  1  0  0  0  0
  1 15  1  0  0  0  0
  1 16  1  0  0  0  0
  1 17  1  0  0  0  0
  2  3  1  0  0  0  0
  2  4  1  0  0  0  0
  2  8  1  0  0  0  0
  3 18  1  0  0  0  0
  3 19  1  0  0  0  0
  3 20  1  0  0  0  0
  4  5  1  6  0  0  0
  4  6  1  0  0  0  0
  4 13  1  0  0  0  0
  5 21  1  0  0  0  0
  5 22  1  0  0  0  0
  5 23  1  0  0  0  0
  6  7  1  0  0  0  0
  6 24  1  0  0  0  0
  6 25  1  0  0  0  0
  7  8  1  0  0  0  0
  7 26  1  0  0  0  0
  7 27  1  0  0  0  0
  8  9  1  1  0  0  0
  8 12  1  0  0  0  0
  9 10  2  0  0  0  0
  9 11  1  0  0  0  0
 12 13  1  0  0  0  0
 13 14  2  0  0  0  0
M  END
$$$$
