1UA
 OpenBabel04111920023D

 35 37  0  0  0  0  0  0  0  0999 V2000
  -25.5716  -15.1270   11.2734 O   0  0  0  0  0  0  0  0  0  0  0  0
  -24.7924  -14.4916   11.9851 C   0  0  0  0  0  0  0  0  0  0  0  0
  -25.1484  -14.0448   13.3130 C   0  0  0  0  0  0  0  0  0  0  0  0
  -24.2521  -13.3662   14.0306 C   0  0  0  0  0  0  0  0  0  0  0  0
  -24.8376  -12.9876   15.3480 C   0  0  0  0  0  0  0  0  0  0  0  0
  -26.4428  -14.2302   13.9970 C   0  0  0  0  0  0  0  0  0  0  0  0
  -26.3413  -13.1579   15.0815 C   0  0  0  0  0  0  0  0  0  0  0  0
  -23.5215  -14.1651   11.6174 N   0  3  0  0  0  0  0  0  0  0  0  0
  -22.6799  -13.4598   12.4435 C   0  0  0  0  0  0  0  0  0  0  0  0
  -22.9908  -13.0426   13.6267 N   0  0  0  0  0  0  0  0  0  0  0  0
  -21.1303  -13.1883   11.7300 S   0  0  0  0  0  0  0  0  0  0  0  0
  -20.6768  -11.6315   12.5480 C   0  0  0  0  0  0  0  0  0  0  0  0
  -19.4154  -11.0763   11.9498 C   0  0  0  0  0  0  0  0  0  0  0  0
  -19.4812  -10.2727   10.8027 C   0  0  0  0  0  0  0  0  0  0  0  0
  -18.3205   -9.7707   10.2421 C   0  0  0  0  0  0  0  0  0  0  0  0
  -17.0866  -10.0757   10.8173 C   0  0  0  0  0  0  0  0  0  0  0  0
  -15.8384   -9.5328   10.2138 C   0  0  0  0  0  0  0  0  0  0  0  0
  -17.0134  -10.8774   11.9646 C   0  0  0  0  0  0  0  0  0  0  0  0
  -18.1744  -11.3795   12.5263 C   0  0  0  0  0  0  0  0  0  0  0  0
  -24.5945  -11.9626   15.6392 H   0  0  0  0  0  0  0  0  0  0  0  0
  -24.5054  -13.6891   16.1203 H   0  0  0  0  0  0  0  0  0  0  0  0
  -26.4993  -15.2314   14.4353 H   0  0  0  0  0  0  0  0  0  0  0  0
  -27.2959  -14.0623   13.3342 H   0  0  0  0  0  0  0  0  0  0  0  0
  -26.7658  -12.2142   14.7126 H   0  0  0  0  0  0  0  0  0  0  0  0
  -26.8933  -13.4393   15.9834 H   0  0  0  0  0  0  0  0  0  0  0  0
  -23.2059  -14.4691   10.7122 H   0  0  0  0  0  0  0  0  0  0  0  0
  -20.5197  -11.7721   13.6232 H   0  0  0  0  0  0  0  0  0  0  0  0
  -21.4681  -10.8841   12.4241 H   0  0  0  0  0  0  0  0  0  0  0  0
  -20.4410  -10.0393   10.3463 H   0  0  0  0  0  0  0  0  0  0  0  0
  -18.3729   -9.1466    9.3534 H   0  0  0  0  0  0  0  0  0  0  0  0
  -14.9618   -9.8581   10.7810 H   0  0  0  0  0  0  0  0  0  0  0  0
  -15.8771   -8.4402   10.2238 H   0  0  0  0  0  0  0  0  0  0  0  0
  -15.7497   -9.9020    9.1887 H   0  0  0  0  0  0  0  0  0  0  0  0
  -16.0517  -11.1123   12.4154 H   0  0  0  0  0  0  0  0  0  0  0  0
  -18.1124  -12.0048   13.4137 H   0  0  0  0  0  0  0  0  0  0  0  0
  1  2  2  0  0  0  0
  2  3  1  0  0  0  0
  2  8  1  0  0  0  0
  3  4  2  0  0  0  0
  3  6  1  0  0  0  0
  4  5  1  0  0  0  0
  4 10  1  0  0  0  0
  5  7  1  0  0  0  0
  5 20  1  0  0  0  0
  5 21  1  0  0  0  0
  6  7  1  0  0  0  0
  6 22  1  0  0  0  0
  6 23  1  0  0  0  0
  7 24  1  0  0  0  0
  7 25  1  0  0  0  0
  8  9  1  0  0  0  0
  8 26  1  0  0  0  0
  9 10  2  0  0  0  0
  9 11  1  0  0  0  0
 11 12  1  0  0  0  0
 12 13  1  0  0  0  0
 12 27  1  0  0  0  0
 12 28  1  0  0  0  0
 13 14  2  0  0  0  0
 13 19  1  0  0  0  0
 14 15  1  0  0  0  0
 14 29  1  0  0  0  0
 15 16  2  0  0  0  0
 15 30  1  0  0  0  0
 16 17  1  0  0  0  0
 16 18  1  0  0  0  0
 17 31  1  0  0  0  0
 17 32  1  0  0  0  0
 17 33  1  0  0  0  0
 18 19  2  0  0  0  0
 18 34  1  0  0  0  0
 19 35  1  0  0  0  0
M  CHG  1   8   1
M  END
$$$$
