1UD
 OpenBabel04111919593D

 53 56  0  0  1  0  0  0  0  0999 V2000
  102.1001   16.4524   22.1605 C   0  0  0  0  0  0  0  0  0  0  0  0
  103.0871   16.8374   21.2418 C   0  0  0  0  0  0  0  0  0  0  0  0
  102.6980   16.8717   19.8872 C   0  0  0  0  0  0  0  0  0  0  0  0
  101.4101   16.5284   19.5022 C   0  0  0  0  0  0  0  0  0  0  0  0
  100.4271   16.1228   20.3965 C   0  0  0  0  0  0  0  0  0  0  0  0
   99.0453   15.8128   19.9224 C   0  0  0  0  0  0  0  0  0  0  0  0
   98.8060   14.3770   19.4502 C   0  0  0  0  0  0  0  0  0  0  0  0
  100.7982   16.0894   21.7539 C   0  0  0  0  0  0  0  0  0  0  0  0
   99.8534   15.7027   22.7139 N   0  3  0  0  0  0  0  0  0  0  0  0
  100.1493   15.6946   24.0139 C   0  0  0  0  0  0  0  0  0  0  0  0
   99.2851   15.3466   24.9165 N   0  0  0  0  0  0  0  0  0  0  0  0
  101.3970   16.0599   24.4348 N   0  3  0  0  0  0  0  0  0  0  0  0
  102.4310   16.4368   23.6041 C   0  0  0  0  0  0  0  0  0  0  0  0
  103.5446   16.7483   24.0384 O   0  0  0  0  0  0  0  0  0  0  0  0
  103.4035   17.2049   18.7642 N   0  0  0  0  0  0  0  0  0  0  0  0
  101.3475   16.6865   18.1300 N   0  3  0  0  0  0  0  0  0  0  0  0
  102.5947   17.0951   17.7381 C   0  0  0  0  0  0  0  0  0  0  0  0
  102.9313   17.3367   16.4616 N   0  0  0  0  0  0  0  0  0  0  0  0
  101.9544   17.4760   15.4149 C   0  0  0  0  0  0  0  0  0  0  0  0
   95.9060   14.6843   17.3150 C   0  0  2  0  0  0  0  0  0  0  0  0
   95.9198   14.9783   15.9225 O   0  0  0  0  0  0  0  0  0  0  0  0
   95.4907   16.3119   15.6700 C   0  0  0  0  0  0  0  0  0  0  0  0
   97.1294   15.1094   17.8982 O   0  0  0  0  0  0  0  0  0  0  0  0
   97.3454   14.2530   19.0227 C   0  0  1  0  0  0  0  0  0  0  0  0
   96.8900   12.8618   18.5991 C   0  0  1  0  0  0  0  0  0  0  0  0
   96.3554   12.2309   19.7693 O   0  0  0  0  0  0  0  0  0  0  0  0
   96.4172   10.8160   19.7480 C   0  0  0  0  0  0  0  0  0  0  0  0
   95.8208   13.1690   17.5450 C   0  0  1  0  0  0  0  0  0  0  0  0
   94.5279   12.8301   18.0559 O   0  0  0  0  0  0  0  0  0  0  0  0
  104.0948   17.1004   21.5668 H   0  0  0  0  0  0  0  0  0  0  0  0
   98.8120   16.4895   19.0903 H   0  0  0  0  0  0  0  0  0  0  0  0
   98.3448   16.0238   20.7334 H   0  0  0  0  0  0  0  0  0  0  0  0
   99.0206   13.6793   20.2639 H   0  0  0  0  0  0  0  0  0  0  0  0
   99.4619   14.1574   18.5986 H   0  0  0  0  0  0  0  0  0  0  0  0
   98.9224   15.4091   22.4441 H   0  0  0  0  0  0  0  0  0  0  0  0
   99.6786   15.3922   25.8543 H   0  0  0  0  0  0  0  0  0  0  0  0
  101.5925   16.0561   25.4177 H   0  0  0  0  0  0  0  0  0  0  0  0
  100.5628   16.5185   17.5506 H   0  0  0  0  0  0  0  0  0  0  0  0
  103.9213   17.4686   16.2531 H   0  0  0  0  0  0  0  0  0  0  0  0
  102.4465   17.6968   14.4624 H   0  0  0  0  0  0  0  0  0  0  0  0
  101.2578   18.2915   15.6541 H   0  0  0  0  0  0  0  0  0  0  0  0
  101.3874   16.5418   15.3160 H   0  0  0  0  0  0  0  0  0  0  0  0
   95.0518   15.1840   17.8035 H   0  0  0  0  0  0  0  0  0  0  0  0
   95.5332   16.4998   14.5897 H   0  0  0  0  0  0  0  0  0  0  0  0
   96.1374   17.0267   16.1866 H   0  0  0  0  0  0  0  0  0  0  0  0
   94.4562   16.4322   16.0114 H   0  0  0  0  0  0  0  0  0  0  0  0
   96.7128   14.5896   19.8591 H   0  0  0  0  0  0  0  0  0  0  0  0
   97.7121   12.2725   18.1723 H   0  0  0  0  0  0  0  0  0  0  0  0
   95.9746   10.4333   20.6786 H   0  0  0  0  0  0  0  0  0  0  0  0
   97.4638   10.4988   19.6980 H   0  0  0  0  0  0  0  0  0  0  0  0
   95.8639   10.4159   18.8959 H   0  0  0  0  0  0  0  0  0  0  0  0
   96.0104   12.6167   16.6142 H   0  0  0  0  0  0  0  0  0  0  0  0
   93.8650   13.0397   17.3823 H   0  0  0  0  0  0  0  0  0  0  0  0
  1  2  2  0  0  0  0
  1  8  1  0  0  0  0
  1 13  1  0  0  0  0
  2  3  1  0  0  0  0
  2 30  1  0  0  0  0
  3  4  1  0  0  0  0
  3 15  2  0  0  0  0
  4  5  2  0  0  0  0
  4 16  1  0  0  0  0
  5  6  1  0  0  0  0
  5  8  1  0  0  0  0
  6  7  1  0  0  0  0
  6 31  1  0  0  0  0
  6 32  1  0  0  0  0
  7 24  1  0  0  0  0
  7 33  1  0  0  0  0
  7 34  1  0  0  0  0
  8  9  2  0  0  0  0
  9 10  1  0  0  0  0
  9 35  1  0  0  0  0
 10 11  2  0  0  0  0
 10 12  1  0  0  0  0
 11 36  1  0  0  0  0
 12 13  1  0  0  0  0
 12 37  1  0  0  0  0
 13 14  2  0  0  0  0
 15 17  1  0  0  0  0
 16 17  2  0  0  0  0
 16 38  1  0  0  0  0
 17 18  1  0  0  0  0
 18 19  1  0  0  0  0
 18 39  1  0  0  0  0
 19 40  1  0  0  0  0
 19 41  1  0  0  0  0
 19 42  1  0  0  0  0
 20 21  1  0  0  0  0
 20 23  1  0  0  0  0
 20 28  1  0  0  0  0
 20 43  1  1  0  0  0
 21 22  1  0  0  0  0
 22 44  1  0  0  0  0
 22 45  1  0  0  0  0
 22 46  1  0  0  0  0
 23 24  1  0  0  0  0
 24 25  1  0  0  0  0
 24 47  1  1  0  0  0
 25 26  1  0  0  0  0
 25 28  1  0  0  0  0
 25 48  1  6  0  0  0
 26 27  1  0  0  0  0
 27 49  1  0  0  0  0
 27 50  1  0  0  0  0
 27 51  1  0  0  0  0
 28 29  1  0  0  0  0
 28 52  1  6  0  0  0
 29 53  1  0  0  0  0
M  CHG  3   9   1  12   1  16   1
M  END
$$$$
