1V6
 OpenBabel04111920033D

 33 35  0  0  0  0  0  0  0  0999 V2000
   15.9009  -11.9720   14.8570 C   0  0  0  0  0  0  0  0  0  0  0  0
   15.9906  -10.7727   14.1548 C   0  0  0  0  0  0  0  0  0  0  0  0
   15.2846   -9.6541   14.5916 C   0  0  0  0  0  0  0  0  0  0  0  0
   14.5350   -9.7108   15.7697 C   0  0  0  0  0  0  0  0  0  0  0  0
   14.4913  -10.8929   16.5024 C   0  0  0  0  0  0  0  0  0  0  0  0
   15.1340  -12.0442   16.0257 C   0  0  0  0  0  0  0  0  0  0  0  0
   15.0568  -13.3230   16.8233 C   0  0  0  0  0  0  0  0  0  0  0  0
   13.7221  -14.0126   16.8977 C   0  0  0  0  0  0  0  0  0  0  0  0
   13.3190  -14.5203   18.1345 C   0  0  0  0  0  0  0  0  0  0  0  0
   12.1247  -15.2357   18.2598 C   0  0  0  0  0  0  0  0  0  0  0  0
   12.9039  -14.2335   15.7844 C   0  0  0  0  0  0  0  0  0  0  0  0
   11.6927  -14.9391   15.9125 C   0  0  0  0  0  0  0  0  0  0  0  0
   11.2881  -15.4534   17.1538 C   0  0  0  0  0  0  0  0  0  0  0  0
   10.0041  -16.1374   17.3343 C   0  0  0  0  0  0  0  0  0  0  0  0
    9.3541  -16.8586   16.3383 N   0  0  0  0  0  0  0  0  0  0  0  0
    8.2228  -17.3459   16.8003 C   0  0  0  0  0  0  0  0  0  0  0  0
    7.3633  -18.0987   16.0995 N   0  0  0  0  0  0  0  0  0  0  0  0
    7.8617  -16.9526   18.4350 S   0  0  0  0  0  0  0  0  0  0  0  0
    9.3248  -16.0828   18.5341 C   0  0  0  0  0  0  0  0  0  0  0  0
   16.4465  -12.8460   14.5014 H   0  0  0  0  0  0  0  0  0  0  0  0
   16.6233  -10.7110   13.2740 H   0  0  0  0  0  0  0  0  0  0  0  0
   15.3321   -8.7317   14.0259 H   0  0  0  0  0  0  0  0  0  0  0  0
   14.0004   -8.8356   16.1250 H   0  0  0  0  0  0  0  0  0  0  0  0
   13.9749  -10.9167   17.4591 H   0  0  0  0  0  0  0  0  0  0  0  0
   15.3747  -13.0434   17.8386 H   0  0  0  0  0  0  0  0  0  0  0  0
   15.8101  -14.0319   16.4585 H   0  0  0  0  0  0  0  0  0  0  0  0
   13.9228  -14.3601   19.0207 H   0  0  0  0  0  0  0  0  0  0  0  0
   11.8651  -15.6039   19.2478 H   0  0  0  0  0  0  0  0  0  0  0  0
   13.1876  -13.8424   14.8067 H   0  0  0  0  0  0  0  0  0  0  0  0
   11.0442  -15.0518   15.0425 H   0  0  0  0  0  0  0  0  0  0  0  0
    7.5421  -18.3078   15.1261 H   0  0  0  0  0  0  0  0  0  0  0  0
    6.4733  -18.3659   16.4750 H   0  0  0  0  0  0  0  0  0  0  0  0
    9.6083  -15.5785   19.4427 H   0  0  0  0  0  0  0  0  0  0  0  0
  1  2  2  0  0  0  0
  1  6  1  0  0  0  0
  1 20  1  0  0  0  0
  2  3  1  0  0  0  0
  2 21  1  0  0  0  0
  3  4  2  0  0  0  0
  3 22  1  0  0  0  0
  4  5  1  0  0  0  0
  4 23  1  0  0  0  0
  5  6  2  0  0  0  0
  5 24  1  0  0  0  0
  6  7  1  0  0  0  0
  7  8  1  0  0  0  0
  7 25  1  0  0  0  0
  7 26  1  0  0  0  0
  8  9  2  0  0  0  0
  8 11  1  0  0  0  0
  9 10  1  0  0  0  0
  9 27  1  0  0  0  0
 10 13  2  0  0  0  0
 10 28  1  0  0  0  0
 11 12  2  0  0  0  0
 11 29  1  0  0  0  0
 12 13  1  0  0  0  0
 12 30  1  0  0  0  0
 13 14  1  0  0  0  0
 14 15  1  0  0  0  0
 14 19  2  0  0  0  0
 15 16  2  0  0  0  0
 16 17  1  0  0  0  0
 16 18  1  0  0  0  0
 17 31  1  0  0  0  0
 17 32  1  0  0  0  0
 18 19  1  0  0  0  0
 19 33  1  0  0  0  0
M  END
$$$$
