1WE
 OpenBabel04111920043D

 24 24  0  0  1  0  0  0  0  0999 V2000
   -3.2505   -1.6490   15.7859 N   0  3  0  0  0  0  0  0  0  0  0  0
   -3.2659   -3.1272   15.6461 C   0  0  1  0  0  0  0  0  0  0  0  0
   -2.0370   -3.5405   14.8635 C   0  0  0  0  0  0  0  0  0  0  0  0
   -3.2550   -3.7624   17.0454 C   0  0  0  0  0  0  0  0  0  0  0  0
   -4.2293   -4.9024   17.1620 C   0  0  0  0  0  0  0  0  0  0  0  0
   -5.5405   -4.7784   16.6727 C   0  0  0  0  0  0  0  0  0  0  0  0
   -3.8344   -6.0675   17.8167 C   0  0  0  0  0  0  0  0  0  0  0  0
   -6.4317   -5.8296   16.8052 C   0  0  0  0  0  0  0  0  0  0  0  0
   -4.7432   -7.1146   17.9635 C   0  0  0  0  0  0  0  0  0  0  0  0
   -6.0320   -6.9901   17.4512 C   0  0  0  0  0  0  0  0  0  0  0  0
   -4.0855   -1.3036   16.2800 H   0  0  0  0  0  0  0  0  0  0  0  0
   -2.4243   -1.3302   16.3068 H   0  0  0  0  0  0  0  0  0  0  0  0
   -4.1583   -3.3523   15.0528 H   0  0  0  0  0  0  0  0  0  0  0  0
   -2.0159   -4.6272   14.7277 H   0  0  0  0  0  0  0  0  0  0  0  0
   -1.1276   -3.2425   15.3964 H   0  0  0  0  0  0  0  0  0  0  0  0
   -2.0270   -3.0696   13.8764 H   0  0  0  0  0  0  0  0  0  0  0  0
   -3.4998   -3.0389   17.8315 H   0  0  0  0  0  0  0  0  0  0  0  0
   -2.2438   -4.1297   17.2698 H   0  0  0  0  0  0  0  0  0  0  0  0
   -5.9024   -3.8783   16.1961 H   0  0  0  0  0  0  0  0  0  0  0  0
   -2.8335   -6.1862   18.2267 H   0  0  0  0  0  0  0  0  0  0  0  0
   -7.4445   -5.7472   16.4098 H   0  0  0  0  0  0  0  0  0  0  0  0
   -4.4386   -8.0204   18.4835 H   0  0  0  0  0  0  0  0  0  0  0  0
   -6.7401   -7.8225   17.5738 H   0  0  0  0  0  0  0  0  0  0  0  0
   -3.2354   -1.1965   14.8616 H   0  0  0  0  0  0  0  0  0  0  0  0
  1  2  1  0  0  0  0
  1 11  1  0  0  0  0
  1 12  1  0  0  0  0
  1 24  1  0  0  0  0
  2  3  1  0  0  0  0
  2  4  1  0  0  0  0
  2 13  1  6  0  0  0
  3 14  1  0  0  0  0
  3 15  1  0  0  0  0
  3 16  1  0  0  0  0
  4  5  1  0  0  0  0
  4 17  1  0  0  0  0
  4 18  1  0  0  0  0
  5  6  2  0  0  0  0
  5  7  1  0  0  0  0
  6  8  1  0  0  0  0
  6 19  1  0  0  0  0
  7  9  2  0  0  0  0
  7 20  1  0  0  0  0
  8 10  2  0  0  0  0
  8 21  1  0  0  0  0
  9 10  1  0  0  0  0
  9 22  1  0  0  0  0
 10 23  1  0  0  0  0
M  CHG  1   1   1
M  END
$$$$
