1WH
 OpenBabel04111920073D

 45 47  0  0  0  0  0  0  0  0999 V2000
   50.0030   49.6765   34.6278 C   0  0  0  0  0  0  0  0  0  0  0  0
   48.6408   50.2773   34.3666 C   0  0  0  0  0  0  0  0  0  0  0  0
   45.3449   52.3609   36.4548 N   0  3  0  0  0  0  0  0  0  0  0  0
   45.1182   51.4902   35.2931 C   0  0  0  0  0  0  0  0  0  0  0  0
   47.5050   50.4529   35.1878 C   0  0  0  0  0  0  0  0  0  0  0  0
   46.4283   51.1985   34.6086 C   0  0  0  0  0  0  0  0  0  0  0  0
   45.5670   52.7491   32.8475 C   0  0  0  0  0  0  0  0  0  0  0  0
   46.6167   51.7942   33.3407 C   0  0  0  0  0  0  0  0  0  0  0  0
   47.7246   51.6235   32.5740 N   0  0  0  0  0  0  0  0  0  0  0  0
   48.6943   50.8417   33.0894 C   0  0  0  0  0  0  0  0  0  0  0  0
   50.0337   50.5583   32.4175 C   0  0  0  0  0  0  0  0  0  0  0  0
   50.7283   49.8311   33.4543 N   0  0  0  0  0  0  0  0  0  0  0  0
   51.8973   48.9809   33.2538 C   0  0  0  0  0  0  0  0  0  0  0  0
   51.3697   47.6167   32.8141 C   0  0  0  0  0  0  0  0  0  0  0  0
   52.3918   46.6406   32.8640 O   0  0  0  0  0  0  0  0  0  0  0  0
   52.7666   46.0764   31.6154 C   0  0  0  0  0  0  0  0  0  0  0  0
   47.4729   50.0105   36.6156 C   0  0  0  0  0  0  0  0  0  0  0  0
   48.0334   50.8129   37.6714 C   0  0  0  0  0  0  0  0  0  0  0  0
   48.8086   52.3212   37.4074 Cl  0  0  0  0  0  0  0  0  0  0  0  0
   47.9573   50.5202   39.0257 C   0  0  0  0  0  0  0  0  0  0  0  0
   47.3177   49.3496   39.3482 C   0  0  0  0  0  0  0  0  0  0  0  0
   47.2449   49.0659   41.0332 Cl  0  0  0  0  0  0  0  0  0  0  0  0
   46.7657   48.4914   38.3603 C   0  0  0  0  0  0  0  0  0  0  0  0
   46.8358   48.8178   36.9863 C   0  0  0  0  0  0  0  0  0  0  0  0
   50.4341   49.1989   35.6112 O   0  0  0  0  0  0  0  0  0  0  0  0
   44.4802   52.5913   36.9541 H   0  0  0  0  0  0  0  0  0  0  0  0
   45.9652   51.8867   37.1090 H   0  0  0  0  0  0  0  0  0  0  0  0
   44.3970   52.0354   34.6744 H   0  0  0  0  0  0  0  0  0  0  0  0
   44.6029   50.5899   35.6292 H   0  0  0  0  0  0  0  0  0  0  0  0
   45.8162   53.1383   31.8623 H   0  0  0  0  0  0  0  0  0  0  0  0
   45.4821   53.5870   33.5574 H   0  0  0  0  0  0  0  0  0  0  0  0
   44.6008   52.2326   32.7817 H   0  0  0  0  0  0  0  0  0  0  0  0
   50.5986   51.4710   32.2116 H   0  0  0  0  0  0  0  0  0  0  0  0
   49.9240   49.9596   31.5104 H   0  0  0  0  0  0  0  0  0  0  0  0
   52.4698   48.8890   34.1932 H   0  0  0  0  0  0  0  0  0  0  0  0
   52.5595   49.4209   32.5047 H   0  0  0  0  0  0  0  0  0  0  0  0
   50.9238   47.7284   31.8161 H   0  0  0  0  0  0  0  0  0  0  0  0
   50.5651   47.3219   33.5073 H   0  0  0  0  0  0  0  0  0  0  0  0
   53.5590   45.3476   31.8138 H   0  0  0  0  0  0  0  0  0  0  0  0
   53.1567   46.8403   30.9339 H   0  0  0  0  0  0  0  0  0  0  0  0
   51.9233   45.5555   31.1485 H   0  0  0  0  0  0  0  0  0  0  0  0
   48.3942   51.1687   39.7913 H   0  0  0  0  0  0  0  0  0  0  0  0
   46.2895   47.5623   38.6680 H   0  0  0  0  0  0  0  0  0  0  0  0
   46.4207   48.1519   36.2291 H   0  0  0  0  0  0  0  0  0  0  0  0
   45.8098   53.2315   36.1696 H   0  0  0  0  0  0  0  0  0  0  0  0
  1  2  1  0  0  0  0
  1 12  1  0  0  0  0
  1 25  2  0  0  0  0
  2  5  2  0  0  0  0
  2 10  1  0  0  0  0
  3  4  1  0  0  0  0
  3 26  1  0  0  0  0
  3 27  1  0  0  0  0
  3 45  1  0  0  0  0
  4  6  1  0  0  0  0
  4 28  1  0  0  0  0
  4 29  1  0  0  0  0
  5  6  1  0  0  0  0
  5 17  1  0  0  0  0
  6  8  2  0  0  0  0
  7  8  1  0  0  0  0
  7 30  1  0  0  0  0
  7 31  1  0  0  0  0
  7 32  1  0  0  0  0
  8  9  1  0  0  0  0
  9 10  2  0  0  0  0
 10 11  1  0  0  0  0
 11 12  1  0  0  0  0
 11 33  1  0  0  0  0
 11 34  1  0  0  0  0
 12 13  1  0  0  0  0
 13 14  1  0  0  0  0
 13 35  1  0  0  0  0
 13 36  1  0  0  0  0
 14 15  1  0  0  0  0
 14 37  1  0  0  0  0
 14 38  1  0  0  0  0
 15 16  1  0  0  0  0
 16 39  1  0  0  0  0
 16 40  1  0  0  0  0
 16 41  1  0  0  0  0
 17 18  2  0  0  0  0
 17 24  1  0  0  0  0
 18 19  1  0  0  0  0
 18 20  1  0  0  0  0
 20 21  2  0  0  0  0
 20 42  1  0  0  0  0
 21 22  1  0  0  0  0
 21 23  1  0  0  0  0
 23 24  2  0  0  0  0
 23 43  1  0  0  0  0
 24 44  1  0  0  0  0
M  CHG  1   3   1
M  END
$$$$
