1WJ
 OpenBabel04111920053D

 53 56  0  0  1  0  0  0  0  0999 V2000
    9.6369   17.5554   91.6564 C   0  0  0  0  0  0  0  0  0  0  0  0
   10.6468   17.9282   90.7691 C   0  0  0  0  0  0  0  0  0  0  0  0
   10.3501   17.8333   89.4014 C   0  0  0  0  0  0  0  0  0  0  0  0
    9.1263   17.3213   88.9794 C   0  0  0  0  0  0  0  0  0  0  0  0
    8.1160   16.8562   89.8198 C   0  0  0  0  0  0  0  0  0  0  0  0
    6.8574   16.2224   89.2663 C   0  0  0  0  0  0  0  0  0  0  0  0
    5.8207   17.1951   88.7378 C   0  0  0  0  0  0  0  0  0  0  0  0
    8.3993   17.0276   91.1972 C   0  0  0  0  0  0  0  0  0  0  0  0
    9.8733   17.7347   93.1363 C   0  0  0  0  0  0  0  0  0  0  0  0
    7.4400   16.6767   92.1496 N   0  3  0  0  0  0  0  0  0  0  0  0
    7.6195   16.8763   93.4689 C   0  0  0  0  0  0  0  0  0  0  0  0
    6.6942   16.5777   94.3082 N   0  0  0  0  0  0  0  0  0  0  0  0
    8.7936   17.3967   93.9274 N   0  3  0  0  0  0  0  0  0  0  0  0
   10.9251   18.1472   93.5809 O   0  0  0  0  0  0  0  0  0  0  0  0
   11.1046   18.1880   88.3083 N   0  0  0  0  0  0  0  0  0  0  0  0
    9.1667   17.4007   87.6116 N   0  3  0  0  0  0  0  0  0  0  0  0
   10.3582   17.9663   87.2546 C   0  0  0  0  0  0  0  0  0  0  0  0
   10.6956   18.1682   85.9725 N   0  0  0  0  0  0  0  0  0  0  0  0
    9.7314   18.3044   84.9087 C   0  0  0  0  0  0  0  0  0  0  0  0
    2.8517   17.2340   86.8999 C   0  0  2  0  0  0  0  0  0  0  0  0
    3.4726   17.8163   85.7479 O   0  0  0  0  0  0  0  0  0  0  0  0
    3.4295   19.2397   85.7749 C   0  0  0  0  0  0  0  0  0  0  0  0
    3.5658   17.6023   88.0947 O   0  0  0  0  0  0  0  0  0  0  0  0
    4.4760   16.5300   88.4270 C   0  0  1  0  0  0  0  0  0  0  0  0
    4.4157   15.5488   87.2542 C   0  0  1  0  0  0  0  0  0  0  0  0
    4.7668   14.2191   87.6019 O   0  0  0  0  0  0  0  0  0  0  0  0
    2.9555   15.7060   86.8186 C   0  0  1  0  0  0  0  0  0  0  0  0
    2.0217   15.1522   87.7672 O   0  0  0  0  0  0  0  0  0  0  0  0
    1.6212   13.8216   87.4847 C   0  0  0  0  0  0  0  0  0  0  0  0
   11.6001   18.2991   91.1420 H   0  0  0  0  0  0  0  0  0  0  0  0
    6.3835   15.6045   90.0281 H   0  0  0  0  0  0  0  0  0  0  0  0
    7.1330   15.5659   88.4339 H   0  0  0  0  0  0  0  0  0  0  0  0
    6.1955   17.6895   87.8340 H   0  0  0  0  0  0  0  0  0  0  0  0
    5.6463   17.9744   89.4909 H   0  0  0  0  0  0  0  0  0  0  0  0
    6.5572   16.2818   91.8668 H   0  0  0  0  0  0  0  0  0  0  0  0
    6.9867   16.7834   95.2634 H   0  0  0  0  0  0  0  0  0  0  0  0
    8.9219   17.5439   94.9140 H   0  0  0  0  0  0  0  0  0  0  0  0
    8.4270   17.1138   86.9895 H   0  0  0  0  0  0  0  0  0  0  0  0
   11.6710   18.3819   85.7757 H   0  0  0  0  0  0  0  0  0  0  0  0
   10.2243   18.5513   83.9630 H   0  0  0  0  0  0  0  0  0  0  0  0
    9.0037   19.0950   85.1296 H   0  0  0  0  0  0  0  0  0  0  0  0
    9.1926   17.3618   84.7760 H   0  0  0  0  0  0  0  0  0  0  0  0
    1.8067   17.5543   86.9795 H   0  0  0  0  0  0  0  0  0  0  0  0
    3.9225   19.6144   84.8709 H   0  0  0  0  0  0  0  0  0  0  0  0
    3.9669   19.6314   86.6441 H   0  0  0  0  0  0  0  0  0  0  0  0
    2.3955   19.5965   85.7816 H   0  0  0  0  0  0  0  0  0  0  0  0
    4.1255   16.0224   89.3342 H   0  0  0  0  0  0  0  0  0  0  0  0
    5.0949   15.8755   86.4557 H   0  0  0  0  0  0  0  0  0  0  0  0
    4.6598   13.6796   86.7980 H   0  0  0  0  0  0  0  0  0  0  0  0
    2.7719   15.3102   85.8148 H   0  0  0  0  0  0  0  0  0  0  0  0
    0.9113   13.5001   88.2554 H   0  0  0  0  0  0  0  0  0  0  0  0
    2.4774   13.1462   87.4989 H   0  0  0  0  0  0  0  0  0  0  0  0
    1.1213   13.7738   86.5129 H   0  0  0  0  0  0  0  0  0  0  0  0
  1  2  2  0  0  0  0
  1  8  1  0  0  0  0
  1  9  1  0  0  0  0
  2  3  1  0  0  0  0
  2 30  1  0  0  0  0
  3  4  1  0  0  0  0
  3 15  2  0  0  0  0
  4  5  2  0  0  0  0
  4 16  1  0  0  0  0
  5  6  1  0  0  0  0
  5  8  1  0  0  0  0
  6  7  1  0  0  0  0
  6 31  1  0  0  0  0
  6 32  1  0  0  0  0
  7 24  1  0  0  0  0
  7 33  1  0  0  0  0
  7 34  1  0  0  0  0
  8 10  2  0  0  0  0
  9 13  1  0  0  0  0
  9 14  2  0  0  0  0
 10 11  1  0  0  0  0
 10 35  1  0  0  0  0
 11 12  2  0  0  0  0
 11 13  1  0  0  0  0
 12 36  1  0  0  0  0
 13 37  1  0  0  0  0
 15 17  1  0  0  0  0
 16 17  2  0  0  0  0
 16 38  1  0  0  0  0
 17 18  1  0  0  0  0
 18 19  1  0  0  0  0
 18 39  1  0  0  0  0
 19 40  1  0  0  0  0
 19 41  1  0  0  0  0
 19 42  1  0  0  0  0
 20 21  1  0  0  0  0
 20 23  1  0  0  0  0
 20 27  1  0  0  0  0
 20 43  1  1  0  0  0
 21 22  1  0  0  0  0
 22 44  1  0  0  0  0
 22 45  1  0  0  0  0
 22 46  1  0  0  0  0
 23 24  1  0  0  0  0
 24 25  1  0  0  0  0
 24 47  1  1  0  0  0
 25 26  1  0  0  0  0
 25 27  1  0  0  0  0
 25 48  1  6  0  0  0
 26 49  1  0  0  0  0
 27 28  1  0  0  0  0
 27 50  1  6  0  0  0
 28 29  1  0  0  0  0
 29 51  1  0  0  0  0
 29 52  1  0  0  0  0
 29 53  1  0  0  0  0
M  CHG  3  10   1  13   1  16   1
M  END
$$$$
