1WN
 OpenBabel04111920053D

 58 60  0  0  1  0  0  0  0  0999 V2000
   22.0943   -7.7978   -7.3184 O   0  0  0  0  0  0  0  0  0  0  0  0
   23.2884   -8.4965   -7.5684 N   0  0  0  0  0  0  0  0  0  0  0  0
   23.2556   -9.7725   -8.0554 C   0  0  0  0  0  0  0  0  0  0  0  0
   22.2436  -10.4707   -8.0402 O   0  0  0  0  0  0  0  0  0  0  0  0
   24.5664  -10.3455   -8.6439 C   0  0  1  0  0  0  0  0  0  0  0  0
   24.8721  -11.5624   -7.8774 N   0  0  0  0  0  0  0  0  0  0  0  0
   25.6483  -11.5344   -6.7488 C   0  0  0  0  0  0  0  0  0  0  0  0
   26.2016  -10.5235   -6.3406 O   0  0  0  0  0  0  0  0  0  0  0  0
   25.9725  -12.8076   -6.0705 C   0  0  0  0  0  0  0  0  0  0  0  0
   25.1967  -13.9407   -6.2870 C   0  0  0  0  0  0  0  0  0  0  0  0
   25.4960  -15.1296   -5.6426 C   0  0  0  0  0  0  0  0  0  0  0  0
   26.4991  -15.1556   -4.6847 C   0  0  0  0  0  0  0  0  0  0  0  0
   26.7332  -16.3438   -3.9975 C   0  0  0  0  0  0  0  0  0  0  0  0
   26.8725  -17.4378   -3.4762 C   0  0  0  0  0  0  0  0  0  0  0  0
   27.0700  -18.7567   -2.8834 C   0  0  0  0  0  0  0  0  0  0  0  0
   27.2411  -19.8582   -2.4291 C   0  0  0  0  0  0  0  0  0  0  0  0
   27.4603  -21.1687   -2.0043 C   0  0  0  0  0  0  0  0  0  0  0  0
   27.2217  -22.1573   -2.9616 C   0  0  0  0  0  0  0  0  0  0  0  0
   27.6016  -23.4615   -2.7293 C   0  0  0  0  0  0  0  0  0  0  0  0
   28.0576  -23.7880   -1.4540 C   0  0  0  0  0  0  0  0  0  0  0  0
   28.3183  -25.1147   -1.1568 N   0  0  0  0  0  0  0  0  0  0  0  0
   28.2214  -22.7903   -0.4659 C   0  0  0  0  0  0  0  0  0  0  0  0
   28.0159  -21.4508   -0.7650 C   0  0  0  0  0  0  0  0  0  0  0  0
   27.3338  -14.0498   -4.5110 C   0  0  0  0  0  0  0  0  0  0  0  0
   27.0432  -12.8521   -5.1649 C   0  0  0  0  0  0  0  0  0  0  0  0
   24.4244  -10.6995  -10.1322 C   0  0  2  0  0  0  0  0  0  0  0  0
   23.9894   -9.5828  -10.8884 O   0  0  0  0  0  0  0  0  0  0  0  0
   23.3517  -11.7232  -10.3361 C   0  0  0  0  0  0  0  0  0  0  0  0
   25.7237  -11.0914  -10.7988 C   0  0  0  0  0  0  0  0  0  0  0  0
   25.9560  -12.3993  -11.2934 C   0  0  0  0  0  0  0  0  0  0  0  0
   27.0775  -12.7039  -12.0699 C   0  0  0  0  0  0  0  0  0  0  0  0
   28.0291  -11.7052  -12.2518 C   0  0  0  0  0  0  0  0  0  0  0  0
   29.1529  -12.0274  -12.9683 O   0  0  0  0  0  0  0  0  0  0  0  0
   27.8660  -10.4281  -11.6818 C   0  0  0  0  0  0  0  0  0  0  0  0
   26.6727  -10.0884  -11.0403 C   0  0  0  0  0  0  0  0  0  0  0  0
   22.3872   -6.9307   -6.9648 H   0  0  0  0  0  0  0  0  0  0  0  0
   24.1367   -8.0148   -7.3100 H   0  0  0  0  0  0  0  0  0  0  0  0
   25.3577   -9.6109   -8.5459 H   0  0  0  0  0  0  0  0  0  0  0  0
   24.5087  -12.4361   -8.2371 H   0  0  0  0  0  0  0  0  0  0  0  0
   24.3353  -13.8745   -6.9316 H   0  0  0  0  0  0  0  0  0  0  0  0
   24.9761  -16.0490   -5.9017 H   0  0  0  0  0  0  0  0  0  0  0  0
   26.7641  -21.8761   -3.9008 H   0  0  0  0  0  0  0  0  0  0  0  0
   27.5251  -24.2154   -3.5147 H   0  0  0  0  0  0  0  0  0  0  0  0
   28.6544  -25.3778   -0.2400 H   0  0  0  0  0  0  0  0  0  0  0  0
   28.1676  -25.8254   -1.8640 H   0  0  0  0  0  0  0  0  0  0  0  0
   28.5103  -23.0732    0.5409 H   0  0  0  0  0  0  0  0  0  0  0  0
   28.2921  -20.6644   -0.0660 H   0  0  0  0  0  0  0  0  0  0  0  0
   28.2265  -14.1327   -3.8994 H   0  0  0  0  0  0  0  0  0  0  0  0
   27.6191  -11.9502   -4.9556 H   0  0  0  0  0  0  0  0  0  0  0  0
   23.1105   -9.3607  -10.5428 H   0  0  0  0  0  0  0  0  0  0  0  0
   23.2698  -11.9447  -11.3988 H   0  0  0  0  0  0  0  0  0  0  0  0
   22.4047  -11.3191   -9.9897 H   0  0  0  0  0  0  0  0  0  0  0  0
   23.6048  -12.6175   -9.7830 H   0  0  0  0  0  0  0  0  0  0  0  0
   25.2355  -13.1919  -11.0967 H   0  0  0  0  0  0  0  0  0  0  0  0
   27.2050  -13.7038  -12.4968 H   0  0  0  0  0  0  0  0  0  0  0  0
   29.7250  -11.2425  -13.0323 H   0  0  0  0  0  0  0  0  0  0  0  0
   28.6710   -9.6953  -11.7165 H   0  0  0  0  0  0  0  0  0  0  0  0
   26.4622   -9.0484  -10.7526 H   0  0  0  0  0  0  0  0  0  0  0  0
  1  2  1  0  0  0  0
  1 36  1  0  0  0  0
  2  3  1  0  0  0  0
  2 37  1  0  0  0  0
  3  4  2  0  0  0  0
  3  5  1  0  0  0  0
  5  6  1  0  0  0  0
  5 26  1  0  0  0  0
  5 38  1  1  0  0  0
  6  7  1  0  0  0  0
  6 39  1  0  0  0  0
  7  8  2  0  0  0  0
  7  9  1  0  0  0  0
  9 10  2  0  0  0  0
  9 25  1  0  0  0  0
 10 11  1  0  0  0  0
 10 40  1  0  0  0  0
 11 12  2  0  0  0  0
 11 41  1  0  0  0  0
 12 13  1  0  0  0  0
 12 24  1  0  0  0  0
 13 14  3  0  0  0  0
 14 15  1  0  0  0  0
 15 16  3  0  0  0  0
 16 17  1  0  0  0  0
 17 18  2  0  0  0  0
 17 23  1  0  0  0  0
 18 19  1  0  0  0  0
 18 42  1  0  0  0  0
 19 20  2  0  0  0  0
 19 43  1  0  0  0  0
 20 21  1  0  0  0  0
 20 22  1  0  0  0  0
 21 44  1  0  0  0  0
 21 45  1  0  0  0  0
 22 23  2  0  0  0  0
 22 46  1  0  0  0  0
 23 47  1  0  0  0  0
 24 25  2  0  0  0  0
 24 48  1  0  0  0  0
 25 49  1  0  0  0  0
 26 27  1  6  0  0  0
 26 28  1  0  0  0  0
 26 29  1  0  0  0  0
 27 50  1  0  0  0  0
 28 51  1  0  0  0  0
 28 52  1  0  0  0  0
 28 53  1  0  0  0  0
 29 30  2  0  0  0  0
 29 35  1  0  0  0  0
 30 31  1  0  0  0  0
 30 54  1  0  0  0  0
 31 32  2  0  0  0  0
 31 55  1  0  0  0  0
 32 33  1  0  0  0  0
 32 34  1  0  0  0  0
 33 56  1  0  0  0  0
 34 35  2  0  0  0  0
 34 57  1  0  0  0  0
 35 58  1  0  0  0  0
M  END
$$$$
