1XJ
 OpenBabel04111920133D

122128  0  0  1  0  0  0  0  0999 V2000
   10.0008    5.7632   -4.5298 C   0  0  0  0  0  0  0  0  0  0  0  0
    8.0197    4.4454   -4.1286 C   0  0  0  0  0  0  0  0  0  0  0  0
    8.0524   -1.3968  -11.3380 C   0  0  0  0  0  0  0  0  0  0  0  0
    5.7934   -0.9527  -10.6374 C   0  0  0  0  0  0  0  0  0  0  0  0
    8.4510   -0.2710  -10.6788 C   0  0  0  0  0  0  0  0  0  0  0  0
    7.2034   -7.5949  -11.6009 C   0  0  0  0  0  0  0  0  0  0  0  0
    6.4511   -6.6119  -12.2254 C   0  0  0  0  0  0  0  0  0  0  0  0
    8.7000    3.7098   -3.1731 C   0  0  0  0  0  0  0  0  0  0  0  0
    8.6662    5.4761   -4.8084 C   0  0  0  0  0  0  0  0  0  0  0  0
    6.9164   -8.0112  -10.2856 C   0  0  0  0  0  0  0  0  0  0  0  0
    9.5559   -6.7929   -8.4599 C   0  0  0  0  0  0  0  0  0  0  0  0
    5.3823   -6.0231  -11.5418 C   0  0  0  0  0  0  0  0  0  0  0  0
   10.0329    3.9970   -2.9089 C   0  0  0  0  0  0  0  0  0  0  0  0
    8.2230    6.2508   -7.1079 C   0  0  0  0  0  0  0  0  0  0  0  0
    6.8596    7.1145   -5.1831 C   0  0  0  0  0  0  0  0  0  0  0  0
    8.0930   -4.4154   -8.2706 C   0  0  0  0  0  0  0  0  0  0  0  0
    8.8714   -4.6723   -9.3863 C   0  0  0  0  0  0  0  0  0  0  0  0
    8.0414   -5.3446   -7.2429 C   0  0  0  0  0  0  0  0  0  0  0  0
    6.2071    0.1687   -9.9911 C   0  0  0  0  0  0  0  0  0  0  0  0
    9.6080   -5.8490   -9.4755 C   0  0  0  0  0  0  0  0  0  0  0  0
    8.7817   -6.5235   -7.3362 C   0  0  0  0  0  0  0  0  0  0  0  0
   10.6915    5.0149   -3.5887 C   0  0  0  0  0  0  0  0  0  0  0  0
    5.0678   -6.4324  -10.2569 C   0  0  0  0  0  0  0  0  0  0  0  0
    6.7134   -1.7495  -11.3171 C   0  0  0  0  0  0  0  0  0  0  0  0
    7.5489    0.5590  -10.0021 C   0  0  0  0  0  0  0  0  0  0  0  0
    5.8337   -7.4037   -9.6451 C   0  0  0  0  0  0  0  0  0  0  0  0
    7.9405    6.2681   -5.7792 C   0  0  0  0  0  0  0  0  0  0  0  0
    6.3172   -3.0111  -11.9428 C   0  0  0  0  0  0  0  0  0  0  0  0
    7.4818    7.1266   -8.0707 C   0  0  0  0  0  0  0  0  0  0  0  0
    5.9477    7.6920   -6.2473 C   0  0  0  0  0  0  0  0  0  0  0  0
    6.9396    2.6187   -8.9608 C   0  0  0  0  0  0  0  0  0  0  0  0
    9.0924    2.3623  -10.0742 C   0  0  0  0  0  0  0  0  0  0  0  0
    7.5042    3.6442   -8.0148 C   0  0  0  0  0  0  0  0  0  0  0  0
    9.7135    3.4535   -9.2186 C   0  0  0  0  0  0  0  0  0  0  0  0
   10.4960  -12.9678   -8.6096 C   0  0  0  0  0  0  0  0  0  0  0  0
   10.1125  -14.3818  -10.6237 C   0  0  0  0  0  0  0  0  0  0  0  0
   10.6060  -14.2460   -7.8213 C   0  0  0  0  0  0  0  0  0  0  0  0
   10.3412  -15.5691   -9.7047 C   0  0  0  0  0  0  0  0  0  0  0  0
    6.7801    8.2861   -7.3760 C   0  0  0  0  0  0  0  0  0  0  0  0
    5.8943    9.0129   -8.3676 C   0  0  0  0  0  0  0  0  0  0  0  0
    7.7838    9.2833   -6.8132 C   0  0  0  0  0  0  0  0  0  0  0  0
    9.2506    5.3787   -7.7294 C   0  0  0  0  0  0  0  0  0  0  0  0
    8.8584  -10.9541   -9.6263 C   0  0  0  0  0  0  0  0  0  0  0  0
    9.2040  -12.0512  -10.5819 C   0  0  0  0  0  0  0  0  0  0  0  0
    9.9741   -8.8179  -10.2913 C   0  0  0  0  0  0  0  0  0  0  0  0
    8.6877   -9.6508  -10.3257 C   0  0  2  0  0  0  0  0  0  0  0  0
    4.3273   -9.3317   -8.5070 C   0  0  0  0  0  0  0  0  0  0  0  0
    8.0023    1.6915   -9.3575 N   0  0  0  0  0  0  0  0  0  0  0  0
    7.5896   -9.0131   -9.6700 N   0  0  0  0  0  0  0  0  0  0  0  0
    5.0036   -3.3900  -11.6752 N   0  0  0  0  0  0  0  0  0  0  0  0
    8.6549    4.3893   -8.6742 N   0  3  2  0  0  0  0  0  0  0  0  0
    9.5617  -13.2470   -9.7848 N   0  3  0  0  0  0  0  0  0  0  0  0
    7.0981   -3.6794  -12.5910 O   0  0  0  0  0  0  0  0  0  0  0  0
    6.5345   -8.4872   -7.3325 O   0  0  0  0  0  0  0  0  0  0  0  0
    4.5720   -6.9115   -7.4672 O   0  0  0  0  0  0  0  0  0  0  0  0
    3.0413   -4.9202  -11.6399 O   0  0  0  0  0  0  0  0  0  0  0  0
    4.5053   -4.7826  -13.6817 O   0  0  0  0  0  0  0  0  0  0  0  0
   11.2376  -15.2160   -8.6467 O   0  0  0  0  0  0  0  0  0  0  0  0
    3.7887   -9.9075   -7.4093 F   0  0  0  0  0  0  0  0  0  0  0  0
    3.2978   -8.9664   -9.3198 F   0  0  0  0  0  0  0  0  0  0  0  0
    5.0102  -10.3119   -9.1555 F   0  0  0  0  0  0  0  0  0  0  0  0
   10.4759   -8.3136   -8.5919 S   0  0  0  0  0  0  0  0  0  0  0  0
    5.3432   -7.9500   -8.0288 S   0  0  0  0  0  0  0  0  0  0  0  0
    4.3458   -4.7896  -12.2655 S   0  0  0  0  0  0  0  0  0  0  0  0
   10.8735    3.0690   -1.7323 Cl  0  0  0  0  0  0  0  0  0  0  0  0
   10.5014    6.5835   -5.0454 H   0  0  0  0  0  0  0  0  0  0  0  0
    6.9696    4.2307   -4.3297 H   0  0  0  0  0  0  0  0  0  0  0  0
    8.7970   -2.0185  -11.8570 H   0  0  0  0  0  0  0  0  0  0  0  0
    4.7364   -1.1848  -10.5967 H   0  0  0  0  0  0  0  0  0  0  0  0
    9.5133   -0.0409  -10.7041 H   0  0  0  0  0  0  0  0  0  0  0  0
    8.0442   -8.0164  -12.1535 H   0  0  0  0  0  0  0  0  0  0  0  0
    6.7119   -6.2875  -13.2282 H   0  0  0  0  0  0  0  0  0  0  0  0
    8.1917    2.9144   -2.6347 H   0  0  0  0  0  0  0  0  0  0  0  0
    7.3213    7.9278   -4.6056 H   0  0  0  0  0  0  0  0  0  0  0  0
    6.2556    6.5234   -4.4837 H   0  0  0  0  0  0  0  0  0  0  0  0
    7.5363   -3.4876   -8.1985 H   0  0  0  0  0  0  0  0  0  0  0  0
    8.9173   -3.9593  -10.1992 H   0  0  0  0  0  0  0  0  0  0  0  0
    7.4287   -5.1549   -6.3653 H   0  0  0  0  0  0  0  0  0  0  0  0
    5.4431    0.7519   -9.4832 H   0  0  0  0  0  0  0  0  0  0  0  0
   10.2188   -6.0207  -10.3574 H   0  0  0  0  0  0  0  0  0  0  0  0
    8.7156   -7.2527   -6.5329 H   0  0  0  0  0  0  0  0  0  0  0  0
   11.7377    5.2301   -3.3816 H   0  0  0  0  0  0  0  0  0  0  0  0
    4.2109   -5.9991   -9.7376 H   0  0  0  0  0  0  0  0  0  0  0  0
    6.7325    6.5145   -8.5906 H   0  0  0  0  0  0  0  0  0  0  0  0
    8.1828    7.5181   -8.8191 H   0  0  0  0  0  0  0  0  0  0  0  0
    5.3134    8.4737   -5.8095 H   0  0  0  0  0  0  0  0  0  0  0  0
    5.3051    6.9005   -6.6482 H   0  0  0  0  0  0  0  0  0  0  0  0
    6.5230    3.0921   -9.8559 H   0  0  0  0  0  0  0  0  0  0  0  0
    6.1519    2.0986   -8.4132 H   0  0  0  0  0  0  0  0  0  0  0  0
    9.9095    1.6828  -10.3106 H   0  0  0  0  0  0  0  0  0  0  0  0
    8.7001    2.7799  -11.0103 H   0  0  0  0  0  0  0  0  0  0  0  0
    7.8978    3.1640   -7.1059 H   0  0  0  0  0  0  0  0  0  0  0  0
    6.7206    4.3600   -7.7650 H   0  0  0  0  0  0  0  0  0  0  0  0
   10.4057    4.0439   -9.8252 H   0  0  0  0  0  0  0  0  0  0  0  0
   10.2346    3.0071   -8.3591 H   0  0  0  0  0  0  0  0  0  0  0  0
   11.4555  -12.6265   -9.0235 H   0  0  0  0  0  0  0  0  0  0  0  0
   10.0503  -12.2188   -7.9564 H   0  0  0  0  0  0  0  0  0  0  0  0
    9.3752  -14.6156  -11.3940 H   0  0  0  0  0  0  0  0  0  0  0  0
   11.0572  -14.0328  -11.0645 H   0  0  0  0  0  0  0  0  0  0  0  0
    9.6078  -14.5996   -7.5358 H   0  0  0  0  0  0  0  0  0  0  0  0
   11.1932  -14.0660   -6.9217 H   0  0  0  0  0  0  0  0  0  0  0  0
   10.7682  -16.3932  -10.2783 H   0  0  0  0  0  0  0  0  0  0  0  0
    9.3912  -15.8932   -9.2625 H   0  0  0  0  0  0  0  0  0  0  0  0
    6.5021    9.4349   -9.1732 H   0  0  0  0  0  0  0  0  0  0  0  0
    5.3639    9.8243   -7.8638 H   0  0  0  0  0  0  0  0  0  0  0  0
    5.1627    8.3235   -8.7976 H   0  0  0  0  0  0  0  0  0  0  0  0
    8.4657    8.8093   -6.1002 H   0  0  0  0  0  0  0  0  0  0  0  0
    7.2567   10.0845   -6.2923 H   0  0  0  0  0  0  0  0  0  0  0  0
    8.3997    9.7012   -7.6115 H   0  0  0  0  0  0  0  0  0  0  0  0
    9.7922    4.7980   -6.9784 H   0  0  0  0  0  0  0  0  0  0  0  0
    9.9646    5.9841   -8.2920 H   0  0  0  0  0  0  0  0  0  0  0  0
    9.6638  -10.7969   -8.9181 H   0  0  0  0  0  0  0  0  0  0  0  0
    7.9617  -11.2353   -9.0614 H   0  0  0  0  0  0  0  0  0  0  0  0
   10.0637  -11.7924  -11.2163 H   0  0  0  0  0  0  0  0  0  0  0  0
    8.3399  -12.3097  -11.1998 H   0  0  0  0  0  0  0  0  0  0  0  0
    9.8506   -7.9363  -10.9192 H   0  0  0  0  0  0  0  0  0  0  0  0
   10.7874   -9.4063  -10.7269 H   0  0  0  0  0  0  0  0  0  0  0  0
    8.4044   -9.8456  -11.3662 H   0  0  0  0  0  0  0  0  0  0  0  0
    7.4456   -9.1884   -8.6564 H   0  0  0  0  0  0  0  0  0  0  0  0
    4.3897   -2.8373  -11.1043 H   0  0  0  0  0  0  0  0  0  0  0  0
    8.2594    4.8981   -9.4801 H   0  0  0  0  0  0  0  0  0  0  0  0
    8.6888  -13.6037   -9.3593 H   0  0  0  0  0  0  0  0  0  0  0  0
  1  9  2  0  0  0  0
  1 22  1  0  0  0  0
  1 66  1  0  0  0  0
  2  8  2  0  0  0  0
  2  9  1  0  0  0  0
  2 67  1  0  0  0  0
  3  5  2  0  0  0  0
  3 24  1  0  0  0  0
  3 68  1  0  0  0  0
  4 19  1  0  0  0  0
  4 24  2  0  0  0  0
  4 69  1  0  0  0  0
  5 25  1  0  0  0  0
  5 70  1  0  0  0  0
  6  7  2  0  0  0  0
  6 10  1  0  0  0  0
  6 71  1  0  0  0  0
  7 12  1  0  0  0  0
  7 72  1  0  0  0  0
  8 13  1  0  0  0  0
  8 73  1  0  0  0  0
  9 27  1  0  0  0  0
 10 26  2  0  0  0  0
 10 49  1  0  0  0  0
 11 20  2  0  0  0  0
 11 21  1  0  0  0  0
 11 62  1  0  0  0  0
 12 23  2  0  0  0  0
 12 64  1  0  0  0  0
 13 22  2  0  0  0  0
 13 65  1  0  0  0  0
 14 27  2  0  0  0  0
 14 29  1  0  0  0  0
 14 42  1  0  0  0  0
 15 27  1  0  0  0  0
 15 30  1  0  0  0  0
 15 74  1  0  0  0  0
 15 75  1  0  0  0  0
 16 17  2  0  0  0  0
 16 18  1  0  0  0  0
 16 76  1  0  0  0  0
 17 20  1  0  0  0  0
 17 77  1  0  0  0  0
 18 21  2  0  0  0  0
 18 78  1  0  0  0  0
 19 25  2  0  0  0  0
 19 79  1  0  0  0  0
 20 80  1  0  0  0  0
 21 81  1  0  0  0  0
 22 82  1  0  0  0  0
 23 26  1  0  0  0  0
 23 83  1  0  0  0  0
 24 28  1  0  0  0  0
 25 48  1  0  0  0  0
 26 63  1  0  0  0  0
 28 50  1  0  0  0  0
 28 53  2  0  0  0  0
 29 39  1  0  0  0  0
 29 84  1  0  0  0  0
 29 85  1  0  0  0  0
 30 39  1  0  0  0  0
 30 86  1  0  0  0  0
 30 87  1  0  0  0  0
 31 33  1  0  0  0  0
 31 48  1  0  0  0  0
 31 88  1  0  0  0  0
 31 89  1  0  0  0  0
 32 34  1  0  0  0  0
 32 48  1  0  0  0  0
 32 90  1  0  0  0  0
 32 91  1  0  0  0  0
 33 51  1  0  0  0  0
 33 92  1  0  0  0  0
 33 93  1  0  0  0  0
 34 51  1  0  0  0  0
 34 94  1  0  0  0  0
 34 95  1  0  0  0  0
 35 37  1  0  0  0  0
 35 52  1  0  0  0  0
 35 96  1  0  0  0  0
 35 97  1  0  0  0  0
 36 38  1  0  0  0  0
 36 52  1  0  0  0  0
 36 98  1  0  0  0  0
 36 99  1  0  0  0  0
 37 58  1  0  0  0  0
 37100  1  0  0  0  0
 37101  1  0  0  0  0
 38 58  1  0  0  0  0
 38102  1  0  0  0  0
 38103  1  0  0  0  0
 39 40  1  0  0  0  0
 39 41  1  0  0  0  0
 40104  1  0  0  0  0
 40105  1  0  0  0  0
 40106  1  0  0  0  0
 41107  1  0  0  0  0
 41108  1  0  0  0  0
 41109  1  0  0  0  0
 42 51  1  0  0  0  0
 42110  1  0  0  0  0
 42111  1  0  0  0  0
 43 44  1  0  0  0  0
 43 46  1  0  0  0  0
 43112  1  0  0  0  0
 43113  1  0  0  0  0
 44 52  1  0  0  0  0
 44114  1  0  0  0  0
 44115  1  0  0  0  0
 45 46  1  0  0  0  0
 45 62  1  0  0  0  0
 45116  1  0  0  0  0
 45117  1  0  0  0  0
 46 49  1  0  0  0  0
 46118  1  6  0  0  0
 47 59  1  0  0  0  0
 47 60  1  0  0  0  0
 47 61  1  0  0  0  0
 47 63  1  0  0  0  0
 49119  1  0  0  0  0
 50 64  1  0  0  0  0
 50120  1  0  0  0  0
 51121  1  6  0  0  0
 52122  1  0  0  0  0
 54 63  2  0  0  0  0
 55 63  2  0  0  0  0
 56 64  2  0  0  0  0
 57 64  2  0  0  0  0
M  CHG  2  51   1  52   1
M  END
$$$$
