1XN
 OpenBabel04111920083D

 20 21  0  0  1  0  0  0  0  0999 V2000
    3.4865   13.9504   40.7570 N   0  0  0  0  0  0  0  0  0  0  0  0
    3.6932   13.7320   42.0349 C   0  0  1  0  0  0  0  0  0  0  0  0
    3.2690   14.6125   43.0008 N   0  3  0  0  0  0  0  0  0  0  0  0
    3.6253   14.1147   44.2309 C   0  0  1  0  0  0  0  0  0  0  0  0
    3.3428   14.7457   45.3526 N   0  0  0  0  0  0  0  0  0  0  0  0
    4.2777   12.9134   44.0309 C   0  0  1  0  0  0  0  0  0  0  0  0
    4.8160   12.0487   44.9790 C   0  0  0  0  0  0  0  0  0  0  0  0
    5.4226   10.8917   44.4290 C   0  0  0  0  0  0  0  0  0  0  0  0
    5.4621   10.6514   43.0385 C   0  0  0  0  0  0  0  0  0  0  0  0
    4.9042   11.5513   42.0972 C   0  0  0  0  0  0  0  0  0  0  0  0
    4.3204   12.6747   42.6685 C   0  0  1  0  0  0  0  0  0  0  0  0
    3.8246   13.2616   40.0911 H   0  0  0  0  0  0  0  0  0  0  0  0
    3.0029   14.7804   40.4321 H   0  0  0  0  0  0  0  0  0  0  0  0
    2.7721   15.4861   42.8274 H   0  0  0  0  0  0  0  0  0  0  0  0
    3.6371   14.3201   46.2277 H   0  0  0  0  0  0  0  0  0  0  0  0
    2.8449   15.6284   45.3605 H   0  0  0  0  0  0  0  0  0  0  0  0
    4.7900   12.2131   46.0324 H   0  0  0  0  0  0  0  0  0  0  0  0
    5.8748   10.1614   45.0961 H   0  0  0  0  0  0  0  0  0  0  0  0
    5.9371    9.7435   42.6781 H   0  0  0  0  0  0  0  0  0  0  0  0
    4.9464   11.3548   41.0507 H   0  0  0  0  0  0  0  0  0  0  0  0
  1 12  1  0  0  0  0
  1 13  1  0  0  0  0
  2  1  1  1  0  0  0
  2  3  1  0  0  0  0
  2 11  1  0  0  0  0
  3  4  1  0  0  0  0
  3 14  1  0  0  0  0
  4  5  1  1  0  0  0
  4  6  1  0  0  0  0
  5 15  1  0  0  0  0
  5 16  1  0  0  0  0
  6  7  1  1  0  0  0
  6 11  1  0  0  0  0
  7  8  1  0  0  0  0
  7 17  1  0  0  0  0
  8  9  1  0  0  0  0
  8 18  1  0  0  0  0
  9 10  1  0  0  0  0
  9 19  1  0  0  0  0
 10 20  1  0  0  0  0
 11 10  1  1  0  0  0
M  CHG  1   3   1
M  END
$$$$
