1XT
 OpenBabel04111920123D

 57 61  0  0  0  0  0  0  0  0999 V2000
  -17.6422   13.7071  -18.4111 C   0  0  0  0  0  0  0  0  0  0  0  0
  -18.6913   13.4656  -17.7288 O   0  0  0  0  0  0  0  0  0  0  0  0
  -16.8831   14.7149  -18.2855 O   0  0  0  0  0  0  0  0  0  0  0  0
  -17.2876   12.7130  -19.4594 C   0  0  0  0  0  0  0  0  0  0  0  0
  -18.0348   11.5964  -19.7949 C   0  0  0  0  0  0  0  0  0  0  0  0
  -17.3367   10.9292  -20.8265 C   0  0  0  0  0  0  0  0  0  0  0  0
  -16.1955   11.6650  -21.0701 C   0  0  0  0  0  0  0  0  0  0  0  0
  -16.1608   12.7516  -20.2489 O   0  0  0  0  0  0  0  0  0  0  0  0
  -15.0901   11.5008  -21.9967 C   0  0  0  0  0  0  0  0  0  0  0  0
  -13.9192   12.2537  -21.8845 C   0  0  0  0  0  0  0  0  0  0  0  0
  -12.8472   12.0465  -22.7724 C   0  0  0  0  0  0  0  0  0  0  0  0
  -12.9465   11.0985  -23.8009 C   0  0  0  0  0  0  0  0  0  0  0  0
  -14.1223   10.3528  -23.9148 C   0  0  0  0  0  0  0  0  0  0  0  0
  -15.1768   10.5566  -23.0263 C   0  0  0  0  0  0  0  0  0  0  0  0
  -11.7909   10.8173  -24.7312 C   0  0  0  0  0  0  0  0  0  0  0  0
  -11.2683   12.0358  -25.2646 O   0  0  0  0  0  0  0  0  0  0  0  0
   -9.9476   12.2404  -24.9772 C   0  0  0  0  0  0  0  0  0  0  0  0
   -8.9601   11.2825  -25.1856 C   0  0  0  0  0  0  0  0  0  0  0  0
   -7.6297   11.5797  -24.8739 C   0  0  0  0  0  0  0  0  0  0  0  0
   -7.2674   12.8293  -24.3556 C   0  0  0  0  0  0  0  0  0  0  0  0
   -8.2756   13.7897  -24.1803 C   0  0  0  0  0  0  0  0  0  0  0  0
   -9.6044   13.5002  -24.4984 C   0  0  0  0  0  0  0  0  0  0  0  0
   -5.8738   13.1622  -24.0286 C   0  0  0  0  0  0  0  0  0  0  0  0
   -5.1478   14.3021  -24.3419 C   0  0  0  0  0  0  0  0  0  0  0  0
   -3.8967   14.1669  -23.6841 C   0  0  0  0  0  0  0  0  0  0  0  0
   -3.8474   13.0246  -22.9766 N   0  0  0  0  0  0  0  0  0  0  0  0
   -5.0146   12.4077  -23.2445 N   0  3  0  0  0  0  0  0  0  0  0  0
   -5.2344   11.1327  -22.6905 C   0  0  0  0  0  0  0  0  0  0  0  0
   -4.9477    9.9963  -23.4555 C   0  0  0  0  0  0  0  0  0  0  0  0
   -5.1482    8.7256  -22.9062 C   0  0  0  0  0  0  0  0  0  0  0  0
   -5.6042    8.6211  -21.5833 C   0  0  0  0  0  0  0  0  0  0  0  0
   -5.8590    9.7657  -20.8204 C   0  0  0  0  0  0  0  0  0  0  0  0
   -5.6708   11.0308  -21.3702 C   0  0  0  0  0  0  0  0  0  0  0  0
   -4.8735    7.4942  -23.7106 C   0  0  0  0  0  0  0  0  0  0  0  0
   -2.8030   15.2019  -23.7663 C   0  0  0  0  0  0  0  0  0  0  0  0
   -2.1089   15.4097  -22.7201 O   0  0  0  0  0  0  0  0  0  0  0  0
   -2.6695   15.8011  -24.8822 O   0  0  0  0  0  0  0  0  0  0  0  0
  -18.9746   11.3140  -19.3388 H   0  0  0  0  0  0  0  0  0  0  0  0
  -17.6309   10.0250  -21.3361 H   0  0  0  0  0  0  0  0  0  0  0  0
  -13.8026   12.9893  -21.0909 H   0  0  0  0  0  0  0  0  0  0  0  0
  -11.9490   12.6419  -22.6441 H   0  0  0  0  0  0  0  0  0  0  0  0
  -14.2293    9.5918  -24.6983 H   0  0  0  0  0  0  0  0  0  0  0  0
  -16.0770    9.9645  -23.1448 H   0  0  0  0  0  0  0  0  0  0  0  0
  -12.1315   10.2190  -25.5852 H   0  0  0  0  0  0  0  0  0  0  0  0
  -11.0638   10.2205  -24.1748 H   0  0  0  0  0  0  0  0  0  0  0  0
   -9.1998   10.3062  -25.5945 H   0  0  0  0  0  0  0  0  0  0  0  0
   -6.8825   10.8168  -25.0600 H   0  0  0  0  0  0  0  0  0  0  0  0
   -8.0321   14.7717  -23.7782 H   0  0  0  0  0  0  0  0  0  0  0  0
  -10.3739   14.2535  -24.3547 H   0  0  0  0  0  0  0  0  0  0  0  0
   -5.4810   15.1572  -24.9136 H   0  0  0  0  0  0  0  0  0  0  0  0
   -4.5690   10.1095  -24.4686 H   0  0  0  0  0  0  0  0  0  0  0  0
   -5.7505    7.6422  -21.1340 H   0  0  0  0  0  0  0  0  0  0  0  0
   -6.1973    9.6713  -19.7919 H   0  0  0  0  0  0  0  0  0  0  0  0
   -5.8492   11.9254  -20.7788 H   0  0  0  0  0  0  0  0  0  0  0  0
   -4.5359    7.7443  -24.7220 H   0  0  0  0  0  0  0  0  0  0  0  0
   -5.7856    6.8959  -23.8018 H   0  0  0  0  0  0  0  0  0  0  0  0
   -4.0925    6.8955  -23.2325 H   0  0  0  0  0  0  0  0  0  0  0  0
  1  2  2  0  0  0  0
  1  3  1  0  0  0  0
  1  4  1  0  0  0  0
  4  5  2  0  0  0  0
  4  8  1  0  0  0  0
  5  6  1  0  0  0  0
  5 38  1  0  0  0  0
  6  7  2  0  0  0  0
  6 39  1  0  0  0  0
  7  8  1  0  0  0  0
  7  9  1  0  0  0  0
  9 10  2  0  0  0  0
  9 14  1  0  0  0  0
 10 11  1  0  0  0  0
 10 40  1  0  0  0  0
 11 12  2  0  0  0  0
 11 41  1  0  0  0  0
 12 13  1  0  0  0  0
 12 15  1  0  0  0  0
 13 14  2  0  0  0  0
 13 42  1  0  0  0  0
 14 43  1  0  0  0  0
 15 16  1  0  0  0  0
 15 44  1  0  0  0  0
 15 45  1  0  0  0  0
 16 17  1  0  0  0  0
 17 18  2  0  0  0  0
 17 22  1  0  0  0  0
 18 19  1  0  0  0  0
 18 46  1  0  0  0  0
 19 20  2  0  0  0  0
 19 47  1  0  0  0  0
 20 21  1  0  0  0  0
 20 23  1  0  0  0  0
 21 22  2  0  0  0  0
 21 48  1  0  0  0  0
 22 49  1  0  0  0  0
 23 24  1  0  0  0  0
 23 27  2  0  0  0  0
 24 25  2  0  0  0  0
 24 50  1  0  0  0  0
 25 26  1  0  0  0  0
 25 35  1  0  0  0  0
 26 27  1  0  0  0  0
 27 28  1  0  0  0  0
 28 29  2  0  0  0  0
 28 33  1  0  0  0  0
 29 30  1  0  0  0  0
 29 51  1  0  0  0  0
 30 31  2  0  0  0  0
 30 34  1  0  0  0  0
 31 32  1  0  0  0  0
 31 52  1  0  0  0  0
 32 33  2  0  0  0  0
 32 53  1  0  0  0  0
 33 54  1  0  0  0  0
 34 55  1  0  0  0  0
 34 56  1  0  0  0  0
 34 57  1  0  0  0  0
 35 36  2  0  0  0  0
 35 37  1  0  0  0  0
M  CHG  1  27   1
M  END
$$$$
