1XV
 OpenBabel04111920133D

 87 92  0  0  0  0  0  0  0  0999 V2000
   29.4970   28.2468    5.4083 C   0  0  0  0  0  0  0  0  0  0  0  0
   27.0993   27.8915    5.3547 C   0  0  0  0  0  0  0  0  0  0  0  0
   22.9185   31.4091   12.5461 C   0  0  0  0  0  0  0  0  0  0  0  0
   24.5002   33.1704   12.9462 C   0  0  0  0  0  0  0  0  0  0  0  0
   28.0131   30.4697    2.4487 Cl  0  0  0  0  0  0  0  0  0  0  0  0
   23.8847   30.7027   11.8384 C   0  0  0  0  0  0  0  0  0  0  0  0
   25.4530   32.4502   12.2352 C   0  0  0  0  0  0  0  0  0  0  0  0
   20.1309   37.4857   12.7069 C   0  0  0  0  0  0  0  0  0  0  0  0
   20.1613   36.3797   13.5550 C   0  0  0  0  0  0  0  0  0  0  0  0
   29.3904   29.1301    4.3371 C   0  0  0  0  0  0  0  0  0  0  0  0
   26.9940   28.7804    4.2863 C   0  0  0  0  0  0  0  0  0  0  0  0
   18.8735   35.1250   11.9448 C   0  0  0  0  0  0  0  0  0  0  0  0
   28.3504   27.6304    5.9243 C   0  0  0  0  0  0  0  0  0  0  0  0
   23.2167   32.6476   13.1040 C   0  0  0  0  0  0  0  0  0  0  0  0
   25.1803   31.1930   11.6719 C   0  0  0  0  0  0  0  0  0  0  0  0
   19.4723   37.4569   11.4574 C   0  0  0  0  0  0  0  0  0  0  0  0
   18.8439   36.2427   11.0955 C   0  0  0  0  0  0  0  0  0  0  0  0
   19.5440   35.2000   13.1635 C   0  0  0  0  0  0  0  0  0  0  0  0
   28.1400   29.3909    3.7787 C   0  0  0  0  0  0  0  0  0  0  0  0
   28.4794   26.6501    7.0058 C   0  0  0  0  0  0  0  0  0  0  0  0
   28.8672   26.9520    8.2650 C   0  0  0  0  0  0  0  0  0  0  0  0
   22.1959   33.4742   13.7916 C   0  0  0  0  0  0  0  0  0  0  0  0
   28.1708   25.2367    6.5787 C   0  0  0  0  0  0  0  0  0  0  0  0
   29.0390   25.8464    9.2757 C   0  0  0  0  0  0  0  0  0  0  0  0
   19.3240   40.6632   11.8541 C   0  0  0  0  0  0  0  0  0  0  0  0
   20.3689   40.5724    9.5812 C   0  0  0  0  0  0  0  0  0  0  0  0
   25.9305   29.0442   10.7233 C   0  0  0  0  0  0  0  0  0  0  0  0
   27.5412   30.9106   11.0870 C   0  0  0  0  0  0  0  0  0  0  0  0
   26.7605   28.5594    9.5299 C   0  0  0  0  0  0  0  0  0  0  0  0
   28.4278   30.3736    9.9619 C   0  0  0  0  0  0  0  0  0  0  0  0
   28.5527   24.2184    7.6430 C   0  0  0  0  0  0  0  0  0  0  0  0
   20.0236   41.9947   12.0437 C   0  0  0  0  0  0  0  0  0  0  0  0
   20.8814   41.9818    9.8376 C   0  0  0  0  0  0  0  0  0  0  0  0
   20.1553   39.8187   10.8930 C   0  0  0  0  0  0  0  0  0  0  0  0
   29.1764   28.3346    8.7533 C   0  0  0  0  0  0  0  0  0  0  0  0
   26.1367   30.4925   10.9235 N   0  0  0  0  0  0  0  0  0  0  0  0
   28.2286   28.8771    9.7817 N   0  3  0  0  0  0  0  0  0  0  0  0
   19.5053   38.5513   10.6123 N   0  0  0  0  0  0  0  0  0  0  0  0
   20.8953   32.9785   13.7402 N   0  0  0  0  0  0  0  0  0  0  0  0
   18.1354   36.0864    9.8156 N   0  0  0  0  0  0  0  0  0  0  0  0
   17.6598   34.9641    9.5520 O   0  0  0  0  0  0  0  0  0  0  0  0
   22.4930   34.5370   14.3119 O   0  0  0  0  0  0  0  0  0  0  0  0
   18.0504   37.0605    9.0466 O   0  0  0  0  0  0  0  0  0  0  0  0
   18.4442   32.9434   13.8343 O   0  0  0  0  0  0  0  0  0  0  0  0
   19.7258   34.2122   15.5999 O   0  0  0  0  0  0  0  0  0  0  0  0
   28.2322   24.7193    8.9432 O   0  0  0  0  0  0  0  0  0  0  0  0
   20.0812   42.6762   10.7929 O   0  0  0  0  0  0  0  0  0  0  0  0
   19.5506   33.7893   14.2299 S   0  0  0  0  0  0  0  0  0  0  0  0
   30.4806   28.0213    5.8159 H   0  0  0  0  0  0  0  0  0  0  0  0
   26.2042   27.3890    5.7170 H   0  0  0  0  0  0  0  0  0  0  0  0
   21.9484   30.9395   12.6143 H   0  0  0  0  0  0  0  0  0  0  0  0
   24.7643   34.1431   13.3525 H   0  0  0  0  0  0  0  0  0  0  0  0
   23.5461   29.7590   11.4244 H   0  0  0  0  0  0  0  0  0  0  0  0
   26.4155   32.9387   12.1426 H   0  0  0  0  0  0  0  0  0  0  0  0
   20.6317   38.3845   13.0578 H   0  0  0  0  0  0  0  0  0  0  0  0
   20.6761   36.4483   14.5125 H   0  0  0  0  0  0  0  0  0  0  0  0
   30.2841   29.5966    3.9302 H   0  0  0  0  0  0  0  0  0  0  0  0
   26.0210   28.9809    3.8442 H   0  0  0  0  0  0  0  0  0  0  0  0
   18.3736   34.2020   11.6647 H   0  0  0  0  0  0  0  0  0  0  0  0
   28.7021   24.9974    5.6496 H   0  0  0  0  0  0  0  0  0  0  0  0
   27.0954   25.1591    6.3752 H   0  0  0  0  0  0  0  0  0  0  0  0
   28.7167   26.1780   10.2676 H   0  0  0  0  0  0  0  0  0  0  0  0
   30.0920   25.5558    9.3455 H   0  0  0  0  0  0  0  0  0  0  0  0
   18.3236   40.8228   11.4316 H   0  0  0  0  0  0  0  0  0  0  0  0
   19.1949   40.1681   12.8208 H   0  0  0  0  0  0  0  0  0  0  0  0
   21.0747   40.0277    8.9430 H   0  0  0  0  0  0  0  0  0  0  0  0
   19.4180   40.6283    9.0361 H   0  0  0  0  0  0  0  0  0  0  0  0
   26.2155   28.5026   11.6359 H   0  0  0  0  0  0  0  0  0  0  0  0
   24.8990   28.7769   10.4855 H   0  0  0  0  0  0  0  0  0  0  0  0
   27.6588   31.9947   11.0298 H   0  0  0  0  0  0  0  0  0  0  0  0
   27.9106   30.5689   12.0618 H   0  0  0  0  0  0  0  0  0  0  0  0
   26.4537   29.0544    8.6013 H   0  0  0  0  0  0  0  0  0  0  0  0
   26.6470   27.4763    9.4407 H   0  0  0  0  0  0  0  0  0  0  0  0
   29.4807   30.5412   10.2098 H   0  0  0  0  0  0  0  0  0  0  0  0
   28.1889   30.8664    9.0110 H   0  0  0  0  0  0  0  0  0  0  0  0
   29.6208   23.9783    7.5910 H   0  0  0  0  0  0  0  0  0  0  0  0
   27.9919   23.2934    7.4791 H   0  0  0  0  0  0  0  0  0  0  0  0
   21.0395   41.8604   12.4368 H   0  0  0  0  0  0  0  0  0  0  0  0
   19.4704   42.6146   12.7547 H   0  0  0  0  0  0  0  0  0  0  0  0
   20.8581   42.5532    8.9046 H   0  0  0  0  0  0  0  0  0  0  0  0
   21.9182   41.9619   10.1905 H   0  0  0  0  0  0  0  0  0  0  0  0
   21.1453   39.6245   11.3236 H   0  0  0  0  0  0  0  0  0  0  0  0
   29.1952   29.0664    7.9427 H   0  0  0  0  0  0  0  0  0  0  0  0
   30.1647   28.3440    9.2258 H   0  0  0  0  0  0  0  0  0  0  0  0
   18.9043   38.5151    9.7819 H   0  0  0  0  0  0  0  0  0  0  0  0
   20.6545   32.0687   13.3588 H   0  0  0  0  0  0  0  0  0  0  0  0
   28.4590   28.4468   10.6825 H   0  0  0  0  0  0  0  0  0  0  0  0
  1 10  2  0  0  0  0
  1 13  1  0  0  0  0
  1 49  1  0  0  0  0
  2 11  1  0  0  0  0
  2 13  2  0  0  0  0
  2 50  1  0  0  0  0
  3  6  2  0  0  0  0
  3 14  1  0  0  0  0
  3 51  1  0  0  0  0
  4  7  1  0  0  0  0
  4 14  2  0  0  0  0
  4 52  1  0  0  0  0
  5 19  1  0  0  0  0
  6 15  1  0  0  0  0
  6 53  1  0  0  0  0
  7 15  2  0  0  0  0
  7 54  1  0  0  0  0
  8  9  2  0  0  0  0
  8 16  1  0  0  0  0
  8 55  1  0  0  0  0
  9 18  1  0  0  0  0
  9 56  1  0  0  0  0
 10 19  1  0  0  0  0
 10 57  1  0  0  0  0
 11 19  2  0  0  0  0
 11 58  1  0  0  0  0
 12 17  1  0  0  0  0
 12 18  2  0  0  0  0
 12 59  1  0  0  0  0
 13 20  1  0  0  0  0
 14 22  1  0  0  0  0
 15 36  1  0  0  0  0
 16 17  2  0  0  0  0
 16 38  1  0  0  0  0
 17 40  1  0  0  0  0
 18 48  1  0  0  0  0
 20 21  2  0  0  0  0
 20 23  1  0  0  0  0
 21 24  1  0  0  0  0
 21 35  1  0  0  0  0
 22 39  1  0  0  0  0
 22 42  2  0  0  0  0
 23 31  1  0  0  0  0
 23 60  1  0  0  0  0
 23 61  1  0  0  0  0
 24 46  1  0  0  0  0
 24 62  1  0  0  0  0
 24 63  1  0  0  0  0
 25 32  1  0  0  0  0
 25 34  1  0  0  0  0
 25 64  1  0  0  0  0
 25 65  1  0  0  0  0
 26 33  1  0  0  0  0
 26 34  1  0  0  0  0
 26 66  1  0  0  0  0
 26 67  1  0  0  0  0
 27 29  1  0  0  0  0
 27 36  1  0  0  0  0
 27 68  1  0  0  0  0
 27 69  1  0  0  0  0
 28 30  1  0  0  0  0
 28 36  1  0  0  0  0
 28 70  1  0  0  0  0
 28 71  1  0  0  0  0
 29 37  1  0  0  0  0
 29 72  1  0  0  0  0
 29 73  1  0  0  0  0
 30 37  1  0  0  0  0
 30 74  1  0  0  0  0
 30 75  1  0  0  0  0
 31 46  1  0  0  0  0
 31 76  1  0  0  0  0
 31 77  1  0  0  0  0
 32 47  1  0  0  0  0
 32 78  1  0  0  0  0
 32 79  1  0  0  0  0
 33 47  1  0  0  0  0
 33 80  1  0  0  0  0
 33 81  1  0  0  0  0
 34 38  1  0  0  0  0
 34 82  1  0  0  0  0
 35 37  1  0  0  0  0
 35 83  1  0  0  0  0
 35 84  1  0  0  0  0
 37 87  1  0  0  0  0
 38 85  1  0  0  0  0
 39 48  1  0  0  0  0
 39 86  1  0  0  0  0
 40 41  2  0  0  0  0
 40 43  2  0  0  0  0
 44 48  2  0  0  0  0
 45 48  2  0  0  0  0
M  CHG  1  37   1
M  END
$$$$
