1YC
 OpenBabel04111920113D

 67 73  0  0  1  0  0  0  0  0999 V2000
   49.3458   32.7139   16.0069 O   0  0  0  0  0  0  0  0  0  0  0  0
   48.5059   33.6018   15.7444 C   0  0  0  0  0  0  0  0  0  0  0  0
   48.9231   34.8232   15.2554 N   0  3  0  0  0  0  0  0  0  0  0  0
   48.1023   35.8850   14.9593 C   0  0  0  0  0  0  0  0  0  0  0  0
   48.6817   36.9457   14.5151 N   0  0  0  0  0  0  0  0  0  0  0  0
   46.7534   35.7517   15.1683 N   0  3  0  0  0  0  0  0  0  0  0  0
   46.2860   34.5852   15.6612 C   0  0  0  0  0  0  0  0  0  0  0  0
   47.0895   33.5068   15.9648 C   0  0  0  0  0  0  0  0  0  0  0  0
   46.3490   32.4865   16.4910 N   0  0  0  0  0  0  0  0  0  0  0  0
   45.1099   32.9274   16.4420 C   0  0  0  0  0  0  0  0  0  0  0  0
   45.0171   34.2154   15.9629 N   0  3  0  0  0  0  0  0  0  0  0  0
   43.7965   34.9612   15.7219 C   0  0  2  0  0  0  0  0  0  0  0  0
   43.0455   35.0675   16.9648 O   0  0  0  0  0  0  0  0  0  0  0  0
   41.6546   34.7629   16.6781 C   0  0  2  0  0  0  0  0  0  0  0  0
   41.2112   33.4274   17.3026 C   0  0  0  0  0  0  0  0  0  0  0  0
   42.0230   32.3874   16.8101 O   0  0  0  0  0  0  0  0  0  0  0  0
   41.7358   30.8396   17.1897 P   0  0  2  0  0  0  0  0  0  0  0  0
   40.7769   30.4382   15.9452 O   0  0  0  0  0  0  0  0  0  0  0  0
   40.8879   30.7874   18.4322 O   0  0  0  0  0  0  0  0  0  0  0  0
   43.0107   30.0754   17.0259 O   0  0  0  0  0  0  0  0  0  0  0  0
   41.5340   34.7378   15.1648 C   0  0  1  0  0  0  0  0  0  0  0  0
   41.2150   36.0596   14.6932 O   0  0  0  0  0  0  0  0  0  0  0  0
   42.9037   34.2991   14.6907 C   0  0  1  0  0  0  0  0  0  0  0  0
   43.0720   34.7458   13.3607 O   0  0  0  0  0  0  0  0  0  0  0  0
   43.4399   33.6748   12.1946 P   0  0  2  0  0  0  0  0  0  0  0  0
   44.8439   33.2137   12.4309 O   0  0  0  0  0  0  0  0  0  0  0  0
   42.9876   34.2924   10.8980 O   0  0  0  0  0  0  0  0  0  0  0  0
   42.4250   32.4750   12.5838 O   0  0  0  0  0  0  0  0  0  0  0  0
   41.1909   32.3534   11.9103 C   0  0  0  0  0  0  0  0  0  0  0  0
   40.4149   31.1405   12.4449 C   0  0  1  0  0  0  0  0  0  0  0  0
   41.1815   29.9165   12.3741 O   0  0  0  0  0  0  0  0  0  0  0  0
   40.0850   31.3523   13.9063 C   0  0  1  0  0  0  0  0  0  0  0  0
   38.8438   30.7103   14.2386 O   0  0  0  0  0  0  0  0  0  0  0  0
   41.2410   30.7082   14.6364 C   0  0  2  0  0  0  0  0  0  0  0  0
   41.5176   29.5177   13.7367 C   0  0  2  0  0  0  0  0  0  0  0  0
   42.8959   29.0803   13.7369 N   0  3  0  0  0  0  0  0  0  0  0  0
   43.9903   29.7837   13.3087 C   0  0  0  0  0  0  0  0  0  0  0  0
   45.1012   29.0906   13.3977 N   0  0  0  0  0  0  0  0  0  0  0  0
   44.6963   27.8980   13.9427 C   0  0  0  0  0  0  0  0  0  0  0  0
   43.3289   27.8418   14.1289 C   0  0  0  0  0  0  0  0  0  0  0  0
   42.6166   26.7893   14.5637 N   0  0  0  0  0  0  0  0  0  0  0  0
   43.4348   25.7609   14.8613 C   0  0  0  0  0  0  0  0  0  0  0  0
   44.7777   25.6642   14.7279 N   0  0  0  0  0  0  0  0  0  0  0  0
   45.4295   26.7527   14.2576 C   0  0  0  0  0  0  0  0  0  0  0  0
   46.7902   26.7089   14.0232 N   0  0  0  0  0  0  0  0  0  0  0  0
   49.9096   34.9329   15.1059 H   0  0  0  0  0  0  0  0  0  0  0  0
   47.9606   37.6422   14.3182 H   0  0  0  0  0  0  0  0  0  0  0  0
   46.1413   36.5107   14.8962 H   0  0  0  0  0  0  0  0  0  0  0  0
   44.2526   32.3378   16.7260 H   0  0  0  0  0  0  0  0  0  0  0  0
   44.0732   35.9785   15.4193 H   0  0  0  0  0  0  0  0  0  0  0  0
   41.0476   35.5724   17.0998 H   0  0  0  0  0  0  0  0  0  0  0  0
   40.1717   33.2231   17.0248 H   0  0  0  0  0  0  0  0  0  0  0  0
   41.2956   33.4806   18.3918 H   0  0  0  0  0  0  0  0  0  0  0  0
   40.7378   34.0929   14.8106 H   0  0  0  0  0  0  0  0  0  0  0  0
   41.2765   36.0007   13.7174 H   0  0  0  0  0  0  0  0  0  0  0  0
   43.0152   33.2183   14.7619 H   0  0  0  0  0  0  0  0  0  0  0  0
   41.3550   32.2506   10.8352 H   0  0  0  0  0  0  0  0  0  0  0  0
   40.6130   33.2631   12.1072 H   0  0  0  0  0  0  0  0  0  0  0  0
   39.5072   30.9901   11.8514 H   0  0  0  0  0  0  0  0  0  0  0  0
   39.9470   32.3966   14.1653 H   0  0  0  0  0  0  0  0  0  0  0  0
   38.8242   30.7277   15.2196 H   0  0  0  0  0  0  0  0  0  0  0  0
   42.1110   31.3637   14.6554 H   0  0  0  0  0  0  0  0  0  0  0  0
   40.8755   28.6691   13.9999 H   0  0  0  0  0  0  0  0  0  0  0  0
   43.9410   30.7946   12.9301 H   0  0  0  0  0  0  0  0  0  0  0  0
   42.9384   24.8738   15.2506 H   0  0  0  0  0  0  0  0  0  0  0  0
   47.3165   25.9374   14.3764 H   0  0  0  0  0  0  0  0  0  0  0  0
   47.2006   27.6086   13.7817 H   0  0  0  0  0  0  0  0  0  0  0  0
  1  2  2  0  0  0  0
  2  3  1  0  0  0  0
  2  8  1  0  0  0  0
  3  4  1  0  0  0  0
  3 46  1  0  0  0  0
  4  5  2  0  0  0  0
  4  6  1  0  0  0  0
  5 47  1  0  0  0  0
  6  7  2  0  0  0  0
  6 48  1  0  0  0  0
  7  8  1  0  0  0  0
  7 11  1  0  0  0  0
  8  9  2  0  0  0  0
  9 10  1  0  0  0  0
 10 11  2  0  0  0  0
 10 49  1  0  0  0  0
 11 12  1  0  0  0  0
 12 13  1  0  0  0  0
 12 23  1  0  0  0  0
 12 50  1  6  0  0  0
 13 14  1  0  0  0  0
 14 15  1  0  0  0  0
 14 21  1  0  0  0  0
 14 51  1  1  0  0  0
 15 16  1  0  0  0  0
 15 52  1  0  0  0  0
 15 53  1  0  0  0  0
 16 17  1  0  0  0  0
 17 18  1  0  0  0  0
 17 19  2  1  0  0  0
 17 20  1  0  0  0  0
 18 34  1  0  0  0  0
 21 22  1  0  0  0  0
 21 23  1  0  0  0  0
 21 54  1  6  0  0  0
 22 55  1  0  0  0  0
 23 24  1  0  0  0  0
 23 56  1  1  0  0  0
 24 25  1  0  0  0  0
 25 26  2  6  0  0  0
 25 27  1  0  0  0  0
 25 28  1  0  0  0  0
 28 29  1  0  0  0  0
 29 30  1  0  0  0  0
 29 57  1  0  0  0  0
 29 58  1  0  0  0  0
 30 31  1  0  0  0  0
 30 32  1  0  0  0  0
 30 59  1  6  0  0  0
 31 35  1  0  0  0  0
 32 33  1  0  0  0  0
 32 34  1  0  0  0  0
 32 60  1  1  0  0  0
 33 61  1  0  0  0  0
 34 35  1  0  0  0  0
 34 62  1  1  0  0  0
 35 36  1  0  0  0  0
 35 63  1  1  0  0  0
 36 37  2  0  0  0  0
 36 40  1  0  0  0  0
 37 38  1  0  0  0  0
 37 64  1  0  0  0  0
 38 39  1  0  0  0  0
 39 40  2  0  0  0  0
 39 44  1  0  0  0  0
 40 41  1  0  0  0  0
 41 42  2  0  0  0  0
 42 43  1  0  0  0  0
 42 65  1  0  0  0  0
 43 44  2  0  0  0  0
 44 45  1  0  0  0  0
 45 66  1  0  0  0  0
 45 67  1  0  0  0  0
M  CHG  4   3   1   6   1  11   1  36   1
M  END
$$$$
