20Y
 OpenBabel04111920133D

 42 44  0  0  0  0  0  0  0  0999 V2000
   20.2860  -19.4784    0.6885 C   0  0  0  0  0  0  0  0  0  0  0  0
   25.8917  -16.7564   -0.8715 C   0  0  0  0  0  0  0  0  0  0  0  0
   25.5433  -18.0464   -0.4836 C   0  0  0  0  0  0  0  0  0  0  0  0
   21.7606  -17.8431   -0.3783 C   0  0  0  0  0  0  0  0  0  0  0  0
   24.1995  -18.4013   -0.3797 C   0  0  0  0  0  0  0  0  0  0  0  0
   23.1894  -17.4515   -0.5809 C   0  0  0  0  0  0  0  0  0  0  0  0
   23.5356  -16.1396   -0.9283 C   0  0  0  0  0  0  0  0  0  0  0  0
   24.8896  -15.7984   -1.0771 C   0  0  0  0  0  0  0  0  0  0  0  0
   29.2713  -15.4984   -2.0253 C   0  0  0  0  0  0  0  0  0  0  0  0
   27.7796  -15.6762   -2.0090 C   0  0  0  0  0  0  0  0  0  0  0  0
   27.1138  -15.1225   -2.9235 O   0  0  0  0  0  0  0  0  0  0  0  0
   27.2636  -16.4561   -1.0093 N   0  0  0  0  0  0  0  0  0  0  0  0
   20.8578  -17.1888   -0.8795 O   0  0  0  0  0  0  0  0  0  0  0  0
   21.5506  -18.9428    0.4008 N   0  0  0  0  0  0  0  0  0  0  0  0
   19.9733  -19.6552    2.0455 C   0  0  0  0  0  0  0  0  0  0  0  0
   18.7838  -20.2725    2.4311 C   0  0  0  0  0  0  0  0  0  0  0  0
   17.9243  -20.7419    1.4114 C   0  0  0  0  0  0  0  0  0  0  0  0
   18.2603  -20.5952    0.0510 C   0  0  0  0  0  0  0  0  0  0  0  0
   19.4336  -19.9370   -0.3337 C   0  0  0  0  0  0  0  0  0  0  0  0
   19.7672  -19.8509   -1.6768 N   0  0  0  0  0  0  0  0  0  0  0  0
   18.4062  -20.3423    3.8539 C   0  0  0  0  0  0  0  0  0  0  0  0
   17.1220  -20.3293    4.3472 C   0  0  0  0  0  0  0  0  0  0  0  0
   17.0519  -20.3281    5.7575 C   0  0  0  0  0  0  0  0  0  0  0  0
   18.2898  -20.3292    6.3651 C   0  0  0  0  0  0  0  0  0  0  0  0
   19.5256  -20.3309    5.1782 S   0  0  0  0  0  0  0  0  0  0  0  0
   26.3107  -18.7913   -0.2972 H   0  0  0  0  0  0  0  0  0  0  0  0
   23.9538  -19.4306   -0.1403 H   0  0  0  0  0  0  0  0  0  0  0  0
   22.7685  -15.3809   -1.0839 H   0  0  0  0  0  0  0  0  0  0  0  0
   25.1573  -14.7687   -1.3144 H   0  0  0  0  0  0  0  0  0  0  0  0
   29.7461  -16.0383   -1.2074 H   0  0  0  0  0  0  0  0  0  0  0  0
   29.5008  -14.4300   -1.9379 H   0  0  0  0  0  0  0  0  0  0  0  0
   29.6744  -15.8647   -2.9803 H   0  0  0  0  0  0  0  0  0  0  0  0
   27.9005  -16.8995   -0.3578 H   0  0  0  0  0  0  0  0  0  0  0  0
   22.3333  -19.3582    0.8774 H   0  0  0  0  0  0  0  0  0  0  0  0
   20.6351  -19.2638    2.8110 H   0  0  0  0  0  0  0  0  0  0  0  0
   16.9769  -21.2257    1.6620 H   0  0  0  0  0  0  0  0  0  0  0  0
   17.5871  -20.9957   -0.7062 H   0  0  0  0  0  0  0  0  0  0  0  0
   20.5963  -19.3387   -1.9585 H   0  0  0  0  0  0  0  0  0  0  0  0
   19.1384  -20.1671   -2.3977 H   0  0  0  0  0  0  0  0  0  0  0  0
   16.2427  -20.2889    3.7241 H   0  0  0  0  0  0  0  0  0  0  0  0
   16.1270  -20.3234    6.2980 H   0  0  0  0  0  0  0  0  0  0  0  0
   18.4409  -20.3285    7.4365 H   0  0  0  0  0  0  0  0  0  0  0  0
  1 14  1  0  0  0  0
  1 15  2  0  0  0  0
  1 19  1  0  0  0  0
  2  3  2  0  0  0  0
  2  8  1  0  0  0  0
  2 12  1  0  0  0  0
  3  5  1  0  0  0  0
  3 26  1  0  0  0  0
  4  6  1  0  0  0  0
  4 13  2  0  0  0  0
  4 14  1  0  0  0  0
  5  6  2  0  0  0  0
  5 27  1  0  0  0  0
  6  7  1  0  0  0  0
  7  8  2  0  0  0  0
  7 28  1  0  0  0  0
  8 29  1  0  0  0  0
  9 10  1  0  0  0  0
  9 30  1  0  0  0  0
  9 31  1  0  0  0  0
  9 32  1  0  0  0  0
 10 11  2  0  0  0  0
 10 12  1  0  0  0  0
 12 33  1  0  0  0  0
 14 34  1  0  0  0  0
 15 16  1  0  0  0  0
 15 35  1  0  0  0  0
 16 17  2  0  0  0  0
 16 21  1  0  0  0  0
 17 18  1  0  0  0  0
 17 36  1  0  0  0  0
 18 19  2  0  0  0  0
 18 37  1  0  0  0  0
 19 20  1  0  0  0  0
 20 38  1  0  0  0  0
 20 39  1  0  0  0  0
 21 22  2  0  0  0  0
 21 25  1  0  0  0  0
 22 23  1  0  0  0  0
 22 40  1  0  0  0  0
 23 24  2  0  0  0  0
 23 41  1  0  0  0  0
 24 25  1  0  0  0  0
 24 42  1  0  0  0  0
M  END
$$$$
