23K
 OpenBabel04111920223D

 74 76  0  0  1  0  0  0  0  0999 V2000
   16.4936   18.5954    2.0413 C   0  0  0  0  0  0  0  0  0  0  0  0
   17.5455   18.3261    2.9033 C   0  0  0  0  0  0  0  0  0  0  0  0
   17.4867   18.6461    4.2511 C   0  0  0  0  0  0  0  0  0  0  0  0
   16.3500   19.2513    4.7692 C   0  0  0  0  0  0  0  0  0  0  0  0
   15.2906   19.5173    3.8963 C   0  0  0  0  0  0  0  0  0  0  0  0
   15.3565   19.1970    2.5404 C   0  0  0  0  0  0  0  0  0  0  0  0
   18.6466   17.7388    2.4296 F   0  0  0  0  0  0  0  0  0  0  0  0
   16.3185   19.5487    6.2331 C   0  0  0  0  0  0  0  0  0  0  0  0
   13.7770   20.2038    4.5129 S   0  0  0  0  0  0  0  0  0  0  0  0
   14.2675   21.6288    5.2093 N   0  0  0  0  0  0  0  0  0  0  0  0
   12.9647   20.5359    3.3442 O   0  0  0  0  0  0  0  0  0  0  0  0
   13.2968   19.3409    5.5245 O   0  0  0  0  0  0  0  0  0  0  0  0
   14.5435   22.8081    4.3907 C   0  0  0  0  0  0  0  0  0  0  0  0
   14.8603   21.5629    6.5388 C   0  0  0  0  0  0  0  0  0  0  0  0
   16.2964   21.0356    6.5710 C   0  0  1  0  0  0  0  0  0  0  0  0
   16.8312   21.1806    8.0106 C   0  0  0  0  0  0  0  0  0  0  0  0
   13.5704   23.9420    4.7197 C   0  0  2  0  0  0  0  0  0  0  0  0
   12.0778   23.6690    4.4387 C   0  0  1  0  0  0  0  0  0  0  0  0
   14.0145   25.1483    4.0814 O   0  0  0  0  0  0  0  0  0  0  0  0
   11.2603   24.6579    5.1493 N   0  0  0  0  0  0  0  0  0  0  0  0
   11.7001   23.6226    2.9563 C   0  0  0  0  0  0  0  0  0  0  0  0
   10.2340   23.3342    2.7925 C   0  0  0  0  0  0  0  0  0  0  0  0
    9.7634   22.0384    2.9997 C   0  0  0  0  0  0  0  0  0  0  0  0
    8.4072   21.7708    2.9197 C   0  0  0  0  0  0  0  0  0  0  0  0
    7.5193   22.8004    2.6405 C   0  0  0  0  0  0  0  0  0  0  0  0
    7.9815   24.0923    2.4275 C   0  0  0  0  0  0  0  0  0  0  0  0
    9.3385   24.3624    2.4982 C   0  0  0  0  0  0  0  0  0  0  0  0
   10.8729   24.4595    6.4418 C   0  0  0  0  0  0  0  0  0  0  0  0
   10.1212   25.4783    6.9406 N   0  0  0  0  0  0  0  0  0  0  0  0
   11.2106   23.4625    7.0927 O   0  0  0  0  0  0  0  0  0  0  0  0
    9.6712   25.5926    8.3202 C   0  0  0  0  0  0  0  0  0  0  0  0
    8.6774   24.5017    8.6928 C   0  0  0  0  0  0  0  0  0  0  0  0
   10.8436   25.5442    9.2888 C   0  0  0  0  0  0  0  0  0  0  0  0
   18.3427   21.1136    8.1068 C   0  0  0  0  0  0  0  0  0  0  0  0
   16.4344   22.4951    8.6396 C   0  0  0  0  0  0  0  0  0  0  0  0
    9.0090   26.9579    8.4728 C   0  0  0  0  0  0  0  0  0  0  0  0
   16.5710   18.3273    0.9910 H   0  0  0  0  0  0  0  0  0  0  0  0
   18.3319   18.4079    4.8955 H   0  0  0  0  0  0  0  0  0  0  0  0
   14.5163   19.4100    1.8776 H   0  0  0  0  0  0  0  0  0  0  0  0
   17.2022   19.0943    6.6909 H   0  0  0  0  0  0  0  0  0  0  0  0
   15.4478   19.0582    6.6801 H   0  0  0  0  0  0  0  0  0  0  0  0
   14.4667   22.5507    3.3304 H   0  0  0  0  0  0  0  0  0  0  0  0
   15.5690   23.1607    4.5635 H   0  0  0  0  0  0  0  0  0  0  0  0
   14.2405   20.9394    7.1979 H   0  0  0  0  0  0  0  0  0  0  0  0
   14.8364   22.5781    6.9377 H   0  0  0  0  0  0  0  0  0  0  0  0
   16.9235   21.5994    5.8666 H   0  0  0  0  0  0  0  0  0  0  0  0
   16.4056   20.3592    8.6079 H   0  0  0  0  0  0  0  0  0  0  0  0
   13.6498   24.1164    5.7976 H   0  0  0  0  0  0  0  0  0  0  0  0
   11.8372   22.6865    4.8634 H   0  0  0  0  0  0  0  0  0  0  0  0
   13.8881   25.0576    3.1259 H   0  0  0  0  0  0  0  0  0  0  0  0
   11.0242   25.5209    4.6868 H   0  0  0  0  0  0  0  0  0  0  0  0
   12.2557   22.8336    2.4422 H   0  0  0  0  0  0  0  0  0  0  0  0
   11.9215   24.5753    2.4619 H   0  0  0  0  0  0  0  0  0  0  0  0
   10.4625   21.2357    3.2221 H   0  0  0  0  0  0  0  0  0  0  0  0
    8.0434   20.7597    3.0769 H   0  0  0  0  0  0  0  0  0  0  0  0
    6.4565   22.5928    2.5854 H   0  0  0  0  0  0  0  0  0  0  0  0
    7.2783   24.8875    2.2048 H   0  0  0  0  0  0  0  0  0  0  0  0
    9.6995   25.3717    2.3217 H   0  0  0  0  0  0  0  0  0  0  0  0
    9.8358   26.2092    6.3079 H   0  0  0  0  0  0  0  0  0  0  0  0
    8.3631   24.6106    9.7397 H   0  0  0  0  0  0  0  0  0  0  0  0
    9.1326   23.5141    8.5744 H   0  0  0  0  0  0  0  0  0  0  0  0
    7.7912   24.5583    8.0541 H   0  0  0  0  0  0  0  0  0  0  0  0
   10.4888   25.6290   10.3214 H   0  0  0  0  0  0  0  0  0  0  0  0
   11.5325   26.3676    9.0807 H   0  0  0  0  0  0  0  0  0  0  0  0
   11.3838   24.6005    9.1870 H   0  0  0  0  0  0  0  0  0  0  0  0
   18.6401   21.2312    9.1524 H   0  0  0  0  0  0  0  0  0  0  0  0
   18.7917   21.9225    7.5211 H   0  0  0  0  0  0  0  0  0  0  0  0
   18.7141   20.1552    7.7416 H   0  0  0  0  0  0  0  0  0  0  0  0
   15.3511   22.6116    8.6500 H   0  0  0  0  0  0  0  0  0  0  0  0
   16.8909   23.3222    8.0877 H   0  0  0  0  0  0  0  0  0  0  0  0
   16.7452   22.5180    9.6806 H   0  0  0  0  0  0  0  0  0  0  0  0
    8.6544   27.1048    9.4990 H   0  0  0  0  0  0  0  0  0  0  0  0
    8.1618   27.0443    7.7847 H   0  0  0  0  0  0  0  0  0  0  0  0
    9.7312   27.7463    8.2323 H   0  0  0  0  0  0  0  0  0  0  0  0
  1  2  2  0  0  0  0
  1  6  1  0  0  0  0
  1 37  1  0  0  0  0
  2  3  1  0  0  0  0
  2  7  1  0  0  0  0
  3  4  2  0  0  0  0
  3 38  1  0  0  0  0
  4  5  1  0  0  0  0
  4  8  1  0  0  0  0
  5  6  2  0  0  0  0
  5  9  1  0  0  0  0
  6 39  1  0  0  0  0
  8 15  1  0  0  0  0
  8 40  1  0  0  0  0
  8 41  1  0  0  0  0
  9 10  1  0  0  0  0
  9 11  2  0  0  0  0
  9 12  2  0  0  0  0
 10 13  1  0  0  0  0
 10 14  1  0  0  0  0
 13 17  1  0  0  0  0
 13 42  1  0  0  0  0
 13 43  1  0  0  0  0
 14 15  1  0  0  0  0
 14 44  1  0  0  0  0
 14 45  1  0  0  0  0
 15 16  1  0  0  0  0
 15 46  1  6  0  0  0
 16 34  1  0  0  0  0
 16 35  1  0  0  0  0
 16 47  1  0  0  0  0
 17 18  1  0  0  0  0
 17 19  1  0  0  0  0
 17 48  1  1  0  0  0
 18 20  1  0  0  0  0
 18 21  1  0  0  0  0
 18 49  1  1  0  0  0
 19 50  1  0  0  0  0
 20 28  1  0  0  0  0
 20 51  1  0  0  0  0
 21 22  1  0  0  0  0
 21 52  1  0  0  0  0
 21 53  1  0  0  0  0
 22 23  2  0  0  0  0
 22 27  1  0  0  0  0
 23 24  1  0  0  0  0
 23 54  1  0  0  0  0
 24 25  2  0  0  0  0
 24 55  1  0  0  0  0
 25 26  1  0  0  0  0
 25 56  1  0  0  0  0
 26 27  2  0  0  0  0
 26 57  1  0  0  0  0
 27 58  1  0  0  0  0
 28 29  1  0  0  0  0
 28 30  2  0  0  0  0
 29 31  1  0  0  0  0
 29 59  1  0  0  0  0
 31 32  1  0  0  0  0
 31 33  1  0  0  0  0
 31 36  1  0  0  0  0
 32 60  1  0  0  0  0
 32 61  1  0  0  0  0
 32 62  1  0  0  0  0
 33 63  1  0  0  0  0
 33 64  1  0  0  0  0
 33 65  1  0  0  0  0
 34 66  1  0  0  0  0
 34 67  1  0  0  0  0
 34 68  1  0  0  0  0
 35 69  1  0  0  0  0
 35 70  1  0  0  0  0
 35 71  1  0  0  0  0
 36 72  1  0  0  0  0
 36 73  1  0  0  0  0
 36 74  1  0  0  0  0
M  END
$$$$
