23L
 OpenBabel04111920233D

 72 75  0  0  1  0  0  0  0  0999 V2000
    9.4399   27.2579    8.6021 C   0  0  0  0  0  0  0  0  0  0  0  0
    8.4665   27.5918    7.6794 C   0  0  0  0  0  0  0  0  0  0  0  0
    8.1799   26.7672    6.5969 C   0  0  0  0  0  0  0  0  0  0  0  0
    8.8994   25.5882    6.3917 C   0  0  0  0  0  0  0  0  0  0  0  0
    9.8765   25.2586    7.3342 C   0  0  0  0  0  0  0  0  0  0  0  0
   10.1340   26.0740    8.4340 C   0  0  0  0  0  0  0  0  0  0  0  0
    7.7918   28.7340    7.8395 F   0  0  0  0  0  0  0  0  0  0  0  0
    8.5643   24.7291    5.2073 C   0  0  0  0  0  0  0  0  0  0  0  0
   10.7674   23.7275    7.2109 S   0  0  0  0  0  0  0  0  0  0  0  0
   11.4963   23.8264    5.7217 N   0  0  0  0  0  0  0  0  0  0  0  0
   11.8315   23.7626    8.2123 O   0  0  0  0  0  0  0  0  0  0  0  0
    9.8226   22.6736    7.1818 O   0  0  0  0  0  0  0  0  0  0  0  0
   12.7118   24.6282    5.5546 C   0  0  0  0  0  0  0  0  0  0  0  0
   10.6642   23.5327    4.5639 C   0  0  0  0  0  0  0  0  0  0  0  0
    9.6799   24.6357    4.1730 C   0  0  1  0  0  0  0  0  0  0  0  0
    9.1208   24.2460    2.7893 C   0  0  0  0  0  0  0  0  0  0  0  0
   13.8764   23.7548    5.0905 C   0  0  2  0  0  0  0  0  0  0  0  0
   14.3050   22.6520    6.0629 C   0  0  1  0  0  0  0  0  0  0  0  0
   14.9990   24.5807    4.7504 O   0  0  0  0  0  0  0  0  0  0  0  0
   15.1619   21.7279    5.3347 N   0  0  0  0  0  0  0  0  0  0  0  0
   15.0163   23.1588    7.3169 C   0  0  0  0  0  0  0  0  0  0  0  0
   15.3500   22.0157    8.2263 C   0  0  0  0  0  0  0  0  0  0  0  0
   14.3717   21.4540    9.0450 C   0  0  0  0  0  0  0  0  0  0  0  0
   14.6801   20.3620    9.8387 C   0  0  0  0  0  0  0  0  0  0  0  0
   15.9537   19.8140    9.7944 C   0  0  0  0  0  0  0  0  0  0  0  0
   16.9297   20.3710    8.9806 C   0  0  0  0  0  0  0  0  0  0  0  0
   16.6341   21.4765    8.2009 C   0  0  0  0  0  0  0  0  0  0  0  0
   14.7556   20.5129    4.9053 C   0  0  0  0  0  0  0  0  0  0  0  0
   15.7836   19.9238    4.2750 O   0  0  0  0  0  0  0  0  0  0  0  0
   13.6340   20.0259    5.0443 O   0  0  0  0  0  0  0  0  0  0  0  0
   15.5292   18.6601    3.6483 C   0  0  2  0  0  0  0  0  0  0  0  0
   16.8889   18.0456    3.4051 C   0  0  0  0  0  0  0  0  0  0  0  0
   17.2629   18.4564    2.0805 O   0  0  0  0  0  0  0  0  0  0  0  0
   16.0525   18.4373    1.3191 C   0  0  0  0  0  0  0  0  0  0  0  0
   14.9708   18.9008    2.2647 C   0  0  0  0  0  0  0  0  0  0  0  0
    8.0976   25.1947    2.1966 C   0  0  0  0  0  0  0  0  0  0  0  0
   10.2598   24.1945    1.7943 C   0  0  0  0  0  0  0  0  0  0  0  0
    9.6453   27.9139    9.4427 H   0  0  0  0  0  0  0  0  0  0  0  0
    7.3829   27.0457    5.9130 H   0  0  0  0  0  0  0  0  0  0  0  0
   10.8786   25.7782    9.1702 H   0  0  0  0  0  0  0  0  0  0  0  0
    7.6720   25.1433    4.7383 H   0  0  0  0  0  0  0  0  0  0  0  0
    8.3071   23.7257    5.5596 H   0  0  0  0  0  0  0  0  0  0  0  0
   12.9762   25.1078    6.5020 H   0  0  0  0  0  0  0  0  0  0  0  0
   12.5500   25.4263    4.8208 H   0  0  0  0  0  0  0  0  0  0  0  0
   10.1082   22.6028    4.7246 H   0  0  0  0  0  0  0  0  0  0  0  0
   11.3532   23.3238    3.7502 H   0  0  0  0  0  0  0  0  0  0  0  0
   10.1976   25.6008    4.0999 H   0  0  0  0  0  0  0  0  0  0  0  0
    8.6552   23.2533    2.8758 H   0  0  0  0  0  0  0  0  0  0  0  0
   13.5573   23.2562    4.1693 H   0  0  0  0  0  0  0  0  0  0  0  0
   13.4109   22.1070    6.3841 H   0  0  0  0  0  0  0  0  0  0  0  0
   15.3425   24.9754    5.5627 H   0  0  0  0  0  0  0  0  0  0  0  0
   16.1032   22.0114    5.1058 H   0  0  0  0  0  0  0  0  0  0  0  0
   14.3790   23.8594    7.8644 H   0  0  0  0  0  0  0  0  0  0  0  0
   15.9501   23.6751    7.0596 H   0  0  0  0  0  0  0  0  0  0  0  0
   13.3679   21.8701    9.0643 H   0  0  0  0  0  0  0  0  0  0  0  0
   13.9266   19.9356   10.4928 H   0  0  0  0  0  0  0  0  0  0  0  0
   16.1877   18.9464   10.4010 H   0  0  0  0  0  0  0  0  0  0  0  0
   17.9250   19.9426    8.9567 H   0  0  0  0  0  0  0  0  0  0  0  0
   17.3979   21.9194    7.5703 H   0  0  0  0  0  0  0  0  0  0  0  0
   14.8885   18.0186    4.2664 H   0  0  0  0  0  0  0  0  0  0  0  0
   16.8439   16.9511    3.4342 H   0  0  0  0  0  0  0  0  0  0  0  0
   17.6314   18.4063    4.1248 H   0  0  0  0  0  0  0  0  0  0  0  0
   15.8649   17.4116    0.9764 H   0  0  0  0  0  0  0  0  0  0  0  0
   16.1389   19.0952    0.4473 H   0  0  0  0  0  0  0  0  0  0  0  0
   14.7679   19.9646    2.1071 H   0  0  0  0  0  0  0  0  0  0  0  0
   14.0513   18.3312    2.1016 H   0  0  0  0  0  0  0  0  0  0  0  0
    7.7822   24.8197    1.2167 H   0  0  0  0  0  0  0  0  0  0  0  0
    8.5344   26.1903    2.0693 H   0  0  0  0  0  0  0  0  0  0  0  0
    7.2153   25.2643    2.8321 H   0  0  0  0  0  0  0  0  0  0  0  0
   11.0467   23.5155    2.1051 H   0  0  0  0  0  0  0  0  0  0  0  0
   10.6977   25.1875    1.6741 H   0  0  0  0  0  0  0  0  0  0  0  0
    9.9124   23.8094    0.8395 H   0  0  0  0  0  0  0  0  0  0  0  0
  1  2  2  0  0  0  0
  1  6  1  0  0  0  0
  1 38  1  0  0  0  0
  2  3  1  0  0  0  0
  2  7  1  0  0  0  0
  3  4  2  0  0  0  0
  3 39  1  0  0  0  0
  4  5  1  0  0  0  0
  4  8  1  0  0  0  0
  5  6  2  0  0  0  0
  5  9  1  0  0  0  0
  6 40  1  0  0  0  0
  8 15  1  0  0  0  0
  8 41  1  0  0  0  0
  8 42  1  0  0  0  0
  9 10  1  0  0  0  0
  9 11  2  0  0  0  0
  9 12  2  0  0  0  0
 10 13  1  0  0  0  0
 10 14  1  0  0  0  0
 13 17  1  0  0  0  0
 13 43  1  0  0  0  0
 13 44  1  0  0  0  0
 14 15  1  0  0  0  0
 14 45  1  0  0  0  0
 14 46  1  0  0  0  0
 15 16  1  0  0  0  0
 15 47  1  6  0  0  0
 16 36  1  0  0  0  0
 16 37  1  0  0  0  0
 16 48  1  0  0  0  0
 17 18  1  0  0  0  0
 17 19  1  0  0  0  0
 17 49  1  6  0  0  0
 18 20  1  0  0  0  0
 18 21  1  0  0  0  0
 18 50  1  1  0  0  0
 19 51  1  0  0  0  0
 20 28  1  0  0  0  0
 20 52  1  0  0  0  0
 21 22  1  0  0  0  0
 21 53  1  0  0  0  0
 21 54  1  0  0  0  0
 22 23  2  0  0  0  0
 22 27  1  0  0  0  0
 23 24  1  0  0  0  0
 23 55  1  0  0  0  0
 24 25  2  0  0  0  0
 24 56  1  0  0  0  0
 25 26  1  0  0  0  0
 25 57  1  0  0  0  0
 26 27  2  0  0  0  0
 26 58  1  0  0  0  0
 27 59  1  0  0  0  0
 28 29  1  0  0  0  0
 28 30  2  0  0  0  0
 29 31  1  0  0  0  0
 31 32  1  0  0  0  0
 31 35  1  0  0  0  0
 31 60  1  1  0  0  0
 32 33  1  0  0  0  0
 32 61  1  0  0  0  0
 32 62  1  0  0  0  0
 33 34  1  0  0  0  0
 34 35  1  0  0  0  0
 34 63  1  0  0  0  0
 34 64  1  0  0  0  0
 35 65  1  0  0  0  0
 35 66  1  0  0  0  0
 36 67  1  0  0  0  0
 36 68  1  0  0  0  0
 36 69  1  0  0  0  0
 37 70  1  0  0  0  0
 37 71  1  0  0  0  0
 37 72  1  0  0  0  0
M  END
$$$$
