24W
 OpenBabel04111920273D

 24 25  0  0  0  0  0  0  0  0999 V2000
   12.3519   -4.9662    0.7389 C   0  0  0  0  0  0  0  0  0  0  0  0
   11.4118   -5.6019    1.7129 N   0  3  0  0  0  0  0  0  0  0  0  0
   10.3730   -6.4153    1.0255 C   0  0  0  0  0  0  0  0  0  0  0  0
    9.5075   -5.5082    0.1743 C   0  0  0  0  0  0  0  0  0  0  0  0
   10.3151   -4.6201   -0.7337 C   0  0  0  0  0  0  0  0  0  0  0  0
   11.6618   -4.3416   -0.4388 C   0  0  0  0  0  0  0  0  0  0  0  0
   12.3934   -3.5101   -1.2907 C   0  0  0  0  0  0  0  0  0  0  0  0
   11.7756   -2.9431   -2.4045 C   0  0  0  0  0  0  0  0  0  0  0  0
   10.4301   -3.1978   -2.6700 C   0  0  0  0  0  0  0  0  0  0  0  0
    9.6837   -4.0390   -1.8442 C   0  0  0  0  0  0  0  0  0  0  0  0
    8.3574   -4.2854   -2.1039 N   0  0  0  0  0  0  0  0  0  0  0  0
   13.0271   -5.7561    0.3955 H   0  0  0  0  0  0  0  0  0  0  0  0
   12.9117   -4.2100    1.2983 H   0  0  0  0  0  0  0  0  0  0  0  0
   11.9416   -6.1897    2.3661 H   0  0  0  0  0  0  0  0  0  0  0  0
    9.7701   -6.9118    1.7915 H   0  0  0  0  0  0  0  0  0  0  0  0
   10.8897   -7.1655    0.4196 H   0  0  0  0  0  0  0  0  0  0  0  0
    8.8837   -4.8669    0.8075 H   0  0  0  0  0  0  0  0  0  0  0  0
    8.8590   -6.1612   -0.4168 H   0  0  0  0  0  0  0  0  0  0  0  0
   13.4426   -3.2928   -1.1011 H   0  0  0  0  0  0  0  0  0  0  0  0
   12.3460   -2.2960   -3.0681 H   0  0  0  0  0  0  0  0  0  0  0  0
    9.9600   -2.7327   -3.5337 H   0  0  0  0  0  0  0  0  0  0  0  0
    7.7929   -4.8998   -1.5284 H   0  0  0  0  0  0  0  0  0  0  0  0
    7.9046   -3.8773   -2.9217 H   0  0  0  0  0  0  0  0  0  0  0  0
   10.9632   -4.8644    2.2721 H   0  0  0  0  0  0  0  0  0  0  0  0
  1  2  1  0  0  0  0
  1  6  1  0  0  0  0
  1 12  1  0  0  0  0
  1 13  1  0  0  0  0
  2  3  1  0  0  0  0
  2 14  1  0  0  0  0
  2 24  1  0  0  0  0
  3  4  1  0  0  0  0
  3 15  1  0  0  0  0
  3 16  1  0  0  0  0
  4  5  1  0  0  0  0
  4 17  1  0  0  0  0
  4 18  1  0  0  0  0
  5  6  2  0  0  0  0
  5 10  1  0  0  0  0
  6  7  1  0  0  0  0
  7  8  2  0  0  0  0
  7 19  1  0  0  0  0
  8  9  1  0  0  0  0
  8 20  1  0  0  0  0
  9 10  2  0  0  0  0
  9 21  1  0  0  0  0
 10 11  1  0  0  0  0
 11 22  1  0  0  0  0
 11 23  1  0  0  0  0
M  CHG  1   2   1
M  END
$$$$
