29Q
 OpenBabel04111920243D

 34 37  0  0  1  0  0  0  0  0999 V2000
  100.3280   19.6361   30.9713 Cl  0  0  0  0  0  0  0  0  0  0  0  0
  101.2545   20.3795   32.2129 C   0  0  0  0  0  0  0  0  0  0  0  0
  100.8447   20.3142   33.5391 C   0  0  0  0  0  0  0  0  0  0  0  0
  101.5874   20.9443   34.5464 C   0  0  0  0  0  0  0  0  0  0  0  0
  102.4086   21.0750   31.8759 C   0  0  0  0  0  0  0  0  0  0  0  0
  103.1494   21.7051   32.8759 C   0  0  0  0  0  0  0  0  0  0  0  0
  102.7573   21.6629   34.2300 C   0  0  0  0  0  0  0  0  0  0  0  0
  103.5162   22.5135   35.2355 C   0  0  1  0  0  0  0  0  0  0  0  0
  104.6740   23.1076   34.6765 O   0  0  0  0  0  0  0  0  0  0  0  0
  102.6557   23.5597   35.9283 C   0  0  0  0  0  0  0  0  0  0  0  0
  101.7711   24.4630   35.3627 C   0  0  0  0  0  0  0  0  0  0  0  0
  101.0736   25.3134   36.2124 C   0  0  0  0  0  0  0  0  0  0  0  0
  101.2913   25.2600   37.6003 C   0  0  0  0  0  0  0  0  0  0  0  0
  102.1831   24.3388   38.1758 C   0  0  0  0  0  0  0  0  0  0  0  0
  102.8445   23.4703   37.3261 C   0  0  0  0  0  0  0  0  0  0  0  0
  103.7531   22.3671   37.5244 C   0  0  0  0  0  0  0  0  0  0  0  0
  104.0164   21.7731   36.3809 N   0  0  0  0  0  0  0  0  0  0  0  0
  105.0720   20.7952   36.4991 C   0  0  0  0  0  0  0  0  0  0  0  0
  105.2775   20.7653   38.0387 C   0  0  0  0  0  0  0  0  0  0  0  0
  104.3923   21.8585   38.5361 N   0  0  0  0  0  0  0  0  0  0  0  0
   99.9201   19.7924   33.7912 H   0  0  0  0  0  0  0  0  0  0  0  0
  101.2101   20.9111   35.5688 H   0  0  0  0  0  0  0  0  0  0  0  0
  102.7298   21.1561   30.8390 H   0  0  0  0  0  0  0  0  0  0  0  0
  104.0284   22.2795   32.5680 H   0  0  0  0  0  0  0  0  0  0  0  0
  104.8446   23.9378   35.1521 H   0  0  0  0  0  0  0  0  0  0  0  0
  101.5970   24.4925   34.2875 H   0  0  0  0  0  0  0  0  0  0  0  0
  100.3563   26.0198   35.8044 H   0  0  0  0  0  0  0  0  0  0  0  0
  100.7319   25.9476   38.2416 H   0  0  0  0  0  0  0  0  0  0  0  0
  102.3131   24.3179   39.2528 H   0  0  0  0  0  0  0  0  0  0  0  0
  105.9772   21.1286   35.9840 H   0  0  0  0  0  0  0  0  0  0  0  0
  104.7474   19.8271   36.1082 H   0  0  0  0  0  0  0  0  0  0  0  0
  106.3154   20.9645   38.3170 H   0  0  0  0  0  0  0  0  0  0  0  0
  104.9487   19.8137   38.4699 H   0  0  0  0  0  0  0  0  0  0  0  0
  104.2937   22.2242   39.4779 H   0  0  0  0  0  0  0  0  0  0  0  0
  1  2  1  0  0  0  0
  2  3  2  0  0  0  0
  2  5  1  0  0  0  0
  3  4  1  0  0  0  0
  3 21  1  0  0  0  0
  4  7  2  0  0  0  0
  4 22  1  0  0  0  0
  5  6  2  0  0  0  0
  5 23  1  0  0  0  0
  6  7  1  0  0  0  0
  6 24  1  0  0  0  0
  8  7  1  6  0  0  0
  8  9  1  0  0  0  0
  8 10  1  0  0  0  0
  8 17  1  0  0  0  0
  9 25  1  0  0  0  0
 10 11  2  0  0  0  0
 10 15  1  0  0  0  0
 11 12  1  0  0  0  0
 11 26  1  0  0  0  0
 12 13  2  0  0  0  0
 12 27  1  0  0  0  0
 13 14  1  0  0  0  0
 13 28  1  0  0  0  0
 14 15  2  0  0  0  0
 14 29  1  0  0  0  0
 15 16  1  0  0  0  0
 16 17  2  0  0  0  0
 16 20  1  0  0  0  0
 17 18  1  0  0  0  0
 18 19  1  0  0  0  0
 18 30  1  0  0  0  0
 18 31  1  0  0  0  0
 19 20  1  0  0  0  0
 19 32  1  0  0  0  0
 19 33  1  0  0  0  0
 20 34  1  0  0  0  0
M  END
$$$$
