29W
 OpenBabel04111920263D

 45 47  0  0  1  0  0  0  0  0999 V2000
   18.0823   12.2756   -0.8126 O   0  0  0  0  0  0  0  0  0  0  0  0
   18.5592   11.1234   -1.0121 C   0  0  0  0  0  0  0  0  0  0  0  0
   19.7706   10.7485   -0.9802 O   0  0  0  0  0  0  0  0  0  0  0  0
   17.5856   10.0221   -1.3870 C   0  0  0  0  0  0  0  0  0  0  0  0
   16.1651   10.3540   -1.3806 N   0  3  1  0  0  0  0  0  0  0  0  0
   15.3463   10.3101   -2.4974 C   0  0  1  0  0  0  0  0  0  0  0  0
   15.6443   10.0741   -3.8484 C   0  0  0  0  0  0  0  0  0  0  0  0
   14.5895   10.0384   -4.7634 C   0  0  0  0  0  0  0  0  0  0  0  0
   13.2722   10.2231   -4.3550 C   0  0  2  0  0  0  0  0  0  0  0  0
   12.3427   10.1618   -5.3610 O   0  0  0  0  0  0  0  0  0  0  0  0
   11.0468    9.7304   -4.9689 C   0  0  0  0  0  0  0  0  0  0  0  0
   12.9869   10.4935   -3.0103 C   0  0  0  0  0  0  0  0  0  0  0  0
   14.0406   10.5362   -2.0695 C   0  0  1  0  0  0  0  0  0  0  0  0
   14.0961   10.7693   -0.6669 C   0  0  0  0  0  0  0  0  0  0  0  0
   15.4136   10.6281   -0.2459 C   0  0  1  0  0  0  0  0  0  0  0  0
   15.9655   10.7010    1.0949 C   0  0  0  0  0  0  0  0  0  0  0  0
   16.8547    9.9770    1.5156 O   0  0  0  0  0  0  0  0  0  0  0  0
   15.2738   11.5924    1.9085 N   0  0  0  0  0  0  0  0  0  0  0  0
   15.7214   11.9657    3.4563 S   0  0  0  0  0  0  0  0  0  0  0  0
   14.8554   13.0574    3.8658 O   0  0  0  0  0  0  0  0  0  0  0  0
   17.1527   12.0714    3.5954 O   0  0  0  0  0  0  0  0  0  0  0  0
   15.1642   10.5411    4.3556 C   0  0  2  0  0  0  0  0  0  0  0  0
   13.7882   10.3010    4.4378 C   0  0  0  0  0  0  0  0  0  0  0  0
   13.3230    9.2381    5.2116 C   0  0  0  0  0  0  0  0  0  0  0  0
   14.2244    8.4268    5.9124 C   0  0  2  0  0  0  0  0  0  0  0  0
   13.7040    7.3202    6.7814 C   0  0  0  0  0  0  0  0  0  0  0  0
   15.6020    8.6650    5.8012 C   0  0  0  0  0  0  0  0  0  0  0  0
   16.0756    9.7218    5.0211 C   0  0  0  0  0  0  0  0  0  0  0  0
   17.7092    9.1545   -0.7295 H   0  0  0  0  0  0  0  0  0  0  0  0
   17.8556    9.6888   -2.3927 H   0  0  0  0  0  0  0  0  0  0  0  0
   16.6640    9.9214   -4.1868 H   0  0  0  0  0  0  0  0  0  0  0  0
   14.8092    9.8481   -5.8106 H   0  0  0  0  0  0  0  0  0  0  0  0
   10.4398    9.6365   -5.8747 H   0  0  0  0  0  0  0  0  0  0  0  0
   10.5555   10.4643   -4.3232 H   0  0  0  0  0  0  0  0  0  0  0  0
   11.0883    8.7464   -4.4892 H   0  0  0  0  0  0  0  0  0  0  0  0
   11.9774   10.6816   -2.6677 H   0  0  0  0  0  0  0  0  0  0  0  0
   13.2492   10.9659   -0.0288 H   0  0  0  0  0  0  0  0  0  0  0  0
   14.5791   12.2077    1.5169 H   0  0  0  0  0  0  0  0  0  0  0  0
   13.0862   10.9419    3.9150 H   0  0  0  0  0  0  0  0  0  0  0  0
   12.2535    9.0586    5.2759 H   0  0  0  0  0  0  0  0  0  0  0  0
   14.5159    6.8095    7.3073 H   0  0  0  0  0  0  0  0  0  0  0  0
   13.1722    6.5806    6.1756 H   0  0  0  0  0  0  0  0  0  0  0  0
   13.0223    7.7273    7.5359 H   0  0  0  0  0  0  0  0  0  0  0  0
   16.3172    8.0360    6.3267 H   0  0  0  0  0  0  0  0  0  0  0  0
   17.1462    9.9036    4.9427 H   0  0  0  0  0  0  0  0  0  0  0  0
  1  2  2  0  0  0  0
  2  3  1  0  0  0  0
  2  4  1  0  0  0  0
  4 29  1  0  0  0  0
  4 30  1  0  0  0  0
  5  4  1  1  0  0  0
  5  6  1  0  0  0  0
  5 15  1  0  0  0  0
  6  7  1  1  0  0  0
  6 13  1  0  0  0  0
  7  8  1  0  0  0  0
  7 31  1  0  0  0  0
  8  9  1  0  0  0  0
  8 32  1  0  0  0  0
  9 10  1  6  0  0  0
  9 12  1  0  0  0  0
 10 11  1  0  0  0  0
 11 33  1  0  0  0  0
 11 34  1  0  0  0  0
 11 35  1  0  0  0  0
 12 36  1  0  0  0  0
 13 12  1  1  0  0  0
 13 14  1  0  0  0  0
 14 15  1  0  0  0  0
 14 37  1  0  0  0  0
 15 16  1  1  0  0  0
 16 17  2  0  0  0  0
 16 18  1  0  0  0  0
 18 19  1  0  0  0  0
 18 38  1  0  0  0  0
 19 20  2  0  0  0  0
 19 21  2  0  0  0  0
 22 19  1  1  0  0  0
 22 23  1  0  0  0  0
 22 28  1  0  0  0  0
 23 24  1  0  0  0  0
 23 39  1  0  0  0  0
 24 25  1  0  0  0  0
 24 40  1  0  0  0  0
 25 26  1  1  0  0  0
 25 27  1  0  0  0  0
 26 41  1  0  0  0  0
 26 42  1  0  0  0  0
 26 43  1  0  0  0  0
 27 28  1  0  0  0  0
 27 44  1  0  0  0  0
 28 45  1  0  0  0  0
M  CHG  1   5   1
M  END
$$$$
