2BA
 OpenBabel04111922203D

 66 72  0  0  1  0  0  0  0  0999 V2000
   14.2816  -28.7564   12.3592 P   0  0  1  0  0  0  0  0  0  0  0  0
   15.0199  -29.2451   11.1403 O   0  0  0  0  0  0  0  0  0  0  0  0
   13.5583  -27.4364   12.3632 O   0  0  0  0  0  0  0  0  0  0  0  0
   13.2828  -29.9301   12.8387 O   0  0  0  0  0  0  0  0  0  0  0  0
   12.3894  -29.7759   13.9281 C   0  0  0  0  0  0  0  0  0  0  0  0
   11.5432  -31.0660   14.0469 C   0  0  1  0  0  0  0  0  0  0  0  0
   10.7317  -31.2908   12.8600 O   0  0  0  0  0  0  0  0  0  0  0  0
   12.4086  -32.3065   14.2160 C   0  0  1  0  0  0  0  0  0  0  0  0
   12.7915  -32.4602   15.5701 O   0  0  0  0  0  0  0  0  0  0  0  0
   11.5198  -33.4189   13.6727 C   0  0  1  0  0  0  0  0  0  0  0  0
   10.5807  -33.8969   14.6553 O   0  0  0  0  0  0  0  0  0  0  0  0
   10.7258  -32.7186   12.5616 C   0  0  2  0  0  0  0  0  0  0  0  0
   11.2450  -32.9715   11.2360 N   0  3  0  0  0  0  0  0  0  0  0  0
   12.1708  -32.1554   10.6090 C   0  0  0  0  0  0  0  0  0  0  0  0
   12.4971  -32.6022    9.4138 N   0  0  0  0  0  0  0  0  0  0  0  0
   11.8012  -33.7815    9.2540 C   0  0  0  0  0  0  0  0  0  0  0  0
   11.7508  -34.7128    8.2026 C   0  0  0  0  0  0  0  0  0  0  0  0
   12.4164  -34.6041    6.9994 N   0  0  0  0  0  0  0  0  0  0  0  0
   10.9522  -35.8014    8.3348 N   0  0  0  0  0  0  0  0  0  0  0  0
   10.2479  -35.9239    9.4772 C   0  0  0  0  0  0  0  0  0  0  0  0
   10.1980  -35.1050   10.5537 N   0  0  0  0  0  0  0  0  0  0  0  0
   11.0110  -34.0301   10.3843 C   0  0  0  0  0  0  0  0  0  0  0  0
   14.2170  -33.1794   15.8556 P   0  0  2  0  0  0  0  0  0  0  0  0
   14.2993  -34.4126   14.9933 O   0  0  0  0  0  0  0  0  0  0  0  0
   14.4384  -33.2200   17.3456 O   0  0  0  0  0  0  0  0  0  0  0  0
   15.1995  -32.0645   15.2077 O   0  0  0  0  0  0  0  0  0  0  0  0
   15.5713  -30.9434   15.9902 C   0  0  0  0  0  0  0  0  0  0  0  0
   16.5678  -30.0822   15.2121 C   0  0  1  0  0  0  0  0  0  0  0  0
   17.8603  -30.7253   15.2441 O   0  0  0  0  0  0  0  0  0  0  0  0
   16.1991  -29.8685   13.7416 C   0  0  1  0  0  0  0  0  0  0  0  0
   15.3432  -28.7461   13.5898 O   0  0  0  0  0  0  0  0  0  0  0  0
   17.5628  -29.6721   13.0946 C   0  0  1  0  0  0  0  0  0  0  0  0
   17.9916  -28.2981   13.1895 O   0  0  0  0  0  0  0  0  0  0  0  0
   18.4742  -30.5506   13.9575 C   0  0  2  0  0  0  0  0  0  0  0  0
   18.7741  -31.8545   13.4157 N   0  3  0  0  0  0  0  0  0  0  0  0
   17.9355  -32.9238   13.2499 C   0  0  0  0  0  0  0  0  0  0  0  0
   18.5601  -33.9550   12.7144 N   0  0  0  0  0  0  0  0  0  0  0  0
   19.8561  -33.5408   12.5627 C   0  0  0  0  0  0  0  0  0  0  0  0
   21.0055  -34.1855   12.0664 C   0  0  0  0  0  0  0  0  0  0  0  0
   20.9831  -35.4789   11.5961 N   0  0  0  0  0  0  0  0  0  0  0  0
   22.1746  -33.5050   12.0437 N   0  0  0  0  0  0  0  0  0  0  0  0
   22.1781  -32.2372   12.5060 C   0  0  0  0  0  0  0  0  0  0  0  0
   21.1500  -31.5180   12.9990 N   0  0  0  0  0  0  0  0  0  0  0  0
   20.0253  -32.2416   12.9925 C   0  0  0  0  0  0  0  0  0  0  0  0
   11.7396  -28.9105   13.7623 H   0  0  0  0  0  0  0  0  0  0  0  0
   12.9659  -29.6112   14.8441 H   0  0  0  0  0  0  0  0  0  0  0  0
   10.8568  -30.9542   14.8992 H   0  0  0  0  0  0  0  0  0  0  0  0
   13.2956  -32.2251   13.5779 H   0  0  0  0  0  0  0  0  0  0  0  0
   12.0989  -34.2732   13.3080 H   0  0  0  0  0  0  0  0  0  0  0  0
   10.0744  -34.6058   14.2248 H   0  0  0  0  0  0  0  0  0  0  0  0
    9.6726  -33.0255   12.5602 H   0  0  0  0  0  0  0  0  0  0  0  0
   12.5609  -31.2722   11.0678 H   0  0  0  0  0  0  0  0  0  0  0  0
   12.3392  -35.3940    6.3784 H   0  0  0  0  0  0  0  0  0  0  0  0
   13.1102  -33.8805    6.8707 H   0  0  0  0  0  0  0  0  0  0  0  0
    9.6274  -36.8176    9.5129 H   0  0  0  0  0  0  0  0  0  0  0  0
   16.0472  -31.3064   16.9067 H   0  0  0  0  0  0  0  0  0  0  0  0
   14.6861  -30.3557   16.2456 H   0  0  0  0  0  0  0  0  0  0  0  0
   16.6875  -29.1244   15.7344 H   0  0  0  0  0  0  0  0  0  0  0  0
   15.7431  -30.7631   13.3062 H   0  0  0  0  0  0  0  0  0  0  0  0
   17.5787  -29.9431   12.0353 H   0  0  0  0  0  0  0  0  0  0  0  0
   17.2323  -27.7878   12.8393 H   0  0  0  0  0  0  0  0  0  0  0  0
   19.4282  -30.0387   14.1401 H   0  0  0  0  0  0  0  0  0  0  0  0
   16.8894  -32.9057   13.5407 H   0  0  0  0  0  0  0  0  0  0  0  0
   21.8397  -35.8958   11.2846 H   0  0  0  0  0  0  0  0  0  0  0  0
   20.1033  -35.9774   11.6491 H   0  0  0  0  0  0  0  0  0  0  0  0
   23.1306  -31.7211   12.4681 H   0  0  0  0  0  0  0  0  0  0  0  0
  1  2  2  6  0  0  0
  1  3  1  0  0  0  0
  1  4  1  0  0  0  0
  1 31  1  0  0  0  0
  4  5  1  0  0  0  0
  5  6  1  0  0  0  0
  5 45  1  0  0  0  0
  5 46  1  0  0  0  0
  6  7  1  0  0  0  0
  6  8  1  0  0  0  0
  6 47  1  1  0  0  0
  7 12  1  0  0  0  0
  8  9  1  0  0  0  0
  8 10  1  0  0  0  0
  8 48  1  6  0  0  0
  9 23  1  0  0  0  0
 10 11  1  0  0  0  0
 10 12  1  0  0  0  0
 10 49  1  6  0  0  0
 11 50  1  0  0  0  0
 12 13  1  0  0  0  0
 12 51  1  1  0  0  0
 13 14  2  0  0  0  0
 13 22  1  0  0  0  0
 14 15  1  0  0  0  0
 14 52  1  0  0  0  0
 15 16  1  0  0  0  0
 16 17  2  0  0  0  0
 16 22  1  0  0  0  0
 17 18  1  0  0  0  0
 17 19  1  0  0  0  0
 18 53  1  0  0  0  0
 18 54  1  0  0  0  0
 19 20  2  0  0  0  0
 20 21  1  0  0  0  0
 20 55  1  0  0  0  0
 21 22  2  0  0  0  0
 23 24  2  6  0  0  0
 23 25  1  0  0  0  0
 23 26  1  0  0  0  0
 26 27  1  0  0  0  0
 27 28  1  0  0  0  0
 27 56  1  0  0  0  0
 27 57  1  0  0  0  0
 28 29  1  0  0  0  0
 28 30  1  0  0  0  0
 28 58  1  1  0  0  0
 29 34  1  0  0  0  0
 30 31  1  0  0  0  0
 30 32  1  0  0  0  0
 30 59  1  6  0  0  0
 32 33  1  0  0  0  0
 32 34  1  0  0  0  0
 32 60  1  6  0  0  0
 33 61  1  0  0  0  0
 34 35  1  0  0  0  0
 34 62  1  1  0  0  0
 35 36  2  0  0  0  0
 35 44  1  0  0  0  0
 36 37  1  0  0  0  0
 36 63  1  0  0  0  0
 37 38  1  0  0  0  0
 38 39  2  0  0  0  0
 38 44  1  0  0  0  0
 39 40  1  0  0  0  0
 39 41  1  0  0  0  0
 40 64  1  0  0  0  0
 40 65  1  0  0  0  0
 41 42  2  0  0  0  0
 42 43  1  0  0  0  0
 42 66  1  0  0  0  0
 43 44  2  0  0  0  0
M  CHG  2  13   1  35   1
M  END
$$$$
