2C9
 OpenBabel04111920273D

 19 19  0  0  0  0  0  0  0  0999 V2000
   12.4404   -5.0578    0.7124 C   0  0  0  0  0  0  0  0  0  0  0  0
   11.6897   -4.4676   -0.4210 C   0  0  0  0  0  0  0  0  0  0  0  0
   12.3144   -3.5605   -1.2918 C   0  0  0  0  0  0  0  0  0  0  0  0
   11.5996   -3.0079   -2.3424 C   0  0  0  0  0  0  0  0  0  0  0  0
   10.2557   -3.3528   -2.5440 C   0  0  0  0  0  0  0  0  0  0  0  0
    9.6424   -4.2473   -1.6759 C   0  0  0  0  0  0  0  0  0  0  0  0
    8.3118   -4.6038   -1.8314 N   0  0  0  0  0  0  0  0  0  0  0  0
   10.3555   -4.8109   -0.6094 C   0  0  0  0  0  0  0  0  0  0  0  0
    9.7342   -5.6947    0.2505 N   0  0  0  0  0  0  0  0  0  0  0  0
   13.4671   -4.6855    0.7245 H   0  0  0  0  0  0  0  0  0  0  0  0
   12.4511   -6.1489    0.6025 H   0  0  0  0  0  0  0  0  0  0  0  0
   11.9434   -4.7799    1.6498 H   0  0  0  0  0  0  0  0  0  0  0  0
   13.3556   -3.2933   -1.1338 H   0  0  0  0  0  0  0  0  0  0  0  0
   12.0872   -2.3051   -3.0082 H   0  0  0  0  0  0  0  0  0  0  0  0
    9.7113   -2.9154   -3.3692 H   0  0  0  0  0  0  0  0  0  0  0  0
    7.7517   -4.2218   -2.5814 H   0  0  0  0  0  0  0  0  0  0  0  0
    7.9010   -5.2515   -1.1887 H   0  0  0  0  0  0  0  0  0  0  0  0
   10.2426   -6.1188    1.0317 H   0  0  0  0  0  0  0  0  0  0  0  0
    8.7737   -5.9389    0.1388 H   0  0  0  0  0  0  0  0  0  0  0  0
  1  2  1  0  0  0  0
  1 10  1  0  0  0  0
  1 11  1  0  0  0  0
  1 12  1  0  0  0  0
  2  3  2  0  0  0  0
  2  8  1  0  0  0  0
  3  4  1  0  0  0  0
  3 13  1  0  0  0  0
  4  5  2  0  0  0  0
  4 14  1  0  0  0  0
  5  6  1  0  0  0  0
  5 15  1  0  0  0  0
  6  7  1  0  0  0  0
  6  8  2  0  0  0  0
  7 16  1  0  0  0  0
  7 17  1  0  0  0  0
  8  9  1  0  0  0  0
  9 18  1  0  0  0  0
  9 19  1  0  0  0  0
M  END
$$$$
