2DJ
 OpenBabel04111920293D

 54 56  0  0  1  0  0  0  0  0999 V2000
   19.9936   10.8508   -0.4252 O   0  0  0  0  0  0  0  0  0  0  0  0
   18.7850   11.1540   -0.6596 C   0  0  0  0  0  0  0  0  0  0  0  0
   18.2286   12.2972   -0.5924 O   0  0  0  0  0  0  0  0  0  0  0  0
   17.8992   10.0242   -1.1506 C   0  0  0  0  0  0  0  0  0  0  0  0
   16.4479   10.2430   -1.0731 N   0  3  1  0  0  0  0  0  0  0  0  0
   15.5962   10.1991   -2.1385 C   0  0  1  0  0  0  0  0  0  0  0  0
   15.8744    9.9736   -3.4702 C   0  0  0  0  0  0  0  0  0  0  0  0
   14.8357    9.9754   -4.3751 C   0  0  0  0  0  0  0  0  0  0  0  0
   13.5198   10.1580   -3.9652 C   0  0  2  0  0  0  0  0  0  0  0  0
   12.5808   10.1887   -4.9515 O   0  0  0  0  0  0  0  0  0  0  0  0
   11.4767    9.2897   -4.8150 C   0  0  0  0  0  0  0  0  0  0  0  0
   13.2436   10.4081   -2.6352 C   0  0  0  0  0  0  0  0  0  0  0  0
   14.2931   10.4197   -1.7153 C   0  0  1  0  0  0  0  0  0  0  0  0
   14.3338   10.6099   -0.3540 C   0  0  0  0  0  0  0  0  0  0  0  0
   15.6374   10.4825   -0.0032 C   0  0  2  0  0  0  0  0  0  0  0  0
   16.1723   10.6333    1.2864 C   0  0  0  0  0  0  0  0  0  0  0  0
   17.0288    9.9577    1.6962 O   0  0  0  0  0  0  0  0  0  0  0  0
   15.5207   11.6594    1.9850 N   0  0  0  0  0  0  0  0  0  0  0  0
   16.2925   12.0731    3.3550 S   0  0  0  0  0  0  0  0  0  0  0  0
   15.7954   13.3580    3.8082 O   0  0  0  0  0  0  0  0  0  0  0  0
   17.7161   11.8494    3.2059 O   0  0  0  0  0  0  0  0  0  0  0  0
   15.7736   10.8442    4.5338 C   0  0  2  0  0  0  0  0  0  0  0  0
   14.7228   11.2112    5.3300 C   0  0  0  0  0  0  0  0  0  0  0  0
   14.3581   10.3717    6.3190 C   0  0  0  0  0  0  0  0  0  0  0  0
   15.0270    9.1676    6.5491 C   0  0  1  0  0  0  0  0  0  0  0  0
   14.5008    8.3560    7.6706 C   0  0  0  0  0  0  0  0  0  0  0  0
   13.6126    7.2676    7.0955 C   0  0  0  0  0  0  0  0  0  0  0  0
   15.6305    7.7434    8.4672 C   0  0  0  0  0  0  0  0  0  0  0  0
   13.7136    9.3074    8.5738 C   0  0  0  0  0  0  0  0  0  0  0  0
   16.1066    8.7877    5.7486 C   0  0  0  0  0  0  0  0  0  0  0  0
   16.4961    9.6420    4.7329 C   0  0  0  0  0  0  0  0  0  0  0  0
   18.1430    9.1135   -0.5983 H   0  0  0  0  0  0  0  0  0  0  0  0
   18.1611    9.8591   -2.2058 H   0  0  0  0  0  0  0  0  0  0  0  0
   16.8963    9.8088   -3.7515 H   0  0  0  0  0  0  0  0  0  0  0  0
   15.0754    9.8142   -5.4145 H   0  0  0  0  0  0  0  0  0  0  0  0
   10.8163    9.4248   -5.6912 H   0  0  0  0  0  0  0  0  0  0  0  0
   10.8976    9.5053   -3.9155 H   0  0  0  0  0  0  0  0  0  0  0  0
   11.8195    8.2497   -4.8096 H   0  0  0  0  0  0  0  0  0  0  0  0
   12.2617   10.6029   -2.2443 H   0  0  0  0  0  0  0  0  0  0  0  0
   13.4889   10.8213    0.2906 H   0  0  0  0  0  0  0  0  0  0  0  0
   14.8072   12.2393    1.5384 H   0  0  0  0  0  0  0  0  0  0  0  0
   14.1892   12.1274    5.2035 H   0  0  0  0  0  0  0  0  0  0  0  0
   13.5396   10.7186    6.9140 H   0  0  0  0  0  0  0  0  0  0  0  0
   13.2201    6.6677    7.9141 H   0  0  0  0  0  0  0  0  0  0  0  0
   14.1901    6.6234    6.4201 H   0  0  0  0  0  0  0  0  0  0  0  0
   12.7798    7.7044    6.5316 H   0  0  0  0  0  0  0  0  0  0  0  0
   16.2855    8.5298    8.8557 H   0  0  0  0  0  0  0  0  0  0  0  0
   16.2186    7.0707    7.8377 H   0  0  0  0  0  0  0  0  0  0  0  0
   15.2059    7.1775    9.2915 H   0  0  0  0  0  0  0  0  0  0  0  0
   12.8455    9.7315    8.0446 H   0  0  0  0  0  0  0  0  0  0  0  0
   14.3723   10.1270    8.9164 H   0  0  0  0  0  0  0  0  0  0  0  0
   13.2742    8.7905    9.4016 H   0  0  0  0  0  0  0  0  0  0  0  0
   16.6282    7.8526    5.9176 H   0  0  0  0  0  0  0  0  0  0  0  0
   17.3360    9.3957    4.1025 H   0  0  0  0  0  0  0  0  0  0  0  0
  1  2  2  0  0  0  0
  2  3  1  0  0  0  0
  2  4  1  0  0  0  0
  4 32  1  0  0  0  0
  4 33  1  0  0  0  0
  5  4  1  1  0  0  0
  5  6  1  0  0  0  0
  5 15  1  0  0  0  0
  6  7  1  1  0  0  0
  6 13  1  0  0  0  0
  7  8  1  0  0  0  0
  7 34  1  0  0  0  0
  8  9  1  0  0  0  0
  8 35  1  0  0  0  0
  9 10  1  6  0  0  0
  9 12  1  0  0  0  0
 10 11  1  0  0  0  0
 11 36  1  0  0  0  0
 11 37  1  0  0  0  0
 11 38  1  0  0  0  0
 12 39  1  0  0  0  0
 13 12  1  1  0  0  0
 13 14  1  0  0  0  0
 14 15  1  0  0  0  0
 14 40  1  0  0  0  0
 15 16  1  6  0  0  0
 16 17  2  0  0  0  0
 16 18  1  0  0  0  0
 18 19  1  0  0  0  0
 18 41  1  0  0  0  0
 19 20  2  0  0  0  0
 19 21  2  0  0  0  0
 22 19  1  1  0  0  0
 22 23  1  0  0  0  0
 22 31  1  0  0  0  0
 23 24  1  0  0  0  0
 23 42  1  0  0  0  0
 24 25  1  0  0  0  0
 24 43  1  0  0  0  0
 25 26  1  6  0  0  0
 25 30  1  0  0  0  0
 26 27  1  0  0  0  0
 26 28  1  0  0  0  0
 26 29  1  0  0  0  0
 27 44  1  0  0  0  0
 27 45  1  0  0  0  0
 27 46  1  0  0  0  0
 28 47  1  0  0  0  0
 28 48  1  0  0  0  0
 28 49  1  0  0  0  0
 29 50  1  0  0  0  0
 29 51  1  0  0  0  0
 29 52  1  0  0  0  0
 30 31  1  0  0  0  0
 30 53  1  0  0  0  0
 31 54  1  0  0  0  0
M  CHG  1   5   1
M  END
$$$$
