2DW
 OpenBabel04111920303D

 48 51  0  0  1  0  0  0  0  0999 V2000
   19.8586   10.7300   -0.9991 O   0  0  0  0  0  0  0  0  0  0  0  0
   18.6688   11.1691   -1.0229 C   0  0  0  0  0  0  0  0  0  0  0  0
   18.2492   12.3396   -0.8010 O   0  0  0  0  0  0  0  0  0  0  0  0
   17.6486   10.1394   -1.4570 C   0  0  0  0  0  0  0  0  0  0  0  0
   16.2263   10.4674   -1.4123 N   0  3  1  0  0  0  0  0  0  0  0  0
   15.3897   10.3708   -2.5138 C   0  0  1  0  0  0  0  0  0  0  0  0
   15.6804   10.1107   -3.8586 C   0  0  0  0  0  0  0  0  0  0  0  0
   14.6251   10.0332   -4.7659 C   0  0  0  0  0  0  0  0  0  0  0  0
   13.3076   10.1966   -4.3488 C   0  0  2  0  0  0  0  0  0  0  0  0
   12.3861   10.0973   -5.3576 O   0  0  0  0  0  0  0  0  0  0  0  0
   11.0772    9.7107   -4.9620 C   0  0  0  0  0  0  0  0  0  0  0  0
   13.0205   10.4771   -3.0071 C   0  0  0  0  0  0  0  0  0  0  0  0
   14.0832   10.5640   -2.0717 C   0  0  1  0  0  0  0  0  0  0  0  0
   14.1559   10.8095   -0.6723 C   0  0  0  0  0  0  0  0  0  0  0  0
   15.4874   10.7374   -0.2706 C   0  0  1  0  0  0  0  0  0  0  0  0
   16.0668   10.8669    1.0560 C   0  0  0  0  0  0  0  0  0  0  0  0
   17.0472   10.2551    1.4483 O   0  0  0  0  0  0  0  0  0  0  0  0
   15.3008   11.6752    1.8948 N   0  0  0  0  0  0  0  0  0  0  0  0
   15.7957   12.2099    3.3811 S   0  0  0  0  0  0  0  0  0  0  0  0
   14.9307   13.3275    3.7136 O   0  0  0  0  0  0  0  0  0  0  0  0
   17.2292   12.3292    3.4800 O   0  0  0  0  0  0  0  0  0  0  0  0
   15.2654   10.8775    4.4214 C   0  0  1  0  0  0  0  0  0  0  0  0
   16.1849   10.2001    5.2250 C   0  0  0  0  0  0  0  0  0  0  0  0
   15.7267    9.2336    6.1168 C   0  0  1  0  0  0  0  0  0  0  0  0
   16.6026    8.5497    6.9774 C   0  0  0  0  0  0  0  0  0  0  0  0
   16.1172    7.6138    7.8939 C   0  0  0  0  0  0  0  0  0  0  0  0
   14.7524    7.3493    7.9689 C   0  0  0  0  0  0  0  0  0  0  0  0
   13.8631    8.0092    7.1246 C   0  0  0  0  0  0  0  0  0  0  0  0
   14.3308    8.9526    6.2018 C   0  0  2  0  0  0  0  0  0  0  0  0
   13.4354    9.6204    5.3549 C   0  0  0  0  0  0  0  0  0  0  0  0
   13.9005   10.5845    4.4694 C   0  0  0  0  0  0  0  0  0  0  0  0
   17.7659    9.2048   -0.8990 H   0  0  0  0  0  0  0  0  0  0  0  0
   17.9069    9.9184   -2.4962 H   0  0  0  0  0  0  0  0  0  0  0  0
   16.6989    9.9755   -4.2054 H   0  0  0  0  0  0  0  0  0  0  0  0
   14.8455    9.8309   -5.8090 H   0  0  0  0  0  0  0  0  0  0  0  0
   10.4789    9.5982   -5.8714 H   0  0  0  0  0  0  0  0  0  0  0  0
   10.6017   10.4782   -4.3492 H   0  0  0  0  0  0  0  0  0  0  0  0
   11.0946    8.7423   -4.4495 H   0  0  0  0  0  0  0  0  0  0  0  0
   12.0103   10.6449   -2.6601 H   0  0  0  0  0  0  0  0  0  0  0  0
   13.3044   10.9731   -0.0247 H   0  0  0  0  0  0  0  0  0  0  0  0
   14.4999   12.1718    1.5320 H   0  0  0  0  0  0  0  0  0  0  0  0
   17.2442   10.4345    5.1544 H   0  0  0  0  0  0  0  0  0  0  0  0
   17.6668    8.7507    6.9356 H   0  0  0  0  0  0  0  0  0  0  0  0
   16.8094    7.0960    8.5461 H   0  0  0  0  0  0  0  0  0  0  0  0
   14.3787    6.6216    8.6832 H   0  0  0  0  0  0  0  0  0  0  0  0
   12.8005    7.7862    7.1935 H   0  0  0  0  0  0  0  0  0  0  0  0
   12.3703    9.4045    5.3916 H   0  0  0  0  0  0  0  0  0  0  0  0
   13.1975   11.1157    3.8331 H   0  0  0  0  0  0  0  0  0  0  0  0
  1  2  2  0  0  0  0
  2  3  1  0  0  0  0
  2  4  1  0  0  0  0
  4 32  1  0  0  0  0
  4 33  1  0  0  0  0
  5  4  1  1  0  0  0
  5  6  1  0  0  0  0
  5 15  1  0  0  0  0
  6  7  1  1  0  0  0
  6 13  1  0  0  0  0
  7  8  1  0  0  0  0
  7 34  1  0  0  0  0
  8  9  1  0  0  0  0
  8 35  1  0  0  0  0
  9 10  1  6  0  0  0
  9 12  1  0  0  0  0
 10 11  1  0  0  0  0
 11 36  1  0  0  0  0
 11 37  1  0  0  0  0
 11 38  1  0  0  0  0
 12 39  1  0  0  0  0
 13 12  1  1  0  0  0
 13 14  1  0  0  0  0
 14 15  1  0  0  0  0
 14 40  1  0  0  0  0
 15 16  1  1  0  0  0
 16 17  2  0  0  0  0
 16 18  1  0  0  0  0
 18 19  1  0  0  0  0
 18 41  1  0  0  0  0
 19 20  2  0  0  0  0
 19 21  2  0  0  0  0
 22 19  1  1  0  0  0
 22 23  1  0  0  0  0
 22 31  1  0  0  0  0
 23 42  1  0  0  0  0
 24 23  1  1  0  0  0
 24 25  1  0  0  0  0
 24 29  1  0  0  0  0
 25 26  1  0  0  0  0
 25 43  1  0  0  0  0
 26 27  1  0  0  0  0
 26 44  1  0  0  0  0
 27 28  1  0  0  0  0
 27 45  1  0  0  0  0
 28 46  1  0  0  0  0
 29 28  1  6  0  0  0
 29 30  1  0  0  0  0
 30 31  1  0  0  0  0
 30 47  1  0  0  0  0
 31 48  1  0  0  0  0
M  CHG  1   5   1
M  END
$$$$
