2F6
 OpenBabel04111920583D

 22 23  0  0  0  0  0  0  0  0999 V2000
   18.1366   18.5463   16.7876 N   0  0  0  0  0  0  0  0  0  0  0  0
   18.6943   18.7597   14.4349 C   0  0  0  0  0  0  0  0  0  0  0  0
   16.5166   19.4102   15.4611 C   0  0  0  0  0  0  0  0  0  0  0  0
   16.0228   19.3865   16.7437 C   0  0  0  0  0  0  0  0  0  0  0  0
   14.6689   19.8443   17.1017 C   0  0  0  0  0  0  0  0  0  0  0  0
   12.5325   20.3540   17.0848 C   0  0  0  0  0  0  0  0  0  0  0  0
   17.0421   18.5050   18.9853 C   0  0  0  0  0  0  0  0  0  0  0  0
   17.0599   18.8390   17.5376 C   0  0  0  0  0  0  0  0  0  0  0  0
   17.7772   18.9109   15.5394 N   0  3  0  0  0  0  0  0  0  0  0  0
   13.5743   19.8785   16.2739 C   0  0  0  0  0  0  0  0  0  0  0  0
   12.9299   20.6320   18.3261 N   0  0  0  0  0  0  0  0  0  0  0  0
   14.2392   20.3114   18.3109 N   0  3  0  0  0  0  0  0  0  0  0  0
   18.2268   19.1429   13.5236 H   0  0  0  0  0  0  0  0  0  0  0  0
   18.9219   17.6987   14.3118 H   0  0  0  0  0  0  0  0  0  0  0  0
   19.5990   19.3330   14.6507 H   0  0  0  0  0  0  0  0  0  0  0  0
   16.0924   19.7662   14.5337 H   0  0  0  0  0  0  0  0  0  0  0  0
   11.4886   20.5027   16.8164 H   0  0  0  0  0  0  0  0  0  0  0  0
   16.0923   18.7690   19.4548 H   0  0  0  0  0  0  0  0  0  0  0  0
   17.8327   19.0419   19.5180 H   0  0  0  0  0  0  0  0  0  0  0  0
   17.1787   17.4295   19.1381 H   0  0  0  0  0  0  0  0  0  0  0  0
   13.5269   19.5550   15.2454 H   0  0  0  0  0  0  0  0  0  0  0  0
   14.7802   20.4846   19.1514 H   0  0  0  0  0  0  0  0  0  0  0  0
  1  8  1  0  0  0  0
  1  9  1  0  0  0  0
  2  9  1  0  0  0  0
  2 13  1  0  0  0  0
  2 14  1  0  0  0  0
  2 15  1  0  0  0  0
  3  4  1  0  0  0  0
  3  9  2  0  0  0  0
  3 16  1  0  0  0  0
  4  5  1  0  0  0  0
  4  8  2  0  0  0  0
  5 10  1  0  0  0  0
  5 12  2  0  0  0  0
  6 10  2  0  0  0  0
  6 11  1  0  0  0  0
  6 17  1  0  0  0  0
  7  8  1  0  0  0  0
  7 18  1  0  0  0  0
  7 19  1  0  0  0  0
  7 20  1  0  0  0  0
 10 21  1  0  0  0  0
 11 12  1  0  0  0  0
 12 22  1  0  0  0  0
M  CHG  2   9   1  12   1
M  END
$$$$
