2FQ
 OpenBabel04111920313D

 24 25  0  0  0  0  0  0  0  0999 V2000
  -28.6313  -28.5172    4.6090 O   0  0  0  0  0  0  0  0  0  0  0  0
  -27.6321  -28.2245    3.9691 C   0  0  0  0  0  0  0  0  0  0  0  0
  -27.8212  -27.9625    2.4967 C   0  0  0  0  0  0  0  0  0  0  0  0
  -28.9995  -28.0631    1.9664 N   0  0  0  0  0  0  0  0  0  0  0  0
  -26.6235  -27.5911    1.6904 C   0  0  0  0  0  0  0  0  0  0  0  0
  -26.3749  -28.1285    4.5202 N   0  0  0  0  0  0  0  0  0  0  0  0
  -26.2334  -28.4016    5.9377 C   0  0  0  0  0  0  0  0  0  0  0  0
  -25.2255  -27.7787    3.7804 C   0  0  0  0  0  0  0  0  0  0  0  0
  -25.3449  -27.5193    2.4348 C   0  0  0  0  0  0  0  0  0  0  0  0
  -24.1886  -27.1792    1.7638 C   0  0  0  0  0  0  0  0  0  0  0  0
  -22.9936  -27.0981    2.3525 N   0  0  0  0  0  0  0  0  0  0  0  0
  -24.0403  -27.7086    4.4104 N   0  0  0  0  0  0  0  0  0  0  0  0
  -22.9703  -27.3741    3.6703 C   0  0  0  0  0  0  0  0  0  0  0  0
  -21.6488  -27.3087    4.3605 C   0  0  0  0  0  0  0  0  0  0  0  0
  -29.0254  -27.8661    0.9630 H   0  0  0  0  0  0  0  0  0  0  0  0
  -26.8305  -26.6094    1.2532 H   0  0  0  0  0  0  0  0  0  0  0  0
  -26.5301  -28.3443    0.9016 H   0  0  0  0  0  0  0  0  0  0  0  0
  -27.2087  -28.6580    6.3816 H   0  0  0  0  0  0  0  0  0  0  0  0
  -25.8607  -27.5181    6.4627 H   0  0  0  0  0  0  0  0  0  0  0  0
  -25.5712  -29.2568    6.0964 H   0  0  0  0  0  0  0  0  0  0  0  0
  -24.1979  -26.9599    0.6985 H   0  0  0  0  0  0  0  0  0  0  0  0
  -20.8585  -27.0261    3.6580 H   0  0  0  0  0  0  0  0  0  0  0  0
  -21.4085  -28.2887    4.7839 H   0  0  0  0  0  0  0  0  0  0  0  0
  -21.6858  -26.5686    5.1655 H   0  0  0  0  0  0  0  0  0  0  0  0
  1  2  2  0  0  0  0
  2  3  1  0  0  0  0
  2  6  1  0  0  0  0
  3  4  2  0  0  0  0
  3  5  1  0  0  0  0
  4 15  1  0  0  0  0
  5  9  1  0  0  0  0
  5 16  1  0  0  0  0
  5 17  1  0  0  0  0
  6  7  1  0  0  0  0
  6  8  1  0  0  0  0
  7 18  1  0  0  0  0
  7 19  1  0  0  0  0
  7 20  1  0  0  0  0
  8  9  2  0  0  0  0
  8 12  1  0  0  0  0
  9 10  1  0  0  0  0
 10 11  2  0  0  0  0
 10 21  1  0  0  0  0
 11 13  1  0  0  0  0
 12 13  2  0  0  0  0
 13 14  1  0  0  0  0
 14 22  1  0  0  0  0
 14 23  1  0  0  0  0
 14 24  1  0  0  0  0
M  END
$$$$
