2GQ
 OpenBabel04111920313D

 21 22  0  0  0  0  0  0  0  0999 V2000
   28.9960   29.2708   -5.4950 O   0  0  0  0  0  0  0  0  0  0  0  0
   28.8158   28.7854   -4.3947 C   0  0  0  0  0  0  0  0  0  0  0  0
   28.6128   27.3601   -4.0942 C   0  0  0  0  0  0  0  0  0  0  0  0
   28.6861   26.4331   -5.1214 C   0  0  0  0  0  0  0  0  0  0  0  0
   28.5166   25.0798   -4.8396 C   0  0  0  0  0  0  0  0  0  0  0  0
   28.7823   29.6551   -3.2717 N   0  0  0  0  0  0  0  0  0  0  0  0
   28.5674   29.3341   -2.0351 C   0  0  0  0  0  0  0  0  0  0  0  0
   28.3334   27.9179   -1.6662 C   0  0  0  0  0  0  0  0  0  0  0  0
   28.3687   26.9420   -2.7872 C   0  0  0  0  0  0  0  0  0  0  0  0
   28.1762   25.5853   -2.5136 C   0  0  0  0  0  0  0  0  0  0  0  0
   28.2536   24.6584   -3.5422 C   0  0  0  0  0  0  0  0  0  0  0  0
   28.5510   30.2320   -1.0848 N   0  0  0  0  0  0  0  0  0  0  0  0
   28.8823   26.7471   -6.1370 H   0  0  0  0  0  0  0  0  0  0  0  0
   28.5873   24.3475   -5.6383 H   0  0  0  0  0  0  0  0  0  0  0  0
   28.9356   30.6300   -3.4767 H   0  0  0  0  0  0  0  0  0  0  0  0
   27.3456   27.8642   -1.2145 H   0  0  0  0  0  0  0  0  0  0  0  0
   29.1155   27.6342   -0.9637 H   0  0  0  0  0  0  0  0  0  0  0  0
   27.9697   25.2389   -1.5027 H   0  0  0  0  0  0  0  0  0  0  0  0
   28.1100   23.6012   -3.3391 H   0  0  0  0  0  0  0  0  0  0  0  0
   28.3808   30.0158   -0.1058 H   0  0  0  0  0  0  0  0  0  0  0  0
   28.7114   31.1988   -1.3313 H   0  0  0  0  0  0  0  0  0  0  0  0
  1  2  2  0  0  0  0
  2  3  1  0  0  0  0
  2  6  1  0  0  0  0
  3  4  2  0  0  0  0
  3  9  1  0  0  0  0
  4  5  1  0  0  0  0
  4 13  1  0  0  0  0
  5 11  2  0  0  0  0
  5 14  1  0  0  0  0
  6  7  1  0  0  0  0
  6 15  1  0  0  0  0
  7  8  1  0  0  0  0
  7 12  2  0  0  0  0
  8  9  1  0  0  0  0
  8 16  1  0  0  0  0
  8 17  1  0  0  0  0
  9 10  2  0  0  0  0
 10 11  1  0  0  0  0
 10 18  1  0  0  0  0
 11 19  1  0  0  0  0
 12 20  1  0  0  0  0
 12 21  1  0  0  0  0
M  END
$$$$
