2H8
 OpenBabel04111919553D

 44 44  0  0  1  0  0  0  0  0999 V2000
  -26.7198  -22.7564  -12.1394 C   0  0  0  0  0  0  0  0  0  0  0  0
  -26.2913  -21.5753  -12.9971 C   0  0  0  0  0  0  0  0  0  0  0  0
  -26.6872  -20.1951  -12.4259 C   0  0  0  0  0  0  0  0  0  0  0  0
  -28.2155  -20.0466  -12.2801 C   0  0  0  0  0  0  0  0  0  0  0  0
  -28.6425  -18.6265  -11.9195 C   0  0  0  0  0  0  0  0  0  0  0  0
  -26.1047  -19.9499  -11.1414 O   0  0  0  0  0  0  0  0  0  0  0  0
  -24.6769  -19.8279  -11.1133 C   0  0  2  0  0  0  0  0  0  0  0  0
  -24.1545  -20.7049   -9.9687 C   0  0  0  0  0  0  0  0  0  0  0  0
  -22.7209  -20.4313   -9.6147 C   0  0  0  0  0  0  0  0  0  0  0  0
  -21.9113  -21.5965   -9.0021 C   0  0  0  0  0  0  0  0  0  0  0  0
  -22.4346  -22.7278   -9.1334 O   0  0  0  0  0  0  0  0  0  0  0  0
  -20.7806  -21.2540   -8.5504 O   0  0  0  0  0  0  0  0  0  0  0  0
  -22.0850  -19.2892   -9.9247 C   0  0  0  0  0  0  0  0  0  0  0  0
  -22.7103  -18.2904  -10.8091 C   0  0  2  0  0  0  0  0  0  0  0  0
  -22.2441  -16.9181  -10.5114 N   0  3  0  0  0  0  0  0  0  0  0  0
  -24.2533  -18.3562  -10.8873 C   0  0  1  0  0  0  0  0  0  0  0  0
  -24.6853  -17.4888  -11.9921 N   0  0  0  0  0  0  0  0  0  0  0  0
  -25.5867  -16.4579  -11.8069 C   0  0  0  0  0  0  0  0  0  0  0  0
  -25.9296  -16.0613  -10.7035 O   0  0  0  0  0  0  0  0  0  0  0  0
  -25.9894  -15.7959  -13.0947 C   0  0  0  0  0  0  0  0  0  0  0  0
  -26.3860  -23.6948  -12.5948 H   0  0  0  0  0  0  0  0  0  0  0  0
  -27.8075  -22.8030  -12.0476 H   0  0  0  0  0  0  0  0  0  0  0  0
  -26.2876  -22.6985  -11.1372 H   0  0  0  0  0  0  0  0  0  0  0  0
  -26.7127  -21.6891  -14.0030 H   0  0  0  0  0  0  0  0  0  0  0  0
  -25.2045  -21.6385  -13.1194 H   0  0  0  0  0  0  0  0  0  0  0  0
  -26.3349  -19.4245  -13.1205 H   0  0  0  0  0  0  0  0  0  0  0  0
  -28.5877  -20.7080  -11.4887 H   0  0  0  0  0  0  0  0  0  0  0  0
  -28.7096  -20.3328  -13.2155 H   0  0  0  0  0  0  0  0  0  0  0  0
  -29.7332  -18.5684  -11.8312 H   0  0  0  0  0  0  0  0  0  0  0  0
  -28.3347  -17.9173  -12.6931 H   0  0  0  0  0  0  0  0  0  0  0  0
  -28.2147  -18.3074  -10.9641 H   0  0  0  0  0  0  0  0  0  0  0  0
  -24.2303  -20.1669  -12.0557 H   0  0  0  0  0  0  0  0  0  0  0  0
  -24.3105  -21.7501  -10.2531 H   0  0  0  0  0  0  0  0  0  0  0  0
  -24.7632  -20.5446   -9.0688 H   0  0  0  0  0  0  0  0  0  0  0  0
  -21.0464  -19.1564   -9.6176 H   0  0  0  0  0  0  0  0  0  0  0  0
  -22.3229  -18.4813  -11.8203 H   0  0  0  0  0  0  0  0  0  0  0  0
  -22.7251  -16.2401  -11.1129 H   0  0  0  0  0  0  0  0  0  0  0  0
  -22.4374  -16.6770   -9.5331 H   0  0  0  0  0  0  0  0  0  0  0  0
  -24.7079  -18.0006   -9.9468 H   0  0  0  0  0  0  0  0  0  0  0  0
  -24.5400  -17.8201  -12.9384 H   0  0  0  0  0  0  0  0  0  0  0  0
  -26.6690  -14.9649  -12.8820 H   0  0  0  0  0  0  0  0  0  0  0  0
  -26.4927  -16.5064  -13.7541 H   0  0  0  0  0  0  0  0  0  0  0  0
  -25.0946  -15.4060  -13.5914 H   0  0  0  0  0  0  0  0  0  0  0  0
  -21.2321  -16.8586  -10.6653 H   0  0  0  0  0  0  0  0  0  0  0  0
  1  2  1  0  0  0  0
  1 21  1  0  0  0  0
  1 22  1  0  0  0  0
  1 23  1  0  0  0  0
  2  3  1  0  0  0  0
  2 24  1  0  0  0  0
  2 25  1  0  0  0  0
  3  4  1  0  0  0  0
  3  6  1  0  0  0  0
  3 26  1  0  0  0  0
  4  5  1  0  0  0  0
  4 27  1  0  0  0  0
  4 28  1  0  0  0  0
  5 29  1  0  0  0  0
  5 30  1  0  0  0  0
  5 31  1  0  0  0  0
  6  7  1  0  0  0  0
  7  8  1  0  0  0  0
  7 16  1  0  0  0  0
  7 32  1  6  0  0  0
  8  9  1  0  0  0  0
  8 33  1  0  0  0  0
  8 34  1  0  0  0  0
  9 10  1  0  0  0  0
  9 13  2  0  0  0  0
 10 11  2  0  0  0  0
 10 12  1  0  0  0  0
 13 14  1  0  0  0  0
 13 35  1  0  0  0  0
 14 15  1  0  0  0  0
 14 16  1  0  0  0  0
 14 36  1  6  0  0  0
 15 37  1  0  0  0  0
 15 38  1  0  0  0  0
 15 44  1  0  0  0  0
 16 17  1  0  0  0  0
 16 39  1  1  0  0  0
 17 18  1  0  0  0  0
 17 40  1  0  0  0  0
 18 19  2  0  0  0  0
 18 20  1  0  0  0  0
 20 41  1  0  0  0  0
 20 42  1  0  0  0  0
 20 43  1  0  0  0  0
M  CHG  1  15   1
M  END
$$$$
