2HN
 OpenBabel04111918003D

 35 36  0  0  1  0  0  0  0  0999 V2000
   29.7889   46.6206    4.3018 F   0  0  0  0  0  0  0  0  0  0  0  0
   29.6797   47.4931    5.3132 C   0  0  0  0  0  0  0  0  0  0  0  0
   29.4135   48.8291    5.0272 C   0  0  0  0  0  0  0  0  0  0  0  0
   29.2782   49.2331    3.7547 F   0  0  0  0  0  0  0  0  0  0  0  0
   29.3008   49.7474    6.0615 C   0  0  0  0  0  0  0  0  0  0  0  0
   29.0626   51.0392    5.7871 F   0  0  0  0  0  0  0  0  0  0  0  0
   29.4463   49.3333    7.3773 C   0  0  0  0  0  0  0  0  0  0  0  0
   29.3429   50.2212    8.3768 F   0  0  0  0  0  0  0  0  0  0  0  0
   29.7288   48.0034    7.6598 C   0  0  0  0  0  0  0  0  0  0  0  0
   29.8872   47.6202    8.9360 F   0  0  0  0  0  0  0  0  0  0  0  0
   29.8483   47.0629    6.6390 C   0  0  0  0  0  0  0  0  0  0  0  0
   30.1610   45.6236    6.9476 C   0  0  0  0  0  0  0  0  0  0  0  0
   28.9027   44.7696    7.1731 C   0  0  1  0  0  0  0  0  0  0  0  0
   29.1688   43.2533    7.1917 C   0  0  1  0  0  0  0  0  0  0  0  0
   27.8566   42.6283    7.0984 O   0  0  0  0  0  0  0  0  0  0  0  0
   29.9920   42.8992    5.9064 C   0  0  0  0  0  0  0  0  0  0  0  0
   29.2609   42.8658    4.8664 O   0  0  0  0  0  0  0  0  0  0  0  0
   31.2471   42.7478    6.0462 O   0  0  0  0  0  0  0  0  0  0  0  0
   28.2322   45.1636    8.4987 C   0  0  0  0  0  0  0  0  0  0  0  0
   27.3486   46.0246    8.5352 O   0  0  0  0  0  0  0  0  0  0  0  0
   28.8450   44.6072    9.7898 C   0  0  1  0  0  0  0  0  0  0  0  0
   28.0745   44.8943   10.9616 O   0  0  0  0  0  0  0  0  0  0  0  0
   29.0472   43.0997    9.6901 C   0  0  2  0  0  0  0  0  0  0  0  0
   29.7419   42.6425   10.8600 O   0  0  0  0  0  0  0  0  0  0  0  0
   29.8695   42.7670    8.4569 C   0  0  0  0  0  0  0  0  0  0  0  0
   30.8267   45.5762    7.8190 H   0  0  0  0  0  0  0  0  0  0  0  0
   30.7548   45.2458    6.1104 H   0  0  0  0  0  0  0  0  0  0  0  0
   28.1632   44.9862    6.3867 H   0  0  0  0  0  0  0  0  0  0  0  0
   27.6746   42.6598    6.1263 H   0  0  0  0  0  0  0  0  0  0  0  0
   29.8072   45.1085    9.9414 H   0  0  0  0  0  0  0  0  0  0  0  0
   27.9085   45.8562   10.9312 H   0  0  0  0  0  0  0  0  0  0  0  0
   28.0844   42.5747    9.6730 H   0  0  0  0  0  0  0  0  0  0  0  0
   29.1901   42.9456   11.6063 H   0  0  0  0  0  0  0  0  0  0  0  0
   30.8660   43.2198    8.5540 H   0  0  0  0  0  0  0  0  0  0  0  0
   30.0402   41.6848    8.4171 H   0  0  0  0  0  0  0  0  0  0  0  0
  1  2  1  0  0  0  0
  2  3  2  0  0  0  0
  2 11  1  0  0  0  0
  3  4  1  0  0  0  0
  3  5  1  0  0  0  0
  5  6  1  0  0  0  0
  5  7  2  0  0  0  0
  7  8  1  0  0  0  0
  7  9  1  0  0  0  0
  9 10  1  0  0  0  0
  9 11  2  0  0  0  0
 11 12  1  0  0  0  0
 12 13  1  0  0  0  0
 12 26  1  0  0  0  0
 12 27  1  0  0  0  0
 13 14  1  0  0  0  0
 13 19  1  0  0  0  0
 13 28  1  6  0  0  0
 14 15  1  6  0  0  0
 14 16  1  0  0  0  0
 14 25  1  0  0  0  0
 15 29  1  0  0  0  0
 16 17  2  0  0  0  0
 16 18  1  0  0  0  0
 19 20  2  0  0  0  0
 19 21  1  0  0  0  0
 21 22  1  0  0  0  0
 21 23  1  0  0  0  0
 21 30  1  1  0  0  0
 22 31  1  0  0  0  0
 23 24  1  0  0  0  0
 23 25  1  0  0  0  0
 23 32  1  6  0  0  0
 24 33  1  0  0  0  0
 25 34  1  0  0  0  0
 25 35  1  0  0  0  0
M  END
$$$$
