2HN
 OpenBabel04111918013D

 35 36  0  0  1  0  0  0  0  0999 V2000
   26.8858   48.9143  -15.1894 F   0  0  0  0  0  0  0  0  0  0  0  0
   25.8198   48.8550  -16.0016 C   0  0  0  0  0  0  0  0  0  0  0  0
   26.0201   48.6870  -17.3703 C   0  0  0  0  0  0  0  0  0  0  0  0
   27.2590   48.5843  -17.8567 F   0  0  0  0  0  0  0  0  0  0  0  0
   24.9365   48.6252  -18.2359 C   0  0  0  0  0  0  0  0  0  0  0  0
   25.1394   48.4715  -19.5522 F   0  0  0  0  0  0  0  0  0  0  0  0
   23.6544   48.7329  -17.7323 C   0  0  0  0  0  0  0  0  0  0  0  0
   22.6091   48.6842  -18.5709 F   0  0  0  0  0  0  0  0  0  0  0  0
   23.4496   48.9197  -16.3619 C   0  0  0  0  0  0  0  0  0  0  0  0
   22.1887   49.0286  -15.9196 F   0  0  0  0  0  0  0  0  0  0  0  0
   24.5219   48.9873  -15.4600 C   0  0  0  0  0  0  0  0  0  0  0  0
   24.3196   49.2249  -13.9676 C   0  0  0  0  0  0  0  0  0  0  0  0
   24.1571   47.9525  -13.1133 C   0  0  1  0  0  0  0  0  0  0  0  0
   24.0984   48.1683  -11.5841 C   0  0  1  0  0  0  0  0  0  0  0  0
   24.1729   46.8552  -10.9600 O   0  0  0  0  0  0  0  0  0  0  0  0
   25.3609   48.9979  -11.2192 C   0  0  0  0  0  0  0  0  0  0  0  0
   26.4366   48.3282  -11.2920 O   0  0  0  0  0  0  0  0  0  0  0  0
   25.1962   50.2244  -10.9851 O   0  0  0  0  0  0  0  0  0  0  0  0
   22.8478   47.3086  -13.5061 C   0  0  0  0  0  0  0  0  0  0  0  0
   22.7994   46.4015  -14.3531 O   0  0  0  0  0  0  0  0  0  0  0  0
   21.5444   47.9464  -13.0127 C   0  0  1  0  0  0  0  0  0  0  0  0
   20.3834   47.2468  -13.4622 O   0  0  0  0  0  0  0  0  0  0  0  0
   21.5806   48.0598  -11.4936 C   0  0  2  0  0  0  0  0  0  0  0  0
   20.4284   48.7941  -11.0467 O   0  0  0  0  0  0  0  0  0  0  0  0
   22.8261   48.8498  -11.1070 C   0  0  0  0  0  0  0  0  0  0  0  0
   23.4472   49.8712  -13.8365 H   0  0  0  0  0  0  0  0  0  0  0  0
   25.1745   49.8081  -13.6097 H   0  0  0  0  0  0  0  0  0  0  0  0
   24.9689   47.2485  -13.3551 H   0  0  0  0  0  0  0  0  0  0  0  0
   25.1022   46.5686  -11.1071 H   0  0  0  0  0  0  0  0  0  0  0  0
   21.4541   48.9484  -13.4354 H   0  0  0  0  0  0  0  0  0  0  0  0
   20.4453   47.2500  -14.4377 H   0  0  0  0  0  0  0  0  0  0  0  0
   21.5519   47.0748  -11.0116 H   0  0  0  0  0  0  0  0  0  0  0  0
   19.6541   48.3190  -11.4002 H   0  0  0  0  0  0  0  0  0  0  0  0
   22.7470   49.8555  -11.5387 H   0  0  0  0  0  0  0  0  0  0  0  0
   22.8509   48.9847  -10.0220 H   0  0  0  0  0  0  0  0  0  0  0  0
  1  2  1  0  0  0  0
  2  3  2  0  0  0  0
  2 11  1  0  0  0  0
  3  4  1  0  0  0  0
  3  5  1  0  0  0  0
  5  6  1  0  0  0  0
  5  7  2  0  0  0  0
  7  8  1  0  0  0  0
  7  9  1  0  0  0  0
  9 10  1  0  0  0  0
  9 11  2  0  0  0  0
 11 12  1  0  0  0  0
 12 13  1  0  0  0  0
 12 26  1  0  0  0  0
 12 27  1  0  0  0  0
 13 14  1  0  0  0  0
 13 19  1  0  0  0  0
 13 28  1  6  0  0  0
 14 15  1  1  0  0  0
 14 16  1  0  0  0  0
 14 25  1  0  0  0  0
 15 29  1  0  0  0  0
 16 17  2  0  0  0  0
 16 18  1  0  0  0  0
 19 20  2  0  0  0  0
 19 21  1  0  0  0  0
 21 22  1  0  0  0  0
 21 23  1  0  0  0  0
 21 30  1  6  0  0  0
 22 31  1  0  0  0  0
 23 24  1  0  0  0  0
 23 25  1  0  0  0  0
 23 32  1  1  0  0  0
 24 33  1  0  0  0  0
 25 34  1  0  0  0  0
 25 35  1  0  0  0  0
M  END
$$$$
