2HW
 OpenBabel04111920313D

 44 46  0  0  1  0  0  0  0  0999 V2000
  -18.6480   36.5103    1.6029 O   0  0  0  0  0  0  0  0  0  0  0  0
  -18.9121   36.8250    0.4478 C   0  0  0  0  0  0  0  0  0  0  0  0
  -19.8824   37.9110    0.0760 C   0  0  0  0  0  0  0  0  0  0  0  0
  -20.5383   38.6835    1.0459 C   0  0  0  0  0  0  0  0  0  0  0  0
  -20.3826   38.5328    2.4010 N   0  0  0  0  0  0  0  0  0  0  0  0
  -21.4173   39.6363    0.6635 N   0  0  0  0  0  0  0  0  0  0  0  0
  -21.6129   39.8035   -0.6632 C   0  0  0  0  0  0  0  0  0  0  0  0
  -20.9422   39.0512   -1.6119 C   0  0  0  0  0  0  0  0  0  0  0  0
  -20.0536   38.0859   -1.2802 N   0  0  0  0  0  0  0  0  0  0  0  0
  -18.3349   36.2230   -0.6624 N   0  0  0  0  0  0  0  0  0  0  0  0
  -17.4026   35.1676   -0.7024 C   0  0  0  0  0  0  0  0  0  0  0  0
  -16.9888   34.4681    0.4280 C   0  0  0  0  0  0  0  0  0  0  0  0
  -16.0482   33.5100    0.3199 N   0  3  0  0  0  0  0  0  0  0  0  0
  -15.4747   33.1955   -0.8496 C   0  0  0  0  0  0  0  0  0  0  0  0
  -15.8652   33.8462   -2.0172 C   0  0  0  0  0  0  0  0  0  0  0  0
  -16.8452   34.8394   -1.9578 C   0  0  0  0  0  0  0  0  0  0  0  0
  -17.2568   35.5643   -3.0963 N   0  0  0  0  0  0  0  0  0  0  0  0
  -18.5215   35.0733   -3.6976 C   0  0  0  0  0  0  0  0  0  0  0  0
  -19.0592   36.1399   -4.6622 C   0  0  0  0  0  0  0  0  0  0  0  0
  -18.0054   36.5592   -5.6960 C   0  0  0  0  0  0  0  0  0  0  0  0
  -16.2149   35.8954   -4.0695 C   0  0  0  0  0  0  0  0  0  0  0  0
  -16.7321   37.0197   -4.9842 C   0  0  1  0  0  0  0  0  0  0  0  0
  -15.6877   37.3698   -5.9769 N   0  3  0  0  0  0  0  0  0  0  0  0
  -20.8807   39.1764    3.0022 H   0  0  0  0  0  0  0  0  0  0  0  0
  -19.6777   37.9114    2.7810 H   0  0  0  0  0  0  0  0  0  0  0  0
  -22.3322   40.5672   -0.9482 H   0  0  0  0  0  0  0  0  0  0  0  0
  -21.1090   39.2156   -2.6710 H   0  0  0  0  0  0  0  0  0  0  0  0
  -18.5936   36.6424   -1.5557 H   0  0  0  0  0  0  0  0  0  0  0  0
  -17.3648   34.6383    1.4288 H   0  0  0  0  0  0  0  0  0  0  0  0
  -14.7191   32.4163   -0.8308 H   0  0  0  0  0  0  0  0  0  0  0  0
  -15.3915   33.5562   -2.9528 H   0  0  0  0  0  0  0  0  0  0  0  0
  -19.2802   34.8827   -2.9295 H   0  0  0  0  0  0  0  0  0  0  0  0
  -18.3457   34.1352   -4.2372 H   0  0  0  0  0  0  0  0  0  0  0  0
  -19.3656   37.0250   -4.0899 H   0  0  0  0  0  0  0  0  0  0  0  0
  -19.9518   35.7611   -5.1719 H   0  0  0  0  0  0  0  0  0  0  0  0
  -18.4049   37.3589   -6.3283 H   0  0  0  0  0  0  0  0  0  0  0  0
  -17.7869   35.7052   -6.3503 H   0  0  0  0  0  0  0  0  0  0  0  0
  -15.9472   35.0182   -4.6736 H   0  0  0  0  0  0  0  0  0  0  0  0
  -15.3085   36.2463   -3.5603 H   0  0  0  0  0  0  0  0  0  0  0  0
  -16.9325   37.9271   -4.4010 H   0  0  0  0  0  0  0  0  0  0  0  0
  -14.8312   37.7107   -5.5111 H   0  0  0  0  0  0  0  0  0  0  0  0
  -15.4235   36.5752   -6.5736 H   0  0  0  0  0  0  0  0  0  0  0  0
  -15.7580   33.0243    1.1702 H   0  0  0  0  0  0  0  0  0  0  0  0
  -15.9978   38.1304   -6.6019 H   0  0  0  0  0  0  0  0  0  0  0  0
  1  2  2  0  0  0  0
  2  3  1  0  0  0  0
  2 10  1  0  0  0  0
  3  4  2  0  0  0  0
  3  9  1  0  0  0  0
  4  5  1  0  0  0  0
  4  6  1  0  0  0  0
  5 24  1  0  0  0  0
  5 25  1  0  0  0  0
  6  7  2  0  0  0  0
  7  8  1  0  0  0  0
  7 26  1  0  0  0  0
  8  9  2  0  0  0  0
  8 27  1  0  0  0  0
 10 11  1  0  0  0  0
 10 28  1  0  0  0  0
 11 12  2  0  0  0  0
 11 16  1  0  0  0  0
 12 13  1  0  0  0  0
 12 29  1  0  0  0  0
 13 14  2  0  0  0  0
 13 43  1  0  0  0  0
 14 15  1  0  0  0  0
 14 30  1  0  0  0  0
 15 16  2  0  0  0  0
 15 31  1  0  0  0  0
 16 17  1  0  0  0  0
 17 18  1  0  0  0  0
 17 21  1  0  0  0  0
 18 19  1  0  0  0  0
 18 32  1  0  0  0  0
 18 33  1  0  0  0  0
 19 20  1  0  0  0  0
 19 34  1  0  0  0  0
 19 35  1  0  0  0  0
 20 22  1  0  0  0  0
 20 36  1  0  0  0  0
 20 37  1  0  0  0  0
 21 22  1  0  0  0  0
 21 38  1  0  0  0  0
 21 39  1  0  0  0  0
 22 23  1  0  0  0  0
 22 40  1  1  0  0  0
 23 41  1  0  0  0  0
 23 42  1  0  0  0  0
 23 44  1  0  0  0  0
M  CHG  2  13   1  23   1
M  END
$$$$
