2J5
 OpenBabel04111920333D

 30 31  0  0  0  0  0  0  0  0999 V2000
   25.2581   29.5437    8.7698 C   0  0  0  0  0  0  0  0  0  0  0  0
   24.5815   29.1942    6.5694 C   0  0  0  0  0  0  0  0  0  0  0  0
   22.1958   29.3410    5.9364 C   0  0  0  0  0  0  0  0  0  0  0  0
   23.6043   29.2913    5.5773 N   0  0  0  0  0  0  0  0  0  0  0  0
   21.6866   30.7554    5.8143 C   0  0  0  0  0  0  0  0  0  0  0  0
   21.1468   31.2069    4.5959 C   0  0  0  0  0  0  0  0  0  0  0  0
   20.6185   32.4936    4.4786 C   0  0  0  0  0  0  0  0  0  0  0  0
   20.6540   33.3627    5.5723 C   0  0  0  0  0  0  0  0  0  0  0  0
   21.2182   32.9412    6.7718 C   0  0  0  0  0  0  0  0  0  0  0  0
   21.7291   31.6502    6.8887 C   0  0  0  0  0  0  0  0  0  0  0  0
   22.2397   31.3100    8.1107 O   0  0  0  0  0  0  0  0  0  0  0  0
   25.9085   28.9150    6.2066 C   0  0  0  0  0  0  0  0  0  0  0  0
   26.2919   28.5833    4.7913 C   0  0  0  0  0  0  0  0  0  0  0  0
   24.2609   29.4978    7.8398 N   0  0  0  0  0  0  0  0  0  0  0  0
   26.5765   29.2695    8.5053 C   0  0  0  0  0  0  0  0  0  0  0  0
   26.9083   28.9472    7.1884 C   0  0  0  0  0  0  0  0  0  0  0  0
   24.9423   29.8221    9.7701 H   0  0  0  0  0  0  0  0  0  0  0  0
   21.9648   28.9181    6.9195 H   0  0  0  0  0  0  0  0  0  0  0  0
   21.6375   28.7107    5.2325 H   0  0  0  0  0  0  0  0  0  0  0  0
   23.7808   28.7203    4.7616 H   0  0  0  0  0  0  0  0  0  0  0  0
   21.1146   30.5470    3.7341 H   0  0  0  0  0  0  0  0  0  0  0  0
   20.1836   32.8246    3.5391 H   0  0  0  0  0  0  0  0  0  0  0  0
   20.2391   34.3623    5.4886 H   0  0  0  0  0  0  0  0  0  0  0  0
   21.2628   33.6163    7.6260 H   0  0  0  0  0  0  0  0  0  0  0  0
   22.8848   30.5787    7.9828 H   0  0  0  0  0  0  0  0  0  0  0  0
   27.3615   28.3754    4.6970 H   0  0  0  0  0  0  0  0  0  0  0  0
   26.0547   29.4181    4.1248 H   0  0  0  0  0  0  0  0  0  0  0  0
   25.7550   27.6868    4.4600 H   0  0  0  0  0  0  0  0  0  0  0  0
   27.3362   29.3181    9.2764 H   0  0  0  0  0  0  0  0  0  0  0  0
   27.9437   28.7327    6.9381 H   0  0  0  0  0  0  0  0  0  0  0  0
  1 14  2  0  0  0  0
  1 15  1  0  0  0  0
  1 17  1  0  0  0  0
  2  4  1  0  0  0  0
  2 12  2  0  0  0  0
  2 14  1  0  0  0  0
  3  4  1  0  0  0  0
  3  5  1  0  0  0  0
  3 18  1  0  0  0  0
  3 19  1  0  0  0  0
  4 20  1  0  0  0  0
  5  6  2  0  0  0  0
  5 10  1  0  0  0  0
  6  7  1  0  0  0  0
  6 21  1  0  0  0  0
  7  8  2  0  0  0  0
  7 22  1  0  0  0  0
  8  9  1  0  0  0  0
  8 23  1  0  0  0  0
  9 10  2  0  0  0  0
  9 24  1  0  0  0  0
 10 11  1  0  0  0  0
 11 25  1  0  0  0  0
 12 13  1  0  0  0  0
 12 16  1  0  0  0  0
 13 26  1  0  0  0  0
 13 27  1  0  0  0  0
 13 28  1  0  0  0  0
 15 16  2  0  0  0  0
 15 29  1  0  0  0  0
 16 30  1  0  0  0  0
M  END
$$$$
