2J6
 OpenBabel04111920333D

 35 37  0  0  0  0  0  0  0  0999 V2000
   30.6557   21.3686   -5.8795 C   0  0  0  0  0  0  0  0  0  0  0  0
   28.9281   26.6876   -6.7140 C   0  0  0  0  0  0  0  0  0  0  0  0
   31.0764   20.7699   -4.6760 C   0  0  0  0  0  0  0  0  0  0  0  0
   29.1047   24.3165   -6.3497 C   0  0  0  0  0  0  0  0  0  0  0  0
   29.4039   24.1195   -7.6605 N   0  0  0  0  0  0  0  0  0  0  0  0
   29.4630   25.1935   -8.4750 C   0  0  0  0  0  0  0  0  0  0  0  0
   29.2416   26.4907   -8.0553 C   0  0  0  0  0  0  0  0  0  0  0  0
   28.8520   25.6053   -5.8140 C   0  0  0  0  0  0  0  0  0  0  0  0
   29.1963   23.2190   -5.5047 N   0  0  0  0  0  0  0  0  0  0  0  0
   29.2384   21.8649   -5.9995 C   0  0  0  0  0  0  0  0  0  0  0  0
   32.3938   20.3392   -4.5235 C   0  0  0  0  0  0  0  0  0  0  0  0
   33.2966   20.5205   -5.5621 C   0  0  0  0  0  0  0  0  0  0  0  0
   32.9112   21.1213   -6.7538 C   0  0  0  0  0  0  0  0  0  0  0  0
   31.5958   21.5507   -6.9015 C   0  0  0  0  0  0  0  0  0  0  0  0
   31.2822   22.1552   -8.0868 O   0  0  0  0  0  0  0  0  0  0  0  0
   34.5680   20.1146   -5.4036 F   0  0  0  0  0  0  0  0  0  0  0  0
   28.5139   25.8311   -4.3884 C   0  0  0  0  0  0  0  0  0  0  0  0
   28.1503   24.7632   -3.6401 N   0  0  0  0  0  0  0  0  0  0  0  0
   27.8616   24.9868   -2.3470 C   0  0  0  0  0  0  0  0  0  0  0  0
   27.9029   26.2298   -1.7694 C   0  0  0  0  0  0  0  0  0  0  0  0
   28.2584   27.2568   -2.6093 C   0  0  0  0  0  0  0  0  0  0  0  0
   28.5625   27.0927   -3.9124 N   0  0  0  0  0  0  0  0  0  0  0  0
   28.7488   27.7025   -6.3635 H   0  0  0  0  0  0  0  0  0  0  0  0
   30.3785   20.6472   -3.8521 H   0  0  0  0  0  0  0  0  0  0  0  0
   29.7091   24.9810   -9.5085 H   0  0  0  0  0  0  0  0  0  0  0  0
   29.3137   27.3199   -8.7447 H   0  0  0  0  0  0  0  0  0  0  0  0
   28.6910   23.3478   -4.6254 H   0  0  0  0  0  0  0  0  0  0  0  0
   28.5852   21.2404   -5.3766 H   0  0  0  0  0  0  0  0  0  0  0  0
   28.8501   21.7450   -7.0183 H   0  0  0  0  0  0  0  0  0  0  0  0
   32.7214   19.8706   -3.6008 H   0  0  0  0  0  0  0  0  0  0  0  0
   33.6331   21.2742   -7.5460 H   0  0  0  0  0  0  0  0  0  0  0  0
   30.5418   22.7834   -7.9230 H   0  0  0  0  0  0  0  0  0  0  0  0
   27.5949   24.1058   -1.7702 H   0  0  0  0  0  0  0  0  0  0  0  0
   27.6691   26.3874   -0.7276 H   0  0  0  0  0  0  0  0  0  0  0  0
   28.3119   28.2797   -2.2492 H   0  0  0  0  0  0  0  0  0  0  0  0
  1  3  2  0  0  0  0
  1 10  1  0  0  0  0
  1 14  1  0  0  0  0
  2  7  2  0  0  0  0
  2  8  1  0  0  0  0
  2 23  1  0  0  0  0
  3 11  1  0  0  0  0
  3 24  1  0  0  0  0
  4  5  1  0  0  0  0
  4  8  2  0  0  0  0
  4  9  1  0  0  0  0
  5  6  2  0  0  0  0
  6  7  1  0  0  0  0
  6 25  1  0  0  0  0
  7 26  1  0  0  0  0
  8 17  1  0  0  0  0
  9 10  1  0  0  0  0
  9 27  1  0  0  0  0
 10 28  1  0  0  0  0
 10 29  1  0  0  0  0
 11 12  2  0  0  0  0
 11 30  1  0  0  0  0
 12 13  1  0  0  0  0
 12 16  1  0  0  0  0
 13 14  2  0  0  0  0
 13 31  1  0  0  0  0
 14 15  1  0  0  0  0
 15 32  1  0  0  0  0
 17 18  2  0  0  0  0
 17 22  1  0  0  0  0
 18 19  1  0  0  0  0
 19 20  2  0  0  0  0
 19 33  1  0  0  0  0
 20 21  1  0  0  0  0
 20 34  1  0  0  0  0
 21 22  2  0  0  0  0
 21 35  1  0  0  0  0
M  END
$$$$
