2J7
 OpenBabel04111920333D

 42 44  0  0  0  0  0  0  0  0999 V2000
   22.6366   29.0243    5.9574 C   0  0  0  0  0  0  0  0  0  0  0  0
   24.0293   28.9379    5.5452 N   0  0  0  0  0  0  0  0  0  0  0  0
   25.1077   29.0285    6.4076 C   0  0  0  0  0  0  0  0  0  0  0  0
   20.8553   32.9725    5.6571 C   0  0  0  0  0  0  0  0  0  0  0  0
   26.3910   28.7751    5.9378 C   0  0  0  0  0  0  0  0  0  0  0  0
   22.1147   31.3311    6.8971 C   0  0  0  0  0  0  0  0  0  0  0  0
   21.3701   30.8193    4.6726 C   0  0  0  0  0  0  0  0  0  0  0  0
   20.7837   32.0904    4.5812 C   0  0  0  0  0  0  0  0  0  0  0  0
   21.5103   32.5853    6.8206 C   0  0  0  0  0  0  0  0  0  0  0  0
   22.0550   30.4166    5.8379 C   0  0  0  0  0  0  0  0  0  0  0  0
   27.4676   28.8177    6.8142 C   0  0  0  0  0  0  0  0  0  0  0  0
   27.2803   29.0772    8.1172 N   0  0  0  0  0  0  0  0  0  0  0  0
   26.0092   29.3056    8.4864 C   0  0  0  0  0  0  0  0  0  0  0  0
   24.9075   29.3025    7.7020 N   0  0  0  0  0  0  0  0  0  0  0  0
   28.7572   28.6873    6.3043 N   0  0  0  0  0  0  0  0  0  0  0  0
   29.9645   28.8122    7.1126 C   0  0  0  0  0  0  0  0  0  0  0  0
   30.5117   27.4909    7.6281 C   0  0  0  0  0  0  0  0  0  0  0  0
   31.4339   26.7628    6.8661 C   0  0  0  0  0  0  0  0  0  0  0  0
   32.0133   25.5695    7.3541 C   0  0  0  0  0  0  0  0  0  0  0  0
   31.6541   25.0929    8.6070 C   0  0  0  0  0  0  0  0  0  0  0  0
   30.7404   25.8111    9.3854 C   0  0  0  0  0  0  0  0  0  0  0  0
   30.1787   26.9981    8.8927 C   0  0  0  0  0  0  0  0  0  0  0  0
   29.3361   27.6539    9.7442 O   0  0  0  0  0  0  0  0  0  0  0  0
   22.7655   31.0510    8.0648 O   0  0  0  0  0  0  0  0  0  0  0  0
   22.4776   28.6256    6.9674 H   0  0  0  0  0  0  0  0  0  0  0  0
   22.0563   28.3548    5.3065 H   0  0  0  0  0  0  0  0  0  0  0  0
   24.2063   28.9462    4.5492 H   0  0  0  0  0  0  0  0  0  0  0  0
   20.4051   33.9599    5.5918 H   0  0  0  0  0  0  0  0  0  0  0  0
   26.5539   28.5612    4.8854 H   0  0  0  0  0  0  0  0  0  0  0  0
   21.2701   30.1415    3.8268 H   0  0  0  0  0  0  0  0  0  0  0  0
   20.2626   32.3907    3.6749 H   0  0  0  0  0  0  0  0  0  0  0  0
   21.5683   33.2616    7.6689 H   0  0  0  0  0  0  0  0  0  0  0  0
   25.8411   29.5144    9.5422 H   0  0  0  0  0  0  0  0  0  0  0  0
   28.8564   28.1418    5.4574 H   0  0  0  0  0  0  0  0  0  0  0  0
   29.8410   29.5271    7.9329 H   0  0  0  0  0  0  0  0  0  0  0  0
   30.7344   29.2686    6.4768 H   0  0  0  0  0  0  0  0  0  0  0  0
   31.7698   27.1204    5.8917 H   0  0  0  0  0  0  0  0  0  0  0  0
   32.7375   25.0305    6.7601 H   0  0  0  0  0  0  0  0  0  0  0  0
   32.0929   24.1758    8.9933 H   0  0  0  0  0  0  0  0  0  0  0  0
   30.4702   25.4562   10.3710 H   0  0  0  0  0  0  0  0  0  0  0  0
   28.8027   28.3032    9.2362 H   0  0  0  0  0  0  0  0  0  0  0  0
   23.5428   30.4948    7.8400 H   0  0  0  0  0  0  0  0  0  0  0  0
  1  2  1  0  0  0  0
  1 10  1  0  0  0  0
  1 25  1  0  0  0  0
  1 26  1  0  0  0  0
  2  3  1  0  0  0  0
  2 27  1  0  0  0  0
  3  5  2  0  0  0  0
  3 14  1  0  0  0  0
  4  8  2  0  0  0  0
  4  9  1  0  0  0  0
  4 28  1  0  0  0  0
  5 11  1  0  0  0  0
  5 29  1  0  0  0  0
  6  9  2  0  0  0  0
  6 10  1  0  0  0  0
  6 24  1  0  0  0  0
  7  8  1  0  0  0  0
  7 10  2  0  0  0  0
  7 30  1  0  0  0  0
  8 31  1  0  0  0  0
  9 32  1  0  0  0  0
 11 12  2  0  0  0  0
 11 15  1  0  0  0  0
 12 13  1  0  0  0  0
 13 14  2  0  0  0  0
 13 33  1  0  0  0  0
 15 16  1  0  0  0  0
 15 34  1  0  0  0  0
 16 17  1  0  0  0  0
 16 35  1  0  0  0  0
 16 36  1  0  0  0  0
 17 18  2  0  0  0  0
 17 22  1  0  0  0  0
 18 19  1  0  0  0  0
 18 37  1  0  0  0  0
 19 20  2  0  0  0  0
 19 38  1  0  0  0  0
 20 21  1  0  0  0  0
 20 39  1  0  0  0  0
 21 22  2  0  0  0  0
 21 40  1  0  0  0  0
 22 23  1  0  0  0  0
 23 41  1  0  0  0  0
 24 42  1  0  0  0  0
M  END
$$$$
