2JA
 OpenBabel04111920323D

 28 27  0  0  1  0  0  0  0  0999 V2000
   21.9387    1.8261  145.2947 O   0  0  0  0  0  0  0  0  0  0  0  0
   21.0522    0.6337  144.9324 P   0  0  0  0  0  0  0  0  0  0  0  0
   21.2637    0.1821  143.4822 O   0  0  0  0  0  0  0  0  0  0  0  0
   19.5789    0.8423  145.2580 O   0  0  0  0  0  0  0  0  0  0  0  0
   21.5632   -0.6240  145.8111 O   0  0  0  0  0  0  0  0  0  0  0  0
   21.3778   -1.1300  147.3244 P   0  0  2  0  0  0  0  0  0  0  0  0
   22.0041   -2.5176  147.4901 O   0  0  0  0  0  0  0  0  0  0  0  0
   19.9863   -0.9563  147.9359 O   0  0  0  0  0  0  0  0  0  0  0  0
   22.4624    0.0060  148.2357 C   0  0  0  0  0  0  0  0  0  0  0  0
   23.9103   -0.4669  148.2302 C   0  0  0  0  0  0  0  0  0  0  0  0
   24.6935    0.3105  149.2811 C   0  0  0  0  0  0  0  0  0  0  0  0
   24.5109   -0.3346  150.6894 C   0  0  1  0  0  0  0  0  0  0  0  0
   24.3057   -1.8505  150.7795 C   0  0  0  0  0  0  0  0  0  0  0  0
   25.4377    0.2709  151.7401 C   0  0  0  0  0  0  0  0  0  0  0  0
   24.8616    1.5388  151.9993 O   0  0  0  0  0  0  0  0  0  0  0  0
   22.0868    0.0199  149.2679 H   0  0  0  0  0  0  0  0  0  0  0  0
   22.3982    1.0319  147.8680 H   0  0  0  0  0  0  0  0  0  0  0  0
   24.3409   -0.3640  147.2279 H   0  0  0  0  0  0  0  0  0  0  0  0
   23.9516   -1.5310  148.4300 H   0  0  0  0  0  0  0  0  0  0  0  0
   24.2594    1.3347  149.3473 H   0  0  0  0  0  0  0  0  0  0  0  0
   25.7344    0.4640  148.9572 H   0  0  0  0  0  0  0  0  0  0  0  0
   23.5416    0.0431  150.9740 H   0  0  0  0  0  0  0  0  0  0  0  0
   24.4350   -2.2187  151.7716 H   0  0  0  0  0  0  0  0  0  0  0  0
   24.8999   -2.4434  150.0735 H   0  0  0  0  0  0  0  0  0  0  0  0
   23.2431   -2.0103  150.5202 H   0  0  0  0  0  0  0  0  0  0  0  0
   26.4785    0.4166  151.4391 H   0  0  0  0  0  0  0  0  0  0  0  0
   25.4134   -0.3277  152.6530 H   0  0  0  0  0  0  0  0  0  0  0  0
   25.2459    1.8731  152.8607 H   0  0  0  0  0  0  0  0  0  0  0  0
  1  2  2  0  0  0  0
  2  3  1  0  0  0  0
  2  4  1  0  0  0  0
  2  5  1  0  0  0  0
  6  5  1  6  0  0  0
  6  7  2  0  0  0  0
  6  8  1  0  0  0  0
  6  9  1  0  0  0  0
  9 10  1  0  0  0  0
  9 16  1  0  0  0  0
  9 17  1  0  0  0  0
 10 11  1  0  0  0  0
 10 18  1  0  0  0  0
 10 19  1  0  0  0  0
 11 12  1  0  0  0  0
 11 20  1  0  0  0  0
 11 21  1  0  0  0  0
 12 13  1  0  0  0  0
 12 14  1  0  0  0  0
 12 22  1  1  0  0  0
 13 23  1  0  0  0  0
 13 24  1  0  0  0  0
 13 25  1  0  0  0  0
 14 15  1  0  0  0  0
 14 26  1  0  0  0  0
 14 27  1  0  0  0  0
 15 28  1  0  0  0  0
M  END
$$$$
