2KH
 OpenBabel04111920383D

 41 42  0  0  1  0  0  0  0  0999 V2000
   63.7346   19.3261   93.7187 P   0  0  2  0  0  0  0  0  0  0  0  0
   65.1571   18.8263   93.9000 O   0  0  0  0  0  0  0  0  0  0  0  0
   63.0722   20.2130   94.7247 O   0  0  0  0  0  0  0  0  0  0  0  0
   62.8338   18.1762   92.8896 N   0  0  0  0  0  0  0  0  0  0  0  0
   63.9527   20.3629   92.4705 O   0  0  0  0  0  0  0  0  0  0  0  0
   61.3939   17.5434   93.5901 P   0  0  1  0  0  0  0  0  0  0  0  0
   60.4256   18.6838   93.7805 O   0  0  0  0  0  0  0  0  0  0  0  0
   61.0202   16.5877   92.4423 O   0  0  0  0  0  0  0  0  0  0  0  0
   61.8310   16.6601   94.8552 O   0  0  0  0  0  0  0  0  0  0  0  0
   61.5868   16.6394   96.4580 P   0  0  0  0  0  0  0  0  0  0  0  0
   60.2745   15.8862   96.7205 O   0  0  0  0  0  0  0  0  0  0  0  0
   61.5646   18.0639   96.9754 O   0  0  0  0  0  0  0  0  0  0  0  0
   62.7742   15.8356   97.0233 O   0  0  0  0  0  0  0  0  0  0  0  0
   62.7944   20.8795   91.8472 C   0  0  0  0  0  0  0  0  0  0  0  0
   63.2384   21.8344   90.7413 C   0  0  1  0  0  0  0  0  0  0  0  0
   63.8322   23.0626   91.2391 O   0  0  0  0  0  0  0  0  0  0  0  0
   64.9393   23.4007   90.3895 C   0  0  2  0  0  0  0  0  0  0  0  0
   64.9241   22.4265   89.2043 C   0  0  2  0  0  0  0  0  0  0  0  0
   64.0949   22.9181   88.1243 O   0  0  0  0  0  0  0  0  0  0  0  0
   64.2921   21.2023   89.8215 C   0  0  2  0  0  0  0  0  0  0  0  0
   63.7910   20.3721   88.7718 O   0  0  0  0  0  0  0  0  0  0  0  0
   66.2138   23.3797   91.1093 N   0  3  0  0  0  0  0  0  0  0  0  0
   66.3837   22.6311   92.2584 C   0  0  0  0  0  0  0  0  0  0  0  0
   67.2872   24.0268   90.5029 C   0  0  0  0  0  0  0  0  0  0  0  0
   67.2149   24.6347   89.4431 O   0  0  0  0  0  0  0  0  0  0  0  0
   68.4827   23.9401   91.1358 N   0  3  0  0  0  0  0  0  0  0  0  0
   68.7181   23.2157   92.3087 C   0  0  0  0  0  0  0  0  0  0  0  0
   69.8482   23.1651   92.7712 O   0  0  0  0  0  0  0  0  0  0  0  0
   67.5674   22.5209   92.8611 C   0  0  0  0  0  0  0  0  0  0  0  0
   63.2945   17.4784   92.3382 H   0  0  0  0  0  0  0  0  0  0  0  0
   62.1398   21.3897   92.5609 H   0  0  0  0  0  0  0  0  0  0  0  0
   62.2567   20.0512   91.3772 H   0  0  0  0  0  0  0  0  0  0  0  0
   62.3523   22.1331   90.1687 H   0  0  0  0  0  0  0  0  0  0  0  0
   64.7723   24.4254   90.0300 H   0  0  0  0  0  0  0  0  0  0  0  0
   65.9038   22.2163   88.7737 H   0  0  0  0  0  0  0  0  0  0  0  0
   64.0536   22.1679   87.5019 H   0  0  0  0  0  0  0  0  0  0  0  0
   65.0493   20.6507   90.3929 H   0  0  0  0  0  0  0  0  0  0  0  0
   62.9011   20.7025   88.5616 H   0  0  0  0  0  0  0  0  0  0  0  0
   65.5188   22.1074   92.6731 H   0  0  0  0  0  0  0  0  0  0  0  0
   69.2710   24.3598   90.6954 H   0  0  0  0  0  0  0  0  0  0  0  0
   67.6999   21.8958   93.7372 H   0  0  0  0  0  0  0  0  0  0  0  0
  1  2  2  1  0  0  0
  1  3  1  0  0  0  0
  1  4  1  0  0  0  0
  1  5  1  0  0  0  0
  4 30  1  0  0  0  0
  5 14  1  0  0  0  0
  6  4  1  6  0  0  0
  6  7  2  0  0  0  0
  6  8  1  0  0  0  0
  6  9  1  0  0  0  0
  9 10  1  0  0  0  0
 10 11  2  0  0  0  0
 10 12  1  0  0  0  0
 10 13  1  0  0  0  0
 14 15  1  0  0  0  0
 14 31  1  0  0  0  0
 14 32  1  0  0  0  0
 15 16  1  0  0  0  0
 15 20  1  0  0  0  0
 15 33  1  6  0  0  0
 16 17  1  0  0  0  0
 17 18  1  0  0  0  0
 17 22  1  0  0  0  0
 17 34  1  6  0  0  0
 18 19  1  0  0  0  0
 18 20  1  0  0  0  0
 18 35  1  6  0  0  0
 19 36  1  0  0  0  0
 20 21  1  0  0  0  0
 20 37  1  1  0  0  0
 21 38  1  0  0  0  0
 22 23  1  0  0  0  0
 22 24  1  0  0  0  0
 23 29  2  0  0  0  0
 23 39  1  0  0  0  0
 24 25  2  0  0  0  0
 24 26  1  0  0  0  0
 26 27  1  0  0  0  0
 26 40  1  0  0  0  0
 27 28  2  0  0  0  0
 27 29  1  0  0  0  0
 29 41  1  0  0  0  0
M  CHG  2  22   1  26   1
M  END
$$$$
