2KT
 OpenBabel04111917573D

 12 11  0  0  0  0  0  0  0  0999 V2000
  -21.2745   -5.9226    8.2584 C   0  0  0  0  0  0  0  0  0  0  0  0
  -21.0181   -6.6810    9.5457 C   0  0  0  0  0  0  0  0  0  0  0  0
  -19.6130   -6.4951   10.0510 C   0  0  0  0  0  0  0  0  0  0  0  0
  -18.7130   -5.9868    9.3759 O   0  0  0  0  0  0  0  0  0  0  0  0
  -19.2861   -6.9848   11.4800 C   0  0  0  0  0  0  0  0  0  0  0  0
  -18.1107   -6.8250   11.9198 O   0  0  0  0  0  0  0  0  0  0  0  0
  -20.2693   -7.5222   12.0949 O   0  0  0  0  0  0  0  0  0  0  0  0
  -22.3079   -6.0885    7.9280 H   0  0  0  0  0  0  0  0  0  0  0  0
  -20.6037   -6.2587    7.4635 H   0  0  0  0  0  0  0  0  0  0  0  0
  -21.1253   -4.8491    8.4025 H   0  0  0  0  0  0  0  0  0  0  0  0
  -21.1730   -7.7514    9.3730 H   0  0  0  0  0  0  0  0  0  0  0  0
  -21.7196   -6.3231   10.3110 H   0  0  0  0  0  0  0  0  0  0  0  0
  1  2  1  0  0  0  0
  1  8  1  0  0  0  0
  1  9  1  0  0  0  0
  1 10  1  0  0  0  0
  2  3  1  0  0  0  0
  2 11  1  0  0  0  0
  2 12  1  0  0  0  0
  3  4  2  0  0  0  0
  3  5  1  0  0  0  0
  5  6  2  0  0  0  0
  5  7  1  0  0  0  0
M  END
$$$$
