2L2
 OpenBabel04111920393D

 37 39  0  0  1  0  0  0  0  0999 V2000
   12.3235   -5.9002    1.2384 C   0  0  0  0  0  0  0  0  0  0  0  0
   12.8617   -4.6461    0.5667 C   0  0  0  0  0  0  0  0  0  0  0  0
   11.9750   -4.1921   -0.5575 C   0  0  0  0  0  0  0  0  0  0  0  0
   12.5020   -3.3014   -1.4891 C   0  0  0  0  0  0  0  0  0  0  0  0
   11.7137   -2.8501   -2.5438 C   0  0  0  0  0  0  0  0  0  0  0  0
   10.3817   -3.2861   -2.6476 C   0  0  0  0  0  0  0  0  0  0  0  0
    9.8310   -4.1667   -1.7081 C   0  0  0  0  0  0  0  0  0  0  0  0
    8.5062   -4.5443   -1.8153 N   0  0  0  0  0  0  0  0  0  0  0  0
   10.6262   -4.5955   -0.6372 C   0  0  0  0  0  0  0  0  0  0  0  0
   10.0464   -5.5480    0.3640 C   0  0  0  0  0  0  0  0  0  0  0  0
   10.8719   -5.6839    1.6055 N   0  3  1  0  0  0  0  0  0  0  0  0
   10.3134   -6.7221    2.5207 C   0  0  0  0  0  0  0  0  0  0  0  0
   11.0449   -6.7302    3.7941 C   0  0  0  0  0  0  0  0  0  0  0  0
   10.9712   -5.7485    4.7475 N   0  3  0  0  0  0  0  0  0  0  0  0
   11.8511   -6.0823    5.7334 C   0  0  0  0  0  0  0  0  0  0  0  0
   12.4686   -7.2031    5.4570 N   0  0  0  0  0  0  0  0  0  0  0  0
   11.9716   -7.6423    4.2641 C   0  0  0  0  0  0  0  0  0  0  0  0
   12.4394   -8.8817    3.5967 C   0  0  0  0  0  0  0  0  0  0  0  0
   12.9012   -6.0880    2.1451 H   0  0  0  0  0  0  0  0  0  0  0  0
   12.3702   -6.7768    0.5813 H   0  0  0  0  0  0  0  0  0  0  0  0
   13.8621   -4.8615    0.1755 H   0  0  0  0  0  0  0  0  0  0  0  0
   12.9475   -3.8327    1.2990 H   0  0  0  0  0  0  0  0  0  0  0  0
   13.5361   -2.9600   -1.4180 H   0  0  0  0  0  0  0  0  0  0  0  0
   12.1192   -2.1721   -3.2844 H   0  0  0  0  0  0  0  0  0  0  0  0
    9.7864   -2.9209   -3.4745 H   0  0  0  0  0  0  0  0  0  0  0  0
    7.9679   -4.2492   -2.6229 H   0  0  0  0  0  0  0  0  0  0  0  0
    8.0616   -5.2286   -1.2232 H   0  0  0  0  0  0  0  0  0  0  0  0
    9.9467   -6.5481   -0.0805 H   0  0  0  0  0  0  0  0  0  0  0  0
    9.0656   -5.1968    0.7031 H   0  0  0  0  0  0  0  0  0  0  0  0
   10.3897   -7.6885    2.0061 H   0  0  0  0  0  0  0  0  0  0  0  0
    9.2540   -6.4985    2.6874 H   0  0  0  0  0  0  0  0  0  0  0  0
   10.3992   -4.9156    4.7335 H   0  0  0  0  0  0  0  0  0  0  0  0
   11.9971   -5.4636    6.6141 H   0  0  0  0  0  0  0  0  0  0  0  0
   13.1773   -9.4204    4.1968 H   0  0  0  0  0  0  0  0  0  0  0  0
   12.8931   -8.6430    2.6280 H   0  0  0  0  0  0  0  0  0  0  0  0
   11.5913   -9.5464    3.4045 H   0  0  0  0  0  0  0  0  0  0  0  0
   10.8108   -4.7780    2.0814 H   0  0  0  0  0  0  0  0  0  0  0  0
  1  2  1  0  0  0  0
  1 11  1  0  0  0  0
  1 19  1  0  0  0  0
  1 20  1  0  0  0  0
  2  3  1  0  0  0  0
  2 21  1  0  0  0  0
  2 22  1  0  0  0  0
  3  4  2  0  0  0  0
  3  9  1  0  0  0  0
  4  5  1  0  0  0  0
  4 23  1  0  0  0  0
  5  6  2  0  0  0  0
  5 24  1  0  0  0  0
  6  7  1  0  0  0  0
  6 25  1  0  0  0  0
  7  8  1  0  0  0  0
  7  9  2  0  0  0  0
  8 26  1  0  0  0  0
  8 27  1  0  0  0  0
  9 10  1  0  0  0  0
 10 11  1  0  0  0  0
 10 28  1  0  0  0  0
 10 29  1  0  0  0  0
 11 12  1  0  0  0  0
 11 37  1  1  0  0  0
 12 13  1  0  0  0  0
 12 30  1  0  0  0  0
 12 31  1  0  0  0  0
 13 14  1  0  0  0  0
 13 17  2  0  0  0  0
 14 15  2  0  0  0  0
 14 32  1  0  0  0  0
 15 16  1  0  0  0  0
 15 33  1  0  0  0  0
 16 17  1  0  0  0  0
 17 18  1  0  0  0  0
 18 34  1  0  0  0  0
 18 35  1  0  0  0  0
 18 36  1  0  0  0  0
M  CHG  2  11   1  14   1
M  END
$$$$
