2LC
 OpenBabel04111920373D

 55 58  0  0  1  0  0  0  0  0999 V2000
    7.4590   -9.7349  -23.1460 C   0  0  0  0  0  0  0  0  0  0  0  0
    6.3478  -10.6453  -23.5244 C   0  0  1  0  0  0  0  0  0  0  0  0
    5.0019  -10.3318  -23.4649 C   0  0  0  0  0  0  0  0  0  0  0  0
    4.2498  -11.3950  -23.9131 N   0  3  2  0  0  0  0  0  0  0  0  0
    5.1199  -12.4108  -24.2594 C   0  0  2  0  0  0  0  0  0  0  0  0
    6.4187  -11.9769  -24.0244 C   0  0  1  0  0  0  0  0  0  0  0  0
    7.5632  -12.8313  -24.3412 C   0  0  0  0  0  0  0  0  0  0  0  0
    8.7213  -12.4599  -24.1786 O   0  0  0  0  0  0  0  0  0  0  0  0
    7.2330  -14.2459  -24.8247 C   0  0  0  0  0  0  0  0  0  0  0  0
    5.9370  -14.3299  -25.6692 C   0  0  0  0  0  0  0  0  0  0  0  0
    6.1361  -13.6241  -27.0259 C   0  0  0  0  0  0  0  0  0  0  0  0
    5.6068  -15.8098  -25.9557 C   0  0  0  0  0  0  0  0  0  0  0  0
    4.7431  -13.7093  -24.8996 C   0  0  0  0  0  0  0  0  0  0  0  0
    2.8410  -11.3765  -24.0635 C   0  0  1  0  0  0  0  0  0  0  0  0
    2.2346  -10.2007  -24.5258 C   0  0  0  0  0  0  0  0  0  0  0  0
    0.8547  -10.1258  -24.7474 C   0  0  1  0  0  0  0  0  0  0  0  0
    0.2720   -8.9793  -25.2687 N   0  0  0  0  0  0  0  0  0  0  0  0
    0.9683   -7.7439  -25.6190 C   0  0  1  0  0  0  0  0  0  0  0  0
    1.4948   -7.8536  -27.0339 C   0  0  0  0  0  0  0  0  0  0  0  0
    0.2842   -7.5023  -27.8791 C   0  0  0  0  0  0  0  0  0  0  0  0
   -0.6106   -6.7258  -27.0689 O   0  0  0  0  0  0  0  0  0  0  0  0
   -0.0360   -6.6035  -25.7583 C   0  0  0  0  0  0  0  0  0  0  0  0
    0.0880  -11.2955  -24.5207 C   0  0  1  0  0  0  0  0  0  0  0  0
   -1.3692  -11.3472  -24.7954 C   0  0  0  0  0  0  0  0  0  0  0  0
   -1.8023  -10.6509  -25.8929 N   0  0  0  0  0  0  0  0  0  0  0  0
   -2.1569  -11.9611  -24.0870 O   0  0  0  0  0  0  0  0  0  0  0  0
    0.7003  -12.4591  -24.0403 C   0  0  1  0  0  0  0  0  0  0  0  0
   -0.0019  -13.5826  -23.8385 F   0  0  0  0  0  0  0  0  0  0  0  0
    2.0694  -12.5040  -23.8065 C   0  0  0  0  0  0  0  0  0  0  0  0
    7.0694   -8.7851  -22.7643 H   0  0  0  0  0  0  0  0  0  0  0  0
    8.0850   -9.5077  -24.0144 H   0  0  0  0  0  0  0  0  0  0  0  0
    8.0832  -10.1755  -22.3622 H   0  0  0  0  0  0  0  0  0  0  0  0
    4.5261   -9.4319  -23.1019 H   0  0  0  0  0  0  0  0  0  0  0  0
    7.1419  -14.8776  -23.9322 H   0  0  0  0  0  0  0  0  0  0  0  0
    8.0837  -14.6182  -25.4078 H   0  0  0  0  0  0  0  0  0  0  0  0
    5.2364  -13.7012  -27.6469 H   0  0  0  0  0  0  0  0  0  0  0  0
    6.9618  -14.0792  -27.5846 H   0  0  0  0  0  0  0  0  0  0  0  0
    6.3641  -12.5600  -26.9088 H   0  0  0  0  0  0  0  0  0  0  0  0
    5.4528  -16.3702  -25.0267 H   0  0  0  0  0  0  0  0  0  0  0  0
    6.4177  -16.2974  -26.5084 H   0  0  0  0  0  0  0  0  0  0  0  0
    4.6927  -15.9021  -26.5530 H   0  0  0  0  0  0  0  0  0  0  0  0
    3.9006  -13.5755  -25.5877 H   0  0  0  0  0  0  0  0  0  0  0  0
    4.4237  -14.3962  -24.1056 H   0  0  0  0  0  0  0  0  0  0  0  0
    2.8660   -9.3484  -24.7663 H   0  0  0  0  0  0  0  0  0  0  0  0
   -0.7408   -8.9028  -25.1667 H   0  0  0  0  0  0  0  0  0  0  0  0
    1.7319   -7.4888  -24.8777 H   0  0  0  0  0  0  0  0  0  0  0  0
    1.9033   -8.8348  -27.2964 H   0  0  0  0  0  0  0  0  0  0  0  0
    2.2843   -7.1111  -27.1984 H   0  0  0  0  0  0  0  0  0  0  0  0
   -0.2490   -8.4032  -28.2033 H   0  0  0  0  0  0  0  0  0  0  0  0
    0.5581   -6.9270  -28.7665 H   0  0  0  0  0  0  0  0  0  0  0  0
    0.4612   -5.6296  -25.7018 H   0  0  0  0  0  0  0  0  0  0  0  0
   -0.8317   -6.6352  -25.0070 H   0  0  0  0  0  0  0  0  0  0  0  0
   -2.7892  -10.6847  -26.1248 H   0  0  0  0  0  0  0  0  0  0  0  0
   -1.1553  -10.2411  -26.5536 H   0  0  0  0  0  0  0  0  0  0  0  0
    2.4911  -13.4191  -23.4040 H   0  0  0  0  0  0  0  0  0  0  0  0
  1 30  1  0  0  0  0
  1 31  1  0  0  0  0
  1 32  1  0  0  0  0
  2  1  1  6  0  0  0
  2  3  1  0  0  0  0
  2  6  1  0  0  0  0
  3 33  1  0  0  0  0
  4  3  1  6  0  0  0
  4  5  1  0  0  0  0
  4 14  1  0  0  0  0
  5  6  1  0  0  0  0
  5 13  1  6  0  0  0
  6  7  1  6  0  0  0
  7  8  2  0  0  0  0
  7  9  1  0  0  0  0
  9 10  1  0  0  0  0
  9 34  1  0  0  0  0
  9 35  1  0  0  0  0
 10 11  1  0  0  0  0
 10 12  1  0  0  0  0
 10 13  1  0  0  0  0
 11 36  1  0  0  0  0
 11 37  1  0  0  0  0
 11 38  1  0  0  0  0
 12 39  1  0  0  0  0
 12 40  1  0  0  0  0
 12 41  1  0  0  0  0
 13 42  1  0  0  0  0
 13 43  1  0  0  0  0
 14 15  1  6  0  0  0
 14 29  1  0  0  0  0
 15 16  1  0  0  0  0
 15 44  1  0  0  0  0
 16 17  1  6  0  0  0
 16 23  1  0  0  0  0
 17 18  1  0  0  0  0
 17 45  1  0  0  0  0
 18 19  1  0  0  0  0
 18 22  1  0  0  0  0
 18 46  1  1  0  0  0
 19 20  1  0  0  0  0
 19 47  1  0  0  0  0
 19 48  1  0  0  0  0
 20 21  1  0  0  0  0
 20 49  1  0  0  0  0
 20 50  1  0  0  0  0
 21 22  1  0  0  0  0
 22 51  1  0  0  0  0
 22 52  1  0  0  0  0
 23 24  1  6  0  0  0
 23 27  1  0  0  0  0
 24 25  1  0  0  0  0
 24 26  2  0  0  0  0
 25 53  1  0  0  0  0
 25 54  1  0  0  0  0
 27 28  1  6  0  0  0
 27 29  1  0  0  0  0
 29 55  1  0  0  0  0
M  CHG  1   4   1
M  END
$$$$
