2LW
 OpenBabel04111920403D

 26 28  0  0  0  0  0  0  0  0999 V2000
   67.6806   40.8246   -0.4154 C   0  0  0  0  0  0  0  0  0  0  0  0
   68.6246   41.1180   -1.3240 C   0  0  0  0  0  0  0  0  0  0  0  0
   69.7390   40.1261   -1.2997 C   0  0  0  0  0  0  0  0  0  0  0  0
   70.9479   40.2444   -1.7897 N   0  0  0  0  0  0  0  0  0  0  0  0
   71.6247   39.0306   -1.4364 C   0  0  0  0  0  0  0  0  0  0  0  0
   72.9285   38.6870   -1.7702 C   0  0  0  0  0  0  0  0  0  0  0  0
   73.4288   37.4629   -1.3428 C   0  0  0  0  0  0  0  0  0  0  0  0
   72.6069   36.6043   -0.6033 C   0  0  0  0  0  0  0  0  0  0  0  0
   73.2443   35.1065   -0.0723 Cl  0  0  0  0  0  0  0  0  0  0  0  0
   71.2951   36.9515   -0.2904 C   0  0  0  0  0  0  0  0  0  0  0  0
   70.8469   38.1687   -0.6930 C   0  0  0  0  0  0  0  0  0  0  0  0
   69.5535   38.8448   -0.5404 C   0  0  0  0  0  0  0  0  0  0  0  0
   68.4182   38.6000    0.0014 C   0  0  0  0  0  0  0  0  0  0  0  0
   67.3365   39.4434   -0.2865 N   0  3  0  0  0  0  0  0  0  0  0  0
   66.0972   39.0117   -0.8300 C   0  0  0  0  0  0  0  0  0  0  0  0
   65.1863   39.7594   -1.1913 O   0  0  0  0  0  0  0  0  0  0  0  0
   65.9365   37.5056   -0.8013 C   0  0  0  0  0  0  0  0  0  0  0  0
   67.0403   41.5439    0.1447 H   0  0  0  0  0  0  0  0  0  0  0  0
   68.7262   41.9597   -1.9809 H   0  0  0  0  0  0  0  0  0  0  0  0
   73.5296   39.3785   -2.3487 H   0  0  0  0  0  0  0  0  0  0  0  0
   74.4490   37.1756   -1.5874 H   0  0  0  0  0  0  0  0  0  0  0  0
   70.6252   36.3147    0.2540 H   0  0  0  0  0  0  0  0  0  0  0  0
   68.2681   37.6817    0.6472 H   0  0  0  0  0  0  0  0  0  0  0  0
   64.9869   37.2258   -1.2444 H   0  0  0  0  0  0  0  0  0  0  0  0
   65.9431   37.2191    0.2540 H   0  0  0  0  0  0  0  0  0  0  0  0
   66.7474   36.9822   -1.3202 H   0  0  0  0  0  0  0  0  0  0  0  0
  1  2  2  0  0  0  0
  1 14  1  0  0  0  0
  1 18  1  0  0  0  0
  2  3  1  0  0  0  0
  2 19  1  0  0  0  0
  3  4  2  0  0  0  0
  3 12  1  0  0  0  0
  4  5  1  0  0  0  0
  5  6  2  0  0  0  0
  5 11  1  0  0  0  0
  6  7  1  0  0  0  0
  6 20  1  0  0  0  0
  7  8  2  0  0  0  0
  7 21  1  0  0  0  0
  8  9  1  0  0  0  0
  8 10  1  0  0  0  0
 10 11  2  0  0  0  0
 10 22  1  0  0  0  0
 11 12  1  0  0  0  0
 12 13  2  0  0  0  0
 13 14  1  0  0  0  0
 13 23  1  0  0  0  0
 14 15  1  0  0  0  0
 15 16  2  0  0  0  0
 15 17  1  0  0  0  0
 17 24  1  0  0  0  0
 17 25  1  0  0  0  0
 17 26  1  0  0  0  0
M  CHG  1  14   1
M  END
$$$$
