2M9
 OpenBabel04111920373D

 39 42  0  0  0  0  0  0  0  0999 V2000
    5.8685   22.5640   55.6516 O   0  0  0  0  0  0  0  0  0  0  0  0
    5.9936   21.5706   54.5851 S   0  0  0  0  0  0  0  0  0  0  0  0
    7.2991   20.9150   54.5022 O   0  0  0  0  0  0  0  0  0  0  0  0
    5.4674   22.0022   53.2924 O   0  0  0  0  0  0  0  0  0  0  0  0
    4.8667   20.2319   55.1370 C   0  0  0  0  0  0  0  0  0  0  0  0
    3.7248   19.9891   54.3682 C   0  0  0  0  0  0  0  0  0  0  0  0
    2.8239   18.9913   54.7566 C   0  0  0  0  0  0  0  0  0  0  0  0
    1.3361   18.7440   53.7164 S   0  0  0  0  0  0  0  0  0  0  0  0
    1.4436   19.7501   52.6584 O   0  0  0  0  0  0  0  0  0  0  0  0
    1.4838   17.3673   53.2461 O   0  0  0  0  0  0  0  0  0  0  0  0
    0.2309   18.9756   54.6449 O   0  0  0  0  0  0  0  0  0  0  0  0
    3.0477   18.2067   55.9249 C   0  0  0  0  0  0  0  0  0  0  0  0
    2.1817   17.1862   56.3629 C   0  0  0  0  0  0  0  0  0  0  0  0
    2.4258   16.4339   57.5149 C   0  0  0  0  0  0  0  0  0  0  0  0
    5.1331   19.4747   56.3114 C   0  0  0  0  0  0  0  0  0  0  0  0
    4.2126   18.4529   56.7073 C   0  0  0  0  0  0  0  0  0  0  0  0
    4.4609   17.6707   57.8963 C   0  0  0  0  0  0  0  0  0  0  0  0
    3.5613   16.6463   58.3108 C   0  0  0  0  0  0  0  0  0  0  0  0
    6.2657   19.6792   57.1207 C   0  0  0  0  0  0  0  0  0  0  0  0
    6.5053   18.9246   58.2641 C   0  0  0  0  0  0  0  0  0  0  0  0
    5.6243   17.9206   58.6763 C   0  0  0  0  0  0  0  0  0  0  0  0
    5.8957   17.1649   59.8387 C   0  0  0  0  0  0  0  0  0  0  0  0
    7.0147   17.5183   60.5603 O   0  0  0  0  0  0  0  0  0  0  0  0
    7.6427   16.4890   61.3088 C   0  0  0  0  0  0  0  0  0  0  0  0
    5.0173   16.1663   60.2390 C   0  0  0  0  0  0  0  0  0  0  0  0
    3.8626   15.9057   59.4887 C   0  0  0  0  0  0  0  0  0  0  0  0
    2.7726   14.5667   60.1012 S   0  0  0  0  0  0  0  0  0  0  0  0
    1.4940   15.2342   60.3170 O   0  0  0  0  0  0  0  0  0  0  0  0
    2.8167   13.5845   59.0220 O   0  0  0  0  0  0  0  0  0  0  0  0
    3.4243   14.1192   61.3363 O   0  0  0  0  0  0  0  0  0  0  0  0
    3.5323   20.5802   53.4765 H   0  0  0  0  0  0  0  0  0  0  0  0
    1.2784   16.9455   55.8043 H   0  0  0  0  0  0  0  0  0  0  0  0
    1.6939   15.6699   57.7718 H   0  0  0  0  0  0  0  0  0  0  0  0
    7.0016   20.4411   56.8716 H   0  0  0  0  0  0  0  0  0  0  0  0
    7.4093   19.1377   58.8292 H   0  0  0  0  0  0  0  0  0  0  0  0
    8.5637   16.9103   61.7259 H   0  0  0  0  0  0  0  0  0  0  0  0
    7.9229   15.6455   60.6696 H   0  0  0  0  0  0  0  0  0  0  0  0
    7.0269   16.1666   62.1527 H   0  0  0  0  0  0  0  0  0  0  0  0
    5.1912   15.5899   61.1394 H   0  0  0  0  0  0  0  0  0  0  0  0
  1  2  2  0  0  0  0
  2  3  2  0  0  0  0
  2  4  1  0  0  0  0
  2  5  1  0  0  0  0
  5  6  2  0  0  0  0
  5 15  1  0  0  0  0
  6  7  1  0  0  0  0
  6 31  1  0  0  0  0
  7  8  1  0  0  0  0
  7 12  2  0  0  0  0
  8  9  2  0  0  0  0
  8 10  2  0  0  0  0
  8 11  1  0  0  0  0
 12 13  1  0  0  0  0
 12 16  1  0  0  0  0
 13 14  2  0  0  0  0
 13 32  1  0  0  0  0
 14 18  1  0  0  0  0
 14 33  1  0  0  0  0
 15 16  2  0  0  0  0
 15 19  1  0  0  0  0
 16 17  1  0  0  0  0
 17 18  2  0  0  0  0
 17 21  1  0  0  0  0
 18 26  1  0  0  0  0
 19 20  2  0  0  0  0
 19 34  1  0  0  0  0
 20 21  1  0  0  0  0
 20 35  1  0  0  0  0
 21 22  2  0  0  0  0
 22 23  1  0  0  0  0
 22 25  1  0  0  0  0
 23 24  1  0  0  0  0
 24 36  1  0  0  0  0
 24 37  1  0  0  0  0
 24 38  1  0  0  0  0
 25 26  2  0  0  0  0
 25 39  1  0  0  0  0
 26 27  1  0  0  0  0
 27 28  2  0  0  0  0
 27 29  2  0  0  0  0
 27 30  1  0  0  0  0
M  END
$$$$
