2M9
 OpenBabel04111920383D

 39 42  0  0  0  0  0  0  0  0999 V2000
  -30.4984  -18.9293   14.1057 O   0  0  0  0  0  0  0  0  0  0  0  0
  -30.8458  -17.6026   13.5963 S   0  0  0  0  0  0  0  0  0  0  0  0
  -31.6795  -17.6026   12.3938 O   0  0  0  0  0  0  0  0  0  0  0  0
  -29.7260  -16.6627   13.5456 O   0  0  0  0  0  0  0  0  0  0  0  0
  -31.9617  -16.9439   14.8874 C   0  0  0  0  0  0  0  0  0  0  0  0
  -31.5789  -15.8030   15.6051 C   0  0  0  0  0  0  0  0  0  0  0  0
  -32.4292  -15.2890   16.5950 C   0  0  0  0  0  0  0  0  0  0  0  0
  -31.9110  -13.7899   17.5053 S   0  0  0  0  0  0  0  0  0  0  0  0
  -30.5495  -13.5266   17.0473 O   0  0  0  0  0  0  0  0  0  0  0  0
  -32.8953  -12.7955   17.0746 O   0  0  0  0  0  0  0  0  0  0  0  0
  -31.9930  -14.1839   18.9110 O   0  0  0  0  0  0  0  0  0  0  0  0
  -33.6760  -15.9018   16.8839 C   0  0  0  0  0  0  0  0  0  0  0  0
  -34.5666  -15.4209   17.8615 C   0  0  0  0  0  0  0  0  0  0  0  0
  -35.7710  -16.0543   18.1391 C   0  0  0  0  0  0  0  0  0  0  0  0
  -33.2011  -17.5845   15.1390 C   0  0  0  0  0  0  0  0  0  0  0  0
  -34.0585  -17.0605   16.1510 C   0  0  0  0  0  0  0  0  0  0  0  0
  -35.3108  -17.7003   16.4265 C   0  0  0  0  0  0  0  0  0  0  0  0
  -36.1702  -17.1957   17.4414 C   0  0  0  0  0  0  0  0  0  0  0  0
  -33.6276  -18.7308   14.4439 C   0  0  0  0  0  0  0  0  0  0  0  0
  -34.8472  -19.3404   14.6941 C   0  0  0  0  0  0  0  0  0  0  0  0
  -35.7005  -18.8550   15.6891 C   0  0  0  0  0  0  0  0  0  0  0  0
  -36.9224  -19.4977   15.9615 C   0  0  0  0  0  0  0  0  0  0  0  0
  -37.2222  -20.6333   15.2417 O   0  0  0  0  0  0  0  0  0  0  0  0
  -38.5507  -21.1230   15.3690 C   0  0  0  0  0  0  0  0  0  0  0  0
  -37.7410  -18.9965   16.9601 C   0  0  0  0  0  0  0  0  0  0  0  0
  -37.3786  -17.8706   17.7011 C   0  0  0  0  0  0  0  0  0  0  0  0
  -38.5145  -17.3770   19.0434 S   0  0  0  0  0  0  0  0  0  0  0  0
  -37.7024  -17.5570   20.2430 O   0  0  0  0  0  0  0  0  0  0  0  0
  -38.8739  -16.0031   18.7050 O   0  0  0  0  0  0  0  0  0  0  0  0
  -39.6251  -18.3243   18.9276 O   0  0  0  0  0  0  0  0  0  0  0  0
  -30.6325  -15.3139   15.3909 H   0  0  0  0  0  0  0  0  0  0  0  0
  -34.3422  -14.5330   18.4492 H   0  0  0  0  0  0  0  0  0  0  0  0
  -36.3894  -15.6134   18.9213 H   0  0  0  0  0  0  0  0  0  0  0  0
  -33.0077  -19.1799   13.6705 H   0  0  0  0  0  0  0  0  0  0  0  0
  -35.1079  -20.2048   14.0925 H   0  0  0  0  0  0  0  0  0  0  0  0
  -38.6364  -22.0225   14.7540 H   0  0  0  0  0  0  0  0  0  0  0  0
  -39.2692  -20.3864   14.9947 H   0  0  0  0  0  0  0  0  0  0  0  0
  -38.7815  -21.4185   16.3980 H   0  0  0  0  0  0  0  0  0  0  0  0
  -38.6763  -19.4794   17.2180 H   0  0  0  0  0  0  0  0  0  0  0  0
  1  2  2  0  0  0  0
  2  3  2  0  0  0  0
  2  4  1  0  0  0  0
  2  5  1  0  0  0  0
  5  6  2  0  0  0  0
  5 15  1  0  0  0  0
  6  7  1  0  0  0  0
  6 31  1  0  0  0  0
  7  8  1  0  0  0  0
  7 12  2  0  0  0  0
  8  9  2  0  0  0  0
  8 10  2  0  0  0  0
  8 11  1  0  0  0  0
 12 13  1  0  0  0  0
 12 16  1  0  0  0  0
 13 14  2  0  0  0  0
 13 32  1  0  0  0  0
 14 18  1  0  0  0  0
 14 33  1  0  0  0  0
 15 16  2  0  0  0  0
 15 19  1  0  0  0  0
 16 17  1  0  0  0  0
 17 18  2  0  0  0  0
 17 21  1  0  0  0  0
 18 26  1  0  0  0  0
 19 20  2  0  0  0  0
 19 34  1  0  0  0  0
 20 21  1  0  0  0  0
 20 35  1  0  0  0  0
 21 22  2  0  0  0  0
 22 23  1  0  0  0  0
 22 25  1  0  0  0  0
 23 24  1  0  0  0  0
 24 36  1  0  0  0  0
 24 37  1  0  0  0  0
 24 38  1  0  0  0  0
 25 26  2  0  0  0  0
 25 39  1  0  0  0  0
 26 27  1  0  0  0  0
 27 28  2  0  0  0  0
 27 29  2  0  0  0  0
 27 30  1  0  0  0  0
M  END
$$$$
