2N6
 OpenBabel04111918533D

 35 37  0  0  0  0  0  0  0  0999 V2000
   32.8097   13.4428   24.3648 C   0  0  0  0  0  0  0  0  0  0  0  0
   33.5578   12.1391   24.1823 C   0  0  0  0  0  0  0  0  0  0  0  0
   34.9186   12.2250   23.8651 C   0  0  0  0  0  0  0  0  0  0  0  0
   35.7162   11.0913   23.6665 C   0  0  0  0  0  0  0  0  0  0  0  0
   37.1647   11.2231   23.2904 C   0  0  0  0  0  0  0  0  0  0  0  0
   35.1419    9.8319   23.8099 C   0  0  0  0  0  0  0  0  0  0  0  0
   33.8102    9.7062   24.1605 C   0  0  0  0  0  0  0  0  0  0  0  0
   33.0050   10.8482   24.3283 C   0  0  0  0  0  0  0  0  0  0  0  0
   31.6578   10.6034   24.7901 C   0  0  0  0  0  0  0  0  0  0  0  0
   30.5344   10.9409   24.0779 C   0  0  0  0  0  0  0  0  0  0  0  0
   31.5490   10.0276   26.0095 N   0  0  0  0  0  0  0  0  0  0  0  0
   30.3343    9.8184   26.5194 C   0  0  0  0  0  0  0  0  0  0  0  0
   30.1759    9.0241   28.1230 S   0  0  0  0  0  0  0  0  0  0  0  0
   31.3042    7.6055   27.9734 C   0  0  0  0  0  0  0  0  0  0  0  0
   29.1719   10.1365   25.9231 N   0  0  0  0  0  0  0  0  0  0  0  0
   29.3344   10.6720   24.7029 C   0  0  0  0  0  0  0  0  0  0  0  0
   28.3348   11.0723   23.8521 N   0  3  0  0  0  0  0  0  0  0  0  0
   28.8988   11.5962   22.7198 C   0  0  0  0  0  0  0  0  0  0  0  0
   30.2573   11.5284   22.8466 C   0  0  0  0  0  0  0  0  0  0  0  0
   31.2079   11.9543   21.9050 C   0  0  0  0  0  0  0  0  0  0  0  0
   32.0597   12.2803   21.1609 N   0  0  0  0  0  0  0  0  0  0  0  0
   33.4884   14.3002   24.1957 H   0  0  0  0  0  0  0  0  0  0  0  0
   32.4025   13.5314   25.3780 H   0  0  0  0  0  0  0  0  0  0  0  0
   31.9903   13.5392   23.6466 H   0  0  0  0  0  0  0  0  0  0  0  0
   35.3629   13.2081   23.7683 H   0  0  0  0  0  0  0  0  0  0  0  0
   37.6283   10.2302   23.1801 H   0  0  0  0  0  0  0  0  0  0  0  0
   37.7162   11.7750   24.0636 H   0  0  0  0  0  0  0  0  0  0  0  0
   37.2649   11.7558   22.3346 H   0  0  0  0  0  0  0  0  0  0  0  0
   35.7308    8.9399   23.6480 H   0  0  0  0  0  0  0  0  0  0  0  0
   33.3899    8.7159   24.3254 H   0  0  0  0  0  0  0  0  0  0  0  0
   31.2868    7.0271   28.9125 H   0  0  0  0  0  0  0  0  0  0  0  0
   32.3235    7.9533   27.7955 H   0  0  0  0  0  0  0  0  0  0  0  0
   30.9851    6.9523   27.1565 H   0  0  0  0  0  0  0  0  0  0  0  0
   27.3434   10.9974   24.0361 H   0  0  0  0  0  0  0  0  0  0  0  0
   28.3350   11.9805   21.8945 H   0  0  0  0  0  0  0  0  0  0  0  0
  1  2  1  0  0  0  0
  1 22  1  0  0  0  0
  1 23  1  0  0  0  0
  1 24  1  0  0  0  0
  2  3  2  0  0  0  0
  2  8  1  0  0  0  0
  3  4  1  0  0  0  0
  3 25  1  0  0  0  0
  4  5  1  0  0  0  0
  4  6  2  0  0  0  0
  5 26  1  0  0  0  0
  5 27  1  0  0  0  0
  5 28  1  0  0  0  0
  6  7  1  0  0  0  0
  6 29  1  0  0  0  0
  7  8  2  0  0  0  0
  7 30  1  0  0  0  0
  8  9  1  0  0  0  0
  9 10  2  0  0  0  0
  9 11  1  0  0  0  0
 10 16  1  0  0  0  0
 10 19  1  0  0  0  0
 11 12  1  0  0  0  0
 12 13  1  0  0  0  0
 12 15  2  0  0  0  0
 13 14  1  0  0  0  0
 14 31  1  0  0  0  0
 14 32  1  0  0  0  0
 14 33  1  0  0  0  0
 15 16  1  0  0  0  0
 16 17  2  0  0  0  0
 17 18  1  0  0  0  0
 17 34  1  0  0  0  0
 18 19  2  0  0  0  0
 18 35  1  0  0  0  0
 19 20  1  0  0  0  0
 20 21  3  0  0  0  0
M  CHG  1  17   1
M  END
$$$$
