2OO
 OpenBabel04111920443D

 44 46  0  0  0  0  0  0  0  0999 V2000
   12.7265  -36.4783   11.6604 C   0  0  0  0  0  0  0  0  0  0  0  0
   13.6315  -36.2910   12.8740 C   0  0  0  0  0  0  0  0  0  0  0  0
   12.9490  -35.5701   13.9462 N   0  0  0  0  0  0  0  0  0  0  0  0
   13.0177  -34.2102   14.0375 C   0  0  0  0  0  0  0  0  0  0  0  0
   13.8404  -33.4158   13.3772 N   0  0  0  0  0  0  0  0  0  0  0  0
   13.5817  -32.1264   13.7762 C   0  0  0  0  0  0  0  0  0  0  0  0
   14.1689  -30.9042   13.3766 C   0  0  0  0  0  0  0  0  0  0  0  0
   13.7280  -29.7000   13.9445 C   0  0  0  0  0  0  0  0  0  0  0  0
   12.7021  -29.7107   14.8824 C   0  0  0  0  0  0  0  0  0  0  0  0
   12.1110  -30.9162   15.2786 C   0  0  0  0  0  0  0  0  0  0  0  0
   12.5695  -32.1162   14.7193 C   0  0  0  0  0  0  0  0  0  0  0  0
   12.2088  -33.4566   14.8919 N   0  3  0  0  0  0  0  0  0  0  0  0
   11.2133  -33.9678   15.7805 C   0  0  0  0  0  0  0  0  0  0  0  0
   10.9008  -35.2749   15.7153 N   0  0  0  0  0  0  0  0  0  0  0  0
    9.9803  -35.6787   16.5828 C   0  0  0  0  0  0  0  0  0  0  0  0
    9.3878  -34.8877   17.4820 N   0  0  0  0  0  0  0  0  0  0  0  0
    9.7697  -33.6066   17.4812 C   0  0  0  0  0  0  0  0  0  0  0  0
   10.6752  -33.1111   16.6534 N   0  0  0  0  0  0  0  0  0  0  0  0
    9.2061  -32.7191   18.3732 N   0  0  0  0  0  0  0  0  0  0  0  0
   12.2444  -28.4998   15.4596 C   0  0  0  0  0  0  0  0  0  0  0  0
   11.8323  -27.4646   15.9523 C   0  0  0  0  0  0  0  0  0  0  0  0
   11.2630  -26.2816   16.5865 C   0  0  0  0  0  0  0  0  0  0  0  0
    9.7670  -26.5046   16.7407 C   0  0  0  0  0  0  0  0  0  0  0  0
   11.9175  -26.0729   17.9460 C   0  0  0  0  0  0  0  0  0  0  0  0
   11.4194  -25.1155   15.7777 O   0  0  0  0  0  0  0  0  0  0  0  0
   13.2566  -37.0192   10.8615 H   0  0  0  0  0  0  0  0  0  0  0  0
   12.4134  -35.5018   11.2708 H   0  0  0  0  0  0  0  0  0  0  0  0
   11.8324  -37.0517   11.9355 H   0  0  0  0  0  0  0  0  0  0  0  0
   14.5303  -35.7444   12.5634 H   0  0  0  0  0  0  0  0  0  0  0  0
   13.9435  -37.2859   13.2308 H   0  0  0  0  0  0  0  0  0  0  0  0
   12.3996  -36.1124   14.6190 H   0  0  0  0  0  0  0  0  0  0  0  0
   14.9599  -30.8795   12.6333 H   0  0  0  0  0  0  0  0  0  0  0  0
   14.1976  -28.7661   13.6449 H   0  0  0  0  0  0  0  0  0  0  0  0
   11.3165  -30.9185   16.0087 H   0  0  0  0  0  0  0  0  0  0  0  0
    9.6949  -36.7391   16.5544 H   0  0  0  0  0  0  0  0  0  0  0  0
    8.5080  -33.0359   19.0273 H   0  0  0  0  0  0  0  0  0  0  0  0
    9.4968  -31.7492   18.3644 H   0  0  0  0  0  0  0  0  0  0  0  0
    9.2971  -25.6287   17.2018 H   0  0  0  0  0  0  0  0  0  0  0  0
    9.5748  -27.3873   17.3618 H   0  0  0  0  0  0  0  0  0  0  0  0
    9.3093  -26.6628   15.7520 H   0  0  0  0  0  0  0  0  0  0  0  0
   12.9986  -25.9106   17.8290 H   0  0  0  0  0  0  0  0  0  0  0  0
   11.7631  -26.9577   18.5793 H   0  0  0  0  0  0  0  0  0  0  0  0
   11.4865  -25.1976   18.4446 H   0  0  0  0  0  0  0  0  0  0  0  0
   12.3662  -24.9319   15.6586 H   0  0  0  0  0  0  0  0  0  0  0  0
  1  2  1  0  0  0  0
  1 26  1  0  0  0  0
  1 27  1  0  0  0  0
  1 28  1  0  0  0  0
  2  3  1  0  0  0  0
  2 29  1  0  0  0  0
  2 30  1  0  0  0  0
  3  4  1  0  0  0  0
  3 31  1  0  0  0  0
  4  5  1  0  0  0  0
  4 12  2  0  0  0  0
  5  6  1  0  0  0  0
  6  7  2  0  0  0  0
  6 11  1  0  0  0  0
  7  8  1  0  0  0  0
  7 32  1  0  0  0  0
  8  9  2  0  0  0  0
  8 33  1  0  0  0  0
  9 10  1  0  0  0  0
  9 20  1  0  0  0  0
 10 11  2  0  0  0  0
 10 34  1  0  0  0  0
 11 12  1  0  0  0  0
 12 13  1  0  0  0  0
 13 14  2  0  0  0  0
 13 18  1  0  0  0  0
 14 15  1  0  0  0  0
 15 16  2  0  0  0  0
 15 35  1  0  0  0  0
 16 17  1  0  0  0  0
 17 18  2  0  0  0  0
 17 19  1  0  0  0  0
 19 36  1  0  0  0  0
 19 37  1  0  0  0  0
 20 21  3  0  0  0  0
 21 22  1  0  0  0  0
 22 23  1  0  0  0  0
 22 24  1  0  0  0  0
 22 25  1  0  0  0  0
 23 38  1  0  0  0  0
 23 39  1  0  0  0  0
 23 40  1  0  0  0  0
 24 41  1  0  0  0  0
 24 42  1  0  0  0  0
 24 43  1  0  0  0  0
 25 44  1  0  0  0  0
M  CHG  1  12   1
M  END
$$$$
