2OX
 OpenBabel04111921013D

 36 38  0  0  1  0  0  0  0  0999 V2000
   34.4276    9.4804   58.9747 C   0  0  0  0  0  0  0  0  0  0  0  0
   34.9460   10.5935   59.6183 C   0  0  0  0  0  0  0  0  0  0  0  0
   34.0923   11.6213   60.0314 C   0  0  0  0  0  0  0  0  0  0  0  0
   32.7214   11.5280   59.7909 C   0  0  0  0  0  0  0  0  0  0  0  0
   32.1912   10.4211   59.1230 C   0  0  0  0  0  0  0  0  0  0  0  0
   33.0461    9.3935   58.7157 C   0  0  0  0  0  0  0  0  0  0  0  0
   32.5607    8.2725   58.0223 N   0  3  0  0  0  0  0  0  0  0  0  0
   31.4182    8.1281   57.2583 C   0  0  0  0  0  0  0  0  0  0  0  0
   33.2563    7.0994   57.9930 N   0  0  0  0  0  0  0  0  0  0  0  0
   32.5812    6.2271   57.2685 N   0  0  0  0  0  0  0  0  0  0  0  0
   31.4667    6.8350   56.7677 C   0  0  0  0  0  0  0  0  0  0  0  0
   30.5798    6.1477   55.7772 C   0  0  2  0  0  0  0  0  0  0  0  0
   29.0759    6.3105   56.0471 N   0  3  0  0  0  0  0  0  0  0  0  0
   28.4771    4.9110   56.0263 C   0  0  1  0  0  0  0  0  0  0  0  0
   27.0364    4.9511   55.5919 C   0  0  0  0  0  0  0  0  0  0  0  0
   29.4152    4.1774   55.0591 C   0  0  1  0  0  0  0  0  0  0  0  0
   29.2094    4.7334   53.7522 O   0  0  0  0  0  0  0  0  0  0  0  0
   30.7472    4.6070   55.6903 C   0  0  1  0  0  0  0  0  0  0  0  0
   31.8475    4.1846   54.9033 O   0  0  0  0  0  0  0  0  0  0  0  0
   35.1049    8.6970   58.6428 H   0  0  0  0  0  0  0  0  0  0  0  0
   36.0211   10.6754   59.7904 H   0  0  0  0  0  0  0  0  0  0  0  0
   34.5035   12.4905   60.5305 H   0  0  0  0  0  0  0  0  0  0  0  0
   32.0664   12.3320   60.1330 H   0  0  0  0  0  0  0  0  0  0  0  0
   31.1153   10.3662   58.9784 H   0  0  0  0  0  0  0  0  0  0  0  0
   30.7574    8.9638   57.0496 H   0  0  0  0  0  0  0  0  0  0  0  0
   30.7523    6.5954   54.7898 H   0  0  0  0  0  0  0  0  0  0  0  0
   28.8842    6.8002   56.9304 H   0  0  0  0  0  0  0  0  0  0  0  0
   28.5638    4.5237   57.0431 H   0  0  0  0  0  0  0  0  0  0  0  0
   26.6242    3.9431   55.6043 H   0  0  0  0  0  0  0  0  0  0  0  0
   26.9200    5.3535   54.5766 H   0  0  0  0  0  0  0  0  0  0  0  0
   26.4400    5.5746   56.2700 H   0  0  0  0  0  0  0  0  0  0  0  0
   29.2635    3.0972   55.0263 H   0  0  0  0  0  0  0  0  0  0  0  0
   29.7406    4.2514   53.0875 H   0  0  0  0  0  0  0  0  0  0  0  0
   30.8359    4.1837   56.7006 H   0  0  0  0  0  0  0  0  0  0  0  0
   31.9097    3.2113   54.9375 H   0  0  0  0  0  0  0  0  0  0  0  0
   28.6744    6.8539   55.2698 H   0  0  0  0  0  0  0  0  0  0  0  0
  1  2  2  0  0  0  0
  1  6  1  0  0  0  0
  1 20  1  0  0  0  0
  2  3  1  0  0  0  0
  2 21  1  0  0  0  0
  3  4  2  0  0  0  0
  3 22  1  0  0  0  0
  4  5  1  0  0  0  0
  4 23  1  0  0  0  0
  5  6  2  0  0  0  0
  5 24  1  0  0  0  0
  6  7  1  0  0  0  0
  7  8  2  0  0  0  0
  7  9  1  0  0  0  0
  8 11  1  0  0  0  0
  8 25  1  0  0  0  0
  9 10  1  0  0  0  0
 10 11  2  0  0  0  0
 11 12  1  0  0  0  0
 12 13  1  0  0  0  0
 12 18  1  0  0  0  0
 12 26  1  6  0  0  0
 13 14  1  0  0  0  0
 13 27  1  0  0  0  0
 13 36  1  0  0  0  0
 14 15  1  0  0  0  0
 14 16  1  0  0  0  0
 14 28  1  1  0  0  0
 15 29  1  0  0  0  0
 15 30  1  0  0  0  0
 15 31  1  0  0  0  0
 16 17  1  0  0  0  0
 16 18  1  0  0  0  0
 16 32  1  1  0  0  0
 17 33  1  0  0  0  0
 18 19  1  0  0  0  0
 18 34  1  1  0  0  0
 19 35  1  0  0  0  0
M  CHG  2   7   1  13   1
M  END
$$$$
