2Q8
 OpenBabel04111920423D

 52 55  0  0  1  0  0  0  0  0999 V2000
    8.6789  -12.3422  -24.1946 O   0  0  0  0  0  0  0  0  0  0  0  0
    7.5100  -12.6986  -24.3145 C   0  0  0  0  0  0  0  0  0  0  0  0
    7.1690  -14.1440  -24.6751 C   0  0  0  0  0  0  0  0  0  0  0  0
    5.8998  -14.2965  -25.5239 C   0  0  0  0  0  0  0  0  0  0  0  0
    5.5510  -15.7895  -25.6397 C   0  0  0  0  0  0  0  0  0  0  0  0
    6.1384  -13.7598  -26.9370 C   0  0  0  0  0  0  0  0  0  0  0  0
    6.3905  -11.7730  -24.1087 C   0  0  1  0  0  0  0  0  0  0  0  0
    6.3298  -10.4028  -23.7451 C   0  0  1  0  0  0  0  0  0  0  0  0
    7.4262   -9.4516  -23.4013 C   0  0  0  0  0  0  0  0  0  0  0  0
    6.9501   -7.9972  -23.4576 C   0  0  0  0  0  0  0  0  0  0  0  0
    5.6052   -7.8091  -22.8020 N   0  3  1  0  0  0  0  0  0  0  0  0
    5.2300   -6.3624  -22.7691 C   0  0  0  0  0  0  0  0  0  0  0  0
    4.5317   -8.6320  -23.4947 C   0  0  0  0  0  0  0  0  0  0  0  0
    4.9995  -10.0135  -23.7921 C   0  0  1  0  0  0  0  0  0  0  0  0
    4.2257  -11.1068  -24.1748 N   0  3  2  0  0  0  0  0  0  0  0  0
    5.0902  -12.1808  -24.3604 C   0  0  1  0  0  0  0  0  0  0  0  0
    4.7214  -13.5560  -24.8512 C   0  0  0  0  0  0  0  0  0  0  0  0
    2.8186  -11.1210  -24.3916 C   0  0  1  0  0  0  0  0  0  0  0  0
    2.2373  -10.1666  -25.2224 C   0  0  0  0  0  0  0  0  0  0  0  0
    0.8573  -10.1810  -25.4527 C   0  0  0  0  0  0  0  0  0  0  0  0
    0.0455  -11.1458  -24.8520 C   0  0  1  0  0  0  0  0  0  0  0  0
   -1.4127  -11.1432  -25.1826 C   0  0  0  0  0  0  0  0  0  0  0  0
   -2.2424  -11.7299  -24.2664 N   0  0  0  0  0  0  0  0  0  0  0  0
   -1.8313  -10.6468  -26.1962 O   0  0  0  0  0  0  0  0  0  0  0  0
    0.6298  -12.0935  -24.0054 C   0  0  0  0  0  0  0  0  0  0  0  0
    2.0134  -12.0889  -23.7788 C   0  0  0  0  0  0  0  0  0  0  0  0
    7.0439  -14.7062  -23.7419 H   0  0  0  0  0  0  0  0  0  0  0  0
    8.0215  -14.5562  -25.2290 H   0  0  0  0  0  0  0  0  0  0  0  0
    4.6477  -15.9245  -26.2479 H   0  0  0  0  0  0  0  0  0  0  0  0
    5.3668  -16.2139  -24.6447 H   0  0  0  0  0  0  0  0  0  0  0  0
    6.3741  -16.3448  -26.1074 H   0  0  0  0  0  0  0  0  0  0  0  0
    6.3929  -12.6982  -26.8966 H   0  0  0  0  0  0  0  0  0  0  0  0
    5.2353  -13.8810  -27.5479 H   0  0  0  0  0  0  0  0  0  0  0  0
    6.9608  -14.3002  -27.4219 H   0  0  0  0  0  0  0  0  0  0  0  0
    8.2412   -9.5553  -24.1207 H   0  0  0  0  0  0  0  0  0  0  0  0
    7.8080   -9.6655  -22.3975 H   0  0  0  0  0  0  0  0  0  0  0  0
    6.8314   -7.6771  -24.4946 H   0  0  0  0  0  0  0  0  0  0  0  0
    7.6505   -7.3438  -22.9307 H   0  0  0  0  0  0  0  0  0  0  0  0
    4.2583   -6.2780  -22.2827 H   0  0  0  0  0  0  0  0  0  0  0  0
    5.1837   -6.0005  -23.7971 H   0  0  0  0  0  0  0  0  0  0  0  0
    5.9923   -5.8247  -22.2034 H   0  0  0  0  0  0  0  0  0  0  0  0
    4.3153   -8.0945  -24.4185 H   0  0  0  0  0  0  0  0  0  0  0  0
    3.6805   -8.6224  -22.8142 H   0  0  0  0  0  0  0  0  0  0  0  0
    4.3987  -14.1515  -23.9904 H   0  0  0  0  0  0  0  0  0  0  0  0
    3.9080  -13.4832  -25.5755 H   0  0  0  0  0  0  0  0  0  0  0  0
    2.8457   -9.4264  -25.7353 H   0  0  0  0  0  0  0  0  0  0  0  0
    0.4096   -9.4311  -26.1038 H   0  0  0  0  0  0  0  0  0  0  0  0
   -3.2408  -11.7458  -24.4545 H   0  0  0  0  0  0  0  0  0  0  0  0
   -1.8951  -12.1385  -23.4176 H   0  0  0  0  0  0  0  0  0  0  0  0
    0.0189  -12.8587  -23.5315 H   0  0  0  0  0  0  0  0  0  0  0  0
    2.4431  -12.8267  -23.1049 H   0  0  0  0  0  0  0  0  0  0  0  0
    5.6803   -8.1455  -21.8360 H   0  0  0  0  0  0  0  0  0  0  0  0
  1  2  2  0  0  0  0
  2  3  1  0  0  0  0
  3  4  1  0  0  0  0
  3 27  1  0  0  0  0
  3 28  1  0  0  0  0
  4  5  1  0  0  0  0
  4  6  1  0  0  0  0
  4 17  1  0  0  0  0
  5 29  1  0  0  0  0
  5 30  1  0  0  0  0
  5 31  1  0  0  0  0
  6 32  1  0  0  0  0
  6 33  1  0  0  0  0
  6 34  1  0  0  0  0
  7  2  1  6  0  0  0
  7  8  1  0  0  0  0
  7 16  1  0  0  0  0
  8  9  1  6  0  0  0
  8 14  1  0  0  0  0
  9 10  1  0  0  0  0
  9 35  1  0  0  0  0
  9 36  1  0  0  0  0
 10 11  1  0  0  0  0
 10 37  1  0  0  0  0
 10 38  1  0  0  0  0
 11 12  1  0  0  0  0
 11 13  1  0  0  0  0
 11 52  1  1  0  0  0
 12 39  1  0  0  0  0
 12 40  1  0  0  0  0
 12 41  1  0  0  0  0
 13 42  1  0  0  0  0
 13 43  1  0  0  0  0
 14 13  1  6  0  0  0
 14 15  1  0  0  0  0
 15 16  1  0  0  0  0
 15 18  1  6  0  0  0
 16 17  1  6  0  0  0
 17 44  1  0  0  0  0
 17 45  1  0  0  0  0
 18 19  1  6  0  0  0
 18 26  1  0  0  0  0
 19 20  1  0  0  0  0
 19 46  1  0  0  0  0
 20 21  1  0  0  0  0
 20 47  1  0  0  0  0
 21 22  1  6  0  0  0
 21 25  1  0  0  0  0
 22 23  1  0  0  0  0
 22 24  2  0  0  0  0
 23 48  1  0  0  0  0
 23 49  1  0  0  0  0
 25 26  1  0  0  0  0
 25 50  1  0  0  0  0
 26 51  1  0  0  0  0
M  CHG  2  11   1  15   1
M  END
$$$$
