2QA
 OpenBabel04111920433D

 59 63  0  0  1  0  0  0  0  0999 V2000
    6.7007   -9.8903  -23.3760 C   0  0  1  0  0  0  0  0  0  0  0  0
   -1.2723  -10.9023  -26.3416 O   0  0  0  0  0  0  0  0  0  0  0  0
    5.3336   -9.6507  -23.3346 C   0  0  0  0  0  0  0  0  0  0  0  0
    5.5982  -11.7565  -24.0326 C   0  0  1  0  0  0  0  0  0  0  0  0
    6.8666  -11.2427  -23.8042 C   0  0  1  0  0  0  0  0  0  0  0  0
    8.0490  -12.0723  -24.0618 C   0  0  0  0  0  0  0  0  0  0  0  0
    7.8210  -13.5179  -24.4982 C   0  0  0  0  0  0  0  0  0  0  0  0
   -0.8371  -11.3169  -25.2940 C   0  0  0  0  0  0  0  0  0  0  0  0
   -1.5873  -12.1739  -24.4986 N   0  0  0  0  0  0  0  0  0  0  0  0
   -1.1019  -12.8266  -23.3038 C   0  0  0  0  0  0  0  0  0  0  0  0
    0.3487  -13.2181  -23.5101 C   0  0  0  0  0  0  0  0  0  0  0  0
    1.1512  -12.0292  -23.9900 C   0  0  1  0  0  0  0  0  0  0  0  0
    2.5026  -11.9392  -23.6374 C   0  0  0  0  0  0  0  0  0  0  0  0
    0.5662  -11.0263  -24.7992 C   0  0  1  0  0  0  0  0  0  0  0  0
    1.3001   -9.8558  -25.1423 C   0  0  1  0  0  0  0  0  0  0  0  0
    0.6653   -8.6662  -25.8428 C   0  0  0  0  0  0  0  0  0  0  0  0
    1.1019   -8.4066  -27.2860 C   0  0  0  0  0  0  0  0  0  0  0  0
    0.6479   -6.9754  -27.5900 C   0  0  0  0  0  0  0  0  0  0  0  0
    0.4107   -6.2951  -26.2476 C   0  0  0  0  0  0  0  0  0  0  0  0
    0.8861   -7.2884  -25.1926 C   0  0  0  0  0  0  0  0  0  0  0  0
    2.6558   -9.7919  -24.7483 C   0  0  0  0  0  0  0  0  0  0  0  0
    3.2589  -10.8347  -24.0322 C   0  0  2  0  0  0  0  0  0  0  0  0
    4.6553  -10.7754  -23.7580 N   0  3  2  0  0  0  0  0  0  0  0  0
    5.3255  -13.1214  -24.5891 C   0  0  0  0  0  0  0  0  0  0  0  0
    6.5424  -13.7359  -25.3180 C   0  0  0  0  0  0  0  0  0  0  0  0
    6.3122  -15.2476  -25.4865 C   0  0  0  0  0  0  0  0  0  0  0  0
    6.7003  -13.1309  -26.7151 C   0  0  0  0  0  0  0  0  0  0  0  0
    9.2001  -11.6546  -23.8907 O   0  0  0  0  0  0  0  0  0  0  0  0
    7.7270   -8.8671  -23.0359 C   0  0  0  0  0  0  0  0  0  0  0  0
    4.8317   -8.7412  -23.0323 H   0  0  0  0  0  0  0  0  0  0  0  0
    7.7784  -14.1442  -23.5962 H   0  0  0  0  0  0  0  0  0  0  0  0
    8.6888  -13.8265  -25.0966 H   0  0  0  0  0  0  0  0  0  0  0  0
   -2.5258  -12.3462  -24.8366 H   0  0  0  0  0  0  0  0  0  0  0  0
   -1.7152  -13.7153  -23.1117 H   0  0  0  0  0  0  0  0  0  0  0  0
   -1.2064  -12.1437  -22.4522 H   0  0  0  0  0  0  0  0  0  0  0  0
    0.4011  -14.0240  -24.2521 H   0  0  0  0  0  0  0  0  0  0  0  0
    0.7554  -13.5796  -22.5598 H   0  0  0  0  0  0  0  0  0  0  0  0
    2.9413  -12.7181  -23.0222 H   0  0  0  0  0  0  0  0  0  0  0  0
   -0.4111   -8.8348  -25.8412 H   0  0  0  0  0  0  0  0  0  0  0  0
    0.6331   -9.1111  -27.9795 H   0  0  0  0  0  0  0  0  0  0  0  0
    2.1905   -8.4804  -27.4039 H   0  0  0  0  0  0  0  0  0  0  0  0
   -0.2798   -6.9795  -28.1757 H   0  0  0  0  0  0  0  0  0  0  0  0
    1.4102   -6.4317  -28.1602 H   0  0  0  0  0  0  0  0  0  0  0  0
   -0.6585   -6.0817  -26.1151 H   0  0  0  0  0  0  0  0  0  0  0  0
    0.9598   -5.3472  -26.1861 H   0  0  0  0  0  0  0  0  0  0  0  0
    1.9427   -7.0933  -24.9685 H   0  0  0  0  0  0  0  0  0  0  0  0
    0.3110   -7.1667  -24.2684 H   0  0  0  0  0  0  0  0  0  0  0  0
    3.2581   -8.9334  -25.0454 H   0  0  0  0  0  0  0  0  0  0  0  0
    4.4961  -13.0771  -25.2978 H   0  0  0  0  0  0  0  0  0  0  0  0
    5.0661  -13.7812  -23.7554 H   0  0  0  0  0  0  0  0  0  0  0  0
    7.1550  -15.7183  -26.0089 H   0  0  0  0  0  0  0  0  0  0  0  0
    5.3988  -15.4352  -26.0636 H   0  0  0  0  0  0  0  0  0  0  0  0
    6.2046  -15.7288  -24.5068 H   0  0  0  0  0  0  0  0  0  0  0  0
    6.8717  -12.0555  -26.6436 H   0  0  0  0  0  0  0  0  0  0  0  0
    5.7948  -13.3002  -27.3091 H   0  0  0  0  0  0  0  0  0  0  0  0
    7.5472  -13.5842  -27.2442 H   0  0  0  0  0  0  0  0  0  0  0  0
    7.2524   -7.9219  -22.7254 H   0  0  0  0  0  0  0  0  0  0  0  0
    8.3532   -8.6555  -23.9070 H   0  0  0  0  0  0  0  0  0  0  0  0
    8.3546   -9.2152  -22.2123 H   0  0  0  0  0  0  0  0  0  0  0  0
  1  3  1  0  0  0  0
  1  5  1  0  0  0  0
  1 29  1  6  0  0  0
  2  8  2  0  0  0  0
  3 30  1  0  0  0  0
  4  5  1  0  0  0  0
  4 23  1  0  0  0  0
  4 24  1  6  0  0  0
  5  6  1  6  0  0  0
  6  7  1  0  0  0  0
  6 28  2  0  0  0  0
  7 25  1  0  0  0  0
  7 31  1  0  0  0  0
  7 32  1  0  0  0  0
  8  9  1  0  0  0  0
  9 10  1  0  0  0  0
  9 33  1  0  0  0  0
 10 11  1  0  0  0  0
 10 34  1  0  0  0  0
 10 35  1  0  0  0  0
 11 36  1  0  0  0  0
 11 37  1  0  0  0  0
 12 11  1  6  0  0  0
 12 13  1  0  0  0  0
 12 14  1  0  0  0  0
 13 38  1  0  0  0  0
 14  8  1  6  0  0  0
 14 15  1  0  0  0  0
 15 16  1  1  0  0  0
 15 21  1  0  0  0  0
 16 17  1  0  0  0  0
 16 20  1  0  0  0  0
 16 39  1  0  0  0  0
 17 18  1  0  0  0  0
 17 40  1  0  0  0  0
 17 41  1  0  0  0  0
 18 19  1  0  0  0  0
 18 42  1  0  0  0  0
 18 43  1  0  0  0  0
 19 20  1  0  0  0  0
 19 44  1  0  0  0  0
 19 45  1  0  0  0  0
 20 46  1  0  0  0  0
 20 47  1  0  0  0  0
 21 22  1  0  0  0  0
 21 48  1  0  0  0  0
 22 13  1  6  0  0  0
 22 23  1  0  0  0  0
 23  3  1  6  0  0  0
 24 25  1  0  0  0  0
 24 49  1  0  0  0  0
 24 50  1  0  0  0  0
 25 26  1  0  0  0  0
 25 27  1  0  0  0  0
 26 51  1  0  0  0  0
 26 52  1  0  0  0  0
 26 53  1  0  0  0  0
 27 54  1  0  0  0  0
 27 55  1  0  0  0  0
 27 56  1  0  0  0  0
 29 57  1  0  0  0  0
 29 58  1  0  0  0  0
 29 59  1  0  0  0  0
M  CHG  1  23   1
M  END
$$$$
