2QP
 OpenBabel04111920503D

 54 55  0  0  1  0  0  0  0  0999 V2000
   23.5536   48.3936   46.9682 C   0  0  0  0  0  0  0  0  0  0  0  0
   23.6672   48.6380   48.3652 C   0  0  0  0  0  0  0  0  0  0  0  0
   23.5156   49.9254   48.8924 C   0  0  0  0  0  0  0  0  0  0  0  0
   23.6222   50.2662   50.9553 I   0  0  0  0  0  0  0  0  0  0  0  0
   23.2747   50.9800   48.0202 C   0  0  0  0  0  0  0  0  0  0  0  0
   23.1623   50.7268   46.6402 C   0  0  0  0  0  0  0  0  0  0  0  0
   23.2916   49.4389   46.0746 C   0  0  0  0  0  0  0  0  0  0  0  0
   22.9541   49.3220   44.6103 C   0  0  0  0  0  0  0  0  0  0  0  0
   22.2588   50.2294   44.1206 O   0  0  0  0  0  0  0  0  0  0  0  0
   23.3211   48.3766   43.7006 N   0  0  0  0  0  0  0  0  0  0  0  0
   24.1301   47.1699   43.6026 C   0  0  0  0  0  0  0  0  0  0  0  0
   23.3986   46.1711   42.6851 C   0  0  0  0  0  0  0  0  0  0  0  0
   22.4205   45.3159   43.5013 C   0  0  0  0  0  0  0  0  0  0  0  0
   20.9797   45.8285   43.3804 C   0  0  0  0  0  0  0  0  0  0  0  0
   19.9697   45.1270   44.3036 C   0  0  1  0  0  0  0  0  0  0  0  0
   20.1705   45.6660   45.7636 C   0  0  0  0  0  0  0  0  0  0  0  0
   20.8385   44.9437   46.5413 O   0  0  0  0  0  0  0  0  0  0  0  0
   19.6098   46.7891   45.9782 O   0  0  0  0  0  0  0  0  0  0  0  0
   18.6072   45.4215   43.8515 N   0  0  0  0  0  0  0  0  0  0  0  0
   17.9561   44.6487   42.9493 C   0  0  0  0  0  0  0  0  0  0  0  0
   18.4170   43.6119   42.4921 O   0  0  0  0  0  0  0  0  0  0  0  0
   16.6933   45.1140   42.6588 N   0  0  0  0  0  0  0  0  0  0  0  0
   16.1064   44.5893   41.4226 C   0  0  2  0  0  0  0  0  0  0  0  0
   16.9867   44.6704   40.1281 C   0  0  0  0  0  0  0  0  0  0  0  0
   16.6526   43.8482   39.2164 O   0  0  0  0  0  0  0  0  0  0  0  0
   17.9052   45.5411   40.1085 O   0  0  0  0  0  0  0  0  0  0  0  0
   14.7144   45.1244   41.1439 C   0  0  0  0  0  0  0  0  0  0  0  0
   14.5360   46.5600   40.7440 C   0  0  0  0  0  0  0  0  0  0  0  0
   13.4107   47.3325   40.8178 C   0  0  0  0  0  0  0  0  0  0  0  0
   13.7175   48.5749   40.2833 C   0  0  0  0  0  0  0  0  0  0  0  0
   15.0425   48.5135   39.8623 C   0  0  0  0  0  0  0  0  0  0  0  0
   15.5341   47.2711   40.1434 O   0  0  0  0  0  0  0  0  0  0  0  0
   23.6123   47.3687   46.6257 H   0  0  0  0  0  0  0  0  0  0  0  0
   23.8219   47.7977   49.0397 H   0  0  0  0  0  0  0  0  0  0  0  0
   23.1350   51.9920   48.3930 H   0  0  0  0  0  0  0  0  0  0  0  0
   22.9170   51.5663   45.9906 H   0  0  0  0  0  0  0  0  0  0  0  0
   22.7914   48.5504   42.8510 H   0  0  0  0  0  0  0  0  0  0  0  0
   24.3436   46.7605   44.5908 H   0  0  0  0  0  0  0  0  0  0  0  0
   25.0827   47.4492   43.1401 H   0  0  0  0  0  0  0  0  0  0  0  0
   24.1233   45.5254   42.1714 H   0  0  0  0  0  0  0  0  0  0  0  0
   22.8607   46.6961   41.8750 H   0  0  0  0  0  0  0  0  0  0  0  0
   22.7308   45.3077   44.5508 H   0  0  0  0  0  0  0  0  0  0  0  0
   22.4731   44.2787   43.1500 H   0  0  0  0  0  0  0  0  0  0  0  0
   20.6670   45.7099   42.3344 H   0  0  0  0  0  0  0  0  0  0  0  0
   20.9587   46.9045   43.5863 H   0  0  0  0  0  0  0  0  0  0  0  0
   20.1212   44.0392   44.2767 H   0  0  0  0  0  0  0  0  0  0  0  0
   18.2581   46.3230   44.1398 H   0  0  0  0  0  0  0  0  0  0  0  0
   16.4075   46.0139   43.0084 H   0  0  0  0  0  0  0  0  0  0  0  0
   15.9772   43.5156   41.6442 H   0  0  0  0  0  0  0  0  0  0  0  0
   14.1162   44.9932   42.0575 H   0  0  0  0  0  0  0  0  0  0  0  0
   14.2126   44.4922   40.3937 H   0  0  0  0  0  0  0  0  0  0  0  0
   12.4638   46.9930   41.2181 H   0  0  0  0  0  0  0  0  0  0  0  0
   13.1227   49.4382   40.1936 H   0  0  0  0  0  0  0  0  0  0  0  0
   15.6847   49.2006   39.3752 H   0  0  0  0  0  0  0  0  0  0  0  0
  1  2  2  0  0  0  0
  1  7  1  0  0  0  0
  1 33  1  0  0  0  0
  2  3  1  0  0  0  0
  2 34  1  0  0  0  0
  3  4  1  0  0  0  0
  3  5  2  0  0  0  0
  5  6  1  0  0  0  0
  5 35  1  0  0  0  0
  6  7  2  0  0  0  0
  6 36  1  0  0  0  0
  7  8  1  0  0  0  0
  8  9  2  0  0  0  0
  8 10  1  0  0  0  0
 10 11  1  0  0  0  0
 10 37  1  0  0  0  0
 11 12  1  0  0  0  0
 11 38  1  0  0  0  0
 11 39  1  0  0  0  0
 12 13  1  0  0  0  0
 12 40  1  0  0  0  0
 12 41  1  0  0  0  0
 13 14  1  0  0  0  0
 13 42  1  0  0  0  0
 13 43  1  0  0  0  0
 14 15  1  0  0  0  0
 14 44  1  0  0  0  0
 14 45  1  0  0  0  0
 15 16  1  0  0  0  0
 15 19  1  0  0  0  0
 15 46  1  6  0  0  0
 16 17  2  0  0  0  0
 16 18  1  0  0  0  0
 19 20  1  0  0  0  0
 19 47  1  0  0  0  0
 20 21  2  0  0  0  0
 20 22  1  0  0  0  0
 22 23  1  0  0  0  0
 22 48  1  0  0  0  0
 23 24  1  0  0  0  0
 23 27  1  0  0  0  0
 23 49  1  1  0  0  0
 24 25  2  0  0  0  0
 24 26  1  0  0  0  0
 27 28  1  0  0  0  0
 27 50  1  0  0  0  0
 27 51  1  0  0  0  0
 28 29  2  0  0  0  0
 28 32  1  0  0  0  0
 29 30  1  0  0  0  0
 29 52  1  0  0  0  0
 30 31  2  0  0  0  0
 30 53  1  0  0  0  0
 31 32  1  0  0  0  0
 31 54  1  0  0  0  0
M  END
$$$$
