2QQ
 OpenBabel04111920493D

 49 49  0  0  1  0  0  0  0  0999 V2000
   23.4214   48.3337   47.1414 C   0  0  0  0  0  0  0  0  0  0  0  0
   23.5111   48.5944   48.5516 C   0  0  0  0  0  0  0  0  0  0  0  0
   23.4121   49.8771   49.0751 C   0  0  0  0  0  0  0  0  0  0  0  0
   23.5607   50.1977   51.2804 I   0  0  0  0  0  0  0  0  0  0  0  0
   23.2188   50.8928   48.1421 C   0  0  0  0  0  0  0  0  0  0  0  0
   23.1041   50.6191   46.7170 C   0  0  0  0  0  0  0  0  0  0  0  0
   23.2220   49.3197   46.1678 C   0  0  0  0  0  0  0  0  0  0  0  0
   23.0122   48.9567   44.6643 C   0  0  0  0  0  0  0  0  0  0  0  0
   22.2169   49.5775   43.9617 O   0  0  0  0  0  0  0  0  0  0  0  0
   23.7106   47.8845   44.1079 N   0  0  0  0  0  0  0  0  0  0  0  0
   23.4446   47.4165   42.7304 C   0  0  0  0  0  0  0  0  0  0  0  0
   23.3505   45.8876   42.6102 C   0  0  0  0  0  0  0  0  0  0  0  0
   22.4121   45.2161   43.6387 C   0  0  0  0  0  0  0  0  0  0  0  0
   20.9411   45.6019   43.4132 C   0  0  0  0  0  0  0  0  0  0  0  0
   19.9189   44.9985   44.3911 C   0  0  1  0  0  0  0  0  0  0  0  0
   20.1318   45.6151   45.7919 C   0  0  0  0  0  0  0  0  0  0  0  0
   19.6102   46.7546   45.9880 O   0  0  0  0  0  0  0  0  0  0  0  0
   20.7839   44.8965   46.6115 O   0  0  0  0  0  0  0  0  0  0  0  0
   18.5580   45.3287   43.9315 N   0  0  0  0  0  0  0  0  0  0  0  0
   17.9097   44.5662   43.0404 C   0  0  0  0  0  0  0  0  0  0  0  0
   18.3860   43.5417   42.5887 O   0  0  0  0  0  0  0  0  0  0  0  0
   16.6351   44.9686   42.7554 N   0  0  0  0  0  0  0  0  0  0  0  0
   16.0542   44.3110   41.5804 C   0  0  2  0  0  0  0  0  0  0  0  0
   16.9430   44.5318   40.2902 C   0  0  0  0  0  0  0  0  0  0  0  0
   16.7441   43.7178   39.3377 O   0  0  0  0  0  0  0  0  0  0  0  0
   17.7406   45.5212   40.3250 O   0  0  0  0  0  0  0  0  0  0  0  0
   14.6122   44.7306   41.2951 C   0  0  0  0  0  0  0  0  0  0  0  0
   14.4239   46.1260   40.9837 C   0  0  0  0  0  0  0  0  0  0  0  0
   14.2419   47.3189   40.7030 C   0  0  0  0  0  0  0  0  0  0  0  0
   23.4705   47.2929   46.8174 H   0  0  0  0  0  0  0  0  0  0  0  0
   23.6577   47.7472   49.2121 H   0  0  0  0  0  0  0  0  0  0  0  0
   23.1454   51.9265   48.4678 H   0  0  0  0  0  0  0  0  0  0  0  0
   22.9103   51.4650   46.0520 H   0  0  0  0  0  0  0  0  0  0  0  0
   24.3421   47.3478   44.6804 H   0  0  0  0  0  0  0  0  0  0  0  0
   24.2680   47.7821   42.0928 H   0  0  0  0  0  0  0  0  0  0  0  0
   22.5171   47.8629   42.3512 H   0  0  0  0  0  0  0  0  0  0  0  0
   24.3658   45.4771   42.7158 H   0  0  0  0  0  0  0  0  0  0  0  0
   23.0026   45.6455   41.5933 H   0  0  0  0  0  0  0  0  0  0  0  0
   22.7190   45.5042   44.6511 H   0  0  0  0  0  0  0  0  0  0  0  0
   22.5173   44.1235   43.5610 H   0  0  0  0  0  0  0  0  0  0  0  0
   20.6641   45.3050   42.3919 H   0  0  0  0  0  0  0  0  0  0  0  0
   20.8587   46.6933   43.4730 H   0  0  0  0  0  0  0  0  0  0  0  0
   20.0292   43.8997   44.4565 H   0  0  0  0  0  0  0  0  0  0  0  0
   18.1746   46.2007   44.2594 H   0  0  0  0  0  0  0  0  0  0  0  0
   16.2098   45.7746   43.1857 H   0  0  0  0  0  0  0  0  0  0  0  0
   16.0306   43.2273   41.8339 H   0  0  0  0  0  0  0  0  0  0  0  0
   13.9829   44.5140   42.1709 H   0  0  0  0  0  0  0  0  0  0  0  0
   14.2311   44.1499   40.4456 H   0  0  0  0  0  0  0  0  0  0  0  0
   14.1060   48.3164   40.4689 H   0  0  0  0  0  0  0  0  0  0  0  0
  1  2  2  0  0  0  0
  1  7  1  0  0  0  0
  1 30  1  0  0  0  0
  2  3  1  0  0  0  0
  2 31  1  0  0  0  0
  3  4  1  0  0  0  0
  3  5  2  0  0  0  0
  5  6  1  0  0  0  0
  5 32  1  0  0  0  0
  6  7  2  0  0  0  0
  6 33  1  0  0  0  0
  7  8  1  0  0  0  0
  8  9  2  0  0  0  0
  8 10  1  0  0  0  0
 10 11  1  0  0  0  0
 10 34  1  0  0  0  0
 11 12  1  0  0  0  0
 11 35  1  0  0  0  0
 11 36  1  0  0  0  0
 12 13  1  0  0  0  0
 12 37  1  0  0  0  0
 12 38  1  0  0  0  0
 13 14  1  0  0  0  0
 13 39  1  0  0  0  0
 13 40  1  0  0  0  0
 14 15  1  0  0  0  0
 14 41  1  0  0  0  0
 14 42  1  0  0  0  0
 15 16  1  0  0  0  0
 15 19  1  0  0  0  0
 15 43  1  1  0  0  0
 16 17  2  0  0  0  0
 16 18  1  0  0  0  0
 19 20  1  0  0  0  0
 19 44  1  0  0  0  0
 20 21  2  0  0  0  0
 20 22  1  0  0  0  0
 22 23  1  0  0  0  0
 22 45  1  0  0  0  0
 23 24  1  0  0  0  0
 23 27  1  0  0  0  0
 23 46  1  1  0  0  0
 24 25  2  0  0  0  0
 24 26  1  0  0  0  0
 27 28  1  0  0  0  0
 27 47  1  0  0  0  0
 27 48  1  0  0  0  0
 28 29  3  0  0  0  0
 29 49  1  0  0  0  0
M  END
$$$$
