2R6
 OpenBabel04111920433D

 58 61  0  0  1  0  0  0  0  0999 V2000
   -1.1669  -10.6491  -26.4231 O   0  0  0  0  0  0  0  0  0  0  0  0
   -0.7708  -11.1006  -25.3796 C   0  0  0  0  0  0  0  0  0  0  0  0
   -1.6060  -11.8605  -24.5693 N   0  0  0  0  0  0  0  0  0  0  0  0
   -1.2118  -12.5436  -23.3548 C   0  0  0  0  0  0  0  0  0  0  0  0
    0.2121  -13.0477  -23.4780 C   0  0  0  0  0  0  0  0  0  0  0  0
    1.1218  -11.9517  -23.9940 C   0  0  0  0  0  0  0  0  0  0  0  0
    2.4661  -11.9537  -23.5946 C   0  0  0  0  0  0  0  0  0  0  0  0
    0.6493  -10.9552  -24.8877 C   0  0  0  0  0  0  0  0  0  0  0  0
    1.5149   -9.9112  -25.2983 C   0  0  0  0  0  0  0  0  0  0  0  0
    1.1510   -8.7148  -26.1511 C   0  0  0  0  0  0  0  0  0  0  0  0
    0.3935   -7.5667  -25.4682 C   0  0  0  0  0  0  0  0  0  0  0  0
    0.1490   -6.4530  -26.4884 C   0  0  0  0  0  0  0  0  0  0  0  0
    1.0979   -6.9764  -24.2514 C   0  0  0  0  0  0  0  0  0  0  0  0
    2.8576   -9.9416  -24.8684 C   0  0  0  0  0  0  0  0  0  0  0  0
    3.3291  -10.9573  -24.0420 C   0  0  0  0  0  0  0  0  0  0  0  0
    4.7115  -10.9836  -23.7263 N   0  3  0  0  0  0  0  0  0  0  0  0
    5.4473   -9.9083  -23.2729 C   0  0  0  0  0  0  0  0  0  0  0  0
    5.5991  -11.9985  -24.0429 C   0  0  1  0  0  0  0  0  0  0  0  0
    5.2447  -13.3268  -24.6412 C   0  0  0  0  0  0  0  0  0  0  0  0
    6.4236  -13.9930  -25.3856 C   0  0  0  0  0  0  0  0  0  0  0  0
    6.6147  -13.3654  -26.7683 C   0  0  0  0  0  0  0  0  0  0  0  0
    6.1061  -15.4847  -25.5882 C   0  0  0  0  0  0  0  0  0  0  0  0
    7.7114  -13.8643  -24.5618 C   0  0  0  0  0  0  0  0  0  0  0  0
    8.0261  -12.4377  -24.1103 C   0  0  0  0  0  0  0  0  0  0  0  0
    9.1988  -12.0782  -23.9745 O   0  0  0  0  0  0  0  0  0  0  0  0
    6.8928  -11.5574  -23.8089 C   0  0  1  0  0  0  0  0  0  0  0  0
    6.7980  -10.2126  -23.3324 C   0  0  1  0  0  0  0  0  0  0  0  0
    7.8759   -9.2538  -22.9608 C   0  0  0  0  0  0  0  0  0  0  0  0
   -2.5601  -11.9213  -24.8969 H   0  0  0  0  0  0  0  0  0  0  0  0
   -1.8974  -13.3842  -23.1928 H   0  0  0  0  0  0  0  0  0  0  0  0
   -1.3042  -11.8535  -22.5086 H   0  0  0  0  0  0  0  0  0  0  0  0
    0.2339  -13.9030  -24.1650 H   0  0  0  0  0  0  0  0  0  0  0  0
    0.5528  -13.3817  -22.4900 H   0  0  0  0  0  0  0  0  0  0  0  0
    2.8206  -12.7132  -22.9047 H   0  0  0  0  0  0  0  0  0  0  0  0
    0.5579   -9.0605  -27.0004 H   0  0  0  0  0  0  0  0  0  0  0  0
    2.0845   -8.2972  -26.5642 H   0  0  0  0  0  0  0  0  0  0  0  0
   -0.5760   -7.9477  -25.1416 H   0  0  0  0  0  0  0  0  0  0  0  0
   -0.3917   -5.6215  -26.0238 H   0  0  0  0  0  0  0  0  0  0  0  0
   -0.4490   -6.8336  -27.3236 H   0  0  0  0  0  0  0  0  0  0  0  0
    1.0984   -6.0715  -26.8865 H   0  0  0  0  0  0  0  0  0  0  0  0
    1.2823   -7.7526  -23.5052 H   0  0  0  0  0  0  0  0  0  0  0  0
    0.4674   -6.2047  -23.7893 H   0  0  0  0  0  0  0  0  0  0  0  0
    2.0534   -6.5162  -24.5287 H   0  0  0  0  0  0  0  0  0  0  0  0
    3.5424   -9.1666  -25.2249 H   0  0  0  0  0  0  0  0  0  0  0  0
    4.9929   -8.9816  -22.9406 H   0  0  0  0  0  0  0  0  0  0  0  0
    4.4231  -13.2067  -25.3492 H   0  0  0  0  0  0  0  0  0  0  0  0
    4.9398  -13.9933  -23.8289 H   0  0  0  0  0  0  0  0  0  0  0  0
    7.4364  -13.8520  -27.3076 H   0  0  0  0  0  0  0  0  0  0  0  0
    6.8440  -12.3028  -26.6706 H   0  0  0  0  0  0  0  0  0  0  0  0
    5.7012  -13.4713  -27.3653 H   0  0  0  0  0  0  0  0  0  0  0  0
    5.9660  -15.9796  -24.6192 H   0  0  0  0  0  0  0  0  0  0  0  0
    6.9227  -15.9916  -26.1181 H   0  0  0  0  0  0  0  0  0  0  0  0
    5.1856  -15.6055  -26.1725 H   0  0  0  0  0  0  0  0  0  0  0  0
    8.5593  -14.2167  -25.1639 H   0  0  0  0  0  0  0  0  0  0  0  0
    7.6286  -14.4978  -23.6683 H   0  0  0  0  0  0  0  0  0  0  0  0
    7.4490   -8.2974  -22.6161 H   0  0  0  0  0  0  0  0  0  0  0  0
    8.5109   -9.0451  -23.8257 H   0  0  0  0  0  0  0  0  0  0  0  0
    8.4844   -9.6630  -22.1513 H   0  0  0  0  0  0  0  0  0  0  0  0
  1  2  2  0  0  0  0
  2  3  1  0  0  0  0
  2  8  1  0  0  0  0
  3  4  1  0  0  0  0
  3 29  1  0  0  0  0
  4  5  1  0  0  0  0
  4 30  1  0  0  0  0
  4 31  1  0  0  0  0
  5  6  1  0  0  0  0
  5 32  1  0  0  0  0
  5 33  1  0  0  0  0
  6  7  2  0  0  0  0
  6  8  1  0  0  0  0
  7 15  1  0  0  0  0
  7 34  1  0  0  0  0
  8  9  2  0  0  0  0
  9 10  1  0  0  0  0
  9 14  1  0  0  0  0
 10 11  1  0  0  0  0
 10 35  1  0  0  0  0
 10 36  1  0  0  0  0
 11 12  1  0  0  0  0
 11 13  1  0  0  0  0
 11 37  1  0  0  0  0
 12 38  1  0  0  0  0
 12 39  1  0  0  0  0
 12 40  1  0  0  0  0
 13 41  1  0  0  0  0
 13 42  1  0  0  0  0
 13 43  1  0  0  0  0
 14 15  2  0  0  0  0
 14 44  1  0  0  0  0
 15 16  1  0  0  0  0
 16 17  1  0  0  0  0
 17 27  1  0  0  0  0
 17 45  1  0  0  0  0
 18 16  1  6  0  0  0
 18 19  1  0  0  0  0
 18 26  1  0  0  0  0
 19 20  1  0  0  0  0
 19 46  1  0  0  0  0
 19 47  1  0  0  0  0
 20 21  1  0  0  0  0
 20 22  1  0  0  0  0
 20 23  1  0  0  0  0
 21 48  1  0  0  0  0
 21 49  1  0  0  0  0
 21 50  1  0  0  0  0
 22 51  1  0  0  0  0
 22 52  1  0  0  0  0
 22 53  1  0  0  0  0
 23 24  1  0  0  0  0
 23 54  1  0  0  0  0
 23 55  1  0  0  0  0
 24 25  2  0  0  0  0
 26 24  1  6  0  0  0
 26 27  1  0  0  0  0
 27 28  1  6  0  0  0
 28 56  1  0  0  0  0
 28 57  1  0  0  0  0
 28 58  1  0  0  0  0
M  CHG  1  16   1
M  END
$$$$
