2R7
 OpenBabel04111920473D

 48 49  0  0  1  0  0  0  0  0999 V2000
   15.2160   43.6622   41.4061 C   0  0  0  0  0  0  0  0  0  0  0  0
   14.7301   45.0513   41.1454 C   0  0  0  0  0  0  0  0  0  0  0  0
   16.2272   44.7856   41.2266 C   0  0  0  0  0  0  0  0  0  0  0  0
   17.0849   44.7251   39.9734 C   0  0  0  0  0  0  0  0  0  0  0  0
   16.7753   43.8825   39.0495 O   0  0  0  0  0  0  0  0  0  0  0  0
   18.0622   45.5422   39.8648 O   0  0  0  0  0  0  0  0  0  0  0  0
   16.9006   45.1826   42.4476 N   0  0  0  0  0  0  0  0  0  0  0  0
   18.0412   44.5148   42.8233 C   0  0  0  0  0  0  0  0  0  0  0  0
   18.4419   43.4714   42.3246 O   0  0  0  0  0  0  0  0  0  0  0  0
   18.6346   45.1059   43.8904 N   0  0  0  0  0  0  0  0  0  0  0  0
   19.9852   44.7780   44.3675 C   0  0  2  0  0  0  0  0  0  0  0  0
   20.1759   45.4508   45.7614 C   0  0  0  0  0  0  0  0  0  0  0  0
   20.7429   44.7547   46.6479 O   0  0  0  0  0  0  0  0  0  0  0  0
   19.6820   46.6185   45.8566 O   0  0  0  0  0  0  0  0  0  0  0  0
   20.9847   45.3317   43.3356 C   0  0  0  0  0  0  0  0  0  0  0  0
   22.4723   45.3044   43.6755 C   0  0  0  0  0  0  0  0  0  0  0  0
   23.2827   45.9750   42.5450 C   0  0  0  0  0  0  0  0  0  0  0  0
   23.4643   47.5022   42.7014 C   0  0  0  0  0  0  0  0  0  0  0  0
   23.7004   47.9224   44.0921 N   0  0  0  0  0  0  0  0  0  0  0  0
   23.1701   49.0932   44.6458 C   0  0  0  0  0  0  0  0  0  0  0  0
   22.6547   49.9711   43.9893 O   0  0  0  0  0  0  0  0  0  0  0  0
   23.3348   49.2787   46.1517 C   0  0  0  0  0  0  0  0  0  0  0  0
   23.3614   50.5842   46.6775 C   0  0  0  0  0  0  0  0  0  0  0  0
   23.4699   50.8225   48.0634 C   0  0  0  0  0  0  0  0  0  0  0  0
   23.5436   49.7503   48.9523 C   0  0  0  0  0  0  0  0  0  0  0  0
   23.6566   50.1028   51.0142 I   0  0  0  0  0  0  0  0  0  0  0  0
   23.5298   48.4509   48.4545 C   0  0  0  0  0  0  0  0  0  0  0  0
   23.4240   48.2189   47.0633 C   0  0  0  0  0  0  0  0  0  0  0  0
   15.1795   42.9248   40.6124 H   0  0  0  0  0  0  0  0  0  0  0  0
   15.2025   43.2220   42.3964 H   0  0  0  0  0  0  0  0  0  0  0  0
   14.2639   45.5855   41.9755 H   0  0  0  0  0  0  0  0  0  0  0  0
   14.2817   45.2641   40.1848 H   0  0  0  0  0  0  0  0  0  0  0  0
   16.6896   46.0749   42.8694 H   0  0  0  0  0  0  0  0  0  0  0  0
   18.3111   46.0022   44.2203 H   0  0  0  0  0  0  0  0  0  0  0  0
   20.0623   43.6860   44.4451 H   0  0  0  0  0  0  0  0  0  0  0  0
   20.7139   46.3718   43.1267 H   0  0  0  0  0  0  0  0  0  0  0  0
   20.8542   44.7803   42.3957 H   0  0  0  0  0  0  0  0  0  0  0  0
   22.8158   44.2721   43.8045 H   0  0  0  0  0  0  0  0  0  0  0  0
   22.6490   45.8098   44.6266 H   0  0  0  0  0  0  0  0  0  0  0  0
   22.8056   45.7801   41.5716 H   0  0  0  0  0  0  0  0  0  0  0  0
   24.2684   45.4974   42.4782 H   0  0  0  0  0  0  0  0  0  0  0  0
   22.6133   48.0304   42.2813 H   0  0  0  0  0  0  0  0  0  0  0  0
   24.3521   47.7995   42.1217 H   0  0  0  0  0  0  0  0  0  0  0  0
   24.1775   47.2688   44.6906 H   0  0  0  0  0  0  0  0  0  0  0  0
   23.2866   51.4334   46.0025 H   0  0  0  0  0  0  0  0  0  0  0  0
   23.4774   51.8442   48.4322 H   0  0  0  0  0  0  0  0  0  0  0  0
   23.5565   47.5969   49.1298 H   0  0  0  0  0  0  0  0  0  0  0  0
   23.3683   47.1882   46.7217 H   0  0  0  0  0  0  0  0  0  0  0  0
  1  2  1  0  0  0  0
  1  3  1  0  0  0  0
  1 29  1  0  0  0  0
  1 30  1  0  0  0  0
  2  3  1  0  0  0  0
  2 31  1  0  0  0  0
  2 32  1  0  0  0  0
  3  4  1  0  0  0  0
  3  7  1  0  0  0  0
  4  5  2  0  0  0  0
  4  6  1  0  0  0  0
  7  8  1  0  0  0  0
  7 33  1  0  0  0  0
  8  9  2  0  0  0  0
  8 10  1  0  0  0  0
 10 11  1  0  0  0  0
 10 34  1  0  0  0  0
 11 12  1  0  0  0  0
 11 15  1  0  0  0  0
 11 35  1  1  0  0  0
 12 13  2  0  0  0  0
 12 14  1  0  0  0  0
 15 16  1  0  0  0  0
 15 36  1  0  0  0  0
 15 37  1  0  0  0  0
 16 17  1  0  0  0  0
 16 38  1  0  0  0  0
 16 39  1  0  0  0  0
 17 18  1  0  0  0  0
 17 40  1  0  0  0  0
 17 41  1  0  0  0  0
 18 19  1  0  0  0  0
 18 42  1  0  0  0  0
 18 43  1  0  0  0  0
 19 20  1  0  0  0  0
 19 44  1  0  0  0  0
 20 21  2  0  0  0  0
 20 22  1  0  0  0  0
 22 23  2  0  0  0  0
 22 28  1  0  0  0  0
 23 24  1  0  0  0  0
 23 45  1  0  0  0  0
 24 25  2  0  0  0  0
 24 46  1  0  0  0  0
 25 26  1  0  0  0  0
 25 27  1  0  0  0  0
 27 28  2  0  0  0  0
 27 47  1  0  0  0  0
 28 48  1  0  0  0  0
M  END
$$$$
