2T9
 OpenBabel04111920543D

 54 57  0  0  1  0  0  0  0  0999 V2000
  -21.0958  -29.3468   27.7077 O   0  0  0  0  0  0  0  0  0  0  0  0
  -19.9787  -29.6358   27.2430 N   0  0  0  0  0  0  0  0  0  0  0  0
  -19.4841  -29.1066   26.2362 O   0  0  0  0  0  0  0  0  0  0  0  0
  -19.2025  -30.6881   27.9166 C   0  0  0  0  0  0  0  0  0  0  0  0
  -17.9396  -31.0208   27.4317 C   0  0  0  0  0  0  0  0  0  0  0  0
  -17.2116  -32.0337   28.0586 C   0  0  0  0  0  0  0  0  0  0  0  0
  -19.7532  -31.3486   29.0158 C   0  0  0  0  0  0  0  0  0  0  0  0
  -19.0099  -32.3762   29.6473 C   0  0  0  0  0  0  0  0  0  0  0  0
  -17.7363  -32.7163   29.1488 C   0  0  0  0  0  0  0  0  0  0  0  0
  -17.0871  -33.7328   29.8114 O   0  0  0  0  0  0  0  0  0  0  0  0
  -15.8550  -34.1698   29.2471 C   0  0  0  0  0  0  0  0  0  0  0  0
  -19.6189  -33.0841   30.8266 C   0  0  0  0  0  0  0  0  0  0  0  0
  -19.2818  -32.5378   32.1418 N   0  3  2  0  0  0  0  0  0  0  0  0
  -19.7463  -33.1165   33.3084 C   0  0  2  0  0  0  0  0  0  0  0  0
  -19.2380  -32.3813   34.3716 C   0  0  2  0  0  0  0  0  0  0  0  0
  -18.4317  -31.3389   33.8227 C   0  0  1  0  0  0  0  0  0  0  0  0
  -17.6370  -30.3387   34.6012 C   0  0  0  0  0  0  0  0  0  0  0  0
  -16.7447  -31.0040   35.6603 C   0  0  0  0  0  0  0  0  0  0  0  0
  -15.8647  -31.8075   35.2350 O   0  0  0  0  0  0  0  0  0  0  0  0
  -16.9682  -30.6350   36.8535 O   0  0  0  0  0  0  0  0  0  0  0  0
  -18.5144  -31.4458   32.4444 C   0  0  0  0  0  0  0  0  0  0  0  0
  -20.5527  -34.2475   33.5052 C   0  0  0  0  0  0  0  0  0  0  0  0
  -20.8814  -34.6534   34.8112 C   0  0  2  0  0  0  0  0  0  0  0  0
  -20.3701  -33.9072   35.8830 C   0  0  0  0  0  0  0  0  0  0  0  0
  -19.5532  -32.7873   35.6809 C   0  0  0  0  0  0  0  0  0  0  0  0
  -21.7408  -35.8395   35.0257 C   0  0  2  0  0  0  0  0  0  0  0  0
  -21.5796  -36.6765   36.1429 C   0  0  0  0  0  0  0  0  0  0  0  0
  -22.3842  -37.7997   36.3386 C   0  0  1  0  0  0  0  0  0  0  0  0
  -22.2393  -38.5765   37.4766 N   0  0  0  0  0  0  0  0  0  0  0  0
  -23.3752  -38.0970   35.3942 C   0  0  0  0  0  0  0  0  0  0  0  0
  -23.5726  -37.2883   34.2753 C   0  0  2  0  0  0  0  0  0  0  0  0
  -24.4412  -37.6774   33.2592 N   0  0  0  0  0  0  0  0  0  0  0  0
  -22.7471  -36.1783   34.1014 C   0  0  0  0  0  0  0  0  0  0  0  0
  -17.5009  -30.5143   26.5774 H   0  0  0  0  0  0  0  0  0  0  0  0
  -16.2254  -32.2591   27.6630 H   0  0  0  0  0  0  0  0  0  0  0  0
  -20.7313  -31.0926   29.3967 H   0  0  0  0  0  0  0  0  0  0  0  0
  -15.4471  -34.9659   29.8761 H   0  0  0  0  0  0  0  0  0  0  0  0
  -15.1177  -33.3608   29.2194 H   0  0  0  0  0  0  0  0  0  0  0  0
  -16.0238  -34.5841   28.2475 H   0  0  0  0  0  0  0  0  0  0  0  0
  -19.3429  -34.1446   30.8297 H   0  0  0  0  0  0  0  0  0  0  0  0
  -20.7148  -33.0413   30.7568 H   0  0  0  0  0  0  0  0  0  0  0  0
  -18.3288  -29.6348   35.0815 H   0  0  0  0  0  0  0  0  0  0  0  0
  -16.9950  -29.7512   33.9348 H   0  0  0  0  0  0  0  0  0  0  0  0
  -18.0357  -30.8487   31.6813 H   0  0  0  0  0  0  0  0  0  0  0  0
  -20.8936  -34.8138   32.6462 H   0  0  0  0  0  0  0  0  0  0  0  0
  -20.5895  -34.1806   36.9113 H   0  0  0  0  0  0  0  0  0  0  0  0
  -19.1456  -32.2491   36.5340 H   0  0  0  0  0  0  0  0  0  0  0  0
  -20.7954  -36.4614   36.8667 H   0  0  0  0  0  0  0  0  0  0  0  0
  -22.7872  -39.4146   37.5990 H   0  0  0  0  0  0  0  0  0  0  0  0
  -21.4900  -38.3808   38.1275 H   0  0  0  0  0  0  0  0  0  0  0  0
  -23.9895  -38.9767   35.5316 H   0  0  0  0  0  0  0  0  0  0  0  0
  -24.6735  -36.9940   32.5471 H   0  0  0  0  0  0  0  0  0  0  0  0
  -25.1490  -38.3678   33.4743 H   0  0  0  0  0  0  0  0  0  0  0  0
  -22.9020  -35.5533   33.2262 H   0  0  0  0  0  0  0  0  0  0  0  0
  1  2  2  0  0  0  0
  2  3  2  0  0  0  0
  2  4  1  0  0  0  0
  4  5  2  0  0  0  0
  4  7  1  0  0  0  0
  5  6  1  0  0  0  0
  5 34  1  0  0  0  0
  6  9  2  0  0  0  0
  6 35  1  0  0  0  0
  7  8  2  0  0  0  0
  7 36  1  0  0  0  0
  8  9  1  0  0  0  0
  8 12  1  0  0  0  0
  9 10  1  0  0  0  0
 10 11  1  0  0  0  0
 11 37  1  0  0  0  0
 11 38  1  0  0  0  0
 11 39  1  0  0  0  0
 12 40  1  0  0  0  0
 12 41  1  0  0  0  0
 13 12  1  6  0  0  0
 13 14  1  0  0  0  0
 13 21  1  0  0  0  0
 14 15  1  0  0  0  0
 14 22  1  1  0  0  0
 15 16  1  0  0  0  0
 15 25  1  1  0  0  0
 16 17  1  6  0  0  0
 16 21  1  0  0  0  0
 17 18  1  0  0  0  0
 17 42  1  0  0  0  0
 17 43  1  0  0  0  0
 18 19  2  0  0  0  0
 18 20  1  0  0  0  0
 21 44  1  0  0  0  0
 22 45  1  0  0  0  0
 23 22  1  1  0  0  0
 23 24  1  0  0  0  0
 23 26  1  0  0  0  0
 24 25  1  0  0  0  0
 24 46  1  0  0  0  0
 25 47  1  0  0  0  0
 26 27  1  6  0  0  0
 26 33  1  0  0  0  0
 27 28  1  0  0  0  0
 27 48  1  0  0  0  0
 28 29  1  1  0  0  0
 28 30  1  0  0  0  0
 29 49  1  0  0  0  0
 29 50  1  0  0  0  0
 30 31  1  0  0  0  0
 30 51  1  0  0  0  0
 31 32  1  6  0  0  0
 31 33  1  0  0  0  0
 32 52  1  0  0  0  0
 32 53  1  0  0  0  0
 33 54  1  0  0  0  0
M  CHG  1  13   1
M  END
$$$$
