2TX
 OpenBabel04111920553D

 91 91  0  0  1  0  0  0  0  0999 V2000
   84.6291    1.6036    7.0700 C   0  0  0  0  0  0  0  0  0  0  0  0
   86.0233    1.1081    7.3275 C   0  0  0  0  0  0  0  0  0  0  0  0
   86.8351    0.8225    6.1036 C   0  0  0  0  0  0  0  0  0  0  0  0
   86.1652    0.2901    8.4913 O   0  0  0  0  0  0  0  0  0  0  0  0
   86.8370    1.5509    8.4988 C   0  0  1  0  0  0  0  0  0  0  0  0
   88.3354    1.5022    8.2810 C   0  0  0  0  0  0  0  0  0  0  0  0
   89.0396    2.3755    9.2898 C   0  0  0  0  0  0  0  0  0  0  0  0
   90.5404    2.1501    9.3419 C   0  0  2  0  0  0  0  0  0  0  0  0
   91.1303    0.7933    9.6617 C   0  0  0  0  0  0  0  0  0  0  0  0
   91.3991    3.3736    9.5228 C   0  0  0  0  0  0  0  0  0  0  0  0
   92.8823    3.0990    9.7968 C   0  0  0  0  0  0  0  0  0  0  0  0
   93.4990    4.3651   10.3755 C   0  0  0  0  0  0  0  0  0  0  0  0
   93.6290    5.3536    9.2339 C   0  0  2  0  0  0  0  0  0  0  0  0
   94.5970    5.0619    8.1165 C   0  0  0  0  0  0  0  0  0  0  0  0
   92.9368    6.6768    9.3398 C   0  0  0  0  0  0  0  0  0  0  0  0
   93.1213    7.6159    8.1540 C   0  0  0  0  0  0  0  0  0  0  0  0
   91.7482    8.1786    7.8930 C   0  0  0  0  0  0  0  0  0  0  0  0
   91.6602    9.0877    6.6873 C   0  0  0  0  0  0  0  0  0  0  0  0
   91.3548   10.5275    7.0678 C   0  0  2  0  0  0  0  0  0  0  0  0
   91.0101   10.9094    8.5007 C   0  0  0  0  0  0  0  0  0  0  0  0
   90.9969   11.5039    5.9698 C   0  0  0  0  0  0  0  0  0  0  0  0
   89.4950   11.7497    5.9825 C   0  0  0  0  0  0  0  0  0  0  0  0
   88.9945   12.1117    4.6022 C   0  0  0  0  0  0  0  0  0  0  0  0
   87.9721   13.2348    4.5223 C   0  0  2  0  0  0  0  0  0  0  0  0
   87.3368   13.8266    5.7675 C   0  0  0  0  0  0  0  0  0  0  0  0
   87.3140   13.5076    3.1684 C   0  0  0  0  0  0  0  0  0  0  0  0
   86.1997   12.5010    2.9194 C   0  0  0  0  0  0  0  0  0  0  0  0
   84.9942   12.8464    3.7828 C   0  0  0  0  0  0  0  0  0  0  0  0
   84.2870   11.6878    4.4719 C   0  0  0  0  0  0  0  0  0  0  0  0
   84.8689   10.2847    4.4513 C   0  0  0  0  0  0  0  0  0  0  0  0
   83.1246   11.9897    5.4085 C   0  0  0  0  0  0  0  0  0  0  0  0
   84.6269    2.2304    6.1711 H   0  0  0  0  0  0  0  0  0  0  0  0
   84.2617    2.1974    7.9109 H   0  0  0  0  0  0  0  0  0  0  0  0
   83.9525    0.7599    6.9030 H   0  0  0  0  0  0  0  0  0  0  0  0
   87.8377    0.4392    6.3506 H   0  0  0  0  0  0  0  0  0  0  0  0
   86.9665    1.7502    5.5330 H   0  0  0  0  0  0  0  0  0  0  0  0
   86.3635    0.0696    5.4772 H   0  0  0  0  0  0  0  0  0  0  0  0
   86.5167    2.3740    9.1297 H   0  0  0  0  0  0  0  0  0  0  0  0
   88.5804    1.8796    7.2665 H   0  0  0  0  0  0  0  0  0  0  0  0
   88.6864    0.4600    8.3436 H   0  0  0  0  0  0  0  0  0  0  0  0
   88.5647    2.1825   10.2568 H   0  0  0  0  0  0  0  0  0  0  0  0
   88.8427    3.4135    8.9874 H   0  0  0  0  0  0  0  0  0  0  0  0
   90.6921    2.0758    8.2571 H   0  0  0  0  0  0  0  0  0  0  0  0
   92.2195    0.8395    9.7189 H   0  0  0  0  0  0  0  0  0  0  0  0
   90.9061    0.1150    8.8369 H   0  0  0  0  0  0  0  0  0  0  0  0
   90.7512    0.3702   10.5989 H   0  0  0  0  0  0  0  0  0  0  0  0
   91.0153    4.0253   10.3252 H   0  0  0  0  0  0  0  0  0  0  0  0
   91.3234    3.9360    8.5735 H   0  0  0  0  0  0  0  0  0  0  0  0
   93.3861    2.8162    8.8564 H   0  0  0  0  0  0  0  0  0  0  0  0
   92.9949    2.2828   10.5108 H   0  0  0  0  0  0  0  0  0  0  0  0
   94.4761    4.1293   10.8268 H   0  0  0  0  0  0  0  0  0  0  0  0
   92.8327    4.7595   11.1557 H   0  0  0  0  0  0  0  0  0  0  0  0
   92.7889    4.9392    8.6607 H   0  0  0  0  0  0  0  0  0  0  0  0
   94.6230    5.8697    7.3927 H   0  0  0  0  0  0  0  0  0  0  0  0
   94.2633    4.1778    7.5715 H   0  0  0  0  0  0  0  0  0  0  0  0
   95.6118    4.9154    8.4784 H   0  0  0  0  0  0  0  0  0  0  0  0
   93.2422    7.2044   10.2569 H   0  0  0  0  0  0  0  0  0  0  0  0
   91.8579    6.4556    9.4254 H   0  0  0  0  0  0  0  0  0  0  0  0
   93.4482    7.0968    7.2463 H   0  0  0  0  0  0  0  0  0  0  0  0
   93.8539    8.3922    8.3820 H   0  0  0  0  0  0  0  0  0  0  0  0
   91.4637    8.7104    8.8009 H   0  0  0  0  0  0  0  0  0  0  0  0
   91.0521    7.3487    7.7604 H   0  0  0  0  0  0  0  0  0  0  0  0
   90.9026    8.6858    5.9958 H   0  0  0  0  0  0  0  0  0  0  0  0
   92.6282    9.0907    6.1709 H   0  0  0  0  0  0  0  0  0  0  0  0
   92.4107   10.8298    7.1330 H   0  0  0  0  0  0  0  0  0  0  0  0
   90.7610   11.9733    8.5662 H   0  0  0  0  0  0  0  0  0  0  0  0
   91.9038   10.7358    9.1151 H   0  0  0  0  0  0  0  0  0  0  0  0
   90.1792   10.3179    8.9078 H   0  0  0  0  0  0  0  0  0  0  0  0
   91.3396   11.1183    4.9953 H   0  0  0  0  0  0  0  0  0  0  0  0
   91.5470   12.4446    6.1553 H   0  0  0  0  0  0  0  0  0  0  0  0
   89.2904   12.5571    6.6948 H   0  0  0  0  0  0  0  0  0  0  0  0
   88.9997   10.8436    6.3242 H   0  0  0  0  0  0  0  0  0  0  0  0
   88.5994   11.1913    4.1393 H   0  0  0  0  0  0  0  0  0  0  0  0
   89.8527   12.4510    4.0093 H   0  0  0  0  0  0  0  0  0  0  0  0
   88.7200   14.0357    4.4235 H   0  0  0  0  0  0  0  0  0  0  0  0
   86.5916   14.5830    5.4958 H   0  0  0  0  0  0  0  0  0  0  0  0
   88.1180   14.3421    6.3344 H   0  0  0  0  0  0  0  0  0  0  0  0
   86.8702   13.0656    6.4070 H   0  0  0  0  0  0  0  0  0  0  0  0
   88.0831   13.4531    2.3827 H   0  0  0  0  0  0  0  0  0  0  0  0
   86.9205   14.5388    3.1612 H   0  0  0  0  0  0  0  0  0  0  0  0
   86.5726   11.5065    3.1530 H   0  0  0  0  0  0  0  0  0  0  0  0
   85.9201   12.5245    1.8564 H   0  0  0  0  0  0  0  0  0  0  0  0
   84.2511   13.3261    3.1341 H   0  0  0  0  0  0  0  0  0  0  0  0
   85.2847   13.5959    4.5304 H   0  0  0  0  0  0  0  0  0  0  0  0
   83.6316   11.5019    3.6166 H   0  0  0  0  0  0  0  0  0  0  0  0
   84.2520    9.6004    5.0440 H   0  0  0  0  0  0  0  0  0  0  0  0
   85.9036   10.2474    4.8146 H   0  0  0  0  0  0  0  0  0  0  0  0
   84.8545    9.9317    3.4083 H   0  0  0  0  0  0  0  0  0  0  0  0
   82.8539   13.0530    5.3597 H   0  0  0  0  0  0  0  0  0  0  0  0
   83.3302   11.7170    6.4537 H   0  0  0  0  0  0  0  0  0  0  0  0
   82.2517   11.4089    5.0688 H   0  0  0  0  0  0  0  0  0  0  0  0
  1  2  1  0  0  0  0
  1 32  1  0  0  0  0
  1 33  1  0  0  0  0
  1 34  1  0  0  0  0
  2  3  1  0  0  0  0
  2  4  1  0  0  0  0
  2  5  1  0  0  0  0
  3 35  1  0  0  0  0
  3 36  1  0  0  0  0
  3 37  1  0  0  0  0
  4  5  1  0  0  0  0
  5  6  1  0  0  0  0
  5 38  1  1  0  0  0
  6  7  1  0  0  0  0
  6 39  1  0  0  0  0
  6 40  1  0  0  0  0
  7  8  1  0  0  0  0
  7 41  1  0  0  0  0
  7 42  1  0  0  0  0
  8  9  1  0  0  0  0
  8 10  1  0  0  0  0
  8 43  1  6  0  0  0
  9 44  1  0  0  0  0
  9 45  1  0  0  0  0
  9 46  1  0  0  0  0
 10 11  1  0  0  0  0
 10 47  1  0  0  0  0
 10 48  1  0  0  0  0
 11 12  1  0  0  0  0
 11 49  1  0  0  0  0
 11 50  1  0  0  0  0
 12 13  1  0  0  0  0
 12 51  1  0  0  0  0
 12 52  1  0  0  0  0
 13 14  1  0  0  0  0
 13 15  1  0  0  0  0
 13 53  1  6  0  0  0
 14 54  1  0  0  0  0
 14 55  1  0  0  0  0
 14 56  1  0  0  0  0
 15 16  1  0  0  0  0
 15 57  1  0  0  0  0
 15 58  1  0  0  0  0
 16 17  1  0  0  0  0
 16 59  1  0  0  0  0
 16 60  1  0  0  0  0
 17 18  1  0  0  0  0
 17 61  1  0  0  0  0
 17 62  1  0  0  0  0
 18 19  1  0  0  0  0
 18 63  1  0  0  0  0
 18 64  1  0  0  0  0
 19 20  1  0  0  0  0
 19 21  1  0  0  0  0
 19 65  1  1  0  0  0
 20 66  1  0  0  0  0
 20 67  1  0  0  0  0
 20 68  1  0  0  0  0
 21 22  1  0  0  0  0
 21 69  1  0  0  0  0
 21 70  1  0  0  0  0
 22 23  1  0  0  0  0
 22 71  1  0  0  0  0
 22 72  1  0  0  0  0
 23 24  1  0  0  0  0
 23 73  1  0  0  0  0
 23 74  1  0  0  0  0
 24 25  1  0  0  0  0
 24 26  1  0  0  0  0
 24 75  1  6  0  0  0
 25 76  1  0  0  0  0
 25 77  1  0  0  0  0
 25 78  1  0  0  0  0
 26 27  1  0  0  0  0
 26 79  1  0  0  0  0
 26 80  1  0  0  0  0
 27 28  1  0  0  0  0
 27 81  1  0  0  0  0
 27 82  1  0  0  0  0
 28 29  1  0  0  0  0
 28 83  1  0  0  0  0
 28 84  1  0  0  0  0
 29 30  1  0  0  0  0
 29 31  1  0  0  0  0
 29 85  1  0  0  0  0
 30 86  1  0  0  0  0
 30 87  1  0  0  0  0
 30 88  1  0  0  0  0
 31 89  1  0  0  0  0
 31 90  1  0  0  0  0
 31 91  1  0  0  0  0
M  END
$$$$
