2VF
 OpenBabel04111920563D

 35 37  0  0  1  0  0  0  0  0999 V2000
    6.6100   -8.7900  -13.3186 O   0  0  0  0  0  0  0  0  0  0  0  0
    7.1390   -8.0312  -12.4996 C   0  0  0  0  0  0  0  0  0  0  0  0
    6.6662   -7.9966  -11.2214 N   0  0  0  0  0  0  0  0  0  0  0  0
    8.2761   -7.1072  -12.8926 C   0  0  0  0  0  0  0  0  0  0  0  0
    8.7623   -6.2335  -11.8331 N   0  3  1  0  0  0  0  0  0  0  0  0
    8.1915   -5.0197  -11.4851 C   0  0  1  0  0  0  0  0  0  0  0  0
    7.0703   -4.3531  -12.0066 C   0  0  0  0  0  0  0  0  0  0  0  0
    6.7196   -3.1207  -11.4516 C   0  0  0  0  0  0  0  0  0  0  0  0
    9.8371   -6.4824  -11.0243 C   0  0  2  0  0  0  0  0  0  0  0  0
   10.6876   -7.7246  -11.0419 C   0  0  0  0  0  0  0  0  0  0  0  0
   11.9180   -7.5478  -10.1361 C   0  0  2  0  0  0  0  0  0  0  0  0
   12.6003   -8.8656   -9.7523 C   0  0  0  0  0  0  0  0  0  0  0  0
   11.9280   -9.9190   -9.9286 O   0  0  0  0  0  0  0  0  0  0  0  0
   13.7762   -8.7371   -9.3047 O   0  0  0  0  0  0  0  0  0  0  0  0
   11.5647   -6.8214   -8.8211 C   0  0  0  0  0  0  0  0  0  0  0  0
   11.0430   -5.4015   -9.0980 C   0  0  0  0  0  0  0  0  0  0  0  0
    9.9693   -5.4311  -10.1367 C   0  0  2  0  0  0  0  0  0  0  0  0
    8.9410   -4.4918  -10.4248 C   0  0  2  0  0  0  0  0  0  0  0  0
    8.5672   -3.2460   -9.8783 C   0  0  0  0  0  0  0  0  0  0  0  0
    7.4603   -2.5770  -10.4068 C   0  0  2  0  0  0  0  0  0  0  0  0
    6.9955   -1.0507   -9.7520 Cl  0  0  0  0  0  0  0  0  0  0  0  0
    7.1483   -7.5021  -10.4803 H   0  0  0  0  0  0  0  0  0  0  0  0
    5.9830   -8.6938  -10.9570 H   0  0  0  0  0  0  0  0  0  0  0  0
    7.9405   -6.4687  -13.7174 H   0  0  0  0  0  0  0  0  0  0  0  0
    9.1123   -7.7105  -13.2571 H   0  0  0  0  0  0  0  0  0  0  0  0
    6.4847   -4.7761  -12.8165 H   0  0  0  0  0  0  0  0  0  0  0  0
    5.8584   -2.5899  -11.8463 H   0  0  0  0  0  0  0  0  0  0  0  0
   11.0275   -7.9341  -12.0618 H   0  0  0  0  0  0  0  0  0  0  0  0
   10.0636   -8.5686  -10.7248 H   0  0  0  0  0  0  0  0  0  0  0  0
   12.6583   -6.9431  -10.6804 H   0  0  0  0  0  0  0  0  0  0  0  0
   12.4315   -6.7630   -8.1527 H   0  0  0  0  0  0  0  0  0  0  0  0
   10.7949   -7.3950   -8.2862 H   0  0  0  0  0  0  0  0  0  0  0  0
   11.8683   -4.7729   -9.4559 H   0  0  0  0  0  0  0  0  0  0  0  0
   10.6715   -4.9597   -8.1668 H   0  0  0  0  0  0  0  0  0  0  0  0
    9.1352   -2.8199   -9.0579 H   0  0  0  0  0  0  0  0  0  0  0  0
  1  2  2  0  0  0  0
  2  3  1  0  0  0  0
  2  4  1  0  0  0  0
  3 22  1  0  0  0  0
  3 23  1  0  0  0  0
  4 24  1  0  0  0  0
  4 25  1  0  0  0  0
  5  4  1  1  0  0  0
  5  6  1  0  0  0  0
  5  9  1  0  0  0  0
  6  7  1  1  0  0  0
  6 18  1  0  0  0  0
  7  8  1  0  0  0  0
  7 26  1  0  0  0  0
  8 20  1  0  0  0  0
  8 27  1  0  0  0  0
  9 10  1  1  0  0  0
  9 17  1  0  0  0  0
 10 11  1  0  0  0  0
 10 28  1  0  0  0  0
 10 29  1  0  0  0  0
 11 12  1  0  0  0  0
 11 15  1  0  0  0  0
 11 30  1  6  0  0  0
 12 13  2  0  0  0  0
 12 14  1  0  0  0  0
 15 16  1  0  0  0  0
 15 31  1  0  0  0  0
 15 32  1  0  0  0  0
 16 33  1  0  0  0  0
 16 34  1  0  0  0  0
 17 16  1  1  0  0  0
 17 18  1  0  0  0  0
 18 19  1  1  0  0  0
 19 20  1  0  0  0  0
 19 35  1  0  0  0  0
 20 21  1  1  0  0  0
M  CHG  1   5   1
M  END
$$$$
