2VP
 OpenBabel04111921053D

 44 45  0  0  0  0  0  0  0  0999 V2000
   65.9531   46.2918   29.8957 C   0  0  0  0  0  0  0  0  0  0  0  0
   66.8124   45.4022   30.5220 C   0  0  0  0  0  0  0  0  0  0  0  0
   67.3197   45.7966   31.7561 C   0  0  0  0  0  0  0  0  0  0  0  0
   66.5208   46.5789   32.6164 C   0  0  0  0  0  0  0  0  0  0  0  0
   66.7491   46.6840   34.0023 C   0  0  0  0  0  0  0  0  0  0  0  0
   65.9064   47.3990   34.8731 C   0  0  0  0  0  0  0  0  0  0  0  0
   64.7629   48.0771   34.3707 C   0  0  0  0  0  0  0  0  0  0  0  0
   63.8846   48.8441   35.2847 C   0  0  0  0  0  0  0  0  0  0  0  0
   64.5382   47.9542   32.9768 C   0  0  0  0  0  0  0  0  0  0  0  0
   65.3590   47.2287   32.0822 C   0  0  0  0  0  0  0  0  0  0  0  0
   65.1640   47.1376   30.6901 C   0  0  0  0  0  0  0  0  0  0  0  0
   64.0023   47.9397   30.1650 C   0  0  0  0  0  0  0  0  0  0  0  0
   63.6589   47.9121   28.6977 C   0  0  0  0  0  0  0  0  0  0  0  0
   64.7061   48.3502   27.7364 C   0  0  0  0  0  0  0  0  0  0  0  0
   62.4372   47.5546   28.3008 C   0  0  0  0  0  0  0  0  0  0  0  0
   61.3078   47.1587   29.1503 C   0  0  0  0  0  0  0  0  0  0  0  0
   60.1591   46.6916   28.6776 C   0  0  0  0  0  0  0  0  0  0  0  0
   58.9855   46.3242   29.4979 C   0  0  0  0  0  0  0  0  0  0  0  0
   59.2676   45.5313   30.7681 C   0  0  0  0  0  0  0  0  0  0  0  0
   57.7690   46.6800   29.1151 C   0  0  0  0  0  0  0  0  0  0  0  0
   56.4681   46.4216   29.8882 C   0  0  0  0  0  0  0  0  0  0  0  0
   55.5429   47.2461   29.6882 O   0  0  0  0  0  0  0  0  0  0  0  0
   56.4368   45.3719   30.5965 O   0  0  0  0  0  0  0  0  0  0  0  0
   65.9561   46.3555   28.8109 H   0  0  0  0  0  0  0  0  0  0  0  0
   66.9287   44.3739   30.1501 H   0  0  0  0  0  0  0  0  0  0  0  0
   68.3755   45.6039   32.0295 H   0  0  0  0  0  0  0  0  0  0  0  0
   67.5945   46.1407   34.4433 H   0  0  0  0  0  0  0  0  0  0  0  0
   66.1303   47.4460   35.9366 H   0  0  0  0  0  0  0  0  0  0  0  0
   63.0619   49.2962   34.7192 H   0  0  0  0  0  0  0  0  0  0  0  0
   64.4451   49.6483   35.7744 H   0  0  0  0  0  0  0  0  0  0  0  0
   63.4552   48.1908   36.0518 H   0  0  0  0  0  0  0  0  0  0  0  0
   63.6328   48.4856   32.6221 H   0  0  0  0  0  0  0  0  0  0  0  0
   64.1798   48.9798   30.4517 H   0  0  0  0  0  0  0  0  0  0  0  0
   63.1425   47.5640   30.7386 H   0  0  0  0  0  0  0  0  0  0  0  0
   64.3359   48.2879   26.7160 H   0  0  0  0  0  0  0  0  0  0  0  0
   65.5956   47.7314   27.7516 H   0  0  0  0  0  0  0  0  0  0  0  0
   65.0394   49.3651   27.9427 H   0  0  0  0  0  0  0  0  0  0  0  0
   62.2242   47.5677   27.2299 H   0  0  0  0  0  0  0  0  0  0  0  0
   61.4013   47.2692   30.2371 H   0  0  0  0  0  0  0  0  0  0  0  0
   60.0164   46.5875   27.5928 H   0  0  0  0  0  0  0  0  0  0  0  0
   58.3620   45.3245   31.3340 H   0  0  0  0  0  0  0  0  0  0  0  0
   59.9170   46.0693   31.4594 H   0  0  0  0  0  0  0  0  0  0  0  0
   59.7167   44.5597   30.5413 H   0  0  0  0  0  0  0  0  0  0  0  0
   57.6204   47.2709   28.2001 H   0  0  0  0  0  0  0  0  0  0  0  0
  1  2  2  0  0  0  0
  1 11  1  0  0  0  0
  1 24  1  0  0  0  0
  2  3  1  0  0  0  0
  2 25  1  0  0  0  0
  3  4  2  0  0  0  0
  3 26  1  0  0  0  0
  4  5  1  0  0  0  0
  4 10  1  0  0  0  0
  5  6  2  0  0  0  0
  5 27  1  0  0  0  0
  6  7  1  0  0  0  0
  6 28  1  0  0  0  0
  7  8  1  0  0  0  0
  7  9  2  0  0  0  0
  8 29  1  0  0  0  0
  8 30  1  0  0  0  0
  8 31  1  0  0  0  0
  9 10  1  0  0  0  0
  9 32  1  0  0  0  0
 10 11  2  0  0  0  0
 11 12  1  0  0  0  0
 12 13  1  0  0  0  0
 12 33  1  0  0  0  0
 12 34  1  0  0  0  0
 13 14  1  0  0  0  0
 13 15  2  0  0  0  0
 14 35  1  0  0  0  0
 14 36  1  0  0  0  0
 14 37  1  0  0  0  0
 15 16  1  0  0  0  0
 15 38  1  0  0  0  0
 16 17  2  0  0  0  0
 16 39  1  0  0  0  0
 17 18  1  0  0  0  0
 17 40  1  0  0  0  0
 18 19  1  0  0  0  0
 18 20  2  0  0  0  0
 19 41  1  0  0  0  0
 19 42  1  0  0  0  0
 19 43  1  0  0  0  0
 20 21  1  0  0  0  0
 20 44  1  0  0  0  0
 21 22  2  0  0  0  0
 21 23  1  0  0  0  0
M  END
$$$$
