2VQ
 OpenBabel04111920263D

 28 28  0  0  1  0  0  0  0  0999 V2000
   -5.2998    1.0398   16.4274 S   0  0  0  0  0  0  0  0  0  0  0  0
   -4.7008    1.3155   17.7129 O   0  0  0  0  0  0  0  0  0  0  0  0
   -6.6405    1.4586   16.0575 O   0  0  0  0  0  0  0  0  0  0  0  0
   -4.2553    1.6961   15.3449 N   0  0  0  0  0  0  0  0  0  0  0  0
   -4.3822    1.4053   13.9267 C   0  0  0  0  0  0  0  0  0  0  0  0
   -4.7656    2.6559   13.1408 C   0  0  0  0  0  0  0  0  0  0  0  0
   -3.0292    5.6044   14.2402 N   0  3  0  0  0  0  0  0  0  0  0  0
   -1.8325    3.0391   12.0659 N   0  0  0  0  0  0  0  0  0  0  0  0
   -2.4956    3.8989   12.9470 C   0  0  1  0  0  0  0  0  0  0  0  0
   -1.9992    5.0281   13.5302 C   0  0  0  0  0  0  0  0  0  0  0  0
   -4.1315    4.8473   14.1711 C   0  0  2  0  0  0  0  0  0  0  0  0
   -5.4207    5.1050   14.8540 C   0  0  0  0  0  0  0  0  0  0  0  0
   -3.8298    3.7769   13.3944 N   0  3  2  0  0  0  0  0  0  0  0  0
   -0.6222    3.2667   11.9168 O   0  0  0  0  0  0  0  0  0  0  0  0
   -2.5008    2.1533   11.5122 O   0  0  0  0  0  0  0  0  0  0  0  0
   -5.1279   -0.5408   16.0418 N   0  0  0  0  0  0  0  0  0  0  0  0
   -3.5986    2.3868   15.7068 H   0  0  0  0  0  0  0  0  0  0  0  0
   -5.1317    0.6330   13.7551 H   0  0  0  0  0  0  0  0  0  0  0  0
   -3.4166    1.0279   13.5792 H   0  0  0  0  0  0  0  0  0  0  0  0
   -5.7738    2.9559   13.4411 H   0  0  0  0  0  0  0  0  0  0  0  0
   -4.7946    2.4280   12.0744 H   0  0  0  0  0  0  0  0  0  0  0  0
   -1.0270    5.4880   13.4787 H   0  0  0  0  0  0  0  0  0  0  0  0
   -5.3333    6.0543   15.3810 H   0  0  0  0  0  0  0  0  0  0  0  0
   -5.5719    4.2746   15.5470 H   0  0  0  0  0  0  0  0  0  0  0  0
   -6.1916    5.1371   14.0824 H   0  0  0  0  0  0  0  0  0  0  0  0
   -4.2839   -1.0349   16.3242 H   0  0  0  0  0  0  0  0  0  0  0  0
   -5.9800   -1.0722   15.8671 H   0  0  0  0  0  0  0  0  0  0  0  0
   -2.9811    6.4848   14.7593 H   0  0  0  0  0  0  0  0  0  0  0  0
  1  2  2  0  0  0  0
  1  3  2  0  0  0  0
  1  4  1  0  0  0  0
  1 16  1  0  0  0  0
  4  5  1  0  0  0  0
  4 17  1  0  0  0  0
  5  6  1  0  0  0  0
  5 18  1  0  0  0  0
  5 19  1  0  0  0  0
  6 20  1  0  0  0  0
  6 21  1  0  0  0  0
  7 10  1  0  0  0  0
  7 11  1  0  0  0  0
  7 28  1  0  0  0  0
  8 14  2  0  0  0  0
  8 15  2  0  0  0  0
  9  8  1  6  0  0  0
  9 10  1  0  0  0  0
  9 13  1  0  0  0  0
 10 22  1  0  0  0  0
 11 12  1  1  0  0  0
 11 13  1  0  0  0  0
 12 23  1  0  0  0  0
 12 24  1  0  0  0  0
 12 25  1  0  0  0  0
 13  6  1  1  0  0  0
 16 26  1  0  0  0  0
 16 27  1  0  0  0  0
M  CHG  2   7   1  13   1
M  END
$$$$
