2W0
 OpenBabel04111921063D

 46 47  0  0  0  0  0  0  0  0999 V2000
   68.1410   46.6215   34.4188 C   0  0  0  0  0  0  0  0  0  0  0  0
   66.9702   47.3130   33.7760 C   0  0  0  0  0  0  0  0  0  0  0  0
   66.1011   48.0553   34.5886 C   0  0  0  0  0  0  0  0  0  0  0  0
   64.9993   48.6889   34.0464 C   0  0  0  0  0  0  0  0  0  0  0  0
   64.7508   48.5940   32.6796 C   0  0  0  0  0  0  0  0  0  0  0  0
   65.6082   47.8808   31.8241 C   0  0  0  0  0  0  0  0  0  0  0  0
   66.7230   47.2186   32.3856 C   0  0  0  0  0  0  0  0  0  0  0  0
   67.6744   46.4523   31.4907 C   0  0  0  0  0  0  0  0  0  0  0  0
   66.9399   45.7796   30.3433 C   0  0  0  0  0  0  0  0  0  0  0  0
   66.1549   46.8001   29.5422 C   0  0  0  0  0  0  0  0  0  0  0  0
   65.3314   47.7825   30.3501 C   0  0  0  0  0  0  0  0  0  0  0  0
   64.3846   48.5443   29.7607 C   0  0  0  0  0  0  0  0  0  0  0  0
   63.9640   48.4835   28.3704 C   0  0  0  0  0  0  0  0  0  0  0  0
   64.9714   48.8942   27.3354 C   0  0  0  0  0  0  0  0  0  0  0  0
   62.7185   48.1061   28.0253 C   0  0  0  0  0  0  0  0  0  0  0  0
   61.6615   47.7408   28.9447 C   0  0  0  0  0  0  0  0  0  0  0  0
   60.4905   47.2320   28.5411 C   0  0  0  0  0  0  0  0  0  0  0  0
   59.3874   46.8940   29.4337 C   0  0  0  0  0  0  0  0  0  0  0  0
   59.7360   46.2122   30.7316 C   0  0  0  0  0  0  0  0  0  0  0  0
   58.1413   47.2042   29.0337 C   0  0  0  0  0  0  0  0  0  0  0  0
   56.8183   46.9839   29.7677 C   0  0  0  0  0  0  0  0  0  0  0  0
   55.9463   47.8635   29.5086 O   0  0  0  0  0  0  0  0  0  0  0  0
   56.7287   45.9545   30.4880 O   0  0  0  0  0  0  0  0  0  0  0  0
   68.1773   46.8110   35.4962 H   0  0  0  0  0  0  0  0  0  0  0  0
   69.0791   46.9837   33.9862 H   0  0  0  0  0  0  0  0  0  0  0  0
   68.0624   45.5378   34.2833 H   0  0  0  0  0  0  0  0  0  0  0  0
   66.2789   48.1274   35.6597 H   0  0  0  0  0  0  0  0  0  0  0  0
   64.3202   49.2541   34.6801 H   0  0  0  0  0  0  0  0  0  0  0  0
   63.8537   49.0880   32.3212 H   0  0  0  0  0  0  0  0  0  0  0  0
   68.2066   45.6719   32.0357 H   0  0  0  0  0  0  0  0  0  0  0  0
   68.4251   47.1553   31.1046 H   0  0  0  0  0  0  0  0  0  0  0  0
   66.2699   44.9979   30.7217 H   0  0  0  0  0  0  0  0  0  0  0  0
   67.6647   45.2869   29.6834 H   0  0  0  0  0  0  0  0  0  0  0  0
   65.5163   46.2519   28.8373 H   0  0  0  0  0  0  0  0  0  0  0  0
   66.8825   47.3734   28.9560 H   0  0  0  0  0  0  0  0  0  0  0  0
   63.7939   49.2598   30.3253 H   0  0  0  0  0  0  0  0  0  0  0  0
   64.5518   48.8640   26.3252 H   0  0  0  0  0  0  0  0  0  0  0  0
   65.8403   48.2340   27.3267 H   0  0  0  0  0  0  0  0  0  0  0  0
   65.3169   49.9156   27.5258 H   0  0  0  0  0  0  0  0  0  0  0  0
   62.4540   48.0689   26.9705 H   0  0  0  0  0  0  0  0  0  0  0  0
   61.8175   47.9356   30.0020 H   0  0  0  0  0  0  0  0  0  0  0  0
   60.2984   47.0767   27.4816 H   0  0  0  0  0  0  0  0  0  0  0  0
   58.8789   46.0213   31.3777 H   0  0  0  0  0  0  0  0  0  0  0  0
   60.4256   46.8180   31.3282 H   0  0  0  0  0  0  0  0  0  0  0  0
   60.2128   45.2464   30.5298 H   0  0  0  0  0  0  0  0  0  0  0  0
   57.9949   47.7323   28.0913 H   0  0  0  0  0  0  0  0  0  0  0  0
  1  2  1  0  0  0  0
  1 24  1  0  0  0  0
  1 25  1  0  0  0  0
  1 26  1  0  0  0  0
  2  3  2  0  0  0  0
  2  7  1  0  0  0  0
  3  4  1  0  0  0  0
  3 27  1  0  0  0  0
  4  5  2  0  0  0  0
  4 28  1  0  0  0  0
  5  6  1  0  0  0  0
  5 29  1  0  0  0  0
  6  7  2  0  0  0  0
  6 11  1  0  0  0  0
  7  8  1  0  0  0  0
  8  9  1  0  0  0  0
  8 30  1  0  0  0  0
  8 31  1  0  0  0  0
  9 10  1  0  0  0  0
  9 32  1  0  0  0  0
  9 33  1  0  0  0  0
 10 11  1  0  0  0  0
 10 34  1  0  0  0  0
 10 35  1  0  0  0  0
 11 12  2  0  0  0  0
 12 13  1  0  0  0  0
 12 36  1  0  0  0  0
 13 14  1  0  0  0  0
 13 15  2  0  0  0  0
 14 37  1  0  0  0  0
 14 38  1  0  0  0  0
 14 39  1  0  0  0  0
 15 16  1  0  0  0  0
 15 40  1  0  0  0  0
 16 17  2  0  0  0  0
 16 41  1  0  0  0  0
 17 18  1  0  0  0  0
 17 42  1  0  0  0  0
 18 19  1  0  0  0  0
 18 20  2  0  0  0  0
 19 43  1  0  0  0  0
 19 44  1  0  0  0  0
 19 45  1  0  0  0  0
 20 21  1  0  0  0  0
 20 46  1  0  0  0  0
 21 22  2  0  0  0  0
 21 23  1  0  0  0  0
M  END
$$$$
