2W2
 OpenBabel04111921053D

 38 37  0  0  1  0  0  0  0  0999 V2000
   16.5405   -8.0996   -1.9308 O   0  0  0  0  0  0  0  0  0  0  0  0
   18.8235   -8.2000    2.1791 C   0  0  0  0  0  0  0  0  0  0  0  0
   20.2197   -7.7102    1.7914 C   0  0  0  0  0  0  0  0  0  0  0  0
   20.7007   -7.8611    0.3440 C   0  0  0  0  0  0  0  0  0  0  0  0
   20.2160   -6.8049   -0.6642 C   0  0  2  0  0  0  0  0  0  0  0  0
   17.9715   -8.0575    1.2515 O   0  0  0  0  0  0  0  0  0  0  0  0
   18.7256   -8.6942    3.3223 O   0  0  0  0  0  0  0  0  0  0  0  0
   20.4802   -5.3481   -0.1940 C   0  0  0  0  0  0  0  0  0  0  0  0
   19.4877   -4.7267    0.2740 O   0  0  0  0  0  0  0  0  0  0  0  0
   21.6456   -4.9285   -0.4482 O   0  0  0  0  0  0  0  0  0  0  0  0
   18.8291   -7.1686   -1.0677 N   0  3  0  0  0  0  0  0  0  0  0  0
   18.0105   -6.2524   -1.9396 C   0  0  2  0  0  0  0  0  0  0  0  0
   16.6221   -6.8762   -2.2583 C   0  0  0  0  0  0  0  0  0  0  0  0
   15.8136   -6.1555   -2.9086 O   0  0  0  0  0  0  0  0  0  0  0  0
   18.7191   -5.8953   -3.2889 C   0  0  0  0  0  0  0  0  0  0  0  0
   19.4027   -6.9949   -4.1158 C   0  0  0  0  0  0  0  0  0  0  0  0
   19.4195   -7.0021   -5.4600 C   0  0  0  0  0  0  0  0  0  0  0  0
   20.1584   -8.0310   -6.0215 N   0  0  0  0  0  0  0  0  0  0  0  0
   20.8686   -7.9600   -7.1617 C   0  0  0  0  0  0  0  0  0  0  0  0
   21.5543   -9.0281   -7.6281 N   0  0  0  0  0  0  0  0  0  0  0  0
   20.9870   -6.8342   -7.9090 N   0  0  0  0  0  0  0  0  0  0  0  0
   20.9321   -8.2677    2.4121 H   0  0  0  0  0  0  0  0  0  0  0  0
   20.2882   -6.6584    2.0873 H   0  0  0  0  0  0  0  0  0  0  0  0
   20.4345   -8.8642   -0.0221 H   0  0  0  0  0  0  0  0  0  0  0  0
   21.7947   -7.8143    0.3581 H   0  0  0  0  0  0  0  0  0  0  0  0
   20.8087   -6.9555   -1.5745 H   0  0  0  0  0  0  0  0  0  0  0  0
   18.7001   -8.1240   -1.4150 H   0  0  0  0  0  0  0  0  0  0  0  0
   17.8479   -5.3251   -1.3817 H   0  0  0  0  0  0  0  0  0  0  0  0
   19.4694   -5.1264   -3.0712 H   0  0  0  0  0  0  0  0  0  0  0  0
   17.9880   -5.3967   -3.9326 H   0  0  0  0  0  0  0  0  0  0  0  0
   19.9621   -7.7221   -3.5364 H   0  0  0  0  0  0  0  0  0  0  0  0
   18.9335   -6.2551   -6.0772 H   0  0  0  0  0  0  0  0  0  0  0  0
   20.1715   -8.9259   -5.5365 H   0  0  0  0  0  0  0  0  0  0  0  0
   22.1407   -8.9823   -8.4556 H   0  0  0  0  0  0  0  0  0  0  0  0
   20.5306   -5.9833   -7.6044 H   0  0  0  0  0  0  0  0  0  0  0  0
   21.5657   -6.7817   -8.7318 H   0  0  0  0  0  0  0  0  0  0  0  0
   18.2730   -7.2510   -0.1685 H   0  0  0  0  0  0  0  0  0  0  0  0
   21.5490   -9.9058   -7.1245 H   0  0  0  0  0  0  0  0  0  0  0  0
  1 13  2  0  0  0  0
  2  3  1  0  0  0  0
  2  6  2  0  0  0  0
  2  7  1  0  0  0  0
  3  4  1  0  0  0  0
  3 22  1  0  0  0  0
  3 23  1  0  0  0  0
  4  5  1  0  0  0  0
  4 24  1  0  0  0  0
  4 25  1  0  0  0  0
  5  8  1  0  0  0  0
  5 11  1  0  0  0  0
  5 26  1  6  0  0  0
  8  9  2  0  0  0  0
  8 10  1  0  0  0  0
 11 12  1  0  0  0  0
 11 27  1  0  0  0  0
 11 37  1  0  0  0  0
 12 13  1  0  0  0  0
 12 15  1  0  0  0  0
 12 28  1  1  0  0  0
 13 14  1  0  0  0  0
 15 16  1  0  0  0  0
 15 29  1  0  0  0  0
 15 30  1  0  0  0  0
 16 17  2  0  0  0  0
 16 31  1  0  0  0  0
 17 18  1  0  0  0  0
 17 32  1  0  0  0  0
 18 19  1  0  0  0  0
 18 33  1  0  0  0  0
 19 20  2  0  0  0  0
 19 21  1  0  0  0  0
 20 34  1  0  0  0  0
 20 38  1  0  0  0  0
 21 35  1  0  0  0  0
 21 36  1  0  0  0  0
M  CHG  1  11   1
M  END
$$$$
