2WU
 OpenBabel04111921083D

 27 29  0  0  0  0  0  0  0  0999 V2000
  106.4285   17.9969   18.1674 N   0  3  0  0  0  0  0  0  0  0  0  0
  108.4072   18.6764   18.8770 N   0  0  0  0  0  0  0  0  0  0  0  0
  107.6402   18.5357   17.8244 C   0  0  0  0  0  0  0  0  0  0  0  0
  107.1116   18.7789   15.4191 C   0  0  0  0  0  0  0  0  0  0  0  0
  107.6553   18.2690   19.9485 C   0  0  0  0  0  0  0  0  0  0  0  0
  107.9694   18.2703   21.3137 C   0  0  0  0  0  0  0  0  0  0  0  0
  106.9668   17.8810   22.2129 C   0  0  0  0  0  0  0  0  0  0  0  0
  104.9079   17.2636   24.0374 C   0  0  0  0  0  0  0  0  0  0  0  0
  105.7044   17.4397   21.7718 C   0  0  0  0  0  0  0  0  0  0  0  0
  105.4118   17.3795   20.4017 C   0  0  0  0  0  0  0  0  0  0  0  0
  106.4033   17.8319   19.5299 C   0  0  0  0  0  0  0  0  0  0  0  0
  107.9660   18.8788   16.5694 N   0  0  0  0  0  0  0  0  0  0  0  0
  107.2004   17.9773   23.6766 C   0  0  0  0  0  0  0  0  0  0  0  0
  108.2843   18.3281   24.1349 O   0  0  0  0  0  0  0  0  0  0  0  0
  106.1270   17.6746   24.4843 N   0  3  0  0  0  0  0  0  0  0  0  0
  104.0095   17.0627   24.9320 N   0  0  0  0  0  0  0  0  0  0  0  0
  104.7157   17.0996   22.7056 N   0  3  0  0  0  0  0  0  0  0  0  0
  105.6707   17.8111   17.5316 H   0  0  0  0  0  0  0  0  0  0  0  0
  107.6371   19.1622   14.5387 H   0  0  0  0  0  0  0  0  0  0  0  0
  106.1971   19.3682   15.5444 H   0  0  0  0  0  0  0  0  0  0  0  0
  106.8432   17.7366   15.2203 H   0  0  0  0  0  0  0  0  0  0  0  0
  108.9416   18.6109   21.6540 H   0  0  0  0  0  0  0  0  0  0  0  0
  104.4472   17.0465   20.0367 H   0  0  0  0  0  0  0  0  0  0  0  0
  108.8759   19.3133   16.4396 H   0  0  0  0  0  0  0  0  0  0  0  0
  106.2415   17.7751   25.4813 H   0  0  0  0  0  0  0  0  0  0  0  0
  103.1372   16.7733   24.4843 H   0  0  0  0  0  0  0  0  0  0  0  0
  103.8251   16.7798   22.3594 H   0  0  0  0  0  0  0  0  0  0  0  0
  1  3  2  0  0  0  0
  1 11  1  0  0  0  0
  1 18  1  0  0  0  0
  2  3  1  0  0  0  0
  2  5  2  0  0  0  0
  3 12  1  0  0  0  0
  4 12  1  0  0  0  0
  4 19  1  0  0  0  0
  4 20  1  0  0  0  0
  4 21  1  0  0  0  0
  5  6  1  0  0  0  0
  5 11  1  0  0  0  0
  6  7  2  0  0  0  0
  6 22  1  0  0  0  0
  7  9  1  0  0  0  0
  7 13  1  0  0  0  0
  8 15  1  0  0  0  0
  8 16  2  0  0  0  0
  8 17  1  0  0  0  0
  9 10  1  0  0  0  0
  9 17  2  0  0  0  0
 10 11  2  0  0  0  0
 10 23  1  0  0  0  0
 12 24  1  0  0  0  0
 13 14  2  0  0  0  0
 13 15  1  0  0  0  0
 15 25  1  0  0  0  0
 16 26  1  0  0  0  0
 17 27  1  0  0  0  0
M  CHG  3   1   1  15   1  17   1
M  END
$$$$
