2YB
 OpenBabel04111921033D

 68 71  0  0  1  0  0  0  0  0999 V2000
  -55.0029   -0.8300   59.7054 C   0  0  0  0  0  0  0  0  0  0  0  0
  -56.3578    0.8482   60.6938 C   0  0  0  0  0  0  0  0  0  0  0  0
  -57.7760    0.9816   61.2230 C   0  0  0  0  0  0  0  0  0  0  0  0
  -57.7643    1.0393   62.7407 C   0  0  0  0  0  0  0  0  0  0  0  0
  -60.5644    1.2737   62.7140 C   0  0  0  0  0  0  0  0  0  0  0  0
  -54.6555   -2.1783   59.6100 C   0  0  0  0  0  0  0  0  0  0  0  0
  -53.1800   -4.0461   58.8159 C   0  0  0  0  0  0  0  0  0  0  0  0
  -51.5634   -2.0037   57.4136 C   0  0  0  0  0  0  0  0  0  0  0  0
  -49.2553   -2.7159   56.0020 C   0  0  0  0  0  0  0  0  0  0  0  0
  -49.1269   -2.0940   57.2466 C   0  0  0  0  0  0  0  0  0  0  0  0
  -47.7624   -1.8342   57.8440 C   0  0  0  0  0  0  0  0  0  0  0  0
  -46.1143   -2.9909   59.1368 C   0  0  0  0  0  0  0  0  0  0  0  0
  -44.0316   -1.9634   59.8447 C   0  0  0  0  0  0  0  0  0  0  0  0
  -42.2487   -3.5724   60.8040 C   0  0  2  0  0  0  0  0  0  0  0  0
  -52.3797    0.8345   57.5497 C   0  0  0  0  0  0  0  0  0  0  0  0
  -53.1324   -0.2540   58.2607 C   0  0  0  0  0  0  0  0  0  0  0  0
  -54.2390    0.1123   59.0307 C   0  0  0  0  0  0  0  0  0  0  0  0
  -56.1065   -0.5388   60.4588 O   0  0  0  0  0  0  0  0  0  0  0  0
  -59.2356    0.3632   63.4740 S   0  0  0  0  0  0  0  0  0  0  0  0
  -59.3564   -1.0199   63.0656 O   0  0  0  0  0  0  0  0  0  0  0  0
  -59.2163    0.7202   64.8828 O   0  0  0  0  0  0  0  0  0  0  0  0
  -53.5349   -2.5827   58.8576 C   0  0  0  0  0  0  0  0  0  0  0  0
  -52.7616   -1.6156   58.1771 C   0  0  0  0  0  0  0  0  0  0  0  0
  -51.6647   -2.6081   56.1584 C   0  0  0  0  0  0  0  0  0  0  0  0
  -50.5150   -2.9705   55.4585 C   0  0  0  0  0  0  0  0  0  0  0  0
  -47.3815   -2.9816   58.6092 O   0  0  0  0  0  0  0  0  0  0  0  0
  -45.3044   -1.8552   59.2798 C   0  0  0  0  0  0  0  0  0  0  0  0
  -43.5871   -3.2070   60.2659 C   0  0  0  0  0  0  0  0  0  0  0  0
  -41.1993   -3.3741   59.7216 C   0  0  0  0  0  0  0  0  0  0  0  0
  -39.7710   -3.3111   60.2382 C   0  0  0  0  0  0  0  0  0  0  0  0
  -39.6189   -3.0448   61.4545 O   0  0  0  0  0  0  0  0  0  0  0  0
  -38.8977   -3.5185   59.3427 O   0  0  0  0  0  0  0  0  0  0  0  0
  -42.4868   -5.0601   61.1164 C   0  0  0  0  0  0  0  0  0  0  0  0
  -43.7657   -5.4840   60.5498 O   0  0  0  0  0  0  0  0  0  0  0  0
  -44.3741   -4.3297   60.1298 C   0  0  0  0  0  0  0  0  0  0  0  0
  -45.6424   -4.2426   59.5747 C   0  0  0  0  0  0  0  0  0  0  0  0
  -50.2871   -1.7520   57.9497 C   0  0  0  0  0  0  0  0  0  0  0  0
  -55.6177    1.2344   61.4054 H   0  0  0  0  0  0  0  0  0  0  0  0
  -56.3154    1.4326   59.7695 H   0  0  0  0  0  0  0  0  0  0  0  0
  -58.3883    0.1516   60.8529 H   0  0  0  0  0  0  0  0  0  0  0  0
  -58.2209    1.9083   60.8398 H   0  0  0  0  0  0  0  0  0  0  0  0
  -57.6663    2.0773   63.0775 H   0  0  0  0  0  0  0  0  0  0  0  0
  -56.9270    0.4701   63.1581 H   0  0  0  0  0  0  0  0  0  0  0  0
  -61.5085    0.9020   63.1177 H   0  0  0  0  0  0  0  0  0  0  0  0
  -60.5433    1.1131   61.6353 H   0  0  0  0  0  0  0  0  0  0  0  0
  -60.4476    2.3328   62.9501 H   0  0  0  0  0  0  0  0  0  0  0  0
  -55.2539   -2.9194   60.1332 H   0  0  0  0  0  0  0  0  0  0  0  0
  -53.8744   -4.6425   59.4104 H   0  0  0  0  0  0  0  0  0  0  0  0
  -52.1742   -4.2063   59.2288 H   0  0  0  0  0  0  0  0  0  0  0  0
  -53.2250   -4.4247   57.7916 H   0  0  0  0  0  0  0  0  0  0  0  0
  -48.3666   -3.0187   55.4474 H   0  0  0  0  0  0  0  0  0  0  0  0
  -47.8173   -0.9330   58.4679 H   0  0  0  0  0  0  0  0  0  0  0  0
  -47.0476   -1.6498   57.0307 H   0  0  0  0  0  0  0  0  0  0  0  0
  -43.3842   -1.0953   59.9281 H   0  0  0  0  0  0  0  0  0  0  0  0
  -42.0352   -3.0191   61.7260 H   0  0  0  0  0  0  0  0  0  0  0  0
  -52.8344    1.8147   57.7288 H   0  0  0  0  0  0  0  0  0  0  0  0
  -52.3913    0.6649   56.4691 H   0  0  0  0  0  0  0  0  0  0  0  0
  -51.3492    0.8927   57.9116 H   0  0  0  0  0  0  0  0  0  0  0  0
  -54.4801    1.1663   59.0685 H   0  0  0  0  0  0  0  0  0  0  0  0
  -52.6453   -2.8165   55.7283 H   0  0  0  0  0  0  0  0  0  0  0  0
  -50.6005   -3.4629   54.4954 H   0  0  0  0  0  0  0  0  0  0  0  0
  -45.6328   -0.8712   58.9656 H   0  0  0  0  0  0  0  0  0  0  0  0
  -41.3750   -2.4355   59.1815 H   0  0  0  0  0  0  0  0  0  0  0  0
  -41.2729   -4.1796   58.9789 H   0  0  0  0  0  0  0  0  0  0  0  0
  -42.5266   -5.2381   62.1990 H   0  0  0  0  0  0  0  0  0  0  0  0
  -41.6913   -5.7073   60.7233 H   0  0  0  0  0  0  0  0  0  0  0  0
  -46.2546   -5.1305   59.4702 H   0  0  0  0  0  0  0  0  0  0  0  0
  -50.2068   -1.2837   58.9277 H   0  0  0  0  0  0  0  0  0  0  0  0
  1  6  2  0  0  0  0
  1 17  1  0  0  0  0
  1 18  1  0  0  0  0
  2  3  1  0  0  0  0
  2 18  1  0  0  0  0
  2 38  1  0  0  0  0
  2 39  1  0  0  0  0
  3  4  1  0  0  0  0
  3 40  1  0  0  0  0
  3 41  1  0  0  0  0
  4 19  1  0  0  0  0
  4 42  1  0  0  0  0
  4 43  1  0  0  0  0
  5 19  1  0  0  0  0
  5 44  1  0  0  0  0
  5 45  1  0  0  0  0
  5 46  1  0  0  0  0
  6 22  1  0  0  0  0
  6 47  1  0  0  0  0
  7 22  1  0  0  0  0
  7 48  1  0  0  0  0
  7 49  1  0  0  0  0
  7 50  1  0  0  0  0
  8 23  1  0  0  0  0
  8 24  2  0  0  0  0
  8 37  1  0  0  0  0
  9 10  1  0  0  0  0
  9 25  2  0  0  0  0
  9 51  1  0  0  0  0
 10 11  1  0  0  0  0
 10 37  2  0  0  0  0
 11 26  1  0  0  0  0
 11 52  1  0  0  0  0
 11 53  1  0  0  0  0
 12 26  1  0  0  0  0
 12 27  2  0  0  0  0
 12 36  1  0  0  0  0
 13 27  1  0  0  0  0
 13 28  2  0  0  0  0
 13 54  1  0  0  0  0
 14 28  1  0  0  0  0
 14 29  1  0  0  0  0
 14 33  1  0  0  0  0
 14 55  1  1  0  0  0
 15 16  1  0  0  0  0
 15 56  1  0  0  0  0
 15 57  1  0  0  0  0
 15 58  1  0  0  0  0
 16 17  2  0  0  0  0
 16 23  1  0  0  0  0
 17 59  1  0  0  0  0
 19 20  2  0  0  0  0
 19 21  2  0  0  0  0
 22 23  2  0  0  0  0
 24 25  1  0  0  0  0
 24 60  1  0  0  0  0
 25 61  1  0  0  0  0
 27 62  1  0  0  0  0
 28 35  1  0  0  0  0
 29 30  1  0  0  0  0
 29 63  1  0  0  0  0
 29 64  1  0  0  0  0
 30 31  2  0  0  0  0
 30 32  1  0  0  0  0
 33 34  1  0  0  0  0
 33 65  1  0  0  0  0
 33 66  1  0  0  0  0
 34 35  1  0  0  0  0
 35 36  2  0  0  0  0
 36 67  1  0  0  0  0
 37 68  1  0  0  0  0
M  END
$$$$
