2YM
 OpenBabel04111921133D

 46 49  0  0  0  0  0  0  0  0999 V2000
  108.3777   18.3451   24.1788 O   0  0  0  0  0  0  0  0  0  0  0  0
  107.3120   17.9698   23.7231 C   0  0  0  0  0  0  0  0  0  0  0  0
  106.2195   17.6525   24.5030 N   0  3  0  0  0  0  0  0  0  0  0  0
  107.0976   17.8561   22.2554 C   0  0  0  0  0  0  0  0  0  0  0  0
  105.8459   17.4303   21.7959 C   0  0  0  0  0  0  0  0  0  0  0  0
  104.8357   17.0853   22.7087 N   0  3  0  0  0  0  0  0  0  0  0  0
  105.0141   17.1995   24.0333 C   0  0  0  0  0  0  0  0  0  0  0  0
  104.0969   16.8982   24.8853 N   0  0  0  0  0  0  0  0  0  0  0  0
  105.5581   17.4240   20.4245 C   0  0  0  0  0  0  0  0  0  0  0  0
  106.5299   17.8818   19.5410 C   0  0  0  0  0  0  0  0  0  0  0  0
  107.7826   18.2816   19.9776 C   0  0  0  0  0  0  0  0  0  0  0  0
  108.0924   18.2548   21.3553 C   0  0  0  0  0  0  0  0  0  0  0  0
  106.5001   18.0697   18.1742 N   0  3  0  0  0  0  0  0  0  0  0  0
  107.7347   18.5880   17.8403 C   0  0  0  0  0  0  0  0  0  0  0  0
  108.5163   18.6868   18.8949 N   0  0  0  0  0  0  0  0  0  0  0  0
  108.0871   18.9456   16.6058 N   0  0  0  0  0  0  0  0  0  0  0  0
  107.2171   18.8689   15.4674 C   0  0  0  0  0  0  0  0  0  0  0  0
  107.9936   19.0865   14.1706 C   0  0  0  0  0  0  0  0  0  0  0  0
  107.0868   19.1184   12.9589 N   0  3  0  0  0  0  0  0  0  0  0  0
  107.8348   18.7086   11.7151 C   0  0  0  0  0  0  0  0  0  0  0  0
  106.8885   18.6555   10.5361 C   0  0  0  0  0  0  0  0  0  0  0  0
  106.1952   19.9882   10.3215 C   0  0  0  0  0  0  0  0  0  0  0  0
  105.5004   20.4445   11.5923 C   0  0  0  0  0  0  0  0  0  0  0  0
  106.4454   20.4694   12.7747 C   0  0  0  0  0  0  0  0  0  0  0  0
  106.3190   17.7513   25.5010 H   0  0  0  0  0  0  0  0  0  0  0  0
  103.9565   16.7466   22.3566 H   0  0  0  0  0  0  0  0  0  0  0  0
  103.2542   16.5631   24.3955 H   0  0  0  0  0  0  0  0  0  0  0  0
  104.6016   17.1088   20.0535 H   0  0  0  0  0  0  0  0  0  0  0  0
  109.0632   18.5723   21.7197 H   0  0  0  0  0  0  0  0  0  0  0  0
  105.7353   17.8907   17.5550 H   0  0  0  0  0  0  0  0  0  0  0  0
  109.0335   19.3190   16.5221 H   0  0  0  0  0  0  0  0  0  0  0  0
  106.4403   19.6337   15.5494 H   0  0  0  0  0  0  0  0  0  0  0  0
  106.7506   17.8785   15.4304 H   0  0  0  0  0  0  0  0  0  0  0  0
  108.7074   18.2681   14.0388 H   0  0  0  0  0  0  0  0  0  0  0  0
  108.5223   20.0410   14.2132 H   0  0  0  0  0  0  0  0  0  0  0  0
  108.2722   17.7218   11.8847 H   0  0  0  0  0  0  0  0  0  0  0  0
  108.6192   19.4481   11.5387 H   0  0  0  0  0  0  0  0  0  0  0  0
  106.1344   17.8789   10.7072 H   0  0  0  0  0  0  0  0  0  0  0  0
  107.4648   18.4006    9.6407 H   0  0  0  0  0  0  0  0  0  0  0  0
  105.4565   19.8862    9.5202 H   0  0  0  0  0  0  0  0  0  0  0  0
  106.9387   20.7393   10.0240 H   0  0  0  0  0  0  0  0  0  0  0  0
  104.6651   19.7689   11.8091 H   0  0  0  0  0  0  0  0  0  0  0  0
  105.1086   21.4562   11.4433 H   0  0  0  0  0  0  0  0  0  0  0  0
  107.2434   21.1963   12.6054 H   0  0  0  0  0  0  0  0  0  0  0  0
  105.8953   20.7153   13.6845 H   0  0  0  0  0  0  0  0  0  0  0  0
  106.3388   18.4286   13.1088 H   0  0  0  0  0  0  0  0  0  0  0  0
  1  2  2  0  0  0  0
  2  3  1  0  0  0  0
  2  4  1  0  0  0  0
  3  7  1  0  0  0  0
  3 25  1  0  0  0  0
  4  5  1  0  0  0  0
  4 12  2  0  0  0  0
  5  6  2  0  0  0  0
  5  9  1  0  0  0  0
  6  7  1  0  0  0  0
  6 26  1  0  0  0  0
  7  8  2  0  0  0  0
  8 27  1  0  0  0  0
  9 10  2  0  0  0  0
  9 28  1  0  0  0  0
 10 11  1  0  0  0  0
 10 13  1  0  0  0  0
 11 12  1  0  0  0  0
 11 15  2  0  0  0  0
 12 29  1  0  0  0  0
 13 14  2  0  0  0  0
 13 30  1  0  0  0  0
 14 15  1  0  0  0  0
 14 16  1  0  0  0  0
 16 17  1  0  0  0  0
 16 31  1  0  0  0  0
 17 18  1  0  0  0  0
 17 32  1  0  0  0  0
 17 33  1  0  0  0  0
 18 19  1  0  0  0  0
 18 34  1  0  0  0  0
 18 35  1  0  0  0  0
 19 20  1  0  0  0  0
 19 24  1  0  0  0  0
 19 46  1  0  0  0  0
 20 21  1  0  0  0  0
 20 36  1  0  0  0  0
 20 37  1  0  0  0  0
 21 22  1  0  0  0  0
 21 38  1  0  0  0  0
 21 39  1  0  0  0  0
 22 23  1  0  0  0  0
 22 40  1  0  0  0  0
 22 41  1  0  0  0  0
 23 24  1  0  0  0  0
 23 42  1  0  0  0  0
 23 43  1  0  0  0  0
 24 44  1  0  0  0  0
 24 45  1  0  0  0  0
M  CHG  4   3   1   6   1  13   1  19   1
M  END
$$$$
