2YO
 OpenBabel04111921143D

 44 47  0  0  0  0  0  0  0  0999 V2000
  109.0377   18.4055   24.0499 O   0  0  0  0  0  0  0  0  0  0  0  0
  107.9182   18.0824   23.6664 C   0  0  0  0  0  0  0  0  0  0  0  0
  106.9030   17.7563   24.5406 N   0  0  0  0  0  0  0  0  0  0  0  0
  107.6552   18.0630   22.1999 C   0  0  0  0  0  0  0  0  0  0  0  0
  106.3624   17.7201   21.7745 C   0  0  0  0  0  0  0  0  0  0  0  0
  105.4026   17.4042   22.7361 N   0  3  0  0  0  0  0  0  0  0  0  0
  105.7524   17.4500   24.0495 C   0  0  0  0  0  0  0  0  0  0  0  0
  106.0247   17.7380   20.4159 C   0  0  0  0  0  0  0  0  0  0  0  0
  107.0303   18.1270   19.5327 C   0  0  0  0  0  0  0  0  0  0  0  0
  108.3265   18.4467   19.9239 C   0  0  0  0  0  0  0  0  0  0  0  0
  108.6669   18.4025   21.2814 C   0  0  0  0  0  0  0  0  0  0  0  0
  107.0355   18.3044   18.1752 N   0  3  0  0  0  0  0  0  0  0  0  0
  108.2917   18.6933   17.7985 C   0  0  0  0  0  0  0  0  0  0  0  0
  109.0877   18.7848   18.8316 N   0  0  0  0  0  0  0  0  0  0  0  0
  108.6438   18.9324   16.5241 N   0  0  0  0  0  0  0  0  0  0  0  0
  107.7196   18.9834   15.4187 C   0  0  0  0  0  0  0  0  0  0  0  0
  108.4833   19.1304   14.0911 C   0  0  0  0  0  0  0  0  0  0  0  0
  107.5502   19.1187   12.8914 N   0  3  0  0  0  0  0  0  0  0  0  0
  108.3141   18.7634   11.6313 C   0  0  0  0  0  0  0  0  0  0  0  0
  107.3445   18.6557   10.4657 C   0  0  0  0  0  0  0  0  0  0  0  0
  106.5474   19.9414   10.2823 C   0  0  0  0  0  0  0  0  0  0  0  0
  105.8389   20.3374   11.5708 C   0  0  0  0  0  0  0  0  0  0  0  0
  106.8077   20.4307   12.7365 C   0  0  0  0  0  0  0  0  0  0  0  0
  104.4779   17.1135   22.4527 H   0  0  0  0  0  0  0  0  0  0  0  0
  104.9176   17.1925   24.7219 H   0  0  0  0  0  0  0  0  0  0  0  0
  105.0290   17.4877   20.0700 H   0  0  0  0  0  0  0  0  0  0  0  0
  109.6712   18.6509   21.6084 H   0  0  0  0  0  0  0  0  0  0  0  0
  106.2418   18.1807   17.5694 H   0  0  0  0  0  0  0  0  0  0  0  0
  109.5848   19.3117   16.4171 H   0  0  0  0  0  0  0  0  0  0  0  0
  107.0194   19.8146   15.5545 H   0  0  0  0  0  0  0  0  0  0  0  0
  107.1331   18.0569   15.3824 H   0  0  0  0  0  0  0  0  0  0  0  0
  109.1744   18.2872   13.9779 H   0  0  0  0  0  0  0  0  0  0  0  0
  109.0606   20.0611   14.0562 H   0  0  0  0  0  0  0  0  0  0  0  0
  108.8093   17.8024   11.8063 H   0  0  0  0  0  0  0  0  0  0  0  0
  109.0668   19.5435   11.4712 H   0  0  0  0  0  0  0  0  0  0  0  0
  106.6554   17.8185   10.6339 H   0  0  0  0  0  0  0  0  0  0  0  0
  107.9006   18.4327    9.5485 H   0  0  0  0  0  0  0  0  0  0  0  0
  105.8136   19.8135    9.4788 H   0  0  0  0  0  0  0  0  0  0  0  0
  107.2243   20.7483    9.9755 H   0  0  0  0  0  0  0  0  0  0  0  0
  105.0550   19.6046   11.7995 H   0  0  0  0  0  0  0  0  0  0  0  0
  105.3420   21.3046   11.4351 H   0  0  0  0  0  0  0  0  0  0  0  0
  107.5547   21.2167   12.5861 H   0  0  0  0  0  0  0  0  0  0  0  0
  106.2603   20.6190   13.6647 H   0  0  0  0  0  0  0  0  0  0  0  0
  106.8610   18.3701   13.0314 H   0  0  0  0  0  0  0  0  0  0  0  0
  1  2  2  0  0  0  0
  2  3  1  0  0  0  0
  2  4  1  0  0  0  0
  3  7  1  0  0  0  0
  4  5  2  0  0  0  0
  4 11  1  0  0  0  0
  5  6  1  0  0  0  0
  5  8  1  0  0  0  0
  6  7  2  0  0  0  0
  6 24  1  0  0  0  0
  7 25  1  0  0  0  0
  8  9  2  0  0  0  0
  8 26  1  0  0  0  0
  9 10  1  0  0  0  0
  9 12  1  0  0  0  0
 10 11  2  0  0  0  0
 10 14  1  0  0  0  0
 11 27  1  0  0  0  0
 12 13  2  0  0  0  0
 12 28  1  0  0  0  0
 13 14  1  0  0  0  0
 13 15  1  0  0  0  0
 15 16  1  0  0  0  0
 15 29  1  0  0  0  0
 16 17  1  0  0  0  0
 16 30  1  0  0  0  0
 16 31  1  0  0  0  0
 17 18  1  0  0  0  0
 17 32  1  0  0  0  0
 17 33  1  0  0  0  0
 18 19  1  0  0  0  0
 18 23  1  0  0  0  0
 18 44  1  0  0  0  0
 19 20  1  0  0  0  0
 19 34  1  0  0  0  0
 19 35  1  0  0  0  0
 20 21  1  0  0  0  0
 20 36  1  0  0  0  0
 20 37  1  0  0  0  0
 21 22  1  0  0  0  0
 21 38  1  0  0  0  0
 21 39  1  0  0  0  0
 22 23  1  0  0  0  0
 22 40  1  0  0  0  0
 22 41  1  0  0  0  0
 23 42  1  0  0  0  0
 23 43  1  0  0  0  0
M  CHG  3   6   1  12   1  18   1
M  END
$$$$
