2YQ
 OpenBabel04111922113D

 42 46  0  0  1  0  0  0  0  0999 V2000
    0.3642   63.8325  190.4534 N   0  0  0  0  0  0  0  0  0  0  0  0
    1.1991   62.3830  186.6094 N   0  0  0  0  0  0  0  0  0  0  0  0
   -1.4708   62.3306  190.5652 C   0  0  0  0  0  0  0  0  0  0  0  0
    1.5871   64.1914  188.4963 C   0  0  1  0  0  0  0  0  0  0  0  0
    1.7705   63.6200  187.1111 C   0  0  1  0  0  0  0  0  0  0  0  0
    0.0714   61.9146  187.2666 C   0  0  0  0  0  0  0  0  0  0  0  0
   -0.7960   60.9588  186.6782 C   0  0  0  0  0  0  0  0  0  0  0  0
   -2.0688   60.8848  188.6913 C   0  0  0  0  0  0  0  0  0  0  0  0
    4.7989   64.9069  185.4260 C   0  0  0  0  0  0  0  0  0  0  0  0
    5.4710   64.2458  187.6152 C   0  0  0  0  0  0  0  0  0  0  0  0
    1.0277   65.6393  188.4364 C   0  0  0  0  0  0  0  0  0  0  0  0
    7.0649   65.2705  186.0928 F   0  0  0  0  0  0  0  0  0  0  0  0
    5.8453   64.8326  186.3767 C   0  0  0  0  0  0  0  0  0  0  0  0
    3.5295   64.4035  185.6473 C   0  0  0  0  0  0  0  0  0  0  0  0
    4.2083   63.7219  187.8603 C   0  0  0  0  0  0  0  0  0  0  0  0
    3.2291   63.7984  186.8584 C   0  0  0  0  0  0  0  0  0  0  0  0
   -0.2519   65.9301  188.6445 N   0  0  0  0  0  0  0  0  0  0  0  0
   -0.3854   67.2668  188.4470 C   0  0  0  0  0  0  0  0  0  0  0  0
    0.7546   67.8469  188.1022 N   0  0  0  0  0  0  0  0  0  0  0  0
    1.6681   66.8272  188.0867 N   0  3  0  0  0  0  0  0  0  0  0  0
    3.0264   67.1901  187.7340 C   0  0  0  0  0  0  0  0  0  0  0  0
    0.5781   63.4393  189.2501 C   0  0  0  0  0  0  0  0  0  0  0  0
   -0.2092   62.3847  188.5830 C   0  0  0  0  0  0  0  0  0  0  0  0
   -1.8714   60.4327  187.4035 C   0  0  0  0  0  0  0  0  0  0  0  0
   -2.7135   59.5121  186.9187 F   0  0  0  0  0  0  0  0  0  0  0  0
   -1.2302   61.8668  189.2447 C   0  0  0  0  0  0  0  0  0  0  0  0
   -2.3900   61.8149  191.2289 O   0  0  0  0  0  0  0  0  0  0  0  0
   -0.6968   63.3192  191.1264 N   0  3  0  0  0  0  0  0  0  0  0  0
    1.4504   61.9694  185.7075 H   0  0  0  0  0  0  0  0  0  0  0  0
    2.4288   64.1424  189.1902 H   0  0  0  0  0  0  0  0  0  0  0  0
    1.3347   64.3656  186.4586 H   0  0  0  0  0  0  0  0  0  0  0  0
   -0.6023   60.6283  185.6575 H   0  0  0  0  0  0  0  0  0  0  0  0
   -2.8748   60.4964  189.2876 H   0  0  0  0  0  0  0  0  0  0  0  0
    4.9651   65.3634  184.4591 H   0  0  0  0  0  0  0  0  0  0  0  0
    6.1784   64.1408  188.4352 H   0  0  0  0  0  0  0  0  0  0  0  0
    2.7099   64.5257  184.9073 H   0  0  0  0  0  0  0  0  0  0  0  0
    3.9486   63.3099  188.8702 H   0  0  0  0  0  0  0  0  0  0  0  0
   -1.3428   67.8245  188.5406 H   0  0  0  0  0  0  0  0  0  0  0  0
    3.0420   68.2704  187.5138 H   0  0  0  0  0  0  0  0  0  0  0  0
    3.3674   66.6845  186.8327 H   0  0  0  0  0  0  0  0  0  0  0  0
    3.7250   67.0017  188.5549 H   0  0  0  0  0  0  0  0  0  0  0  0
   -0.9080   63.6700  192.0530 H   0  0  0  0  0  0  0  0  0  0  0  0
  1 22  2  0  0  0  0
  1 28  1  0  0  0  0
  2  5  1  0  0  0  0
  2  6  1  0  0  0  0
  2 29  1  0  0  0  0
  3 26  1  0  0  0  0
  3 27  2  0  0  0  0
  3 28  1  0  0  0  0
  4  5  1  0  0  0  0
  4 11  1  0  0  0  0
  4 22  1  0  0  0  0
  4 30  1  1  0  0  0
  5 16  1  0  0  0  0
  5 31  1  6  0  0  0
  6  7  2  0  0  0  0
  6 23  1  0  0  0  0
  7 24  1  0  0  0  0
  7 32  1  0  0  0  0
  8 24  2  0  0  0  0
  8 26  1  0  0  0  0
  8 33  1  0  0  0  0
  9 13  2  0  0  0  0
  9 14  1  0  0  0  0
  9 34  1  0  0  0  0
 10 13  1  0  0  0  0
 10 15  2  0  0  0  0
 10 35  1  0  0  0  0
 11 17  1  0  0  0  0
 11 20  2  0  0  0  0
 12 13  1  0  0  0  0
 14 16  2  0  0  0  0
 14 36  1  0  0  0  0
 15 16  1  0  0  0  0
 15 37  1  0  0  0  0
 17 18  1  0  0  0  0
 18 19  2  0  0  0  0
 18 38  1  0  0  0  0
 19 20  1  0  0  0  0
 20 21  1  0  0  0  0
 21 39  1  0  0  0  0
 21 40  1  0  0  0  0
 21 41  1  0  0  0  0
 22 23  1  0  0  0  0
 23 26  2  0  0  0  0
 24 25  1  0  0  0  0
 28 42  1  0  0  0  0
M  CHG  2  20   1  28   1
M  END
$$$$
