2YU
 OpenBabel04111921173D

 15 15  0  0  0  0  0  0  0  0999 V2000
   14.8564    0.2393   17.0618 S   0  0  0  0  0  0  0  0  0  0  0  0
   15.4118    1.2574   15.8379 C   0  0  0  0  0  0  0  0  0  0  0  0
   15.0818    2.7189   15.8465 C   0  0  0  0  0  0  0  0  0  0  0  0
   15.5038    3.5339   14.8932 C   0  0  0  0  0  0  0  0  0  0  0  0
   15.1436    4.9731   14.9300 C   0  0  0  0  0  0  0  0  0  0  0  0
   16.3192    3.0380   13.7967 C   0  0  0  0  0  0  0  0  0  0  0  0
   16.6477    1.7395   13.7592 C   0  0  0  0  0  0  0  0  0  0  0  0
   16.2026    0.8889   14.7386 N   0  0  0  0  0  0  0  0  0  0  0  0
   16.6290   -0.4337   14.6372 O   0  0  0  0  0  0  0  0  0  0  0  0
   14.4773    3.0517   16.6723 H   0  0  0  0  0  0  0  0  0  0  0  0
   15.5580    5.5181   14.0902 H   0  0  0  0  0  0  0  0  0  0  0  0
   15.5062    5.4262   15.8649 H   0  0  0  0  0  0  0  0  0  0  0  0
   14.0439    5.0735   14.9069 H   0  0  0  0  0  0  0  0  0  0  0  0
   16.6459    3.7302   13.0381 H   0  0  0  0  0  0  0  0  0  0  0  0
   17.2642    1.3516   12.9534 H   0  0  0  0  0  0  0  0  0  0  0  0
  1  2  2  0  0  0  0
  2  3  1  0  0  0  0
  2  8  1  0  0  0  0
  3  4  2  0  0  0  0
  3 10  1  0  0  0  0
  4  5  1  0  0  0  0
  4  6  1  0  0  0  0
  5 11  1  0  0  0  0
  5 12  1  0  0  0  0
  5 13  1  0  0  0  0
  6  7  2  0  0  0  0
  6 14  1  0  0  0  0
  7  8  1  0  0  0  0
  7 15  1  0  0  0  0
  8  9  1  0  0  0  0
M  END
$$$$
