2ZM
 OpenBabel04111920323D

 17 18  0  0  0  0  0  0  0  0999 V2000
   11.0117    9.5754   38.3773 O   0  0  0  0  0  0  0  0  0  0  0  0
   10.0805    8.7622   38.3016 N   0  0  0  0  0  0  0  0  0  0  0  0
    9.2142    8.7699   37.4125 O   0  0  0  0  0  0  0  0  0  0  0  0
    9.9948    7.7128   39.3361 C   0  0  0  0  0  0  0  0  0  0  0  0
    8.9442    6.7853   39.2904 C   0  0  0  0  0  0  0  0  0  0  0  0
    8.8429    5.7720   40.2537 C   0  0  0  0  0  0  0  0  0  0  0  0
    9.8167    5.7172   41.2529 C   0  0  0  0  0  0  0  0  0  0  0  0
   10.0185    4.8754   42.3219 N   0  3  0  0  0  0  0  0  0  0  0  0
   11.1427    5.3012   42.9752 C   0  0  0  0  0  0  0  0  0  0  0  0
   11.6716    6.3570   42.3886 N   0  0  0  0  0  0  0  0  0  0  0  0
   10.8679    6.6360   41.3145 C   0  0  0  0  0  0  0  0  0  0  0  0
   10.9655    7.6544   40.3449 C   0  0  0  0  0  0  0  0  0  0  0  0
    8.1939    6.8367   38.5069 H   0  0  0  0  0  0  0  0  0  0  0  0
    8.0349    5.0530   40.2123 H   0  0  0  0  0  0  0  0  0  0  0  0
    9.4425    4.0911   42.5791 H   0  0  0  0  0  0  0  0  0  0  0  0
   11.5277    4.8120   43.8624 H   0  0  0  0  0  0  0  0  0  0  0  0
   11.7793    8.3671   40.3902 H   0  0  0  0  0  0  0  0  0  0  0  0
  1  2  2  0  0  0  0
  2  3  2  0  0  0  0
  2  4  1  0  0  0  0
  4  5  2  0  0  0  0
  4 12  1  0  0  0  0
  5  6  1  0  0  0  0
  5 13  1  0  0  0  0
  6  7  2  0  0  0  0
  6 14  1  0  0  0  0
  7  8  1  0  0  0  0
  7 11  1  0  0  0  0
  8  9  2  0  0  0  0
  8 15  1  0  0  0  0
  9 10  1  0  0  0  0
  9 16  1  0  0  0  0
 10 11  1  0  0  0  0
 11 12  2  0  0  0  0
 12 17  1  0  0  0  0
M  CHG  1   8   1
M  END
$$$$
