2ZM
 OpenBabel04111920283D

 17 18  0  0  0  0  0  0  0  0999 V2000
    4.3177  -27.9769  -29.5577 O   0  0  0  0  0  0  0  0  0  0  0  0
    4.4345  -28.7301  -30.5340 N   0  0  0  0  0  0  0  0  0  0  0  0
    4.7566  -29.9213  -30.4418 O   0  0  0  0  0  0  0  0  0  0  0  0
    4.1949  -28.1857  -31.8272 C   0  0  0  0  0  0  0  0  0  0  0  0
    3.5035  -26.9727  -31.9112 C   0  0  0  0  0  0  0  0  0  0  0  0
    3.2569  -26.3906  -33.1423 C   0  0  0  0  0  0  0  0  0  0  0  0
    3.7288  -27.0789  -34.2733 C   0  0  0  0  0  0  0  0  0  0  0  0
    3.6288  -26.7615  -35.5944 N   0  0  0  0  0  0  0  0  0  0  0  0
    4.2226  -27.7317  -36.2656 C   0  0  0  0  0  0  0  0  0  0  0  0
    4.7172  -28.6813  -35.4241 N   0  3  0  0  0  0  0  0  0  0  0  0
    4.4099  -28.2892  -34.1473 C   0  0  0  0  0  0  0  0  0  0  0  0
    4.6724  -28.8854  -32.9355 C   0  0  0  0  0  0  0  0  0  0  0  0
    3.1591  -26.4858  -31.0065 H   0  0  0  0  0  0  0  0  0  0  0  0
    2.7203  -25.4467  -33.2243 H   0  0  0  0  0  0  0  0  0  0  0  0
    4.3155  -27.7841  -37.3449 H   0  0  0  0  0  0  0  0  0  0  0  0
    5.2229  -29.5293  -35.6834 H   0  0  0  0  0  0  0  0  0  0  0  0
    5.2075  -29.8211  -32.8476 H   0  0  0  0  0  0  0  0  0  0  0  0
  1  2  2  0  0  0  0
  2  3  2  0  0  0  0
  2  4  1  0  0  0  0
  4  5  2  0  0  0  0
  4 12  1  0  0  0  0
  5  6  1  0  0  0  0
  5 13  1  0  0  0  0
  6  7  2  0  0  0  0
  6 14  1  0  0  0  0
  7  8  1  0  0  0  0
  7 11  1  0  0  0  0
  8  9  1  0  0  0  0
  9 10  2  0  0  0  0
  9 15  1  0  0  0  0
 10 11  1  0  0  0  0
 10 16  1  0  0  0  0
 11 12  2  0  0  0  0
 12 17  1  0  0  0  0
M  CHG  1  10   1
M  END
$$$$
