2ZQ
 OpenBabel04111920293D

 19 20  0  0  0  0  0  0  0  0999 V2000
    3.7946  -27.6915  -34.9676 C   0  0  0  0  0  0  0  0  0  0  0  0
    4.2659  -28.7248  -34.1293 C   0  0  0  0  0  0  0  0  0  0  0  0
    3.9857  -27.8723  -36.3368 C   0  0  0  0  0  0  0  0  0  0  0  0
    4.8898  -29.8680  -34.6580 C   0  0  0  0  0  0  0  0  0  0  0  0
    4.6012  -29.0088  -36.8846 C   0  0  0  0  0  0  0  0  0  0  0  0
    5.0555  -30.0089  -36.0317 C   0  0  0  0  0  0  0  0  0  0  0  0
    3.0439  -26.4982  -33.1165 C   0  0  0  0  0  0  0  0  0  0  0  0
    3.4789  -27.4603  -32.2335 C   0  0  0  0  0  0  0  0  0  0  0  0
    3.1793  -26.6024  -34.4540 N   0  0  0  0  0  0  0  0  0  0  0  0
    4.0946  -28.5909  -32.7469 C   0  0  0  0  0  0  0  0  0  0  0  0
    3.5070  -26.8514  -37.2473 N   0  0  0  0  0  0  0  0  0  0  0  0
    2.8007  -27.2365  -38.1919 O   0  0  0  0  0  0  0  0  0  0  0  0
    3.8934  -25.6883  -37.0760 O   0  0  0  0  0  0  0  0  0  0  0  0
    5.2414  -30.6587  -33.9954 H   0  0  0  0  0  0  0  0  0  0  0  0
    4.7249  -29.1141  -37.9605 H   0  0  0  0  0  0  0  0  0  0  0  0
    5.5351  -30.8973  -36.4354 H   0  0  0  0  0  0  0  0  0  0  0  0
    2.5602  -25.5888  -32.7733 H   0  0  0  0  0  0  0  0  0  0  0  0
    3.3393  -27.3333  -31.1647 H   0  0  0  0  0  0  0  0  0  0  0  0
    4.4394  -29.3679  -32.0705 H   0  0  0  0  0  0  0  0  0  0  0  0
  1  2  2  0  0  0  0
  1  3  1  0  0  0  0
  1  9  1  0  0  0  0
  2  4  1  0  0  0  0
  2 10  1  0  0  0  0
  3  5  2  0  0  0  0
  3 11  1  0  0  0  0
  4  6  2  0  0  0  0
  4 14  1  0  0  0  0
  5  6  1  0  0  0  0
  5 15  1  0  0  0  0
  6 16  1  0  0  0  0
  7  8  1  0  0  0  0
  7  9  2  0  0  0  0
  7 17  1  0  0  0  0
  8 10  2  0  0  0  0
  8 18  1  0  0  0  0
 10 19  1  0  0  0  0
 11 12  2  0  0  0  0
 11 13  2  0  0  0  0
M  END
$$$$
