2ZV
 OpenBabel04111920283D

 18 18  0  0  0  0  0  0  0  0999 V2000
    5.2292  -30.3257  -34.7969 C   0  0  0  0  0  0  0  0  0  0  0  0
    4.6154  -28.9616  -34.9029 C   0  0  0  0  0  0  0  0  0  0  0  0
    4.4600  -28.4042  -36.1639 C   0  0  0  0  0  0  0  0  0  0  0  0
    3.8958  -27.1464  -36.2733 C   0  0  0  0  0  0  0  0  0  0  0  0
    3.4793  -26.4232  -35.2074 N   0  0  0  0  0  0  0  0  0  0  0  0
    3.6088  -26.9547  -33.9704 C   0  0  0  0  0  0  0  0  0  0  0  0
    3.1870  -26.1946  -32.9095 N   0  0  0  0  0  0  0  0  0  0  0  0
    4.1785  -28.2226  -33.7936 C   0  0  0  0  0  0  0  0  0  0  0  0
    4.3295  -28.7291  -32.4379 N   0  0  0  0  0  0  0  0  0  0  0  0
    5.2883  -29.4919  -32.2172 O   0  0  0  0  0  0  0  0  0  0  0  0
    3.5394  -28.3785  -31.5638 O   0  0  0  0  0  0  0  0  0  0  0  0
    5.4931  -30.6988  -35.7881 H   0  0  0  0  0  0  0  0  0  0  0  0
    4.5213  -31.0243  -34.3430 H   0  0  0  0  0  0  0  0  0  0  0  0
    6.1505  -30.2929  -34.2110 H   0  0  0  0  0  0  0  0  0  0  0  0
    4.7738  -28.9449  -37.0521 H   0  0  0  0  0  0  0  0  0  0  0  0
    3.7655  -26.6918  -37.2511 H   0  0  0  0  0  0  0  0  0  0  0  0
    3.2370  -26.5586  -31.9633 H   0  0  0  0  0  0  0  0  0  0  0  0
    2.7520  -25.3038  -33.0861 H   0  0  0  0  0  0  0  0  0  0  0  0
  1  2  1  0  0  0  0
  1 12  1  0  0  0  0
  1 13  1  0  0  0  0
  1 14  1  0  0  0  0
  2  3  2  0  0  0  0
  2  8  1  0  0  0  0
  3  4  1  0  0  0  0
  3 15  1  0  0  0  0
  4  5  2  0  0  0  0
  4 16  1  0  0  0  0
  5  6  1  0  0  0  0
  6  7  1  0  0  0  0
  6  8  2  0  0  0  0
  7 17  1  0  0  0  0
  7 18  1  0  0  0  0
  8  9  1  0  0  0  0
  9 10  2  0  0  0  0
  9 11  2  0  0  0  0
M  END
$$$$
