2ZW
 OpenBabel04111921203D

 44 46  0  0  0  0  0  0  0  0999 V2000
   21.5497  -11.4177    6.4127 C   0  0  0  0  0  0  0  0  0  0  0  0
   21.1448  -12.5778    5.5032 C   0  0  0  0  0  0  0  0  0  0  0  0
   19.6188  -12.6605    5.4053 C   0  0  0  0  0  0  0  0  0  0  0  0
   21.7841  -13.8724    5.9749 C   0  0  0  0  0  0  0  0  0  0  0  0
   21.2096  -14.6588    6.9801 C   0  0  0  0  0  0  0  0  0  0  0  0
   21.8137  -15.8497    7.3829 C   0  0  0  0  0  0  0  0  0  0  0  0
   23.0033  -14.2902    5.4192 C   0  0  0  0  0  0  0  0  0  0  0  0
   23.6301  -15.4687    5.8479 C   0  0  0  0  0  0  0  0  0  0  0  0
   23.0228  -16.2606    6.8189 C   0  0  0  0  0  0  0  0  0  0  0  0
   23.5249  -17.5134    7.2350 N   0  0  0  0  0  0  0  0  0  0  0  0
   24.8447  -17.9371    7.2322 C   0  0  0  0  0  0  0  0  0  0  0  0
   25.7939  -17.2419    6.9089 O   0  0  0  0  0  0  0  0  0  0  0  0
   25.0408  -19.2954    7.7357 C   0  0  0  0  0  0  0  0  0  0  0  0
   26.2737  -19.8339    8.0877 C   0  0  0  0  0  0  0  0  0  0  0  0
   27.6642  -19.3396    8.0769 C   0  0  0  0  0  0  0  0  0  0  0  0
   26.1169  -21.1164    8.4939 O   0  0  0  0  0  0  0  0  0  0  0  0
   24.7935  -21.4717    8.4242 N   0  0  0  0  0  0  0  0  0  0  0  0
   24.1366  -20.3925    7.9704 C   0  0  0  0  0  0  0  0  0  0  0  0
   22.6983  -20.4970    7.7623 C   0  0  0  0  0  0  0  0  0  0  0  0
   22.1564  -20.8289    6.5120 C   0  0  0  0  0  0  0  0  0  0  0  0
   23.1396  -20.9928    5.0998 Cl  0  0  0  0  0  0  0  0  0  0  0  0
   20.7742  -20.9914    6.3647 C   0  0  0  0  0  0  0  0  0  0  0  0
   19.9215  -20.7790    7.4487 C   0  0  0  0  0  0  0  0  0  0  0  0
   20.4483  -20.4100    8.6850 C   0  0  0  0  0  0  0  0  0  0  0  0
   21.8312  -20.2851    8.8481 C   0  0  0  0  0  0  0  0  0  0  0  0
   21.0859  -10.4838    6.0771 H   0  0  0  0  0  0  0  0  0  0  0  0
   22.6355  -11.2747    6.4043 H   0  0  0  0  0  0  0  0  0  0  0  0
   21.2424  -11.5936    7.4497 H   0  0  0  0  0  0  0  0  0  0  0  0
   21.5127  -12.3604    4.4913 H   0  0  0  0  0  0  0  0  0  0  0  0
   19.3138  -13.4957    4.7659 H   0  0  0  0  0  0  0  0  0  0  0  0
   19.2107  -11.7382    4.9784 H   0  0  0  0  0  0  0  0  0  0  0  0
   19.1515  -12.7951    6.3867 H   0  0  0  0  0  0  0  0  0  0  0  0
   20.2835  -14.3600    7.4623 H   0  0  0  0  0  0  0  0  0  0  0  0
   21.3415  -16.4289    8.1734 H   0  0  0  0  0  0  0  0  0  0  0  0
   23.4728  -13.7045    4.6322 H   0  0  0  0  0  0  0  0  0  0  0  0
   24.5593  -15.7688    5.3754 H   0  0  0  0  0  0  0  0  0  0  0  0
   22.8432  -18.0976    7.6839 H   0  0  0  0  0  0  0  0  0  0  0  0
   28.3538  -20.0861    8.4860 H   0  0  0  0  0  0  0  0  0  0  0  0
   27.7733  -18.4275    8.6719 H   0  0  0  0  0  0  0  0  0  0  0  0
   27.9772  -19.1303    7.0496 H   0  0  0  0  0  0  0  0  0  0  0  0
   20.3545  -21.2748    5.4017 H   0  0  0  0  0  0  0  0  0  0  0  0
   18.8464  -20.8939    7.3246 H   0  0  0  0  0  0  0  0  0  0  0  0
   19.7793  -20.2307    9.5249 H   0  0  0  0  0  0  0  0  0  0  0  0
   22.2262  -20.0246    9.8290 H   0  0  0  0  0  0  0  0  0  0  0  0
  1  2  1  0  0  0  0
  1 26  1  0  0  0  0
  1 27  1  0  0  0  0
  1 28  1  0  0  0  0
  2  3  1  0  0  0  0
  2  4  1  0  0  0  0
  2 29  1  0  0  0  0
  3 30  1  0  0  0  0
  3 31  1  0  0  0  0
  3 32  1  0  0  0  0
  4  5  2  0  0  0  0
  4  7  1  0  0  0  0
  5  6  1  0  0  0  0
  5 33  1  0  0  0  0
  6  9  2  0  0  0  0
  6 34  1  0  0  0  0
  7  8  2  0  0  0  0
  7 35  1  0  0  0  0
  8  9  1  0  0  0  0
  8 36  1  0  0  0  0
  9 10  1  0  0  0  0
 10 11  1  0  0  0  0
 10 37  1  0  0  0  0
 11 12  2  0  0  0  0
 11 13  1  0  0  0  0
 13 14  2  0  0  0  0
 13 18  1  0  0  0  0
 14 15  1  0  0  0  0
 14 16  1  0  0  0  0
 15 38  1  0  0  0  0
 15 39  1  0  0  0  0
 15 40  1  0  0  0  0
 16 17  1  0  0  0  0
 17 18  2  0  0  0  0
 18 19  1  0  0  0  0
 19 20  2  0  0  0  0
 19 25  1  0  0  0  0
 20 21  1  0  0  0  0
 20 22  1  0  0  0  0
 22 23  2  0  0  0  0
 22 41  1  0  0  0  0
 23 24  1  0  0  0  0
 23 42  1  0  0  0  0
 24 25  2  0  0  0  0
 24 43  1  0  0  0  0
 25 44  1  0  0  0  0
M  END
$$$$
