30M
 OpenBabel04111921213D

 43 45  0  0  1  0  0  0  0  0999 V2000
   24.5726   51.1987   -4.4735 C   0  0  1  0  0  0  0  0  0  0  0  0
   23.2198   51.7937   -4.6209 C   0  0  0  0  0  0  0  0  0  0  0  0
   22.8867   51.8187   -6.1117 C   0  0  0  0  0  0  0  0  0  0  0  0
   24.3304   49.8100   -6.4939 C   0  0  0  0  0  0  0  0  0  0  0  0
   22.3465   47.7273    0.2846 O   0  0  0  0  0  0  0  0  0  0  0  0
   23.4303   48.0645    0.7707 C   0  0  0  0  0  0  0  0  0  0  0  0
   24.3422   47.0784    1.4205 C   0  0  0  0  0  0  0  0  0  0  0  0
   23.8308   49.3703    0.7779 N   0  0  0  0  0  0  0  0  0  0  0  0
   23.0060   50.4327    0.2483 C   0  0  0  0  0  0  0  0  0  0  0  0
   23.4869   50.9280   -1.1051 C   0  0  0  0  0  0  0  0  0  0  0  0
   24.8918   51.5053   -1.0383 C   0  0  0  0  0  0  0  0  0  0  0  0
   25.3000   52.2562   -2.2945 C   0  0  0  0  0  0  0  0  0  0  0  0
   25.4495   51.3881   -3.4487 N   0  3  1  0  0  0  0  0  0  0  0  0
   25.1019   50.2860   -5.3572 C   0  0  2  0  0  0  0  0  0  0  0  0
   24.6006   48.8150   -7.1381 O   0  0  0  0  0  0  0  0  0  0  0  0
   23.1666   50.5387   -6.7376 N   0  0  0  0  0  0  0  0  0  0  0  0
   26.3678   49.8900   -4.8570 C   0  0  1  0  0  0  0  0  0  0  0  0
   26.5515   50.5881   -3.6572 C   0  0  2  0  0  0  0  0  0  0  0  0
   27.6907   50.4325   -2.8650 C   0  0  0  0  0  0  0  0  0  0  0  0
   28.6573   49.5285   -3.2824 C   0  0  0  0  0  0  0  0  0  0  0  0
   28.5076   48.8227   -4.4742 C   0  0  0  0  0  0  0  0  0  0  0  0
   27.3718   48.9937   -5.2786 C   0  0  0  0  0  0  0  0  0  0  0  0
   23.1824   52.8028   -4.2210 H   0  0  0  0  0  0  0  0  0  0  0  0
   22.4935   51.1566   -4.1075 H   0  0  0  0  0  0  0  0  0  0  0  0
   23.4970   52.5867   -6.6088 H   0  0  0  0  0  0  0  0  0  0  0  0
   21.8328   52.0518   -6.2516 H   0  0  0  0  0  0  0  0  0  0  0  0
   25.2428   47.5703    1.7951 H   0  0  0  0  0  0  0  0  0  0  0  0
   24.6223   46.3202    0.6856 H   0  0  0  0  0  0  0  0  0  0  0  0
   23.8181   46.6044    2.2557 H   0  0  0  0  0  0  0  0  0  0  0  0
   24.7514   49.5782    1.1273 H   0  0  0  0  0  0  0  0  0  0  0  0
   23.0309   51.2510    0.9737 H   0  0  0  0  0  0  0  0  0  0  0  0
   21.9763   50.0803    0.1470 H   0  0  0  0  0  0  0  0  0  0  0  0
   22.7996   51.7058   -1.4504 H   0  0  0  0  0  0  0  0  0  0  0  0
   23.4790   50.0953   -1.8133 H   0  0  0  0  0  0  0  0  0  0  0  0
   25.5922   50.6837   -0.8699 H   0  0  0  0  0  0  0  0  0  0  0  0
   24.9443   52.2006   -0.1963 H   0  0  0  0  0  0  0  0  0  0  0  0
   26.2728   52.7322   -2.1191 H   0  0  0  0  0  0  0  0  0  0  0  0
   24.5737   53.0378   -2.5230 H   0  0  0  0  0  0  0  0  0  0  0  0
   22.5207   50.1182   -7.3910 H   0  0  0  0  0  0  0  0  0  0  0  0
   27.8136   51.0029   -1.9461 H   0  0  0  0  0  0  0  0  0  0  0  0
   29.5367   49.3838   -2.6621 H   0  0  0  0  0  0  0  0  0  0  0  0
   29.2841   48.1284   -4.7860 H   0  0  0  0  0  0  0  0  0  0  0  0
   27.2695   48.4364   -6.2090 H   0  0  0  0  0  0  0  0  0  0  0  0
  1  2  1  1  0  0  0
  1 13  1  0  0  0  0
  1 14  1  0  0  0  0
  2  3  1  0  0  0  0
  2 23  1  0  0  0  0
  2 24  1  0  0  0  0
  3 16  1  0  0  0  0
  3 25  1  0  0  0  0
  3 26  1  0  0  0  0
  4 15  2  0  0  0  0
  4 16  1  0  0  0  0
  5  6  2  0  0  0  0
  6  7  1  0  0  0  0
  6  8  1  0  0  0  0
  7 27  1  0  0  0  0
  7 28  1  0  0  0  0
  7 29  1  0  0  0  0
  8  9  1  0  0  0  0
  8 30  1  0  0  0  0
  9 10  1  0  0  0  0
  9 31  1  0  0  0  0
  9 32  1  0  0  0  0
 10 11  1  0  0  0  0
 10 33  1  0  0  0  0
 10 34  1  0  0  0  0
 11 12  1  0  0  0  0
 11 35  1  0  0  0  0
 11 36  1  0  0  0  0
 12 37  1  0  0  0  0
 12 38  1  0  0  0  0
 13 12  1  1  0  0  0
 13 18  1  0  0  0  0
 14  4  1  1  0  0  0
 14 17  1  0  0  0  0
 16 39  1  0  0  0  0
 17 18  1  0  0  0  0
 17 22  1  1  0  0  0
 18 19  1  1  0  0  0
 19 20  1  0  0  0  0
 19 40  1  0  0  0  0
 20 21  1  0  0  0  0
 20 41  1  0  0  0  0
 21 22  1  0  0  0  0
 21 42  1  0  0  0  0
 22 43  1  0  0  0  0
M  CHG  1  13   1
M  END
$$$$
