30T
 OpenBabel04111921213D

 62 66  0  0  1  0  0  0  0  0999 V2000
    5.2080   24.4447   20.6523 C   0  0  0  0  0  0  0  0  0  0  0  0
    5.7505   24.8625   19.4523 C   0  0  0  0  0  0  0  0  0  0  0  0
    4.9702   24.9817   18.3017 C   0  0  0  0  0  0  0  0  0  0  0  0
    3.6269   24.6605   18.3919 C   0  0  0  0  0  0  0  0  0  0  0  0
    3.1121   24.2530   19.5532 N   0  0  0  0  0  0  0  0  0  0  0  0
    3.8657   24.1454   20.6649 C   0  0  0  0  0  0  0  0  0  0  0  0
    7.4885   25.1665   19.3886 S   0  0  0  0  0  0  0  0  0  0  0  0
    7.8344   26.4489   20.5726 C   0  0  0  0  0  0  0  0  0  0  0  0
    7.2772   27.7208   20.4085 C   0  0  0  0  0  0  0  0  0  0  0  0
    7.6165   28.7300   21.3103 C   0  0  0  0  0  0  0  0  0  0  0  0
    8.4991   28.4645   22.3608 C   0  0  0  0  0  0  0  0  0  0  0  0
    9.0331   27.1862   22.5279 C   0  0  0  0  0  0  0  0  0  0  0  0
    8.6978   26.1723   21.6357 C   0  0  0  0  0  0  0  0  0  0  0  0
    7.7967   25.7129   18.0859 O   0  0  0  0  0  0  0  0  0  0  0  0
    8.1150   23.9492   19.8642 O   0  0  0  0  0  0  0  0  0  0  0  0
    2.8310   24.6303   17.2580 N   0  0  0  0  0  0  0  0  0  0  0  0
    3.2684   23.7741   21.8563 N   0  0  0  0  0  0  0  0  0  0  0  0
    1.9894   23.4998   22.1377 C   0  0  0  0  0  0  0  0  0  0  0  0
    0.8536   23.5020   21.2875 C   0  0  0  0  0  0  0  0  0  0  0  0
   -0.2106   23.1329   22.0846 C   0  0  0  0  0  0  0  0  0  0  0  0
    0.3491   22.9996   23.3130 N   0  3  0  0  0  0  0  0  0  0  0  0
    1.6653   23.1679   23.3814 N   0  0  0  0  0  0  0  0  0  0  0  0
    1.4936   24.0446   17.3585 C   0  0  2  0  0  0  0  0  0  0  0  0
    1.5935   22.5917   16.8940 C   0  0  0  0  0  0  0  0  0  0  0  0
    0.2480   21.8858   16.9212 C   0  0  0  0  0  0  0  0  0  0  0  0
   -0.8254   22.6366   16.1391 C   0  0  2  0  0  0  0  0  0  0  0  0
   -0.8899   24.1280   16.4690 C   0  0  0  0  0  0  0  0  0  0  0  0
    0.4735   24.8222   16.5266 C   0  0  0  0  0  0  0  0  0  0  0  0
   -2.1025   22.0699   16.4311 O   0  0  0  0  0  0  0  0  0  0  0  0
   -1.6394   22.9046   21.8505 C   0  0  0  0  0  0  0  0  0  0  0  0
   -2.3833   22.2925   22.8742 C   0  0  0  0  0  0  0  0  0  0  0  0
   -3.7486   22.0771   22.7625 C   0  0  0  0  0  0  0  0  0  0  0  0
   -4.4062   22.4593   21.6032 C   0  0  0  0  0  0  0  0  0  0  0  0
   -3.6900   23.0508   20.5605 C   0  0  0  0  0  0  0  0  0  0  0  0
   -2.3097   23.2737   20.6779 C   0  0  0  0  0  0  0  0  0  0  0  0
    5.8116   24.3403   21.5515 H   0  0  0  0  0  0  0  0  0  0  0  0
    5.4042   25.2734   17.3577 H   0  0  0  0  0  0  0  0  0  0  0  0
    6.6052   27.9409   19.5822 H   0  0  0  0  0  0  0  0  0  0  0  0
    7.2098   29.7317   21.1884 H   0  0  0  0  0  0  0  0  0  0  0  0
    8.7812   29.2590   23.0477 H   0  0  0  0  0  0  0  0  0  0  0  0
    9.7239   26.9823   23.3422 H   0  0  0  0  0  0  0  0  0  0  0  0
    9.1263   25.1808   21.7645 H   0  0  0  0  0  0  0  0  0  0  0  0
    2.9767   25.3698   16.5840 H   0  0  0  0  0  0  0  0  0  0  0  0
    3.9011   23.6012   22.6239 H   0  0  0  0  0  0  0  0  0  0  0  0
    0.8117   23.7252   20.2401 H   0  0  0  0  0  0  0  0  0  0  0  0
   -0.1145   22.7762   24.1865 H   0  0  0  0  0  0  0  0  0  0  0  0
    1.1066   24.0685   18.3742 H   0  0  0  0  0  0  0  0  0  0  0  0
    2.2998   22.0422   17.5293 H   0  0  0  0  0  0  0  0  0  0  0  0
    2.0052   22.5671   15.8772 H   0  0  0  0  0  0  0  0  0  0  0  0
   -0.0764   21.7340   17.9584 H   0  0  0  0  0  0  0  0  0  0  0  0
    0.3640   20.8795   16.4992 H   0  0  0  0  0  0  0  0  0  0  0  0
   -0.6500   22.5127   15.0646 H   0  0  0  0  0  0  0  0  0  0  0  0
   -1.4251   24.2715   17.4167 H   0  0  0  0  0  0  0  0  0  0  0  0
   -1.5116   24.6280   15.7150 H   0  0  0  0  0  0  0  0  0  0  0  0
    0.8543   24.9689   15.5117 H   0  0  0  0  0  0  0  0  0  0  0  0
    0.3369   25.8219   16.9614 H   0  0  0  0  0  0  0  0  0  0  0  0
   -2.0441   21.1085   16.2928 H   0  0  0  0  0  0  0  0  0  0  0  0
   -1.9137   21.9616   23.7942 H   0  0  0  0  0  0  0  0  0  0  0  0
   -4.2790   21.6139   23.5892 H   0  0  0  0  0  0  0  0  0  0  0  0
   -5.4746   22.2906   21.5163 H   0  0  0  0  0  0  0  0  0  0  0  0
   -4.2145   23.3421   19.6523 H   0  0  0  0  0  0  0  0  0  0  0  0
   -1.7854   23.7430   19.8488 H   0  0  0  0  0  0  0  0  0  0  0  0
  1  2  2  0  0  0  0
  1  6  1  0  0  0  0
  1 36  1  0  0  0  0
  2  3  1  0  0  0  0
  2  7  1  0  0  0  0
  3  4  2  0  0  0  0
  3 37  1  0  0  0  0
  4  5  1  0  0  0  0
  4 16  1  0  0  0  0
  5  6  2  0  0  0  0
  6 17  1  0  0  0  0
  7  8  1  0  0  0  0
  7 14  2  0  0  0  0
  7 15  2  0  0  0  0
  8  9  2  0  0  0  0
  8 13  1  0  0  0  0
  9 10  1  0  0  0  0
  9 38  1  0  0  0  0
 10 11  2  0  0  0  0
 10 39  1  0  0  0  0
 11 12  1  0  0  0  0
 11 40  1  0  0  0  0
 12 13  2  0  0  0  0
 12 41  1  0  0  0  0
 13 42  1  0  0  0  0
 16 23  1  0  0  0  0
 16 43  1  0  0  0  0
 17 18  1  0  0  0  0
 17 44  1  0  0  0  0
 18 19  2  0  0  0  0
 18 22  1  0  0  0  0
 19 20  1  0  0  0  0
 19 45  1  0  0  0  0
 20 21  2  0  0  0  0
 20 30  1  0  0  0  0
 21 22  1  0  0  0  0
 21 46  1  0  0  0  0
 23 24  1  0  0  0  0
 23 28  1  0  0  0  0
 23 47  1  1  0  0  0
 24 25  1  0  0  0  0
 24 48  1  0  0  0  0
 24 49  1  0  0  0  0
 25 26  1  0  0  0  0
 25 50  1  0  0  0  0
 25 51  1  0  0  0  0
 26 27  1  0  0  0  0
 26 29  1  0  0  0  0
 26 52  1  6  0  0  0
 27 28  1  0  0  0  0
 27 53  1  0  0  0  0
 27 54  1  0  0  0  0
 28 55  1  0  0  0  0
 28 56  1  0  0  0  0
 29 57  1  0  0  0  0
 30 31  2  0  0  0  0
 30 35  1  0  0  0  0
 31 32  1  0  0  0  0
 31 58  1  0  0  0  0
 32 33  2  0  0  0  0
 32 59  1  0  0  0  0
 33 34  1  0  0  0  0
 33 60  1  0  0  0  0
 34 35  2  0  0  0  0
 34 61  1  0  0  0  0
 35 62  1  0  0  0  0
M  CHG  1  21   1
M  END
$$$$
