31P
 OpenBabel04111921233D

 54 57  0  0  1  0  0  0  0  0999 V2000
   71.8608  -10.9632   73.0590 C   0  0  0  0  0  0  0  0  0  0  0  0
   70.6225  -10.2979   72.7986 O   0  0  0  0  0  0  0  0  0  0  0  0
   70.8121   -8.9561   72.6317 C   0  0  0  0  0  0  0  0  0  0  0  0
   71.7964   -8.3487   73.0238 O   0  0  0  0  0  0  0  0  0  0  0  0
   69.8216   -8.4195   71.6165 C   0  0  2  0  0  0  0  0  0  0  0  0
   70.4504   -8.8731   70.2639 C   0  0  0  0  0  0  0  0  0  0  0  0
   70.1236   -8.0413   69.0380 C   0  0  0  0  0  0  0  0  0  0  0  0
   69.7953   -6.9018   71.7688 C   0  0  2  0  0  0  0  0  0  0  0  0
   69.6308   -6.4279   73.1604 N   0  0  0  0  0  0  0  0  0  0  0  0
   68.7217   -6.2168   71.0099 C   0  0  0  0  0  0  0  0  0  0  0  0
   67.6015   -6.6674   70.4914 N   0  0  0  0  0  0  0  0  0  0  0  0
   67.0286   -5.6342   69.7917 N   0  0  0  0  0  0  0  0  0  0  0  0
   67.8077   -4.5752   69.8990 C   0  0  0  0  0  0  0  0  0  0  0  0
   67.5072   -3.2322   69.3625 C   0  0  0  0  0  0  0  0  0  0  0  0
   68.8888   -4.8901   70.6908 N   0  3  0  0  0  0  0  0  0  0  0  0
   70.0173   -4.1264   71.0666 C   0  0  0  0  0  0  0  0  0  0  0  0
   70.6462   -3.3024   70.1462 C   0  0  0  0  0  0  0  0  0  0  0  0
   71.8223   -2.6293   70.4975 C   0  0  0  0  0  0  0  0  0  0  0  0
   72.3809   -2.7762   71.7654 C   0  0  0  0  0  0  0  0  0  0  0  0
   73.5077   -2.1575   72.2279 O   0  0  0  0  0  0  0  0  0  0  0  0
   74.2468   -1.4064   71.2796 C   0  0  0  0  0  0  0  0  0  0  0  0
   71.7755   -3.6269   72.6815 C   0  0  0  0  0  0  0  0  0  0  0  0
   70.5972   -4.3019   72.3418 C   0  0  0  0  0  0  0  0  0  0  0  0
   70.0071   -5.2051   73.3811 C   0  0  0  0  0  0  0  0  0  0  0  0
   69.8740   -4.6429   74.7524 C   0  0  0  0  0  0  0  0  0  0  0  0
   69.6502   -3.2754   74.9747 C   0  0  0  0  0  0  0  0  0  0  0  0
   69.5596   -2.7794   76.2740 C   0  0  0  0  0  0  0  0  0  0  0  0
   69.6791   -3.6562   77.3522 C   0  0  0  0  0  0  0  0  0  0  0  0
   69.5397   -3.0650   78.9579 Cl  0  0  0  0  0  0  0  0  0  0  0  0
   69.9124   -5.0161   77.1364 C   0  0  0  0  0  0  0  0  0  0  0  0
   70.0098   -5.5121   75.8318 C   0  0  0  0  0  0  0  0  0  0  0  0
   71.6581  -12.0146   73.2707 H   0  0  0  0  0  0  0  0  0  0  0  0
   72.3955  -10.5265   73.9077 H   0  0  0  0  0  0  0  0  0  0  0  0
   72.4765  -10.9064   72.1543 H   0  0  0  0  0  0  0  0  0  0  0  0
   68.8274   -8.8563   71.7563 H   0  0  0  0  0  0  0  0  0  0  0  0
   70.1696   -9.9166   70.0751 H   0  0  0  0  0  0  0  0  0  0  0  0
   71.5473   -8.8789   70.3548 H   0  0  0  0  0  0  0  0  0  0  0  0
   70.6426   -8.4377   68.1620 H   0  0  0  0  0  0  0  0  0  0  0  0
   70.4648   -7.0081   69.1553 H   0  0  0  0  0  0  0  0  0  0  0  0
   69.0519   -8.0547   68.8352 H   0  0  0  0  0  0  0  0  0  0  0  0
   70.7776   -6.5846   71.3991 H   0  0  0  0  0  0  0  0  0  0  0  0
   66.5419   -3.2419   68.8496 H   0  0  0  0  0  0  0  0  0  0  0  0
   68.2558   -2.9227   68.6312 H   0  0  0  0  0  0  0  0  0  0  0  0
   67.4605   -2.4897   70.1654 H   0  0  0  0  0  0  0  0  0  0  0  0
   70.2988   -3.2285   69.1210 H   0  0  0  0  0  0  0  0  0  0  0  0
   72.2889   -2.0078   69.7411 H   0  0  0  0  0  0  0  0  0  0  0  0
   75.1023   -0.9632   71.7957 H   0  0  0  0  0  0  0  0  0  0  0  0
   73.6468   -0.5887   70.8668 H   0  0  0  0  0  0  0  0  0  0  0  0
   74.6272   -2.0588   70.4871 H   0  0  0  0  0  0  0  0  0  0  0  0
   72.2286   -3.7584   73.6628 H   0  0  0  0  0  0  0  0  0  0  0  0
   69.5564   -2.5749   74.1458 H   0  0  0  0  0  0  0  0  0  0  0  0
   69.3851   -1.7193   76.4403 H   0  0  0  0  0  0  0  0  0  0  0  0
   70.0070   -5.6978   77.9753 H   0  0  0  0  0  0  0  0  0  0  0  0
   70.2077   -6.5703   75.6734 H   0  0  0  0  0  0  0  0  0  0  0  0
  1  2  1  0  0  0  0
  1 32  1  0  0  0  0
  1 33  1  0  0  0  0
  1 34  1  0  0  0  0
  2  3  1  0  0  0  0
  3  4  2  0  0  0  0
  3  5  1  0  0  0  0
  5  6  1  0  0  0  0
  5  8  1  0  0  0  0
  5 35  1  1  0  0  0
  6  7  1  0  0  0  0
  6 36  1  0  0  0  0
  6 37  1  0  0  0  0
  7 38  1  0  0  0  0
  7 39  1  0  0  0  0
  7 40  1  0  0  0  0
  8  9  1  0  0  0  0
  8 10  1  0  0  0  0
  8 41  1  6  0  0  0
  9 24  2  0  0  0  0
 10 11  1  0  0  0  0
 10 15  2  0  0  0  0
 11 12  1  0  0  0  0
 12 13  2  0  0  0  0
 13 14  1  0  0  0  0
 13 15  1  0  0  0  0
 14 42  1  0  0  0  0
 14 43  1  0  0  0  0
 14 44  1  0  0  0  0
 15 16  1  0  0  0  0
 16 17  2  0  0  0  0
 16 23  1  0  0  0  0
 17 18  1  0  0  0  0
 17 45  1  0  0  0  0
 18 19  2  0  0  0  0
 18 46  1  0  0  0  0
 19 20  1  0  0  0  0
 19 22  1  0  0  0  0
 20 21  1  0  0  0  0
 21 47  1  0  0  0  0
 21 48  1  0  0  0  0
 21 49  1  0  0  0  0
 22 23  2  0  0  0  0
 22 50  1  0  0  0  0
 23 24  1  0  0  0  0
 24 25  1  0  0  0  0
 25 26  2  0  0  0  0
 25 31  1  0  0  0  0
 26 27  1  0  0  0  0
 26 51  1  0  0  0  0
 27 28  2  0  0  0  0
 27 52  1  0  0  0  0
 28 29  1  0  0  0  0
 28 30  1  0  0  0  0
 30 31  2  0  0  0  0
 30 53  1  0  0  0  0
 31 54  1  0  0  0  0
M  CHG  1  15   1
M  END
$$$$
