33R
 OpenBabel04111921533D

 40 42  0  0  0  0  0  0  0  0999 V2000
   -1.8851    2.0400    3.8009 C   0  0  0  0  0  0  0  0  0  0  0  0
    0.4982    2.1628    3.3323 C   0  0  0  0  0  0  0  0  0  0  0  0
   -0.2723    2.1448    5.6227 C   0  0  0  0  0  0  0  0  0  0  0  0
   -1.5965    2.0672    5.1744 C   0  0  0  0  0  0  0  0  0  0  0  0
   -5.5374    1.6442   -2.7939 C   0  0  0  0  0  0  0  0  0  0  0  0
    2.4334    2.2974    5.1818 Cl  0  0  0  0  0  0  0  0  0  0  0  0
   -0.0036    2.1825    7.3307 Cl  0  0  0  0  0  0  0  0  0  0  0  0
   -6.1389    0.4595   -4.8147 C   0  0  0  0  0  0  0  0  0  0  0  0
   -7.2681    1.2654   -4.9392 C   0  0  0  0  0  0  0  0  0  0  0  0
   -7.5342    2.2685   -3.9851 C   0  0  0  0  0  0  0  0  0  0  0  0
   -8.7032    3.1115   -4.2654 N   0  0  0  0  0  0  0  0  0  0  0  0
   -8.5039    4.3349   -4.3438 O   0  0  0  0  0  0  0  0  0  0  0  0
   -9.7384    2.5319   -4.6369 O   0  0  0  0  0  0  0  0  0  0  0  0
   -6.6623    2.4890   -2.9003 C   0  0  0  0  0  0  0  0  0  0  0  0
   -6.8632    3.5320   -1.8194 C   0  0  0  0  0  0  0  0  0  0  0  0
   -7.4759    2.9726   -0.5560 C   0  0  0  0  0  0  0  0  0  0  0  0
   -6.8534    2.6205    0.5359 N   0  0  0  0  0  0  0  0  0  0  0  0
   -5.5108    2.7497    0.6946 N   0  0  0  0  0  0  0  0  0  0  0  0
   -4.8855    2.3323    1.8284 C   0  0  0  0  0  0  0  0  0  0  0  0
   -3.5972    2.4951    2.0609 N   0  0  0  0  0  0  0  0  0  0  0  0
   -3.2551    1.9761    3.3040 C   0  0  0  0  0  0  0  0  0  0  0  0
   -0.8248    2.0906    2.8874 C   0  0  0  0  0  0  0  0  0  0  0  0
    0.7775    2.1933    4.6998 C   0  0  0  0  0  0  0  0  0  0  0  0
   -4.2920    1.3876    3.9952 C   0  0  0  0  0  0  0  0  0  0  0  0
   -5.7365    1.5164    3.1010 S   0  0  0  0  0  0  0  0  0  0  0  0
   -8.9937    2.7543   -0.5480 C   0  0  0  0  0  0  0  0  0  0  0  0
   -9.5937    3.1894   -1.5748 O   0  0  0  0  0  0  0  0  0  0  0  0
   -9.5233    2.1752    0.4497 O   0  0  0  0  0  0  0  0  0  0  0  0
   -5.2777    0.6466   -3.7399 C   0  0  0  0  0  0  0  0  0  0  0  0
    1.3030    2.1993    2.6025 H   0  0  0  0  0  0  0  0  0  0  0  0
   -2.3999    2.0474    5.9072 H   0  0  0  0  0  0  0  0  0  0  0  0
   -4.8513    1.7510   -1.9549 H   0  0  0  0  0  0  0  0  0  0  0  0
   -5.9379   -0.3132   -5.5513 H   0  0  0  0  0  0  0  0  0  0  0  0
   -7.9376    1.1188   -5.7850 H   0  0  0  0  0  0  0  0  0  0  0  0
   -7.4693    4.3737   -2.1684 H   0  0  0  0  0  0  0  0  0  0  0  0
   -5.8933    3.9917   -1.6002 H   0  0  0  0  0  0  0  0  0  0  0  0
   -4.9536    3.2873    0.0430 H   0  0  0  0  0  0  0  0  0  0  0  0
   -1.0291    2.0717    1.8174 H   0  0  0  0  0  0  0  0  0  0  0  0
   -4.2914    0.8922    4.9541 H   0  0  0  0  0  0  0  0  0  0  0  0
   -4.4032    0.0101   -3.6266 H   0  0  0  0  0  0  0  0  0  0  0  0
  1  4  2  0  0  0  0
  1 21  1  0  0  0  0
  1 22  1  0  0  0  0
  2 22  2  0  0  0  0
  2 23  1  0  0  0  0
  2 30  1  0  0  0  0
  3  4  1  0  0  0  0
  3  7  1  0  0  0  0
  3 23  2  0  0  0  0
  4 31  1  0  0  0  0
  5 14  2  0  0  0  0
  5 29  1  0  0  0  0
  5 32  1  0  0  0  0
  6 23  1  0  0  0  0
  8  9  1  0  0  0  0
  8 29  2  0  0  0  0
  8 33  1  0  0  0  0
  9 10  2  0  0  0  0
  9 34  1  0  0  0  0
 10 11  1  0  0  0  0
 10 14  1  0  0  0  0
 11 12  2  0  0  0  0
 11 13  2  0  0  0  0
 14 15  1  0  0  0  0
 15 16  1  0  0  0  0
 15 35  1  0  0  0  0
 15 36  1  0  0  0  0
 16 17  2  0  0  0  0
 16 26  1  0  0  0  0
 17 18  1  0  0  0  0
 18 19  1  0  0  0  0
 18 37  1  0  0  0  0
 19 20  2  0  0  0  0
 19 25  1  0  0  0  0
 20 21  1  0  0  0  0
 21 24  2  0  0  0  0
 22 38  1  0  0  0  0
 24 25  1  0  0  0  0
 24 39  1  0  0  0  0
 26 27  2  0  0  0  0
 26 28  1  0  0  0  0
 29 40  1  0  0  0  0
M  END
$$$$
