35I
 OpenBabel04111918453D

 68 71  0  0  1  0  0  0  0  0999 V2000
   23.2126  -28.2602   -0.6014 O   0  0  0  0  0  0  0  0  0  0  0  0
   22.7898  -29.0530   -1.4772 C   0  0  0  0  0  0  0  0  0  0  0  0
   23.6599  -29.9181   -2.1235 N   0  0  0  0  0  0  0  0  0  0  0  0
   23.0976  -30.8218   -3.0520 N   0  0  0  0  0  0  0  0  0  0  0  0
   24.0030  -31.4728   -3.9877 C   0  0  0  0  0  0  0  0  0  0  0  0
   25.4165  -31.0158   -4.0650 C   0  0  0  0  0  0  0  0  0  0  0  0
   26.1983  -31.3237   -5.1766 C   0  0  0  0  0  0  0  0  0  0  0  0
   27.5204  -30.9161   -5.2404 C   0  0  0  0  0  0  0  0  0  0  0  0
   28.0724  -30.2100   -4.1672 C   0  0  0  0  0  0  0  0  0  0  0  0
   27.2971  -29.9148   -3.0530 C   0  0  0  0  0  0  0  0  0  0  0  0
   25.9647  -30.3014   -2.9884 C   0  0  0  0  0  0  0  0  0  0  0  0
   25.1050  -30.0291   -1.7731 C   0  0  2  0  0  0  0  0  0  0  0  0
   25.3248  -31.1652   -0.7489 C   0  0  0  0  0  0  0  0  0  0  0  0
   26.5765  -31.0128    0.1009 C   0  0  0  0  0  0  0  0  0  0  0  0
   26.5326  -31.6331    1.4798 C   0  0  0  0  0  0  0  0  0  0  0  0
   27.1279  -32.8463    1.4638 F   0  0  0  0  0  0  0  0  0  0  0  0
   25.2936  -31.7823    1.9778 F   0  0  0  0  0  0  0  0  0  0  0  0
   27.2251  -30.8499    2.3418 F   0  0  0  0  0  0  0  0  0  0  0  0
   21.3253  -29.0412   -1.8418 C   0  0  0  0  0  0  0  0  0  0  0  0
   20.4493  -28.1276   -1.3797 C   0  0  0  0  0  0  0  0  0  0  0  0
   19.0171  -27.9892   -1.8035 C   0  0  0  0  0  0  0  0  0  0  0  0
   18.2006  -26.9920   -1.2247 C   0  0  0  0  0  0  0  0  0  0  0  0
   18.7449  -26.0944   -0.3232 O   0  0  0  0  0  0  0  0  0  0  0  0
   18.6309  -26.5326    1.0378 C   0  0  0  0  0  0  0  0  0  0  0  0
   16.8619  -26.8152   -1.6529 C   0  0  0  0  0  0  0  0  0  0  0  0
   16.1428  -25.8040   -1.0491 O   0  0  0  0  0  0  0  0  0  0  0  0
   14.8735  -25.5145   -1.6290 C   0  0  0  0  0  0  0  0  0  0  0  0
   16.3108  -27.6744   -2.6109 C   0  0  0  0  0  0  0  0  0  0  0  0
   17.0576  -28.7075   -3.1922 C   0  0  0  0  0  0  0  0  0  0  0  0
   16.3887  -29.6027   -4.2279 C   0  0  0  0  0  0  0  0  0  0  0  0
   16.4352  -31.1030   -4.0296 C   0  0  0  0  0  0  0  0  0  0  0  0
   16.8746  -31.6942   -2.8612 C   0  0  0  0  0  0  0  0  0  0  0  0
   16.9460  -33.0418   -2.6642 N   0  0  0  0  0  0  0  0  0  0  0  0
   16.5527  -33.8328   -3.6791 C   0  0  0  0  0  0  0  0  0  0  0  0
   16.6004  -35.2068   -3.5073 N   0  0  0  0  0  0  0  0  0  0  0  0
   16.0780  -33.3458   -4.8577 N   0  0  0  0  0  0  0  0  0  0  0  0
   16.0173  -31.9918   -5.0326 C   0  0  0  0  0  0  0  0  0  0  0  0
   15.5310  -31.4994   -6.2432 N   0  0  0  0  0  0  0  0  0  0  0  0
   18.4200  -28.8272   -2.7871 C   0  0  0  0  0  0  0  0  0  0  0  0
   22.6440  -31.5512   -2.5109 H   0  0  0  0  0  0  0  0  0  0  0  0
   23.5530  -31.3245   -4.9729 H   0  0  0  0  0  0  0  0  0  0  0  0
   24.0036  -32.5376   -3.7292 H   0  0  0  0  0  0  0  0  0  0  0  0
   25.7734  -31.8764   -6.0201 H   0  0  0  0  0  0  0  0  0  0  0  0
   28.1268  -31.1374   -6.1083 H   0  0  0  0  0  0  0  0  0  0  0  0
   29.1078  -29.8943   -4.2166 H   0  0  0  0  0  0  0  0  0  0  0  0
   27.7308  -29.3640   -2.2173 H   0  0  0  0  0  0  0  0  0  0  0  0
   25.4004  -29.0524   -1.3583 H   0  0  0  0  0  0  0  0  0  0  0  0
   25.4019  -32.1092   -1.3013 H   0  0  0  0  0  0  0  0  0  0  0  0
   24.4514  -31.2006   -0.0985 H   0  0  0  0  0  0  0  0  0  0  0  0
   26.8031  -29.9549    0.2331 H   0  0  0  0  0  0  0  0  0  0  0  0
   27.4072  -31.4957   -0.4237 H   0  0  0  0  0  0  0  0  0  0  0  0
   20.9862  -29.8105   -2.5350 H   0  0  0  0  0  0  0  0  0  0  0  0
   20.8126  -27.4088   -0.6363 H   0  0  0  0  0  0  0  0  0  0  0  0
   19.0916  -25.7690    1.6813 H   0  0  0  0  0  0  0  0  0  0  0  0
   19.1655  -27.4760    1.2034 H   0  0  0  0  0  0  0  0  0  0  0  0
   17.5820  -26.6389    1.3325 H   0  0  0  0  0  0  0  0  0  0  0  0
   14.4150  -24.7040   -1.0545 H   0  0  0  0  0  0  0  0  0  0  0  0
   14.2102  -26.3873   -1.5753 H   0  0  0  0  0  0  0  0  0  0  0  0
   14.9955  -25.1863   -2.6692 H   0  0  0  0  0  0  0  0  0  0  0  0
   15.2774  -27.5553   -2.9222 H   0  0  0  0  0  0  0  0  0  0  0  0
   16.8408  -29.3786   -5.2018 H   0  0  0  0  0  0  0  0  0  0  0  0
   15.3241  -29.3270   -4.2983 H   0  0  0  0  0  0  0  0  0  0  0  0
   17.2126  -31.0772   -2.0110 H   0  0  0  0  0  0  0  0  0  0  0  0
   16.9310  -35.6003   -2.6428 H   0  0  0  0  0  0  0  0  0  0  0  0
   16.3148  -35.8281   -4.2441 H   0  0  0  0  0  0  0  0  0  0  0  0
   15.2300  -32.1272   -6.9744 H   0  0  0  0  0  0  0  0  0  0  0  0
   15.4598  -30.5097   -6.4321 H   0  0  0  0  0  0  0  0  0  0  0  0
   19.0132  -29.6185   -3.2421 H   0  0  0  0  0  0  0  0  0  0  0  0
  1  2  2  0  0  0  0
  2  3  1  0  0  0  0
  2 19  1  0  0  0  0
  3  4  1  0  0  0  0
  3 12  1  0  0  0  0
  4  5  1  0  0  0  0
  4 40  1  0  0  0  0
  5  6  1  0  0  0  0
  5 41  1  0  0  0  0
  5 42  1  0  0  0  0
  6  7  2  0  0  0  0
  6 11  1  0  0  0  0
  7  8  1  0  0  0  0
  7 43  1  0  0  0  0
  8  9  2  0  0  0  0
  8 44  1  0  0  0  0
  9 10  1  0  0  0  0
  9 45  1  0  0  0  0
 10 11  2  0  0  0  0
 10 46  1  0  0  0  0
 11 12  1  0  0  0  0
 12 13  1  0  0  0  0
 12 47  1  1  0  0  0
 13 14  1  0  0  0  0
 13 48  1  0  0  0  0
 13 49  1  0  0  0  0
 14 15  1  0  0  0  0
 14 50  1  0  0  0  0
 14 51  1  0  0  0  0
 15 16  1  0  0  0  0
 15 17  1  0  0  0  0
 15 18  1  0  0  0  0
 19 20  2  0  0  0  0
 19 52  1  0  0  0  0
 20 21  1  0  0  0  0
 20 53  1  0  0  0  0
 21 22  2  0  0  0  0
 21 39  1  0  0  0  0
 22 23  1  0  0  0  0
 22 25  1  0  0  0  0
 23 24  1  0  0  0  0
 24 54  1  0  0  0  0
 24 55  1  0  0  0  0
 24 56  1  0  0  0  0
 25 26  1  0  0  0  0
 25 28  2  0  0  0  0
 26 27  1  0  0  0  0
 27 57  1  0  0  0  0
 27 58  1  0  0  0  0
 27 59  1  0  0  0  0
 28 29  1  0  0  0  0
 28 60  1  0  0  0  0
 29 30  1  0  0  0  0
 29 39  2  0  0  0  0
 30 31  1  0  0  0  0
 30 61  1  0  0  0  0
 30 62  1  0  0  0  0
 31 32  2  0  0  0  0
 31 37  1  0  0  0  0
 32 33  1  0  0  0  0
 32 63  1  0  0  0  0
 33 34  2  0  0  0  0
 34 35  1  0  0  0  0
 34 36  1  0  0  0  0
 35 64  1  0  0  0  0
 35 65  1  0  0  0  0
 36 37  2  0  0  0  0
 37 38  1  0  0  0  0
 38 66  1  0  0  0  0
 38 67  1  0  0  0  0
 39 68  1  0  0  0  0
M  END
$$$$
