35K
 OpenBabel04111921233D

 32 33  0  0  1  0  0  0  0  0999 V2000
   62.0164  -27.1315  -35.8397 C   0  0  0  0  0  0  0  0  0  0  0  0
   58.6607  -25.2919  -37.5102 N   0  3  0  0  0  0  0  0  0  0  0  0
   57.6229  -23.4225  -38.2578 O   0  0  0  0  0  0  0  0  0  0  0  0
   60.8803  -27.8757  -36.1899 C   0  0  0  0  0  0  0  0  0  0  0  0
   60.9217  -23.7917  -36.8487 N   0  3  0  0  0  0  0  0  0  0  0  0
   59.9053  -21.9016  -37.5868 O   0  0  0  0  0  0  0  0  0  0  0  0
   59.7512  -27.2708  -36.7378 C   0  0  0  0  0  0  0  0  0  0  0  0
   61.8369  -31.5569  -34.6170 N   0  3  0  0  0  0  0  0  0  0  0  0
   58.2050  -31.4158  -34.4818 O   0  0  0  0  0  0  0  0  0  0  0  0
   62.0345  -25.7671  -36.0590 C   0  0  0  0  0  0  0  0  0  0  0  0
   59.7899  -33.0159  -34.9750 O   0  0  0  0  0  0  0  0  0  0  0  0
   60.9143  -25.1588  -36.6203 C   0  0  0  0  0  0  0  0  0  0  0  0
   59.7744  -25.9101  -36.9561 C   0  0  0  0  0  0  0  0  0  0  0  0
   58.6047  -23.9414  -37.7651 C   0  0  0  0  0  0  0  0  0  0  0  0
   59.8608  -23.1103  -37.3974 C   0  0  0  0  0  0  0  0  0  0  0  0
   60.8536  -29.3361  -35.9222 C   0  0  0  0  0  0  0  0  0  0  0  0
   60.3238  -29.5832  -34.5178 C   0  0  0  0  0  0  0  0  0  0  0  0
   60.5330  -31.0180  -34.0652 C   0  0  1  0  0  0  0  0  0  0  0  0
   59.3510  -31.9114  -34.5265 C   0  0  0  0  0  0  0  0  0  0  0  0
   62.8794  -27.6261  -35.3910 H   0  0  0  0  0  0  0  0  0  0  0  0
   57.8322  -25.8210  -37.7549 H   0  0  0  0  0  0  0  0  0  0  0  0
   61.7356  -23.2303  -36.6128 H   0  0  0  0  0  0  0  0  0  0  0  0
   58.8726  -27.8712  -36.9751 H   0  0  0  0  0  0  0  0  0  0  0  0
   61.8771  -32.5451  -34.3271 H   0  0  0  0  0  0  0  0  0  0  0  0
   61.7049  -31.6627  -35.6339 H   0  0  0  0  0  0  0  0  0  0  0  0
   62.9201  -25.1956  -35.7926 H   0  0  0  0  0  0  0  0  0  0  0  0
   61.8837  -29.6844  -36.0414 H   0  0  0  0  0  0  0  0  0  0  0  0
   60.2468  -29.8524  -36.6735 H   0  0  0  0  0  0  0  0  0  0  0  0
   59.2582  -29.3189  -34.4995 H   0  0  0  0  0  0  0  0  0  0  0  0
   60.7962  -28.9001  -33.8001 H   0  0  0  0  0  0  0  0  0  0  0  0
   60.6315  -31.0604  -32.9758 H   0  0  0  0  0  0  0  0  0  0  0  0
   62.6655  -31.0186  -34.3727 H   0  0  0  0  0  0  0  0  0  0  0  0
  1  4  2  0  0  0  0
  1 10  1  0  0  0  0
  1 20  1  0  0  0  0
  2 13  1  0  0  0  0
  2 14  1  0  0  0  0
  2 21  1  0  0  0  0
  3 14  2  0  0  0  0
  4  7  1  0  0  0  0
  4 16  1  0  0  0  0
  5 12  1  0  0  0  0
  5 15  1  0  0  0  0
  5 22  1  0  0  0  0
  6 15  2  0  0  0  0
  7 13  2  0  0  0  0
  7 23  1  0  0  0  0
  8 18  1  0  0  0  0
  8 24  1  0  0  0  0
  8 25  1  0  0  0  0
  8 32  1  0  0  0  0
  9 19  2  0  0  0  0
 10 12  2  0  0  0  0
 10 26  1  0  0  0  0
 11 19  1  0  0  0  0
 12 13  1  0  0  0  0
 14 15  1  0  0  0  0
 16 17  1  0  0  0  0
 16 27  1  0  0  0  0
 16 28  1  0  0  0  0
 17 18  1  0  0  0  0
 17 29  1  0  0  0  0
 17 30  1  0  0  0  0
 18 19  1  0  0  0  0
 18 31  1  1  0  0  0
M  CHG  3   2   1   5   1   8   1
M  END
$$$$
