35O
 OpenBabel04111921253D

 53 56  0  0  1  0  0  0  0  0999 V2000
   78.7412   49.2773   40.0912 C   0  0  0  0  0  0  0  0  0  0  0  0
   79.6125   49.4481   38.8607 C   0  0  0  0  0  0  0  0  0  0  0  0
   80.8566   50.0535   39.4904 C   0  0  0  0  0  0  0  0  0  0  0  0
   80.2989   51.0857   40.4704 C   0  0  0  0  0  0  0  0  0  0  0  0
   78.8308   50.6826   40.6771 C   0  0  0  0  0  0  0  0  0  0  0  0
   78.3579   50.8062   42.0235 N   0  3  0  0  0  0  0  0  0  0  0  0
   77.2643   51.4803   42.4694 C   0  0  0  0  0  0  0  0  0  0  0  0
   76.3811   52.1912   41.7318 N   0  0  0  0  0  0  0  0  0  0  0  0
   79.0500   50.2360   43.0463 N   0  0  0  0  0  0  0  0  0  0  0  0
   78.3594   50.5944   44.1269 C   0  0  0  0  0  0  0  0  0  0  0  0
   77.2596   51.3594   43.7809 C   0  0  0  0  0  0  0  0  0  0  0  0
   76.2962   52.0290   44.5705 C   0  0  0  0  0  0  0  0  0  0  0  0
   76.3577   52.0660   45.8034 O   0  0  0  0  0  0  0  0  0  0  0  0
   75.3412   52.6593   43.8242 N   0  3  0  0  0  0  0  0  0  0  0  0
   75.4619   52.7726   42.4530 C   0  0  0  0  0  0  0  0  0  0  0  0
   74.5504   53.5774   41.8403 N   0  0  0  0  0  0  0  0  0  0  0  0
   74.6610   53.8217   40.4051 C   0  0  2  0  0  0  0  0  0  0  0  0
   73.7468   54.9509   39.9821 C   0  0  0  0  0  0  0  0  0  0  0  0
   74.2519   52.5976   39.6289 C   0  0  0  0  0  0  0  0  0  0  0  0
   73.0852   52.2131   39.6651 O   0  0  0  0  0  0  0  0  0  0  0  0
   75.2627   52.0621   38.8627 N   0  0  0  0  0  0  0  0  0  0  0  0
   75.0994   50.9074   38.1167 C   0  0  0  0  0  0  0  0  0  0  0  0
   76.1730   50.4557   37.3647 C   0  0  0  0  0  0  0  0  0  0  0  0
   76.0447   49.2770   36.6456 C   0  0  0  0  0  0  0  0  0  0  0  0
   74.8454   48.5672   36.6775 C   0  0  0  0  0  0  0  0  0  0  0  0
   74.7552   47.4140   35.9442 O   0  0  0  0  0  0  0  0  0  0  0  0
   73.4798   46.7843   36.0989 C   0  0  0  0  0  0  0  0  0  0  0  0
   73.7801   49.0417   37.4258 C   0  0  0  0  0  0  0  0  0  0  0  0
   73.9063   50.2069   38.1308 C   0  0  0  0  0  0  0  0  0  0  0  0
   79.1785   48.5249   40.7697 H   0  0  0  0  0  0  0  0  0  0  0  0
   77.7189   48.9855   39.8570 H   0  0  0  0  0  0  0  0  0  0  0  0
   79.1524   50.1742   38.1616 H   0  0  0  0  0  0  0  0  0  0  0  0
   79.8040   48.5218   38.3314 H   0  0  0  0  0  0  0  0  0  0  0  0
   81.5215   50.5007   38.7567 H   0  0  0  0  0  0  0  0  0  0  0  0
   81.4049   49.2703   40.0414 H   0  0  0  0  0  0  0  0  0  0  0  0
   80.3576   52.0884   40.0318 H   0  0  0  0  0  0  0  0  0  0  0  0
   80.8612   51.0792   41.4090 H   0  0  0  0  0  0  0  0  0  0  0  0
   78.2037   51.3443   40.0705 H   0  0  0  0  0  0  0  0  0  0  0  0
   78.6719   50.3017   45.1162 H   0  0  0  0  0  0  0  0  0  0  0  0
   74.6219   53.1351   44.3332 H   0  0  0  0  0  0  0  0  0  0  0  0
   73.8047   54.0216   42.3479 H   0  0  0  0  0  0  0  0  0  0  0  0
   75.6921   54.0850   40.1468 H   0  0  0  0  0  0  0  0  0  0  0  0
   73.8194   55.1251   38.8989 H   0  0  0  0  0  0  0  0  0  0  0  0
   74.0224   55.8679   40.5055 H   0  0  0  0  0  0  0  0  0  0  0  0
   72.7020   54.7120   40.2187 H   0  0  0  0  0  0  0  0  0  0  0  0
   76.1621   52.5245   38.8361 H   0  0  0  0  0  0  0  0  0  0  0  0
   77.0981   51.0188   37.3448 H   0  0  0  0  0  0  0  0  0  0  0  0
   76.8830   48.9188   36.0568 H   0  0  0  0  0  0  0  0  0  0  0  0
   73.4417   45.8805   35.4982 H   0  0  0  0  0  0  0  0  0  0  0  0
   72.6807   47.4612   35.7596 H   0  0  0  0  0  0  0  0  0  0  0  0
   73.3217   46.5150   37.1541 H   0  0  0  0  0  0  0  0  0  0  0  0
   72.8366   48.5279   37.4733 H   0  0  0  0  0  0  0  0  0  0  0  0
   73.0419   50.5346   38.6866 H   0  0  0  0  0  0  0  0  0  0  0  0
  1  2  1  0  0  0  0
  1  5  1  0  0  0  0
  1 30  1  0  0  0  0
  1 31  1  0  0  0  0
  2  3  1  0  0  0  0
  2 32  1  0  0  0  0
  2 33  1  0  0  0  0
  3  4  1  0  0  0  0
  3 34  1  0  0  0  0
  3 35  1  0  0  0  0
  4  5  1  0  0  0  0
  4 36  1  0  0  0  0
  4 37  1  0  0  0  0
  5  6  1  0  0  0  0
  5 38  1  0  0  0  0
  6  7  2  0  0  0  0
  6  9  1  0  0  0  0
  7  8  1  0  0  0  0
  7 11  1  0  0  0  0
  8 15  2  0  0  0  0
  9 10  1  0  0  0  0
 10 11  2  0  0  0  0
 10 39  1  0  0  0  0
 11 12  1  0  0  0  0
 12 13  2  0  0  0  0
 12 14  1  0  0  0  0
 14 15  1  0  0  0  0
 14 40  1  0  0  0  0
 15 16  1  0  0  0  0
 16 17  1  0  0  0  0
 16 41  1  0  0  0  0
 17 18  1  0  0  0  0
 17 19  1  0  0  0  0
 17 42  1  6  0  0  0
 18 43  1  0  0  0  0
 18 44  1  0  0  0  0
 18 45  1  0  0  0  0
 19 20  2  0  0  0  0
 19 21  1  0  0  0  0
 21 22  1  0  0  0  0
 21 46  1  0  0  0  0
 22 23  2  0  0  0  0
 22 29  1  0  0  0  0
 23 24  1  0  0  0  0
 23 47  1  0  0  0  0
 24 25  2  0  0  0  0
 24 48  1  0  0  0  0
 25 26  1  0  0  0  0
 25 28  1  0  0  0  0
 26 27  1  0  0  0  0
 27 49  1  0  0  0  0
 27 50  1  0  0  0  0
 27 51  1  0  0  0  0
 28 29  2  0  0  0  0
 28 52  1  0  0  0  0
 29 53  1  0  0  0  0
M  CHG  2   6   1  14   1
M  END
$$$$
