35Q
 OpenBabel04111921273D

 66 69  0  0  1  0  0  0  0  0999 V2000
   -5.8174  -26.1341    3.5472 F   0  0  0  0  0  0  0  0  0  0  0  0
   -6.9838  -26.2112    2.8650 C   0  0  0  0  0  0  0  0  0  0  0  0
   -6.8184  -25.5898    1.6814 F   0  0  0  0  0  0  0  0  0  0  0  0
   -7.9091  -25.5327    3.5914 F   0  0  0  0  0  0  0  0  0  0  0  0
   -7.4061  -27.6015    2.6708 C   0  0  0  0  0  0  0  0  0  0  0  0
   -6.6103  -28.5979    3.0495 C   0  0  0  0  0  0  0  0  0  0  0  0
   -7.0561  -29.9932    2.9455 C   0  0  0  0  0  0  0  0  0  0  0  0
   -6.3038  -30.8533    3.2969 O   0  0  0  0  0  0  0  0  0  0  0  0
   -8.2940  -30.2667    2.3788 N   0  0  0  0  0  0  0  0  0  0  0  0
   -9.0981  -29.3085    2.0593 C   0  0  0  0  0  0  0  0  0  0  0  0
   -8.8191  -27.8810    2.3811 C   0  0  2  0  0  0  0  0  0  0  0  0
   -9.7601  -26.9290    1.7051 C   0  0  0  0  0  0  0  0  0  0  0  0
   -9.4396  -26.0823    0.8770 O   0  0  0  0  0  0  0  0  0  0  0  0
  -11.0355  -27.1327    2.2008 N   0  0  0  0  0  0  0  0  0  0  0  0
  -12.1272  -26.4216    1.7070 C   0  0  0  0  0  0  0  0  0  0  0  0
  -12.4338  -26.6563    0.3793 C   0  0  0  0  0  0  0  0  0  0  0  0
  -12.9389  -25.6317    2.5349 C   0  0  0  0  0  0  0  0  0  0  0  0
  -12.5923  -25.3947    3.8802 N   0  0  0  0  0  0  0  0  0  0  0  0
  -13.6926  -24.9886    4.7652 C   0  0  0  0  0  0  0  0  0  0  0  0
  -13.2137  -24.9307    6.2158 C   0  0  0  0  0  0  0  0  0  0  0  0
  -11.9802  -24.0687    6.3827 N   0  3  1  0  0  0  0  0  0  0  0  0
  -11.5412  -24.0529    7.8129 C   0  0  0  0  0  0  0  0  0  0  0  0
  -10.8669  -24.5827    5.5085 C   0  0  0  0  0  0  0  0  0  0  0  0
  -11.3190  -24.6560    4.0457 C   0  0  0  0  0  0  0  0  0  0  0  0
  -14.0860  -25.0871    1.9480 C   0  0  0  0  0  0  0  0  0  0  0  0
  -14.3918  -25.3057    0.6052 C   0  0  0  0  0  0  0  0  0  0  0  0
  -13.5668  -26.0883   -0.1946 C   0  0  0  0  0  0  0  0  0  0  0  0
  -13.8378  -26.2991   -1.6067 C   0  0  0  0  0  0  0  0  0  0  0  0
  -12.7646  -26.4675   -2.4829 C   0  0  0  0  0  0  0  0  0  0  0  0
  -15.1342  -26.3092   -2.1296 C   0  0  0  0  0  0  0  0  0  0  0  0
  -15.3552  -26.5038   -3.4859 C   0  0  0  0  0  0  0  0  0  0  0  0
  -14.2817  -26.6794   -4.3412 C   0  0  0  0  0  0  0  0  0  0  0  0
  -12.9910  -26.6459   -3.8402 C   0  0  0  0  0  0  0  0  0  0  0  0
  -11.8536  -26.8046   -4.7660 C   0  0  0  0  0  0  0  0  0  0  0  0
  -11.2755  -28.1596   -4.6365 N   0  3  0  0  0  0  0  0  0  0  0  0
  -10.1568  -28.3603   -5.5759 C   0  0  0  0  0  0  0  0  0  0  0  0
   -5.6491  -28.4500    3.4995 H   0  0  0  0  0  0  0  0  0  0  0  0
  -10.0957  -29.5466    1.6659 H   0  0  0  0  0  0  0  0  0  0  0  0
   -9.2200  -27.8246    3.3965 H   0  0  0  0  0  0  0  0  0  0  0  0
  -11.2069  -27.6835    3.0382 H   0  0  0  0  0  0  0  0  0  0  0  0
  -11.7973  -27.3246   -0.1931 H   0  0  0  0  0  0  0  0  0  0  0  0
  -14.4789  -25.7521    4.7198 H   0  0  0  0  0  0  0  0  0  0  0  0
  -14.1209  -24.0164    4.4897 H   0  0  0  0  0  0  0  0  0  0  0  0
  -12.9310  -25.9343    6.5456 H   0  0  0  0  0  0  0  0  0  0  0  0
  -13.9912  -24.5031    6.8473 H   0  0  0  0  0  0  0  0  0  0  0  0
  -10.6605  -23.4127    7.8879 H   0  0  0  0  0  0  0  0  0  0  0  0
  -11.2996  -25.0814    8.0987 H   0  0  0  0  0  0  0  0  0  0  0  0
  -12.3638  -23.6625    8.4127 H   0  0  0  0  0  0  0  0  0  0  0  0
  -10.5908  -25.5720    5.8935 H   0  0  0  0  0  0  0  0  0  0  0  0
  -10.0232  -23.8957    5.6187 H   0  0  0  0  0  0  0  0  0  0  0  0
  -11.4028  -23.6359    3.6559 H   0  0  0  0  0  0  0  0  0  0  0  0
  -10.5156  -25.1722    3.5286 H   0  0  0  0  0  0  0  0  0  0  0  0
  -14.7649  -24.4585    2.5066 H   0  0  0  0  0  0  0  0  0  0  0  0
  -15.2780  -24.8352    0.1855 H   0  0  0  0  0  0  0  0  0  0  0  0
  -11.7417  -26.4132   -2.1112 H   0  0  0  0  0  0  0  0  0  0  0  0
  -15.9958  -26.1580   -1.4823 H   0  0  0  0  0  0  0  0  0  0  0  0
  -16.3597  -26.5020   -3.8882 H   0  0  0  0  0  0  0  0  0  0  0  0
  -14.4549  -26.8115   -5.4054 H   0  0  0  0  0  0  0  0  0  0  0  0
  -11.0818  -26.0653   -4.5350 H   0  0  0  0  0  0  0  0  0  0  0  0
  -12.2016  -26.6820   -5.7957 H   0  0  0  0  0  0  0  0  0  0  0  0
  -10.9669  -28.3022   -3.6668 H   0  0  0  0  0  0  0  0  0  0  0  0
   -9.7765  -29.3693   -5.4262 H   0  0  0  0  0  0  0  0  0  0  0  0
   -9.3957  -27.6121   -5.3442 H   0  0  0  0  0  0  0  0  0  0  0  0
  -10.5477  -28.2293   -6.5870 H   0  0  0  0  0  0  0  0  0  0  0  0
  -12.2033  -23.1069    6.0860 H   0  0  0  0  0  0  0  0  0  0  0  0
  -12.0179  -28.8561   -4.7969 H   0  0  0  0  0  0  0  0  0  0  0  0
  1  2  1  0  0  0  0
  2  3  1  0  0  0  0
  2  4  1  0  0  0  0
  2  5  1  0  0  0  0
  5  6  2  0  0  0  0
  5 11  1  0  0  0  0
  6  7  1  0  0  0  0
  6 37  1  0  0  0  0
  7  8  2  0  0  0  0
  7  9  1  0  0  0  0
  9 10  2  0  0  0  0
 10 11  1  0  0  0  0
 10 38  1  0  0  0  0
 11 12  1  0  0  0  0
 11 39  1  1  0  0  0
 12 13  2  0  0  0  0
 12 14  1  0  0  0  0
 14 15  1  0  0  0  0
 14 40  1  0  0  0  0
 15 16  2  0  0  0  0
 15 17  1  0  0  0  0
 16 27  1  0  0  0  0
 16 41  1  0  0  0  0
 17 18  1  0  0  0  0
 17 25  2  0  0  0  0
 18 19  1  0  0  0  0
 18 24  1  0  0  0  0
 19 20  1  0  0  0  0
 19 42  1  0  0  0  0
 19 43  1  0  0  0  0
 20 21  1  0  0  0  0
 20 44  1  0  0  0  0
 20 45  1  0  0  0  0
 21 22  1  0  0  0  0
 21 23  1  0  0  0  0
 21 65  1  6  0  0  0
 22 46  1  0  0  0  0
 22 47  1  0  0  0  0
 22 48  1  0  0  0  0
 23 24  1  0  0  0  0
 23 49  1  0  0  0  0
 23 50  1  0  0  0  0
 24 51  1  0  0  0  0
 24 52  1  0  0  0  0
 25 26  1  0  0  0  0
 25 53  1  0  0  0  0
 26 27  2  0  0  0  0
 26 54  1  0  0  0  0
 27 28  1  0  0  0  0
 28 29  2  0  0  0  0
 28 30  1  0  0  0  0
 29 33  1  0  0  0  0
 29 55  1  0  0  0  0
 30 31  2  0  0  0  0
 30 56  1  0  0  0  0
 31 32  1  0  0  0  0
 31 57  1  0  0  0  0
 32 33  2  0  0  0  0
 32 58  1  0  0  0  0
 33 34  1  0  0  0  0
 34 35  1  0  0  0  0
 34 59  1  0  0  0  0
 34 60  1  0  0  0  0
 35 36  1  0  0  0  0
 35 61  1  0  0  0  0
 35 66  1  0  0  0  0
 36 62  1  0  0  0  0
 36 63  1  0  0  0  0
 36 64  1  0  0  0  0
M  CHG  2  21   1  35   1
M  END
$$$$
