36I
 OpenBabel04111918093D

 36 39  0  0  0  0  0  0  0  0999 V2000
    7.3993   -3.1745   33.6940 N   0  0  0  0  0  0  0  0  0  0  0  0
    8.3205   -2.1969   33.7249 C   0  0  0  0  0  0  0  0  0  0  0  0
    8.1177   -0.9549   34.1971 N   0  0  0  0  0  0  0  0  0  0  0  0
    6.9362   -0.6039   34.7635 C   0  0  0  0  0  0  0  0  0  0  0  0
    5.9677   -1.6235   34.8639 C   0  0  0  0  0  0  0  0  0  0  0  0
    6.2263   -2.8594   34.2825 C   0  0  0  0  0  0  0  0  0  0  0  0
    5.0933   -3.7401   34.3677 C   0  0  0  0  0  0  0  0  0  0  0  0
    9.6727   -2.5207   33.2207 C   0  0  0  0  0  0  0  0  0  0  0  0
   10.7293   -1.5846   33.2591 C   0  0  0  0  0  0  0  0  0  0  0  0
   12.0098   -1.9039   32.7949 C   0  0  0  0  0  0  0  0  0  0  0  0
    4.0315   -3.1784   35.0249 C   0  0  0  0  0  0  0  0  0  0  0  0
    4.4390   -1.6665   35.6703 S   0  0  0  0  0  0  0  0  0  0  0  0
    9.9739   -3.7946   32.6981 C   0  0  0  0  0  0  0  0  0  0  0  0
   11.2541   -4.1172   32.2326 C   0  0  0  0  0  0  0  0  0  0  0  0
   12.2692   -3.1684   32.2800 C   0  0  0  0  0  0  0  0  0  0  0  0
    5.5057    1.3755   35.1480 C   0  0  0  0  0  0  0  0  0  0  0  0
    6.7922    0.6726   35.2960 N   0  0  0  0  0  0  0  0  0  0  0  0
    7.9656    1.5687   35.1931 C   0  0  0  0  0  0  0  0  0  0  0  0
    5.4488    2.5499   36.1266 C   0  0  0  0  0  0  0  0  0  0  0  0
    6.5555    3.4401   35.9390 O   0  0  0  0  0  0  0  0  0  0  0  0
    7.7789    2.7255   36.1853 C   0  0  0  0  0  0  0  0  0  0  0  0
    5.0707   -4.7357   33.9378 H   0  0  0  0  0  0  0  0  0  0  0  0
   10.5603   -0.5878   33.6725 H   0  0  0  0  0  0  0  0  0  0  0  0
   12.8067   -1.1639   32.8439 H   0  0  0  0  0  0  0  0  0  0  0  0
    3.0438   -3.5841   35.2052 H   0  0  0  0  0  0  0  0  0  0  0  0
    9.1989   -4.5573   32.6566 H   0  0  0  0  0  0  0  0  0  0  0  0
   11.4475   -5.1107   31.8381 H   0  0  0  0  0  0  0  0  0  0  0  0
   13.2657   -3.4209   31.9167 H   0  0  0  0  0  0  0  0  0  0  0  0
    4.6491    0.7680   35.4170 H   0  0  0  0  0  0  0  0  0  0  0  0
    5.3584    1.7032   34.1121 H   0  0  0  0  0  0  0  0  0  0  0  0
    8.0672    1.9546   34.1693 H   0  0  0  0  0  0  0  0  0  0  0  0
    8.8927    1.0469   35.4588 H   0  0  0  0  0  0  0  0  0  0  0  0
    5.4623    2.1748   37.1574 H   0  0  0  0  0  0  0  0  0  0  0  0
    4.5153    3.1048   35.9923 H   0  0  0  0  0  0  0  0  0  0  0  0
    8.6049    3.4370   36.1143 H   0  0  0  0  0  0  0  0  0  0  0  0
    7.7556    2.3336   37.2093 H   0  0  0  0  0  0  0  0  0  0  0  0
  1  2  2  0  0  0  0
  1  6  1  0  0  0  0
  2  3  1  0  0  0  0
  2  8  1  0  0  0  0
  3  4  2  0  0  0  0
  4  5  1  0  0  0  0
  4 17  1  0  0  0  0
  5  6  2  0  0  0  0
  5 12  1  0  0  0  0
  6  7  1  0  0  0  0
  7 11  2  0  0  0  0
  7 22  1  0  0  0  0
  8  9  2  0  0  0  0
  8 13  1  0  0  0  0
  9 10  1  0  0  0  0
  9 23  1  0  0  0  0
 10 15  2  0  0  0  0
 10 24  1  0  0  0  0
 11 12  1  0  0  0  0
 11 25  1  0  0  0  0
 13 14  2  0  0  0  0
 13 26  1  0  0  0  0
 14 15  1  0  0  0  0
 14 27  1  0  0  0  0
 15 28  1  0  0  0  0
 16 17  1  0  0  0  0
 16 19  1  0  0  0  0
 16 29  1  0  0  0  0
 16 30  1  0  0  0  0
 17 18  1  0  0  0  0
 18 21  1  0  0  0  0
 18 31  1  0  0  0  0
 18 32  1  0  0  0  0
 19 20  1  0  0  0  0
 19 33  1  0  0  0  0
 19 34  1  0  0  0  0
 20 21  1  0  0  0  0
 21 35  1  0  0  0  0
 21 36  1  0  0  0  0
M  END
$$$$
