36R
 OpenBabel04111921293D

 16 17  0  0  0  0  0  0  0  0999 V2000
  -17.6634  -36.2376  -28.4670 C   0  0  0  0  0  0  0  0  0  0  0  0
  -17.8904  -37.5625  -28.8635 C   0  0  0  0  0  0  0  0  0  0  0  0
  -17.5409  -38.5822  -27.9683 C   0  0  0  0  0  0  0  0  0  0  0  0
  -16.9943  -38.2973  -26.7118 C   0  0  0  0  0  0  0  0  0  0  0  0
  -16.7719  -36.9754  -26.2995 C   0  0  0  0  0  0  0  0  0  0  0  0
  -17.1227  -35.9869  -27.2162 C   0  0  0  0  0  0  0  0  0  0  0  0
  -17.7916  -40.2248  -28.4256 Cl  0  0  0  0  0  0  0  0  0  0  0  0
  -17.8959  -35.0526  -29.1189 N   0  0  0  0  0  0  0  0  0  0  0  0
  -17.4891  -34.1429  -28.2657 C   0  0  0  0  0  0  0  0  0  0  0  0
  -17.0060  -34.6291  -27.0817 O   0  0  0  0  0  0  0  0  0  0  0  0
  -17.4948  -32.8201  -28.4255 N   0  0  0  0  0  0  0  0  0  0  0  0
  -18.3176  -37.7814  -29.8346 H   0  0  0  0  0  0  0  0  0  0  0  0
  -16.7356  -39.1136  -26.0383 H   0  0  0  0  0  0  0  0  0  0  0  0
  -16.3501  -36.7384  -25.3307 H   0  0  0  0  0  0  0  0  0  0  0  0
  -17.8364  -32.4251  -29.2907 H   0  0  0  0  0  0  0  0  0  0  0  0
  -17.1630  -32.1859  -27.7144 H   0  0  0  0  0  0  0  0  0  0  0  0
  1  2  2  0  0  0  0
  1  6  1  0  0  0  0
  1  8  1  0  0  0  0
  2  3  1  0  0  0  0
  2 12  1  0  0  0  0
  3  4  2  0  0  0  0
  3  7  1  0  0  0  0
  4  5  1  0  0  0  0
  4 13  1  0  0  0  0
  5  6  2  0  0  0  0
  5 14  1  0  0  0  0
  6 10  1  0  0  0  0
  8  9  2  0  0  0  0
  9 10  1  0  0  0  0
  9 11  1  0  0  0  0
 11 15  1  0  0  0  0
 11 16  1  0  0  0  0
M  END
$$$$
