36Z
 OpenBabel04111921543D

 32 33  0  0  0  0  0  0  0  0999 V2000
  -12.1959   23.8332   12.6050 C   0  0  0  0  0  0  0  0  0  0  0  0
  -13.3792   24.1443   11.7773 C   0  0  0  0  0  0  0  0  0  0  0  0
  -14.3757   24.8864   12.3351 O   0  0  0  0  0  0  0  0  0  0  0  0
  -15.4015   25.0733   11.4037 N   0  0  0  0  0  0  0  0  0  0  0  0
  -14.9983   24.4439   10.2916 C   0  0  0  0  0  0  0  0  0  0  0  0
  -15.8014   24.4349    9.0431 C   0  0  0  0  0  0  0  0  0  0  0  0
  -13.7395   23.8426   10.4912 C   0  0  0  0  0  0  0  0  0  0  0  0
  -12.9391   23.1139    9.5547 C   0  0  0  0  0  0  0  0  0  0  0  0
  -13.5456   22.1235    8.7838 C   0  0  0  0  0  0  0  0  0  0  0  0
  -11.6156   23.4728    9.3435 C   0  0  0  0  0  0  0  0  0  0  0  0
  -10.8647   22.8274    8.3832 C   0  0  0  0  0  0  0  0  0  0  0  0
   -9.5628   23.2267    8.1468 N   0  0  0  0  0  0  0  0  0  0  0  0
  -11.4787   21.8610    7.5806 C   0  0  0  0  0  0  0  0  0  0  0  0
  -12.8289   21.5177    7.7705 C   0  0  0  0  0  0  0  0  0  0  0  0
  -13.4529   20.4966    6.8987 C   0  0  0  0  0  0  0  0  0  0  0  0
  -12.8485   19.8958    6.0414 O   0  0  0  0  0  0  0  0  0  0  0  0
  -14.7508   20.2924    7.2573 O   0  0  0  0  0  0  0  0  0  0  0  0
  -15.2789   19.0633    6.7693 C   0  0  0  0  0  0  0  0  0  0  0  0
  -11.4771   23.2181   12.0503 H   0  0  0  0  0  0  0  0  0  0  0  0
  -12.4728   23.2630   13.4918 H   0  0  0  0  0  0  0  0  0  0  0  0
  -11.6731   24.7470   12.9031 H   0  0  0  0  0  0  0  0  0  0  0  0
  -15.2980   23.9076    8.2281 H   0  0  0  0  0  0  0  0  0  0  0  0
  -15.9657   25.4518    8.6707 H   0  0  0  0  0  0  0  0  0  0  0  0
  -16.7564   23.9295    9.1993 H   0  0  0  0  0  0  0  0  0  0  0  0
  -14.5910   21.8668    8.9550 H   0  0  0  0  0  0  0  0  0  0  0  0
  -11.1707   24.2844    9.9275 H   0  0  0  0  0  0  0  0  0  0  0  0
   -8.9815   22.7056    7.5069 H   0  0  0  0  0  0  0  0  0  0  0  0
   -9.1076   23.8765    8.7808 H   0  0  0  0  0  0  0  0  0  0  0  0
  -10.9110   21.3657    6.7997 H   0  0  0  0  0  0  0  0  0  0  0  0
  -16.3469   19.0337    6.9964 H   0  0  0  0  0  0  0  0  0  0  0  0
  -14.7881   18.2408    7.3010 H   0  0  0  0  0  0  0  0  0  0  0  0
  -15.1455   18.9578    5.6886 H   0  0  0  0  0  0  0  0  0  0  0  0
  1  2  1  0  0  0  0
  1 19  1  0  0  0  0
  1 20  1  0  0  0  0
  1 21  1  0  0  0  0
  2  3  1  0  0  0  0
  2  7  2  0  0  0  0
  3  4  1  0  0  0  0
  4  5  2  0  0  0  0
  5  6  1  0  0  0  0
  5  7  1  0  0  0  0
  6 22  1  0  0  0  0
  6 23  1  0  0  0  0
  6 24  1  0  0  0  0
  7  8  1  0  0  0  0
  8  9  2  0  0  0  0
  8 10  1  0  0  0  0
  9 14  1  0  0  0  0
  9 25  1  0  0  0  0
 10 11  2  0  0  0  0
 10 26  1  0  0  0  0
 11 12  1  0  0  0  0
 11 13  1  0  0  0  0
 12 27  1  0  0  0  0
 12 28  1  0  0  0  0
 13 14  2  0  0  0  0
 13 29  1  0  0  0  0
 14 15  1  0  0  0  0
 15 16  2  0  0  0  0
 15 17  1  0  0  0  0
 17 18  1  0  0  0  0
 18 30  1  0  0  0  0
 18 31  1  0  0  0  0
 18 32  1  0  0  0  0
M  END
$$$$
