37N
 OpenBabel04111921543D

 41 43  0  0  0  0  0  0  0  0999 V2000
  -11.9485   23.6729   12.5572 C   0  0  0  0  0  0  0  0  0  0  0  0
  -13.1241   23.8338   11.6449 C   0  0  0  0  0  0  0  0  0  0  0  0
  -13.3678   23.3404   10.3911 C   0  0  0  0  0  0  0  0  0  0  0  0
  -12.4321   22.5322    9.6000 C   0  0  0  0  0  0  0  0  0  0  0  0
  -12.5369   21.1355    9.5018 C   0  0  0  0  0  0  0  0  0  0  0  0
  -11.6440   20.4093    8.6951 C   0  0  0  0  0  0  0  0  0  0  0  0
  -11.6883   18.9852    8.5868 N   0  0  0  0  0  0  0  0  0  0  0  0
  -13.0773   18.1094    8.2447 S   0  0  0  0  0  0  0  0  0  0  0  0
  -13.5435   18.5097    6.5361 C   0  0  0  0  0  0  0  0  0  0  0  0
  -12.6984   18.1995    5.4629 C   0  0  0  0  0  0  0  0  0  0  0  0
  -13.0980   18.4663    4.1371 C   0  0  0  0  0  0  0  0  0  0  0  0
  -14.3462   19.0341    3.8886 C   0  0  0  0  0  0  0  0  0  0  0  0
  -15.1932   19.3380    4.9535 C   0  0  0  0  0  0  0  0  0  0  0  0
  -14.7942   19.0756    6.2759 C   0  0  0  0  0  0  0  0  0  0  0  0
  -14.1490   18.5008    9.1362 O   0  0  0  0  0  0  0  0  0  0  0  0
  -12.7194   16.6993    8.2641 O   0  0  0  0  0  0  0  0  0  0  0  0
  -10.6222   21.0793    8.0253 C   0  0  0  0  0  0  0  0  0  0  0  0
  -10.5046   22.4807    8.0981 C   0  0  0  0  0  0  0  0  0  0  0  0
   -9.4391   23.2272    7.3131 C   0  0  0  0  0  0  0  0  0  0  0  0
   -9.3482   24.4657    7.4485 O   0  0  0  0  0  0  0  0  0  0  0  0
   -8.7211   22.4903    6.5554 O   0  0  0  0  0  0  0  0  0  0  0  0
  -11.4236   23.1851    8.8958 C   0  0  0  0  0  0  0  0  0  0  0  0
  -14.6399   23.8651   10.0291 C   0  0  0  0  0  0  0  0  0  0  0  0
  -15.3889   23.6644    8.7595 C   0  0  0  0  0  0  0  0  0  0  0  0
  -15.1406   24.6166   11.0324 N   0  0  0  0  0  0  0  0  0  0  0  0
  -14.1897   24.5905   12.0464 O   0  0  0  0  0  0  0  0  0  0  0  0
  -12.0524   24.1828   13.5206 H   0  0  0  0  0  0  0  0  0  0  0  0
  -11.0509   24.0570   12.0565 H   0  0  0  0  0  0  0  0  0  0  0  0
  -11.7872   22.6038   12.7469 H   0  0  0  0  0  0  0  0  0  0  0  0
  -13.3087   20.6081   10.0481 H   0  0  0  0  0  0  0  0  0  0  0  0
  -10.8218   18.4676    8.7552 H   0  0  0  0  0  0  0  0  0  0  0  0
  -11.7250   17.7561    5.6341 H   0  0  0  0  0  0  0  0  0  0  0  0
  -12.4345   18.2336    3.3051 H   0  0  0  0  0  0  0  0  0  0  0  0
  -14.6549   19.2404    2.8654 H   0  0  0  0  0  0  0  0  0  0  0  0
  -16.1673   19.7850    4.7573 H   0  0  0  0  0  0  0  0  0  0  0  0
  -15.4734   19.3103    7.0911 H   0  0  0  0  0  0  0  0  0  0  0  0
   -9.9151   20.5314    7.4012 H   0  0  0  0  0  0  0  0  0  0  0  0
  -11.3317   24.2731    8.9465 H   0  0  0  0  0  0  0  0  0  0  0  0
  -16.3503   24.1828    8.7686 H   0  0  0  0  0  0  0  0  0  0  0  0
  -15.5815   22.5956    8.5966 H   0  0  0  0  0  0  0  0  0  0  0  0
  -14.8084   24.0385    7.9063 H   0  0  0  0  0  0  0  0  0  0  0  0
  1  2  1  0  0  0  0
  1 27  1  0  0  0  0
  1 28  1  0  0  0  0
  1 29  1  0  0  0  0
  2  3  2  0  0  0  0
  2 26  1  0  0  0  0
  3  4  1  0  0  0  0
  3 23  1  0  0  0  0
  4  5  2  0  0  0  0
  4 22  1  0  0  0  0
  5  6  1  0  0  0  0
  5 30  1  0  0  0  0
  6  7  1  0  0  0  0
  6 17  2  0  0  0  0
  7  8  1  0  0  0  0
  7 31  1  0  0  0  0
  8  9  1  0  0  0  0
  8 15  2  0  0  0  0
  8 16  2  0  0  0  0
  9 10  2  0  0  0  0
  9 14  1  0  0  0  0
 10 11  1  0  0  0  0
 10 32  1  0  0  0  0
 11 12  2  0  0  0  0
 11 33  1  0  0  0  0
 12 13  1  0  0  0  0
 12 34  1  0  0  0  0
 13 14  2  0  0  0  0
 13 35  1  0  0  0  0
 14 36  1  0  0  0  0
 17 18  1  0  0  0  0
 17 37  1  0  0  0  0
 18 19  1  0  0  0  0
 18 22  2  0  0  0  0
 19 20  2  0  0  0  0
 19 21  1  0  0  0  0
 22 38  1  0  0  0  0
 23 24  1  0  0  0  0
 23 25  2  0  0  0  0
 24 39  1  0  0  0  0
 24 40  1  0  0  0  0
 24 41  1  0  0  0  0
 25 26  1  0  0  0  0
M  END
$$$$
