39D
 OpenBabel04111921553D

 66 69  0  0  1  0  0  0  0  0999 V2000
   39.0163  -16.4423   27.8580 C   0  0  0  0  0  0  0  0  0  0  0  0
   38.2300  -17.5503   28.5594 C   0  0  1  0  0  0  0  0  0  0  0  0
   39.1522  -18.5999   29.1572 C   0  0  0  0  0  0  0  0  0  0  0  0
   38.0935  -15.3364   27.3345 C   0  0  0  0  0  0  0  0  0  0  0  0
   37.2226  -14.7490   28.4457 C   0  0  2  0  0  0  0  0  0  0  0  0
   36.4204  -15.8835   29.0929 C   0  0  0  0  0  0  0  0  0  0  0  0
   37.3411  -16.9631   29.6558 C   0  0  0  0  0  0  0  0  0  0  0  0
   36.2701  -13.6662   27.9400 C   0  0  0  0  0  0  0  0  0  0  0  0
   41.3807  -20.7485   28.8881 C   0  0  1  0  0  0  0  0  0  0  0  0
   39.9111  -20.9329   28.9121 C   0  0  1  0  0  0  0  0  0  0  0  0
   47.0660  -20.8249   30.6905 C   0  0  0  0  0  0  0  0  0  0  0  0
   40.2487  -23.3922   28.5952 C   0  0  0  0  0  0  0  0  0  0  0  0
   40.0130  -23.9008   29.8730 C   0  0  0  0  0  0  0  0  0  0  0  0
   40.7553  -24.9764   30.3545 C   0  0  0  0  0  0  0  0  0  0  0  0
   41.7357  -25.5600   29.5610 C   0  0  0  0  0  0  0  0  0  0  0  0
   41.9796  -25.0586   28.2876 C   0  0  0  0  0  0  0  0  0  0  0  0
   41.2355  -23.9839   27.8047 C   0  0  0  0  0  0  0  0  0  0  0  0
   42.2154  -21.0036   29.9018 N   0  3  0  0  0  0  0  0  0  0  0  0
   43.5263  -20.8507   29.4920 C   0  0  2  0  0  0  0  0  0  0  0  0
   43.4717  -20.4812   28.1623 C   0  0  0  0  0  0  0  0  0  0  0  0
   42.1414  -20.4052   27.8304 N   0  3  0  0  0  0  0  0  0  0  0  0
   39.2689  -19.7360   28.3948 N   0  0  0  0  0  0  0  0  0  0  0  0
   39.5180  -22.1692   28.1152 C   0  0  0  0  0  0  0  0  0  0  0  0
   39.7593  -18.4705   30.2036 O   0  0  0  0  0  0  0  0  0  0  0  0
   37.0020  -12.4922   27.4243 N   0  3  0  0  0  0  0  0  0  0  0  0
   44.7141  -21.0686   30.3195 C   0  0  2  0  0  0  0  0  0  0  0  0
   45.9321  -20.5278   29.9437 C   0  0  0  0  0  0  0  0  0  0  0  0
   47.0000  -21.6404   31.8219 C   0  0  1  0  0  0  0  0  0  0  0  0
   45.7463  -22.1264   32.2198 C   0  0  0  0  0  0  0  0  0  0  0  0
   44.6029  -21.8459   31.4656 C   0  0  0  0  0  0  0  0  0  0  0  0
   48.2877  -21.9323   32.5204 C   0  0  0  0  0  0  0  0  0  0  0  0
   49.3525  -21.5630   32.0980 O   0  0  0  0  0  0  0  0  0  0  0  0
   48.2059  -22.6704   33.6797 N   0  0  0  0  0  0  0  0  0  0  0  0
   39.5807  -16.8647   27.0190 H   0  0  0  0  0  0  0  0  0  0  0  0
   39.7369  -16.0017   28.5611 H   0  0  0  0  0  0  0  0  0  0  0  0
   37.5823  -18.0425   27.8225 H   0  0  0  0  0  0  0  0  0  0  0  0
   37.4460  -15.7522   26.5506 H   0  0  0  0  0  0  0  0  0  0  0  0
   38.6988  -14.5396   26.8946 H   0  0  0  0  0  0  0  0  0  0  0  0
   37.8728  -14.3099   29.2096 H   0  0  0  0  0  0  0  0  0  0  0  0
   35.7578  -16.3361   28.3416 H   0  0  0  0  0  0  0  0  0  0  0  0
   35.8006  -15.4769   29.8987 H   0  0  0  0  0  0  0  0  0  0  0  0
   37.9677  -16.5283   30.4473 H   0  0  0  0  0  0  0  0  0  0  0  0
   36.7358  -17.7599   30.1079 H   0  0  0  0  0  0  0  0  0  0  0  0
   35.6391  -13.3008   28.7521 H   0  0  0  0  0  0  0  0  0  0  0  0
   35.6577  -14.0354   27.1158 H   0  0  0  0  0  0  0  0  0  0  0  0
   39.6352  -21.0524   29.9658 H   0  0  0  0  0  0  0  0  0  0  0  0
   48.0291  -20.4362   30.3726 H   0  0  0  0  0  0  0  0  0  0  0  0
   39.2526  -23.4575   30.5072 H   0  0  0  0  0  0  0  0  0  0  0  0
   40.5674  -25.3653   31.3511 H   0  0  0  0  0  0  0  0  0  0  0  0
   42.3036  -26.4093   29.9323 H   0  0  0  0  0  0  0  0  0  0  0  0
   42.7510  -25.5103   27.6704 H   0  0  0  0  0  0  0  0  0  0  0  0
   41.4395  -23.6076   26.8077 H   0  0  0  0  0  0  0  0  0  0  0  0
   44.2608  -20.2826   27.4493 H   0  0  0  0  0  0  0  0  0  0  0  0
   41.7453  -20.1630   26.9196 H   0  0  0  0  0  0  0  0  0  0  0  0
   38.8304  -19.7680   27.4843 H   0  0  0  0  0  0  0  0  0  0  0  0
   39.7481  -22.0012   27.0548 H   0  0  0  0  0  0  0  0  0  0  0  0
   38.4415  -22.3177   28.2125 H   0  0  0  0  0  0  0  0  0  0  0  0
   36.3455  -11.7676   27.0926 H   0  0  0  0  0  0  0  0  0  0  0  0
   37.5876  -12.0616   28.1527 H   0  0  0  0  0  0  0  0  0  0  0  0
   46.0199  -19.8716   29.0880 H   0  0  0  0  0  0  0  0  0  0  0  0
   45.6347  -22.7429   33.1017 H   0  0  0  0  0  0  0  0  0  0  0  0
   43.6493  -22.2740   31.7647 H   0  0  0  0  0  0  0  0  0  0  0  0
   49.0682  -22.8936   34.1735 H   0  0  0  0  0  0  0  0  0  0  0  0
   47.3373  -22.9972   34.0583 H   0  0  0  0  0  0  0  0  0  0  0  0
   41.9555  -21.2771   30.8526 H   0  0  0  0  0  0  0  0  0  0  0  0
   37.6071  -12.7371   26.6308 H   0  0  0  0  0  0  0  0  0  0  0  0
  1  2  1  0  0  0  0
  1  4  1  0  0  0  0
  1 34  1  0  0  0  0
  1 35  1  0  0  0  0
  2  3  1  0  0  0  0
  2  7  1  0  0  0  0
  2 36  1  6  0  0  0
  3 22  1  0  0  0  0
  3 24  2  0  0  0  0
  4  5  1  0  0  0  0
  4 37  1  0  0  0  0
  4 38  1  0  0  0  0
  5  6  1  0  0  0  0
  5  8  1  0  0  0  0
  5 39  1  1  0  0  0
  6  7  1  0  0  0  0
  6 40  1  0  0  0  0
  6 41  1  0  0  0  0
  7 42  1  0  0  0  0
  7 43  1  0  0  0  0
  8 25  1  0  0  0  0
  8 44  1  0  0  0  0
  8 45  1  0  0  0  0
  9 10  1  0  0  0  0
  9 18  1  6  0  0  0
  9 21  1  0  0  0  0
 10 22  1  0  0  0  0
 10 23  1  0  0  0  0
 10 46  1  1  0  0  0
 11 27  1  0  0  0  0
 11 28  1  0  0  0  0
 11 47  1  0  0  0  0
 12 13  1  0  0  0  0
 12 17  1  0  0  0  0
 12 23  1  0  0  0  0
 13 14  1  0  0  0  0
 13 48  1  0  0  0  0
 14 15  1  0  0  0  0
 14 49  1  0  0  0  0
 15 16  1  0  0  0  0
 15 50  1  0  0  0  0
 16 17  1  0  0  0  0
 16 51  1  0  0  0  0
 17 52  1  0  0  0  0
 18 65  1  0  0  0  0
 19 18  1  6  0  0  0
 19 20  1  0  0  0  0
 19 26  1  0  0  0  0
 20 21  1  0  0  0  0
 20 53  1  0  0  0  0
 21 54  1  0  0  0  0
 22 55  1  0  0  0  0
 23 56  1  0  0  0  0
 23 57  1  0  0  0  0
 25 58  1  0  0  0  0
 25 59  1  0  0  0  0
 25 66  1  0  0  0  0
 26 27  1  6  0  0  0
 26 30  1  0  0  0  0
 27 60  1  0  0  0  0
 28 29  1  0  0  0  0
 28 31  1  6  0  0  0
 29 30  1  0  0  0  0
 29 61  1  0  0  0  0
 30 62  1  0  0  0  0
 31 32  2  0  0  0  0
 31 33  1  0  0  0  0
 33 63  1  0  0  0  0
 33 64  1  0  0  0  0
M  CHG  3  18   1  21   1  25   1
M  END
$$$$
