39F
 OpenBabel04111921563D

 66 70  0  0  1  0  0  0  0  0999 V2000
   43.3082  -20.7755   29.2792 C   0  0  0  0  0  0  0  0  0  0  0  0
   37.0797  -16.9350   29.4002 C   0  0  0  0  0  0  0  0  0  0  0  0
   38.9914  -18.4646   28.9862 C   0  0  0  0  0  0  0  0  0  0  0  0
   41.2176  -20.6396   28.7294 C   0  0  0  0  0  0  0  0  0  0  0  0
   43.2661  -20.4291   27.9494 C   0  0  0  0  0  0  0  0  0  0  0  0
   38.9222  -16.2677   27.7731 C   0  0  0  0  0  0  0  0  0  0  0  0
   36.2276  -15.7725   28.9073 C   0  0  0  0  0  0  0  0  0  0  0  0
   38.0237  -15.1451   27.2577 C   0  0  0  0  0  0  0  0  0  0  0  0
   38.0932  -17.4136   28.3562 C   0  0  2  0  0  0  0  0  0  0  0  0
   37.0883  -14.6260   28.3623 C   0  0  1  0  0  0  0  0  0  0  0  0
   39.2942  -22.1100   28.0500 C   0  0  0  0  0  0  0  0  0  0  0  0
   40.0862  -23.3114   28.5123 C   0  0  0  0  0  0  0  0  0  0  0  0
   46.8031  -20.8599   30.6375 C   0  0  0  0  0  0  0  0  0  0  0  0
   41.6929  -25.3989   29.4567 C   0  0  0  0  0  0  0  0  0  0  0  0
   41.9159  -24.8707   28.1864 C   0  0  0  0  0  0  0  0  0  0  0  0
   40.6778  -24.8827   30.2601 C   0  0  0  0  0  0  0  0  0  0  0  0
   45.3607  -22.3338   32.1011 C   0  0  0  0  0  0  0  0  0  0  0  0
   44.3040  -21.9364   31.2436 C   0  0  0  0  0  0  0  0  0  0  0  0
   41.1114  -23.8357   27.7117 C   0  0  0  0  0  0  0  0  0  0  0  0
   39.8874  -23.8324   29.7973 C   0  0  0  0  0  0  0  0  0  0  0  0
   45.7264  -20.4619   29.8330 C   0  0  0  0  0  0  0  0  0  0  0  0
   46.5873  -21.7728   31.7321 C   0  0  0  0  0  0  0  0  0  0  0  0
   44.4676  -21.0517   30.1241 C   0  0  0  0  0  0  0  0  0  0  0  0
   47.8201  -21.9756   32.3169 C   0  0  0  0  0  0  0  0  0  0  0  0
   36.1819  -13.4925   27.8799 C   0  0  0  0  0  0  0  0  0  0  0  0
   39.7277  -20.8185   28.7751 C   0  0  2  0  0  0  0  0  0  0  0  0
   48.6946  -21.2306   31.5829 N   0  3  0  0  0  0  0  0  0  0  0  0
   41.9516  -20.3253   27.6082 N   0  3  0  0  0  0  0  0  0  0  0  0
   48.1140  -20.5350   30.5816 N   0  0  0  0  0  0  0  0  0  0  0  0
   42.0176  -20.8998   29.7411 N   0  0  0  0  0  0  0  0  0  0  0  0
   48.2038  -22.7249   33.3699 N   0  0  0  0  0  0  0  0  0  0  0  0
   37.0024  -12.3379   27.4526 N   0  3  0  0  0  0  0  0  0  0  0  0
   39.0549  -19.6347   28.2574 N   0  0  0  0  0  0  0  0  0  0  0  0
   39.5780  -18.2677   30.0486 O   0  0  0  0  0  0  0  0  0  0  0  0
   44.4195  -20.1727   26.7331 Cl  0  0  0  0  0  0  0  0  0  0  0  0
   36.4254  -17.7733   29.6713 H   0  0  0  0  0  0  0  0  0  0  0  0
   37.5924  -16.6314   30.3217 H   0  0  0  0  0  0  0  0  0  0  0  0
   39.6146  -15.8619   28.5224 H   0  0  0  0  0  0  0  0  0  0  0  0
   39.5447  -16.6397   26.9494 H   0  0  0  0  0  0  0  0  0  0  0  0
   35.6068  -15.4099   29.7358 H   0  0  0  0  0  0  0  0  0  0  0  0
   35.5408  -16.1300   28.1294 H   0  0  0  0  0  0  0  0  0  0  0  0
   37.4308  -15.5099   26.4087 H   0  0  0  0  0  0  0  0  0  0  0  0
   38.6604  -14.3398   26.8773 H   0  0  0  0  0  0  0  0  0  0  0  0
   37.5343  -17.8706   27.5314 H   0  0  0  0  0  0  0  0  0  0  0  0
   37.7105  -14.2445   29.1837 H   0  0  0  0  0  0  0  0  0  0  0  0
   38.2260  -22.2984   28.2280 H   0  0  0  0  0  0  0  0  0  0  0  0
   39.3956  -21.9956   26.9622 H   0  0  0  0  0  0  0  0  0  0  0  0
   42.3160  -26.2089   29.8260 H   0  0  0  0  0  0  0  0  0  0  0  0
   42.7222  -25.2597   27.5697 H   0  0  0  0  0  0  0  0  0  0  0  0
   40.5089  -25.2902   31.2531 H   0  0  0  0  0  0  0  0  0  0  0  0
   45.2027  -23.0085   32.9311 H   0  0  0  0  0  0  0  0  0  0  0  0
   43.3040  -22.3391   31.4437 H   0  0  0  0  0  0  0  0  0  0  0  0
   41.3179  -23.4166   26.7302 H   0  0  0  0  0  0  0  0  0  0  0  0
   39.1402  -23.4007   30.4592 H   0  0  0  0  0  0  0  0  0  0  0  0
   45.8732  -19.7466   29.0462 H   0  0  0  0  0  0  0  0  0  0  0  0
   35.5313  -13.1289   28.6818 H   0  0  0  0  0  0  0  0  0  0  0  0
   35.5731  -13.7859   27.0193 H   0  0  0  0  0  0  0  0  0  0  0  0
   39.4512  -20.9100   29.8340 H   0  0  0  0  0  0  0  0  0  0  0  0
   49.6944  -21.1499   31.7143 H   0  0  0  0  0  0  0  0  0  0  0  0
   41.5919  -20.1180   26.6829 H   0  0  0  0  0  0  0  0  0  0  0  0
   47.5142  -23.2541   33.8998 H   0  0  0  0  0  0  0  0  0  0  0  0
   49.1555  -22.8056   33.7143 H   0  0  0  0  0  0  0  0  0  0  0  0
   36.4126  -11.5580   27.1362 H   0  0  0  0  0  0  0  0  0  0  0  0
   37.5892  -11.9928   28.2244 H   0  0  0  0  0  0  0  0  0  0  0  0
   38.4673  -19.7416   27.4425 H   0  0  0  0  0  0  0  0  0  0  0  0
   37.6243  -12.5790   26.6712 H   0  0  0  0  0  0  0  0  0  0  0  0
  1  5  2  0  0  0  0
  1 23  1  0  0  0  0
  1 30  1  0  0  0  0
  2  7  1  0  0  0  0
  2  9  1  0  0  0  0
  2 36  1  0  0  0  0
  2 37  1  0  0  0  0
  3  9  1  0  0  0  0
  3 33  1  0  0  0  0
  3 34  2  0  0  0  0
  4 26  1  0  0  0  0
  4 28  2  0  0  0  0
  4 30  1  0  0  0  0
  5 28  1  0  0  0  0
  5 35  1  0  0  0  0
  6  8  1  0  0  0  0
  6  9  1  0  0  0  0
  6 38  1  0  0  0  0
  6 39  1  0  0  0  0
  7 10  1  0  0  0  0
  7 40  1  0  0  0  0
  7 41  1  0  0  0  0
  8 10  1  0  0  0  0
  8 42  1  0  0  0  0
  8 43  1  0  0  0  0
  9 44  1  6  0  0  0
 10 25  1  0  0  0  0
 10 45  1  1  0  0  0
 11 12  1  0  0  0  0
 11 26  1  0  0  0  0
 11 46  1  0  0  0  0
 11 47  1  0  0  0  0
 12 19  2  0  0  0  0
 12 20  1  0  0  0  0
 13 21  2  0  0  0  0
 13 22  1  0  0  0  0
 13 29  1  0  0  0  0
 14 15  2  0  0  0  0
 14 16  1  0  0  0  0
 14 48  1  0  0  0  0
 15 19  1  0  0  0  0
 15 49  1  0  0  0  0
 16 20  2  0  0  0  0
 16 50  1  0  0  0  0
 17 18  1  0  0  0  0
 17 22  2  0  0  0  0
 17 51  1  0  0  0  0
 18 23  2  0  0  0  0
 18 52  1  0  0  0  0
 19 53  1  0  0  0  0
 20 54  1  0  0  0  0
 21 23  1  0  0  0  0
 21 55  1  0  0  0  0
 22 24  1  0  0  0  0
 24 27  2  0  0  0  0
 24 31  1  0  0  0  0
 25 32  1  0  0  0  0
 25 56  1  0  0  0  0
 25 57  1  0  0  0  0
 26 33  1  0  0  0  0
 26 58  1  1  0  0  0
 27 29  1  0  0  0  0
 27 59  1  0  0  0  0
 28 60  1  0  0  0  0
 31 61  1  0  0  0  0
 31 62  1  0  0  0  0
 32 63  1  0  0  0  0
 32 64  1  0  0  0  0
 32 66  1  0  0  0  0
 33 65  1  0  0  0  0
M  CHG  3  27   1  28   1  32   1
M  END
$$$$
