39R
 OpenBabel04111921563D

 30 32  0  0  0  0  0  0  0  0999 V2000
   21.9129  -43.4743   10.1378 C   0  0  0  0  0  0  0  0  0  0  0  0
   20.6214  -43.6409    9.6277 C   0  0  0  0  0  0  0  0  0  0  0  0
   19.6492  -42.6633    9.8677 N   0  0  0  0  0  0  0  0  0  0  0  0
   20.4001  -44.6496    8.6925 C   0  0  0  0  0  0  0  0  0  0  0  0
   21.4282  -45.5260    8.3383 C   0  0  0  0  0  0  0  0  0  0  0  0
   22.7061  -45.3748    8.8911 C   0  0  0  0  0  0  0  0  0  0  0  0
   22.9681  -44.3438    9.7984 C   0  0  0  0  0  0  0  0  0  0  0  0
   24.3073  -44.1723   10.3740 C   0  0  0  0  0  0  0  0  0  0  0  0
   25.4345  -44.7909   10.0615 N   0  0  0  0  0  0  0  0  0  0  0  0
   24.5858  -43.3009   11.3916 N   0  3  0  0  0  0  0  0  0  0  0  0
   25.8606  -43.3541   11.7789 N   0  0  0  0  0  0  0  0  0  0  0  0
   26.3675  -44.2680   10.9404 C   0  0  0  0  0  0  0  0  0  0  0  0
   27.7769  -44.6503   10.9673 C   0  0  0  0  0  0  0  0  0  0  0  0
   28.5522  -44.3978   12.1126 C   0  0  0  0  0  0  0  0  0  0  0  0
   29.9105  -44.7184   12.1465 C   0  0  0  0  0  0  0  0  0  0  0  0
   30.5130  -45.2911   11.0297 C   0  0  0  0  0  0  0  0  0  0  0  0
   29.7559  -45.5495    9.8861 C   0  0  0  0  0  0  0  0  0  0  0  0
   28.3921  -45.2367    9.8554 C   0  0  0  0  0  0  0  0  0  0  0  0
   22.0805  -42.6349   10.8039 H   0  0  0  0  0  0  0  0  0  0  0  0
   18.6952  -42.9775    9.7223 H   0  0  0  0  0  0  0  0  0  0  0  0
   19.7590  -42.1606   10.7427 H   0  0  0  0  0  0  0  0  0  0  0  0
   19.4237  -44.7595    8.2266 H   0  0  0  0  0  0  0  0  0  0  0  0
   21.2376  -46.3167    7.6168 H   0  0  0  0  0  0  0  0  0  0  0  0
   23.4976  -46.0606    8.5941 H   0  0  0  0  0  0  0  0  0  0  0  0
   23.9612  -42.6605   11.8657 H   0  0  0  0  0  0  0  0  0  0  0  0
   28.0965  -43.9407   12.9897 H   0  0  0  0  0  0  0  0  0  0  0  0
   30.4935  -44.5145   13.0406 H   0  0  0  0  0  0  0  0  0  0  0  0
   31.5724  -45.5319   11.0502 H   0  0  0  0  0  0  0  0  0  0  0  0
   30.2311  -45.9879    9.0124 H   0  0  0  0  0  0  0  0  0  0  0  0
   27.8164  -45.4333    8.9536 H   0  0  0  0  0  0  0  0  0  0  0  0
  1  2  2  0  0  0  0
  1  7  1  0  0  0  0
  1 19  1  0  0  0  0
  2  3  1  0  0  0  0
  2  4  1  0  0  0  0
  3 20  1  0  0  0  0
  3 21  1  0  0  0  0
  4  5  2  0  0  0  0
  4 22  1  0  0  0  0
  5  6  1  0  0  0  0
  5 23  1  0  0  0  0
  6  7  2  0  0  0  0
  6 24  1  0  0  0  0
  7  8  1  0  0  0  0
  8  9  1  0  0  0  0
  8 10  2  0  0  0  0
  9 12  1  0  0  0  0
 10 11  1  0  0  0  0
 10 25  1  0  0  0  0
 11 12  2  0  0  0  0
 12 13  1  0  0  0  0
 13 14  2  0  0  0  0
 13 18  1  0  0  0  0
 14 15  1  0  0  0  0
 14 26  1  0  0  0  0
 15 16  2  0  0  0  0
 15 27  1  0  0  0  0
 16 17  1  0  0  0  0
 16 28  1  0  0  0  0
 17 18  2  0  0  0  0
 17 29  1  0  0  0  0
 18 30  1  0  0  0  0
M  CHG  1  10   1
M  END
$$$$
