3A8
 OpenBabel04111921573D

 35 38  0  0  1  0  0  0  0  0999 V2000
  -13.2513   84.1901    4.8662 C   0  0  0  0  0  0  0  0  0  0  0  0
  -12.0333   84.5476    4.2810 C   0  0  0  0  0  0  0  0  0  0  0  0
  -11.2552   83.5662    3.6813 C   0  0  0  0  0  0  0  0  0  0  0  0
  -10.0415   83.8629    3.1388 O   0  0  0  0  0  0  0  0  0  0  0  0
  -11.6778   82.2462    3.6378 C   0  0  0  0  0  0  0  0  0  0  0  0
  -12.8875   81.8873    4.2342 C   0  0  0  0  0  0  0  0  0  0  0  0
  -13.6979   82.8535    4.8587 C   0  0  0  0  0  0  0  0  0  0  0  0
  -14.9557   82.5049    5.6181 C   0  0  1  0  0  0  0  0  0  0  0  0
  -15.8480   81.6514    4.8068 C   0  0  0  0  0  0  0  0  0  0  0  0
  -14.6663   81.6117    6.7415 N   0  0  0  0  0  0  0  0  0  0  0  0
  -15.2329   80.3442    6.6334 C   0  0  0  0  0  0  0  0  0  0  0  0
  -15.0610   79.4087    7.4001 O   0  0  0  0  0  0  0  0  0  0  0  0
  -16.0158   80.4061    5.4221 C   0  0  0  0  0  0  0  0  0  0  0  0
  -16.8385   79.5984    4.7630 N   0  0  0  0  0  0  0  0  0  0  0  0
  -17.2191   80.3714    3.7166 N   0  3  0  0  0  0  0  0  0  0  0  0
  -16.6349   81.6291    3.6834 C   0  0  0  0  0  0  0  0  0  0  0  0
  -16.8991   82.6231    2.6537 C   0  0  0  0  0  0  0  0  0  0  0  0
  -16.6836   83.9847    2.9124 C   0  0  0  0  0  0  0  0  0  0  0  0
  -16.9023   84.9389    1.9221 C   0  0  0  0  0  0  0  0  0  0  0  0
  -17.3526   84.5432    0.6657 C   0  0  0  0  0  0  0  0  0  0  0  0
  -17.5788   83.1947    0.3964 C   0  0  0  0  0  0  0  0  0  0  0  0
  -17.3469   82.2395    1.3853 C   0  0  0  0  0  0  0  0  0  0  0  0
  -13.8447   84.9651    5.3485 H   0  0  0  0  0  0  0  0  0  0  0  0
  -11.7103   85.5843    4.2981 H   0  0  0  0  0  0  0  0  0  0  0  0
   -9.5839   84.4490    3.7648 H   0  0  0  0  0  0  0  0  0  0  0  0
  -11.0522   81.4922    3.1686 H   0  0  0  0  0  0  0  0  0  0  0  0
  -13.1772   80.8383    4.2226 H   0  0  0  0  0  0  0  0  0  0  0  0
  -15.4777   83.3876    6.0000 H   0  0  0  0  0  0  0  0  0  0  0  0
  -13.9608   81.8000    7.4362 H   0  0  0  0  0  0  0  0  0  0  0  0
  -17.9022   79.9925    3.0706 H   0  0  0  0  0  0  0  0  0  0  0  0
  -16.3428   84.3257    3.8864 H   0  0  0  0  0  0  0  0  0  0  0  0
  -16.7174   85.9896    2.1319 H   0  0  0  0  0  0  0  0  0  0  0  0
  -17.5227   85.2858   -0.1088 H   0  0  0  0  0  0  0  0  0  0  0  0
  -17.9242   82.8835   -0.5837 H   0  0  0  0  0  0  0  0  0  0  0  0
  -17.5059   81.1921    1.1356 H   0  0  0  0  0  0  0  0  0  0  0  0
  1  2  2  0  0  0  0
  1  7  1  0  0  0  0
  1 23  1  0  0  0  0
  2  3  1  0  0  0  0
  2 24  1  0  0  0  0
  3  4  1  0  0  0  0
  3  5  2  0  0  0  0
  4 25  1  0  0  0  0
  5  6  1  0  0  0  0
  5 26  1  0  0  0  0
  6  7  2  0  0  0  0
  6 27  1  0  0  0  0
  7  8  1  0  0  0  0
  8  9  1  0  0  0  0
  8 10  1  0  0  0  0
  8 28  1  1  0  0  0
  9 13  2  0  0  0  0
  9 16  1  0  0  0  0
 10 11  1  0  0  0  0
 10 29  1  0  0  0  0
 11 12  2  0  0  0  0
 11 13  1  0  0  0  0
 13 14  1  0  0  0  0
 14 15  1  0  0  0  0
 15 16  2  0  0  0  0
 15 30  1  0  0  0  0
 16 17  1  0  0  0  0
 17 18  2  0  0  0  0
 17 22  1  0  0  0  0
 18 19  1  0  0  0  0
 18 31  1  0  0  0  0
 19 20  2  0  0  0  0
 19 32  1  0  0  0  0
 20 21  1  0  0  0  0
 20 33  1  0  0  0  0
 21 22  2  0  0  0  0
 21 34  1  0  0  0  0
 22 35  1  0  0  0  0
M  CHG  1  15   1
M  END
$$$$
