3AK
 OpenBabel04111919573D

 29 31  0  0  0  0  0  0  0  0999 V2000
   -1.0163  -27.8615   50.6876 O   0  0  0  0  0  0  0  0  0  0  0  0
    0.1255  -27.8450   50.2295 C   0  0  0  0  0  0  0  0  0  0  0  0
    0.5088  -28.6733   49.0072 C   0  0  0  0  0  0  0  0  0  0  0  0
   -0.2815  -29.3731   48.4112 O   0  0  0  0  0  0  0  0  0  0  0  0
    1.9331  -28.3804   48.8142 C   0  0  0  0  0  0  0  0  0  0  0  0
    1.2301  -27.1360   50.6278 N   0  0  0  0  0  0  0  0  0  0  0  0
    2.3253  -27.4629   49.8025 C   0  0  0  0  0  0  0  0  0  0  0  0
    3.6172  -26.9914   49.8852 C   0  0  0  0  0  0  0  0  0  0  0  0
    4.5270  -27.4745   48.9405 C   0  0  0  0  0  0  0  0  0  0  0  0
    4.1395  -28.3949   47.9444 C   0  0  0  0  0  0  0  0  0  0  0  0
    2.8248  -28.8624   47.8643 C   0  0  0  0  0  0  0  0  0  0  0  0
    1.2081  -26.2349   51.7608 C   0  0  0  0  0  0  0  0  0  0  0  0
   -0.1492  -25.5863   51.9622 C   0  0  0  0  0  0  0  0  0  0  0  0
   -0.8105  -25.7300   53.1876 C   0  0  0  0  0  0  0  0  0  0  0  0
   -2.0813  -25.1916   53.3648 C   0  0  0  0  0  0  0  0  0  0  0  0
   -2.7103  -24.5219   52.3165 C   0  0  0  0  0  0  0  0  0  0  0  0
   -2.0748  -24.3951   51.0838 C   0  0  0  0  0  0  0  0  0  0  0  0
   -0.7939  -24.9160   50.9079 C   0  0  0  0  0  0  0  0  0  0  0  0
    3.9402  -26.2743   50.6346 H   0  0  0  0  0  0  0  0  0  0  0  0
    5.5607  -27.1315   48.9749 H   0  0  0  0  0  0  0  0  0  0  0  0
    4.8844  -28.7446   47.2247 H   0  0  0  0  0  0  0  0  0  0  0  0
    2.5311  -29.5662   47.0955 H   0  0  0  0  0  0  0  0  0  0  0  0
    1.9392  -25.4360   51.6234 H   0  0  0  0  0  0  0  0  0  0  0  0
    1.4757  -26.8016   52.6642 H   0  0  0  0  0  0  0  0  0  0  0  0
   -0.3372  -26.2703   54.0028 H   0  0  0  0  0  0  0  0  0  0  0  0
   -2.5800  -25.2931   54.3237 H   0  0  0  0  0  0  0  0  0  0  0  0
   -3.6990  -24.0994   52.4635 H   0  0  0  0  0  0  0  0  0  0  0  0
   -2.5746  -23.8860   50.2654 H   0  0  0  0  0  0  0  0  0  0  0  0
   -0.3144  -24.8387   49.9352 H   0  0  0  0  0  0  0  0  0  0  0  0
  1  2  2  0  0  0  0
  2  3  1  0  0  0  0
  2  6  1  0  0  0  0
  3  4  2  0  0  0  0
  3  5  1  0  0  0  0
  5  7  2  0  0  0  0
  5 11  1  0  0  0  0
  6  7  1  0  0  0  0
  6 12  1  0  0  0  0
  7  8  1  0  0  0  0
  8  9  2  0  0  0  0
  8 19  1  0  0  0  0
  9 10  1  0  0  0  0
  9 20  1  0  0  0  0
 10 11  2  0  0  0  0
 10 21  1  0  0  0  0
 11 22  1  0  0  0  0
 12 13  1  0  0  0  0
 12 23  1  0  0  0  0
 12 24  1  0  0  0  0
 13 14  2  0  0  0  0
 13 18  1  0  0  0  0
 14 15  1  0  0  0  0
 14 25  1  0  0  0  0
 15 16  2  0  0  0  0
 15 26  1  0  0  0  0
 16 17  1  0  0  0  0
 16 27  1  0  0  0  0
 17 18  2  0  0  0  0
 17 28  1  0  0  0  0
 18 29  1  0  0  0  0
M  END
$$$$
