3C5
 OpenBabel04111921583D

 30 31  0  0  0  0  0  0  0  0999 V2000
   -0.2295  124.2802  -12.0653 C   0  0  0  0  0  0  0  0  0  0  0  0
   -4.3716  129.9639  -13.8837 C   0  0  0  0  0  0  0  0  0  0  0  0
   -3.6573  129.2295  -12.8103 N   0  3  0  0  0  0  0  0  0  0  0  0
   -2.3429  128.6682  -13.2384 C   0  0  0  0  0  0  0  0  0  0  0  0
   -1.7232  127.7835  -12.1962 C   0  0  0  0  0  0  0  0  0  0  0  0
   -1.2763  126.5012  -12.5627 C   0  0  0  0  0  0  0  0  0  0  0  0
   -0.6669  125.6249  -11.6453 C   0  0  0  0  0  0  0  0  0  0  0  0
   -0.4973  126.0857  -10.3311 C   0  0  0  0  0  0  0  0  0  0  0  0
   -0.9223  127.3635   -9.9499 C   0  0  0  0  0  0  0  0  0  0  0  0
   -1.5283  128.2093  -10.8774 C   0  0  0  0  0  0  0  0  0  0  0  0
    0.9638  123.7054  -11.6227 C   0  0  0  0  0  0  0  0  0  0  0  0
    1.4145  122.4789  -11.9820 N   0  0  0  0  0  0  0  0  0  0  0  0
    0.6453  121.7704  -12.8322 C   0  0  0  0  0  0  0  0  0  0  0  0
   -0.5533  122.2342  -13.3402 C   0  0  0  0  0  0  0  0  0  0  0  0
   -0.9910  123.4978  -12.9477 C   0  0  0  0  0  0  0  0  0  0  0  0
   -5.3005  130.3487  -13.4583 H   0  0  0  0  0  0  0  0  0  0  0  0
   -4.5812  129.2648  -14.6968 H   0  0  0  0  0  0  0  0  0  0  0  0
   -3.7328  130.7838  -14.2206 H   0  0  0  0  0  0  0  0  0  0  0  0
   -3.5112  129.8535  -12.0083 H   0  0  0  0  0  0  0  0  0  0  0  0
   -1.6810  129.5094  -13.4721 H   0  0  0  0  0  0  0  0  0  0  0  0
   -2.5381  128.1037  -14.1564 H   0  0  0  0  0  0  0  0  0  0  0  0
   -1.3804  126.1763  -13.6004 H   0  0  0  0  0  0  0  0  0  0  0  0
   -0.0334  125.4504   -9.5769 H   0  0  0  0  0  0  0  0  0  0  0  0
   -0.7674  127.6910   -8.9242 H   0  0  0  0  0  0  0  0  0  0  0  0
   -1.8232  129.2007  -10.5438 H   0  0  0  0  0  0  0  0  0  0  0  0
    1.6329  124.2338  -10.9476 H   0  0  0  0  0  0  0  0  0  0  0  0
    1.0270  120.7893  -13.1004 H   0  0  0  0  0  0  0  0  0  0  0  0
   -1.1381  121.6244  -14.0202 H   0  0  0  0  0  0  0  0  0  0  0  0
   -1.9422  123.8555  -13.3320 H   0  0  0  0  0  0  0  0  0  0  0  0
   -4.2433  128.4583  -12.4624 H   0  0  0  0  0  0  0  0  0  0  0  0
  1  7  1  0  0  0  0
  1 11  2  0  0  0  0
  1 15  1  0  0  0  0
  2  3  1  0  0  0  0
  2 16  1  0  0  0  0
  2 17  1  0  0  0  0
  2 18  1  0  0  0  0
  3  4  1  0  0  0  0
  3 19  1  0  0  0  0
  3 30  1  0  0  0  0
  4  5  1  0  0  0  0
  4 20  1  0  0  0  0
  4 21  1  0  0  0  0
  5  6  2  0  0  0  0
  5 10  1  0  0  0  0
  6  7  1  0  0  0  0
  6 22  1  0  0  0  0
  7  8  2  0  0  0  0
  8  9  1  0  0  0  0
  8 23  1  0  0  0  0
  9 10  2  0  0  0  0
  9 24  1  0  0  0  0
 10 25  1  0  0  0  0
 11 12  1  0  0  0  0
 11 26  1  0  0  0  0
 12 13  2  0  0  0  0
 13 14  1  0  0  0  0
 13 27  1  0  0  0  0
 14 15  2  0  0  0  0
 14 28  1  0  0  0  0
 15 29  1  0  0  0  0
M  CHG  1   3   1
M  END
$$$$
