3D4
 OpenBabel04111921593D

 93 95  0  0  1  0  0  0  0  0999 V2000
    2.7272   37.3593    9.0948 N   0  3  0  0  0  0  0  0  0  0  0  0
    2.3985   36.4539    7.9256 C   0  0  2  0  0  0  0  0  0  0  0  0
    3.2887   28.7294   10.6025 C   0  0  0  0  0  0  0  0  0  0  0  0
   -4.3115   24.8570    7.5585 C   0  0  0  0  0  0  0  0  0  0  0  0
   -3.5681   25.2305    6.4488 C   0  0  0  0  0  0  0  0  0  0  0  0
   -3.7170   24.8129    8.8178 C   0  0  0  0  0  0  0  0  0  0  0  0
   -0.0818   30.2383   12.9056 C   0  0  0  0  0  0  0  0  0  0  0  0
   -1.3071   29.8444   12.4159 C   0  0  0  0  0  0  0  0  0  0  0  0
   -2.2311   25.5596    6.6094 C   0  0  0  0  0  0  0  0  0  0  0  0
   -2.3692   25.1408    8.9682 C   0  0  0  0  0  0  0  0  0  0  0  0
    0.3907   31.4878   12.5451 C   0  0  0  0  0  0  0  0  0  0  0  0
    0.0386   35.5202    9.8020 C   0  0  0  0  0  0  0  0  0  0  0  0
    1.6360   35.5186   11.6096 C   0  0  0  0  0  0  0  0  0  0  0  0
   -0.4214   34.2721   10.1902 C   0  0  0  0  0  0  0  0  0  0  0  0
    1.1562   34.2775   12.0047 C   0  0  0  0  0  0  0  0  0  0  0  0
   -1.5787   31.8207   11.2729 C   0  0  0  0  0  0  0  0  0  0  0  0
    2.4833   32.5685    7.6896 C   0  0  0  0  0  0  0  0  0  0  0  0
    2.8576   35.0132    8.1527 C   0  0  0  0  0  0  0  0  0  0  0  0
    3.8399   34.8171    8.9159 O   0  0  0  0  0  0  0  0  0  0  0  0
    2.1346   25.9248    5.1299 N   0  0  0  0  0  0  0  0  0  0  0  0
    0.3487   24.6267    5.5413 O   0  0  0  0  0  0  0  0  0  0  0  0
    0.1284   32.1239    7.5465 O   0  0  0  0  0  0  0  0  0  0  0  0
    0.5690   28.3318    9.2471 O   0  0  0  0  0  0  0  0  0  0  0  0
    4.5189   30.3594    9.5290 O   0  0  0  0  0  0  0  0  0  0  0  0
    2.9071   37.0305    6.6109 C   0  0  0  0  0  0  0  0  0  0  0  0
    1.5969   37.4833   10.0693 C   0  0  0  0  0  0  0  0  0  0  0  0
   -0.1377   25.8579    8.0269 C   0  0  0  0  0  0  0  0  0  0  0  0
    0.9756   25.6786    5.7874 C   0  0  0  0  0  0  0  0  0  0  0  0
    1.2657   31.6439    7.7944 C   0  0  0  0  0  0  0  0  0  0  0  0
    1.7707   28.0734    8.5397 C   0  0  2  0  0  0  0  0  0  0  0  0
    1.0691   36.1570   10.5113 C   0  0  0  0  0  0  0  0  0  0  0  0
   -1.6058   25.5219    7.8633 C   0  0  0  0  0  0  0  0  0  0  0  0
    0.1225   33.6334   11.3050 C   0  0  0  0  0  0  0  0  0  0  0  0
   -0.3615   32.3221   11.7118 C   0  0  0  0  0  0  0  0  0  0  0  0
    3.1905   29.9109    9.7016 C   0  0  1  0  0  0  0  0  0  0  0  0
    0.4260   26.6508    6.8431 C   0  0  2  0  0  0  0  0  0  0  0  0
    2.4763   29.4648    8.4175 C   0  0  2  0  0  0  0  0  0  0  0  0
   -2.0650   30.6027   11.5928 N   0  0  0  0  0  0  0  0  0  0  0  0
    2.1730   34.0210    7.5293 N   0  0  0  0  0  0  0  0  0  0  0  0
    1.3236   30.3436    8.0662 N   0  0  0  0  0  0  0  0  0  0  0  0
    1.4940   27.6444    7.1692 N   0  3  0  0  0  0  0  0  0  0  0  0
    2.1413   38.2987    6.2253 C   0  0  0  0  0  0  0  0  0  0  0  0
    1.2806   38.0925    4.9820 C   0  0  0  0  0  0  0  0  0  0  0  0
    0.8651   39.4181    4.3752 C   0  0  0  0  0  0  0  0  0  0  0  0
   -0.3607   39.2046    3.5910 N   0  3  0  0  0  0  0  0  0  0  0  0
    3.5381   36.9429    9.5963 H   0  0  0  0  0  0  0  0  0  0  0  0
    1.3171   36.4685    7.8637 H   0  0  0  0  0  0  0  0  0  0  0  0
    2.3013   28.3219   10.7832 H   0  0  0  0  0  0  0  0  0  0  0  0
    3.6954   29.0327   11.5496 H   0  0  0  0  0  0  0  0  0  0  0  0
    3.9134   27.9778   10.1093 H   0  0  0  0  0  0  0  0  0  0  0  0
   -5.3574   24.5973    7.4436 H   0  0  0  0  0  0  0  0  0  0  0  0
   -4.0266   25.2612    5.4642 H   0  0  0  0  0  0  0  0  0  0  0  0
   -4.3100   24.5178    9.6799 H   0  0  0  0  0  0  0  0  0  0  0  0
    0.4846   29.5877   13.5703 H   0  0  0  0  0  0  0  0  0  0  0  0
   -1.7139   28.8693   12.6673 H   0  0  0  0  0  0  0  0  0  0  0  0
   -1.6821   25.8425    5.7199 H   0  0  0  0  0  0  0  0  0  0  0  0
   -1.9228   25.1021    9.9568 H   0  0  0  0  0  0  0  0  0  0  0  0
    1.3564   31.8124   12.9148 H   0  0  0  0  0  0  0  0  0  0  0  0
   -0.4182   35.9961    8.9386 H   0  0  0  0  0  0  0  0  0  0  0  0
    2.4374   35.9945   12.1740 H   0  0  0  0  0  0  0  0  0  0  0  0
   -1.2138   33.7935    9.6101 H   0  0  0  0  0  0  0  0  0  0  0  0
    1.5962   33.8047   12.8823 H   0  0  0  0  0  0  0  0  0  0  0  0
   -2.2194   32.4007   10.6071 H   0  0  0  0  0  0  0  0  0  0  0  0
    3.0699   32.2722    6.8118 H   0  0  0  0  0  0  0  0  0  0  0  0
    3.0742   32.4608    8.5983 H   0  0  0  0  0  0  0  0  0  0  0  0
    2.7292   26.7368    5.2092 H   0  0  0  0  0  0  0  0  0  0  0  0
    2.4818   25.2543    4.4300 H   0  0  0  0  0  0  0  0  0  0  0  0
    0.7839   28.6353   10.1476 H   0  0  0  0  0  0  0  0  0  0  0  0
    4.5827   31.1612    8.9897 H   0  0  0  0  0  0  0  0  0  0  0  0
    2.7684   36.2656    5.8375 H   0  0  0  0  0  0  0  0  0  0  0  0
    3.9787   37.2573    6.6735 H   0  0  0  0  0  0  0  0  0  0  0  0
    0.8145   38.0598    9.5621 H   0  0  0  0  0  0  0  0  0  0  0  0
    1.9613   38.0613   10.9236 H   0  0  0  0  0  0  0  0  0  0  0  0
    0.4302   24.9297    8.1378 H   0  0  0  0  0  0  0  0  0  0  0  0
   -0.0421   26.4112    8.9513 H   0  0  0  0  0  0  0  0  0  0  0  0
    2.3656   27.2903    9.0088 H   0  0  0  0  0  0  0  0  0  0  0  0
    2.5913   30.6620   10.2223 H   0  0  0  0  0  0  0  0  0  0  0  0
   -0.3802   27.2609    6.4057 H   0  0  0  0  0  0  0  0  0  0  0  0
    3.1832   29.4638    7.5889 H   0  0  0  0  0  0  0  0  0  0  0  0
    1.3609   34.2294    6.9457 H   0  0  0  0  0  0  0  0  0  0  0  0
    0.4122   29.8480    8.1878 H   0  0  0  0  0  0  0  0  0  0  0  0
    1.2707   28.4814    6.6180 H   0  0  0  0  0  0  0  0  0  0  0  0
    2.8577   39.1043    6.0402 H   0  0  0  0  0  0  0  0  0  0  0  0
    1.4875   38.5970    7.0528 H   0  0  0  0  0  0  0  0  0  0  0  0
    0.3962   37.5072    5.2632 H   0  0  0  0  0  0  0  0  0  0  0  0
    1.8536   37.5284    4.2382 H   0  0  0  0  0  0  0  0  0  0  0  0
    1.6241   39.7967    3.6906 H   0  0  0  0  0  0  0  0  0  0  0  0
    0.6301   40.1574    5.1399 H   0  0  0  0  0  0  0  0  0  0  0  0
   -0.6804   40.0846    3.1541 H   0  0  0  0  0  0  0  0  0  0  0  0
   -0.2085   38.5233    2.8323 H   0  0  0  0  0  0  0  0  0  0  0  0
    3.0176   38.2892    8.7778 H   0  0  0  0  0  0  0  0  0  0  0  0
    2.3604   27.2470    6.8183 H   0  0  0  0  0  0  0  0  0  0  0  0
   -1.1309   38.8590    4.1816 H   0  0  0  0  0  0  0  0  0  0  0  0
  1  2  1  0  0  0  0
  1 26  1  0  0  0  0
  1 46  1  0  0  0  0
  1 91  1  0  0  0  0
  2 18  1  0  0  0  0
  2 25  1  0  0  0  0
  2 47  1  6  0  0  0
  3 35  1  0  0  0  0
  3 48  1  0  0  0  0
  3 49  1  0  0  0  0
  3 50  1  0  0  0  0
  4  5  2  0  0  0  0
  4  6  1  0  0  0  0
  4 51  1  0  0  0  0
  5  9  1  0  0  0  0
  5 52  1  0  0  0  0
  6 10  2  0  0  0  0
  6 53  1  0  0  0  0
  7  8  2  0  0  0  0
  7 11  1  0  0  0  0
  7 54  1  0  0  0  0
  8 38  1  0  0  0  0
  8 55  1  0  0  0  0
  9 32  2  0  0  0  0
  9 56  1  0  0  0  0
 10 32  1  0  0  0  0
 10 57  1  0  0  0  0
 11 34  2  0  0  0  0
 11 58  1  0  0  0  0
 12 14  2  0  0  0  0
 12 31  1  0  0  0  0
 12 59  1  0  0  0  0
 13 15  1  0  0  0  0
 13 31  2  0  0  0  0
 13 60  1  0  0  0  0
 14 33  1  0  0  0  0
 14 61  1  0  0  0  0
 15 33  2  0  0  0  0
 15 62  1  0  0  0  0
 16 34  1  0  0  0  0
 16 38  2  0  0  0  0
 16 63  1  0  0  0  0
 17 29  1  0  0  0  0
 17 39  1  0  0  0  0
 17 64  1  0  0  0  0
 17 65  1  0  0  0  0
 18 19  2  0  0  0  0
 18 39  1  0  0  0  0
 20 28  1  0  0  0  0
 20 66  1  0  0  0  0
 20 67  1  0  0  0  0
 21 28  2  0  0  0  0
 22 29  2  0  0  0  0
 23 30  1  0  0  0  0
 23 68  1  0  0  0  0
 24 35  1  0  0  0  0
 24 69  1  0  0  0  0
 25 42  1  0  0  0  0
 25 70  1  0  0  0  0
 25 71  1  0  0  0  0
 26 31  1  0  0  0  0
 26 72  1  0  0  0  0
 26 73  1  0  0  0  0
 27 32  1  0  0  0  0
 27 36  1  0  0  0  0
 27 74  1  0  0  0  0
 27 75  1  0  0  0  0
 28 36  1  0  0  0  0
 29 40  1  0  0  0  0
 30 37  1  0  0  0  0
 30 41  1  0  0  0  0
 30 76  1  1  0  0  0
 33 34  1  0  0  0  0
 35 37  1  0  0  0  0
 35 77  1  1  0  0  0
 36 41  1  0  0  0  0
 36 78  1  6  0  0  0
 37 40  1  0  0  0  0
 37 79  1  6  0  0  0
 39 80  1  0  0  0  0
 40 81  1  0  0  0  0
 41 82  1  0  0  0  0
 41 92  1  0  0  0  0
 42 43  1  0  0  0  0
 42 83  1  0  0  0  0
 42 84  1  0  0  0  0
 43 44  1  0  0  0  0
 43 85  1  0  0  0  0
 43 86  1  0  0  0  0
 44 45  1  0  0  0  0
 44 87  1  0  0  0  0
 44 88  1  0  0  0  0
 45 89  1  0  0  0  0
 45 90  1  0  0  0  0
 45 93  1  0  0  0  0
M  CHG  3   1   1  41   1  45   1
M  END
$$$$
