3D5
 OpenBabel04111921593D

 49 50  0  0  1  0  0  0  0  0999 V2000
    0.5192   31.4345   13.4318 C   0  0  0  0  0  0  0  0  0  0  0  0
    0.0944   30.1890   13.8522 C   0  0  0  0  0  0  0  0  0  0  0  0
   -1.0295   29.6862   13.2368 C   0  0  0  0  0  0  0  0  0  0  0  0
   -1.7225   30.3217   12.2491 N   0  0  0  0  0  0  0  0  0  0  0  0
   -1.2607   31.5352   11.8515 C   0  0  0  0  0  0  0  0  0  0  0  0
   -0.1439   32.1178   12.4119 C   0  0  0  0  0  0  0  0  0  0  0  0
    0.3477   33.4084   11.9867 C   0  0  0  0  0  0  0  0  0  0  0  0
   -0.1324   33.9921   10.8186 C   0  0  0  0  0  0  0  0  0  0  0  0
    0.3505   35.2170   10.4309 C   0  0  0  0  0  0  0  0  0  0  0  0
    1.3176   34.0373   12.7598 C   0  0  0  0  0  0  0  0  0  0  0  0
    1.7879   35.2657   12.3996 C   0  0  0  0  0  0  0  0  0  0  0  0
    1.2840   35.8149   11.2441 C   0  0  0  0  0  0  0  0  0  0  0  0
    1.7866   37.1397   10.8820 C   0  0  0  0  0  0  0  0  0  0  0  0
    2.7871   37.0476    9.7988 N   0  3  0  0  0  0  0  0  0  0  0  0
    3.2565   38.4479    9.5855 C   0  0  1  0  0  0  0  0  0  0  0  0
    3.8263   39.0289   10.8830 C   0  0  0  0  0  0  0  0  0  0  0  0
    3.2501   39.8704   11.5078 O   0  0  0  0  0  0  0  0  0  0  0  0
    4.8812   38.3102   11.3888 N   0  0  0  0  0  0  0  0  0  0  0  0
    4.2357   38.4868    8.4412 C   0  0  0  0  0  0  0  0  0  0  0  0
    3.5932   37.9813    7.1522 C   0  0  0  0  0  0  0  0  0  0  0  0
    2.3554   38.7870    6.7236 C   0  0  0  0  0  0  0  0  0  0  0  0
    1.8229   38.1782    5.4367 C   0  0  0  0  0  0  0  0  0  0  0  0
    0.6431   38.8919    4.9214 N   0  3  0  0  0  0  0  0  0  0  0  0
    1.3670   31.8526   13.9355 H   0  0  0  0  0  0  0  0  0  0  0  0
    0.6321   29.6710   14.6203 H   0  0  0  0  0  0  0  0  0  0  0  0
   -1.4018   28.7133   13.5584 H   0  0  0  0  0  0  0  0  0  0  0  0
   -1.8276   32.0617   11.0814 H   0  0  0  0  0  0  0  0  0  0  0  0
   -0.8522   33.4931   10.1957 H   0  0  0  0  0  0  0  0  0  0  0  0
   -0.0210   35.6797    9.5312 H   0  0  0  0  0  0  0  0  0  0  0  0
    1.7369   33.5904   13.6426 H   0  0  0  0  0  0  0  0  0  0  0  0
    2.5103   35.7661   13.0261 H   0  0  0  0  0  0  0  0  0  0  0  0
    2.2527   37.5703   11.7646 H   0  0  0  0  0  0  0  0  0  0  0  0
    0.9555   37.7514   10.5362 H   0  0  0  0  0  0  0  0  0  0  0  0
    3.5596   36.4239   10.0831 H   0  0  0  0  0  0  0  0  0  0  0  0
    2.3643   39.0189    9.3344 H   0  0  0  0  0  0  0  0  0  0  0  0
    5.3183   38.6292   12.2481 H   0  0  0  0  0  0  0  0  0  0  0  0
    5.3209   37.5484   10.8890 H   0  0  0  0  0  0  0  0  0  0  0  0
    5.1244   37.8828    8.6789 H   0  0  0  0  0  0  0  0  0  0  0  0
    4.5670   39.5216    8.3122 H   0  0  0  0  0  0  0  0  0  0  0  0
    3.3030   36.9314    7.2834 H   0  0  0  0  0  0  0  0  0  0  0  0
    4.3365   38.0095    6.3480 H   0  0  0  0  0  0  0  0  0  0  0  0
    2.6361   39.8375    6.5789 H   0  0  0  0  0  0  0  0  0  0  0  0
    1.5855   38.7462    7.5031 H   0  0  0  0  0  0  0  0  0  0  0  0
    1.5145   37.1460    5.6128 H   0  0  0  0  0  0  0  0  0  0  0  0
    2.5841   38.2213    4.6588 H   0  0  0  0  0  0  0  0  0  0  0  0
    0.3036   38.4578    4.0471 H   0  0  0  0  0  0  0  0  0  0  0  0
   -0.1481   38.8771    5.5834 H   0  0  0  0  0  0  0  0  0  0  0  0
    2.3618   36.6242    8.9712 H   0  0  0  0  0  0  0  0  0  0  0  0
    0.8502   39.8751    4.7000 H   0  0  0  0  0  0  0  0  0  0  0  0
  1  2  2  0  0  0  0
  1  6  1  0  0  0  0
  1 24  1  0  0  0  0
  2  3  1  0  0  0  0
  2 25  1  0  0  0  0
  3  4  2  0  0  0  0
  3 26  1  0  0  0  0
  4  5  1  0  0  0  0
  5  6  2  0  0  0  0
  5 27  1  0  0  0  0
  6  7  1  0  0  0  0
  7  8  2  0  0  0  0
  7 10  1  0  0  0  0
  8  9  1  0  0  0  0
  8 28  1  0  0  0  0
  9 12  2  0  0  0  0
  9 29  1  0  0  0  0
 10 11  2  0  0  0  0
 10 30  1  0  0  0  0
 11 12  1  0  0  0  0
 11 31  1  0  0  0  0
 12 13  1  0  0  0  0
 13 14  1  0  0  0  0
 13 32  1  0  0  0  0
 13 33  1  0  0  0  0
 14 15  1  0  0  0  0
 14 34  1  0  0  0  0
 14 48  1  0  0  0  0
 15 16  1  0  0  0  0
 15 19  1  0  0  0  0
 15 35  1  6  0  0  0
 16 17  2  0  0  0  0
 16 18  1  0  0  0  0
 18 36  1  0  0  0  0
 18 37  1  0  0  0  0
 19 20  1  0  0  0  0
 19 38  1  0  0  0  0
 19 39  1  0  0  0  0
 20 21  1  0  0  0  0
 20 40  1  0  0  0  0
 20 41  1  0  0  0  0
 21 22  1  0  0  0  0
 21 42  1  0  0  0  0
 21 43  1  0  0  0  0
 22 23  1  0  0  0  0
 22 44  1  0  0  0  0
 22 45  1  0  0  0  0
 23 46  1  0  0  0  0
 23 47  1  0  0  0  0
 23 49  1  0  0  0  0
M  CHG  2  14   1  23   1
M  END
$$$$
