3D8
 OpenBabel04111921583D

 25 27  0  0  0  0  0  0  0  0999 V2000
   25.2062   22.6018   -9.2500 C   0  0  0  0  0  0  0  0  0  0  0  0
   26.4093   21.5448  -10.9059 C   0  0  0  0  0  0  0  0  0  0  0  0
   25.9037   27.4154   -4.5237 C   0  0  0  0  0  0  0  0  0  0  0  0
   26.9542   25.4108   -7.4431 C   0  0  0  0  0  0  0  0  0  0  0  0
   26.6585   26.2629   -6.3138 C   0  0  0  0  0  0  0  0  0  0  0  0
   25.6155   26.3417   -5.4084 C   0  0  0  0  0  0  0  0  0  0  0  0
   27.1141   27.9452   -4.9117 C   0  0  0  0  0  0  0  0  0  0  0  0
   26.2563   23.4553   -8.8882 C   0  0  0  0  0  0  0  0  0  0  0  0
   27.5179   22.3253  -10.6426 C   0  0  0  0  0  0  0  0  0  0  0  0
   27.4264   23.2856   -9.6311 C   0  0  0  0  0  0  0  0  0  0  0  0
   25.2510   21.6608  -10.2322 N   0  0  0  0  0  0  0  0  0  0  0  0
   26.0910   24.4059   -7.8556 N   0  0  0  0  0  0  0  0  0  0  0  0
   27.5617   27.2398   -5.9956 N   0  3  0  0  0  0  0  0  0  0  0  0
   28.7079   27.4694   -6.6490 N   0  0  0  0  0  0  0  0  0  0  0  0
   28.8994   26.6655   -7.6439 C   0  0  0  0  0  0  0  0  0  0  0  0
   28.0747   25.6553   -8.0555 N   0  0  0  0  0  0  0  0  0  0  0  0
   24.2455   22.6429   -8.7445 H   0  0  0  0  0  0  0  0  0  0  0  0
   26.4354   20.7896  -11.6886 H   0  0  0  0  0  0  0  0  0  0  0  0
   25.3007   27.7673   -3.6953 H   0  0  0  0  0  0  0  0  0  0  0  0
   24.7369   25.7126   -5.3706 H   0  0  0  0  0  0  0  0  0  0  0  0
   27.6983   28.7648   -4.5163 H   0  0  0  0  0  0  0  0  0  0  0  0
   28.4383   22.1969  -11.2019 H   0  0  0  0  0  0  0  0  0  0  0  0
   28.3103   23.8855   -9.4477 H   0  0  0  0  0  0  0  0  0  0  0  0
   25.2078   24.3466   -7.3656 H   0  0  0  0  0  0  0  0  0  0  0  0
   29.8189   26.7930   -8.2402 H   0  0  0  0  0  0  0  0  0  0  0  0
  1  8  2  0  0  0  0
  1 11  1  0  0  0  0
  1 17  1  0  0  0  0
  2  9  1  0  0  0  0
  2 11  2  0  0  0  0
  2 18  1  0  0  0  0
  3  6  2  0  0  0  0
  3  7  1  0  0  0  0
  3 19  1  0  0  0  0
  4  5  2  0  0  0  0
  4 12  1  0  0  0  0
  4 16  1  0  0  0  0
  5  6  1  0  0  0  0
  5 13  1  0  0  0  0
  6 20  1  0  0  0  0
  7 13  2  0  0  0  0
  7 21  1  0  0  0  0
  8 10  1  0  0  0  0
  8 12  1  0  0  0  0
  9 10  2  0  0  0  0
  9 22  1  0  0  0  0
 10 23  1  0  0  0  0
 12 24  1  0  0  0  0
 13 14  1  0  0  0  0
 14 15  1  0  0  0  0
 15 16  2  0  0  0  0
 15 25  1  0  0  0  0
M  CHG  1  13   1
M  END
$$$$
