3DQ
 OpenBabel04111917593D

 39 40  0  0  1  0  0  0  0  0999 V2000
  -52.1431  -29.4228   -7.6809 C   0  0  0  0  0  0  0  0  0  0  0  0
  -51.2543  -28.9399   -6.6695 O   0  0  0  0  0  0  0  0  0  0  0  0
  -49.9299  -29.2560   -6.8131 C   0  0  0  0  0  0  0  0  0  0  0  0
  -49.3751  -29.8867   -7.9155 C   0  0  0  0  0  0  0  0  0  0  0  0
  -48.0079  -30.1676   -7.9871 C   0  0  0  0  0  0  0  0  0  0  0  0
  -49.0746  -28.8969   -5.7573 C   0  0  0  0  0  0  0  0  0  0  0  0
  -47.7076  -29.1873   -5.8162 C   0  0  0  0  0  0  0  0  0  0  0  0
  -47.1625  -29.8349   -6.9307 C   0  0  0  0  0  0  0  0  0  0  0  0
  -45.6853  -30.1197   -6.9972 C   0  0  0  0  0  0  0  0  0  0  0  0
  -44.8525  -28.8343   -7.1295 C   0  0  2  0  0  0  0  0  0  0  0  0
  -45.1997  -28.1364   -8.4617 C   0  0  0  0  0  0  0  0  0  0  0  0
  -45.9860  -27.1825   -8.5371 O   0  0  0  0  0  0  0  0  0  0  0  0
  -44.6392  -28.7915   -9.7482 C   0  0  1  0  0  0  0  0  0  0  0  0
  -44.8611  -28.0007  -10.9242 O   0  0  0  0  0  0  0  0  0  0  0  0
  -43.1319  -29.0028   -9.5616 C   0  0  2  0  0  0  0  0  0  0  0  0
  -42.5992  -29.7116  -10.6937 O   0  0  0  0  0  0  0  0  0  0  0  0
  -42.8382  -29.8211   -8.2997 C   0  0  0  0  0  0  0  0  0  0  0  0
  -43.3281  -29.0715   -7.0537 C   0  0  2  0  0  0  0  0  0  0  0  0
  -42.9659  -29.8725   -5.7296 C   0  0  0  0  0  0  0  0  0  0  0  0
  -42.8281  -31.1103   -5.8552 O   0  0  0  0  0  0  0  0  0  0  0  0
  -42.9337  -29.1410   -4.6862 O   0  0  0  0  0  0  0  0  0  0  0  0
  -42.6587  -27.7761   -7.0524 O   0  0  0  0  0  0  0  0  0  0  0  0
  -53.1613  -29.0983   -7.4392 H   0  0  0  0  0  0  0  0  0  0  0  0
  -52.1414  -30.5181   -7.7165 H   0  0  0  0  0  0  0  0  0  0  0  0
  -51.8923  -29.0144   -8.6662 H   0  0  0  0  0  0  0  0  0  0  0  0
  -50.0045  -30.1823   -8.7527 H   0  0  0  0  0  0  0  0  0  0  0  0
  -47.6026  -30.6390   -8.8746 H   0  0  0  0  0  0  0  0  0  0  0  0
  -49.4655  -28.4009   -4.8778 H   0  0  0  0  0  0  0  0  0  0  0  0
  -47.0505  -28.8986   -4.9902 H   0  0  0  0  0  0  0  0  0  0  0  0
  -45.4979  -30.7966   -7.8377 H   0  0  0  0  0  0  0  0  0  0  0  0
  -45.4133  -30.6567   -6.0809 H   0  0  0  0  0  0  0  0  0  0  0  0
  -45.1430  -28.1404   -6.3338 H   0  0  0  0  0  0  0  0  0  0  0  0
  -45.1237  -29.7573   -9.9255 H   0  0  0  0  0  0  0  0  0  0  0  0
  -45.8308  -27.8594  -11.0051 H   0  0  0  0  0  0  0  0  0  0  0  0
  -42.6240  -28.0320   -9.4965 H   0  0  0  0  0  0  0  0  0  0  0  0
  -42.7921  -29.1540  -11.4805 H   0  0  0  0  0  0  0  0  0  0  0  0
  -41.7616  -30.0159   -8.2377 H   0  0  0  0  0  0  0  0  0  0  0  0
  -43.3273  -30.7999   -8.3825 H   0  0  0  0  0  0  0  0  0  0  0  0
  -42.9137  -27.3312   -6.2099 H   0  0  0  0  0  0  0  0  0  0  0  0
  1  2  1  0  0  0  0
  1 23  1  0  0  0  0
  1 24  1  0  0  0  0
  1 25  1  0  0  0  0
  2  3  1  0  0  0  0
  3  4  2  0  0  0  0
  3  6  1  0  0  0  0
  4  5  1  0  0  0  0
  4 26  1  0  0  0  0
  5  8  2  0  0  0  0
  5 27  1  0  0  0  0
  6  7  2  0  0  0  0
  6 28  1  0  0  0  0
  7  8  1  0  0  0  0
  7 29  1  0  0  0  0
  8  9  1  0  0  0  0
  9 10  1  0  0  0  0
  9 30  1  0  0  0  0
  9 31  1  0  0  0  0
 10 11  1  0  0  0  0
 10 18  1  0  0  0  0
 10 32  1  1  0  0  0
 11 12  2  0  0  0  0
 11 13  1  0  0  0  0
 13 14  1  0  0  0  0
 13 15  1  0  0  0  0
 13 33  1  6  0  0  0
 14 34  1  0  0  0  0
 15 16  1  0  0  0  0
 15 17  1  0  0  0  0
 15 35  1  1  0  0  0
 16 36  1  0  0  0  0
 17 18  1  0  0  0  0
 17 37  1  0  0  0  0
 17 38  1  0  0  0  0
 18 19  1  1  0  0  0
 18 22  1  0  0  0  0
 19 20  2  0  0  0  0
 19 21  1  0  0  0  0
 22 39  1  0  0  0  0
M  END
$$$$
