3E7
 OpenBabel04111921323D

 58 62  0  0  1  0  0  0  0  0999 V2000
   21.1531   32.0961   20.4744 C   0  0  0  0  0  0  0  0  0  0  0  0
   21.4392   32.8343   19.3297 C   0  0  0  0  0  0  0  0  0  0  0  0
   20.7990   32.5543   18.1280 C   0  0  0  0  0  0  0  0  0  0  0  0
   19.8752   31.5265   18.0755 C   0  0  0  0  0  0  0  0  0  0  0  0
   19.5951   30.7447   19.2031 C   0  0  0  0  0  0  0  0  0  0  0  0
   20.2176   31.0645   20.4176 C   0  0  0  0  0  0  0  0  0  0  0  0
   18.5422   29.6725   19.0765 C   0  0  2  0  0  0  0  0  0  0  0  0
   18.5722   28.5489   20.0987 C   0  0  0  0  0  0  0  0  0  0  0  0
   17.1745   28.2610   20.6079 C   0  0  0  0  0  0  0  0  0  0  0  0
   18.4085   29.1744   17.6976 N   0  0  0  0  0  0  0  0  0  0  0  0
   19.2232   28.2848   16.9567 C   0  0  0  0  0  0  0  0  0  0  0  0
   18.7122   28.1766   15.5214 C   0  0  0  0  0  0  0  0  0  0  0  0
   20.1806   27.6601   17.3681 O   0  0  0  0  0  0  0  0  0  0  0  0
   19.5404   28.1634   14.3859 C   0  0  0  0  0  0  0  0  0  0  0  0
   18.9865   28.1543   13.0742 C   0  0  0  0  0  0  0  0  0  0  0  0
   17.5976   28.1299   12.9175 C   0  0  0  0  0  0  0  0  0  0  0  0
   16.7472   28.1396   14.0345 C   0  0  0  0  0  0  0  0  0  0  0  0
   17.3226   28.1550   15.3266 C   0  0  0  0  0  0  0  0  0  0  0  0
   16.7601   28.0783   11.8045 N   0  3  0  0  0  0  0  0  0  0  0  0
   15.4371   28.1114   12.1860 C   0  0  0  0  0  0  0  0  0  0  0  0
   15.4038   28.1340   13.5776 C   0  0  0  0  0  0  0  0  0  0  0  0
   17.2473   28.1508   10.1464 S   0  0  0  0  0  0  0  0  0  0  0  0
   16.0203   28.0181    9.3862 O   0  0  0  0  0  0  0  0  0  0  0  0
   18.3128   27.1533    9.9848 O   0  0  0  0  0  0  0  0  0  0  0  0
   17.9583   29.8049    9.9758 C   0  0  0  0  0  0  0  0  0  0  0  0
   19.3639   29.8843    9.9285 C   0  0  0  0  0  0  0  0  0  0  0  0
   20.0052   31.1163    9.7804 C   0  0  0  0  0  0  0  0  0  0  0  0
   19.2490   32.2780    9.6864 C   0  0  0  0  0  0  0  0  0  0  0  0
   17.8384   32.2426    9.7413 C   0  0  0  0  0  0  0  0  0  0  0  0
   17.1703   30.9883    9.8925 C   0  0  0  0  0  0  0  0  0  0  0  0
   17.1086   33.4429    9.6422 C   0  0  0  0  0  0  0  0  0  0  0  0
   15.7057   33.4341    9.6941 C   0  0  0  0  0  0  0  0  0  0  0  0
   15.0304   32.2322    9.8508 C   0  0  0  0  0  0  0  0  0  0  0  0
   15.7422   31.0271    9.9519 C   0  0  0  0  0  0  0  0  0  0  0  0
   21.6565   32.3172   21.4106 H   0  0  0  0  0  0  0  0  0  0  0  0
   22.1635   33.6378   19.3729 H   0  0  0  0  0  0  0  0  0  0  0  0
   21.0157   33.1250   17.2330 H   0  0  0  0  0  0  0  0  0  0  0  0
   19.3761   31.3168   17.1362 H   0  0  0  0  0  0  0  0  0  0  0  0
   20.0083   30.5214   21.3340 H   0  0  0  0  0  0  0  0  0  0  0  0
   17.6075   30.2248   19.2702 H   0  0  0  0  0  0  0  0  0  0  0  0
   19.1683   28.7968   20.9739 H   0  0  0  0  0  0  0  0  0  0  0  0
   18.9695   27.6370   19.6540 H   0  0  0  0  0  0  0  0  0  0  0  0
   17.2214   27.4480   21.3355 H   0  0  0  0  0  0  0  0  0  0  0  0
   16.5259   27.9726   19.7775 H   0  0  0  0  0  0  0  0  0  0  0  0
   16.7551   29.1491   21.0993 H   0  0  0  0  0  0  0  0  0  0  0  0
   17.7343   29.7043   17.1658 H   0  0  0  0  0  0  0  0  0  0  0  0
   20.6249   28.1879   14.4953 H   0  0  0  0  0  0  0  0  0  0  0  0
   19.6301   28.1447   12.2000 H   0  0  0  0  0  0  0  0  0  0  0  0
   16.6682   28.1590   16.1929 H   0  0  0  0  0  0  0  0  0  0  0  0
   14.6253   28.0919   11.4746 H   0  0  0  0  0  0  0  0  0  0  0  0
   14.5132   28.1191   14.1813 H   0  0  0  0  0  0  0  0  0  0  0  0
   19.9665   28.9795   10.0109 H   0  0  0  0  0  0  0  0  0  0  0  0
   21.0970   31.1671    9.7305 H   0  0  0  0  0  0  0  0  0  0  0  0
   19.7687   33.2342    9.5659 H   0  0  0  0  0  0  0  0  0  0  0  0
   17.6101   34.3967    9.5173 H   0  0  0  0  0  0  0  0  0  0  0  0
   15.1580   34.3711    9.6119 H   0  0  0  0  0  0  0  0  0  0  0  0
   13.9393   32.2028    9.8925 H   0  0  0  0  0  0  0  0  0  0  0  0
   15.1630   30.1240   10.0655 H   0  0  0  0  0  0  0  0  0  0  0  0
  1  2  2  0  0  0  0
  1  6  1  0  0  0  0
  1 35  1  0  0  0  0
  2  3  1  0  0  0  0
  2 36  1  0  0  0  0
  3  4  2  0  0  0  0
  3 37  1  0  0  0  0
  4  5  1  0  0  0  0
  4 38  1  0  0  0  0
  5  6  2  0  0  0  0
  5  7  1  0  0  0  0
  6 39  1  0  0  0  0
  7  8  1  0  0  0  0
  7 10  1  0  0  0  0
  7 40  1  1  0  0  0
  8  9  1  0  0  0  0
  8 41  1  0  0  0  0
  8 42  1  0  0  0  0
  9 43  1  0  0  0  0
  9 44  1  0  0  0  0
  9 45  1  0  0  0  0
 10 11  1  0  0  0  0
 10 46  1  0  0  0  0
 11 12  1  0  0  0  0
 11 13  2  0  0  0  0
 12 14  2  0  0  0  0
 12 18  1  0  0  0  0
 14 15  1  0  0  0  0
 14 47  1  0  0  0  0
 15 16  2  0  0  0  0
 15 48  1  0  0  0  0
 16 17  1  0  0  0  0
 16 19  1  0  0  0  0
 17 18  2  0  0  0  0
 17 21  1  0  0  0  0
 18 49  1  0  0  0  0
 19 20  1  0  0  0  0
 19 22  1  0  0  0  0
 20 21  2  0  0  0  0
 20 50  1  0  0  0  0
 21 51  1  0  0  0  0
 22 23  2  0  0  0  0
 22 24  2  0  0  0  0
 22 25  1  0  0  0  0
 25 26  2  0  0  0  0
 25 30  1  0  0  0  0
 26 27  1  0  0  0  0
 26 52  1  0  0  0  0
 27 28  2  0  0  0  0
 27 53  1  0  0  0  0
 28 29  1  0  0  0  0
 28 54  1  0  0  0  0
 29 30  2  0  0  0  0
 29 31  1  0  0  0  0
 30 34  1  0  0  0  0
 31 32  2  0  0  0  0
 31 55  1  0  0  0  0
 32 33  1  0  0  0  0
 32 56  1  0  0  0  0
 33 34  2  0  0  0  0
 33 57  1  0  0  0  0
 34 58  1  0  0  0  0
M  CHG  1  19   1
M  END
$$$$
