3EB
 OpenBabel04111918093D

 22 22  0  0  0  0  0  0  0  0999 V2000
   54.8444    6.4350    4.1325 C   0  0  0  0  0  0  0  0  0  0  0  0
   53.9037    5.5943    4.1002 O   0  0  0  0  0  0  0  0  0  0  0  0
   56.2610    5.8633    4.1333 C   0  0  0  0  0  0  0  0  0  0  0  0
   54.6872    2.1719    9.2485 O   0  0  0  0  0  0  0  0  0  0  0  0
   55.3982    3.3835   11.0165 O   0  0  0  0  0  0  0  0  0  0  0  0
   56.8027    6.2321    7.1017 C   0  0  0  0  0  0  0  0  0  0  0  0
   56.7349    6.4697    8.4720 C   0  0  0  0  0  0  0  0  0  0  0  0
   56.3835    5.0058    6.5640 C   0  0  0  0  0  0  0  0  0  0  0  0
   56.2500    5.4861    9.3318 C   0  0  0  0  0  0  0  0  0  0  0  0
   55.2541    3.1888    9.7617 C   0  0  0  0  0  0  0  0  0  0  0  0
   55.8966    4.0241    7.4482 C   0  0  0  0  0  0  0  0  0  0  0  0
   55.8143    4.2450    8.8342 C   0  0  0  0  0  0  0  0  0  0  0  0
   54.7922    7.6986    4.0597 O   0  0  0  0  0  0  0  0  0  0  0  0
   56.4707    4.6935    5.0889 C   0  0  0  0  0  0  0  0  0  0  0  0
   56.9886    6.6606    4.3199 H   0  0  0  0  0  0  0  0  0  0  0  0
   56.4528    5.5168    3.1096 H   0  0  0  0  0  0  0  0  0  0  0  0
   57.1659    7.0244    6.4536 H   0  0  0  0  0  0  0  0  0  0  0  0
   57.0379    7.4335    8.8699 H   0  0  0  0  0  0  0  0  0  0  0  0
   56.1855    5.6752   10.3997 H   0  0  0  0  0  0  0  0  0  0  0  0
   55.5572    3.0640    7.0539 H   0  0  0  0  0  0  0  0  0  0  0  0
   57.4690    4.2792    4.9109 H   0  0  0  0  0  0  0  0  0  0  0  0
   55.7600    3.8949    4.8425 H   0  0  0  0  0  0  0  0  0  0  0  0
  1  2  2  0  0  0  0
  1  3  1  0  0  0  0
  1 13  1  0  0  0  0
  3 14  1  0  0  0  0
  3 15  1  0  0  0  0
  3 16  1  0  0  0  0
  4 10  2  0  0  0  0
  5 10  1  0  0  0  0
  6  7  2  0  0  0  0
  6  8  1  0  0  0  0
  6 17  1  0  0  0  0
  7  9  1  0  0  0  0
  7 18  1  0  0  0  0
  8 11  2  0  0  0  0
  8 14  1  0  0  0  0
  9 12  2  0  0  0  0
  9 19  1  0  0  0  0
 10 12  1  0  0  0  0
 11 12  1  0  0  0  0
 11 20  1  0  0  0  0
 14 21  1  0  0  0  0
 14 22  1  0  0  0  0
M  END
$$$$
