3EF
 OpenBabel04111918143D

 87 91  0  0  1  0  0  0  0  0999 V2000
   24.2764    1.5368   11.5850 O   0  0  0  0  0  0  0  0  0  0  0  0
   25.1713    4.6843   17.6189 C   0  0  0  0  0  0  0  0  0  0  0  0
   24.2327    5.2469   16.7542 C   0  0  0  0  0  0  0  0  0  0  0  0
   25.7879    3.4742   17.3030 C   0  0  0  0  0  0  0  0  0  0  0  0
   23.9138    4.6017   15.5631 C   0  0  0  0  0  0  0  0  0  0  0  0
   25.4632    2.8232   16.1214 C   0  0  0  0  0  0  0  0  0  0  0  0
   24.2071    2.6836   13.9570 C   0  0  0  0  0  0  0  0  0  0  0  0
   25.4373    2.1527   13.4408 O   0  0  0  0  0  0  0  0  0  0  0  0
   25.3245    1.5339   12.2449 C   0  0  0  0  0  0  0  0  0  0  0  0
   24.5364    3.3914   15.2408 C   0  0  0  0  0  0  0  0  0  0  0  0
   27.9309   -1.7822   11.8672 O   0  0  0  0  0  0  0  0  0  0  0  0
   26.6886   -1.5412   11.0390 P   0  0  1  0  0  0  0  0  0  0  0  0
   25.3356   -1.9230   11.6118 O   0  0  0  0  0  0  0  0  0  0  0  0
   26.6408    0.2558   10.5854 C   0  0  1  0  0  0  0  0  0  0  0  0
   26.5007    1.0041   11.8526 N   0  0  0  0  0  0  0  0  0  0  0  0
   27.8764    0.7723    9.8512 C   0  0  0  0  0  0  0  0  0  0  0  0
   27.7861    2.2629    9.6296 C   0  0  0  0  0  0  0  0  0  0  0  0
   27.1249    2.7640    8.5070 C   0  0  0  0  0  0  0  0  0  0  0  0
   27.0030    4.1366    8.3393 C   0  0  0  0  0  0  0  0  0  0  0  0
   27.5350    5.0120    9.2817 C   0  0  0  0  0  0  0  0  0  0  0  0
   28.1861    4.5180   10.4082 C   0  0  0  0  0  0  0  0  0  0  0  0
   28.3134    3.1465   10.5810 C   0  0  0  0  0  0  0  0  0  0  0  0
   29.5402   -2.5620    9.2182 O   0  0  0  0  0  0  0  0  0  0  0  0
   26.9467  -11.5971   11.7620 C   0  0  0  0  0  0  0  0  0  0  0  0
   26.5947  -10.3549   12.2740 C   0  0  0  0  0  0  0  0  0  0  0  0
   27.4392  -11.7310   10.4682 C   0  0  0  0  0  0  0  0  0  0  0  0
   26.7971   -9.2156   11.4958 C   0  0  0  0  0  0  0  0  0  0  0  0
   27.6149  -10.6035    9.6874 C   0  0  0  0  0  0  0  0  0  0  0  0
   26.9278   -6.9344    9.6476 C   0  0  0  0  0  0  0  0  0  0  0  0
   27.0592   -4.6902    8.4012 C   0  0  0  0  0  0  0  0  0  0  0  0
   26.8353   -2.4020    9.4260 C   0  0  0  0  0  0  0  0  0  0  0  0
   28.1988   -8.1653    8.2372 N   0  0  0  0  0  0  0  0  0  0  0  0
   28.1021   -6.8523    7.7659 O   0  0  0  0  0  0  0  0  0  0  0  0
   29.0033   -3.6065    9.6012 C   0  0  0  0  0  0  0  0  0  0  0  0
   27.3347   -6.1274    8.6301 C   0  0  0  0  0  0  0  0  0  0  0  0
   27.3070   -9.3480   10.2080 C   0  0  0  0  0  0  0  0  0  0  0  0
   27.4945   -8.1816    9.3799 C   0  0  0  0  0  0  0  0  0  0  0  0
   27.4855   -3.7916    9.5809 C   0  0  2  0  0  0  0  0  0  0  0  0
   29.7266   -4.6940   10.0426 N   0  0  0  0  0  0  0  0  0  0  0  0
   31.1930   -4.6740    9.9326 C   0  0  2  0  0  0  0  0  0  0  0  0
   31.7591   -4.6105    8.4642 C   0  0  0  0  0  0  0  0  0  0  0  0
   33.0254   -4.5229    8.3693 O   0  0  0  0  0  0  0  0  0  0  0  0
   31.9273   -5.8862   10.5236 C   0  0  0  0  0  0  0  0  0  0  0  0
   31.1801   -6.9314   11.2857 C   0  0  0  0  0  0  0  0  0  0  0  0
   31.2442   -8.2559   10.8276 C   0  0  0  0  0  0  0  0  0  0  0  0
   30.5276   -6.6153   12.4739 C   0  0  0  0  0  0  0  0  0  0  0  0
   30.6352   -9.2639   11.5586 C   0  0  0  0  0  0  0  0  0  0  0  0
   29.9124   -7.6204   13.1960 C   0  0  0  0  0  0  0  0  0  0  0  0
   29.9792   -8.9383   12.7423 C   0  0  0  0  0  0  0  0  0  0  0  0
   29.3791   -9.9060   13.4957 O   0  0  0  0  0  0  0  0  0  0  0  0
   30.9151   -4.7458    7.5287 O   0  0  0  0  0  0  0  0  0  0  0  0
   25.4254    5.1885   18.5464 H   0  0  0  0  0  0  0  0  0  0  0  0
   23.7611    6.1919   16.9996 H   0  0  0  0  0  0  0  0  0  0  0  0
   26.5271    3.0342   17.9645 H   0  0  0  0  0  0  0  0  0  0  0  0
   23.1965    5.0453   14.8771 H   0  0  0  0  0  0  0  0  0  0  0  0
   25.9479    1.8814   15.8581 H   0  0  0  0  0  0  0  0  0  0  0  0
   23.4878    1.8855   14.1872 H   0  0  0  0  0  0  0  0  0  0  0  0
   23.7556    3.4114   13.2686 H   0  0  0  0  0  0  0  0  0  0  0  0
   25.7514    0.4195    9.9618 H   0  0  0  0  0  0  0  0  0  0  0  0
   27.2986    0.9776   12.4788 H   0  0  0  0  0  0  0  0  0  0  0  0
   27.9895    0.2962    8.8725 H   0  0  0  0  0  0  0  0  0  0  0  0
   28.7859    0.5661   10.4247 H   0  0  0  0  0  0  0  0  0  0  0  0
   26.7041    2.0747    7.7782 H   0  0  0  0  0  0  0  0  0  0  0  0
   26.4896    4.5186    7.4672 H   0  0  0  0  0  0  0  0  0  0  0  0
   27.4230    6.0792    9.1483 H   0  0  0  0  0  0  0  0  0  0  0  0
   28.5906    5.1909   11.1560 H   0  0  0  0  0  0  0  0  0  0  0  0
   28.8093    2.7516   11.4660 H   0  0  0  0  0  0  0  0  0  0  0  0
   26.7961  -12.4886   12.3838 H   0  0  0  0  0  0  0  0  0  0  0  0
   26.2518  -10.2475   13.2963 H   0  0  0  0  0  0  0  0  0  0  0  0
   27.6737  -12.7006   10.0555 H   0  0  0  0  0  0  0  0  0  0  0  0
   26.5826   -8.2443   11.9302 H   0  0  0  0  0  0  0  0  0  0  0  0
   27.9754  -10.6795    8.6641 H   0  0  0  0  0  0  0  0  0  0  0  0
   26.3139   -6.6407   10.4780 H   0  0  0  0  0  0  0  0  0  0  0  0
   25.9652   -4.6031    8.2889 H   0  0  0  0  0  0  0  0  0  0  0  0
   27.5147   -4.3405    7.4735 H   0  0  0  0  0  0  0  0  0  0  0  0
   27.4131   -1.7874    8.7310 H   0  0  0  0  0  0  0  0  0  0  0  0
   25.8298   -2.4894    8.9966 H   0  0  0  0  0  0  0  0  0  0  0  0
   27.1657   -4.2242   10.5409 H   0  0  0  0  0  0  0  0  0  0  0  0
   29.2600   -5.5578   10.2701 H   0  0  0  0  0  0  0  0  0  0  0  0
   31.5332   -3.7815   10.4761 H   0  0  0  0  0  0  0  0  0  0  0  0
   32.6966   -5.5258   11.2200 H   0  0  0  0  0  0  0  0  0  0  0  0
   32.4459   -6.4280    9.7271 H   0  0  0  0  0  0  0  0  0  0  0  0
   31.7855   -8.4824    9.9089 H   0  0  0  0  0  0  0  0  0  0  0  0
   30.5099   -5.5872   12.8273 H   0  0  0  0  0  0  0  0  0  0  0  0
   30.6720  -10.2777   11.1798 H   0  0  0  0  0  0  0  0  0  0  0  0
   29.3857   -7.3885   14.1116 H   0  0  0  0  0  0  0  0  0  0  0  0
   29.4728  -10.7435   13.0124 H   0  0  0  0  0  0  0  0  0  0  0  0
  1  9  2  0  0  0  0
  2  3  2  0  0  0  0
  2  4  1  0  0  0  0
  2 52  1  0  0  0  0
  3  5  1  0  0  0  0
  3 53  1  0  0  0  0
  4  6  2  0  0  0  0
  4 54  1  0  0  0  0
  5 10  2  0  0  0  0
  5 55  1  0  0  0  0
  6 10  1  0  0  0  0
  6 56  1  0  0  0  0
  7  8  1  0  0  0  0
  7 10  1  0  0  0  0
  7 57  1  0  0  0  0
  7 58  1  0  0  0  0
  8  9  1  0  0  0  0
  9 15  1  0  0  0  0
 12 11  2  1  0  0  0
 12 13  1  0  0  0  0
 12 14  1  0  0  0  0
 12 31  1  0  0  0  0
 14 15  1  0  0  0  0
 14 16  1  0  0  0  0
 14 59  1  6  0  0  0
 15 60  1  0  0  0  0
 16 17  1  0  0  0  0
 16 61  1  0  0  0  0
 16 62  1  0  0  0  0
 17 18  2  0  0  0  0
 17 22  1  0  0  0  0
 18 19  1  0  0  0  0
 18 63  1  0  0  0  0
 19 20  2  0  0  0  0
 19 64  1  0  0  0  0
 20 21  1  0  0  0  0
 20 65  1  0  0  0  0
 21 22  2  0  0  0  0
 21 66  1  0  0  0  0
 22 67  1  0  0  0  0
 23 34  2  0  0  0  0
 24 25  2  0  0  0  0
 24 26  1  0  0  0  0
 24 68  1  0  0  0  0
 25 27  1  0  0  0  0
 25 69  1  0  0  0  0
 26 28  2  0  0  0  0
 26 70  1  0  0  0  0
 27 36  2  0  0  0  0
 27 71  1  0  0  0  0
 28 36  1  0  0  0  0
 28 72  1  0  0  0  0
 29 35  2  0  0  0  0
 29 37  1  0  0  0  0
 29 73  1  0  0  0  0
 30 35  1  0  0  0  0
 30 38  1  0  0  0  0
 30 74  1  0  0  0  0
 30 75  1  0  0  0  0
 31 38  1  0  0  0  0
 31 76  1  0  0  0  0
 31 77  1  0  0  0  0
 32 33  1  0  0  0  0
 32 37  2  0  0  0  0
 33 35  1  0  0  0  0
 34 38  1  0  0  0  0
 34 39  1  0  0  0  0
 36 37  1  0  0  0  0
 38 78  1  1  0  0  0
 39 40  1  0  0  0  0
 39 79  1  0  0  0  0
 40 41  1  0  0  0  0
 40 43  1  0  0  0  0
 40 80  1  1  0  0  0
 41 42  2  0  0  0  0
 41 51  1  0  0  0  0
 43 44  1  0  0  0  0
 43 81  1  0  0  0  0
 43 82  1  0  0  0  0
 44 45  2  0  0  0  0
 44 46  1  0  0  0  0
 45 47  1  0  0  0  0
 45 83  1  0  0  0  0
 46 48  2  0  0  0  0
 46 84  1  0  0  0  0
 47 49  2  0  0  0  0
 47 85  1  0  0  0  0
 48 49  1  0  0  0  0
 48 86  1  0  0  0  0
 49 50  1  0  0  0  0
 50 87  1  0  0  0  0
M  END
$$$$
