3EF
 OpenBabel04111918133D

 87 91  0  0  1  0  0  0  0  0999 V2000
   14.5288   -5.2114  -15.6679 O   0  0  0  0  0  0  0  0  0  0  0  0
   13.9731    1.5352  -14.5707 C   0  0  0  0  0  0  0  0  0  0  0  0
   13.9460    0.6789  -13.4718 C   0  0  0  0  0  0  0  0  0  0  0  0
   14.2625    1.0433  -15.8395 C   0  0  0  0  0  0  0  0  0  0  0  0
   14.1997   -0.6801  -13.6421 C   0  0  0  0  0  0  0  0  0  0  0  0
   14.5255   -0.3145  -16.0108 C   0  0  0  0  0  0  0  0  0  0  0  0
   14.7574   -2.6431  -15.1128 C   0  0  0  0  0  0  0  0  0  0  0  0
   13.8639   -3.1008  -16.1379 O   0  0  0  0  0  0  0  0  0  0  0  0
   13.9200   -4.4399  -16.3605 C   0  0  0  0  0  0  0  0  0  0  0  0
   14.4886   -1.1778  -14.9136 C   0  0  0  0  0  0  0  0  0  0  0  0
   13.5530   -5.4833  -20.3494 O   0  0  0  0  0  0  0  0  0  0  0  0
   14.0832   -6.4004  -19.2700 P   0  0  1  0  0  0  0  0  0  0  0  0
   15.5108   -6.2286  -18.7954 O   0  0  0  0  0  0  0  0  0  0  0  0
   12.9949   -6.2434  -17.8033 C   0  0  1  0  0  0  0  0  0  0  0  0
   13.1155   -4.8290  -17.3853 N   0  0  0  0  0  0  0  0  0  0  0  0
   11.5274   -6.5120  -18.0829 C   0  0  0  0  0  0  0  0  0  0  0  0
   10.7216   -6.3264  -16.8300 C   0  0  0  0  0  0  0  0  0  0  0  0
   10.5092   -7.4181  -15.9903 C   0  0  0  0  0  0  0  0  0  0  0  0
    9.7821   -7.2593  -14.8059 C   0  0  0  0  0  0  0  0  0  0  0  0
    9.3042   -5.9967  -14.4600 C   0  0  0  0  0  0  0  0  0  0  0  0
    9.5400   -4.9019  -15.2790 C   0  0  0  0  0  0  0  0  0  0  0  0
   10.2448   -5.0583  -16.4698 C   0  0  0  0  0  0  0  0  0  0  0  0
   11.8887   -8.1262  -21.5863 O   0  0  0  0  0  0  0  0  0  0  0  0
   16.4367  -13.2173  -28.1525 C   0  0  0  0  0  0  0  0  0  0  0  0
   16.9259  -11.9188  -28.1742 C   0  0  0  0  0  0  0  0  0  0  0  0
   15.7713  -13.7354  -27.0315 C   0  0  0  0  0  0  0  0  0  0  0  0
   16.7503  -11.1030  -27.0537 C   0  0  0  0  0  0  0  0  0  0  0  0
   15.5963  -12.9014  -25.9184 C   0  0  0  0  0  0  0  0  0  0  0  0
   15.1357  -10.9828  -23.6943 C   0  0  0  0  0  0  0  0  0  0  0  0
   14.7329   -9.7007  -21.5261 C   0  0  0  0  0  0  0  0  0  0  0  0
   13.9310   -8.1263  -19.8025 C   0  0  0  0  0  0  0  0  0  0  0  0
   16.6696   -9.6190  -24.6301 N   0  0  0  0  0  0  0  0  0  0  0  0
   16.2825   -9.1157  -23.3955 O   0  0  0  0  0  0  0  0  0  0  0  0
   13.0113   -8.0057  -22.0643 C   0  0  0  0  0  0  0  0  0  0  0  0
   15.3620   -9.9439  -22.8395 C   0  0  0  0  0  0  0  0  0  0  0  0
   16.0844  -11.5878  -25.9389 C   0  0  0  0  0  0  0  0  0  0  0  0
   15.9534  -10.7340  -24.7980 C   0  0  0  0  0  0  0  0  0  0  0  0
   14.2845   -8.2732  -21.2824 C   0  0  2  0  0  0  0  0  0  0  0  0
   13.2302   -7.6714  -23.3653 N   0  0  0  0  0  0  0  0  0  0  0  0
   12.1124   -7.6025  -24.2948 C   0  0  2  0  0  0  0  0  0  0  0  0
   11.4998   -9.0022  -24.6127 C   0  0  0  0  0  0  0  0  0  0  0  0
   10.4731   -8.9859  -25.3720 O   0  0  0  0  0  0  0  0  0  0  0  0
   12.4855   -6.8524  -25.5713 C   0  0  0  0  0  0  0  0  0  0  0  0
   13.8365   -7.0834  -26.1582 C   0  0  0  0  0  0  0  0  0  0  0  0
   13.9624   -7.9713  -27.2249 C   0  0  0  0  0  0  0  0  0  0  0  0
   14.9404   -6.3728  -25.6765 C   0  0  0  0  0  0  0  0  0  0  0  0
   15.2118   -8.1620  -27.8072 C   0  0  0  0  0  0  0  0  0  0  0  0
   16.1908   -6.5773  -26.2632 C   0  0  0  0  0  0  0  0  0  0  0  0
   16.3125   -7.4662  -27.3145 C   0  0  0  0  0  0  0  0  0  0  0  0
   17.5478   -7.6446  -27.8805 O   0  0  0  0  0  0  0  0  0  0  0  0
   12.0778  -10.0071  -24.1084 O   0  0  0  0  0  0  0  0  0  0  0  0
   13.7669    2.5937  -14.4390 H   0  0  0  0  0  0  0  0  0  0  0  0
   13.7281    1.0605  -12.4873 H   0  0  0  0  0  0  0  0  0  0  0  0
   14.2858    1.7007  -16.6937 H   0  0  0  0  0  0  0  0  0  0  0  0
   14.1657   -1.3543  -12.7920 H   0  0  0  0  0  0  0  0  0  0  0  0
   14.7475   -0.7143  -16.9978 H   0  0  0  0  0  0  0  0  0  0  0  0
   15.8134   -2.7439  -15.4070 H   0  0  0  0  0  0  0  0  0  0  0  0
   14.5876   -3.1486  -14.1510 H   0  0  0  0  0  0  0  0  0  0  0  0
   13.3573   -6.9163  -17.0110 H   0  0  0  0  0  0  0  0  0  0  0  0
   12.6740   -4.1446  -17.9694 H   0  0  0  0  0  0  0  0  0  0  0  0
   11.3657   -7.5365  -18.4342 H   0  0  0  0  0  0  0  0  0  0  0  0
   11.1402   -5.8178  -18.8377 H   0  0  0  0  0  0  0  0  0  0  0  0
   10.9030   -8.3916  -16.2687 H   0  0  0  0  0  0  0  0  0  0  0  0
    9.6142   -8.1143  -14.1795 H   0  0  0  0  0  0  0  0  0  0  0  0
    8.7372   -5.8756  -13.5418 H   0  0  0  0  0  0  0  0  0  0  0  0
    9.1885   -3.9111  -15.0021 H   0  0  0  0  0  0  0  0  0  0  0  0
   10.4307   -4.2072  -17.1207 H   0  0  0  0  0  0  0  0  0  0  0  0
   16.5731  -13.8507  -29.0247 H   0  0  0  0  0  0  0  0  0  0  0  0
   17.4398  -11.5203  -29.0260 H   0  0  0  0  0  0  0  0  0  0  0  0
   15.3990  -14.7291  -27.0168 H   0  0  0  0  0  0  0  0  0  0  0  0
   17.1366  -10.0912  -27.0354 H   0  0  0  0  0  0  0  0  0  0  0  0
   15.0908  -13.2902  -25.0391 H   0  0  0  0  0  0  0  0  0  0  0  0
   14.4556  -11.7967  -23.5465 H   0  0  0  0  0  0  0  0  0  0  0  0
   15.4302  -10.0174  -20.7384 H   0  0  0  0  0  0  0  0  0  0  0  0
   13.8507  -10.3657  -21.4458 H   0  0  0  0  0  0  0  0  0  0  0  0
   12.9155   -8.4804  -19.6200 H   0  0  0  0  0  0  0  0  0  0  0  0
   14.6104   -8.7332  -19.1963 H   0  0  0  0  0  0  0  0  0  0  0  0
   15.0681   -7.5586  -21.5673 H   0  0  0  0  0  0  0  0  0  0  0  0
   14.1729   -7.6344  -23.7201 H   0  0  0  0  0  0  0  0  0  0  0  0
   11.3288   -6.9958  -23.8111 H   0  0  0  0  0  0  0  0  0  0  0  0
   12.4477   -5.7669  -25.3768 H   0  0  0  0  0  0  0  0  0  0  0  0
   11.7715   -7.0891  -26.3621 H   0  0  0  0  0  0  0  0  0  0  0  0
   13.0845   -8.4966  -27.5947 H   0  0  0  0  0  0  0  0  0  0  0  0
   14.8174   -5.6742  -24.8496 H   0  0  0  0  0  0  0  0  0  0  0  0
   15.3064   -8.8631  -28.6146 H   0  0  0  0  0  0  0  0  0  0  0  0
   17.0439   -6.0441  -25.8690 H   0  0  0  0  0  0  0  0  0  0  0  0
   17.4653   -8.2974  -28.5926 H   0  0  0  0  0  0  0  0  0  0  0  0
  1  9  2  0  0  0  0
  2  3  2  0  0  0  0
  2  4  1  0  0  0  0
  2 52  1  0  0  0  0
  3  5  1  0  0  0  0
  3 53  1  0  0  0  0
  4  6  2  0  0  0  0
  4 54  1  0  0  0  0
  5 10  2  0  0  0  0
  5 55  1  0  0  0  0
  6 10  1  0  0  0  0
  6 56  1  0  0  0  0
  7  8  1  0  0  0  0
  7 10  1  0  0  0  0
  7 57  1  0  0  0  0
  7 58  1  0  0  0  0
  8  9  1  0  0  0  0
  9 15  1  0  0  0  0
 12 11  2  6  0  0  0
 12 13  1  0  0  0  0
 12 14  1  0  0  0  0
 12 31  1  0  0  0  0
 14 15  1  0  0  0  0
 14 16  1  0  0  0  0
 14 59  1  1  0  0  0
 15 60  1  0  0  0  0
 16 17  1  0  0  0  0
 16 61  1  0  0  0  0
 16 62  1  0  0  0  0
 17 18  2  0  0  0  0
 17 22  1  0  0  0  0
 18 19  1  0  0  0  0
 18 63  1  0  0  0  0
 19 20  2  0  0  0  0
 19 64  1  0  0  0  0
 20 21  1  0  0  0  0
 20 65  1  0  0  0  0
 21 22  2  0  0  0  0
 21 66  1  0  0  0  0
 22 67  1  0  0  0  0
 23 34  2  0  0  0  0
 24 25  2  0  0  0  0
 24 26  1  0  0  0  0
 24 68  1  0  0  0  0
 25 27  1  0  0  0  0
 25 69  1  0  0  0  0
 26 28  2  0  0  0  0
 26 70  1  0  0  0  0
 27 36  2  0  0  0  0
 27 71  1  0  0  0  0
 28 36  1  0  0  0  0
 28 72  1  0  0  0  0
 29 35  2  0  0  0  0
 29 37  1  0  0  0  0
 29 73  1  0  0  0  0
 30 35  1  0  0  0  0
 30 38  1  0  0  0  0
 30 74  1  0  0  0  0
 30 75  1  0  0  0  0
 31 38  1  0  0  0  0
 31 76  1  0  0  0  0
 31 77  1  0  0  0  0
 32 33  1  0  0  0  0
 32 37  2  0  0  0  0
 33 35  1  0  0  0  0
 34 38  1  0  0  0  0
 34 39  1  0  0  0  0
 36 37  1  0  0  0  0
 38 78  1  6  0  0  0
 39 40  1  0  0  0  0
 39 79  1  0  0  0  0
 40 41  1  0  0  0  0
 40 43  1  0  0  0  0
 40 80  1  1  0  0  0
 41 42  2  0  0  0  0
 41 51  1  0  0  0  0
 43 44  1  0  0  0  0
 43 81  1  0  0  0  0
 43 82  1  0  0  0  0
 44 45  2  0  0  0  0
 44 46  1  0  0  0  0
 45 47  1  0  0  0  0
 45 83  1  0  0  0  0
 46 48  2  0  0  0  0
 46 84  1  0  0  0  0
 47 49  2  0  0  0  0
 47 85  1  0  0  0  0
 48 49  1  0  0  0  0
 48 86  1  0  0  0  0
 49 50  1  0  0  0  0
 50 87  1  0  0  0  0
M  END
$$$$
