3ES
 OpenBabel04111918143D

 87 91  0  0  1  0  0  0  0  0999 V2000
   25.0069   -1.3689  -44.7807 C   0  0  0  0  0  0  0  0  0  0  0  0
   24.0360   -1.3379  -44.0350 O   0  0  0  0  0  0  0  0  0  0  0  0
   25.0820   -2.2496  -45.8000 O   0  0  0  0  0  0  0  0  0  0  0  0
   24.8721   -1.6926  -47.0935 C   0  0  0  0  0  0  0  0  0  0  0  0
   24.7723   -2.8424  -48.0769 C   0  0  0  0  0  0  0  0  0  0  0  0
   25.4432   -2.7679  -49.3042 C   0  0  0  0  0  0  0  0  0  0  0  0
   25.3619   -3.8191  -50.2134 C   0  0  0  0  0  0  0  0  0  0  0  0
   24.6014   -4.9506  -49.9083 C   0  0  0  0  0  0  0  0  0  0  0  0
   23.9164   -5.0332  -48.7010 C   0  0  0  0  0  0  0  0  0  0  0  0
   23.9945   -3.9696  -47.7878 C   0  0  0  0  0  0  0  0  0  0  0  0
   25.1982    2.2436  -44.3559 O   0  0  0  0  0  0  0  0  0  0  0  0
   26.5292    1.8385  -43.7536 P   0  0  2  0  0  0  0  0  0  0  0  0
   27.8001    2.0915  -44.5322 O   0  0  0  0  0  0  0  0  0  0  0  0
   26.4662    0.0454  -43.3498 C   0  0  1  0  0  0  0  0  0  0  0  0
   26.1848   -0.7110  -44.5926 N   0  0  0  0  0  0  0  0  0  0  0  0
   27.7589   -0.4660  -42.7025 C   0  0  0  0  0  0  0  0  0  0  0  0
   27.6500   -1.9410  -42.3920 C   0  0  0  0  0  0  0  0  0  0  0  0
   26.9344   -2.3709  -41.2674 C   0  0  0  0  0  0  0  0  0  0  0  0
   26.7533   -3.7299  -41.0352 C   0  0  0  0  0  0  0  0  0  0  0  0
   27.2773   -4.6651  -41.9316 C   0  0  0  0  0  0  0  0  0  0  0  0
   27.9764   -4.2413  -43.0607 C   0  0  0  0  0  0  0  0  0  0  0  0
   28.1651   -2.8829  -43.2894 C   0  0  0  0  0  0  0  0  0  0  0  0
   26.6142    4.9205  -43.1707 C   0  0  0  0  0  0  0  0  0  0  0  0
   26.7952    6.3705  -42.8872 C   0  0  0  0  0  0  0  0  0  0  0  0
   27.2923    7.0459  -41.8089 C   0  0  0  0  0  0  0  0  0  0  0  0
   26.4675    7.2671  -43.8573 O   0  0  0  0  0  0  0  0  0  0  0  0
   26.7636    8.5535  -43.4113 N   0  0  0  0  0  0  0  0  0  0  0  0
   27.3191    8.3952  -42.1984 C   0  0  0  0  0  0  0  0  0  0  0  0
   27.8618    9.4776  -41.3990 C   0  0  0  0  0  0  0  0  0  0  0  0
   28.8291    9.1947  -40.4191 C   0  0  0  0  0  0  0  0  0  0  0  0
   29.3156   10.2034  -39.5968 C   0  0  0  0  0  0  0  0  0  0  0  0
   28.8454   11.5043  -39.7544 C   0  0  0  0  0  0  0  0  0  0  0  0
   27.8939   11.7972  -40.7339 C   0  0  0  0  0  0  0  0  0  0  0  0
   27.4034   10.7861  -41.5575 C   0  0  0  0  0  0  0  0  0  0  0  0
   26.6075    2.6335  -42.0963 C   0  0  0  0  0  0  0  0  0  0  0  0
   27.2900    4.0161  -42.1244 C   0  0  1  0  0  0  0  0  0  0  0  0
   28.7992    3.8018  -42.2960 C   0  0  0  0  0  0  0  0  0  0  0  0
   29.3360    2.7559  -41.8823 O   0  0  0  0  0  0  0  0  0  0  0  0
   29.5528    4.8587  -42.7609 N   0  0  0  0  0  0  0  0  0  0  0  0
   31.0205    4.8162  -42.6372 C   0  0  2  0  0  0  0  0  0  0  0  0
   31.5802    4.8997  -41.1766 C   0  0  0  0  0  0  0  0  0  0  0  0
   32.8214    4.6503  -41.0595 O   0  0  0  0  0  0  0  0  0  0  0  0
   31.7930    5.9234  -43.3923 C   0  0  0  0  0  0  0  0  0  0  0  0
   30.9993    7.0054  -44.0820 C   0  0  0  0  0  0  0  0  0  0  0  0
   31.0037    8.3100  -43.5741 C   0  0  0  0  0  0  0  0  0  0  0  0
   30.2758    6.7156  -45.2443 C   0  0  0  0  0  0  0  0  0  0  0  0
   30.2996    9.3192  -44.2325 C   0  0  0  0  0  0  0  0  0  0  0  0
   29.5702    7.7208  -45.8999 C   0  0  0  0  0  0  0  0  0  0  0  0
   29.5980    9.0149  -45.3940 C   0  0  0  0  0  0  0  0  0  0  0  0
   28.9210    9.9842  -46.0774 O   0  0  0  0  0  0  0  0  0  0  0  0
   30.7737    5.3105  -40.2855 O   0  0  0  0  0  0  0  0  0  0  0  0
   25.7287   -1.0565  -47.3477 H   0  0  0  0  0  0  0  0  0  0  0  0
   23.9486   -1.1053  -47.1405 H   0  0  0  0  0  0  0  0  0  0  0  0
   26.0429   -1.8904  -49.5437 H   0  0  0  0  0  0  0  0  0  0  0  0
   25.8968   -3.7579  -51.1564 H   0  0  0  0  0  0  0  0  0  0  0  0
   24.5458   -5.7724  -50.6128 H   0  0  0  0  0  0  0  0  0  0  0  0
   23.3245   -5.9090  -48.4592 H   0  0  0  0  0  0  0  0  0  0  0  0
   23.4547   -4.0387  -46.8483 H   0  0  0  0  0  0  0  0  0  0  0  0
   25.6265   -0.1012  -42.6643 H   0  0  0  0  0  0  0  0  0  0  0  0
   26.9388   -0.8020  -45.2560 H   0  0  0  0  0  0  0  0  0  0  0  0
   27.9672    0.0698  -41.7718 H   0  0  0  0  0  0  0  0  0  0  0  0
   28.6253   -0.2856  -43.3509 H   0  0  0  0  0  0  0  0  0  0  0  0
   26.4919   -1.6398  -40.5945 H   0  0  0  0  0  0  0  0  0  0  0  0
   26.1893   -4.0559  -40.1665 H   0  0  0  0  0  0  0  0  0  0  0  0
   27.1246   -5.7235  -41.7557 H   0  0  0  0  0  0  0  0  0  0  0  0
   28.3618   -4.9617  -43.7740 H   0  0  0  0  0  0  0  0  0  0  0  0
   28.6786   -2.5484  -44.1888 H   0  0  0  0  0  0  0  0  0  0  0  0
   26.9949    4.6992  -44.1705 H   0  0  0  0  0  0  0  0  0  0  0  0
   25.5320    4.7443  -43.1633 H   0  0  0  0  0  0  0  0  0  0  0  0
   27.6689    6.6138  -40.8923 H   0  0  0  0  0  0  0  0  0  0  0  0
   29.2182    8.1825  -40.2839 H   0  0  0  0  0  0  0  0  0  0  0  0
   30.0554    9.9565  -38.8387 H   0  0  0  0  0  0  0  0  0  0  0  0
   29.2265   12.2913  -39.1100 H   0  0  0  0  0  0  0  0  0  0  0  0
   27.5256   12.8103  -40.8536 H   0  0  0  0  0  0  0  0  0  0  0  0
   26.6485   11.0091  -42.3103 H   0  0  0  0  0  0  0  0  0  0  0  0
   27.1106    1.9851  -41.3713 H   0  0  0  0  0  0  0  0  0  0  0  0
   25.5812    2.7375  -41.7200 H   0  0  0  0  0  0  0  0  0  0  0  0
   27.1634    4.4381  -41.1172 H   0  0  0  0  0  0  0  0  0  0  0  0
   29.1412    5.7699  -42.8406 H   0  0  0  0  0  0  0  0  0  0  0  0
   31.3234    3.8484  -43.0574 H   0  0  0  0  0  0  0  0  0  0  0  0
   32.4163    5.4474  -44.1630 H   0  0  0  0  0  0  0  0  0  0  0  0
   32.5239    6.4229  -42.7426 H   0  0  0  0  0  0  0  0  0  0  0  0
   31.5544    8.5385  -42.6640 H   0  0  0  0  0  0  0  0  0  0  0  0
   30.2524    5.6968  -45.6296 H   0  0  0  0  0  0  0  0  0  0  0  0
   30.3049   10.3187  -43.8137 H   0  0  0  0  0  0  0  0  0  0  0  0
   28.9941    7.4865  -46.7883 H   0  0  0  0  0  0  0  0  0  0  0  0
   28.9521   10.7843  -45.5310 H   0  0  0  0  0  0  0  0  0  0  0  0
  1  2  2  0  0  0  0
  1  3  1  0  0  0  0
  1 15  1  0  0  0  0
  3  4  1  0  0  0  0
  4  5  1  0  0  0  0
  4 52  1  0  0  0  0
  4 53  1  0  0  0  0
  5  6  2  0  0  0  0
  5 10  1  0  0  0  0
  6  7  1  0  0  0  0
  6 54  1  0  0  0  0
  7  8  2  0  0  0  0
  7 55  1  0  0  0  0
  8  9  1  0  0  0  0
  8 56  1  0  0  0  0
  9 10  2  0  0  0  0
  9 57  1  0  0  0  0
 10 58  1  0  0  0  0
 12 11  2  6  0  0  0
 12 13  1  0  0  0  0
 12 14  1  0  0  0  0
 12 35  1  0  0  0  0
 14 15  1  0  0  0  0
 14 16  1  0  0  0  0
 14 59  1  1  0  0  0
 15 60  1  0  0  0  0
 16 17  1  0  0  0  0
 16 61  1  0  0  0  0
 16 62  1  0  0  0  0
 17 18  2  0  0  0  0
 17 22  1  0  0  0  0
 18 19  1  0  0  0  0
 18 63  1  0  0  0  0
 19 20  2  0  0  0  0
 19 64  1  0  0  0  0
 20 21  1  0  0  0  0
 20 65  1  0  0  0  0
 21 22  2  0  0  0  0
 21 66  1  0  0  0  0
 22 67  1  0  0  0  0
 23 24  1  0  0  0  0
 23 36  1  0  0  0  0
 23 68  1  0  0  0  0
 23 69  1  0  0  0  0
 24 25  2  0  0  0  0
 24 26  1  0  0  0  0
 25 28  1  0  0  0  0
 25 70  1  0  0  0  0
 26 27  1  0  0  0  0
 27 28  2  0  0  0  0
 28 29  1  0  0  0  0
 29 30  2  0  0  0  0
 29 34  1  0  0  0  0
 30 31  1  0  0  0  0
 30 71  1  0  0  0  0
 31 32  2  0  0  0  0
 31 72  1  0  0  0  0
 32 33  1  0  0  0  0
 32 73  1  0  0  0  0
 33 34  2  0  0  0  0
 33 74  1  0  0  0  0
 34 75  1  0  0  0  0
 35 36  1  0  0  0  0
 35 76  1  0  0  0  0
 35 77  1  0  0  0  0
 36 37  1  0  0  0  0
 36 78  1  1  0  0  0
 37 38  2  0  0  0  0
 37 39  1  0  0  0  0
 39 40  1  0  0  0  0
 39 79  1  0  0  0  0
 40 41  1  0  0  0  0
 40 43  1  0  0  0  0
 40 80  1  6  0  0  0
 41 42  2  0  0  0  0
 41 51  1  0  0  0  0
 43 44  1  0  0  0  0
 43 81  1  0  0  0  0
 43 82  1  0  0  0  0
 44 45  2  0  0  0  0
 44 46  1  0  0  0  0
 45 47  1  0  0  0  0
 45 83  1  0  0  0  0
 46 48  2  0  0  0  0
 46 84  1  0  0  0  0
 47 49  2  0  0  0  0
 47 85  1  0  0  0  0
 48 49  1  0  0  0  0
 48 86  1  0  0  0  0
 49 50  1  0  0  0  0
 50 87  1  0  0  0  0
M  END
$$$$
