3F0
 OpenBabel04111920573D

 16 16  0  0  0  0  0  0  0  0999 V2000
  -20.3263  -34.0252   18.7593 O   0  0  0  0  0  0  0  0  0  0  0  0
  -19.3342  -34.8001   18.5562 C   0  0  0  0  0  0  0  0  0  0  0  0
  -19.0532  -35.8007   19.3186 O   0  0  0  0  0  0  0  0  0  0  0  0
  -18.4519  -34.5338   17.4141 C   0  0  0  0  0  0  0  0  0  0  0  0
  -17.5951  -35.5278   16.9290 C   0  0  0  0  0  0  0  0  0  0  0  0
  -16.7808  -35.2221   15.8372 C   0  0  0  0  0  0  0  0  0  0  0  0
  -16.8276  -33.9446   15.2447 C   0  0  0  0  0  0  0  0  0  0  0  0
  -17.6816  -32.9550   15.7178 C   0  0  0  0  0  0  0  0  0  0  0  0
  -17.7573  -31.7149   15.1957 F   0  0  0  0  0  0  0  0  0  0  0  0
  -18.4839  -33.2660   16.8051 C   0  0  0  0  0  0  0  0  0  0  0  0
  -19.2972  -32.2483   17.2705 N   0  0  0  0  0  0  0  0  0  0  0  0
  -17.5772  -36.5105   17.4030 H   0  0  0  0  0  0  0  0  0  0  0  0
  -16.1112  -35.9854   15.4543 H   0  0  0  0  0  0  0  0  0  0  0  0
  -16.1775  -33.7349   14.4084 H   0  0  0  0  0  0  0  0  0  0  0  0
  -19.9183  -32.4692   18.0652 H   0  0  0  0  0  0  0  0  0  0  0  0
  -19.2940  -31.3748   16.7863 H   0  0  0  0  0  0  0  0  0  0  0  0
  1  2  2  0  0  0  0
  2  3  1  0  0  0  0
  2  4  1  0  0  0  0
  4  5  2  0  0  0  0
  4 10  1  0  0  0  0
  5  6  1  0  0  0  0
  5 12  1  0  0  0  0
  6  7  2  0  0  0  0
  6 13  1  0  0  0  0
  7  8  1  0  0  0  0
  7 14  1  0  0  0  0
  8  9  1  0  0  0  0
  8 10  2  0  0  0  0
 10 11  1  0  0  0  0
 11 15  1  0  0  0  0
 11 16  1  0  0  0  0
M  END
$$$$
