3G7
 OpenBabel04111921323D

 64 67  0  0  1  0  0  0  0  0999 V2000
   49.2667   21.7980    8.6464 N   0  0  0  0  0  0  0  0  0  0  0  0
   43.2233   25.1860    8.4932 C   0  0  0  0  0  0  0  0  0  0  0  0
   49.0104   13.7435    9.2017 N   0  0  0  0  0  0  0  0  0  0  0  0
   45.0784   24.3675    9.8253 C   0  0  0  0  0  0  0  0  0  0  0  0
   45.9180   24.3135    8.7087 C   0  0  0  0  0  0  0  0  0  0  0  0
   45.3941   24.8185    7.5062 C   0  0  0  0  0  0  0  0  0  0  0  0
   44.0597   25.2164    7.3849 C   0  0  0  0  0  0  0  0  0  0  0  0
   49.1055   22.7059    7.5268 C   0  0  0  0  0  0  0  0  0  0  0  0
   48.5402   15.9037   10.1758 C   0  0  2  0  0  0  0  0  0  0  0  0
   49.1737   17.2247   10.5422 C   0  0  0  0  0  0  0  0  0  0  0  0
   49.5491   14.9772    9.4852 C   0  0  0  0  0  0  0  0  0  0  0  0
   50.9227   12.6800    8.0231 C   0  0  0  0  0  0  0  0  0  0  0  0
   51.5000   11.5138    7.4992 C   0  0  0  0  0  0  0  0  0  0  0  0
   48.7055    8.7694    8.3089 Cl  0  0  0  0  0  0  0  0  0  0  0  0
   49.5721   10.2533    8.2101 C   0  0  0  0  0  0  0  0  0  0  0  0
   50.8276   10.3018    7.6125 C   0  0  0  0  0  0  0  0  0  0  0  0
   51.3674    9.1378    7.1517 O   0  0  0  0  0  0  0  0  0  0  0  0
   48.9934   11.4152    8.7123 C   0  0  0  0  0  0  0  0  0  0  0  0
   49.6706   12.6338    8.6371 C   0  0  0  0  0  0  0  0  0  0  0  0
   50.6675   15.3455    9.2230 O   0  0  0  0  0  0  0  0  0  0  0  0
   47.4120   16.2659    9.2119 C   0  0  0  0  0  0  0  0  0  0  0  0
   47.4137   17.7787    9.0552 C   0  0  0  0  0  0  0  0  0  0  0  0
   48.8344   18.1280    9.3917 N   0  3  1  0  0  0  0  0  0  0  0  0
   49.1247   19.5757    9.7064 C   0  0  0  0  0  0  0  0  0  0  0  0
   49.1562   20.4369    8.4502 C   0  0  0  0  0  0  0  0  0  0  0  0
   49.0985   19.9062    7.3424 O   0  0  0  0  0  0  0  0  0  0  0  0
   49.0327   22.5032    9.8996 C   0  0  0  0  0  0  0  0  0  0  0  0
   47.5776   22.9895    9.9607 C   0  0  0  0  0  0  0  0  0  0  0  0
   47.6693   23.2109    7.4756 C   0  0  0  0  0  0  0  0  0  0  0  0
   47.2225   23.7861    8.7689 N   0  0  0  0  0  0  0  0  0  0  0  0
   43.7484   24.7965    9.7220 C   0  0  0  0  0  0  0  0  0  0  0  0
   41.7834   25.5522    8.3368 C   0  0  0  0  0  0  0  0  0  0  0  0
   41.3282   25.8171    7.2360 O   0  0  0  0  0  0  0  0  0  0  0  0
   40.9082   25.5469    9.5596 C   0  0  0  0  0  0  0  0  0  0  0  0
   48.0465   13.5944    9.4480 H   0  0  0  0  0  0  0  0  0  0  0  0
   45.4330   24.0533   10.8006 H   0  0  0  0  0  0  0  0  0  0  0  0
   46.0079   24.8961    6.6142 H   0  0  0  0  0  0  0  0  0  0  0  0
   43.6830   25.5431    6.4160 H   0  0  0  0  0  0  0  0  0  0  0  0
   49.3647   22.2171    6.5872 H   0  0  0  0  0  0  0  0  0  0  0  0
   49.7854   23.5455    7.7022 H   0  0  0  0  0  0  0  0  0  0  0  0
   48.1826   15.3980   11.0815 H   0  0  0  0  0  0  0  0  0  0  0  0
   50.2537   17.2086   10.6619 H   0  0  0  0  0  0  0  0  0  0  0  0
   48.6991   17.6660   11.4288 H   0  0  0  0  0  0  0  0  0  0  0  0
   51.4646   13.6164    7.9326 H   0  0  0  0  0  0  0  0  0  0  0  0
   52.4711   11.5719    7.0149 H   0  0  0  0  0  0  0  0  0  0  0  0
   52.2265    9.2845    6.7607 H   0  0  0  0  0  0  0  0  0  0  0  0
   48.0177   11.3582    9.1824 H   0  0  0  0  0  0  0  0  0  0  0  0
   46.4519   15.9343    9.6027 H   0  0  0  0  0  0  0  0  0  0  0  0
   47.5792   15.8075    8.2323 H   0  0  0  0  0  0  0  0  0  0  0  0
   46.7500   18.2565    9.7864 H   0  0  0  0  0  0  0  0  0  0  0  0
   47.1460   18.0935    8.0399 H   0  0  0  0  0  0  0  0  0  0  0  0
   50.1001   19.6129   10.2066 H   0  0  0  0  0  0  0  0  0  0  0  0
   48.3458   19.9234   10.3888 H   0  0  0  0  0  0  0  0  0  0  0  0
   49.7128   23.3611    9.9034 H   0  0  0  0  0  0  0  0  0  0  0  0
   49.2640   21.8624   10.7499 H   0  0  0  0  0  0  0  0  0  0  0  0
   47.4774   23.5902   10.8669 H   0  0  0  0  0  0  0  0  0  0  0  0
   46.9303   22.1053   10.0207 H   0  0  0  0  0  0  0  0  0  0  0  0
   47.0161   22.3708    7.2127 H   0  0  0  0  0  0  0  0  0  0  0  0
   47.6432   23.9706    6.6963 H   0  0  0  0  0  0  0  0  0  0  0  0
   43.1317   24.8112   10.6163 H   0  0  0  0  0  0  0  0  0  0  0  0
   39.8916   25.8330    9.2681 H   0  0  0  0  0  0  0  0  0  0  0  0
   41.2844   26.2675   10.2872 H   0  0  0  0  0  0  0  0  0  0  0  0
   40.8809   24.5428    9.9902 H   0  0  0  0  0  0  0  0  0  0  0  0
   49.4143   17.8878    8.5613 H   0  0  0  0  0  0  0  0  0  0  0  0
  1  8  1  0  0  0  0
  1 25  1  0  0  0  0
  1 27  1  0  0  0  0
  2  7  2  0  0  0  0
  2 31  1  0  0  0  0
  2 32  1  0  0  0  0
  3 11  1  0  0  0  0
  3 19  1  0  0  0  0
  3 35  1  0  0  0  0
  4  5  1  0  0  0  0
  4 31  2  0  0  0  0
  4 36  1  0  0  0  0
  5  6  2  0  0  0  0
  5 30  1  0  0  0  0
  6  7  1  0  0  0  0
  6 37  1  0  0  0  0
  7 38  1  0  0  0  0
  8 29  1  0  0  0  0
  8 39  1  0  0  0  0
  8 40  1  0  0  0  0
  9 10  1  0  0  0  0
  9 11  1  0  0  0  0
  9 21  1  0  0  0  0
  9 41  1  1  0  0  0
 10 23  1  0  0  0  0
 10 42  1  0  0  0  0
 10 43  1  0  0  0  0
 11 20  2  0  0  0  0
 12 13  2  0  0  0  0
 12 19  1  0  0  0  0
 12 44  1  0  0  0  0
 13 16  1  0  0  0  0
 13 45  1  0  0  0  0
 14 15  1  0  0  0  0
 15 16  2  0  0  0  0
 15 18  1  0  0  0  0
 16 17  1  0  0  0  0
 17 46  1  0  0  0  0
 18 19  2  0  0  0  0
 18 47  1  0  0  0  0
 21 22  1  0  0  0  0
 21 48  1  0  0  0  0
 21 49  1  0  0  0  0
 22 23  1  0  0  0  0
 22 50  1  0  0  0  0
 22 51  1  0  0  0  0
 23 24  1  0  0  0  0
 23 64  1  6  0  0  0
 24 25  1  0  0  0  0
 24 52  1  0  0  0  0
 24 53  1  0  0  0  0
 25 26  2  0  0  0  0
 27 28  1  0  0  0  0
 27 54  1  0  0  0  0
 27 55  1  0  0  0  0
 28 30  1  0  0  0  0
 28 56  1  0  0  0  0
 28 57  1  0  0  0  0
 29 30  1  0  0  0  0
 29 58  1  0  0  0  0
 29 59  1  0  0  0  0
 31 60  1  0  0  0  0
 32 33  2  0  0  0  0
 32 34  1  0  0  0  0
 34 61  1  0  0  0  0
 34 62  1  0  0  0  0
 34 63  1  0  0  0  0
M  CHG  1  23   1
M  END
$$$$
