3HS
 OpenBabel04111921343D

 57 61  0  0  0  0  0  0  0  0999 V2000
    4.4679    9.3888   22.7013 C   0  0  0  0  0  0  0  0  0  0  0  0
    3.8299   11.1397   24.2427 C   0  0  0  0  0  0  0  0  0  0  0  0
    7.0828   13.3796   24.9713 C   0  0  0  0  0  0  0  0  0  0  0  0
    9.4929   13.5871   25.2734 C   0  0  0  0  0  0  0  0  0  0  0  0
   12.2970   10.9396   24.2928 C   0  0  0  0  0  0  0  0  0  0  0  0
   13.3840   11.3010   23.3591 C   0  0  0  0  0  0  0  0  0  0  0  0
   15.5484   10.6988   22.4347 C   0  0  0  0  0  0  0  0  0  0  0  0
   16.6068   12.0787   20.6500 C   0  0  0  0  0  0  0  0  0  0  0  0
   18.4096   12.2429   19.3252 C   0  0  0  0  0  0  0  0  0  0  0  0
    3.7979   17.6651   24.7710 O   0  0  0  0  0  0  0  0  0  0  0  0
    3.2348   16.6381   24.2654 C   0  0  0  0  0  0  0  0  0  0  0  0
    4.0387   15.3585   24.2743 C   0  0  0  0  0  0  0  0  0  0  0  0
    3.6348   14.1432   23.8574 N   0  0  0  0  0  0  0  0  0  0  0  0
    4.7251   13.3637   23.9786 N   0  3  0  0  0  0  0  0  0  0  0  0
    4.6398   12.0307   23.5327 C   0  0  0  0  0  0  0  0  0  0  0  0
    5.3572   11.6267   22.4022 C   0  0  0  0  0  0  0  0  0  0  0  0
    5.2511   10.3017   21.9761 C   0  0  0  0  0  0  0  0  0  0  0  0
    6.0979    9.8461   20.5392 Cl  0  0  0  0  0  0  0  0  0  0  0  0
    4.3187    7.7271   22.2442 Cl  0  0  0  0  0  0  0  0  0  0  0  0
    3.7678    9.8083   23.8387 C   0  0  0  0  0  0  0  0  0  0  0  0
    5.8001   13.9925   24.5881 C   0  0  0  0  0  0  0  0  0  0  0  0
    8.2617   14.1283   24.8917 C   0  0  0  0  0  0  0  0  0  0  0  0
    9.5865   12.2650   25.7303 C   0  0  0  0  0  0  0  0  0  0  0  0
   10.8966   11.6716   26.1832 C   0  0  0  0  0  0  0  0  0  0  0  0
   11.9740   11.8833   25.2428 N   0  0  0  0  0  0  0  0  0  0  0  0
   14.4909   10.4425   23.3117 C   0  0  0  0  0  0  0  0  0  0  0  0
   15.5118   11.8089   21.5793 C   0  0  0  0  0  0  0  0  0  0  0  0
   17.7963   11.4567   20.3310 C   0  0  0  0  0  0  0  0  0  0  0  0
   17.5634   13.3155   19.0774 C   0  0  0  0  0  0  0  0  0  0  0  0
   17.8046   14.4059   18.1038 C   0  0  0  0  0  0  0  0  0  0  0  0
   18.8768   14.3379   17.4226 O   0  0  0  0  0  0  0  0  0  0  0  0
   16.9232   15.3189   18.0258 O   0  0  0  0  0  0  0  0  0  0  0  0
   16.4682   13.2052   19.8972 O   0  0  0  0  0  0  0  0  0  0  0  0
   14.3894   12.6543   21.6273 C   0  0  0  0  0  0  0  0  0  0  0  0
   13.3294   12.4075   22.5096 C   0  0  0  0  0  0  0  0  0  0  0  0
   11.9837   13.4849   22.4659 Cl  0  0  0  0  0  0  0  0  0  0  0  0
   11.8066    9.8165   24.2384 O   0  0  0  0  0  0  0  0  0  0  0  0
    8.4060   11.5168   25.8294 C   0  0  0  0  0  0  0  0  0  0  0  0
    7.1733   12.0724   25.4687 C   0  0  0  0  0  0  0  0  0  0  0  0
    5.3673   15.2971   24.7700 C   0  0  0  0  0  0  0  0  0  0  0  0
    2.0664   16.6102   23.7615 O   0  0  0  0  0  0  0  0  0  0  0  0
    3.2845   11.4774   25.1228 H   0  0  0  0  0  0  0  0  0  0  0  0
   10.3816   14.2097   25.2026 H   0  0  0  0  0  0  0  0  0  0  0  0
   16.3947   10.0168   22.4187 H   0  0  0  0  0  0  0  0  0  0  0  0
   19.3499   12.0798   18.8201 H   0  0  0  0  0  0  0  0  0  0  0  0
    5.9528   12.3452   21.8439 H   0  0  0  0  0  0  0  0  0  0  0  0
    3.1691    9.1053   24.4115 H   0  0  0  0  0  0  0  0  0  0  0  0
    8.2342   15.1551   24.5261 H   0  0  0  0  0  0  0  0  0  0  0  0
   10.7878   10.5956   26.3625 H   0  0  0  0  0  0  0  0  0  0  0  0
   11.1886   12.1350   27.1323 H   0  0  0  0  0  0  0  0  0  0  0  0
   12.4124   12.7927   25.2087 H   0  0  0  0  0  0  0  0  0  0  0  0
   14.5259    9.5656   23.9582 H   0  0  0  0  0  0  0  0  0  0  0  0
   18.1851   10.5441   20.7605 H   0  0  0  0  0  0  0  0  0  0  0  0
   14.3346   13.5101   20.9555 H   0  0  0  0  0  0  0  0  0  0  0  0
    8.4339   10.4925   26.1924 H   0  0  0  0  0  0  0  0  0  0  0  0
    6.2868   11.4616   25.6055 H   0  0  0  0  0  0  0  0  0  0  0  0
    5.9129   16.1183   25.2159 H   0  0  0  0  0  0  0  0  0  0  0  0
  1 17  2  0  0  0  0
  1 19  1  0  0  0  0
  1 20  1  0  0  0  0
  2 15  1  0  0  0  0
  2 20  2  0  0  0  0
  2 42  1  0  0  0  0
  3 21  1  0  0  0  0
  3 22  2  0  0  0  0
  3 39  1  0  0  0  0
  4 22  1  0  0  0  0
  4 23  2  0  0  0  0
  4 43  1  0  0  0  0
  5  6  1  0  0  0  0
  5 25  1  0  0  0  0
  5 37  2  0  0  0  0
  6 26  2  0  0  0  0
  6 35  1  0  0  0  0
  7 26  1  0  0  0  0
  7 27  2  0  0  0  0
  7 44  1  0  0  0  0
  8 27  1  0  0  0  0
  8 28  2  0  0  0  0
  8 33  1  0  0  0  0
  9 28  1  0  0  0  0
  9 29  2  0  0  0  0
  9 45  1  0  0  0  0
 10 11  2  0  0  0  0
 11 12  1  0  0  0  0
 11 41  1  0  0  0  0
 12 13  1  0  0  0  0
 12 40  2  0  0  0  0
 13 14  1  0  0  0  0
 14 15  1  0  0  0  0
 14 21  2  0  0  0  0
 15 16  2  0  0  0  0
 16 17  1  0  0  0  0
 16 46  1  0  0  0  0
 17 18  1  0  0  0  0
 20 47  1  0  0  0  0
 21 40  1  0  0  0  0
 22 48  1  0  0  0  0
 23 24  1  0  0  0  0
 23 38  1  0  0  0  0
 24 25  1  0  0  0  0
 24 49  1  0  0  0  0
 24 50  1  0  0  0  0
 25 51  1  0  0  0  0
 26 52  1  0  0  0  0
 27 34  1  0  0  0  0
 28 53  1  0  0  0  0
 29 30  1  0  0  0  0
 29 33  1  0  0  0  0
 30 31  2  0  0  0  0
 30 32  1  0  0  0  0
 34 35  2  0  0  0  0
 34 54  1  0  0  0  0
 35 36  1  0  0  0  0
 38 39  2  0  0  0  0
 38 55  1  0  0  0  0
 39 56  1  0  0  0  0
 40 57  1  0  0  0  0
M  CHG  1  14   1
M  END
$$$$
