3HV
 OpenBabel04111921343D

 59 64  0  0  0  0  0  0  0  0999 V2000
   17.0979   13.3867   19.4030 C   0  0  0  0  0  0  0  0  0  0  0  0
   14.9700   10.6087   22.4825 C   0  0  0  0  0  0  0  0  0  0  0  0
   12.4265   13.7120   23.8775 C   0  0  0  0  0  0  0  0  0  0  0  0
   10.2942   12.0912   26.4443 C   0  0  0  0  0  0  0  0  0  0  0  0
    8.9486   12.5892   25.9860 C   0  0  0  0  0  0  0  0  0  0  0  0
    8.2769   11.9069   24.9767 C   0  0  0  0  0  0  0  0  0  0  0  0
    8.3799   13.7534   26.5088 C   0  0  0  0  0  0  0  0  0  0  0  0
    6.4625   13.5521   25.0053 C   0  0  0  0  0  0  0  0  0  0  0  0
    4.6468   15.3614   24.6145 C   0  0  0  0  0  0  0  0  0  0  0  0
   11.9324    9.5280   25.6596 S   0  0  0  0  0  0  0  0  0  0  0  0
   12.1182   11.0822   24.9894 C   0  0  0  0  0  0  0  0  0  0  0  0
   13.1559   11.3499   23.9210 C   0  0  0  0  0  0  0  0  0  0  0  0
   13.2864   12.6441   23.3935 C   0  0  0  0  0  0  0  0  0  0  0  0
   14.2548   12.9083   22.4115 C   0  0  0  0  0  0  0  0  0  0  0  0
   15.1103   11.8946   21.9534 C   0  0  0  0  0  0  0  0  0  0  0  0
   16.1406   12.1454   20.9550 C   0  0  0  0  0  0  0  0  0  0  0  0
   17.2263   11.4294   20.4952 C   0  0  0  0  0  0  0  0  0  0  0  0
   17.8416   12.2235   19.5043 C   0  0  0  0  0  0  0  0  0  0  0  0
   17.3723   14.5171   18.4791 C   0  0  0  0  0  0  0  0  0  0  0  0
   18.4178   14.4188   17.7573 O   0  0  0  0  0  0  0  0  0  0  0  0
   16.5491   15.4823   18.4844 O   0  0  0  0  0  0  0  0  0  0  0  0
   16.0557   13.3350   20.2953 O   0  0  0  0  0  0  0  0  0  0  0  0
   14.0047   10.3412   23.4481 C   0  0  0  0  0  0  0  0  0  0  0  0
   11.5305   13.4547   24.8324 C   0  0  0  0  0  0  0  0  0  0  0  0
   11.3382   12.1936   25.3930 N   0  3  0  0  0  0  0  0  0  0  0  0
    7.0688   12.3990   24.4921 C   0  0  0  0  0  0  0  0  0  0  0  0
    7.1530   14.2260   26.0246 C   0  0  0  0  0  0  0  0  0  0  0  0
    5.1680   14.0779   24.5125 C   0  0  0  0  0  0  0  0  0  0  0  0
    3.3510   15.3346   24.0306 C   0  0  0  0  0  0  0  0  0  0  0  0
    2.4656   16.5536   23.9438 C   0  0  0  0  0  0  0  0  0  0  0  0
    1.3203   16.4281   23.4053 O   0  0  0  0  0  0  0  0  0  0  0  0
    2.9422   17.6328   24.4337 O   0  0  0  0  0  0  0  0  0  0  0  0
    3.0604   14.0940   23.5972 N   0  0  0  0  0  0  0  0  0  0  0  0
    4.1587   13.3714   23.8613 N   0  3  0  0  0  0  0  0  0  0  0  0
    4.1508   12.0190   23.4763 C   0  0  0  0  0  0  0  0  0  0  0  0
    3.6433   11.0615   24.3559 C   0  0  0  0  0  0  0  0  0  0  0  0
    3.7450    9.7142   24.0121 C   0  0  0  0  0  0  0  0  0  0  0  0
    4.3580    9.3372   22.8086 C   0  0  0  0  0  0  0  0  0  0  0  0
    4.4878    7.6455   22.4742 Cl  0  0  0  0  0  0  0  0  0  0  0  0
    4.8535   10.3128   21.9303 C   0  0  0  0  0  0  0  0  0  0  0  0
    5.6985    9.9086   20.4782 Cl  0  0  0  0  0  0  0  0  0  0  0  0
    4.7253   11.6642   22.2497 C   0  0  0  0  0  0  0  0  0  0  0  0
   15.6063    9.7998   22.1423 H   0  0  0  0  0  0  0  0  0  0  0  0
   12.5230   14.7069   23.4542 H   0  0  0  0  0  0  0  0  0  0  0  0
   10.1453   11.0641   26.7856 H   0  0  0  0  0  0  0  0  0  0  0  0
   10.6516   12.6483   27.3179 H   0  0  0  0  0  0  0  0  0  0  0  0
    8.7002   11.0077   24.5334 H   0  0  0  0  0  0  0  0  0  0  0  0
    8.8994   14.3180   27.2799 H   0  0  0  0  0  0  0  0  0  0  0  0
    5.1140   16.2350   25.0505 H   0  0  0  0  0  0  0  0  0  0  0  0
   14.3544   13.9129   22.0002 H   0  0  0  0  0  0  0  0  0  0  0  0
   17.5412   10.4513   20.8348 H   0  0  0  0  0  0  0  0  0  0  0  0
   18.7186   11.9983   18.9136 H   0  0  0  0  0  0  0  0  0  0  0  0
   13.9455    9.3200   23.8152 H   0  0  0  0  0  0  0  0  0  0  0  0
   10.8943   14.2608   25.1888 H   0  0  0  0  0  0  0  0  0  0  0  0
    6.6517   11.8381   23.6726 H   0  0  0  0  0  0  0  0  0  0  0  0
    6.7503   15.1418   26.4527 H   0  0  0  0  0  0  0  0  0  0  0  0
    3.1900   11.3612   25.2986 H   0  0  0  0  0  0  0  0  0  0  0  0
    3.3602    8.9605   24.6940 H   0  0  0  0  0  0  0  0  0  0  0  0
    5.1321   12.4350   21.5974 H   0  0  0  0  0  0  0  0  0  0  0  0
  1 18  2  0  0  0  0
  1 19  1  0  0  0  0
  1 22  1  0  0  0  0
  2 15  2  0  0  0  0
  2 23  1  0  0  0  0
  2 43  1  0  0  0  0
  3 13  1  0  0  0  0
  3 24  2  0  0  0  0
  3 44  1  0  0  0  0
  4  5  1  0  0  0  0
  4 25  1  0  0  0  0
  4 45  1  0  0  0  0
  4 46  1  0  0  0  0
  5  6  2  0  0  0  0
  5  7  1  0  0  0  0
  6 26  1  0  0  0  0
  6 47  1  0  0  0  0
  7 27  2  0  0  0  0
  7 48  1  0  0  0  0
  8 26  2  0  0  0  0
  8 27  1  0  0  0  0
  8 28  1  0  0  0  0
  9 28  1  0  0  0  0
  9 29  2  0  0  0  0
  9 49  1  0  0  0  0
 10 11  2  0  0  0  0
 11 12  1  0  0  0  0
 11 25  1  0  0  0  0
 12 13  1  0  0  0  0
 12 23  2  0  0  0  0
 13 14  2  0  0  0  0
 14 15  1  0  0  0  0
 14 50  1  0  0  0  0
 15 16  1  0  0  0  0
 16 17  2  0  0  0  0
 16 22  1  0  0  0  0
 17 18  1  0  0  0  0
 17 51  1  0  0  0  0
 18 52  1  0  0  0  0
 19 20  2  0  0  0  0
 19 21  1  0  0  0  0
 23 53  1  0  0  0  0
 24 25  1  0  0  0  0
 24 54  1  0  0  0  0
 26 55  1  0  0  0  0
 27 56  1  0  0  0  0
 28 34  2  0  0  0  0
 29 30  1  0  0  0  0
 29 33  1  0  0  0  0
 30 31  2  0  0  0  0
 30 32  1  0  0  0  0
 33 34  1  0  0  0  0
 34 35  1  0  0  0  0
 35 36  2  0  0  0  0
 35 42  1  0  0  0  0
 36 37  1  0  0  0  0
 36 57  1  0  0  0  0
 37 38  2  0  0  0  0
 37 58  1  0  0  0  0
 38 39  1  0  0  0  0
 38 40  1  0  0  0  0
 40 41  1  0  0  0  0
 40 42  2  0  0  0  0
 42 59  1  0  0  0  0
M  CHG  2  25   1  34   1
M  END
$$$$
