3HW
 OpenBabel04111921343D

 57 61  0  0  0  0  0  0  0  0999 V2000
   -4.8721    9.3271    3.7067 C   0  0  0  0  0  0  0  0  0  0  0  0
   -5.3426   10.9692    1.9904 C   0  0  0  0  0  0  0  0  0  0  0  0
   -1.9009   11.3097   -0.0643 C   0  0  0  0  0  0  0  0  0  0  0  0
    0.5320   11.1143   -0.0951 C   0  0  0  0  0  0  0  0  0  0  0  0
    4.1967   12.2224    2.0369 C   0  0  0  0  0  0  0  0  0  0  0  0
    4.9596   10.9483    1.7741 C   0  0  0  0  0  0  0  0  0  0  0  0
    6.8213    9.5362    2.4269 C   0  0  0  0  0  0  0  0  0  0  0  0
    7.3493    7.4441    1.2677 C   0  0  0  0  0  0  0  0  0  0  0  0
    8.8321    5.7743    1.3347 C   0  0  0  0  0  0  0  0  0  0  0  0
   -6.9371   11.3049   -3.4436 O   0  0  0  0  0  0  0  0  0  0  0  0
   -5.6968   11.5952   -3.4471 C   0  0  0  0  0  0  0  0  0  0  0  0
   -4.9168   11.3467   -2.1778 C   0  0  0  0  0  0  0  0  0  0  0  0
   -5.4225   10.8807   -1.0207 N   0  0  0  0  0  0  0  0  0  0  0  0
   -4.3663   10.7426   -0.2088 N   0  3  0  0  0  0  0  0  0  0  0  0
   -4.5658   10.2283    1.0919 C   0  0  0  0  0  0  0  0  0  0  0  0
   -3.9260    9.0497    1.4882 C   0  0  0  0  0  0  0  0  0  0  0  0
   -4.0987    8.5896    2.7975 C   0  0  0  0  0  0  0  0  0  0  0  0
   -3.3376    7.1016    3.2387 Cl  0  0  0  0  0  0  0  0  0  0  0  0
   -5.1203    8.8149    5.3405 Cl  0  0  0  0  0  0  0  0  0  0  0  0
   -5.4788   10.5231    3.3048 C   0  0  0  0  0  0  0  0  0  0  0  0
   -3.1832   11.2129   -0.7599 C   0  0  0  0  0  0  0  0  0  0  0  0
   -0.7139   11.0399   -0.7508 C   0  0  0  0  0  0  0  0  0  0  0  0
    0.5669   11.4581    1.2569 C   0  0  0  0  0  0  0  0  0  0  0  0
    1.8191   11.4719    2.0470 C   0  0  0  0  0  0  0  0  0  0  0  0
    2.8488   12.2407    1.5069 N   0  0  0  0  0  0  0  0  0  0  0  0
    6.0532   10.6880    2.5986 C   0  0  0  0  0  0  0  0  0  0  0  0
    6.5059    8.6185    1.4237 C   0  0  0  0  0  0  0  0  0  0  0  0
    8.3271    6.8692    2.0650 C   0  0  0  0  0  0  0  0  0  0  0  0
    8.1260    5.7246    0.1404 C   0  0  0  0  0  0  0  0  0  0  0  0
    8.3003    4.7267   -0.9499 C   0  0  0  0  0  0  0  0  0  0  0  0
    9.2726    3.9176   -0.8334 O   0  0  0  0  0  0  0  0  0  0  0  0
    7.4616    4.7696   -1.9030 O   0  0  0  0  0  0  0  0  0  0  0  0
    7.2110    6.7502    0.1222 O   0  0  0  0  0  0  0  0  0  0  0  0
    5.3937    8.8695    0.5977 C   0  0  0  0  0  0  0  0  0  0  0  0
    4.6309   10.0199    0.7676 C   0  0  0  0  0  0  0  0  0  0  0  0
    1.9296   10.6373    3.5121 S   0  0  0  0  0  0  0  0  0  0  0  0
   -0.6150   11.7332    1.9457 C   0  0  0  0  0  0  0  0  0  0  0  0
   -1.8321   11.6802    1.2847 C   0  0  0  0  0  0  0  0  0  0  0  0
   -3.5224   11.6036   -2.0461 C   0  0  0  0  0  0  0  0  0  0  0  0
   -5.0536   12.0821   -4.4341 O   0  0  0  0  0  0  0  0  0  0  0  0
   -5.7876   11.9143    1.6809 H   0  0  0  0  0  0  0  0  0  0  0  0
    1.4272   10.8505   -0.6483 H   0  0  0  0  0  0  0  0  0  0  0  0
    4.7555   13.0655    1.6215 H   0  0  0  0  0  0  0  0  0  0  0  0
    4.1185   12.3744    3.1183 H   0  0  0  0  0  0  0  0  0  0  0  0
    7.6692    9.3811    3.0723 H   0  0  0  0  0  0  0  0  0  0  0  0
    9.6067    5.0844    1.6399 H   0  0  0  0  0  0  0  0  0  0  0  0
   -3.3215    8.4860    0.7818 H   0  0  0  0  0  0  0  0  0  0  0  0
   -6.0590   11.1114    4.0108 H   0  0  0  0  0  0  0  0  0  0  0  0
   -0.7529   10.7344   -1.7956 H   0  0  0  0  0  0  0  0  0  0  0  0
    2.6461   12.9047    0.7678 H   0  0  0  0  0  0  0  0  0  0  0  0
    6.3207   11.3799    3.3962 H   0  0  0  0  0  0  0  0  0  0  0  0
    8.6228    7.2093    3.0435 H   0  0  0  0  0  0  0  0  0  0  0  0
    5.1329    8.1529   -0.1874 H   0  0  0  0  0  0  0  0  0  0  0  0
    3.7741   10.1741    0.1202 H   0  0  0  0  0  0  0  0  0  0  0  0
   -0.5980   11.9722    3.0044 H   0  0  0  0  0  0  0  0  0  0  0  0
   -2.7157   11.9161    1.8676 H   0  0  0  0  0  0  0  0  0  0  0  0
   -2.8702   12.0393   -2.7922 H   0  0  0  0  0  0  0  0  0  0  0  0
  1 17  2  0  0  0  0
  1 19  1  0  0  0  0
  1 20  1  0  0  0  0
  2 15  1  0  0  0  0
  2 20  2  0  0  0  0
  2 41  1  0  0  0  0
  3 21  1  0  0  0  0
  3 22  2  0  0  0  0
  3 38  1  0  0  0  0
  4 22  1  0  0  0  0
  4 23  2  0  0  0  0
  4 42  1  0  0  0  0
  5  6  1  0  0  0  0
  5 25  1  0  0  0  0
  5 43  1  0  0  0  0
  5 44  1  0  0  0  0
  6 26  2  0  0  0  0
  6 35  1  0  0  0  0
  7 26  1  0  0  0  0
  7 27  2  0  0  0  0
  7 45  1  0  0  0  0
  8 27  1  0  0  0  0
  8 28  2  0  0  0  0
  8 33  1  0  0  0  0
  9 28  1  0  0  0  0
  9 29  2  0  0  0  0
  9 46  1  0  0  0  0
 10 11  2  0  0  0  0
 11 12  1  0  0  0  0
 11 40  1  0  0  0  0
 12 13  1  0  0  0  0
 12 39  2  0  0  0  0
 13 14  1  0  0  0  0
 14 15  1  0  0  0  0
 14 21  2  0  0  0  0
 15 16  2  0  0  0  0
 16 17  1  0  0  0  0
 16 47  1  0  0  0  0
 17 18  1  0  0  0  0
 20 48  1  0  0  0  0
 21 39  1  0  0  0  0
 22 49  1  0  0  0  0
 23 24  1  0  0  0  0
 23 37  1  0  0  0  0
 24 25  1  0  0  0  0
 24 36  2  0  0  0  0
 25 50  1  0  0  0  0
 26 51  1  0  0  0  0
 27 34  1  0  0  0  0
 28 52  1  0  0  0  0
 29 30  1  0  0  0  0
 29 33  1  0  0  0  0
 30 31  2  0  0  0  0
 30 32  1  0  0  0  0
 34 35  2  0  0  0  0
 34 53  1  0  0  0  0
 35 54  1  0  0  0  0
 37 38  2  0  0  0  0
 37 55  1  0  0  0  0
 38 56  1  0  0  0  0
 39 57  1  0  0  0  0
M  CHG  1  14   1
M  END
$$$$
