3IT
 OpenBabel04111922473D

 22 22  0  0  0  0  0  0  0  0999 V2000
   21.5767    6.6722  -33.6150 C   0  0  0  0  0  0  0  0  0  0  0  0
   22.1186    7.1127  -34.9699 C   0  0  0  0  0  0  0  0  0  0  0  0
   23.4238    7.8601  -34.7574 C   0  0  0  0  0  0  0  0  0  0  0  0
   21.5079    6.8506  -36.1723 C   0  0  0  0  0  0  0  0  0  0  0  0
   22.1098    7.3420  -37.4077 C   0  0  0  0  0  0  0  0  0  0  0  0
   21.7662    7.2416  -38.6935 C   0  0  0  0  0  0  0  0  0  0  0  0
   20.6537    6.6092  -39.3112 C   0  0  0  0  0  0  0  0  0  0  0  0
   19.6345    5.9769  -38.7424 C   0  0  0  0  0  0  0  0  0  0  0  0
   19.3470    5.7069  -37.3270 C   0  0  0  0  0  0  0  0  0  0  0  0
   18.2773    5.1322  -37.1099 O   0  0  0  0  0  0  0  0  0  0  0  0
   20.2341    6.0176  -36.1504 C   0  0  0  0  0  0  0  0  0  0  0  0
   19.8268    5.5093  -35.1001 O   0  0  0  0  0  0  0  0  0  0  0  0
   22.1990    7.0340  -32.7885 H   0  0  0  0  0  0  0  0  0  0  0  0
   21.5728    5.5808  -33.5278 H   0  0  0  0  0  0  0  0  0  0  0  0
   20.5781    7.0845  -33.4382 H   0  0  0  0  0  0  0  0  0  0  0  0
   23.9040    8.2568  -35.6487 H   0  0  0  0  0  0  0  0  0  0  0  0
   24.1520    7.1900  -34.2847 H   0  0  0  0  0  0  0  0  0  0  0  0
   23.2609    8.7143  -34.0895 H   0  0  0  0  0  0  0  0  0  0  0  0
   23.0267    7.9121  -37.2919 H   0  0  0  0  0  0  0  0  0  0  0  0
   22.4363    7.7216  -39.4132 H   0  0  0  0  0  0  0  0  0  0  0  0
   20.6406    6.6819  -40.4000 H   0  0  0  0  0  0  0  0  0  0  0  0
   18.8565    5.5802  -39.3935 H   0  0  0  0  0  0  0  0  0  0  0  0
  1  2  1  0  0  0  0
  1 13  1  0  0  0  0
  1 14  1  0  0  0  0
  1 15  1  0  0  0  0
  2  3  1  0  0  0  0
  2  4  2  0  0  0  0
  3 16  1  0  0  0  0
  3 17  1  0  0  0  0
  3 18  1  0  0  0  0
  4  5  1  0  0  0  0
  4 11  1  0  0  0  0
  5  6  2  0  0  0  0
  5 19  1  0  0  0  0
  6  7  1  0  0  0  0
  6 20  1  0  0  0  0
  7  8  2  0  0  0  0
  7 21  1  0  0  0  0
  8  9  1  0  0  0  0
  8 22  1  0  0  0  0
  9 10  2  0  0  0  0
  9 11  1  0  0  0  0
 11 12  2  0  0  0  0
M  END
$$$$
