3J4
 OpenBabel04111921363D

 44 45  0  0  1  0  0  0  0  0999 V2000
    0.6722    4.9776   79.3904 C   0  0  2  0  0  0  0  0  0  0  0  0
    1.2064    4.2212   80.6147 C   0  0  2  0  0  0  0  0  0  0  0  0
    1.7815    2.8140   80.3020 C   0  0  0  0  0  0  0  0  0  0  0  0
   -1.7429    1.8895   86.2292 O   0  0  0  0  0  0  0  0  0  0  0  0
   -2.6545    0.8132   86.9966 S   0  0  0  0  0  0  0  0  0  0  0  0
   -4.0130    1.0875   86.6420 O   0  0  0  0  0  0  0  0  0  0  0  0
   -2.2047    0.7515   88.3797 O   0  0  0  0  0  0  0  0  0  0  0  0
   -2.2181   -0.5987   86.2554 N   0  0  0  0  0  0  0  0  0  0  0  0
   -2.6129    6.3023   80.7823 O   0  0  0  0  0  0  0  0  0  0  0  0
   -1.6106    5.2952   80.6480 C   0  0  1  0  0  0  0  0  0  0  0  0
   -0.7900    5.4368   79.3784 C   0  0  1  0  0  0  0  0  0  0  0  0
   -0.8454    6.7855   78.8842 O   0  0  0  0  0  0  0  0  0  0  0  0
    0.8891    4.2056   78.1964 O   0  0  0  0  0  0  0  0  0  0  0  0
    1.8934    1.9938   81.4747 O   0  0  0  0  0  0  0  0  0  0  0  0
    0.3363    4.0387   81.7040 O   0  0  0  0  0  0  0  0  0  0  0  0
   -0.8867    4.7453   81.8754 C   0  0  1  0  0  0  0  0  0  0  0  0
   -1.0399    5.6182   83.4602 S   0  0  0  0  0  0  0  0  0  0  0  0
   -2.3356    6.2528   83.6037 O   0  0  0  0  0  0  0  0  0  0  0  0
    0.1771    6.3358   83.7587 O   0  0  0  0  0  0  0  0  0  0  0  0
   -1.0807    4.2764   84.5275 N   0  0  0  0  0  0  0  0  0  0  0  0
   -2.3124    3.4429   84.5037 C   0  0  0  0  0  0  0  0  0  0  0  0
    0.0967    3.4069   84.5871 C   0  0  0  0  0  0  0  0  0  0  0  0
   -0.4121    1.9869   84.3348 C   0  0  0  0  0  0  0  0  0  0  0  0
   -1.8202    2.0587   84.8731 C   0  0  1  0  0  0  0  0  0  0  0  0
    1.3120    5.8587   79.2707 H   0  0  0  0  0  0  0  0  0  0  0  0
    2.0630    4.8010   80.9886 H   0  0  0  0  0  0  0  0  0  0  0  0
    2.7856    2.9113   79.8860 H   0  0  0  0  0  0  0  0  0  0  0  0
    1.1569    2.2592   79.5962 H   0  0  0  0  0  0  0  0  0  0  0  0
   -2.4755   -1.4149   86.7944 H   0  0  0  0  0  0  0  0  0  0  0  0
   -1.2765   -0.6000   85.8632 H   0  0  0  0  0  0  0  0  0  0  0  0
   -2.2247    7.1904   80.6748 H   0  0  0  0  0  0  0  0  0  0  0  0
   -2.2533    4.4413   80.3900 H   0  0  0  0  0  0  0  0  0  0  0  0
   -1.3194    4.8522   78.6125 H   0  0  0  0  0  0  0  0  0  0  0  0
   -1.7719    6.9544   78.6279 H   0  0  0  0  0  0  0  0  0  0  0  0
    0.6426    4.7739   77.4429 H   0  0  0  0  0  0  0  0  0  0  0  0
    0.9811    1.8269   81.7637 H   0  0  0  0  0  0  0  0  0  0  0  0
   -1.5114    3.8715   82.0771 H   0  0  0  0  0  0  0  0  0  0  0  0
   -2.7872    3.4494   83.5219 H   0  0  0  0  0  0  0  0  0  0  0  0
   -3.0295    3.8353   85.2384 H   0  0  0  0  0  0  0  0  0  0  0  0
    0.5522    3.4801   85.5927 H   0  0  0  0  0  0  0  0  0  0  0  0
    0.9017    3.6496   83.8886 H   0  0  0  0  0  0  0  0  0  0  0  0
    0.2000    1.2422   84.8605 H   0  0  0  0  0  0  0  0  0  0  0  0
   -0.4089    1.7526   83.2693 H   0  0  0  0  0  0  0  0  0  0  0  0
   -2.4533    1.2699   84.3846 H   0  0  0  0  0  0  0  0  0  0  0  0
  1  2  1  0  0  0  0
  1 11  1  0  0  0  0
  1 13  1  0  0  0  0
  1 25  1  6  0  0  0
  2  3  1  0  0  0  0
  2 15  1  0  0  0  0
  2 26  1  1  0  0  0
  3 14  1  0  0  0  0
  3 27  1  0  0  0  0
  3 28  1  0  0  0  0
  4  5  1  0  0  0  0
  4 24  1  0  0  0  0
  5  6  2  0  0  0  0
  5  7  2  0  0  0  0
  5  8  1  0  0  0  0
  8 29  1  0  0  0  0
  8 30  1  0  0  0  0
  9 10  1  0  0  0  0
  9 31  1  0  0  0  0
 10 11  1  0  0  0  0
 10 16  1  0  0  0  0
 10 32  1  6  0  0  0
 11 12  1  0  0  0  0
 11 33  1  6  0  0  0
 12 34  1  0  0  0  0
 13 35  1  0  0  0  0
 14 36  1  0  0  0  0
 15 16  1  0  0  0  0
 16 17  1  0  0  0  0
 16 37  1  1  0  0  0
 17 18  2  0  0  0  0
 17 19  2  0  0  0  0
 17 20  1  0  0  0  0
 20 21  1  0  0  0  0
 20 22  1  0  0  0  0
 21 24  1  0  0  0  0
 21 38  1  0  0  0  0
 21 39  1  0  0  0  0
 22 23  1  0  0  0  0
 22 40  1  0  0  0  0
 22 41  1  0  0  0  0
 23 24  1  0  0  0  0
 23 42  1  0  0  0  0
 23 43  1  0  0  0  0
 24 44  1  6  0  0  0
M  END
$$$$
