3J4
 OpenBabel04111921353D

 44 45  0  0  1  0  0  0  0  0999 V2000
    3.6864    3.8239   80.3073 C   0  0  2  0  0  0  0  0  0  0  0  0
    2.8591    4.3737   81.4537 C   0  0  2  0  0  0  0  0  0  0  0  0
    3.6587    5.1413   82.4992 C   0  0  0  0  0  0  0  0  0  0  0  0
   -1.6137    2.4738   85.9483 O   0  0  0  0  0  0  0  0  0  0  0  0
   -1.9349    1.4693   87.1560 S   0  0  0  0  0  0  0  0  0  0  0  0
   -3.3444    1.2941   87.2451 O   0  0  0  0  0  0  0  0  0  0  0  0
   -1.1017    1.7791   88.2873 O   0  0  0  0  0  0  0  0  0  0  0  0
   -1.2813    0.0232   86.6270 N   0  0  0  0  0  0  0  0  0  0  0  0
    1.6095    0.8495   79.5634 O   0  0  0  0  0  0  0  0  0  0  0  0
    2.2942    1.6726   80.4845 C   0  0  1  0  0  0  0  0  0  0  0  0
    3.5194    2.3798   79.9606 C   0  0  1  0  0  0  0  0  0  0  0  0
    3.8075    2.1767   78.5749 O   0  0  0  0  0  0  0  0  0  0  0  0
    5.0972    4.0534   80.4780 O   0  0  0  0  0  0  0  0  0  0  0  0
    3.0470    5.3287   83.7699 O   0  0  0  0  0  0  0  0  0  0  0  0
    1.7998    3.6563   81.9933 O   0  0  0  0  0  0  0  0  0  0  0  0
    1.5011    2.3478   81.5854 C   0  0  1  0  0  0  0  0  0  0  0  0
   -0.3069    2.0970   81.4792 S   0  0  0  0  0  0  0  0  0  0  0  0
   -0.5885    0.7371   81.2900 O   0  0  0  0  0  0  0  0  0  0  0  0
   -0.8909    3.1627   80.6463 O   0  0  0  0  0  0  0  0  0  0  0  0
   -0.7530    2.5279   83.0272 N   0  0  0  0  0  0  0  0  0  0  0  0
   -0.2164    1.7165   84.0784 C   0  0  0  0  0  0  0  0  0  0  0  0
   -0.7717    3.9193   83.4645 C   0  0  0  0  0  0  0  0  0  0  0  0
   -0.2337    3.9439   84.8730 C   0  0  0  0  0  0  0  0  0  0  0  0
   -0.3524    2.5382   85.3368 C   0  0  1  0  0  0  0  0  0  0  0  0
    3.3891    4.4040   79.4337 H   0  0  0  0  0  0  0  0  0  0  0  0
    2.3217    5.1731   80.9531 H   0  0  0  0  0  0  0  0  0  0  0  0
    3.8180    6.1327   82.0645 H   0  0  0  0  0  0  0  0  0  0  0  0
    4.6131    4.6472   82.6642 H   0  0  0  0  0  0  0  0  0  0  0  0
   -1.2986   -0.7414   87.2915 H   0  0  0  0  0  0  0  0  0  0  0  0
   -0.7193    0.0031   85.7916 H   0  0  0  0  0  0  0  0  0  0  0  0
    0.8713    0.4131   80.0381 H   0  0  0  0  0  0  0  0  0  0  0  0
    2.8141    0.9073   81.0681 H   0  0  0  0  0  0  0  0  0  0  0  0
    4.3408    1.8836   80.4811 H   0  0  0  0  0  0  0  0  0  0  0  0
    4.6075    2.6790   78.3446 H   0  0  0  0  0  0  0  0  0  0  0  0
    5.5488    3.8422   79.6425 H   0  0  0  0  0  0  0  0  0  0  0  0
    3.6740    5.8735   84.2832 H   0  0  0  0  0  0  0  0  0  0  0  0
    1.8228    1.7379   82.4437 H   0  0  0  0  0  0  0  0  0  0  0  0
    0.8204    1.5167   83.8585 H   0  0  0  0  0  0  0  0  0  0  0  0
   -0.8274    0.8277   84.0211 H   0  0  0  0  0  0  0  0  0  0  0  0
   -1.8269    4.1991   83.4375 H   0  0  0  0  0  0  0  0  0  0  0  0
   -0.1715    4.5716   82.8371 H   0  0  0  0  0  0  0  0  0  0  0  0
   -0.8329    4.5871   85.5170 H   0  0  0  0  0  0  0  0  0  0  0  0
    0.8275    4.1930   84.9073 H   0  0  0  0  0  0  0  0  0  0  0  0
    0.4685    2.3521   86.0149 H   0  0  0  0  0  0  0  0  0  0  0  0
  1  2  1  0  0  0  0
  1 11  1  0  0  0  0
  1 13  1  0  0  0  0
  1 25  1  6  0  0  0
  2  3  1  0  0  0  0
  2 15  1  0  0  0  0
  2 26  1  6  0  0  0
  3 14  1  0  0  0  0
  3 27  1  0  0  0  0
  3 28  1  0  0  0  0
  4  5  1  0  0  0  0
  4 24  1  0  0  0  0
  5  6  2  0  0  0  0
  5  7  2  0  0  0  0
  5  8  1  0  0  0  0
  8 29  1  0  0  0  0
  8 30  1  0  0  0  0
  9 10  1  0  0  0  0
  9 31  1  0  0  0  0
 10 11  1  0  0  0  0
 10 16  1  0  0  0  0
 10 32  1  1  0  0  0
 11 12  1  0  0  0  0
 11 33  1  1  0  0  0
 12 34  1  0  0  0  0
 13 35  1  0  0  0  0
 14 36  1  0  0  0  0
 15 16  1  0  0  0  0
 16 17  1  0  0  0  0
 16 37  1  1  0  0  0
 17 18  2  0  0  0  0
 17 19  2  0  0  0  0
 17 20  1  0  0  0  0
 20 21  1  0  0  0  0
 20 22  1  0  0  0  0
 21 24  1  0  0  0  0
 21 38  1  0  0  0  0
 21 39  1  0  0  0  0
 22 23  1  0  0  0  0
 22 40  1  0  0  0  0
 22 41  1  0  0  0  0
 23 24  1  0  0  0  0
 23 42  1  0  0  0  0
 23 43  1  0  0  0  0
 24 44  1  1  0  0  0
M  END
$$$$
