3JF
 OpenBabel04111922173D

 65 67  0  0  1  0  0  0  0  0999 V2000
    9.8088   56.2320   95.0844 C   0  0  0  0  0  0  0  0  0  0  0  0
   11.0987   55.6620   94.5726 C   0  0  0  0  0  0  0  0  0  0  0  0
   12.1860   56.2407   94.7394 O   0  0  0  0  0  0  0  0  0  0  0  0
   10.9901   54.4568   93.9355 N   0  0  0  0  0  0  0  0  0  0  0  0
   12.1044   53.7679   93.2586 C   0  0  1  0  0  0  0  0  0  0  0  0
   12.2425   52.3143   93.8065 C   0  0  0  0  0  0  0  0  0  0  0  0
   12.5802   52.3644   95.3082 C   0  0  0  0  0  0  0  0  0  0  0  0
   13.3866   51.5852   93.0930 C   0  0  0  0  0  0  0  0  0  0  0  0
   10.9489   51.4933   93.6631 C   0  0  0  0  0  0  0  0  0  0  0  0
   11.7962   53.8428   91.7375 C   0  0  0  0  0  0  0  0  0  0  0  0
   10.6346   53.6673   91.3412 O   0  0  0  0  0  0  0  0  0  0  0  0
   12.8101   54.0918   90.8312 N   0  0  0  0  0  0  0  0  0  0  0  0
   14.2235   54.3982   91.0610 C   0  0  0  0  0  0  0  0  0  0  0  0
   14.6384   55.2058   89.8251 C   0  0  2  0  0  0  0  0  0  0  0  0
   14.3109   56.5834   89.9955 O   0  0  0  0  0  0  0  0  0  0  0  0
   13.7799   54.6406   88.7128 C   0  0  0  0  0  0  0  0  0  0  0  0
   12.4730   54.2596   89.4173 C   0  0  1  0  0  0  0  0  0  0  0  0
   12.0029   52.9526   88.7982 C   0  0  0  0  0  0  0  0  0  0  0  0
   12.4405   51.8587   89.1549 O   0  0  0  0  0  0  0  0  0  0  0  0
   11.1524   53.1130   87.7270 N   0  0  0  0  0  0  0  0  0  0  0  0
   10.7535   51.9640   86.9649 C   0  0  0  0  0  0  0  0  0  0  0  0
   11.5990   51.7701   85.7452 C   0  0  0  0  0  0  0  0  0  0  0  0
   12.4148   52.7832   85.2215 C   0  0  0  0  0  0  0  0  0  0  0  0
   13.1866   52.5497   84.0935 C   0  0  0  0  0  0  0  0  0  0  0  0
   11.5506   50.5243   85.1160 C   0  0  0  0  0  0  0  0  0  0  0  0
   12.3317   50.2915   84.0014 C   0  0  0  0  0  0  0  0  0  0  0  0
   13.1621   51.2998   83.4824 C   0  0  0  0  0  0  0  0  0  0  0  0
   13.9096   51.0470   82.2619 C   0  0  0  0  0  0  0  0  0  0  0  0
   15.5580   51.4871   82.0925 S   0  0  0  0  0  0  0  0  0  0  0  0
   15.5370   50.8538   80.5088 C   0  0  0  0  0  0  0  0  0  0  0  0
   14.3936   50.3427   80.0925 N   0  0  0  0  0  0  0  0  0  0  0  0
   13.4481   50.4493   81.1007 C   0  0  0  0  0  0  0  0  0  0  0  0
   12.0597   49.9474   80.8747 C   0  0  0  0  0  0  0  0  0  0  0  0
    8.9528   55.6148   94.7984 H   0  0  0  0  0  0  0  0  0  0  0  0
    9.6590   57.2360   94.6720 H   0  0  0  0  0  0  0  0  0  0  0  0
    9.8490   56.2904   96.1730 H   0  0  0  0  0  0  0  0  0  0  0  0
   10.0682   54.0611   93.8034 H   0  0  0  0  0  0  0  0  0  0  0  0
   13.0288   54.3107   93.4666 H   0  0  0  0  0  0  0  0  0  0  0  0
   12.6855   51.3538   95.7192 H   0  0  0  0  0  0  0  0  0  0  0  0
   11.7889   52.8677   95.8735 H   0  0  0  0  0  0  0  0  0  0  0  0
   13.5188   52.9004   95.4800 H   0  0  0  0  0  0  0  0  0  0  0  0
   13.1977   51.5098   92.0187 H   0  0  0  0  0  0  0  0  0  0  0  0
   13.5099   50.5676   93.4797 H   0  0  0  0  0  0  0  0  0  0  0  0
   14.3336   52.1159   93.2395 H   0  0  0  0  0  0  0  0  0  0  0  0
   10.1126   51.9720   94.1834 H   0  0  0  0  0  0  0  0  0  0  0  0
   11.0648   50.4964   94.1056 H   0  0  0  0  0  0  0  0  0  0  0  0
   10.6718   51.3605   92.6147 H   0  0  0  0  0  0  0  0  0  0  0  0
   14.7788   53.4514   91.0943 H   0  0  0  0  0  0  0  0  0  0  0  0
   14.3814   54.9525   91.9865 H   0  0  0  0  0  0  0  0  0  0  0  0
   15.7080   55.1228   89.6104 H   0  0  0  0  0  0  0  0  0  0  0  0
   14.5617   57.0564   89.1830 H   0  0  0  0  0  0  0  0  0  0  0  0
   14.2761   53.7648   88.2736 H   0  0  0  0  0  0  0  0  0  0  0  0
   13.5952   55.3674   87.9159 H   0  0  0  0  0  0  0  0  0  0  0  0
   11.6960   55.0276   89.2978 H   0  0  0  0  0  0  0  0  0  0  0  0
   10.8944   54.0329   87.3942 H   0  0  0  0  0  0  0  0  0  0  0  0
    9.7131   52.0959   86.6640 H   0  0  0  0  0  0  0  0  0  0  0  0
   10.8352   51.0679   87.5906 H   0  0  0  0  0  0  0  0  0  0  0  0
   12.4668   53.7613   85.6799 H   0  0  0  0  0  0  0  0  0  0  0  0
   13.8092   53.3449   83.6952 H   0  0  0  0  0  0  0  0  0  0  0  0
   10.9215   49.7298   85.5079 H   0  0  0  0  0  0  0  0  0  0  0  0
   12.2863   49.3076   83.5454 H   0  0  0  0  0  0  0  0  0  0  0  0
   16.4151   50.8740   79.8869 H   0  0  0  0  0  0  0  0  0  0  0  0
   11.9538   49.5311   79.8691 H   0  0  0  0  0  0  0  0  0  0  0  0
   11.3252   50.7496   81.0078 H   0  0  0  0  0  0  0  0  0  0  0  0
   11.8067   49.1432   81.5795 H   0  0  0  0  0  0  0  0  0  0  0  0
  1  2  1  0  0  0  0
  1 34  1  0  0  0  0
  1 35  1  0  0  0  0
  1 36  1  0  0  0  0
  2  3  2  0  0  0  0
  2  4  1  0  0  0  0
  4  5  1  0  0  0  0
  4 37  1  0  0  0  0
  5  6  1  0  0  0  0
  5 10  1  0  0  0  0
  5 38  1  1  0  0  0
  6  7  1  0  0  0  0
  6  8  1  0  0  0  0
  6  9  1  0  0  0  0
  7 39  1  0  0  0  0
  7 40  1  0  0  0  0
  7 41  1  0  0  0  0
  8 42  1  0  0  0  0
  8 43  1  0  0  0  0
  8 44  1  0  0  0  0
  9 45  1  0  0  0  0
  9 46  1  0  0  0  0
  9 47  1  0  0  0  0
 10 11  2  0  0  0  0
 10 12  1  0  0  0  0
 12 13  1  0  0  0  0
 12 17  1  0  0  0  0
 13 14  1  0  0  0  0
 13 48  1  0  0  0  0
 13 49  1  0  0  0  0
 14 15  1  0  0  0  0
 14 16  1  0  0  0  0
 14 50  1  6  0  0  0
 15 51  1  0  0  0  0
 16 17  1  0  0  0  0
 16 52  1  0  0  0  0
 16 53  1  0  0  0  0
 17 18  1  0  0  0  0
 17 54  1  6  0  0  0
 18 19  2  0  0  0  0
 18 20  1  0  0  0  0
 20 21  1  0  0  0  0
 20 55  1  0  0  0  0
 21 22  1  0  0  0  0
 21 56  1  0  0  0  0
 21 57  1  0  0  0  0
 22 23  2  0  0  0  0
 22 25  1  0  0  0  0
 23 24  1  0  0  0  0
 23 58  1  0  0  0  0
 24 27  2  0  0  0  0
 24 59  1  0  0  0  0
 25 26  2  0  0  0  0
 25 60  1  0  0  0  0
 26 27  1  0  0  0  0
 26 61  1  0  0  0  0
 27 28  1  0  0  0  0
 28 29  1  0  0  0  0
 28 32  2  0  0  0  0
 29 30  1  0  0  0  0
 30 31  2  0  0  0  0
 30 62  1  0  0  0  0
 31 32  1  0  0  0  0
 32 33  1  0  0  0  0
 33 63  1  0  0  0  0
 33 64  1  0  0  0  0
 33 65  1  0  0  0  0
M  END
$$$$
