3JJ
 OpenBabel04111922183D

 84 86  0  0  1  0  0  0  0  0999 V2000
   11.2345   53.6660   97.5805 C   0  0  0  0  0  0  0  0  0  0  0  0
   11.4836   55.1437   97.7185 C   0  0  0  0  0  0  0  0  0  0  0  0
   12.1086   55.6029   98.6736 O   0  0  0  0  0  0  0  0  0  0  0  0
   10.9605   55.9822   96.7844 N   0  0  0  0  0  0  0  0  0  0  0  0
   10.2938   55.6039   95.5467 C   0  0  1  0  0  0  0  0  0  0  0  0
    9.1001   56.5097   95.2236 C   0  0  0  0  0  0  0  0  0  0  0  0
    9.5486   57.9145   94.8313 C   0  0  0  0  0  0  0  0  0  0  0  0
    8.2119   56.5938   96.4803 C   0  0  0  0  0  0  0  0  0  0  0  0
    8.2607   55.8811   94.1012 C   0  0  0  0  0  0  0  0  0  0  0  0
   11.3913   55.4785   94.4694 C   0  0  0  0  0  0  0  0  0  0  0  0
   12.3090   56.2877   94.3268 O   0  0  0  0  0  0  0  0  0  0  0  0
   11.3029   54.3162   93.7553 N   0  0  0  0  0  0  0  0  0  0  0  0
   12.3673   53.8267   92.8813 C   0  0  1  0  0  0  0  0  0  0  0  0
   12.6343   52.3357   93.2428 C   0  0  0  0  0  0  0  0  0  0  0  0
   13.6413   51.6935   92.2898 C   0  0  0  0  0  0  0  0  0  0  0  0
   11.3427   51.4887   93.2398 C   0  0  0  0  0  0  0  0  0  0  0  0
   13.2340   52.2940   94.6629 C   0  0  0  0  0  0  0  0  0  0  0  0
   11.9431   54.0832   91.4168 C   0  0  0  0  0  0  0  0  0  0  0  0
   10.7742   53.8954   91.0658 O   0  0  0  0  0  0  0  0  0  0  0  0
   12.9099   54.4829   90.5131 N   0  0  0  0  0  0  0  0  0  0  0  0
   14.3031   54.8366   90.7548 C   0  0  0  0  0  0  0  0  0  0  0  0
   14.7118   55.6728   89.5406 C   0  0  2  0  0  0  0  0  0  0  0  0
   14.4243   57.0486   89.7788 O   0  0  0  0  0  0  0  0  0  0  0  0
   13.8203   55.1884   88.4135 C   0  0  0  0  0  0  0  0  0  0  0  0
   12.5329   54.7230   89.1181 C   0  0  1  0  0  0  0  0  0  0  0  0
   12.0907   53.4323   88.4825 C   0  0  0  0  0  0  0  0  0  0  0  0
   12.6003   52.3407   88.7434 O   0  0  0  0  0  0  0  0  0  0  0  0
   11.1136   53.5928   87.4992 N   0  0  0  0  0  0  0  0  0  0  0  0
   10.7250   52.4594   86.7141 C   0  0  0  0  0  0  0  0  0  0  0  0
   11.5809   52.2949   85.4966 C   0  0  0  0  0  0  0  0  0  0  0  0
   12.4846   53.2753   85.0562 C   0  0  0  0  0  0  0  0  0  0  0  0
   13.2877   53.0551   83.9391 C   0  0  0  0  0  0  0  0  0  0  0  0
   11.4667   51.1006   84.7873 C   0  0  0  0  0  0  0  0  0  0  0  0
   12.2751   50.8855   83.6773 C   0  0  0  0  0  0  0  0  0  0  0  0
   13.1824   51.8455   83.2442 C   0  0  0  0  0  0  0  0  0  0  0  0
   13.9935   51.6237   82.0473 C   0  0  0  0  0  0  0  0  0  0  0  0
   15.6200   52.1692   81.9451 S   0  0  0  0  0  0  0  0  0  0  0  0
   15.7212   51.5161   80.3709 C   0  0  0  0  0  0  0  0  0  0  0  0
   14.6365   50.9267   79.9145 N   0  0  0  0  0  0  0  0  0  0  0  0
   13.6343   50.9828   80.8751 C   0  0  0  0  0  0  0  0  0  0  0  0
   12.3051   50.3770   80.5545 C   0  0  0  0  0  0  0  0  0  0  0  0
   10.7068   53.3769   96.6773 H   0  0  0  0  0  0  0  0  0  0  0  0
   10.6254   53.3297   98.4210 H   0  0  0  0  0  0  0  0  0  0  0  0
   12.1898   53.1393   97.5577 H   0  0  0  0  0  0  0  0  0  0  0  0
   11.2116   56.9582   96.9031 H   0  0  0  0  0  0  0  0  0  0  0  0
    9.8485   54.6184   95.6811 H   0  0  0  0  0  0  0  0  0  0  0  0
    8.6835   58.5489   94.6181 H   0  0  0  0  0  0  0  0  0  0  0  0
   10.1823   57.8963   93.9397 H   0  0  0  0  0  0  0  0  0  0  0  0
   10.1137   58.3852   95.6421 H   0  0  0  0  0  0  0  0  0  0  0  0
    7.8770   55.5955   96.7881 H   0  0  0  0  0  0  0  0  0  0  0  0
    7.3294   57.2120   96.2981 H   0  0  0  0  0  0  0  0  0  0  0  0
    8.7544   57.0354   97.3233 H   0  0  0  0  0  0  0  0  0  0  0  0
    8.8307   55.7912   93.1719 H   0  0  0  0  0  0  0  0  0  0  0  0
    7.3698   56.4841   93.8990 H   0  0  0  0  0  0  0  0  0  0  0  0
    7.9193   54.8768   94.3847 H   0  0  0  0  0  0  0  0  0  0  0  0
   10.4687   53.7546   93.8413 H   0  0  0  0  0  0  0  0  0  0  0  0
   13.2657   54.4105   93.0898 H   0  0  0  0  0  0  0  0  0  0  0  0
   13.8255   50.6510   92.5679 H   0  0  0  0  0  0  0  0  0  0  0  0
   14.6003   52.2193   92.3195 H   0  0  0  0  0  0  0  0  0  0  0  0
   13.2714   51.6957   91.2612 H   0  0  0  0  0  0  0  0  0  0  0  0
   10.5848   51.8683   93.9306 H   0  0  0  0  0  0  0  0  0  0  0  0
   11.5444   50.4637   93.5670 H   0  0  0  0  0  0  0  0  0  0  0  0
   10.8959   51.4481   92.2413 H   0  0  0  0  0  0  0  0  0  0  0  0
   14.1546   52.8861   94.7228 H   0  0  0  0  0  0  0  0  0  0  0  0
   13.4637   51.2697   94.9706 H   0  0  0  0  0  0  0  0  0  0  0  0
   12.5348   52.7021   95.3916 H   0  0  0  0  0  0  0  0  0  0  0  0
   14.8865   53.9112   90.8009 H   0  0  0  0  0  0  0  0  0  0  0  0
   14.4117   55.3967   91.6848 H   0  0  0  0  0  0  0  0  0  0  0  0
   15.7773   55.5735   89.3098 H   0  0  0  0  0  0  0  0  0  0  0  0
   14.6507   57.5428   88.9726 H   0  0  0  0  0  0  0  0  0  0  0  0
   14.3145   54.3714   87.8724 H   0  0  0  0  0  0  0  0  0  0  0  0
   13.6035   55.9841   87.6926 H   0  0  0  0  0  0  0  0  0  0  0  0
   11.7534   55.4894   89.0804 H   0  0  0  0  0  0  0  0  0  0  0  0
   10.8068   54.5103   87.2417 H   0  0  0  0  0  0  0  0  0  0  0  0
    9.6909   52.6076   86.4171 H   0  0  0  0  0  0  0  0  0  0  0  0
   10.8042   51.5572   87.3296 H   0  0  0  0  0  0  0  0  0  0  0  0
   12.5957   54.2166   85.5841 H   0  0  0  0  0  0  0  0  0  0  0  0
   13.9794   53.8334   83.6311 H   0  0  0  0  0  0  0  0  0  0  0  0
   10.7744   50.3236   85.1030 H   0  0  0  0  0  0  0  0  0  0  0  0
   12.1745   49.9272   83.1848 H   0  0  0  0  0  0  0  0  0  0  0  0
   16.6326   51.5893   79.7942 H   0  0  0  0  0  0  0  0  0  0  0  0
   12.2750   49.9566   79.5599 H   0  0  0  0  0  0  0  0  0  0  0  0
   11.5069   51.1407   80.6409 H   0  0  0  0  0  0  0  0  0  0  0  0
   12.0555   49.5718   81.2437 H   0  0  0  0  0  0  0  0  0  0  0  0
  1  2  1  0  0  0  0
  1 42  1  0  0  0  0
  1 43  1  0  0  0  0
  1 44  1  0  0  0  0
  2  3  2  0  0  0  0
  2  4  1  0  0  0  0
  4  5  1  0  0  0  0
  4 45  1  0  0  0  0
  5  6  1  0  0  0  0
  5 10  1  0  0  0  0
  5 46  1  1  0  0  0
  6  7  1  0  0  0  0
  6  8  1  0  0  0  0
  6  9  1  0  0  0  0
  7 47  1  0  0  0  0
  7 48  1  0  0  0  0
  7 49  1  0  0  0  0
  8 50  1  0  0  0  0
  8 51  1  0  0  0  0
  8 52  1  0  0  0  0
  9 53  1  0  0  0  0
  9 54  1  0  0  0  0
  9 55  1  0  0  0  0
 10 11  2  0  0  0  0
 10 12  1  0  0  0  0
 12 13  1  0  0  0  0
 12 56  1  0  0  0  0
 13 14  1  0  0  0  0
 13 18  1  0  0  0  0
 13 57  1  1  0  0  0
 14 15  1  0  0  0  0
 14 16  1  0  0  0  0
 14 17  1  0  0  0  0
 15 58  1  0  0  0  0
 15 59  1  0  0  0  0
 15 60  1  0  0  0  0
 16 61  1  0  0  0  0
 16 62  1  0  0  0  0
 16 63  1  0  0  0  0
 17 64  1  0  0  0  0
 17 65  1  0  0  0  0
 17 66  1  0  0  0  0
 18 19  2  0  0  0  0
 18 20  1  0  0  0  0
 20 21  1  0  0  0  0
 20 25  1  0  0  0  0
 21 22  1  0  0  0  0
 21 67  1  0  0  0  0
 21 68  1  0  0  0  0
 22 23  1  0  0  0  0
 22 24  1  0  0  0  0
 22 69  1  6  0  0  0
 23 70  1  0  0  0  0
 24 25  1  0  0  0  0
 24 71  1  0  0  0  0
 24 72  1  0  0  0  0
 25 26  1  0  0  0  0
 25 73  1  6  0  0  0
 26 27  2  0  0  0  0
 26 28  1  0  0  0  0
 28 29  1  0  0  0  0
 28 74  1  0  0  0  0
 29 30  1  0  0  0  0
 29 75  1  0  0  0  0
 29 76  1  0  0  0  0
 30 31  2  0  0  0  0
 30 33  1  0  0  0  0
 31 32  1  0  0  0  0
 31 77  1  0  0  0  0
 32 35  2  0  0  0  0
 32 78  1  0  0  0  0
 33 34  2  0  0  0  0
 33 79  1  0  0  0  0
 34 35  1  0  0  0  0
 34 80  1  0  0  0  0
 35 36  1  0  0  0  0
 36 37  1  0  0  0  0
 36 40  2  0  0  0  0
 37 38  1  0  0  0  0
 38 39  2  0  0  0  0
 38 81  1  0  0  0  0
 39 40  1  0  0  0  0
 40 41  1  0  0  0  0
 41 82  1  0  0  0  0
 41 83  1  0  0  0  0
 41 84  1  0  0  0  0
M  END
$$$$
