3JK
 OpenBabel04111922163D

 58 60  0  0  1  0  0  0  0  0999 V2000
   11.4480   52.1802   94.2660 C   0  0  0  0  0  0  0  0  0  0  0  0
   12.8506   52.8040   94.2460 C   0  0  0  0  0  0  0  0  0  0  0  0
   13.7942   51.9311   93.4112 C   0  0  0  0  0  0  0  0  0  0  0  0
   13.3620   52.8834   95.6975 C   0  0  0  0  0  0  0  0  0  0  0  0
   12.8052   54.2333   93.6735 C   0  0  0  0  0  0  0  0  0  0  0  0
   12.3496   54.3140   92.2173 C   0  0  0  0  0  0  0  0  0  0  0  0
   11.1583   54.1624   91.9305 O   0  0  0  0  0  0  0  0  0  0  0  0
   13.2874   54.5424   91.2351 N   0  0  0  0  0  0  0  0  0  0  0  0
   14.7130   54.8117   91.3820 C   0  0  0  0  0  0  0  0  0  0  0  0
   15.0486   55.6837   90.1742 C   0  0  2  0  0  0  0  0  0  0  0  0
   14.7048   57.0402   90.4527 O   0  0  0  0  0  0  0  0  0  0  0  0
   14.1423   55.1384   89.0867 C   0  0  0  0  0  0  0  0  0  0  0  0
   12.8639   54.7359   89.8426 C   0  0  1  0  0  0  0  0  0  0  0  0
   12.3492   53.4358   89.2226 C   0  0  0  0  0  0  0  0  0  0  0  0
   12.8403   52.3531   89.4872 O   0  0  0  0  0  0  0  0  0  0  0  0
   11.3994   53.6090   88.2284 N   0  0  0  0  0  0  0  0  0  0  0  0
   10.9587   52.4773   87.4595 C   0  0  0  0  0  0  0  0  0  0  0  0
   11.7982   52.2303   86.2353 C   0  0  0  0  0  0  0  0  0  0  0  0
   11.5312   51.0961   85.4644 C   0  0  0  0  0  0  0  0  0  0  0  0
   12.3190   50.8162   84.3534 C   0  0  0  0  0  0  0  0  0  0  0  0
   12.8495   53.0776   85.8586 C   0  0  0  0  0  0  0  0  0  0  0  0
   13.6329   52.7992   84.7461 C   0  0  0  0  0  0  0  0  0  0  0  0
   13.3766   51.6632   83.9831 C   0  0  0  0  0  0  0  0  0  0  0  0
   14.1577   51.3993   82.7897 C   0  0  0  0  0  0  0  0  0  0  0  0
   15.4621   51.8034   82.7611 O   0  0  0  0  0  0  0  0  0  0  0  0
   15.8859   51.3952   81.5279 C   0  0  0  0  0  0  0  0  0  0  0  0
   14.9753   50.8099   80.7858 N   0  0  0  0  0  0  0  0  0  0  0  0
   13.8528   50.8100   81.5889 C   0  0  0  0  0  0  0  0  0  0  0  0
   12.5585   50.2629   81.1362 C   0  0  0  0  0  0  0  0  0  0  0  0
   11.4756   51.1564   94.6528 H   0  0  0  0  0  0  0  0  0  0  0  0
   11.0137   52.1301   93.2643 H   0  0  0  0  0  0  0  0  0  0  0  0
   10.7696   52.7644   94.8982 H   0  0  0  0  0  0  0  0  0  0  0  0
   14.8036   52.3561   93.3854 H   0  0  0  0  0  0  0  0  0  0  0  0
   13.4398   51.8451   92.3786 H   0  0  0  0  0  0  0  0  0  0  0  0
   13.8628   50.9177   93.8183 H   0  0  0  0  0  0  0  0  0  0  0  0
   12.7007   53.5082   96.3105 H   0  0  0  0  0  0  0  0  0  0  0  0
   14.3650   53.3219   95.7447 H   0  0  0  0  0  0  0  0  0  0  0  0
   13.4047   51.8918   96.1610 H   0  0  0  0  0  0  0  0  0  0  0  0
   13.7808   54.7036   93.8073 H   0  0  0  0  0  0  0  0  0  0  0  0
   12.1107   54.8412   94.2687 H   0  0  0  0  0  0  0  0  0  0  0  0
   15.2470   53.8562   91.3277 H   0  0  0  0  0  0  0  0  0  0  0  0
   14.9393   55.3186   92.3185 H   0  0  0  0  0  0  0  0  0  0  0  0
   16.1086   55.6389   89.9101 H   0  0  0  0  0  0  0  0  0  0  0  0
   14.9164   57.5722   89.6673 H   0  0  0  0  0  0  0  0  0  0  0  0
   14.6230   54.2708   88.6171 H   0  0  0  0  0  0  0  0  0  0  0  0
   13.9275   55.8733   88.3055 H   0  0  0  0  0  0  0  0  0  0  0  0
   12.0934   55.5126   89.7957 H   0  0  0  0  0  0  0  0  0  0  0  0
   11.0712   54.5298   87.9799 H   0  0  0  0  0  0  0  0  0  0  0  0
    9.9251   52.6640   87.1520 H   0  0  0  0  0  0  0  0  0  0  0  0
   10.9862   51.5816   88.0916 H   0  0  0  0  0  0  0  0  0  0  0  0
   10.7293   50.4124   85.7337 H   0  0  0  0  0  0  0  0  0  0  0  0
   12.1018   49.9104   83.7994 H   0  0  0  0  0  0  0  0  0  0  0  0
   13.0899   53.9614   86.4390 H   0  0  0  0  0  0  0  0  0  0  0  0
   14.4408   53.4736   84.4741 H   0  0  0  0  0  0  0  0  0  0  0  0
   16.9228   51.5892   81.2789 H   0  0  0  0  0  0  0  0  0  0  0  0
   12.6231   49.8645   80.1256 H   0  0  0  0  0  0  0  0  0  0  0  0
   11.7760   51.0343   81.1628 H   0  0  0  0  0  0  0  0  0  0  0  0
   12.2325   49.4431   81.7865 H   0  0  0  0  0  0  0  0  0  0  0  0
  1  2  1  0  0  0  0
  1 30  1  0  0  0  0
  1 31  1  0  0  0  0
  1 32  1  0  0  0  0
  2  3  1  0  0  0  0
  2  4  1  0  0  0  0
  2  5  1  0  0  0  0
  3 33  1  0  0  0  0
  3 34  1  0  0  0  0
  3 35  1  0  0  0  0
  4 36  1  0  0  0  0
  4 37  1  0  0  0  0
  4 38  1  0  0  0  0
  5  6  1  0  0  0  0
  5 39  1  0  0  0  0
  5 40  1  0  0  0  0
  6  7  2  0  0  0  0
  6  8  1  0  0  0  0
  8  9  1  0  0  0  0
  8 13  1  0  0  0  0
  9 10  1  0  0  0  0
  9 41  1  0  0  0  0
  9 42  1  0  0  0  0
 10 11  1  0  0  0  0
 10 12  1  0  0  0  0
 10 43  1  6  0  0  0
 11 44  1  0  0  0  0
 12 13  1  0  0  0  0
 12 45  1  0  0  0  0
 12 46  1  0  0  0  0
 13 14  1  0  0  0  0
 13 47  1  6  0  0  0
 14 15  2  0  0  0  0
 14 16  1  0  0  0  0
 16 17  1  0  0  0  0
 16 48  1  0  0  0  0
 17 18  1  0  0  0  0
 17 49  1  0  0  0  0
 17 50  1  0  0  0  0
 18 19  2  0  0  0  0
 18 21  1  0  0  0  0
 19 20  1  0  0  0  0
 19 51  1  0  0  0  0
 20 23  2  0  0  0  0
 20 52  1  0  0  0  0
 21 22  2  0  0  0  0
 21 53  1  0  0  0  0
 22 23  1  0  0  0  0
 22 54  1  0  0  0  0
 23 24  1  0  0  0  0
 24 25  1  0  0  0  0
 24 28  2  0  0  0  0
 25 26  1  0  0  0  0
 26 27  2  0  0  0  0
 26 55  1  0  0  0  0
 27 28  1  0  0  0  0
 28 29  1  0  0  0  0
 29 56  1  0  0  0  0
 29 57  1  0  0  0  0
 29 58  1  0  0  0  0
M  END
$$$$
