3JO
 OpenBabel04111922173D

 85 88  0  0  1  0  0  0  0  0999 V2000
   12.4349   50.4838   80.5730 C   0  0  0  0  0  0  0  0  0  0  0  0
   13.7829   51.0635   80.8650 C   0  0  0  0  0  0  0  0  0  0  0  0
   14.7721   51.0291   79.8929 N   0  0  0  0  0  0  0  0  0  0  0  0
   15.8700   51.5988   80.3440 C   0  0  0  0  0  0  0  0  0  0  0  0
   15.7979   52.2129   81.9352 S   0  0  0  0  0  0  0  0  0  0  0  0
   14.1744   51.6658   82.0440 C   0  0  0  0  0  0  0  0  0  0  0  0
   13.3962   51.8648   83.2462 C   0  0  0  0  0  0  0  0  0  0  0  0
   13.4804   53.0740   83.9235 C   0  0  0  0  0  0  0  0  0  0  0  0
   12.7006   53.2805   85.0384 C   0  0  0  0  0  0  0  0  0  0  0  0
   12.5195   50.8647   83.6885 C   0  0  0  0  0  0  0  0  0  0  0  0
   11.7178   51.0762   84.7883 C   0  0  0  0  0  0  0  0  0  0  0  0
   11.8266   52.2820   85.4800 C   0  0  0  0  0  0  0  0  0  0  0  0
   10.9726   52.4544   86.6945 C   0  0  0  0  0  0  0  0  0  0  0  0
   11.3791   53.5780   87.4824 N   0  0  0  0  0  0  0  0  0  0  0  0
   12.2881   53.4186   88.5025 C   0  0  0  0  0  0  0  0  0  0  0  0
   12.7460   52.3585   88.8336 O   0  0  0  0  0  0  0  0  0  0  0  0
   12.7486   54.7335   89.1079 C   0  0  2  0  0  0  0  0  0  0  0  0
   14.0437   55.1385   88.3874 C   0  0  0  0  0  0  0  0  0  0  0  0
   14.9109   55.6882   89.5027 C   0  0  1  0  0  0  0  0  0  0  0  0
   14.5431   57.0498   89.7210 O   0  0  0  0  0  0  0  0  0  0  0  0
   14.5366   54.8100   90.7008 C   0  0  0  0  0  0  0  0  0  0  0  0
   13.1070   54.5533   90.5133 N   0  0  0  0  0  0  0  0  0  0  0  0
   12.1015   54.3298   91.4386 C   0  0  0  0  0  0  0  0  0  0  0  0
   10.9243   54.1911   91.0802 O   0  0  0  0  0  0  0  0  0  0  0  0
   12.4627   54.2162   92.9381 C   0  0  2  0  0  0  0  0  0  0  0  0
   12.6815   52.7630   93.4292 C   0  0  0  0  0  0  0  0  0  0  0  0
   11.3754   51.9437   93.4269 C   0  0  0  0  0  0  0  0  0  0  0  0
   13.2148   52.8072   94.8713 C   0  0  0  0  0  0  0  0  0  0  0  0
   13.7171   52.0460   92.5707 C   0  0  0  0  0  0  0  0  0  0  0  0
   11.3399   54.7703   93.6879 N   0  0  0  0  0  0  0  0  0  0  0  0
   11.3306   55.9465   94.3796 C   0  0  0  0  0  0  0  0  0  0  0  0
   12.2939   56.6975   94.4553 O   0  0  0  0  0  0  0  0  0  0  0  0
    9.9958   56.1632   95.0888 C   0  0  1  0  0  0  0  0  0  0  0  0
    9.8487   55.0774   96.0723 N   0  0  0  0  0  0  0  0  0  0  0  0
    8.8533   54.1361   96.0298 C   0  0  0  0  0  0  0  0  0  0  0  0
    7.9972   54.0837   95.1563 O   0  0  0  0  0  0  0  0  0  0  0  0
    8.9443   53.1296   97.1438 C   0  0  0  0  0  0  0  0  0  0  0  0
    9.9634   57.5096   95.7892 C   0  0  0  0  0  0  0  0  0  0  0  0
    8.5944   57.6819   96.3833 C   0  0  0  0  0  0  0  0  0  0  0  0
    7.5003   57.8650   95.5268 C   0  0  0  0  0  0  0  0  0  0  0  0
    6.2240   57.9443   96.0625 C   0  0  0  0  0  0  0  0  0  0  0  0
    6.0379   57.8378   97.4408 C   0  0  0  0  0  0  0  0  0  0  0  0
    7.1302   57.6435   98.2888 C   0  0  0  0  0  0  0  0  0  0  0  0
    8.4105   57.5607   97.7590 C   0  0  0  0  0  0  0  0  0  0  0  0
   11.7236   50.5993   81.4006 H   0  0  0  0  0  0  0  0  0  0  0  0
   12.5198   49.4170   80.3700 H   0  0  0  0  0  0  0  0  0  0  0  0
   11.9723   50.9920   79.7301 H   0  0  0  0  0  0  0  0  0  0  0  0
   16.7665   51.6789   79.7524 H   0  0  0  0  0  0  0  0  0  0  0  0
   14.1578   53.8545   83.5850 H   0  0  0  0  0  0  0  0  0  0  0  0
   12.8035   54.2190   85.5715 H   0  0  0  0  0  0  0  0  0  0  0  0
   12.4387   49.9118   83.1734 H   0  0  0  0  0  0  0  0  0  0  0  0
   11.0272   50.3041   85.1181 H   0  0  0  0  0  0  0  0  0  0  0  0
   11.0363   51.5319   87.2866 H   0  0  0  0  0  0  0  0  0  0  0  0
    9.9454   52.6148   86.3630 H   0  0  0  0  0  0  0  0  0  0  0  0
   11.0932   54.5053   87.1992 H   0  0  0  0  0  0  0  0  0  0  0  0
   11.9559   55.4851   88.9981 H   0  0  0  0  0  0  0  0  0  0  0  0
   13.8409   55.8764   87.6060 H   0  0  0  0  0  0  0  0  0  0  0  0
   14.5392   54.2727   87.9236 H   0  0  0  0  0  0  0  0  0  0  0  0
   15.9733   55.6459   89.2481 H   0  0  0  0  0  0  0  0  0  0  0  0
   15.0899   57.4073   90.4426 H   0  0  0  0  0  0  0  0  0  0  0  0
   14.7474   55.3030   91.6476 H   0  0  0  0  0  0  0  0  0  0  0  0
   15.0800   53.8573   90.6414 H   0  0  0  0  0  0  0  0  0  0  0  0
   13.3534   54.8180   93.1375 H   0  0  0  0  0  0  0  0  0  0  0  0
   11.5512   50.9236   93.7801 H   0  0  0  0  0  0  0  0  0  0  0  0
   10.9430   51.8897   92.4236 H   0  0  0  0  0  0  0  0  0  0  0  0
   10.6233   52.3740   94.0973 H   0  0  0  0  0  0  0  0  0  0  0  0
   14.1468   53.3814   94.9192 H   0  0  0  0  0  0  0  0  0  0  0  0
   13.4164   51.7962   95.2391 H   0  0  0  0  0  0  0  0  0  0  0  0
   12.4921   53.2745   95.5484 H   0  0  0  0  0  0  0  0  0  0  0  0
   13.3844   51.9769   91.5323 H   0  0  0  0  0  0  0  0  0  0  0  0
   13.8818   51.0282   92.9370 H   0  0  0  0  0  0  0  0  0  0  0  0
   14.6726   52.5781   92.6015 H   0  0  0  0  0  0  0  0  0  0  0  0
   10.4643   54.2561   93.6694 H   0  0  0  0  0  0  0  0  0  0  0  0
    9.1897   56.1103   94.3418 H   0  0  0  0  0  0  0  0  0  0  0  0
   10.4862   55.0806   96.8558 H   0  0  0  0  0  0  0  0  0  0  0  0
    8.1472   52.3902   97.0273 H   0  0  0  0  0  0  0  0  0  0  0  0
    8.8306   53.6274   98.1106 H   0  0  0  0  0  0  0  0  0  0  0  0
    9.9098   52.6151   97.1062 H   0  0  0  0  0  0  0  0  0  0  0  0
   10.1501   58.3388   95.0955 H   0  0  0  0  0  0  0  0  0  0  0  0
   10.7219   57.5550   96.5815 H   0  0  0  0  0  0  0  0  0  0  0  0
    7.6495   57.8957   94.4474 H   0  0  0  0  0  0  0  0  0  0  0  0
    5.3699   58.0570   95.4101 H   0  0  0  0  0  0  0  0  0  0  0  0
    5.0357   57.8937   97.8630 H   0  0  0  0  0  0  0  0  0  0  0  0
    6.9837   57.5504   99.3616 H   0  0  0  0  0  0  0  0  0  0  0  0
    9.2625   57.3674   98.4149 H   0  0  0  0  0  0  0  0  0  0  0  0
  1  2  1  0  0  0  0
  1 45  1  0  0  0  0
  1 46  1  0  0  0  0
  1 47  1  0  0  0  0
  2  3  1  0  0  0  0
  2  6  2  0  0  0  0
  3  4  2  0  0  0  0
  4  5  1  0  0  0  0
  4 48  1  0  0  0  0
  5  6  1  0  0  0  0
  6  7  1  0  0  0  0
  7  8  2  0  0  0  0
  7 10  1  0  0  0  0
  8  9  1  0  0  0  0
  8 49  1  0  0  0  0
  9 12  2  0  0  0  0
  9 50  1  0  0  0  0
 10 11  2  0  0  0  0
 10 51  1  0  0  0  0
 11 12  1  0  0  0  0
 11 52  1  0  0  0  0
 12 13  1  0  0  0  0
 13 14  1  0  0  0  0
 13 53  1  0  0  0  0
 13 54  1  0  0  0  0
 14 15  1  0  0  0  0
 14 55  1  0  0  0  0
 15 16  2  0  0  0  0
 15 17  1  0  0  0  0
 17 18  1  0  0  0  0
 17 22  1  0  0  0  0
 17 56  1  6  0  0  0
 18 19  1  0  0  0  0
 18 57  1  0  0  0  0
 18 58  1  0  0  0  0
 19 20  1  0  0  0  0
 19 21  1  0  0  0  0
 19 59  1  6  0  0  0
 20 60  1  0  0  0  0
 21 22  1  0  0  0  0
 21 61  1  0  0  0  0
 21 62  1  0  0  0  0
 22 23  1  0  0  0  0
 23 24  2  0  0  0  0
 23 25  1  0  0  0  0
 25 26  1  0  0  0  0
 25 30  1  0  0  0  0
 25 63  1  1  0  0  0
 26 27  1  0  0  0  0
 26 28  1  0  0  0  0
 26 29  1  0  0  0  0
 27 64  1  0  0  0  0
 27 65  1  0  0  0  0
 27 66  1  0  0  0  0
 28 67  1  0  0  0  0
 28 68  1  0  0  0  0
 28 69  1  0  0  0  0
 29 70  1  0  0  0  0
 29 71  1  0  0  0  0
 29 72  1  0  0  0  0
 30 31  1  0  0  0  0
 30 73  1  0  0  0  0
 31 32  2  0  0  0  0
 31 33  1  0  0  0  0
 33 34  1  0  0  0  0
 33 38  1  0  0  0  0
 33 74  1  6  0  0  0
 34 35  1  0  0  0  0
 34 75  1  0  0  0  0
 35 36  2  0  0  0  0
 35 37  1  0  0  0  0
 37 76  1  0  0  0  0
 37 77  1  0  0  0  0
 37 78  1  0  0  0  0
 38 39  1  0  0  0  0
 38 79  1  0  0  0  0
 38 80  1  0  0  0  0
 39 40  2  0  0  0  0
 39 44  1  0  0  0  0
 40 41  1  0  0  0  0
 40 81  1  0  0  0  0
 41 42  2  0  0  0  0
 41 82  1  0  0  0  0
 42 43  1  0  0  0  0
 42 83  1  0  0  0  0
 43 44  2  0  0  0  0
 43 84  1  0  0  0  0
 44 85  1  0  0  0  0
M  END
$$$$
