3MH
 OpenBabel04111921173D

 15 15  0  0  0  0  0  0  0  0999 V2000
   14.9398    0.1387   17.0225 S   0  0  0  0  0  0  0  0  0  0  0  0
   15.4253    1.2991   15.8794 C   0  0  0  0  0  0  0  0  0  0  0  0
   15.0247    2.7537   15.9927 C   0  0  0  0  0  0  0  0  0  0  0  0
   14.2350    3.1389   17.2023 C   0  0  0  0  0  0  0  0  0  0  0  0
   15.3713    3.6275   15.0645 C   0  0  0  0  0  0  0  0  0  0  0  0
   16.1716    3.2414   13.9306 C   0  0  0  0  0  0  0  0  0  0  0  0
   16.5271    1.9611   13.7828 C   0  0  0  0  0  0  0  0  0  0  0  0
   16.1913    1.0328   14.7434 N   0  0  0  0  0  0  0  0  0  0  0  0
   16.6071   -0.2732   14.5032 O   0  0  0  0  0  0  0  0  0  0  0  0
   14.0010    4.1963   17.1567 H   0  0  0  0  0  0  0  0  0  0  0  0
   14.8244    2.9434   18.1011 H   0  0  0  0  0  0  0  0  0  0  0  0
   13.3045    2.5702   17.2454 H   0  0  0  0  0  0  0  0  0  0  0  0
   15.0514    4.6728   15.1455 H   0  0  0  0  0  0  0  0  0  0  0  0
   16.4661    4.0012   13.2277 H   0  0  0  0  0  0  0  0  0  0  0  0
   17.0833    1.6219   12.9119 H   0  0  0  0  0  0  0  0  0  0  0  0
  1  2  2  0  0  0  0
  2  3  1  0  0  0  0
  2  8  1  0  0  0  0
  3  4  1  0  0  0  0
  3  5  2  0  0  0  0
  4 10  1  0  0  0  0
  4 11  1  0  0  0  0
  4 12  1  0  0  0  0
  5  6  1  0  0  0  0
  5 13  1  0  0  0  0
  6  7  2  0  0  0  0
  6 14  1  0  0  0  0
  7  8  1  0  0  0  0
  7 15  1  0  0  0  0
  8  9  1  0  0  0  0
M  END
$$$$
