3O1
 OpenBabel04111921413D

 47 47  0  0  0  0  0  0  0  0999 V2000
   23.7319   11.0406   12.7931 C   0  0  0  0  0  0  0  0  0  0  0  0
   24.1700   11.8947   13.9582 C   0  0  0  0  0  0  0  0  0  0  0  0
   24.7484   13.1941   13.4404 C   0  0  0  0  0  0  0  0  0  0  0  0
   25.2257   11.1688   14.7555 C   0  0  0  0  0  0  0  0  0  0  0  0
   23.1281   12.2082   14.8877 O   0  0  0  0  0  0  0  0  0  0  0  0
   21.8387   11.9017   14.6100 C   0  0  0  0  0  0  0  0  0  0  0  0
   21.0359   12.7411   14.2529 O   0  0  0  0  0  0  0  0  0  0  0  0
   21.5139   10.5497   14.8465 N   0  0  0  0  0  0  0  0  0  0  0  0
   20.2400   10.2031   14.2335 C   0  0  0  0  0  0  0  0  0  0  0  0
   19.5638    8.9353   14.6911 C   0  0  0  0  0  0  0  0  0  0  0  0
   19.3190    7.8922   13.6012 C   0  0  0  0  0  0  0  0  0  0  0  0
   18.9380    6.5034   14.1229 C   0  0  0  0  0  0  0  0  0  0  0  0
   17.5638    6.1585   13.8906 O   0  0  0  0  0  0  0  0  0  0  0  0
   17.1181    5.0656   14.6007 C   0  0  0  0  0  0  0  0  0  0  0  0
   15.7845    5.0701   15.0125 C   0  0  0  0  0  0  0  0  0  0  0  0
   15.2513    3.9852   15.7228 C   0  0  0  0  0  0  0  0  0  0  0  0
   16.0495    2.8815   16.0176 C   0  0  0  0  0  0  0  0  0  0  0  0
   15.3614    1.5512   16.9967 S   0  0  0  0  0  0  0  0  0  0  0  0
   15.9830    1.5940   18.2847 O   0  0  0  0  0  0  0  0  0  0  0  0
   13.9243    1.5879   16.8861 O   0  0  0  0  0  0  0  0  0  0  0  0
   15.8946    0.1391   16.2376 N   0  0  0  0  0  0  0  0  0  0  0  0
   17.3782    2.8666   15.5987 C   0  0  0  0  0  0  0  0  0  0  0  0
   17.9056    3.9540   14.8892 C   0  0  0  0  0  0  0  0  0  0  0  0
   24.5887   10.8286   12.1596 H   0  0  0  0  0  0  0  0  0  0  0  0
   22.9671   11.5743   12.2257 H   0  0  0  0  0  0  0  0  0  0  0  0
   23.3158   10.1076   13.1731 H   0  0  0  0  0  0  0  0  0  0  0  0
   25.0610   13.8232   14.2793 H   0  0  0  0  0  0  0  0  0  0  0  0
   23.9894   13.7284   12.8633 H   0  0  0  0  0  0  0  0  0  0  0  0
   25.6088   12.9783   12.8043 H   0  0  0  0  0  0  0  0  0  0  0  0
   24.8056   10.2400   15.1493 H   0  0  0  0  0  0  0  0  0  0  0  0
   25.5511   11.7916   15.5947 H   0  0  0  0  0  0  0  0  0  0  0  0
   26.0761   10.9460   14.1119 H   0  0  0  0  0  0  0  0  0  0  0  0
   22.0412    9.9449   15.4278 H   0  0  0  0  0  0  0  0  0  0  0  0
   20.4387   10.1746   13.1641 H   0  0  0  0  0  0  0  0  0  0  0  0
   19.5735   11.0351   14.4626 H   0  0  0  0  0  0  0  0  0  0  0  0
   18.5786    9.2335   15.0635 H   0  0  0  0  0  0  0  0  0  0  0  0
   20.1553    8.4841   15.4897 H   0  0  0  0  0  0  0  0  0  0  0  0
   20.2571    7.7770   13.0462 H   0  0  0  0  0  0  0  0  0  0  0  0
   18.5281    8.2592   12.9382 H   0  0  0  0  0  0  0  0  0  0  0  0
   19.1361    6.4642   15.2007 H   0  0  0  0  0  0  0  0  0  0  0  0
   19.5685    5.7884   13.5800 H   0  0  0  0  0  0  0  0  0  0  0  0
   15.1484    5.9237   14.7986 H   0  0  0  0  0  0  0  0  0  0  0  0
   14.2155    4.0118   16.0503 H   0  0  0  0  0  0  0  0  0  0  0  0
   15.6134   -0.7532   16.6517 H   0  0  0  0  0  0  0  0  0  0  0  0
   16.5081    0.1477   15.4329 H   0  0  0  0  0  0  0  0  0  0  0  0
   18.0215    2.0226   15.8242 H   0  0  0  0  0  0  0  0  0  0  0  0
   18.9385    3.9229   14.5629 H   0  0  0  0  0  0  0  0  0  0  0  0
  1  2  1  0  0  0  0
  1 24  1  0  0  0  0
  1 25  1  0  0  0  0
  1 26  1  0  0  0  0
  2  3  1  0  0  0  0
  2  4  1  0  0  0  0
  2  5  1  0  0  0  0
  3 27  1  0  0  0  0
  3 28  1  0  0  0  0
  3 29  1  0  0  0  0
  4 30  1  0  0  0  0
  4 31  1  0  0  0  0
  4 32  1  0  0  0  0
  5  6  1  0  0  0  0
  6  7  2  0  0  0  0
  6  8  1  0  0  0  0
  8  9  1  0  0  0  0
  8 33  1  0  0  0  0
  9 10  1  0  0  0  0
  9 34  1  0  0  0  0
  9 35  1  0  0  0  0
 10 11  1  0  0  0  0
 10 36  1  0  0  0  0
 10 37  1  0  0  0  0
 11 12  1  0  0  0  0
 11 38  1  0  0  0  0
 11 39  1  0  0  0  0
 12 13  1  0  0  0  0
 12 40  1  0  0  0  0
 12 41  1  0  0  0  0
 13 14  1  0  0  0  0
 14 15  2  0  0  0  0
 14 23  1  0  0  0  0
 15 16  1  0  0  0  0
 15 42  1  0  0  0  0
 16 17  2  0  0  0  0
 16 43  1  0  0  0  0
 17 18  1  0  0  0  0
 17 22  1  0  0  0  0
 18 19  2  0  0  0  0
 18 20  2  0  0  0  0
 18 21  1  0  0  0  0
 21 44  1  0  0  0  0
 21 45  1  0  0  0  0
 22 23  2  0  0  0  0
 22 46  1  0  0  0  0
 23 47  1  0  0  0  0
M  END
$$$$
