3O5
 OpenBabel04111921413D

 33 33  0  0  0  0  0  0  0  0999 V2000
   -2.2046    7.0755   84.9246 C   0  0  0  0  0  0  0  0  0  0  0  0
   -2.7158    5.9740   85.6223 C   0  0  0  0  0  0  0  0  0  0  0  0
   -1.8948    4.8797   85.9067 C   0  0  0  0  0  0  0  0  0  0  0  0
   -2.5853    3.5426   86.8376 S   0  0  0  0  0  0  0  0  0  0  0  0
   -2.0352    3.5928   88.1524 O   0  0  0  0  0  0  0  0  0  0  0  0
   -4.0202    3.5801   86.6331 O   0  0  0  0  0  0  0  0  0  0  0  0
   -2.0244    2.1417   86.1082 N   0  0  0  0  0  0  0  0  0  0  0  0
   -0.5693    4.8743   85.4928 C   0  0  0  0  0  0  0  0  0  0  0  0
   -0.0642    5.9743   84.7952 C   0  0  0  0  0  0  0  0  0  0  0  0
   -0.8796    7.0882   84.5083 C   0  0  0  0  0  0  0  0  0  0  0  0
   -0.4496    8.2238   83.8508 O   0  0  0  0  0  0  0  0  0  0  0  0
    0.9443    8.2306   83.5181 C   0  0  0  0  0  0  0  0  0  0  0  0
    1.4581    9.6004   83.0622 C   0  0  0  0  0  0  0  0  0  0  0  0
    1.6840   10.6079   84.1950 C   0  0  0  0  0  0  0  0  0  0  0  0
    2.3651   11.8720   83.6976 C   0  0  0  0  0  0  0  0  0  0  0  0
    2.7570   12.7827   84.7902 N   0  3  0  0  0  0  0  0  0  0  0  0
   -2.8501    7.9167   84.7091 H   0  0  0  0  0  0  0  0  0  0  0  0
   -3.7551    5.9814   85.9512 H   0  0  0  0  0  0  0  0  0  0  0  0
   -2.3123    1.2438   86.5140 H   0  0  0  0  0  0  0  0  0  0  0  0
   -1.4036    2.1603   85.3219 H   0  0  0  0  0  0  0  0  0  0  0  0
    0.0883    4.0323   85.7147 H   0  0  0  0  0  0  0  0  0  0  0  0
    0.9722    5.9542   84.4740 H   0  0  0  0  0  0  0  0  0  0  0  0
    1.1041    7.5434   82.6735 H   0  0  0  0  0  0  0  0  0  0  0  0
    1.5378    7.9312   84.3876 H   0  0  0  0  0  0  0  0  0  0  0  0
    0.7465   10.0243   82.3498 H   0  0  0  0  0  0  0  0  0  0  0  0
    2.4242    9.4196   82.5710 H   0  0  0  0  0  0  0  0  0  0  0  0
    2.3128   10.1364   84.9552 H   0  0  0  0  0  0  0  0  0  0  0  0
    0.7048   10.8744   84.6022 H   0  0  0  0  0  0  0  0  0  0  0  0
    1.6831   12.4535   83.0751 H   0  0  0  0  0  0  0  0  0  0  0  0
    3.2971   11.6359   83.1817 H   0  0  0  0  0  0  0  0  0  0  0  0
    3.2115   13.6280   84.3910 H   0  0  0  0  0  0  0  0  0  0  0  0
    1.9490   13.1079   85.3381 H   0  0  0  0  0  0  0  0  0  0  0  0
    3.4371   12.3537   85.4330 H   0  0  0  0  0  0  0  0  0  0  0  0
  1  2  2  0  0  0  0
  1 10  1  0  0  0  0
  1 17  1  0  0  0  0
  2  3  1  0  0  0  0
  2 18  1  0  0  0  0
  3  4  1  0  0  0  0
  3  8  2  0  0  0  0
  4  5  2  0  0  0  0
  4  6  2  0  0  0  0
  4  7  1  0  0  0  0
  7 19  1  0  0  0  0
  7 20  1  0  0  0  0
  8  9  1  0  0  0  0
  8 21  1  0  0  0  0
  9 10  2  0  0  0  0
  9 22  1  0  0  0  0
 10 11  1  0  0  0  0
 11 12  1  0  0  0  0
 12 13  1  0  0  0  0
 12 23  1  0  0  0  0
 12 24  1  0  0  0  0
 13 14  1  0  0  0  0
 13 25  1  0  0  0  0
 13 26  1  0  0  0  0
 14 15  1  0  0  0  0
 14 27  1  0  0  0  0
 14 28  1  0  0  0  0
 15 16  1  0  0  0  0
 15 29  1  0  0  0  0
 15 30  1  0  0  0  0
 16 31  1  0  0  0  0
 16 32  1  0  0  0  0
 16 33  1  0  0  0  0
M  CHG  1  16   1
M  END
$$$$
