3P6
 OpenBabel04111921423D

 63 68  0  0  1  0  0  0  0  0999 V2000
   13.3425    3.1413    5.7886 C   0  0  0  0  0  0  0  0  0  0  0  0
   14.7169    2.9505    5.2115 C   0  0  1  0  0  0  0  0  0  0  0  0
   15.7475    4.0066    5.6028 C   0  0  0  0  0  0  0  0  0  0  0  0
   17.1088    3.4565    5.8453 C   0  0  0  0  0  0  0  0  0  0  0  0
   18.1150    4.1810    6.3488 N   0  0  0  0  0  0  0  0  0  0  0  0
   19.1408    3.3161    6.3794 N   0  3  0  0  0  0  0  0  0  0  0  0
   18.8309    2.0486    5.9633 C   0  0  0  0  0  0  0  0  0  0  0  0
   19.7186    0.9102    5.8830 C   0  0  0  0  0  0  0  0  0  0  0  0
   19.4101   -0.1035    5.2636 O   0  0  0  0  0  0  0  0  0  0  0  0
   20.9155    1.0707    6.5506 N   0  0  0  0  0  0  0  0  0  0  0  0
   21.9466    0.1574    6.5039 C   0  0  0  0  0  0  0  0  0  0  0  0
   22.0622   -1.1089    5.8937 C   0  0  0  0  0  0  0  0  0  0  0  0
   23.2890   -1.6225    6.0256 N   0  0  0  0  0  0  0  0  0  0  0  0
   23.9277   -0.7228    6.8008 N   0  3  0  0  0  0  0  0  0  0  0  0
   23.1702    0.3815    7.0829 C   0  0  0  0  0  0  0  0  0  0  0  0
   25.3459   -0.8828    7.1221 C   0  0  1  0  0  0  0  0  0  0  0  0
   25.8078   -2.3455    7.2694 C   0  0  1  0  0  0  0  0  0  0  0  0
   27.3343   -2.4349    7.4833 C   0  0  0  0  0  0  0  0  0  0  0  0
   27.8134   -3.8772    7.4958 C   0  0  0  0  0  0  0  0  0  0  0  0
   27.3148   -4.6186    8.7295 C   0  0  0  0  0  0  0  0  0  0  0  0
   25.7986   -4.7021    8.7792 C   0  0  0  0  0  0  0  0  0  0  0  0
   25.0051   -3.1079    8.6970 S   0  0  0  0  0  0  0  0  0  0  0  0
   25.3930   -2.3523    9.8733 O   0  0  0  0  0  0  0  0  0  0  0  0
   23.6068   -3.3630    8.4266 O   0  0  0  0  0  0  0  0  0  0  0  0
   26.1585   -0.1365    6.0617 C   0  0  0  0  0  0  0  0  0  0  0  0
   27.0796    0.8501    6.4485 C   0  0  0  0  0  0  0  0  0  0  0  0
   27.8657    1.4941    5.4926 C   0  0  0  0  0  0  0  0  0  0  0  0
   27.7350    1.1701    4.1423 C   0  0  0  0  0  0  0  0  0  0  0  0
   26.8242    0.1947    3.7455 C   0  0  0  0  0  0  0  0  0  0  0  0
   26.0479   -0.4588    4.6938 C   0  0  0  0  0  0  0  0  0  0  0  0
   17.5021    2.1229    5.5881 C   0  0  0  0  0  0  0  0  0  0  0  0
   16.6070    1.0765    5.0291 C   0  0  0  0  0  0  0  0  0  0  0  0
   15.1744    1.5073    4.9098 C   0  0  2  0  0  0  0  0  0  0  0  0
   14.7887    2.4271    3.8141 C   0  0  0  0  0  0  0  0  0  0  0  0
   15.7230    2.9144    2.9292 F   0  0  0  0  0  0  0  0  0  0  0  0
   13.6385    2.1929    3.0950 F   0  0  0  0  0  0  0  0  0  0  0  0
   13.3902    3.5348    6.8077 H   0  0  0  0  0  0  0  0  0  0  0  0
   12.7925    2.1941    5.8334 H   0  0  0  0  0  0  0  0  0  0  0  0
   12.7630    3.8385    5.1745 H   0  0  0  0  0  0  0  0  0  0  0  0
   15.4229    4.5200    6.5161 H   0  0  0  0  0  0  0  0  0  0  0  0
   15.7999    4.7699    4.8156 H   0  0  0  0  0  0  0  0  0  0  0  0
   20.0375    3.6749    6.6840 H   0  0  0  0  0  0  0  0  0  0  0  0
   21.0873    1.8853    7.1163 H   0  0  0  0  0  0  0  0  0  0  0  0
   21.3184   -1.6701    5.3429 H   0  0  0  0  0  0  0  0  0  0  0  0
   23.5804    1.2220    7.6244 H   0  0  0  0  0  0  0  0  0  0  0  0
   25.4729   -0.3684    8.0848 H   0  0  0  0  0  0  0  0  0  0  0  0
   25.5257   -2.9430    6.3938 H   0  0  0  0  0  0  0  0  0  0  0  0
   27.6153   -1.9399    8.4237 H   0  0  0  0  0  0  0  0  0  0  0  0
   27.8782   -1.9207    6.6861 H   0  0  0  0  0  0  0  0  0  0  0  0
   28.9090   -3.8910    7.4819 H   0  0  0  0  0  0  0  0  0  0  0  0
   27.4763   -4.3874    6.5848 H   0  0  0  0  0  0  0  0  0  0  0  0
   27.6933   -4.1188    9.6304 H   0  0  0  0  0  0  0  0  0  0  0  0
   27.7321   -5.6320    8.7283 H   0  0  0  0  0  0  0  0  0  0  0  0
   25.4727   -5.1749    9.7111 H   0  0  0  0  0  0  0  0  0  0  0  0
   25.4186   -5.2967    7.9412 H   0  0  0  0  0  0  0  0  0  0  0  0
   27.2098    1.1069    7.4965 H   0  0  0  0  0  0  0  0  0  0  0  0
   28.5866    2.2444    5.8003 H   0  0  0  0  0  0  0  0  0  0  0  0
   28.3470    1.6756    3.3990 H   0  0  0  0  0  0  0  0  0  0  0  0
   26.7214   -0.0587    2.6910 H   0  0  0  0  0  0  0  0  0  0  0  0
   25.3470   -1.2251    4.3613 H   0  0  0  0  0  0  0  0  0  0  0  0
   16.6476    0.1957    5.6819 H   0  0  0  0  0  0  0  0  0  0  0  0
   16.9750    0.7611    4.0457 H   0  0  0  0  0  0  0  0  0  0  0  0
   14.4937    0.6941    5.1329 H   0  0  0  0  0  0  0  0  0  0  0  0
  1 37  1  0  0  0  0
  1 38  1  0  0  0  0
  1 39  1  0  0  0  0
  2  1  1  1  0  0  0
  2  3  1  0  0  0  0
  2 33  1  0  0  0  0
  2 34  1  0  0  0  0
  3  4  1  0  0  0  0
  3 40  1  0  0  0  0
  3 41  1  0  0  0  0
  4  5  1  0  0  0  0
  4 31  2  0  0  0  0
  5  6  1  0  0  0  0
  6  7  2  0  0  0  0
  6 42  1  0  0  0  0
  7  8  1  0  0  0  0
  7 31  1  0  0  0  0
  8  9  2  0  0  0  0
  8 10  1  0  0  0  0
 10 11  1  0  0  0  0
 10 43  1  0  0  0  0
 11 12  2  0  0  0  0
 11 15  1  0  0  0  0
 12 13  1  0  0  0  0
 12 44  1  0  0  0  0
 13 14  1  0  0  0  0
 14 15  2  0  0  0  0
 14 16  1  0  0  0  0
 15 45  1  0  0  0  0
 16 17  1  0  0  0  0
 16 25  1  0  0  0  0
 16 46  1  1  0  0  0
 17 18  1  0  0  0  0
 17 22  1  0  0  0  0
 17 47  1  6  0  0  0
 18 19  1  0  0  0  0
 18 48  1  0  0  0  0
 18 49  1  0  0  0  0
 19 20  1  0  0  0  0
 19 50  1  0  0  0  0
 19 51  1  0  0  0  0
 20 21  1  0  0  0  0
 20 52  1  0  0  0  0
 20 53  1  0  0  0  0
 21 22  1  0  0  0  0
 21 54  1  0  0  0  0
 21 55  1  0  0  0  0
 22 23  2  0  0  0  0
 22 24  2  0  0  0  0
 25 26  2  0  0  0  0
 25 30  1  0  0  0  0
 26 27  1  0  0  0  0
 26 56  1  0  0  0  0
 27 28  2  0  0  0  0
 27 57  1  0  0  0  0
 28 29  1  0  0  0  0
 28 58  1  0  0  0  0
 29 30  2  0  0  0  0
 29 59  1  0  0  0  0
 30 60  1  0  0  0  0
 31 32  1  0  0  0  0
 32 33  1  0  0  0  0
 32 61  1  0  0  0  0
 32 62  1  0  0  0  0
 33 34  1  0  0  0  0
 33 63  1  1  0  0  0
 34 35  1  0  0  0  0
 34 36  1  0  0  0  0
M  CHG  2   6   1  14   1
M  END
$$$$
