3QA
 OpenBabel04111922213D

 54 56  0  0  1  0  0  0  0  0999 V2000
   38.0046   73.9635   22.7182 C   0  0  0  0  0  0  0  0  0  0  0  0
   37.0385   73.1662   23.6051 C   0  0  2  0  0  0  0  0  0  0  0  0
   35.6833   73.8613   23.8001 C   0  0  1  0  0  0  0  0  0  0  0  0
   34.6903   72.8397   23.9462 O   0  0  0  0  0  0  0  0  0  0  0  0
   35.8206   74.5752   25.1393 C   0  0  0  0  0  0  0  0  0  0  0  0
   37.6201   73.0043   25.0183 C   0  0  0  0  0  0  0  0  0  0  0  0
   39.4501   74.3754   27.8358 C   0  0  0  0  0  0  0  0  0  0  0  0
   40.2936   75.4539   27.8575 N   0  3  0  0  0  0  0  0  0  0  0  0
   39.6340   76.5767   27.4469 C   0  0  0  0  0  0  0  0  0  0  0  0
   40.0428   77.8879   27.2902 C   0  0  0  0  0  0  0  0  0  0  0  0
   39.1319   78.7708   26.8504 N   0  0  0  0  0  0  0  0  0  0  0  0
   37.8852   78.3357   26.6003 C   0  0  0  0  0  0  0  0  0  0  0  0
   37.3950   77.0856   26.7277 N   0  0  0  0  0  0  0  0  0  0  0  0
   38.3237   76.2055   27.1700 C   0  0  0  0  0  0  0  0  0  0  0  0
   36.5618   73.5365   25.9381 N   0  3  1  0  0  0  0  0  0  0  0  0
   37.5976   73.8836   21.2455 C   0  0  0  0  0  0  0  0  0  0  0  0
   38.9865   74.3519   20.1798 S   0  0  0  0  0  0  0  0  0  0  0  0
   39.9612   72.7950   20.1853 C   0  0  0  0  0  0  0  0  0  0  0  0
   39.5833   71.8229   19.0669 C   0  0  0  0  0  0  0  0  0  0  0  0
   39.8564   72.4178   17.7998 O   0  0  0  0  0  0  0  0  0  0  0  0
   36.9836   73.9585   27.3096 C   0  0  0  0  0  0  0  0  0  0  0  0
   38.1991   74.8075   27.4207 C   0  0  0  0  0  0  0  0  0  0  0  0
   41.3183   78.3212   27.5405 N   0  0  0  0  0  0  0  0  0  0  0  0
   40.3683   71.5100   16.8194 C   0  0  0  0  0  0  0  0  0  0  0  0
   39.3540   70.4403   16.4065 C   0  0  0  0  0  0  0  0  0  0  0  0
   38.9748   70.6207   15.0458 O   0  0  0  0  0  0  0  0  0  0  0  0
   39.0156   73.5635   22.8627 H   0  0  0  0  0  0  0  0  0  0  0  0
   38.0366   75.0137   23.0394 H   0  0  0  0  0  0  0  0  0  0  0  0
   36.9065   72.1662   23.1712 H   0  0  0  0  0  0  0  0  0  0  0  0
   35.3945   74.5284   22.9833 H   0  0  0  0  0  0  0  0  0  0  0  0
   33.8095   73.2585   23.8709 H   0  0  0  0  0  0  0  0  0  0  0  0
   34.8633   74.7559   25.6362 H   0  0  0  0  0  0  0  0  0  0  0  0
   36.4319   75.4729   25.0636 H   0  0  0  0  0  0  0  0  0  0  0  0
   38.5365   73.5879   25.1504 H   0  0  0  0  0  0  0  0  0  0  0  0
   37.8052   71.9595   25.2821 H   0  0  0  0  0  0  0  0  0  0  0  0
   39.8080   73.3999   28.1432 H   0  0  0  0  0  0  0  0  0  0  0  0
   41.2662   75.4378   28.1460 H   0  0  0  0  0  0  0  0  0  0  0  0
   37.1900   79.0919   26.2407 H   0  0  0  0  0  0  0  0  0  0  0  0
   36.7810   74.5884   21.0571 H   0  0  0  0  0  0  0  0  0  0  0  0
   37.2376   72.8869   20.9728 H   0  0  0  0  0  0  0  0  0  0  0  0
   39.8747   72.2982   21.1565 H   0  0  0  0  0  0  0  0  0  0  0  0
   41.0070   73.0918   20.0573 H   0  0  0  0  0  0  0  0  0  0  0  0
   38.5226   71.5535   19.1169 H   0  0  0  0  0  0  0  0  0  0  0  0
   40.1704   70.9045   19.1949 H   0  0  0  0  0  0  0  0  0  0  0  0
   37.1534   73.0192   27.8504 H   0  0  0  0  0  0  0  0  0  0  0  0
   36.1194   74.4398   27.7757 H   0  0  0  0  0  0  0  0  0  0  0  0
   41.4672   79.3210   27.4792 H   0  0  0  0  0  0  0  0  0  0  0  0
   42.0221   77.7529   27.9776 H   0  0  0  0  0  0  0  0  0  0  0  0
   41.2767   71.0464   17.2218 H   0  0  0  0  0  0  0  0  0  0  0  0
   40.6694   72.1130   15.9559 H   0  0  0  0  0  0  0  0  0  0  0  0
   38.4466   70.4701   17.0155 H   0  0  0  0  0  0  0  0  0  0  0  0
   39.8088   69.4483   16.4905 H   0  0  0  0  0  0  0  0  0  0  0  0
   38.3220   69.9324   14.8322 H   0  0  0  0  0  0  0  0  0  0  0  0
   35.8806   72.7678   26.0535 H   0  0  0  0  0  0  0  0  0  0  0  0
  1  2  1  0  0  0  0
  1 16  1  0  0  0  0
  1 27  1  0  0  0  0
  1 28  1  0  0  0  0
  2  3  1  0  0  0  0
  2  6  1  0  0  0  0
  2 29  1  6  0  0  0
  3  4  1  0  0  0  0
  3  5  1  0  0  0  0
  3 30  1  6  0  0  0
  4 31  1  0  0  0  0
  5 15  1  0  0  0  0
  5 32  1  0  0  0  0
  5 33  1  0  0  0  0
  6 15  1  0  0  0  0
  6 34  1  0  0  0  0
  6 35  1  0  0  0  0
  7  8  2  0  0  0  0
  7 22  1  0  0  0  0
  7 36  1  0  0  0  0
  8  9  1  0  0  0  0
  8 37  1  0  0  0  0
  9 10  2  0  0  0  0
  9 14  1  0  0  0  0
 10 11  1  0  0  0  0
 10 23  1  0  0  0  0
 11 12  1  0  0  0  0
 12 13  2  0  0  0  0
 12 38  1  0  0  0  0
 13 14  1  0  0  0  0
 14 22  2  0  0  0  0
 15 21  1  0  0  0  0
 15 54  1  1  0  0  0
 16 17  1  0  0  0  0
 16 39  1  0  0  0  0
 16 40  1  0  0  0  0
 17 18  1  0  0  0  0
 18 19  1  0  0  0  0
 18 41  1  0  0  0  0
 18 42  1  0  0  0  0
 19 20  1  0  0  0  0
 19 43  1  0  0  0  0
 19 44  1  0  0  0  0
 20 24  1  0  0  0  0
 21 22  1  0  0  0  0
 21 45  1  0  0  0  0
 21 46  1  0  0  0  0
 23 47  1  0  0  0  0
 23 48  1  0  0  0  0
 24 25  1  0  0  0  0
 24 49  1  0  0  0  0
 24 50  1  0  0  0  0
 25 26  1  0  0  0  0
 25 51  1  0  0  0  0
 25 52  1  0  0  0  0
 26 53  1  0  0  0  0
M  CHG  2   8   1  15   1
M  END
$$$$
