3QF
 OpenBabel04111921423D

 56 57  0  0  1  0  0  0  0  0999 V2000
   -3.3574    7.7804  124.3859 O   0  0  0  0  0  0  0  0  0  0  0  0
   -4.1617    7.1855  123.2320 P   0  0  0  0  0  0  0  0  0  0  0  0
   -3.7820    5.7655  122.8387 O   0  0  0  0  0  0  0  0  0  0  0  0
   -5.6565    7.4819  123.2877 O   0  0  0  0  0  0  0  0  0  0  0  0
   -3.5912    8.1992  121.7618 C   0  0  0  0  0  0  0  0  0  0  0  0
   -3.9448    9.6722  121.9095 C   0  0  0  0  0  0  0  0  0  0  0  0
   -3.1704   10.6073  121.0186 N   0  0  0  0  0  0  0  0  0  0  0  0
   -3.1231   10.1102  119.6333 C   0  0  0  0  0  0  0  0  0  0  0  0
   -4.4318   10.3202  118.8954 C   0  0  0  0  0  0  0  0  0  0  0  0
   -5.3529    9.5133  118.8532 O   0  0  0  0  0  0  0  0  0  0  0  0
   -3.7421   11.9613  121.0943 C   0  0  0  0  0  0  0  0  0  0  0  0
   -3.5014   12.5861  122.4728 C   0  0  0  0  0  0  0  0  0  0  0  0
   -4.6562   13.4525  122.8943 N   0  3  2  0  0  0  0  0  0  0  0  0
   -4.5717   14.8433  122.2438 C   0  0  0  0  0  0  0  0  0  0  0  0
   -5.9366   15.4013  122.0011 C   0  0  0  0  0  0  0  0  0  0  0  0
   -5.7159   17.0883  121.2257 P   0  0  0  0  0  0  0  0  0  0  0  0
   -5.2358   16.7120  119.8337 O   0  0  0  0  0  0  0  0  0  0  0  0
   -7.1139   17.6669  121.3350 O   0  0  0  0  0  0  0  0  0  0  0  0
   -4.6582   17.7181  122.1213 O   0  0  0  0  0  0  0  0  0  0  0  0
   -4.7735   13.4853  124.4073 C   0  0  0  0  0  0  0  0  0  0  0  0
   -3.6085   14.2377  125.0582 C   0  0  0  0  0  0  0  0  0  0  0  0
   -3.9360   14.6826  126.3855 N   0  3  0  0  0  0  0  0  0  0  0  0
   -3.9877   13.9461  127.5299 C   0  0  0  0  0  0  0  0  0  0  0  0
   -3.7184   12.6093  127.6662 N   0  0  0  0  0  0  0  0  0  0  0  0
   -3.8443   12.1566  128.8810 C   0  0  0  0  0  0  0  0  0  0  0  0
   -3.5838   10.8585  129.1764 N   0  0  0  0  0  0  0  0  0  0  0  0
   -4.2307   12.9615  129.9459 N   0  3  0  0  0  0  0  0  0  0  0  0
   -4.5130   14.3258  129.8666 C   0  0  0  0  0  0  0  0  0  0  0  0
   -4.8298   14.9882  130.8587 O   0  0  0  0  0  0  0  0  0  0  0  0
   -4.3662   14.8114  128.5172 C   0  0  0  0  0  0  0  0  0  0  0  0
   -4.5522   16.0991  128.0042 N   0  0  0  0  0  0  0  0  0  0  0  0
   -4.2899   15.9691  126.7141 C   0  0  0  0  0  0  0  0  0  0  0  0
   -4.0772    7.7878  120.8713 H   0  0  0  0  0  0  0  0  0  0  0  0
   -2.5080    8.0688  121.6685 H   0  0  0  0  0  0  0  0  0  0  0  0
   -3.7721    9.9430  122.9546 H   0  0  0  0  0  0  0  0  0  0  0  0
   -5.0178    9.8125  121.7306 H   0  0  0  0  0  0  0  0  0  0  0  0
   -2.8606    9.0504  119.5893 H   0  0  0  0  0  0  0  0  0  0  0  0
   -2.3191   10.6152  119.0852 H   0  0  0  0  0  0  0  0  0  0  0  0
   -4.5553   11.3180  118.4448 H   0  0  0  0  0  0  0  0  0  0  0  0
   -4.8143   11.9308  120.8582 H   0  0  0  0  0  0  0  0  0  0  0  0
   -3.2756   12.6110  120.3403 H   0  0  0  0  0  0  0  0  0  0  0  0
   -2.5992   13.2031  122.4815 H   0  0  0  0  0  0  0  0  0  0  0  0
   -3.3820   11.8315  123.2492 H   0  0  0  0  0  0  0  0  0  0  0  0
   -3.9622   14.7512  121.3426 H   0  0  0  0  0  0  0  0  0  0  0  0
   -4.0330   15.4938  122.9193 H   0  0  0  0  0  0  0  0  0  0  0  0
   -6.4836   15.5112  122.9424 H   0  0  0  0  0  0  0  0  0  0  0  0
   -6.4963   14.7536  121.3236 H   0  0  0  0  0  0  0  0  0  0  0  0
   -4.7930   12.4407  124.7509 H   0  0  0  0  0  0  0  0  0  0  0  0
   -5.7514   13.9190  124.6364 H   0  0  0  0  0  0  0  0  0  0  0  0
   -3.3118   15.1411  124.5309 H   0  0  0  0  0  0  0  0  0  0  0  0
   -2.7004   13.6227  125.0786 H   0  0  0  0  0  0  0  0  0  0  0  0
   -3.3652   10.2301  128.4053 H   0  0  0  0  0  0  0  0  0  0  0  0
   -3.7110   10.4299  130.0773 H   0  0  0  0  0  0  0  0  0  0  0  0
   -4.3048   12.5435  130.8553 H   0  0  0  0  0  0  0  0  0  0  0  0
   -4.3467   16.7709  125.9856 H   0  0  0  0  0  0  0  0  0  0  0  0
   -5.5200   13.0041  122.5456 H   0  0  0  0  0  0  0  0  0  0  0  0
  1  2  2  0  0  0  0
  2  3  1  0  0  0  0
  2  4  1  0  0  0  0
  2  5  1  0  0  0  0
  5  6  1  0  0  0  0
  5 33  1  0  0  0  0
  5 34  1  0  0  0  0
  6  7  1  0  0  0  0
  6 35  1  0  0  0  0
  6 36  1  0  0  0  0
  7  8  1  0  0  0  0
  7 11  1  0  0  0  0
  8  9  1  0  0  0  0
  8 37  1  0  0  0  0
  8 38  1  0  0  0  0
  9 10  2  0  0  0  0
  9 39  1  0  0  0  0
 11 12  1  0  0  0  0
 11 40  1  0  0  0  0
 11 41  1  0  0  0  0
 12 13  1  0  0  0  0
 12 42  1  0  0  0  0
 12 43  1  0  0  0  0
 13 14  1  0  0  0  0
 13 20  1  0  0  0  0
 13 56  1  6  0  0  0
 14 15  1  0  0  0  0
 14 44  1  0  0  0  0
 14 45  1  0  0  0  0
 15 16  1  0  0  0  0
 15 46  1  0  0  0  0
 15 47  1  0  0  0  0
 16 17  2  0  0  0  0
 16 18  1  0  0  0  0
 16 19  1  0  0  0  0
 20 21  1  0  0  0  0
 20 48  1  0  0  0  0
 20 49  1  0  0  0  0
 21 22  1  0  0  0  0
 21 50  1  0  0  0  0
 21 51  1  0  0  0  0
 22 23  1  0  0  0  0
 22 32  2  0  0  0  0
 23 24  1  0  0  0  0
 23 30  2  0  0  0  0
 24 25  2  0  0  0  0
 25 26  1  0  0  0  0
 25 27  1  0  0  0  0
 26 52  1  0  0  0  0
 26 53  1  0  0  0  0
 27 28  1  0  0  0  0
 27 54  1  0  0  0  0
 28 29  2  0  0  0  0
 28 30  1  0  0  0  0
 30 31  1  0  0  0  0
 31 32  1  0  0  0  0
 32 55  1  0  0  0  0
M  CHG  3  13   1  22   1  27   1
M  END
$$$$
