3QR
 OpenBabel04111921423D

 50 53  0  0  1  0  0  0  0  0999 V2000
   -2.7929    9.7239   78.8815 C   0  0  2  0  0  0  0  0  0  0  0  0
   -2.3216   11.1231   79.2855 C   0  0  2  0  0  0  0  0  0  0  0  0
   -2.6444   12.2229   78.2521 C   0  0  0  0  0  0  0  0  0  0  0  0
   -1.7664    8.5784   78.8721 C   0  0  2  0  0  0  0  0  0  0  0  0
   -1.5601    4.3786   85.2284 C   0  0  0  0  0  0  0  0  0  0  0  0
   -1.3231    2.9997   85.2663 C   0  0  0  0  0  0  0  0  0  0  0  0
   -1.9420    1.8590   86.4424 S   0  0  0  0  0  0  0  0  0  0  0  0
   -1.1843    2.0237   87.6632 O   0  0  0  0  0  0  0  0  0  0  0  0
   -3.3758    1.8159   86.3760 O   0  0  0  0  0  0  0  0  0  0  0  0
   -1.3079    0.4952   85.6887 N   0  0  0  0  0  0  0  0  0  0  0  0
   -0.3376    0.8681   84.6753 C   0  0  1  0  0  0  0  0  0  0  0  0
   -0.5872    0.0745   83.5524 O   0  0  0  0  0  0  0  0  0  0  0  0
    0.1389    3.0591   83.3684 C   0  0  0  0  0  0  0  0  0  0  0  0
   -0.0822    4.4409   83.2971 C   0  0  0  0  0  0  0  0  0  0  0  0
   -0.9164    5.1139   84.2210 C   0  0  0  0  0  0  0  0  0  0  0  0
   -1.0632    6.5262   84.1203 N   0  3  0  0  0  0  0  0  0  0  0  0
   -0.4795    7.3642   83.1940 C   0  0  0  0  0  0  0  0  0  0  0  0
   -1.8094    7.2732   84.9730 N   0  0  0  0  0  0  0  0  0  0  0  0
   -1.7280    8.5571   84.6055 N   0  0  0  0  0  0  0  0  0  0  0  0
   -0.9179    8.6338   83.5039 C   0  0  0  0  0  0  0  0  0  0  0  0
   -0.6116    9.9016   82.7853 C   0  0  0  0  0  0  0  0  0  0  0  0
   -1.2822    9.9385   81.5240 O   0  0  0  0  0  0  0  0  0  0  0  0
   -0.4489   10.1405   80.3937 C   0  0  2  0  0  0  0  0  0  0  0  0
   -0.9185   11.2211   79.5792 O   0  0  0  0  0  0  0  0  0  0  0  0
   -4.0263   12.2607   77.9077 O   0  0  0  0  0  0  0  0  0  0  0  0
   -3.4361    9.7177   77.5796 O   0  0  0  0  0  0  0  0  0  0  0  0
   -2.3473    7.4444   79.5304 O   0  0  0  0  0  0  0  0  0  0  0  0
   -0.4030    8.8965   79.5051 C   0  0  2  0  0  0  0  0  0  0  0  0
    0.5656    9.0818   78.4539 O   0  0  0  0  0  0  0  0  0  0  0  0
   -0.4841    2.3339   84.3763 C   0  0  0  0  0  0  0  0  0  0  0  0
   -3.6121    9.4428   79.5884 H   0  0  0  0  0  0  0  0  0  0  0  0
   -2.8544   11.4066   80.2059 H   0  0  0  0  0  0  0  0  0  0  0  0
   -2.0507   12.0788   77.3417 H   0  0  0  0  0  0  0  0  0  0  0  0
   -2.3729   13.2076   78.6456 H   0  0  0  0  0  0  0  0  0  0  0  0
   -1.6067    8.2611   77.8326 H   0  0  0  0  0  0  0  0  0  0  0  0
   -2.2115    4.8421   85.9664 H   0  0  0  0  0  0  0  0  0  0  0  0
   -1.8513   -0.3555   85.5883 H   0  0  0  0  0  0  0  0  0  0  0  0
    0.6563    0.6446   85.0851 H   0  0  0  0  0  0  0  0  0  0  0  0
    0.1709    0.2438   82.9226 H   0  0  0  0  0  0  0  0  0  0  0  0
    0.7978    2.5826   82.6469 H   0  0  0  0  0  0  0  0  0  0  0  0
    0.4284    4.9705   82.4995 H   0  0  0  0  0  0  0  0  0  0  0  0
    0.1638    7.0230   82.4041 H   0  0  0  0  0  0  0  0  0  0  0  0
    0.4772    9.9893   82.6794 H   0  0  0  0  0  0  0  0  0  0  0  0
   -0.9509   10.7673   83.3612 H   0  0  0  0  0  0  0  0  0  0  0  0
    0.5771   10.4071   80.6751 H   0  0  0  0  0  0  0  0  0  0  0  0
   -4.1086   11.6827   77.1244 H   0  0  0  0  0  0  0  0  0  0  0  0
   -4.3892    9.7913   77.7523 H   0  0  0  0  0  0  0  0  0  0  0  0
   -1.7391    6.6962   79.4260 H   0  0  0  0  0  0  0  0  0  0  0  0
   -0.0573    8.0348   80.0871 H   0  0  0  0  0  0  0  0  0  0  0  0
    0.3178    9.9031   77.9845 H   0  0  0  0  0  0  0  0  0  0  0  0
  1  2  1  0  0  0  0
  1  4  1  0  0  0  0
  1 26  1  0  0  0  0
  1 31  1  1  0  0  0
  2  3  1  0  0  0  0
  2 24  1  0  0  0  0
  2 32  1  1  0  0  0
  3 25  1  0  0  0  0
  3 33  1  0  0  0  0
  3 34  1  0  0  0  0
  4 27  1  0  0  0  0
  4 28  1  0  0  0  0
  4 35  1  6  0  0  0
  5  6  2  0  0  0  0
  5 15  1  0  0  0  0
  5 36  1  0  0  0  0
  6  7  1  0  0  0  0
  6 30  1  0  0  0  0
  7  8  2  0  0  0  0
  7  9  2  0  0  0  0
  7 10  1  0  0  0  0
 10 11  1  0  0  0  0
 10 37  1  0  0  0  0
 11 12  1  0  0  0  0
 11 30  1  0  0  0  0
 11 38  1  1  0  0  0
 12 39  1  0  0  0  0
 13 14  1  0  0  0  0
 13 30  2  0  0  0  0
 13 40  1  0  0  0  0
 14 15  2  0  0  0  0
 14 41  1  0  0  0  0
 15 16  1  0  0  0  0
 16 17  2  0  0  0  0
 16 18  1  0  0  0  0
 17 20  1  0  0  0  0
 17 42  1  0  0  0  0
 18 19  1  0  0  0  0
 19 20  2  0  0  0  0
 20 21  1  0  0  0  0
 21 22  1  0  0  0  0
 21 43  1  0  0  0  0
 21 44  1  0  0  0  0
 22 23  1  0  0  0  0
 23 24  1  0  0  0  0
 23 28  1  0  0  0  0
 23 45  1  1  0  0  0
 25 46  1  0  0  0  0
 26 47  1  0  0  0  0
 27 48  1  0  0  0  0
 28 29  1  0  0  0  0
 28 49  1  1  0  0  0
 29 50  1  0  0  0  0
M  CHG  1  16   1
M  END
$$$$
