3SM
 OpenBabel04111922233D

 49 52  0  0  0  0  0  0  0  0999 V2000
   12.9762    3.0470   -0.2041 C   0  0  0  0  0  0  0  0  0  0  0  0
   13.6491    3.5976   -1.4444 C   0  0  0  0  0  0  0  0  0  0  0  0
   11.5899    2.0153    1.9276 C   0  0  0  0  0  0  0  0  0  0  0  0
   11.8757    3.3764    1.8982 C   0  0  0  0  0  0  0  0  0  0  0  0
   15.4303    2.7298   -2.9069 C   0  0  0  0  0  0  0  0  0  0  0  0
   16.8012    2.0650   -2.9307 C   0  0  0  0  0  0  0  0  0  0  0  0
   17.2597   -0.0234   -1.9171 C   0  0  0  0  0  0  0  0  0  0  0  0
   12.0498    1.2148    0.8881 C   0  0  0  0  0  0  0  0  0  0  0  0
   13.1351   -5.6094   -2.1348 C   0  0  0  0  0  0  0  0  0  0  0  0
    9.4473   -3.8862    2.1972 N   0  3  0  0  0  0  0  0  0  0  0  0
    9.2082   -5.2259    1.9886 C   0  0  0  0  0  0  0  0  0  0  0  0
    9.9877   -5.7280    1.0535 N   0  0  0  0  0  0  0  0  0  0  0  0
   10.7551   -4.6653    0.6191 C   0  0  0  0  0  0  0  0  0  0  0  0
   10.4193   -3.5265    1.3359 C   0  0  0  0  0  0  0  0  0  0  0  0
   11.0407   -2.3455    1.0692 C   0  0  0  0  0  0  0  0  0  0  0  0
   11.9819   -2.3326    0.0680 C   0  0  0  0  0  0  0  0  0  0  0  0
   12.4165   -1.0474   -0.0687 N   0  3  0  0  0  0  0  0  0  0  0  0
   11.7826   -0.2232    0.8504 C   0  0  0  0  0  0  0  0  0  0  0  0
   10.9201   -1.0337    1.5983 C   0  0  0  0  0  0  0  0  0  0  0  0
   12.7465    1.7048   -0.1594 N   0  0  0  0  0  0  0  0  0  0  0  0
   12.5735    3.9049    0.8182 C   0  0  0  0  0  0  0  0  0  0  0  0
   14.9691    3.0365   -1.6454 N   0  0  0  0  0  0  0  0  0  0  0  0
   14.7921    2.9621   -3.9312 O   0  0  0  0  0  0  0  0  0  0  0  0
   16.6132    0.6560   -2.9768 O   0  0  0  0  0  0  0  0  0  0  0  0
   12.3727   -3.3852   -0.6590 N   0  0  0  0  0  0  0  0  0  0  0  0
   11.7596   -4.5796   -0.3941 C   0  0  0  0  0  0  0  0  0  0  0  0
   12.1296   -5.7030   -1.1118 N   0  0  0  0  0  0  0  0  0  0  0  0
    8.7397   -3.0748    3.1551 C   0  0  0  0  0  0  0  0  0  0  0  0
   13.7808    4.6820   -1.3666 H   0  0  0  0  0  0  0  0  0  0  0  0
   13.0073    3.4022   -2.3100 H   0  0  0  0  0  0  0  0  0  0  0  0
   11.0303    1.5954    2.7473 H   0  0  0  0  0  0  0  0  0  0  0  0
   11.5382    4.0159    2.7083 H   0  0  0  0  0  0  0  0  0  0  0  0
   17.3972    2.3865   -2.0684 H   0  0  0  0  0  0  0  0  0  0  0  0
   17.3268    2.3854   -3.8362 H   0  0  0  0  0  0  0  0  0  0  0  0
   17.0233   -1.0868   -2.0006 H   0  0  0  0  0  0  0  0  0  0  0  0
   16.9043    0.3401   -0.9479 H   0  0  0  0  0  0  0  0  0  0  0  0
   18.3418    0.1071   -2.0001 H   0  0  0  0  0  0  0  0  0  0  0  0
   13.2671   -6.5850   -2.6103 H   0  0  0  0  0  0  0  0  0  0  0  0
   14.0999   -5.3133   -1.7096 H   0  0  0  0  0  0  0  0  0  0  0  0
   12.8535   -4.8941   -2.9154 H   0  0  0  0  0  0  0  0  0  0  0  0
    8.4615   -5.7898    2.5345 H   0  0  0  0  0  0  0  0  0  0  0  0
   13.0785   -0.7399   -0.7658 H   0  0  0  0  0  0  0  0  0  0  0  0
   10.2816   -0.6698    2.3926 H   0  0  0  0  0  0  0  0  0  0  0  0
   12.7741    4.9721    0.7774 H   0  0  0  0  0  0  0  0  0  0  0  0
   15.5083    2.7758   -0.8317 H   0  0  0  0  0  0  0  0  0  0  0  0
   11.6310   -6.5597   -0.9274 H   0  0  0  0  0  0  0  0  0  0  0  0
    7.9917   -3.6814    3.6741 H   0  0  0  0  0  0  0  0  0  0  0  0
    8.2412   -2.2608    2.6232 H   0  0  0  0  0  0  0  0  0  0  0  0
    9.4613   -2.6889    3.8771 H   0  0  0  0  0  0  0  0  0  0  0  0
  1  2  1  0  0  0  0
  1 20  2  0  0  0  0
  1 21  1  0  0  0  0
  2 22  1  0  0  0  0
  2 29  1  0  0  0  0
  2 30  1  0  0  0  0
  3  4  1  0  0  0  0
  3  8  2  0  0  0  0
  3 31  1  0  0  0  0
  4 21  2  0  0  0  0
  4 32  1  0  0  0  0
  5  6  1  0  0  0  0
  5 22  1  0  0  0  0
  5 23  2  0  0  0  0
  6 24  1  0  0  0  0
  6 33  1  0  0  0  0
  6 34  1  0  0  0  0
  7 24  1  0  0  0  0
  7 35  1  0  0  0  0
  7 36  1  0  0  0  0
  7 37  1  0  0  0  0
  8 18  1  0  0  0  0
  8 20  1  0  0  0  0
  9 27  1  0  0  0  0
  9 38  1  0  0  0  0
  9 39  1  0  0  0  0
  9 40  1  0  0  0  0
 10 11  2  0  0  0  0
 10 14  1  0  0  0  0
 10 28  1  0  0  0  0
 11 12  1  0  0  0  0
 11 41  1  0  0  0  0
 12 13  1  0  0  0  0
 13 14  1  0  0  0  0
 13 26  2  0  0  0  0
 14 15  2  0  0  0  0
 15 16  1  0  0  0  0
 15 19  1  0  0  0  0
 16 17  2  0  0  0  0
 16 25  1  0  0  0  0
 17 18  1  0  0  0  0
 17 42  1  0  0  0  0
 18 19  2  0  0  0  0
 19 43  1  0  0  0  0
 21 44  1  0  0  0  0
 22 45  1  0  0  0  0
 25 26  1  0  0  0  0
 26 27  1  0  0  0  0
 27 46  1  0  0  0  0
 28 47  1  0  0  0  0
 28 48  1  0  0  0  0
 28 49  1  0  0  0  0
M  CHG  2  10   1  17   1
M  END
$$$$
