3W3
 OpenBabel04111921473D

 27 27  0  0  0  0  0  0  0  0999 V2000
   -5.5604    4.5979   14.9300 C   0  0  0  0  0  0  0  0  0  0  0  0
   -6.0946    3.4917   15.5928 C   0  0  0  0  0  0  0  0  0  0  0  0
   -5.2887    2.3789   15.8457 C   0  0  0  0  0  0  0  0  0  0  0  0
   -5.9799    1.0341   16.7626 S   0  0  0  0  0  0  0  0  0  0  0  0
   -5.3811    1.0648   18.0798 O   0  0  0  0  0  0  0  0  0  0  0  0
   -7.4083    1.0385   16.5686 O   0  0  0  0  0  0  0  0  0  0  0  0
   -5.4233   -0.3367   16.0031 N   0  0  0  0  0  0  0  0  0  0  0  0
   -3.9542    2.3566   15.4273 C   0  0  0  0  0  0  0  0  0  0  0  0
   -3.4286    3.4640   14.7591 C   0  0  0  0  0  0  0  0  0  0  0  0
   -4.2242    4.5897   14.5189 C   0  0  0  0  0  0  0  0  0  0  0  0
   -3.8034    5.7350   13.9033 O   0  0  0  0  0  0  0  0  0  0  0  0
   -2.4256    5.7938   13.5304 C   0  0  0  0  0  0  0  0  0  0  0  0
   -2.0729    7.2389   13.2119 C   0  0  0  0  0  0  0  0  0  0  0  0
   -2.0000    8.0681   14.4848 C   0  0  0  0  0  0  0  0  0  0  0  0
   -6.1797    5.4728   14.7410 H   0  0  0  0  0  0  0  0  0  0  0  0
   -7.1299    3.5050   15.9325 H   0  0  0  0  0  0  0  0  0  0  0  0
   -5.6731   -1.2255   16.4291 H   0  0  0  0  0  0  0  0  0  0  0  0
   -4.7904   -0.2911   15.2139 H   0  0  0  0  0  0  0  0  0  0  0  0
   -3.3067    1.5083   15.6329 H   0  0  0  0  0  0  0  0  0  0  0  0
   -2.3904    3.4220   14.4498 H   0  0  0  0  0  0  0  0  0  0  0  0
   -2.2677    5.1717   12.6425 H   0  0  0  0  0  0  0  0  0  0  0  0
   -1.7770    5.4503   14.3455 H   0  0  0  0  0  0  0  0  0  0  0  0
   -2.8289    7.6723   12.5487 H   0  0  0  0  0  0  0  0  0  0  0  0
   -1.1028    7.2767   12.7050 H   0  0  0  0  0  0  0  0  0  0  0  0
   -1.7438    9.1039   14.2479 H   0  0  0  0  0  0  0  0  0  0  0  0
   -1.2332    7.6714   15.1590 H   0  0  0  0  0  0  0  0  0  0  0  0
   -2.9580    8.0603   15.0135 H   0  0  0  0  0  0  0  0  0  0  0  0
  1  2  2  0  0  0  0
  1 10  1  0  0  0  0
  1 15  1  0  0  0  0
  2  3  1  0  0  0  0
  2 16  1  0  0  0  0
  3  4  1  0  0  0  0
  3  8  2  0  0  0  0
  4  5  2  0  0  0  0
  4  6  2  0  0  0  0
  4  7  1  0  0  0  0
  7 17  1  0  0  0  0
  7 18  1  0  0  0  0
  8  9  1  0  0  0  0
  8 19  1  0  0  0  0
  9 10  2  0  0  0  0
  9 20  1  0  0  0  0
 10 11  1  0  0  0  0
 11 12  1  0  0  0  0
 12 13  1  0  0  0  0
 12 21  1  0  0  0  0
 12 22  1  0  0  0  0
 13 14  1  0  0  0  0
 13 23  1  0  0  0  0
 13 24  1  0  0  0  0
 14 25  1  0  0  0  0
 14 26  1  0  0  0  0
 14 27  1  0  0  0  0
M  END
$$$$
