3W6
 OpenBabel04111921483D

 27 27  0  0  0  0  0  0  0  0999 V2000
   -1.9787    8.0305   14.4870 C   0  0  0  0  0  0  0  0  0  0  0  0
   -2.0715    7.2320   13.1939 C   0  0  0  0  0  0  0  0  0  0  0  0
   -2.4132    5.7797   13.5019 C   0  0  0  0  0  0  0  0  0  0  0  0
   -3.7869    5.7200   13.8898 O   0  0  0  0  0  0  0  0  0  0  0  0
   -4.2113    4.5732   14.4975 C   0  0  0  0  0  0  0  0  0  0  0  0
   -5.5499    4.5843   14.9064 C   0  0  0  0  0  0  0  0  0  0  0  0
   -6.0938    3.4819   15.5686 C   0  0  0  0  0  0  0  0  0  0  0  0
   -5.2897    2.3701   15.8316 C   0  0  0  0  0  0  0  0  0  0  0  0
   -5.9649    1.0158   16.7517 S   0  0  0  0  0  0  0  0  0  0  0  0
   -5.3558    1.0367   18.0591 O   0  0  0  0  0  0  0  0  0  0  0  0
   -7.3988    1.0110   16.5701 O   0  0  0  0  0  0  0  0  0  0  0  0
   -5.4074   -0.3478   15.9803 N   0  0  0  0  0  0  0  0  0  0  0  0
   -3.9566    2.3456   15.4183 C   0  0  0  0  0  0  0  0  0  0  0  0
   -3.4246    3.4456   14.7432 C   0  0  0  0  0  0  0  0  0  0  0  0
   -1.7366    9.0758   14.2784 H   0  0  0  0  0  0  0  0  0  0  0  0
   -1.1959    7.6211   15.1344 H   0  0  0  0  0  0  0  0  0  0  0  0
   -2.9240    7.9980   15.0387 H   0  0  0  0  0  0  0  0  0  0  0  0
   -1.1129    7.2841   12.6667 H   0  0  0  0  0  0  0  0  0  0  0  0
   -2.8415    7.6741   12.5516 H   0  0  0  0  0  0  0  0  0  0  0  0
   -1.7517    5.4353   14.3063 H   0  0  0  0  0  0  0  0  0  0  0  0
   -2.2634    5.1605   12.6103 H   0  0  0  0  0  0  0  0  0  0  0  0
   -6.1647    5.4618   14.7282 H   0  0  0  0  0  0  0  0  0  0  0  0
   -7.1301    3.5103   15.8991 H   0  0  0  0  0  0  0  0  0  0  0  0
   -5.6896   -1.2323   16.3850 H   0  0  0  0  0  0  0  0  0  0  0  0
   -4.7877   -0.3049   15.1796 H   0  0  0  0  0  0  0  0  0  0  0  0
   -3.3136    1.4976   15.6403 H   0  0  0  0  0  0  0  0  0  0  0  0
   -2.3841    3.4026   14.4418 H   0  0  0  0  0  0  0  0  0  0  0  0
  1  2  1  0  0  0  0
  1 15  1  0  0  0  0
  1 16  1  0  0  0  0
  1 17  1  0  0  0  0
  2  3  1  0  0  0  0
  2 18  1  0  0  0  0
  2 19  1  0  0  0  0
  3  4  1  0  0  0  0
  3 20  1  0  0  0  0
  3 21  1  0  0  0  0
  4  5  1  0  0  0  0
  5  6  2  0  0  0  0
  5 14  1  0  0  0  0
  6  7  1  0  0  0  0
  6 22  1  0  0  0  0
  7  8  2  0  0  0  0
  7 23  1  0  0  0  0
  8  9  1  0  0  0  0
  8 13  1  0  0  0  0
  9 10  2  0  0  0  0
  9 11  2  0  0  0  0
  9 12  1  0  0  0  0
 12 24  1  0  0  0  0
 12 25  1  0  0  0  0
 13 14  2  0  0  0  0
 13 26  1  0  0  0  0
 14 27  1  0  0  0  0
M  END
$$$$
