3X8
 OpenBabel04111922243D

 44 46  0  0  1  0  0  0  0  0999 V2000
  -21.0287   -6.8507  -11.2779 C   0  0  2  0  0  0  0  0  0  0  0  0
  -21.4614   -5.8542  -12.3579 C   0  0  1  0  0  0  0  0  0  0  0  0
  -22.6980   -5.0856  -11.8842 C   0  0  0  0  0  0  0  0  0  0  0  0
  -19.7739   -7.5715  -11.7537 C   0  0  2  0  0  0  0  0  0  0  0  0
  -21.2608   -3.4994  -19.7448 C   0  0  0  0  0  0  0  0  0  0  0  0
  -21.7656   -3.1473  -20.9930 C   0  0  0  0  0  0  0  0  0  0  0  0
  -22.5050   -4.0707  -21.7255 C   0  0  0  0  0  0  0  0  0  0  0  0
  -22.7443   -5.3457  -21.2211 C   0  0  0  0  0  0  0  0  0  0  0  0
  -22.2378   -5.6901  -19.9766 C   0  0  0  0  0  0  0  0  0  0  0  0
  -21.4995   -4.7753  -19.2155 C   0  0  0  0  0  0  0  0  0  0  0  0
  -20.9766   -5.1493  -17.9659 C   0  0  0  0  0  0  0  0  0  0  0  0
  -20.8514   -4.2345  -16.9052 C   0  0  0  0  0  0  0  0  0  0  0  0
  -20.3494   -4.6336  -15.6683 C   0  0  0  0  0  0  0  0  0  0  0  0
  -20.5900   -6.4785  -17.7380 C   0  0  0  0  0  0  0  0  0  0  0  0
  -20.0931   -6.8783  -16.5007 C   0  0  0  0  0  0  0  0  0  0  0  0
  -19.9600   -5.9481  -15.4690 C   0  0  0  0  0  0  0  0  0  0  0  0
  -19.4702   -6.4586  -14.3173 O   0  0  0  0  0  0  0  0  0  0  0  0
  -19.2393   -5.6090  -13.1769 C   0  0  1  0  0  0  0  0  0  0  0  0
  -20.4150   -4.9371  -12.6969 O   0  0  0  0  0  0  0  0  0  0  0  0
  -22.3896   -4.3714  -10.6920 O   0  0  0  0  0  0  0  0  0  0  0  0
  -22.0659   -7.8005  -11.0351 O   0  0  0  0  0  0  0  0  0  0  0  0
  -19.3306   -8.4857  -10.7452 O   0  0  0  0  0  0  0  0  0  0  0  0
  -18.6906   -6.5341  -12.0701 C   0  0  1  0  0  0  0  0  0  0  0  0
  -18.3492   -5.7668  -10.9093 O   0  0  0  0  0  0  0  0  0  0  0  0
  -20.7926   -6.3068  -10.3408 H   0  0  0  0  0  0  0  0  0  0  0  0
  -21.7390   -6.4135  -13.2595 H   0  0  0  0  0  0  0  0  0  0  0  0
  -23.5189   -5.7787  -11.6678 H   0  0  0  0  0  0  0  0  0  0  0  0
  -23.0285   -4.3856  -12.6532 H   0  0  0  0  0  0  0  0  0  0  0  0
  -20.0206   -8.1520  -12.6563 H   0  0  0  0  0  0  0  0  0  0  0  0
  -20.6779   -2.7755  -19.1782 H   0  0  0  0  0  0  0  0  0  0  0  0
  -21.5789   -2.1575  -21.3846 H   0  0  0  0  0  0  0  0  0  0  0  0
  -22.8984   -3.8000  -22.6935 H   0  0  0  0  0  0  0  0  0  0  0  0
  -23.3219   -6.0719  -21.7851 H   0  0  0  0  0  0  0  0  0  0  0  0
  -22.4311   -6.6853  -19.5828 H   0  0  0  0  0  0  0  0  0  0  0  0
  -21.1516   -3.2009  -17.0525 H   0  0  0  0  0  0  0  0  0  0  0  0
  -20.2703   -3.8984  -14.8793 H   0  0  0  0  0  0  0  0  0  0  0  0
  -20.6709   -7.2097  -18.5429 H   0  0  0  0  0  0  0  0  0  0  0  0
  -19.8052   -7.9074  -16.3703 H   0  0  0  0  0  0  0  0  0  0  0  0
  -18.4782   -4.8577  -13.4159 H   0  0  0  0  0  0  0  0  0  0  0  0
  -23.1760   -3.8823  -10.4103 H   0  0  0  0  0  0  0  0  0  0  0  0
  -22.8396   -7.3079  -10.7020 H   0  0  0  0  0  0  0  0  0  0  0  0
  -18.5625   -8.9655  -11.0910 H   0  0  0  0  0  0  0  0  0  0  0  0
  -17.7880   -7.0498  -12.4166 H   0  0  0  0  0  0  0  0  0  0  0  0
  -18.0643   -6.3891  -10.2151 H   0  0  0  0  0  0  0  0  0  0  0  0
  1  2  1  0  0  0  0
  1  4  1  0  0  0  0
  1 21  1  0  0  0  0
  1 25  1  1  0  0  0
  2  3  1  0  0  0  0
  2 19  1  0  0  0  0
  2 26  1  6  0  0  0
  3 20  1  0  0  0  0
  3 27  1  0  0  0  0
  3 28  1  0  0  0  0
  4 22  1  0  0  0  0
  4 23  1  0  0  0  0
  4 29  1  6  0  0  0
  5  6  2  0  0  0  0
  5 10  1  0  0  0  0
  5 30  1  0  0  0  0
  6  7  1  0  0  0  0
  6 31  1  0  0  0  0
  7  8  2  0  0  0  0
  7 32  1  0  0  0  0
  8  9  1  0  0  0  0
  8 33  1  0  0  0  0
  9 10  2  0  0  0  0
  9 34  1  0  0  0  0
 10 11  1  0  0  0  0
 11 12  2  0  0  0  0
 11 14  1  0  0  0  0
 12 13  1  0  0  0  0
 12 35  1  0  0  0  0
 13 16  2  0  0  0  0
 13 36  1  0  0  0  0
 14 15  2  0  0  0  0
 14 37  1  0  0  0  0
 15 16  1  0  0  0  0
 15 38  1  0  0  0  0
 16 17  1  0  0  0  0
 17 18  1  0  0  0  0
 18 19  1  0  0  0  0
 18 23  1  0  0  0  0
 18 39  1  6  0  0  0
 20 40  1  0  0  0  0
 21 41  1  0  0  0  0
 22 42  1  0  0  0  0
 23 24  1  0  0  0  0
 23 43  1  6  0  0  0
 24 44  1  0  0  0  0
M  END
$$$$
