3XN
 OpenBabel04111922253D

 50 53  0  0  1  0  0  0  0  0999 V2000
  -24.0595   -9.7350   -7.7011 O   0  0  0  0  0  0  0  0  0  0  0  0
  -27.1597   -7.5862   -7.9252 C   0  0  1  0  0  0  0  0  0  0  0  0
  -27.7331   -6.4311   -7.1038 C   0  0  0  0  0  0  0  0  0  0  0  0
  -24.0550   -7.6850   -9.6285 O   0  0  0  0  0  0  0  0  0  0  0  0
  -28.5579   -8.9398  -10.7094 C   0  0  0  0  0  0  0  0  0  0  0  0
  -37.4697  -10.6591  -10.0586 N   0  0  0  0  0  0  0  0  0  0  0  0
  -29.0296   -7.7353  -11.2230 C   0  0  0  0  0  0  0  0  0  0  0  0
  -30.3522   -7.6351  -11.6662 C   0  0  0  0  0  0  0  0  0  0  0  0
  -31.2044   -8.7388  -11.5529 C   0  0  0  0  0  0  0  0  0  0  0  0
  -27.2955   -9.1866  -10.2824 O   0  0  0  0  0  0  0  0  0  0  0  0
  -30.7231   -9.9427  -11.0275 C   0  0  0  0  0  0  0  0  0  0  0  0
  -37.5583  -11.1021   -8.8997 O   0  0  0  0  0  0  0  0  0  0  0  0
  -29.4048  -10.0372  -10.6067 C   0  0  0  0  0  0  0  0  0  0  0  0
  -33.0141   -7.8983  -13.0375 C   0  0  0  0  0  0  0  0  0  0  0  0
  -34.3732   -8.0974  -13.1713 C   0  0  0  0  0  0  0  0  0  0  0  0
  -38.4443  -10.5629  -10.8310 O   0  0  0  0  0  0  0  0  0  0  0  0
  -34.8032   -8.9319  -12.1096 C   0  0  1  0  0  0  0  0  0  0  0  0
  -33.6603   -9.2849  -11.3697 C   0  0  2  0  0  0  0  0  0  0  0  0
  -36.1654  -10.2025  -10.5229 C   0  0  1  0  0  0  0  0  0  0  0  0
  -36.0629   -9.4138  -11.6952 C   0  0  0  0  0  0  0  0  0  0  0  0
  -35.0174  -10.5233   -9.7942 C   0  0  0  0  0  0  0  0  0  0  0  0
  -33.7723  -10.0756  -10.2076 C   0  0  0  0  0  0  0  0  0  0  0  0
  -32.5635   -8.6523  -11.9667 N   0  3  0  0  0  0  0  0  0  0  0  0
  -26.4044   -8.0819  -10.1302 C   0  0  1  0  0  0  0  0  0  0  0  0
  -26.8942   -7.0829   -9.2366 O   0  0  0  0  0  0  0  0  0  0  0  0
  -26.7557   -5.4087   -6.9342 O   0  0  0  0  0  0  0  0  0  0  0  0
  -25.9085   -8.2022   -7.2798 C   0  0  1  0  0  0  0  0  0  0  0  0
  -26.2698   -8.8462   -6.0449 O   0  0  0  0  0  0  0  0  0  0  0  0
  -25.3121   -9.2568   -8.2221 C   0  0  1  0  0  0  0  0  0  0  0  0
  -25.0879   -8.6759   -9.6240 C   0  0  2  0  0  0  0  0  0  0  0  0
  -23.7728  -10.4736   -8.2637 H   0  0  0  0  0  0  0  0  0  0  0  0
  -27.9473   -8.3482   -7.9844 H   0  0  0  0  0  0  0  0  0  0  0  0
  -28.0447   -6.7703   -6.1126 H   0  0  0  0  0  0  0  0  0  0  0  0
  -28.5982   -6.0050   -7.6231 H   0  0  0  0  0  0  0  0  0  0  0  0
  -23.2755   -8.0897   -9.2069 H   0  0  0  0  0  0  0  0  0  0  0  0
  -28.3931   -6.8554  -11.2780 H   0  0  0  0  0  0  0  0  0  0  0  0
  -30.6989   -6.6758  -12.0400 H   0  0  0  0  0  0  0  0  0  0  0  0
  -31.3350  -10.8360  -10.9832 H   0  0  0  0  0  0  0  0  0  0  0  0
  -29.0340  -10.9753  -10.2021 H   0  0  0  0  0  0  0  0  0  0  0  0
  -32.3318   -7.3329  -13.6542 H   0  0  0  0  0  0  0  0  0  0  0  0
  -34.9855   -7.6554  -13.9441 H   0  0  0  0  0  0  0  0  0  0  0  0
  -36.9513   -9.1447  -12.2659 H   0  0  0  0  0  0  0  0  0  0  0  0
  -35.0919  -11.1252   -8.8882 H   0  0  0  0  0  0  0  0  0  0  0  0
  -32.9044  -10.3242   -9.5976 H   0  0  0  0  0  0  0  0  0  0  0  0
  -26.2198   -7.5983  -11.0971 H   0  0  0  0  0  0  0  0  0  0  0  0
  -27.1813   -4.6671   -6.4733 H   0  0  0  0  0  0  0  0  0  0  0  0
  -25.1453   -7.4423   -7.0718 H   0  0  0  0  0  0  0  0  0  0  0  0
  -26.5368   -8.1497   -5.4262 H   0  0  0  0  0  0  0  0  0  0  0  0
  -25.9950  -10.1166   -8.2649 H   0  0  0  0  0  0  0  0  0  0  0  0
  -24.7616   -9.4783  -10.2940 H   0  0  0  0  0  0  0  0  0  0  0  0
  1 29  1  0  0  0  0
  1 31  1  0  0  0  0
  2  3  1  0  0  0  0
  2 25  1  0  0  0  0
  2 27  1  0  0  0  0
  2 32  1  6  0  0  0
  3 26  1  0  0  0  0
  3 33  1  0  0  0  0
  3 34  1  0  0  0  0
  4 30  1  0  0  0  0
  4 35  1  0  0  0  0
  5  7  2  0  0  0  0
  5 10  1  0  0  0  0
  5 13  1  0  0  0  0
  6 12  2  0  0  0  0
  6 16  2  0  0  0  0
  7  8  1  0  0  0  0
  7 36  1  0  0  0  0
  8  9  2  0  0  0  0
  8 37  1  0  0  0  0
  9 11  1  0  0  0  0
  9 23  1  0  0  0  0
 10 24  1  0  0  0  0
 11 13  2  0  0  0  0
 11 38  1  0  0  0  0
 13 39  1  0  0  0  0
 14 15  1  0  0  0  0
 14 23  1  0  0  0  0
 14 40  1  0  0  0  0
 15 41  1  0  0  0  0
 17 15  1  1  0  0  0
 17 18  1  0  0  0  0
 17 20  1  0  0  0  0
 18 22  1  1  0  0  0
 18 23  1  0  0  0  0
 19  6  1  1  0  0  0
 19 20  1  0  0  0  0
 19 21  1  0  0  0  0
 20 42  1  0  0  0  0
 21 22  1  0  0  0  0
 21 43  1  0  0  0  0
 22 44  1  0  0  0  0
 24 25  1  0  0  0  0
 24 30  1  0  0  0  0
 24 45  1  6  0  0  0
 26 46  1  0  0  0  0
 27 28  1  0  0  0  0
 27 29  1  0  0  0  0
 27 47  1  1  0  0  0
 28 48  1  0  0  0  0
 29 30  1  0  0  0  0
 29 49  1  6  0  0  0
 30 50  1  6  0  0  0
M  CHG  1  23   1
M  END
$$$$
