3XO
 OpenBabel04111922253D

 60 63  0  0  1  0  0  0  0  0999 V2000
   11.7256   14.0612  -14.9888 O   0  0  0  0  0  0  0  0  0  0  0  0
    9.7204   18.3931  -16.1479 C   0  0  0  0  0  0  0  0  0  0  0  0
    9.3676   17.1823  -15.5682 C   0  0  0  0  0  0  0  0  0  0  0  0
   11.1430   13.9509  -11.3387 O   0  0  0  0  0  0  0  0  0  0  0  0
   10.4922   20.8700  -17.7730 C   0  0  0  0  0  0  0  0  0  0  0  0
   11.7026   22.5226  -19.2722 N   0  0  0  0  0  0  0  0  0  0  0  0
   10.8006   22.0577  -18.4069 C   0  0  0  0  0  0  0  0  0  0  0  0
    9.6934   22.7540  -17.7098 C   0  0  0  0  0  0  0  0  0  0  0  0
   14.1891   23.8304  -19.9822 N   0  3  1  0  0  0  0  0  0  0  0  0
    9.3299   21.4871  -17.0478 C   0  0  0  0  0  0  0  0  0  0  0  0
    9.2766   11.9994  -12.2959 O   0  0  0  0  0  0  0  0  0  0  0  0
   12.8195   21.7269  -19.8073 C   0  0  0  0  0  0  0  0  0  0  0  0
   10.5068   11.4033  -14.7760 O   0  0  0  0  0  0  0  0  0  0  0  0
   14.1735   22.3922  -19.4969 C   0  0  0  0  0  0  0  0  0  0  0  0
   13.0177   24.5956  -19.3738 C   0  0  0  0  0  0  0  0  0  0  0  0
   11.6918   23.9195  -19.7549 C   0  0  0  0  0  0  0  0  0  0  0  0
   14.0322   13.6384  -13.4502 O   0  0  0  0  0  0  0  0  0  0  0  0
   15.4915   24.4997  -19.6729 C   0  0  0  0  0  0  0  0  0  0  0  0
   10.4074   13.7363  -15.4376 C   0  0  2  0  0  0  0  0  0  0  0  0
    8.4452   21.2540  -16.2553 O   0  0  0  0  0  0  0  0  0  0  0  0
    9.2887   23.8949  -17.6053 O   0  0  0  0  0  0  0  0  0  0  0  0
   11.0156   19.6597  -17.8123 N   0  0  0  0  0  0  0  0  0  0  0  0
   10.6686   18.4607  -17.1630 C   0  0  0  0  0  0  0  0  0  0  0  0
   11.2723   17.2626  -17.5853 C   0  0  0  0  0  0  0  0  0  0  0  0
   10.9210   16.0430  -17.0075 C   0  0  0  0  0  0  0  0  0  0  0  0
    8.1954   17.1877  -14.2996 Cl  0  0  0  0  0  0  0  0  0  0  0  0
    9.9602   16.0002  -15.9989 C   0  0  0  0  0  0  0  0  0  0  0  0
    9.5293   14.8573  -15.3943 O   0  0  0  0  0  0  0  0  0  0  0  0
    9.7817   12.6257  -14.5872 C   0  0  2  0  0  0  0  0  0  0  0  0
    9.7792   13.0624  -13.1185 C   0  0  2  0  0  0  0  0  0  0  0  0
   11.1979   13.4294  -12.6734 C   0  0  1  0  0  0  0  0  0  0  0  0
   11.7694   14.4872  -13.6215 C   0  0  1  0  0  0  0  0  0  0  0  0
   13.2286   14.8035  -13.2905 C   0  0  0  0  0  0  0  0  0  0  0  0
    9.2379   19.2770  -15.7702 H   0  0  0  0  0  0  0  0  0  0  0  0
   12.0555   14.1009  -11.0432 H   0  0  0  0  0  0  0  0  0  0  0  0
    8.3426   11.8598  -12.5221 H   0  0  0  0  0  0  0  0  0  0  0  0
   12.6973   21.6312  -20.8922 H   0  0  0  0  0  0  0  0  0  0  0  0
   12.8557   20.7242  -19.3883 H   0  0  0  0  0  0  0  0  0  0  0  0
   10.1360   10.7486  -14.1567 H   0  0  0  0  0  0  0  0  0  0  0  0
   14.3503   22.4207  -18.4162 H   0  0  0  0  0  0  0  0  0  0  0  0
   14.9872   21.8674  -20.0047 H   0  0  0  0  0  0  0  0  0  0  0  0
   13.0644   25.6181  -19.7533 H   0  0  0  0  0  0  0  0  0  0  0  0
   13.1616   24.5707  -18.2878 H   0  0  0  0  0  0  0  0  0  0  0  0
   10.8711   24.5057  -19.3431 H   0  0  0  0  0  0  0  0  0  0  0  0
   11.5787   23.9095  -20.8470 H   0  0  0  0  0  0  0  0  0  0  0  0
   14.9535   13.8768  -13.2623 H   0  0  0  0  0  0  0  0  0  0  0  0
   16.2906   23.9241  -20.1456 H   0  0  0  0  0  0  0  0  0  0  0  0
   15.6159   24.5209  -18.5870 H   0  0  0  0  0  0  0  0  0  0  0  0
   15.4562   25.5121  -20.0818 H   0  0  0  0  0  0  0  0  0  0  0  0
   10.4833   13.3701  -16.4679 H   0  0  0  0  0  0  0  0  0  0  0  0
   11.7974   19.4783  -18.4366 H   0  0  0  0  0  0  0  0  0  0  0  0
   12.0150   17.2548  -18.3801 H   0  0  0  0  0  0  0  0  0  0  0  0
   11.4043   15.1355  -17.3585 H   0  0  0  0  0  0  0  0  0  0  0  0
    8.7509   12.4410  -14.9081 H   0  0  0  0  0  0  0  0  0  0  0  0
    9.1205   13.9327  -12.9805 H   0  0  0  0  0  0  0  0  0  0  0  0
   11.8146   12.5232  -12.6778 H   0  0  0  0  0  0  0  0  0  0  0  0
   11.2030   15.4215  -13.5051 H   0  0  0  0  0  0  0  0  0  0  0  0
   13.6018   15.5809  -13.9637 H   0  0  0  0  0  0  0  0  0  0  0  0
   13.3308   15.1508  -12.2594 H   0  0  0  0  0  0  0  0  0  0  0  0
   14.0593   23.8195  -21.0033 H   0  0  0  0  0  0  0  0  0  0  0  0
  1 19  1  0  0  0  0
  1 32  1  0  0  0  0
  2  3  2  0  0  0  0
  2 23  1  0  0  0  0
  2 34  1  0  0  0  0
  3 26  1  0  0  0  0
  3 27  1  0  0  0  0
  4 31  1  0  0  0  0
  4 35  1  0  0  0  0
  5  7  2  0  0  0  0
  5 10  1  0  0  0  0
  5 22  1  0  0  0  0
  6  7  1  0  0  0  0
  6 12  1  0  0  0  0
  6 16  1  0  0  0  0
  7  8  1  0  0  0  0
  8 10  1  0  0  0  0
  8 21  2  0  0  0  0
  9 14  1  0  0  0  0
  9 15  1  0  0  0  0
  9 18  1  0  0  0  0
  9 60  1  6  0  0  0
 10 20  2  0  0  0  0
 11 30  1  0  0  0  0
 11 36  1  0  0  0  0
 12 14  1  0  0  0  0
 12 37  1  0  0  0  0
 12 38  1  0  0  0  0
 13 29  1  0  0  0  0
 13 39  1  0  0  0  0
 14 40  1  0  0  0  0
 14 41  1  0  0  0  0
 15 16  1  0  0  0  0
 15 42  1  0  0  0  0
 15 43  1  0  0  0  0
 16 44  1  0  0  0  0
 16 45  1  0  0  0  0
 17 33  1  0  0  0  0
 17 46  1  0  0  0  0
 18 47  1  0  0  0  0
 18 48  1  0  0  0  0
 18 49  1  0  0  0  0
 19 28  1  0  0  0  0
 19 29  1  0  0  0  0
 19 50  1  6  0  0  0
 22 23  1  0  0  0  0
 22 51  1  0  0  0  0
 23 24  2  0  0  0  0
 24 25  1  0  0  0  0
 24 52  1  0  0  0  0
 25 27  2  0  0  0  0
 25 53  1  0  0  0  0
 27 28  1  0  0  0  0
 29 30  1  0  0  0  0
 29 54  1  6  0  0  0
 30 31  1  0  0  0  0
 30 55  1  1  0  0  0
 31 32  1  0  0  0  0
 31 56  1  6  0  0  0
 32 33  1  0  0  0  0
 32 57  1  1  0  0  0
 33 58  1  0  0  0  0
 33 59  1  0  0  0  0
M  CHG  1   9   1
M  END
$$$$
