3XW
 OpenBabel04111922263D

 68 73  0  0  1  0  0  0  0  0999 V2000
   13.1736    7.6567   12.4593 C   0  0  0  0  0  0  0  0  0  0  0  0
   13.4572    8.9910   12.3847 C   0  0  0  0  0  0  0  0  0  0  0  0
   12.4195    9.8213   11.9962 C   0  0  0  0  0  0  0  0  0  0  0  0
   11.2130    9.2840   11.7204 N   0  0  0  0  0  0  0  0  0  0  0  0
   11.9920    7.0843   12.1739 N   0  0  0  0  0  0  0  0  0  0  0  0
   17.5921    8.5250   11.1646 F   0  0  0  0  0  0  0  0  0  0  0  0
   17.7873    7.6876   12.2162 C   0  0  0  0  0  0  0  0  0  0  0  0
   19.1070    7.7265   12.5196 F   0  0  0  0  0  0  0  0  0  0  0  0
   17.5029    6.4322   11.7977 F   0  0  0  0  0  0  0  0  0  0  0  0
   16.9372    8.0856   13.4113 C   0  0  0  0  0  0  0  0  0  0  0  0
   15.5081    8.1608   13.0528 C   0  0  0  0  0  0  0  0  0  0  0  0
   14.5248    6.7837   12.9964 S   0  0  0  0  0  0  0  0  0  0  0  0
   14.7923    9.2689   12.7252 C   0  0  0  0  0  0  0  0  0  0  0  0
   11.0443    7.9586   11.8276 C   0  0  0  0  0  0  0  0  0  0  0  0
   12.6535   11.1815   11.9133 N   0  0  0  0  0  0  0  0  0  0  0  0
   11.6251   12.1366   11.5470 C   0  0  1  0  0  0  0  0  0  0  0  0
   11.6976   13.3174   12.5147 C   0  0  0  0  0  0  0  0  0  0  0  0
   10.7061   14.3961   12.1710 C   0  0  0  0  0  0  0  0  0  0  0  0
   11.8525   12.7038   10.1415 C   0  0  0  0  0  0  0  0  0  0  0  0
   10.9683   13.9129    9.8429 C   0  0  0  0  0  0  0  0  0  0  0  0
   11.0954   14.9907   10.8696 N   0  3  1  0  0  0  0  0  0  0  0  0
   10.1631   16.0818   10.5076 C   0  0  0  0  0  0  0  0  0  0  0  0
   10.2157   17.3150   11.3158 C   0  0  2  0  0  0  0  0  0  0  0  0
    9.0677   17.7644   11.9253 C   0  0  1  0  0  0  0  0  0  0  0  0
    7.8042   17.0334   11.8458 C   0  0  0  0  0  0  0  0  0  0  0  0
   11.3597   18.0639   11.4194 C   0  0  0  0  0  0  0  0  0  0  0  0
   11.3513   19.2321   12.1442 C   0  0  0  0  0  0  0  0  0  0  0  0
   10.2040   19.6596   12.7532 C   0  0  2  0  0  0  0  0  0  0  0  0
    9.0497   18.9261   12.6476 C   0  0  2  0  0  0  0  0  0  0  0  0
    8.0503   19.5639   13.3456 C   0  0  0  0  0  0  0  0  0  0  0  0
    8.6328   20.6800   13.8554 C   0  0  2  0  0  0  0  0  0  0  0  0
    8.0428   21.5814   14.6026 C   0  0  0  0  0  0  0  0  0  0  0  0
    7.5660   22.4133   15.2735 N   0  0  0  0  0  0  0  0  0  0  0  0
    9.9301   20.7566   13.4889 N   0  3  1  0  0  0  0  0  0  0  0  0
   10.8042   21.8067   13.9300 C   0  0  0  0  0  0  0  0  0  0  0  0
   10.9057   22.9047   13.0030 C   0  0  1  0  0  0  0  0  0  0  0  0
    9.9628   23.8322   12.5877 C   0  0  0  0  0  0  0  0  0  0  0  0
   10.5143   24.7033   11.7368 N   0  0  0  0  0  0  0  0  0  0  0  0
   11.8052   24.3340   11.6269 N   0  3  0  0  0  0  0  0  0  0  0  0
   12.0739   23.2612   12.3773 C   0  0  0  0  0  0  0  0  0  0  0  0
   17.2358    9.0823   13.7789 H   0  0  0  0  0  0  0  0  0  0  0  0
   17.0669    7.3684   14.2340 H   0  0  0  0  0  0  0  0  0  0  0  0
   15.2218   10.2437   12.7270 H   0  0  0  0  0  0  0  0  0  0  0  0
   10.0274    7.5553   11.6173 H   0  0  0  0  0  0  0  0  0  0  0  0
   13.5917   11.4879   12.1303 H   0  0  0  0  0  0  0  0  0  0  0  0
   10.6272   11.6823   11.5995 H   0  0  0  0  0  0  0  0  0  0  0  0
   12.7066   13.7469   12.4807 H   0  0  0  0  0  0  0  0  0  0  0  0
   11.4772   12.9756   13.5214 H   0  0  0  0  0  0  0  0  0  0  0  0
   10.6998   15.1760   12.9244 H   0  0  0  0  0  0  0  0  0  0  0  0
    9.7019   13.9747   12.0454 H   0  0  0  0  0  0  0  0  0  0  0  0
   11.6230   11.9252    9.4014 H   0  0  0  0  0  0  0  0  0  0  0  0
   12.9079   12.9897   10.0324 H   0  0  0  0  0  0  0  0  0  0  0  0
    9.9099   13.6201    9.8567 H   0  0  0  0  0  0  0  0  0  0  0  0
   11.2180   14.3564    8.8804 H   0  0  0  0  0  0  0  0  0  0  0  0
    9.2104   15.6210   10.5986 H   0  0  0  0  0  0  0  0  0  0  0  0
   10.3125   16.3574    9.4779 H   0  0  0  0  0  0  0  0  0  0  0  0
    7.9315   16.1701   11.2706 H   0  0  0  0  0  0  0  0  0  0  0  0
    7.0787   17.6676   11.3639 H   0  0  0  0  0  0  0  0  0  0  0  0
    7.5208   16.7493   12.8465 H   0  0  0  0  0  0  0  0  0  0  0  0
   12.2680   17.7485   10.9271 H   0  0  0  0  0  0  0  0  0  0  0  0
   12.2210   19.8341   12.2519 H   0  0  0  0  0  0  0  0  0  0  0  0
    7.0486   19.2597   13.4656 H   0  0  0  0  0  0  0  0  0  0  0  0
   11.7892   21.3669   14.0576 H   0  0  0  0  0  0  0  0  0  0  0  0
   10.4371   22.1744   14.8866 H   0  0  0  0  0  0  0  0  0  0  0  0
    8.9207   23.8691   12.8828 H   0  0  0  0  0  0  0  0  0  0  0  0
   12.4266   24.8631   11.0223 H   0  0  0  0  0  0  0  0  0  0  0  0
   13.0175   22.7907   12.4553 H   0  0  0  0  0  0  0  0  0  0  0  0
   12.0626   15.3542   10.9048 H   0  0  0  0  0  0  0  0  0  0  0  0
  1  2  2  0  0  0  0
  1  5  1  0  0  0  0
  1 12  1  0  0  0  0
  2  3  1  0  0  0  0
  2 13  1  0  0  0  0
  3  4  2  0  0  0  0
  3 15  1  0  0  0  0
  4 14  1  0  0  0  0
  5 14  2  0  0  0  0
  6  7  1  0  0  0  0
  7  8  1  0  0  0  0
  7  9  1  0  0  0  0
  7 10  1  0  0  0  0
 10 11  1  0  0  0  0
 10 41  1  0  0  0  0
 10 42  1  0  0  0  0
 11 12  1  0  0  0  0
 11 13  2  0  0  0  0
 13 43  1  0  0  0  0
 14 44  1  0  0  0  0
 15 16  1  0  0  0  0
 15 45  1  0  0  0  0
 16 17  1  0  0  0  0
 16 19  1  0  0  0  0
 16 46  1  1  0  0  0
 17 18  1  0  0  0  0
 17 47  1  0  0  0  0
 17 48  1  0  0  0  0
 18 21  1  0  0  0  0
 18 49  1  0  0  0  0
 18 50  1  0  0  0  0
 19 20  1  0  0  0  0
 19 51  1  0  0  0  0
 19 52  1  0  0  0  0
 20 21  1  0  0  0  0
 20 53  1  0  0  0  0
 20 54  1  0  0  0  0
 21 22  1  0  0  0  0
 21 68  1  1  0  0  0
 22 55  1  0  0  0  0
 22 56  1  0  0  0  0
 23 22  1  6  0  0  0
 23 24  1  0  0  0  0
 23 26  1  0  0  0  0
 24 25  1  1  0  0  0
 24 29  1  0  0  0  0
 25 57  1  0  0  0  0
 25 58  1  0  0  0  0
 25 59  1  0  0  0  0
 26 27  1  0  0  0  0
 26 60  1  0  0  0  0
 27 61  1  0  0  0  0
 28 27  1  6  0  0  0
 28 29  1  0  0  0  0
 28 34  1  0  0  0  0
 29 30  1  1  0  0  0
 30 31  1  0  0  0  0
 30 62  1  0  0  0  0
 31 32  1  6  0  0  0
 31 34  1  0  0  0  0
 32 33  3  0  0  0  0
 34 35  1  1  0  0  0
 35 63  1  0  0  0  0
 35 64  1  0  0  0  0
 36 35  1  1  0  0  0
 36 37  1  0  0  0  0
 36 40  1  0  0  0  0
 37 38  1  0  0  0  0
 37 65  1  0  0  0  0
 38 39  1  0  0  0  0
 39 40  1  0  0  0  0
 39 66  1  0  0  0  0
 40 67  1  0  0  0  0
M  CHG  3  21   1  34   1  39   1
M  END
$$$$
