3XY
 OpenBabel04111922263D

 55 59  0  0  1  0  0  0  0  0999 V2000
   13.3615    7.6727   12.5497 C   0  0  0  0  0  0  0  0  0  0  0  0
   13.6635    9.0124   12.4214 C   0  0  0  0  0  0  0  0  0  0  0  0
   12.6179    9.8669   12.0522 C   0  0  0  0  0  0  0  0  0  0  0  0
   11.3907    9.3468   11.8160 N   0  0  0  0  0  0  0  0  0  0  0  0
   12.1318    7.1409   12.3380 N   0  0  0  0  0  0  0  0  0  0  0  0
   19.3575    7.7086   12.4663 F   0  0  0  0  0  0  0  0  0  0  0  0
   18.0330    7.6794   12.2084 C   0  0  0  0  0  0  0  0  0  0  0  0
   17.7010    6.4047   11.9188 F   0  0  0  0  0  0  0  0  0  0  0  0
   17.8234    8.4317   11.1027 F   0  0  0  0  0  0  0  0  0  0  0  0
   17.2193    8.1882   13.3684 C   0  0  0  0  0  0  0  0  0  0  0  0
   15.7565    8.1751   13.0392 C   0  0  0  0  0  0  0  0  0  0  0  0
   14.7574    6.7711   13.0646 S   0  0  0  0  0  0  0  0  0  0  0  0
   15.0259    9.2798   12.6997 C   0  0  0  0  0  0  0  0  0  0  0  0
   11.1900    8.0358   11.9913 C   0  0  0  0  0  0  0  0  0  0  0  0
   12.8371   11.2290   11.9047 N   0  0  0  0  0  0  0  0  0  0  0  0
   11.7304   12.0910   11.5478 C   0  0  1  0  0  0  0  0  0  0  0  0
   11.8022   13.2872   12.5006 C   0  0  0  0  0  0  0  0  0  0  0  0
   10.7676   14.3399   12.1896 C   0  0  0  0  0  0  0  0  0  0  0  0
   11.8301   12.5291   10.0849 C   0  0  0  0  0  0  0  0  0  0  0  0
   10.9264   13.7098    9.7798 C   0  0  0  0  0  0  0  0  0  0  0  0
   11.0280   14.8257   10.7857 N   0  3  1  0  0  0  0  0  0  0  0  0
   10.0637   15.9175   10.3821 C   0  0  0  0  0  0  0  0  0  0  0  0
   10.1631   17.1538   11.2097 C   0  0  2  0  0  0  0  0  0  0  0  0
    9.0223   17.6353   11.8419 C   0  0  0  0  0  0  0  0  0  0  0  0
    9.0876   18.8178   12.5711 C   0  0  1  0  0  0  0  0  0  0  0  0
    8.1445   19.5350   13.3014 C   0  0  0  0  0  0  0  0  0  0  0  0
    8.7995   20.6094   13.8300 C   0  0  1  0  0  0  0  0  0  0  0  0
    8.3176   21.6172   14.6202 C   0  0  0  0  0  0  0  0  0  0  0  0
    7.9118   22.4842   15.3045 N   0  0  0  0  0  0  0  0  0  0  0  0
   10.1015   20.5761   13.4770 N   0  3  0  0  0  0  0  0  0  0  0  0
   10.2943   19.4850   12.6939 C   0  0  1  0  0  0  0  0  0  0  0  0
   11.4368   19.0194   12.0900 C   0  0  0  0  0  0  0  0  0  0  0  0
   11.3532   17.8618   11.3198 C   0  0  0  0  0  0  0  0  0  0  0  0
   17.5210    9.2283   13.5952 H   0  0  0  0  0  0  0  0  0  0  0  0
   17.4134    7.5765   14.2516 H   0  0  0  0  0  0  0  0  0  0  0  0
   15.4345   10.2705   12.6539 H   0  0  0  0  0  0  0  0  0  0  0  0
   10.1477    7.6632   11.8549 H   0  0  0  0  0  0  0  0  0  0  0  0
   13.7707   11.5971   12.0602 H   0  0  0  0  0  0  0  0  0  0  0  0
   10.7582   11.5934   11.6926 H   0  0  0  0  0  0  0  0  0  0  0  0
   12.8093   13.7254   12.4298 H   0  0  0  0  0  0  0  0  0  0  0  0
   11.6528   12.9258   13.5254 H   0  0  0  0  0  0  0  0  0  0  0  0
   10.8428   15.1839   12.8907 H   0  0  0  0  0  0  0  0  0  0  0  0
    9.7513   13.9315   12.2228 H   0  0  0  0  0  0  0  0  0  0  0  0
   11.5247   11.6949    9.4215 H   0  0  0  0  0  0  0  0  0  0  0  0
   12.8657   12.7902    9.8303 H   0  0  0  0  0  0  0  0  0  0  0  0
    9.8861   13.3795    9.7876 H   0  0  0  0  0  0  0  0  0  0  0  0
   11.1819   14.1276    8.8023 H   0  0  0  0  0  0  0  0  0  0  0  0
    9.0551   15.4914   10.4574 H   0  0  0  0  0  0  0  0  0  0  0  0
   10.2699   16.1741    9.3352 H   0  0  0  0  0  0  0  0  0  0  0  0
    8.0630   17.1399   11.7990 H   0  0  0  0  0  0  0  0  0  0  0  0
    7.1154   19.2709   13.4182 H   0  0  0  0  0  0  0  0  0  0  0  0
   10.7891   21.2562   13.7632 H   0  0  0  0  0  0  0  0  0  0  0  0
   12.3530   19.5596   12.2274 H   0  0  0  0  0  0  0  0  0  0  0  0
   12.2529   17.5378   10.8008 H   0  0  0  0  0  0  0  0  0  0  0  0
   11.9812   15.2281   10.7621 H   0  0  0  0  0  0  0  0  0  0  0  0
  1  2  2  0  0  0  0
  1  5  1  0  0  0  0
  1 12  1  0  0  0  0
  2  3  1  0  0  0  0
  2 13  1  0  0  0  0
  3  4  2  0  0  0  0
  3 15  1  0  0  0  0
  4 14  1  0  0  0  0
  5 14  2  0  0  0  0
  6  7  1  0  0  0  0
  7  8  1  0  0  0  0
  7  9  1  0  0  0  0
  7 10  1  0  0  0  0
 10 11  1  0  0  0  0
 10 34  1  0  0  0  0
 10 35  1  0  0  0  0
 11 12  1  0  0  0  0
 11 13  2  0  0  0  0
 13 36  1  0  0  0  0
 14 37  1  0  0  0  0
 15 16  1  0  0  0  0
 15 38  1  0  0  0  0
 16 17  1  0  0  0  0
 16 19  1  0  0  0  0
 16 39  1  1  0  0  0
 17 18  1  0  0  0  0
 17 40  1  0  0  0  0
 17 41  1  0  0  0  0
 18 21  1  0  0  0  0
 18 42  1  0  0  0  0
 18 43  1  0  0  0  0
 19 20  1  0  0  0  0
 19 44  1  0  0  0  0
 19 45  1  0  0  0  0
 20 21  1  0  0  0  0
 20 46  1  0  0  0  0
 20 47  1  0  0  0  0
 21 22  1  0  0  0  0
 21 55  1  6  0  0  0
 22 48  1  0  0  0  0
 22 49  1  0  0  0  0
 23 22  1  6  0  0  0
 23 24  1  0  0  0  0
 23 33  1  0  0  0  0
 24 50  1  0  0  0  0
 25 24  1  1  0  0  0
 25 26  1  0  0  0  0
 25 31  1  0  0  0  0
 26 27  1  0  0  0  0
 26 51  1  0  0  0  0
 27 28  1  1  0  0  0
 27 30  1  0  0  0  0
 28 29  3  0  0  0  0
 30 52  1  0  0  0  0
 31 30  1  1  0  0  0
 31 32  1  0  0  0  0
 32 33  1  0  0  0  0
 32 53  1  0  0  0  0
 33 54  1  0  0  0  0
M  CHG  2  21   1  30   1
M  END
$$$$
