3Y3
 OpenBabel04111922273D

 65 69  0  0  1  0  0  0  0  0999 V2000
   45.3606  -22.3063   32.1677 C   0  0  0  0  0  0  0  0  0  0  0  0
   46.7853  -20.9118   30.8394 C   0  0  0  0  0  0  0  0  0  0  0  0
   46.6515  -21.7978   31.9007 C   0  0  0  0  0  0  0  0  0  0  0  0
   47.9742  -21.9458   32.4220 C   0  0  0  0  0  0  0  0  0  0  0  0
   40.5443  -23.9632   27.4611 C   0  0  0  0  0  0  0  0  0  0  0  0
   39.7984  -23.1955   28.3546 C   0  0  0  0  0  0  0  0  0  0  0  0
   39.6831  -23.6262   29.6782 C   0  0  0  0  0  0  0  0  0  0  0  0
   40.4087  -24.7224   30.1306 C   0  0  0  0  0  0  0  0  0  0  0  0
   44.4741  -21.0938   30.2306 C   0  0  0  0  0  0  0  0  0  0  0  0
   45.7257  -20.5118   30.0186 C   0  0  0  0  0  0  0  0  0  0  0  0
   35.0219  -14.3724   28.9879 C   0  0  0  0  0  0  0  0  0  0  0  0
   39.2516  -21.8578   27.9322 C   0  0  0  0  0  0  0  0  0  0  0  0
   35.6438  -13.3261   28.3226 C   0  0  0  0  0  0  0  0  0  0  0  0
   37.3310  -17.2785   28.2435 C   0  0  0  0  0  0  0  0  0  0  0  0
   38.5617  -17.3177   28.9872 N   0  0  0  0  0  0  0  0  0  0  0  0
   39.7891  -20.7279   28.8199 C   0  0  2  0  0  0  0  0  0  0  0  0
   39.2078  -19.4481   28.4676 N   0  0  0  0  0  0  0  0  0  0  0  0
   41.2855  -20.6438   28.7792 C   0  0  0  0  0  0  0  0  0  0  0  0
   42.0317  -20.3728   27.6564 N   0  3  0  0  0  0  0  0  0  0  0  0
   43.3430  -20.4860   28.0192 C   0  0  0  0  0  0  0  0  0  0  0  0
   43.3530  -20.8130   29.3577 C   0  0  0  0  0  0  0  0  0  0  0  0
   42.0649  -20.9017   29.8092 N   0  0  0  0  0  0  0  0  0  0  0  0
   44.5550  -20.2578   26.8533 Cl  0  0  0  0  0  0  0  0  0  0  0  0
   44.2963  -21.9623   31.3152 C   0  0  0  0  0  0  0  0  0  0  0  0
   48.1114  -20.5966   30.7931 N   0  3  0  0  0  0  0  0  0  0  0  0
   48.8535  -21.2201   31.7119 N   0  0  0  0  0  0  0  0  0  0  0  0
   48.3251  -22.7058   33.4736 N   0  0  0  0  0  0  0  0  0  0  0  0
   41.2171  -25.4288   29.2544 C   0  0  0  0  0  0  0  0  0  0  0  0
   41.2669  -25.0623   27.9151 C   0  0  0  0  0  0  0  0  0  0  0  0
   39.1267  -18.4793   29.4482 C   0  0  0  0  0  0  0  0  0  0  0  0
   39.5717  -18.5943   30.5514 O   0  0  0  0  0  0  0  0  0  0  0  0
   36.7402  -15.9000   28.2060 C   0  0  0  0  0  0  0  0  0  0  0  0
   37.3698  -14.8416   27.5285 C   0  0  0  0  0  0  0  0  0  0  0  0
   36.8121  -13.5598   27.5990 C   0  0  0  0  0  0  0  0  0  0  0  0
   35.5529  -15.6557   28.9176 C   0  0  0  0  0  0  0  0  0  0  0  0
   33.6187  -14.0825   29.9300 Cl  0  0  0  0  0  0  0  0  0  0  0  0
   38.6332  -15.0165   26.7461 C   0  0  0  0  0  0  0  0  0  0  0  0
   38.3912  -15.2689   25.3089 N   0  3  0  0  0  0  0  0  0  0  0  0
   45.1891  -22.9828   32.9926 H   0  0  0  0  0  0  0  0  0  0  0  0
   40.5949  -23.6906   26.4140 H   0  0  0  0  0  0  0  0  0  0  0  0
   39.0587  -23.0816   30.3807 H   0  0  0  0  0  0  0  0  0  0  0  0
   40.3539  -25.0167   31.1741 H   0  0  0  0  0  0  0  0  0  0  0  0
   45.8821  -19.8010   29.2188 H   0  0  0  0  0  0  0  0  0  0  0  0
   38.1586  -21.8721   27.9899 H   0  0  0  0  0  0  0  0  0  0  0  0
   39.5351  -21.6607   26.8901 H   0  0  0  0  0  0  0  0  0  0  0  0
   35.2217  -12.3227   28.3675 H   0  0  0  0  0  0  0  0  0  0  0  0
   36.6185  -17.9922   28.6718 H   0  0  0  0  0  0  0  0  0  0  0  0
   37.5633  -17.5892   27.2219 H   0  0  0  0  0  0  0  0  0  0  0  0
   38.9819  -16.4754   29.3546 H   0  0  0  0  0  0  0  0  0  0  0  0
   39.4914  -20.9334   29.8561 H   0  0  0  0  0  0  0  0  0  0  0  0
   38.9176  -19.2616   27.5326 H   0  0  0  0  0  0  0  0  0  0  0  0
   41.6654  -20.1500   26.7449 H   0  0  0  0  0  0  0  0  0  0  0  0
   43.3123  -22.4009   31.5041 H   0  0  0  0  0  0  0  0  0  0  0  0
   48.5489  -19.9720   30.1248 H   0  0  0  0  0  0  0  0  0  0  0  0
   49.2970  -22.7630   33.7572 H   0  0  0  0  0  0  0  0  0  0  0  0
   47.6560  -23.2159   34.0396 H   0  0  0  0  0  0  0  0  0  0  0  0
   41.7948  -26.2767   29.6117 H   0  0  0  0  0  0  0  0  0  0  0  0
   41.8832  -25.6301   27.2269 H   0  0  0  0  0  0  0  0  0  0  0  0
   37.3049  -12.7232   27.1082 H   0  0  0  0  0  0  0  0  0  0  0  0
   35.0413  -16.4636   29.4401 H   0  0  0  0  0  0  0  0  0  0  0  0
   39.2136  -15.8586   27.1143 H   0  0  0  0  0  0  0  0  0  0  0  0
   39.2454  -14.1158   26.8124 H   0  0  0  0  0  0  0  0  0  0  0  0
   39.2761  -15.3772   24.7962 H   0  0  0  0  0  0  0  0  0  0  0  0
   37.8339  -16.1193   25.1686 H   0  0  0  0  0  0  0  0  0  0  0  0
   37.8760  -14.4886   24.8807 H   0  0  0  0  0  0  0  0  0  0  0  0
  1  3  1  0  0  0  0
  1 24  2  0  0  0  0
  1 39  1  0  0  0  0
  2  3  1  0  0  0  0
  2 10  1  0  0  0  0
  2 25  2  0  0  0  0
  3  4  2  0  0  0  0
  4 26  1  0  0  0  0
  4 27  1  0  0  0  0
  5  6  2  0  0  0  0
  5 29  1  0  0  0  0
  5 40  1  0  0  0  0
  6  7  1  0  0  0  0
  6 12  1  0  0  0  0
  7  8  2  0  0  0  0
  7 41  1  0  0  0  0
  8 28  1  0  0  0  0
  8 42  1  0  0  0  0
  9 10  2  0  0  0  0
  9 21  1  0  0  0  0
  9 24  1  0  0  0  0
 10 43  1  0  0  0  0
 11 13  2  0  0  0  0
 11 35  1  0  0  0  0
 11 36  1  0  0  0  0
 12 16  1  0  0  0  0
 12 44  1  0  0  0  0
 12 45  1  0  0  0  0
 13 34  1  0  0  0  0
 13 46  1  0  0  0  0
 14 15  1  0  0  0  0
 14 32  1  0  0  0  0
 14 47  1  0  0  0  0
 14 48  1  0  0  0  0
 15 30  1  0  0  0  0
 15 49  1  0  0  0  0
 16 17  1  0  0  0  0
 16 18  1  0  0  0  0
 16 50  1  1  0  0  0
 17 30  1  0  0  0  0
 17 51  1  0  0  0  0
 18 19  2  0  0  0  0
 18 22  1  0  0  0  0
 19 20  1  0  0  0  0
 19 52  1  0  0  0  0
 20 21  2  0  0  0  0
 20 23  1  0  0  0  0
 21 22  1  0  0  0  0
 24 53  1  0  0  0  0
 25 26  1  0  0  0  0
 25 54  1  0  0  0  0
 27 55  1  0  0  0  0
 27 56  1  0  0  0  0
 28 29  2  0  0  0  0
 28 57  1  0  0  0  0
 29 58  1  0  0  0  0
 30 31  2  0  0  0  0
 32 33  1  0  0  0  0
 32 35  2  0  0  0  0
 33 34  2  0  0  0  0
 33 37  1  0  0  0  0
 34 59  1  0  0  0  0
 35 60  1  0  0  0  0
 37 38  1  0  0  0  0
 37 61  1  0  0  0  0
 37 62  1  0  0  0  0
 38 63  1  0  0  0  0
 38 64  1  0  0  0  0
 38 65  1  0  0  0  0
M  CHG  3  19   1  25   1  38   1
M  END
$$$$
