3Y4
 OpenBabel04111922273D

 68 72  0  0  1  0  0  0  0  0999 V2000
   37.4708  -17.2771   28.0630 C   0  0  0  0  0  0  0  0  0  0  0  0
   36.8267  -15.9125   27.9453 C   0  0  0  0  0  0  0  0  0  0  0  0
   38.5595  -17.2353   29.1248 C   0  0  0  0  0  0  0  0  0  0  0  0
   39.2299  -18.5338   29.4962 C   0  0  0  0  0  0  0  0  0  0  0  0
   38.4909  -15.0713   24.9389 C   0  0  0  0  0  0  0  0  0  0  0  0
   39.9590  -20.7780   28.8543 C   0  0  1  0  0  0  0  0  0  0  0  0
   39.7935  -23.7984   29.6719 C   0  0  0  0  0  0  0  0  0  0  0  0
   33.6948  -14.0852   29.6694 Cl  0  0  0  0  0  0  0  0  0  0  0  0
   35.0819  -14.3868   28.6970 C   0  0  0  0  0  0  0  0  0  0  0  0
   35.6107  -13.3669   27.9102 C   0  0  0  0  0  0  0  0  0  0  0  0
   36.7296  -13.6128   27.1115 C   0  0  0  0  0  0  0  0  0  0  0  0
   37.3394  -14.8769   27.1358 C   0  0  0  0  0  0  0  0  0  0  0  0
   38.4577  -15.0810   26.3047 N   0  3  0  0  0  0  0  0  0  0  0  0
   39.6751  -15.4247   26.7602 N   0  0  0  0  0  0  0  0  0  0  0  0
   40.4329  -15.5738   25.6837 N   0  0  0  0  0  0  0  0  0  0  0  0
   39.7019  -15.3807   24.5384 N   0  0  0  0  0  0  0  0  0  0  0  0
   35.6761  -15.6496   28.7122 C   0  0  0  0  0  0  0  0  0  0  0  0
   39.6748  -18.6756   30.6337 O   0  0  0  0  0  0  0  0  0  0  0  0
   39.3608  -19.4916   28.5175 N   0  0  0  0  0  0  0  0  0  0  0  0
   39.4089  -21.9379   27.9971 C   0  0  0  0  0  0  0  0  0  0  0  0
   40.0253  -23.2626   28.3901 C   0  0  0  0  0  0  0  0  0  0  0  0
   40.5371  -24.8869   30.1205 C   0  0  0  0  0  0  0  0  0  0  0  0
   41.4944  -25.4682   29.2946 C   0  0  0  0  0  0  0  0  0  0  0  0
   41.6864  -24.9834   28.0013 C   0  0  0  0  0  0  0  0  0  0  0  0
   40.9505  -23.8899   27.5488 C   0  0  0  0  0  0  0  0  0  0  0  0
   41.4643  -20.6979   28.8514 C   0  0  0  0  0  0  0  0  0  0  0  0
   42.2188  -20.9726   29.9083 N   0  0  0  0  0  0  0  0  0  0  0  0
   43.5291  -20.9110   29.4973 C   0  0  0  0  0  0  0  0  0  0  0  0
   43.5633  -20.5911   28.1632 C   0  0  0  0  0  0  0  0  0  0  0  0
   44.7667  -20.4149   26.9854 Cl  0  0  0  0  0  0  0  0  0  0  0  0
   42.2636  -20.4488   27.7608 N   0  3  0  0  0  0  0  0  0  0  0  0
   44.6212  -21.2224   30.4110 C   0  0  0  0  0  0  0  0  0  0  0  0
   45.9071  -20.6965   30.2634 C   0  0  0  0  0  0  0  0  0  0  0  0
   46.9323  -21.0257   31.1652 C   0  0  0  0  0  0  0  0  0  0  0  0
   46.6877  -21.8741   32.2458 C   0  0  0  0  0  0  0  0  0  0  0  0
   45.3952  -22.3815   32.4178 C   0  0  0  0  0  0  0  0  0  0  0  0
   44.3762  -22.0552   31.5105 C   0  0  0  0  0  0  0  0  0  0  0  0
   47.6583  -22.2539   33.1894 N   0  0  0  0  0  0  0  0  0  0  0  0
   48.9765  -21.8841   33.2438 C   0  0  0  0  0  0  0  0  0  0  0  0
   49.5875  -21.1674   32.4731 O   0  0  0  0  0  0  0  0  0  0  0  0
   49.5404  -22.4731   34.3390 O   0  0  0  0  0  0  0  0  0  0  0  0
   50.9466  -22.2404   34.4585 C   0  0  0  0  0  0  0  0  0  0  0  0
   37.8560  -17.5921   27.0845 H   0  0  0  0  0  0  0  0  0  0  0  0
   36.7097  -18.0290   28.3200 H   0  0  0  0  0  0  0  0  0  0  0  0
   38.1164  -16.8464   30.0530 H   0  0  0  0  0  0  0  0  0  0  0  0
   39.3571  -16.5401   28.8582 H   0  0  0  0  0  0  0  0  0  0  0  0
   37.6242  -14.8991   24.3190 H   0  0  0  0  0  0  0  0  0  0  0  0
   39.6682  -20.9849   29.8947 H   0  0  0  0  0  0  0  0  0  0  0  0
   39.0778  -23.3328   30.3455 H   0  0  0  0  0  0  0  0  0  0  0  0
   35.1608  -12.3770   27.9231 H   0  0  0  0  0  0  0  0  0  0  0  0
   37.1480  -12.7957   26.5261 H   0  0  0  0  0  0  0  0  0  0  0  0
   35.2455  -16.4299   29.3385 H   0  0  0  0  0  0  0  0  0  0  0  0
   39.0206  -19.3302   27.5840 H   0  0  0  0  0  0  0  0  0  0  0  0
   39.5786  -21.7425   26.9291 H   0  0  0  0  0  0  0  0  0  0  0  0
   38.3201  -22.0035   28.1186 H   0  0  0  0  0  0  0  0  0  0  0  0
   40.3917  -25.2604   31.1319 H   0  0  0  0  0  0  0  0  0  0  0  0
   42.1008  -26.2927   29.6605 H   0  0  0  0  0  0  0  0  0  0  0  0
   42.4354  -25.4368   27.3584 H   0  0  0  0  0  0  0  0  0  0  0  0
   41.1414  -23.5035   26.5493 H   0  0  0  0  0  0  0  0  0  0  0  0
   41.9607  -20.2430   26.8179 H   0  0  0  0  0  0  0  0  0  0  0  0
   46.1379  -20.0027   29.4589 H   0  0  0  0  0  0  0  0  0  0  0  0
   47.9121  -20.5907   30.9953 H   0  0  0  0  0  0  0  0  0  0  0  0
   45.1574  -23.0249   33.2607 H   0  0  0  0  0  0  0  0  0  0  0  0
   43.3754  -22.4574   31.6776 H   0  0  0  0  0  0  0  0  0  0  0  0
   47.3861  -22.8935   33.9208 H   0  0  0  0  0  0  0  0  0  0  0  0
   51.2887  -22.6891   35.3951 H   0  0  0  0  0  0  0  0  0  0  0  0
   51.1717  -21.1700   34.4886 H   0  0  0  0  0  0  0  0  0  0  0  0
   51.4764  -22.7234   33.6313 H   0  0  0  0  0  0  0  0  0  0  0  0
  1  2  1  0  0  0  0
  1  3  1  0  0  0  0
  1 43  1  0  0  0  0
  1 44  1  0  0  0  0
  2 12  2  0  0  0  0
  2 17  1  0  0  0  0
  3  4  1  0  0  0  0
  3 45  1  0  0  0  0
  3 46  1  0  0  0  0
  4 18  2  0  0  0  0
  4 19  1  0  0  0  0
  5 13  2  0  0  0  0
  5 16  1  0  0  0  0
  5 47  1  0  0  0  0
  6 19  1  0  0  0  0
  6 20  1  0  0  0  0
  6 26  1  0  0  0  0
  6 48  1  1  0  0  0
  7 21  2  0  0  0  0
  7 22  1  0  0  0  0
  7 49  1  0  0  0  0
  8  9  1  0  0  0  0
  9 10  1  0  0  0  0
  9 17  2  0  0  0  0
 10 11  2  0  0  0  0
 10 50  1  0  0  0  0
 11 12  1  0  0  0  0
 11 51  1  0  0  0  0
 12 13  1  0  0  0  0
 13 14  1  0  0  0  0
 14 15  1  0  0  0  0
 15 16  2  0  0  0  0
 17 52  1  0  0  0  0
 19 53  1  0  0  0  0
 20 21  1  0  0  0  0
 20 54  1  0  0  0  0
 20 55  1  0  0  0  0
 21 25  1  0  0  0  0
 22 23  2  0  0  0  0
 22 56  1  0  0  0  0
 23 24  1  0  0  0  0
 23 57  1  0  0  0  0
 24 25  2  0  0  0  0
 24 58  1  0  0  0  0
 25 59  1  0  0  0  0
 26 27  1  0  0  0  0
 26 31  2  0  0  0  0
 27 28  1  0  0  0  0
 28 29  2  0  0  0  0
 28 32  1  0  0  0  0
 29 30  1  0  0  0  0
 29 31  1  0  0  0  0
 31 60  1  0  0  0  0
 32 33  2  0  0  0  0
 32 37  1  0  0  0  0
 33 34  1  0  0  0  0
 33 61  1  0  0  0  0
 34 35  2  0  0  0  0
 34 62  1  0  0  0  0
 35 36  1  0  0  0  0
 35 38  1  0  0  0  0
 36 37  2  0  0  0  0
 36 63  1  0  0  0  0
 37 64  1  0  0  0  0
 38 39  1  0  0  0  0
 38 65  1  0  0  0  0
 39 40  2  0  0  0  0
 39 41  1  0  0  0  0
 41 42  1  0  0  0  0
 42 66  1  0  0  0  0
 42 67  1  0  0  0  0
 42 68  1  0  0  0  0
M  CHG  2  13   1  31   1
M  END
$$$$
