3Z9
 OpenBabel04111922283D

 87 91  0  0  1  0  0  0  0  0999 V2000
    7.2679   37.4438   25.9079 C   0  0  2  0  0  0  0  0  0  0  0  0
    6.7767   40.3299   23.3604 C   0  0  2  0  0  0  0  0  0  0  0  0
    7.3047   38.2830   24.6154 C   0  0  0  0  0  0  0  0  0  0  0  0
    6.5011   41.7492   23.8427 C   0  0  0  0  0  0  0  0  0  0  0  0
    5.6819   41.5706   25.1154 C   0  0  0  0  0  0  0  0  0  0  0  0
    6.1618   40.2654   25.7179 C   0  0  0  0  0  0  0  0  0  0  0  0
    5.7565   39.8452   22.3342 C   0  0  0  0  0  0  0  0  0  0  0  0
    5.1085   36.3020   25.1979 C   0  0  0  0  0  0  0  0  0  0  0  0
    3.8051   35.8755   25.4566 C   0  0  0  0  0  0  0  0  0  0  0  0
    3.7784   38.8949   20.5515 C   0  0  0  0  0  0  0  0  0  0  0  0
    5.2796   37.1720   27.4478 C   0  0  0  0  0  0  0  0  0  0  0  0
    3.5956   38.7351   21.9196 C   0  0  0  0  0  0  0  0  0  0  0  0
    8.4689   35.8038   28.0898 C   0  0  0  0  0  0  0  0  0  0  0  0
    9.7501   33.4362   27.4060 C   0  0  0  0  0  0  0  0  0  0  0  0
    9.3478   34.3353   26.4207 C   0  0  0  0  0  0  0  0  0  0  0  0
    8.6746   35.5183   26.7462 C   0  0  0  0  0  0  0  0  0  0  0  0
    9.4785   33.7012   28.7501 C   0  0  0  0  0  0  0  0  0  0  0  0
    8.8496   34.9065   29.0944 C   0  0  0  0  0  0  0  0  0  0  0  0
    8.5302   35.2203   30.5119 C   0  0  0  0  0  0  0  0  0  0  0  0
    9.0206   34.3436   31.4496 N   0  0  0  0  0  0  0  0  0  0  0  0
    9.9386   33.2638   31.1698 C   0  0  0  0  0  0  0  0  0  0  0  0
    9.7611   32.6555   29.7858 C   0  0  0  0  0  0  0  0  0  0  0  0
    7.8424   36.1804   30.8271 O   0  0  0  0  0  0  0  0  0  0  0  0
    8.1858   36.3066   25.7368 N   0  0  0  0  0  0  0  0  0  0  0  0
    5.8566   36.9567   26.1869 C   0  0  0  0  0  0  0  0  0  0  0  0
    7.7856   37.7845   23.5800 O   0  0  0  0  0  0  0  0  0  0  0  0
    6.7773   39.5506   24.6052 N   0  0  0  0  0  0  0  0  0  0  0  0
    3.2224   36.1376   26.7133 C   0  0  0  0  0  0  0  0  0  0  0  0
    3.9709   36.7687   27.7117 C   0  0  0  0  0  0  0  0  0  0  0  0
    1.9162   35.7398   26.8546 O   0  0  0  0  0  0  0  0  0  0  0  0
    1.3037   35.9139   28.1211 C   0  0  0  0  0  0  0  0  0  0  0  0
    3.0303   35.1754   24.5632 O   0  0  0  0  0  0  0  0  0  0  0  0
    3.5818   34.9157   23.2811 C   0  0  0  0  0  0  0  0  0  0  0  0
    4.5895   39.1850   22.7913 C   0  0  0  0  0  0  0  0  0  0  0  0
    4.9001   39.5563   20.0663 C   0  0  0  0  0  0  0  0  0  0  0  0
    5.8908   40.0280   20.9412 C   0  0  0  0  0  0  0  0  0  0  0  0
    7.2147   40.9271   20.1393 S   0  0  0  0  0  0  0  0  0  0  0  0
    8.3390   39.6656   19.5112 C   0  0  0  0  0  0  0  0  0  0  0  0
    6.6113   41.5716   18.9895 O   0  0  0  0  0  0  0  0  0  0  0  0
    7.9004   41.7291   21.1338 O   0  0  0  0  0  0  0  0  0  0  0  0
    8.9272   38.7849   20.5969 C   0  0  0  0  0  0  0  0  0  0  0  0
    9.4343   40.3595   18.7155 C   0  0  0  0  0  0  0  0  0  0  0  0
    2.4093   38.1181   22.3399 N   0  0  0  0  0  0  0  0  0  0  0  0
    1.8481   38.1353   23.6020 C   0  0  0  0  0  0  0  0  0  0  0  0
    0.7259   37.3640   23.5709 O   0  0  0  0  0  0  0  0  0  0  0  0
    2.2313   38.7762   24.5550 O   0  0  0  0  0  0  0  0  0  0  0  0
   -0.0611   37.4523   24.7609 C   0  0  0  0  0  0  0  0  0  0  0  0
    7.6282   38.0852   26.7109 H   0  0  0  0  0  0  0  0  0  0  0  0
    7.7770   40.2401   22.9288 H   0  0  0  0  0  0  0  0  0  0  0  0
    5.9698   42.3548   23.1048 H   0  0  0  0  0  0  0  0  0  0  0  0
    7.4474   42.2501   24.0841 H   0  0  0  0  0  0  0  0  0  0  0  0
    4.6187   41.4948   24.8623 H   0  0  0  0  0  0  0  0  0  0  0  0
    5.8193   42.4023   25.8099 H   0  0  0  0  0  0  0  0  0  0  0  0
    5.3268   39.7005   26.1478 H   0  0  0  0  0  0  0  0  0  0  0  0
    6.9053   40.4299   26.5031 H   0  0  0  0  0  0  0  0  0  0  0  0
    5.5692   36.1395   24.2282 H   0  0  0  0  0  0  0  0  0  0  0  0
    3.0229   38.5489   19.8494 H   0  0  0  0  0  0  0  0  0  0  0  0
    5.8488   37.6676   28.2314 H   0  0  0  0  0  0  0  0  0  0  0  0
    7.9903   36.7300   28.3940 H   0  0  0  0  0  0  0  0  0  0  0  0
   10.2507   32.5166   27.1171 H   0  0  0  0  0  0  0  0  0  0  0  0
    9.5440   34.0943   25.3786 H   0  0  0  0  0  0  0  0  0  0  0  0
    8.7843   34.5574   32.4055 H   0  0  0  0  0  0  0  0  0  0  0  0
    9.7596   32.4927   31.9261 H   0  0  0  0  0  0  0  0  0  0  0  0
   10.9618   33.6334   31.2809 H   0  0  0  0  0  0  0  0  0  0  0  0
   10.6692   32.0982   29.5290 H   0  0  0  0  0  0  0  0  0  0  0  0
    8.9229   31.9480   29.8034 H   0  0  0  0  0  0  0  0  0  0  0  0
    8.4824   36.1254   24.7793 H   0  0  0  0  0  0  0  0  0  0  0  0
    3.5672   36.9464   28.7014 H   0  0  0  0  0  0  0  0  0  0  0  0
    0.2619   35.5818   28.0410 H   0  0  0  0  0  0  0  0  0  0  0  0
    1.2945   36.9646   28.4287 H   0  0  0  0  0  0  0  0  0  0  0  0
    1.8035   35.2895   28.8652 H   0  0  0  0  0  0  0  0  0  0  0  0
    2.8529   34.3324   22.7083 H   0  0  0  0  0  0  0  0  0  0  0  0
    4.5040   34.3304   23.3478 H   0  0  0  0  0  0  0  0  0  0  0  0
    3.7617   35.8477   22.7418 H   0  0  0  0  0  0  0  0  0  0  0  0
    4.4694   39.0106   23.8562 H   0  0  0  0  0  0  0  0  0  0  0  0
    4.9898   39.7228   18.9942 H   0  0  0  0  0  0  0  0  0  0  0  0
    7.7706   39.0259   18.8267 H   0  0  0  0  0  0  0  0  0  0  0  0
    9.6142   38.0485   20.1620 H   0  0  0  0  0  0  0  0  0  0  0  0
    8.1347   38.2298   21.1045 H   0  0  0  0  0  0  0  0  0  0  0  0
    9.4772   39.3693   21.3390 H   0  0  0  0  0  0  0  0  0  0  0  0
   10.1516   39.6369   18.3209 H   0  0  0  0  0  0  0  0  0  0  0  0
    9.9708   41.0860   19.3352 H   0  0  0  0  0  0  0  0  0  0  0  0
    8.9944   40.9008   17.8707 H   0  0  0  0  0  0  0  0  0  0  0  0
    1.8221   37.6934   21.6365 H   0  0  0  0  0  0  0  0  0  0  0  0
   -0.9195   36.7808   24.6589 H   0  0  0  0  0  0  0  0  0  0  0  0
   -0.4327   38.4721   24.8918 H   0  0  0  0  0  0  0  0  0  0  0  0
    0.5002   37.1555   25.6455 H   0  0  0  0  0  0  0  0  0  0  0  0
  1  3  1  0  0  0  0
  1 24  1  0  0  0  0
  1 25  1  0  0  0  0
  1 48  1  1  0  0  0
  2  4  1  0  0  0  0
  2  7  1  0  0  0  0
  2 27  1  0  0  0  0
  2 49  1  6  0  0  0
  3 26  2  0  0  0  0
  3 27  1  0  0  0  0
  4  5  1  0  0  0  0
  4 50  1  0  0  0  0
  4 51  1  0  0  0  0
  5  6  1  0  0  0  0
  5 52  1  0  0  0  0
  5 53  1  0  0  0  0
  6 27  1  0  0  0  0
  6 54  1  0  0  0  0
  6 55  1  0  0  0  0
  7 34  2  0  0  0  0
  7 36  1  0  0  0  0
  8  9  2  0  0  0  0
  8 25  1  0  0  0  0
  8 56  1  0  0  0  0
  9 28  1  0  0  0  0
  9 32  1  0  0  0  0
 10 12  2  0  0  0  0
 10 35  1  0  0  0  0
 10 57  1  0  0  0  0
 11 25  2  0  0  0  0
 11 29  1  0  0  0  0
 11 58  1  0  0  0  0
 12 34  1  0  0  0  0
 12 43  1  0  0  0  0
 13 16  2  0  0  0  0
 13 18  1  0  0  0  0
 13 59  1  0  0  0  0
 14 15  2  0  0  0  0
 14 17  1  0  0  0  0
 14 60  1  0  0  0  0
 15 16  1  0  0  0  0
 15 61  1  0  0  0  0
 16 24  1  0  0  0  0
 17 18  2  0  0  0  0
 17 22  1  0  0  0  0
 18 19  1  0  0  0  0
 19 20  1  0  0  0  0
 19 23  2  0  0  0  0
 20 21  1  0  0  0  0
 20 62  1  0  0  0  0
 21 22  1  0  0  0  0
 21 63  1  0  0  0  0
 21 64  1  0  0  0  0
 22 65  1  0  0  0  0
 22 66  1  0  0  0  0
 24 67  1  0  0  0  0
 28 29  2  0  0  0  0
 28 30  1  0  0  0  0
 29 68  1  0  0  0  0
 30 31  1  0  0  0  0
 31 69  1  0  0  0  0
 31 70  1  0  0  0  0
 31 71  1  0  0  0  0
 32 33  1  0  0  0  0
 33 72  1  0  0  0  0
 33 73  1  0  0  0  0
 33 74  1  0  0  0  0
 34 75  1  0  0  0  0
 35 36  2  0  0  0  0
 35 76  1  0  0  0  0
 36 37  1  0  0  0  0
 37 38  1  0  0  0  0
 37 39  2  0  0  0  0
 37 40  2  0  0  0  0
 38 41  1  0  0  0  0
 38 42  1  0  0  0  0
 38 77  1  0  0  0  0
 41 78  1  0  0  0  0
 41 79  1  0  0  0  0
 41 80  1  0  0  0  0
 42 81  1  0  0  0  0
 42 82  1  0  0  0  0
 42 83  1  0  0  0  0
 43 44  1  0  0  0  0
 43 84  1  0  0  0  0
 44 45  1  0  0  0  0
 44 46  2  0  0  0  0
 45 47  1  0  0  0  0
 47 85  1  0  0  0  0
 47 86  1  0  0  0  0
 47 87  1  0  0  0  0
M  END
$$$$
