3ZB
 OpenBabel04111922283D

 18 19  0  0  1  0  0  0  0  0999 V2000
    9.5151   34.7761   29.1301 C   0  0  1  0  0  0  0  0  0  0  0  0
    9.3849   34.4271   27.7842 C   0  0  2  0  0  0  0  0  0  0  0  0
    9.1818   36.1063   29.2344 N   0  3  0  0  0  0  0  0  0  0  0  0
    9.9044   33.8628   30.1144 C   0  0  0  0  0  0  0  0  0  0  0  0
    8.9875   35.6001   27.0770 C   0  0  0  0  0  0  0  0  0  0  0  0
    9.6234   33.0887   27.4070 C   0  0  0  0  0  0  0  0  0  0  0  0
    8.8391   36.6068   28.0059 C   0  0  1  0  0  0  0  0  0  0  0  0
   10.1088   32.5354   29.7248 C   0  0  0  0  0  0  0  0  0  0  0  0
    9.9547   32.1545   28.3945 C   0  0  1  0  0  0  0  0  0  0  0  0
    8.3981   37.9952   27.8183 C   0  0  0  0  0  0  0  0  0  0  0  0
   10.1440   30.4950   27.9618 Cl  0  0  0  0  0  0  0  0  0  0  0  0
    8.2381   38.3860   26.6254 O   0  0  0  0  0  0  0  0  0  0  0  0
    8.2271   38.6575   28.8864 O   0  0  0  0  0  0  0  0  0  0  0  0
    9.1592   36.6685   30.0744 H   0  0  0  0  0  0  0  0  0  0  0  0
   10.0170   34.1712   31.1470 H   0  0  0  0  0  0  0  0  0  0  0  0
    8.7882   35.6882   26.0174 H   0  0  0  0  0  0  0  0  0  0  0  0
    9.5243   32.7817   26.3700 H   0  0  0  0  0  0  0  0  0  0  0  0
   10.3773   31.7987   30.4770 H   0  0  0  0  0  0  0  0  0  0  0  0
  1  2  1  0  0  0  0
  1  3  1  1  0  0  0
  1  4  1  0  0  0  0
  2  5  1  1  0  0  0
  2  6  1  0  0  0  0
  3  7  1  0  0  0  0
  3 14  1  0  0  0  0
  4  8  1  0  0  0  0
  4 15  1  0  0  0  0
  5  7  1  0  0  0  0
  5 16  1  0  0  0  0
  6  9  1  0  0  0  0
  6 17  1  0  0  0  0
  7 10  1  1  0  0  0
  8  9  1  0  0  0  0
  8 18  1  0  0  0  0
  9 11  1  1  0  0  0
 10 12  2  0  0  0  0
 10 13  1  0  0  0  0
M  CHG  1   3   1
M  END
$$$$
