409
 OpenBabel04111919173D

 48 50  0  0  1  0  0  0  0  0999 V2000
  -12.8954  -34.7591   16.3127 O   0  0  0  0  0  0  0  0  0  0  0  0
  -11.9774  -35.2837   16.9351 C   0  0  0  0  0  0  0  0  0  0  0  0
  -10.7987  -34.4445   17.3719 C   0  0  2  0  0  0  0  0  0  0  0  0
  -11.1565  -33.6906   18.6637 C   0  0  1  0  0  0  0  0  0  0  0  0
  -11.1522  -34.6085   19.8790 C   0  0  0  0  0  0  0  0  0  0  0  0
  -10.1919  -32.6479   18.8347 O   0  0  0  0  0  0  0  0  0  0  0  0
  -10.4776  -33.4158   16.3106 N   0  3  0  0  0  0  0  0  0  0  0  0
  -11.9198  -36.6353   17.2582 N   0  0  0  0  0  0  0  0  0  0  0  0
  -13.0584  -37.7486   16.7788 S   0  0  0  0  0  0  0  0  0  0  0  0
  -12.5443  -39.0088   17.2671 O   0  0  0  0  0  0  0  0  0  0  0  0
  -13.3300  -37.5074   15.3868 O   0  0  0  0  0  0  0  0  0  0  0  0
  -14.4757  -37.3512   17.7556 C   0  0  0  0  0  0  0  0  0  0  0  0
  -14.3822  -36.8120   19.0338 C   0  0  0  0  0  0  0  0  0  0  0  0
  -15.5432  -36.5303   19.7453 C   0  0  0  0  0  0  0  0  0  0  0  0
  -16.7928  -36.7979   19.1780 C   0  0  0  0  0  0  0  0  0  0  0  0
  -16.9168  -37.3489   17.8903 C   0  0  0  0  0  0  0  0  0  0  0  0
  -15.7207  -37.6142   17.1982 C   0  0  0  0  0  0  0  0  0  0  0  0
  -18.2318  -37.6097   17.2546 C   0  0  0  0  0  0  0  0  0  0  0  0
  -18.3068  -37.8966   15.8848 C   0  0  0  0  0  0  0  0  0  0  0  0
  -19.5225  -38.0760   15.2458 C   0  0  0  0  0  0  0  0  0  0  0  0
  -20.7204  -37.9778   15.9634 C   0  0  0  0  0  0  0  0  0  0  0  0
  -20.6982  -37.7234   17.3324 C   0  0  0  0  0  0  0  0  0  0  0  0
  -19.4560  -37.5552   17.9521 C   0  0  0  0  0  0  0  0  0  0  0  0
  -21.9860  -38.1135   15.3731 C   0  0  0  0  0  0  0  0  0  0  0  0
  -22.1408  -38.2818   14.0149 N   0  0  0  0  0  0  0  0  0  0  0  0
  -23.1135  -38.0124   16.0862 N   0  0  0  0  0  0  0  0  0  0  0  0
  -22.9705  -37.7754   17.3970 C   0  0  0  0  0  0  0  0  0  0  0  0
  -21.8132  -37.6217   18.0582 N   0  0  0  0  0  0  0  0  0  0  0  0
   -9.8882  -35.0462   17.4788 H   0  0  0  0  0  0  0  0  0  0  0  0
  -12.1428  -33.2167   18.5718 H   0  0  0  0  0  0  0  0  0  0  0  0
  -11.3870  -34.0551   20.7932 H   0  0  0  0  0  0  0  0  0  0  0  0
  -10.1755  -35.0806   20.0223 H   0  0  0  0  0  0  0  0  0  0  0  0
  -11.8910  -35.3986   19.7751 H   0  0  0  0  0  0  0  0  0  0  0  0
  -10.4135  -32.1640   19.6585 H   0  0  0  0  0  0  0  0  0  0  0  0
   -9.7356  -32.7924   16.6599 H   0  0  0  0  0  0  0  0  0  0  0  0
  -10.2066  -33.8453   15.4179 H   0  0  0  0  0  0  0  0  0  0  0  0
  -11.1470  -37.0913   17.7442 H   0  0  0  0  0  0  0  0  0  0  0  0
  -13.4296  -36.6431   19.5078 H   0  0  0  0  0  0  0  0  0  0  0  0
  -15.4921  -36.1167   20.7506 H   0  0  0  0  0  0  0  0  0  0  0  0
  -17.6698  -36.5583   19.7751 H   0  0  0  0  0  0  0  0  0  0  0  0
  -15.7243  -38.0540   16.2051 H   0  0  0  0  0  0  0  0  0  0  0  0
  -17.4316  -37.9753   15.2504 H   0  0  0  0  0  0  0  0  0  0  0  0
  -19.5029  -38.2779   14.1797 H   0  0  0  0  0  0  0  0  0  0  0  0
  -19.4777  -37.3700   19.0263 H   0  0  0  0  0  0  0  0  0  0  0  0
  -23.0861  -38.4233   13.6902 H   0  0  0  0  0  0  0  0  0  0  0  0
  -21.3729  -38.4859   13.3988 H   0  0  0  0  0  0  0  0  0  0  0  0
  -23.8827  -37.6930   17.9776 H   0  0  0  0  0  0  0  0  0  0  0  0
  -11.3137  -32.8411   16.1288 H   0  0  0  0  0  0  0  0  0  0  0  0
  1  2  2  0  0  0  0
  2  3  1  0  0  0  0
  2  8  1  0  0  0  0
  3  4  1  0  0  0  0
  3  7  1  0  0  0  0
  3 29  1  1  0  0  0
  4  5  1  0  0  0  0
  4  6  1  0  0  0  0
  4 30  1  6  0  0  0
  5 31  1  0  0  0  0
  5 32  1  0  0  0  0
  5 33  1  0  0  0  0
  6 34  1  0  0  0  0
  7 35  1  0  0  0  0
  7 36  1  0  0  0  0
  7 48  1  0  0  0  0
  8  9  1  0  0  0  0
  8 37  1  0  0  0  0
  9 10  2  0  0  0  0
  9 11  2  0  0  0  0
  9 12  1  0  0  0  0
 12 13  2  0  0  0  0
 12 17  1  0  0  0  0
 13 14  1  0  0  0  0
 13 38  1  0  0  0  0
 14 15  2  0  0  0  0
 14 39  1  0  0  0  0
 15 16  1  0  0  0  0
 15 40  1  0  0  0  0
 16 17  2  0  0  0  0
 16 18  1  0  0  0  0
 17 41  1  0  0  0  0
 18 19  2  0  0  0  0
 18 23  1  0  0  0  0
 19 20  1  0  0  0  0
 19 42  1  0  0  0  0
 20 21  2  0  0  0  0
 20 43  1  0  0  0  0
 21 22  1  0  0  0  0
 21 24  1  0  0  0  0
 22 23  2  0  0  0  0
 22 28  1  0  0  0  0
 23 44  1  0  0  0  0
 24 25  1  0  0  0  0
 24 26  2  0  0  0  0
 25 45  1  0  0  0  0
 25 46  1  0  0  0  0
 26 27  1  0  0  0  0
 27 28  2  0  0  0  0
 27 47  1  0  0  0  0
M  CHG  1   7   1
M  END
$$$$
