40F
 OpenBabel04111922293D

 23 24  0  0  1  0  0  0  0  0999 V2000
   -5.5185   35.8387   26.9767 O   0  0  0  0  0  0  0  0  0  0  0  0
   -8.1185   37.0325   27.8778 C   0  0  0  0  0  0  0  0  0  0  0  0
   -9.2667   32.3629   29.3559 O   0  0  0  0  0  0  0  0  0  0  0  0
   -7.7231   36.5010   29.2868 C   0  0  0  0  0  0  0  0  0  0  0  0
   -7.9866   35.8167   26.9083 C   0  0  1  0  0  0  0  0  0  0  0  0
   -8.0432   35.0357   29.2296 C   0  0  1  0  0  0  0  0  0  0  0  0
  -10.0275   33.3429   29.0878 C   0  0  0  0  0  0  0  0  0  0  0  0
   -9.4172   34.6316   28.7408 C   0  0  2  0  0  0  0  0  0  0  0  0
   -8.2217   34.6368   27.8004 C   0  0  1  0  0  0  0  0  0  0  0  0
  -11.2965   33.3042   29.0384 O   0  0  0  0  0  0  0  0  0  0  0  0
   -9.0904   35.8730   25.8683 N   0  3  0  0  0  0  0  0  0  0  0  0
   -6.5412   35.7915   26.2541 C   0  0  0  0  0  0  0  0  0  0  0  0
   -6.6289   35.8191   24.9616 O   0  0  0  0  0  0  0  0  0  0  0  0
   -7.4757   37.8662   27.5860 H   0  0  0  0  0  0  0  0  0  0  0  0
   -9.1495   37.4166   27.9234 H   0  0  0  0  0  0  0  0  0  0  0  0
   -8.3050   36.9785   30.0849 H   0  0  0  0  0  0  0  0  0  0  0  0
   -6.6618   36.6820   29.4905 H   0  0  0  0  0  0  0  0  0  0  0  0
   -7.4983   34.4154   29.9328 H   0  0  0  0  0  0  0  0  0  0  0  0
  -10.1280   35.4442   28.6423 H   0  0  0  0  0  0  0  0  0  0  0  0
   -7.8550   33.7007   27.3975 H   0  0  0  0  0  0  0  0  0  0  0  0
   -8.9198   35.0602   25.2544 H   0  0  0  0  0  0  0  0  0  0  0  0
  -10.0203   35.8092   26.2786 H   0  0  0  0  0  0  0  0  0  0  0  0
   -8.9431   36.6917   25.2760 H   0  0  0  0  0  0  0  0  0  0  0  0
  1 12  2  0  0  0  0
  2  4  1  0  0  0  0
  2  5  1  0  0  0  0
  2 14  1  0  0  0  0
  2 15  1  0  0  0  0
  3  7  2  0  0  0  0
  4  6  1  0  0  0  0
  4 16  1  0  0  0  0
  4 17  1  0  0  0  0
  5  9  1  0  0  0  0
  5 11  1  6  0  0  0
  5 12  1  0  0  0  0
  6  8  1  0  0  0  0
  6  9  1  0  0  0  0
  6 18  1  1  0  0  0
  7  8  1  0  0  0  0
  7 10  1  0  0  0  0
  8  9  1  0  0  0  0
  8 19  1  6  0  0  0
  9 20  1  6  0  0  0
 11 21  1  0  0  0  0
 11 22  1  0  0  0  0
 11 23  1  0  0  0  0
 12 13  1  0  0  0  0
M  CHG  1  11   1
M  END
$$$$
