40H
 OpenBabel04111922303D

 27 29  0  0  1  0  0  0  0  0999 V2000
  -24.2843   28.7485  -26.8880 O   0  0  0  0  0  0  0  0  0  0  0  0
  -29.1528   32.4628  -28.0110 C   0  0  0  0  0  0  0  0  0  0  0  0
  -30.0452   30.7818  -25.0990 O   0  0  0  0  0  0  0  0  0  0  0  0
  -27.7440   32.8600  -28.3882 C   0  0  0  0  0  0  0  0  0  0  0  0
  -27.7094   31.1936  -24.9138 C   0  0  1  0  0  0  0  0  0  0  0  0
  -27.9745   31.9267  -27.2129 C   0  0  0  0  0  0  0  0  0  0  0  0
  -27.5353   30.4682  -27.3075 C   0  0  1  0  0  0  0  0  0  0  0  0
  -26.1694   30.0768  -26.7583 C   0  0  1  0  0  0  0  0  0  0  0  0
  -27.4056   30.0589  -25.8462 C   0  0  1  0  0  0  0  0  0  0  0  0
  -29.1998   31.2457  -23.0453 O   0  0  0  0  0  0  0  0  0  0  0  0
  -29.1546   31.0566  -24.3006 C   0  0  0  0  0  0  0  0  0  0  0  0
  -26.6365   31.3581  -23.8757 N   0  3  0  0  0  0  0  0  0  0  0  0
  -25.5341   28.7758  -27.0467 C   0  0  0  0  0  0  0  0  0  0  0  0
  -26.2484   27.7747  -27.3641 O   0  0  0  0  0  0  0  0  0  0  0  0
  -27.7534   32.4572  -25.8176 C   0  0  0  0  0  0  0  0  0  0  0  0
  -29.7131   31.7712  -28.6388 H   0  0  0  0  0  0  0  0  0  0  0  0
  -29.8201   33.1870  -27.5499 H   0  0  0  0  0  0  0  0  0  0  0  0
  -27.3973   33.8689  -28.1987 H   0  0  0  0  0  0  0  0  0  0  0  0
  -27.2936   32.4485  -29.2895 H   0  0  0  0  0  0  0  0  0  0  0  0
  -28.0240   29.8826  -28.0715 H   0  0  0  0  0  0  0  0  0  0  0  0
  -25.4412   30.8910  -26.6378 H   0  0  0  0  0  0  0  0  0  0  0  0
  -27.7548   29.0790  -25.4810 H   0  0  0  0  0  0  0  0  0  0  0  0
  -26.8930   32.1396  -23.2697 H   0  0  0  0  0  0  0  0  0  0  0  0
  -26.6581   30.5034  -23.3014 H   0  0  0  0  0  0  0  0  0  0  0  0
  -26.8082   33.0210  -25.7918 H   0  0  0  0  0  0  0  0  0  0  0  0
  -28.5720   33.1274  -25.5421 H   0  0  0  0  0  0  0  0  0  0  0  0
  -25.7364   31.4728  -24.3050 H   0  0  0  0  0  0  0  0  0  0  0  0
  1 13  2  0  0  0  0
  2  4  1  0  0  0  0
  2  6  1  0  0  0  0
  2 16  1  0  0  0  0
  2 17  1  0  0  0  0
  3 11  2  0  0  0  0
  4  6  1  0  0  0  0
  4 18  1  0  0  0  0
  4 19  1  0  0  0  0
  5  9  1  0  0  0  0
  5 11  1  1  0  0  0
  5 12  1  0  0  0  0
  5 15  1  0  0  0  0
  6  7  1  0  0  0  0
  6 15  1  0  0  0  0
  7  8  1  0  0  0  0
  7  9  1  0  0  0  0
  7 20  1  6  0  0  0
  8  9  1  0  0  0  0
  8 13  1  0  0  0  0
  8 21  1  1  0  0  0
  9 22  1  1  0  0  0
 10 11  1  0  0  0  0
 12 23  1  0  0  0  0
 12 24  1  0  0  0  0
 12 27  1  0  0  0  0
 13 14  1  0  0  0  0
 15 25  1  0  0  0  0
 15 26  1  0  0  0  0
M  CHG  1  12   1
M  END
$$$$
