40W
 OpenBabel04111922303D

 42 44  0  0  1  0  0  0  0  0999 V2000
   -1.6264  -10.5467  -26.2180 N   0  0  0  0  0  0  0  0  0  0  0  0
    6.5034  -11.9892  -24.0833 C   0  0  2  0  0  0  0  0  0  0  0  0
    7.6095  -12.9068  -24.3363 C   0  0  0  0  0  0  0  0  0  0  0  0
    7.2391  -14.3357  -24.7301 C   0  0  0  0  0  0  0  0  0  0  0  0
    5.9368  -14.4347  -25.5641 C   0  0  0  0  0  0  0  0  0  0  0  0
    4.7651  -13.7180  -24.8388 C   0  0  0  0  0  0  0  0  0  0  0  0
    6.1618  -13.8336  -26.9661 C   0  0  0  0  0  0  0  0  0  0  0  0
    1.0481  -10.1384  -25.2093 C   0  0  0  0  0  0  0  0  0  0  0  0
    0.7593  -12.2461  -24.0405 C   0  0  0  0  0  0  0  0  0  0  0  0
   -1.2366  -11.1814  -25.0698 C   0  0  0  0  0  0  0  0  0  0  0  0
   -2.0436  -11.7475  -24.3481 O   0  0  0  0  0  0  0  0  0  0  0  0
    0.2193  -11.1769  -24.7722 C   0  0  2  0  0  0  0  0  0  0  0  0
    2.4134  -10.1670  -24.9343 C   0  0  0  0  0  0  0  0  0  0  0  0
    2.1340  -12.2935  -23.7918 C   0  0  0  0  0  0  0  0  0  0  0  0
    2.9573  -11.2579  -24.2482 C   0  0  1  0  0  0  0  0  0  0  0  0
    4.3581  -11.3158  -24.0538 N   0  3  2  0  0  0  0  0  0  0  0  0
    5.1419  -10.2518  -23.6647 C   0  0  0  0  0  0  0  0  0  0  0  0
    5.1925  -12.3862  -24.3030 C   0  0  2  0  0  0  0  0  0  0  0  0
    5.5630  -15.9181  -25.7439 C   0  0  0  0  0  0  0  0  0  0  0  0
    8.7878  -12.5760  -24.2025 O   0  0  0  0  0  0  0  0  0  0  0  0
    6.4739  -10.6273  -23.6596 C   0  0  2  0  0  0  0  0  0  0  0  0
    7.6076   -9.7364  -23.2923 C   0  0  0  0  0  0  0  0  0  0  0  0
   -0.9753  -10.1985  -26.9062 H   0  0  0  0  0  0  0  0  0  0  0  0
   -2.6037  -10.5976  -26.4708 H   0  0  0  0  0  0  0  0  0  0  0  0
    7.1358  -14.9069  -23.7992 H   0  0  0  0  0  0  0  0  0  0  0  0
    8.0779  -14.7668  -25.2903 H   0  0  0  0  0  0  0  0  0  0  0  0
    4.4266  -14.3319  -23.9957 H   0  0  0  0  0  0  0  0  0  0  0  0
    3.9234  -13.6115  -25.5329 H   0  0  0  0  0  0  0  0  0  0  0  0
    6.9657  -14.3609  -27.4927 H   0  0  0  0  0  0  0  0  0  0  0  0
    6.4352  -12.7748  -26.9236 H   0  0  0  0  0  0  0  0  0  0  0  0
    5.2566  -13.9171  -27.5787 H   0  0  0  0  0  0  0  0  0  0  0  0
    0.6424   -9.2919  -25.7574 H   0  0  0  0  0  0  0  0  0  0  0  0
    0.1132  -13.0410  -23.6757 H   0  0  0  0  0  0  0  0  0  0  0  0
    3.0467   -9.3662  -25.3141 H   0  0  0  0  0  0  0  0  0  0  0  0
    2.5337  -13.1181  -23.2077 H   0  0  0  0  0  0  0  0  0  0  0  0
    4.6907   -9.3088  -23.3801 H   0  0  0  0  0  0  0  0  0  0  0  0
    5.3933  -16.4056  -24.7778 H   0  0  0  0  0  0  0  0  0  0  0  0
    6.3574  -16.4691  -26.2599 H   0  0  0  0  0  0  0  0  0  0  0  0
    4.6452  -16.0238  -26.3348 H   0  0  0  0  0  0  0  0  0  0  0  0
    8.5762  -10.2293  -23.3770 H   0  0  0  0  0  0  0  0  0  0  0  0
    7.4966   -9.3870  -22.2578 H   0  0  0  0  0  0  0  0  0  0  0  0
    7.6192   -8.8570  -23.9444 H   0  0  0  0  0  0  0  0  0  0  0  0
  1 10  1  0  0  0  0
  1 23  1  0  0  0  0
  1 24  1  0  0  0  0
  2  3  1  6  0  0  0
  2 18  1  0  0  0  0
  2 21  1  0  0  0  0
  3  4  1  0  0  0  0
  3 20  2  0  0  0  0
  4  5  1  0  0  0  0
  4 25  1  0  0  0  0
  4 26  1  0  0  0  0
  5  6  1  0  0  0  0
  5  7  1  0  0  0  0
  5 19  1  0  0  0  0
  6 27  1  0  0  0  0
  6 28  1  0  0  0  0
  7 29  1  0  0  0  0
  7 30  1  0  0  0  0
  7 31  1  0  0  0  0
  8 12  1  0  0  0  0
  8 13  1  0  0  0  0
  8 32  1  0  0  0  0
  9 12  1  0  0  0  0
  9 14  1  0  0  0  0
  9 33  1  0  0  0  0
 10 11  2  0  0  0  0
 12 10  1  6  0  0  0
 13 34  1  0  0  0  0
 14 15  1  0  0  0  0
 14 35  1  0  0  0  0
 15 13  1  6  0  0  0
 15 16  1  0  0  0  0
 16 17  1  6  0  0  0
 16 18  1  0  0  0  0
 17 21  1  0  0  0  0
 17 36  1  0  0  0  0
 18  6  1  6  0  0  0
 19 37  1  0  0  0  0
 19 38  1  0  0  0  0
 19 39  1  0  0  0  0
 21 22  1  6  0  0  0
 22 40  1  0  0  0  0
 22 41  1  0  0  0  0
 22 42  1  0  0  0  0
M  CHG  1  16   1
M  END
$$$$
