40X
 OpenBabel04111922313D

 56 59  0  0  1  0  0  0  0  0999 V2000
   -2.4079  -11.5431  -24.0354 N   0  0  0  0  0  0  0  0  0  0  0  0
    4.2107   -8.6802  -23.1712 C   0  0  0  0  0  0  0  0  0  0  0  0
    4.8412   -9.9764  -23.5315 C   0  0  2  0  0  0  0  0  0  0  0  0
    6.1884  -10.2801  -23.5694 C   0  0  1  0  0  0  0  0  0  0  0  0
    6.2799  -11.6300  -24.0121 C   0  0  1  0  0  0  0  0  0  0  0  0
    4.9946  -12.0853  -24.2400 C   0  0  2  0  0  0  0  0  0  0  0  0
    1.9303  -12.1353  -23.6737 C   0  0  0  0  0  0  0  0  0  0  0  0
    0.6944   -9.9951  -24.9951 C   0  0  0  0  0  0  0  0  0  0  0  0
   -1.5227  -11.0894  -24.9756 C   0  0  0  0  0  0  0  0  0  0  0  0
    5.8291  -14.1006  -25.5333 C   0  0  0  0  0  0  0  0  0  0  0  0
    5.9817  -13.5148  -26.9393 C   0  0  0  0  0  0  0  0  0  0  0  0
    5.5341  -15.6031  -25.6756 C   0  0  0  0  0  0  0  0  0  0  0  0
    7.2977   -9.3303  -23.2619 C   0  0  0  0  0  0  0  0  0  0  0  0
    8.5808  -12.1174  -24.1635 O   0  0  0  0  0  0  0  0  0  0  0  0
    7.4270  -12.4910  -24.3007 C   0  0  0  0  0  0  0  0  0  0  0  0
    7.1277  -13.9238  -24.7341 C   0  0  0  0  0  0  0  0  0  0  0  0
    4.6488  -13.4307  -24.7970 C   0  0  0  0  0  0  0  0  0  0  0  0
    4.1034  -11.0666  -23.9548 N   0  3  2  0  0  0  0  0  0  0  0  0
    2.6957  -11.0635  -24.1212 C   0  0  1  0  0  0  0  0  0  0  0  0
    2.0758   -9.9756  -24.7471 C   0  0  1  0  0  0  0  0  0  0  0  0
   -0.0700  -11.1065  -24.6029 C   0  0  1  0  0  0  0  0  0  0  0  0
   -1.8956  -10.6612  -26.0331 O   0  0  0  0  0  0  0  0  0  0  0  0
    0.5575  -12.1698  -23.9412 C   0  0  1  0  0  0  0  0  0  0  0  0
   -0.2570  -13.6300  -23.5031 Cl  0  0  0  0  0  0  0  0  0  0  0  0
    2.7998   -8.9532  -25.2889 O   0  0  0  0  0  0  0  0  0  0  0  0
    3.4861   -8.0862  -24.3767 C   0  0  1  0  0  0  0  0  0  0  0  0
    2.6482   -6.8508  -24.0780 C   0  0  0  0  0  0  0  0  0  0  0  0
    3.4735   -5.5717  -24.2015 C   0  0  0  0  0  0  0  0  0  0  0  0
    3.9339   -5.2965  -25.6265 C   0  0  0  0  0  0  0  0  0  0  0  0
   -3.3965  -11.5466  -24.2712 H   0  0  0  0  0  0  0  0  0  0  0  0
   -2.1027  -11.8871  -23.1452 H   0  0  0  0  0  0  0  0  0  0  0  0
    5.0080   -7.9887  -22.8747 H   0  0  0  0  0  0  0  0  0  0  0  0
    3.5577   -8.7979  -22.2989 H   0  0  0  0  0  0  0  0  0  0  0  0
    2.3963  -12.9472  -23.1137 H   0  0  0  0  0  0  0  0  0  0  0  0
    0.2129   -9.1504  -25.4902 H   0  0  0  0  0  0  0  0  0  0  0  0
    6.8053  -13.9994  -27.4767 H   0  0  0  0  0  0  0  0  0  0  0  0
    6.1867  -12.4439  -26.8795 H   0  0  0  0  0  0  0  0  0  0  0  0
    5.0610  -13.6612  -27.5166 H   0  0  0  0  0  0  0  0  0  0  0  0
    5.4221  -16.0634  -24.6861 H   0  0  0  0  0  0  0  0  0  0  0  0
    6.3496  -16.1138  -26.2030 H   0  0  0  0  0  0  0  0  0  0  0  0
    4.6041  -15.7606  -26.2356 H   0  0  0  0  0  0  0  0  0  0  0  0
    6.9420   -8.3442  -22.9294 H   0  0  0  0  0  0  0  0  0  0  0  0
    7.8992   -9.1722  -24.1595 H   0  0  0  0  0  0  0  0  0  0  0  0
    7.9245   -9.7368  -22.4679 H   0  0  0  0  0  0  0  0  0  0  0  0
    7.9734  -14.2600  -25.3467 H   0  0  0  0  0  0  0  0  0  0  0  0
    7.0778  -14.5460  -23.8310 H   0  0  0  0  0  0  0  0  0  0  0  0
    3.8183  -13.3415  -25.5002 H   0  0  0  0  0  0  0  0  0  0  0  0
    4.3585  -14.0799  -23.9661 H   0  0  0  0  0  0  0  0  0  0  0  0
    4.3225   -7.7174  -24.9668 H   0  0  0  0  0  0  0  0  0  0  0  0
    2.2407   -6.8993  -23.0601 H   0  0  0  0  0  0  0  0  0  0  0  0
    1.8189   -6.7993  -24.7933 H   0  0  0  0  0  0  0  0  0  0  0  0
    4.3540   -5.6519  -23.5533 H   0  0  0  0  0  0  0  0  0  0  0  0
    2.8595   -4.7307  -23.8639 H   0  0  0  0  0  0  0  0  0  0  0  0
    4.5168   -4.3726  -25.6583 H   0  0  0  0  0  0  0  0  0  0  0  0
    3.0740   -5.1983  -26.2962 H   0  0  0  0  0  0  0  0  0  0  0  0
    4.5698   -6.1031  -26.0020 H   0  0  0  0  0  0  0  0  0  0  0  0
  1  9  1  0  0  0  0
  1 30  1  0  0  0  0
  1 31  1  0  0  0  0
  2 26  1  0  0  0  0
  2 32  1  0  0  0  0
  2 33  1  0  0  0  0
  3  2  1  6  0  0  0
  3  4  1  0  0  0  0
  4  5  1  0  0  0  0
  4 13  1  6  0  0  0
  5  6  1  0  0  0  0
  5 15  1  6  0  0  0
  6 17  1  6  0  0  0
  6 18  1  0  0  0  0
  7 23  1  0  0  0  0
  7 34  1  0  0  0  0
  8 21  1  0  0  0  0
  8 35  1  0  0  0  0
  9 22  2  0  0  0  0
 10 11  1  0  0  0  0
 10 12  1  0  0  0  0
 10 16  1  0  0  0  0
 10 17  1  0  0  0  0
 11 36  1  0  0  0  0
 11 37  1  0  0  0  0
 11 38  1  0  0  0  0
 12 39  1  0  0  0  0
 12 40  1  0  0  0  0
 12 41  1  0  0  0  0
 13 42  1  0  0  0  0
 13 43  1  0  0  0  0
 13 44  1  0  0  0  0
 14 15  2  0  0  0  0
 15 16  1  0  0  0  0
 16 45  1  0  0  0  0
 16 46  1  0  0  0  0
 17 47  1  0  0  0  0
 17 48  1  0  0  0  0
 18  3  1  6  0  0  0
 18 19  1  0  0  0  0
 19  7  1  6  0  0  0
 19 20  1  0  0  0  0
 20  8  1  6  0  0  0
 20 25  1  0  0  0  0
 21  9  1  6  0  0  0
 21 23  1  0  0  0  0
 23 24  1  6  0  0  0
 25 26  1  0  0  0  0
 26 27  1  0  0  0  0
 26 49  1  6  0  0  0
 27 28  1  0  0  0  0
 27 50  1  0  0  0  0
 27 51  1  0  0  0  0
 28 29  1  0  0  0  0
 28 52  1  0  0  0  0
 28 53  1  0  0  0  0
 29 54  1  0  0  0  0
 29 55  1  0  0  0  0
 29 56  1  0  0  0  0
M  CHG  1  18   1
M  END
$$$$
