40Y
 OpenBabel04111922303D

 47 50  0  0  1  0  0  0  0  0999 V2000
   -2.3930  -11.6535  -24.2237 N   0  0  0  0  0  0  0  0  0  0  0  0
    6.2475  -11.7388  -24.0993 C   0  0  2  0  0  0  0  0  0  0  0  0
    7.3931  -12.6287  -24.3211 C   0  0  0  0  0  0  0  0  0  0  0  0
    7.0924  -14.0807  -24.6961 C   0  0  0  0  0  0  0  0  0  0  0  0
    5.8108  -14.2715  -25.5162 C   0  0  0  0  0  0  0  0  0  0  0  0
    4.6248  -13.5766  -24.8099 C   0  0  0  0  0  0  0  0  0  0  0  0
    5.9968  -13.7201  -26.9313 C   0  0  0  0  0  0  0  0  0  0  0  0
    0.4812  -12.1544  -24.0300 C   0  0  0  0  0  0  0  0  0  0  0  0
    0.7148  -10.1155  -25.3135 C   0  0  0  0  0  0  0  0  0  0  0  0
    3.2904   -8.1200  -24.6277 C   0  0  0  0  0  0  0  0  0  0  0  0
   -1.9354  -10.7055  -26.2125 O   0  0  0  0  0  0  0  0  0  0  0  0
   -1.5412  -11.1379  -25.1627 C   0  0  0  0  0  0  0  0  0  0  0  0
   -0.0893  -11.1392  -24.8083 C   0  0  1  0  0  0  0  0  0  0  0  0
    1.8608  -12.1734  -23.7912 C   0  0  0  0  0  0  0  0  0  0  0  0
    2.0826  -10.0998  -25.0318 C   0  0  2  0  0  0  0  0  0  0  0  0
    2.8317   -9.0852  -25.5836 O   0  0  0  0  0  0  0  0  0  0  0  0
    4.2136   -8.6683  -23.5440 C   0  0  0  0  0  0  0  0  0  0  0  0
    4.8072  -10.0212  -23.7946 C   0  0  1  0  0  0  0  0  0  0  0  0
    2.6659  -11.1551  -24.3187 C   0  0  1  0  0  0  0  0  0  0  0  0
    4.0731  -11.1521  -24.1191 N   0  3  1  0  0  0  0  0  0  0  0  0
    4.9600  -12.1989  -24.3167 C   0  0  2  0  0  0  0  0  0  0  0  0
    5.5089  -15.7739  -25.6355 C   0  0  0  0  0  0  0  0  0  0  0  0
    8.5569  -12.2653  -24.1972 O   0  0  0  0  0  0  0  0  0  0  0  0
    6.1491  -10.3594  -23.7507 C   0  0  2  0  0  0  0  0  0  0  0  0
    7.2684   -9.4093  -23.4586 C   0  0  0  0  0  0  0  0  0  0  0  0
   -2.0619  -11.9973  -23.3420 H   0  0  0  0  0  0  0  0  0  0  0  0
   -3.3869  -11.6653  -24.4315 H   0  0  0  0  0  0  0  0  0  0  0  0
    7.0130  -14.6637  -23.7695 H   0  0  0  0  0  0  0  0  0  0  0  0
    7.9469  -14.4534  -25.2760 H   0  0  0  0  0  0  0  0  0  0  0  0
    4.3404  -14.1907  -23.9500 H   0  0  0  0  0  0  0  0  0  0  0  0
    3.7954  -13.5220  -25.5159 H   0  0  0  0  0  0  0  0  0  0  0  0
    6.8260  -14.2276  -27.4390 H   0  0  0  0  0  0  0  0  0  0  0  0
    6.2134  -12.6505  -26.8916 H   0  0  0  0  0  0  0  0  0  0  0  0
    5.0849  -13.8712  -27.5218 H   0  0  0  0  0  0  0  0  0  0  0  0
   -0.1372  -12.9535  -23.6289 H   0  0  0  0  0  0  0  0  0  0  0  0
    0.2695   -9.3154  -25.9013 H   0  0  0  0  0  0  0  0  0  0  0  0
    2.4311   -7.6279  -24.1445 H   0  0  0  0  0  0  0  0  0  0  0  0
    3.8333   -7.3287  -25.1757 H   0  0  0  0  0  0  0  0  0  0  0  0
    2.2869  -12.9608  -23.1729 H   0  0  0  0  0  0  0  0  0  0  0  0
    3.6564   -8.6729  -22.5993 H   0  0  0  0  0  0  0  0  0  0  0  0
    5.0431   -7.9568  -23.4305 H   0  0  0  0  0  0  0  0  0  0  0  0
    5.3718  -16.2130  -24.6397 H   0  0  0  0  0  0  0  0  0  0  0  0
    6.3334  -16.2980  -26.1354 H   0  0  0  0  0  0  0  0  0  0  0  0
    4.5909  -15.9343  -26.2147 H   0  0  0  0  0  0  0  0  0  0  0  0
    8.2167   -9.9376  -23.5142 H   0  0  0  0  0  0  0  0  0  0  0  0
    7.1671   -8.9775  -22.4534 H   0  0  0  0  0  0  0  0  0  0  0  0
    7.2855   -8.5857  -24.1870 H   0  0  0  0  0  0  0  0  0  0  0  0
  1 12  1  0  0  0  0
  1 26  1  0  0  0  0
  1 27  1  0  0  0  0
  2  3  1  6  0  0  0
  2 21  1  0  0  0  0
  2 24  1  0  0  0  0
  3  4  1  0  0  0  0
  3 23  2  0  0  0  0
  4  5  1  0  0  0  0
  4 28  1  0  0  0  0
  4 29  1  0  0  0  0
  5  6  1  0  0  0  0
  5  7  1  0  0  0  0
  5 22  1  0  0  0  0
  6 30  1  0  0  0  0
  6 31  1  0  0  0  0
  7 32  1  0  0  0  0
  7 33  1  0  0  0  0
  7 34  1  0  0  0  0
  8 13  1  0  0  0  0
  8 14  1  0  0  0  0
  8 35  1  0  0  0  0
  9 13  1  0  0  0  0
  9 36  1  0  0  0  0
 10 16  1  0  0  0  0
 10 17  1  0  0  0  0
 10 37  1  0  0  0  0
 10 38  1  0  0  0  0
 11 12  2  0  0  0  0
 13 12  1  6  0  0  0
 14 39  1  0  0  0  0
 15  9  1  6  0  0  0
 15 16  1  0  0  0  0
 15 19  1  0  0  0  0
 17 40  1  0  0  0  0
 17 41  1  0  0  0  0
 18 17  1  6  0  0  0
 18 24  1  0  0  0  0
 19 14  1  1  0  0  0
 19 20  1  0  0  0  0
 20 18  1  6  0  0  0
 20 21  1  0  0  0  0
 21  6  1  6  0  0  0
 22 42  1  0  0  0  0
 22 43  1  0  0  0  0
 22 44  1  0  0  0  0
 24 25  1  6  0  0  0
 25 45  1  0  0  0  0
 25 46  1  0  0  0  0
 25 47  1  0  0  0  0
M  CHG  1  20   1
M  END
$$$$
