40Z
 OpenBabel04111922313D

 58 62  0  0  1  0  0  0  0  0999 V2000
    2.7644   -8.8291  -25.6226 N   0  0  0  0  0  0  0  0  0  0  0  0
    6.4129  -11.6114  -24.3152 C   0  0  2  0  0  0  0  0  0  0  0  0
    7.5533  -12.5164  -24.4850 C   0  0  0  0  0  0  0  0  0  0  0  0
    7.2584  -13.9720  -24.8469 C   0  0  0  0  0  0  0  0  0  0  0  0
    6.0078  -14.1780  -25.7087 C   0  0  0  0  0  0  0  0  0  0  0  0
    4.8031  -13.4358  -25.0896 C   0  0  0  0  0  0  0  0  0  0  0  0
    5.6842  -15.6819  -25.7692 C   0  0  0  0  0  0  0  0  0  0  0  0
    0.7392  -12.2594  -24.1759 C   0  0  1  0  0  0  0  0  0  0  0  0
    0.7277  -10.1170  -25.2722 C   0  0  0  0  0  0  0  0  0  0  0  0
    3.5969   -7.9354  -24.8221 C   0  0  0  0  0  0  0  0  0  0  0  0
    3.0815   -7.4643  -27.8507 C   0  0  1  0  0  0  0  0  0  0  0  0
    3.4639   -6.1497  -27.7055 C   0  0  0  0  0  0  0  0  0  0  0  0
    3.9929   -5.7516  -28.9404 C   0  0  0  0  0  0  0  0  0  0  0  0
   -1.4292  -11.2883  -25.1049 C   0  0  0  0  0  0  0  0  0  0  0  0
    0.0150  -13.7285  -23.6346 Cl  0  0  0  0  0  0  0  0  0  0  0  0
    2.1238  -12.1492  -24.0016 C   0  0  0  0  0  0  0  0  0  0  0  0
    0.0254  -11.2457  -24.8222 C   0  0  1  0  0  0  0  0  0  0  0  0
   -2.2326  -11.7880  -24.1070 N   0  0  0  0  0  0  0  0  0  0  0  0
   -1.8925  -10.8670  -26.1283 O   0  0  0  0  0  0  0  0  0  0  0  0
    2.1298   -9.9581  -25.1019 C   0  0  1  0  0  0  0  0  0  0  0  0
    2.3567   -8.4301  -26.9762 C   0  0  0  0  0  0  0  0  0  0  0  0
    3.3349   -7.8697  -29.1470 O   0  0  0  0  0  0  0  0  0  0  0  0
    3.8945   -6.8161  -29.7884 C   0  0  0  0  0  0  0  0  0  0  0  0
    4.3018   -8.5988  -23.6448 C   0  0  0  0  0  0  0  0  0  0  0  0
    4.9620   -9.9018  -23.9890 C   0  0  2  0  0  0  0  0  0  0  0  0
    2.8173  -11.0355  -24.4984 C   0  0  1  0  0  0  0  0  0  0  0  0
    4.2341  -11.0107  -24.3801 N   0  3  2  0  0  0  0  0  0  0  0  0
    5.1322  -12.0577  -24.5884 C   0  0  2  0  0  0  0  0  0  0  0  0
    6.2570  -13.7037  -27.1409 C   0  0  0  0  0  0  0  0  0  0  0  0
    8.7246  -12.1643  -24.3127 O   0  0  0  0  0  0  0  0  0  0  0  0
    6.3087  -10.2375  -23.9329 C   0  0  2  0  0  0  0  0  0  0  0  0
    7.4096   -9.3079  -23.5516 C   0  0  0  0  0  0  0  0  0  0  0  0
    7.1515  -14.5439  -23.9180 H   0  0  0  0  0  0  0  0  0  0  0  0
    8.1315  -14.3577  -25.3949 H   0  0  0  0  0  0  0  0  0  0  0  0
    4.4510  -14.0284  -24.2405 H   0  0  0  0  0  0  0  0  0  0  0  0
    4.0216  -13.3695  -25.8449 H   0  0  0  0  0  0  0  0  0  0  0  0
    6.5162  -16.2427  -26.2133 H   0  0  0  0  0  0  0  0  0  0  0  0
    4.7848  -15.8569  -26.3727 H   0  0  0  0  0  0  0  0  0  0  0  0
    5.5040  -16.0735  -24.7603 H   0  0  0  0  0  0  0  0  0  0  0  0
    0.1549   -9.3249  -25.7551 H   0  0  0  0  0  0  0  0  0  0  0  0
    2.9856   -7.1078  -24.4299 H   0  0  0  0  0  0  0  0  0  0  0  0
    4.3659   -7.4975  -25.4695 H   0  0  0  0  0  0  0  0  0  0  0  0
    3.3789   -5.5496  -26.8213 H   0  0  0  0  0  0  0  0  0  0  0  0
    4.4060   -4.7916  -29.2126 H   0  0  0  0  0  0  0  0  0  0  0  0
    2.6533  -12.9294  -23.4556 H   0  0  0  0  0  0  0  0  0  0  0  0
   -3.2313  -11.8374  -24.2678 H   0  0  0  0  0  0  0  0  0  0  0  0
   -1.8427  -12.1344  -23.2486 H   0  0  0  0  0  0  0  0  0  0  0  0
    1.3456   -8.0267  -26.9043 H   0  0  0  0  0  0  0  0  0  0  0  0
    2.3595   -9.3600  -27.5527 H   0  0  0  0  0  0  0  0  0  0  0  0
    4.1885   -6.8945  -30.8178 H   0  0  0  0  0  0  0  0  0  0  0  0
    3.5812   -8.7417  -22.8312 H   0  0  0  0  0  0  0  0  0  0  0  0
    5.0782   -7.9126  -23.2818 H   0  0  0  0  0  0  0  0  0  0  0  0
    6.4944  -12.6388  -27.1468 H   0  0  0  0  0  0  0  0  0  0  0  0
    5.3653  -13.8672  -27.7588 H   0  0  0  0  0  0  0  0  0  0  0  0
    7.0923  -14.2525  -27.5929 H   0  0  0  0  0  0  0  0  0  0  0  0
    8.3602   -9.8328  -23.6048 H   0  0  0  0  0  0  0  0  0  0  0  0
    7.2781   -8.9320  -22.5273 H   0  0  0  0  0  0  0  0  0  0  0  0
    7.4513   -8.4452  -24.2311 H   0  0  0  0  0  0  0  0  0  0  0  0
  1 10  1  0  0  0  0
  1 21  1  0  0  0  0
  2  3  1  6  0  0  0
  2 28  1  0  0  0  0
  2 31  1  0  0  0  0
  3  4  1  0  0  0  0
  3 30  2  0  0  0  0
  4  5  1  0  0  0  0
  4 33  1  0  0  0  0
  4 34  1  0  0  0  0
  5  6  1  0  0  0  0
  5  7  1  0  0  0  0
  5 29  1  0  0  0  0
  6 35  1  0  0  0  0
  6 36  1  0  0  0  0
  7 37  1  0  0  0  0
  7 38  1  0  0  0  0
  7 39  1  0  0  0  0
  8 15  1  6  0  0  0
  8 16  1  0  0  0  0
  8 17  1  0  0  0  0
  9 17  1  0  0  0  0
  9 20  1  0  0  0  0
  9 40  1  0  0  0  0
 10 24  1  0  0  0  0
 10 41  1  0  0  0  0
 10 42  1  0  0  0  0
 11 12  1  0  0  0  0
 11 21  1  6  0  0  0
 11 22  1  0  0  0  0
 12 13  1  0  0  0  0
 12 43  1  0  0  0  0
 13 23  1  0  0  0  0
 13 44  1  0  0  0  0
 14 18  1  0  0  0  0
 14 19  2  0  0  0  0
 16 45  1  0  0  0  0
 17 14  1  6  0  0  0
 18 46  1  0  0  0  0
 18 47  1  0  0  0  0
 20  1  1  6  0  0  0
 20 26  1  0  0  0  0
 21 48  1  0  0  0  0
 21 49  1  0  0  0  0
 22 23  1  0  0  0  0
 23 50  1  0  0  0  0
 24 51  1  0  0  0  0
 24 52  1  0  0  0  0
 25 24  1  1  0  0  0
 25 31  1  0  0  0  0
 26 16  1  1  0  0  0
 26 27  1  0  0  0  0
 27 25  1  1  0  0  0
 27 28  1  0  0  0  0
 28  6  1  6  0  0  0
 29 53  1  0  0  0  0
 29 54  1  0  0  0  0
 29 55  1  0  0  0  0
 31 32  1  6  0  0  0
 32 56  1  0  0  0  0
 32 57  1  0  0  0  0
 32 58  1  0  0  0  0
M  CHG  1  27   1
M  END
$$$$
