41J
 OpenBabel04111922313D

113120  0  0  1  0  0  0  0  0999 V2000
   64.4355   -5.5899   25.5238 C   0  0  0  0  0  0  0  0  0  0  0  0
   64.9992   -6.5805   24.8063 C   0  0  0  0  0  0  0  0  0  0  0  0
   72.2045   -5.5195   20.6076 C   0  0  0  0  0  0  0  0  0  0  0  0
   65.8179   -6.3702   23.6301 C   0  0  0  0  0  0  0  0  0  0  0  0
   66.8091   -4.9622   21.7605 C   0  0  0  0  0  0  0  0  0  0  0  0
   66.2635   -7.4586   22.9777 C   0  0  0  0  0  0  0  0  0  0  0  0
   68.0326   -8.6856   21.7215 C   0  0  1  0  0  0  0  0  0  0  0  0
   68.6995  -10.3301   20.2578 C   0  0  1  0  0  0  0  0  0  0  0  0
   69.9903  -10.9747   19.7641 C   0  0  0  0  0  0  0  0  0  0  0  0
   71.3030  -10.3645   20.2417 C   0  0  2  0  0  0  0  0  0  0  0  0
   71.2085   -6.8206   23.3257 C   0  0  0  0  0  0  0  0  0  0  0  0
   76.4585   -8.3967   18.5963 O   0  0  0  0  0  0  0  0  0  0  0  0
   75.3729   -8.4196   17.6485 C   0  0  2  0  0  0  0  0  0  0  0  0
   75.9547   -8.5049   16.2326 C   0  0  0  0  0  0  0  0  0  0  0  0
   74.5926   -7.1116   17.8206 C   0  0  0  0  0  0  0  0  0  0  0  0
   73.2728   -7.0939   17.0671 C   0  0  0  0  0  0  0  0  0  0  0  0
   72.4844   -8.3928   17.2269 C   0  0  2  0  0  0  0  0  0  0  0  0
   73.3067   -9.5537   17.0787 O   0  0  0  0  0  0  0  0  0  0  0  0
   74.4231   -9.5945   17.9706 C   0  0  2  0  0  0  0  0  0  0  0  0
   74.0224   -9.4677   19.3477 O   0  0  0  0  0  0  0  0  0  0  0  0
   75.0822  -10.9677   17.8646 C   0  0  0  0  0  0  0  0  0  0  0  0
   74.6062  -11.7258   19.0935 C   0  0  0  0  0  0  0  0  0  0  0  0
   73.6831  -10.7593   19.8382 C   0  0  2  0  0  0  0  0  0  0  0  0
   72.3277  -11.0863   19.5304 O   0  0  0  0  0  0  0  0  0  0  0  0
   73.9302  -10.8130   21.3496 C   0  0  0  0  0  0  0  0  0  0  0  0
   72.8803  -10.0046   22.1023 C   0  0  0  0  0  0  0  0  0  0  0  0
   71.4923  -10.5080   21.7439 C   0  0  0  0  0  0  0  0  0  0  0  0
   68.3223  -10.9407   21.4957 O   0  0  0  0  0  0  0  0  0  0  0  0
   68.7610   -8.9080   20.4916 O   0  0  0  0  0  0  0  0  0  0  0  0
   67.5840  -10.6369   19.2347 C   0  0  0  0  0  0  0  0  0  0  0  0
   66.2165  -10.1302   19.7021 C   0  0  1  0  0  0  0  0  0  0  0  0
   65.0828  -10.7891   18.9322 C   0  0  0  0  0  0  0  0  0  0  0  0
   66.0393  -10.2802   21.2155 C   0  0  1  0  0  0  0  0  0  0  0  0
   65.5853  -11.6053   21.4998 O   0  0  0  0  0  0  0  0  0  0  0  0
   71.3690   -8.5013   16.1760 C   0  0  0  0  0  0  0  0  0  0  0  0
   70.3421   -7.4091   16.2747 C   0  0  0  0  0  0  0  0  0  0  0  0
   70.0829   -6.6636   15.1726 C   0  0  0  0  0  0  0  0  0  0  0  0
   69.6617   -7.1926   17.5968 C   0  0  0  0  0  0  0  0  0  0  0  0
   68.4230   -6.2959   17.5831 C   0  0  0  0  0  0  0  0  0  0  0  0
   67.6559   -6.3928   18.9030 C   0  0  0  0  0  0  0  0  0  0  0  0
   68.3517   -5.7958   20.1220 C   0  0  0  0  0  0  0  0  0  0  0  0
   69.2838   -4.9334   19.8194 N   0  0  0  0  0  0  0  0  0  0  0  0
   70.1101   -4.1736   20.7578 C   0  0  0  0  0  0  0  0  0  0  0  0
   71.0703   -5.0766   21.5254 C   0  0  1  0  0  0  0  0  0  0  0  0
   70.3770   -6.2896   22.1575 C   0  0  2  0  0  0  0  0  0  0  0  0
   68.9598   -5.9434   22.6273 C   0  0  0  0  0  0  0  0  0  0  0  0
   67.8565   -6.0805   21.5485 C   0  0  1  0  0  0  0  0  0  0  0  0
   66.1485   -4.9850   23.1358 C   0  0  0  0  0  0  0  0  0  0  0  0
   67.1126   -7.4432   21.7139 C   0  0  2  0  0  0  0  0  0  0  0  0
   67.3441  -10.0219   21.9794 C   0  0  2  0  0  0  0  0  0  0  0  0
   63.8286   -5.8212   26.3903 H   0  0  0  0  0  0  0  0  0  0  0  0
   64.5822   -4.5592   25.2416 H   0  0  0  0  0  0  0  0  0  0  0  0
   64.8106   -7.5956   25.1361 H   0  0  0  0  0  0  0  0  0  0  0  0
   72.6842   -4.6472   20.1534 H   0  0  0  0  0  0  0  0  0  0  0  0
   71.8239   -6.1620   19.8101 H   0  0  0  0  0  0  0  0  0  0  0  0
   72.9587   -6.0754   21.1696 H   0  0  0  0  0  0  0  0  0  0  0  0
   66.0329   -5.0605   20.9906 H   0  0  0  0  0  0  0  0  0  0  0  0
   67.2960   -3.9877   21.6136 H   0  0  0  0  0  0  0  0  0  0  0  0
   66.0067   -8.4198   23.4053 H   0  0  0  0  0  0  0  0  0  0  0  0
   68.7714   -8.5444   22.5162 H   0  0  0  0  0  0  0  0  0  0  0  0
   70.0038  -10.9668   18.6643 H   0  0  0  0  0  0  0  0  0  0  0  0
   69.9789  -12.0328   20.0723 H   0  0  0  0  0  0  0  0  0  0  0  0
   71.3275   -9.3012   19.9789 H   0  0  0  0  0  0  0  0  0  0  0  0
   70.7142   -7.6829   23.7849 H   0  0  0  0  0  0  0  0  0  0  0  0
   71.3453   -6.0487   24.0914 H   0  0  0  0  0  0  0  0  0  0  0  0
   72.1946   -7.1387   22.9773 H   0  0  0  0  0  0  0  0  0  0  0  0
   76.0392   -8.3524   19.4834 H   0  0  0  0  0  0  0  0  0  0  0  0
   75.1603   -8.5136   15.4783 H   0  0  0  0  0  0  0  0  0  0  0  0
   76.5529   -9.4151   16.1126 H   0  0  0  0  0  0  0  0  0  0  0  0
   76.6142   -7.6509   16.0301 H   0  0  0  0  0  0  0  0  0  0  0  0
   75.2110   -6.2705   17.4883 H   0  0  0  0  0  0  0  0  0  0  0  0
   74.3916   -6.9688   18.8895 H   0  0  0  0  0  0  0  0  0  0  0  0
   73.4753   -6.9220   16.0040 H   0  0  0  0  0  0  0  0  0  0  0  0
   72.6678   -6.2548   17.4339 H   0  0  0  0  0  0  0  0  0  0  0  0
   72.0223   -8.4033   18.2165 H   0  0  0  0  0  0  0  0  0  0  0  0
   76.1797  -10.9013   17.8672 H   0  0  0  0  0  0  0  0  0  0  0  0
   74.7738  -11.4822   16.9482 H   0  0  0  0  0  0  0  0  0  0  0  0
   75.4705  -12.0139   19.7102 H   0  0  0  0  0  0  0  0  0  0  0  0
   74.0738  -12.6377   18.8022 H   0  0  0  0  0  0  0  0  0  0  0  0
   74.9240  -10.4097   21.5856 H   0  0  0  0  0  0  0  0  0  0  0  0
   73.8818  -11.8526   21.7019 H   0  0  0  0  0  0  0  0  0  0  0  0
   72.9674   -8.9476   21.8184 H   0  0  0  0  0  0  0  0  0  0  0  0
   73.0417  -10.0861   23.1818 H   0  0  0  0  0  0  0  0  0  0  0  0
   71.3985  -11.5630   22.0344 H   0  0  0  0  0  0  0  0  0  0  0  0
   70.7336   -9.9331   22.2837 H   0  0  0  0  0  0  0  0  0  0  0  0
   67.5349  -11.7238   19.0848 H   0  0  0  0  0  0  0  0  0  0  0  0
   67.8250  -10.1590   18.2751 H   0  0  0  0  0  0  0  0  0  0  0  0
   66.1765   -9.0651   19.4723 H   0  0  0  0  0  0  0  0  0  0  0  0
   64.1200  -10.4107   19.2920 H   0  0  0  0  0  0  0  0  0  0  0  0
   65.1032  -11.8764   19.0658 H   0  0  0  0  0  0  0  0  0  0  0  0
   65.1716  -10.5673   17.8649 H   0  0  0  0  0  0  0  0  0  0  0  0
   65.2653   -9.5824   21.5487 H   0  0  0  0  0  0  0  0  0  0  0  0
   65.4848  -11.6995   22.4639 H   0  0  0  0  0  0  0  0  0  0  0  0
   70.8626   -9.4726   16.2810 H   0  0  0  0  0  0  0  0  0  0  0  0
   71.8286   -8.4960   15.1752 H   0  0  0  0  0  0  0  0  0  0  0  0
   69.3616   -5.8642   15.2125 H   0  0  0  0  0  0  0  0  0  0  0  0
   70.6062   -6.8662   14.2496 H   0  0  0  0  0  0  0  0  0  0  0  0
   70.3876   -6.7479   18.2822 H   0  0  0  0  0  0  0  0  0  0  0  0
   69.3705   -8.1718   17.9862 H   0  0  0  0  0  0  0  0  0  0  0  0
   67.7623   -6.6092   16.7637 H   0  0  0  0  0  0  0  0  0  0  0  0
   68.7245   -5.2553   17.3995 H   0  0  0  0  0  0  0  0  0  0  0  0
   67.4819   -7.4496   19.0903 H   0  0  0  0  0  0  0  0  0  0  0  0
   66.6911   -5.8927   18.7664 H   0  0  0  0  0  0  0  0  0  0  0  0
   69.5092   -3.5773   21.4524 H   0  0  0  0  0  0  0  0  0  0  0  0
   70.6881   -3.4652   20.1528 H   0  0  0  0  0  0  0  0  0  0  0  0
   71.5117   -4.4767   22.3321 H   0  0  0  0  0  0  0  0  0  0  0  0
   70.3139   -7.0864   21.4121 H   0  0  0  0  0  0  0  0  0  0  0  0
   68.9588   -4.9182   23.0149 H   0  0  0  0  0  0  0  0  0  0  0  0
   68.7036   -6.5921   23.4699 H   0  0  0  0  0  0  0  0  0  0  0  0
   66.8263   -4.4979   23.8496 H   0  0  0  0  0  0  0  0  0  0  0  0
   65.2344   -4.3838   23.0674 H   0  0  0  0  0  0  0  0  0  0  0  0
   66.4205   -7.5312   20.8741 H   0  0  0  0  0  0  0  0  0  0  0  0
   67.1830  -10.1943   23.0459 H   0  0  0  0  0  0  0  0  0  0  0  0
  1  2  2  0  0  0  0
  1 51  1  0  0  0  0
  1 52  1  0  0  0  0
  2  4  1  0  0  0  0
  2 53  1  0  0  0  0
  3 44  1  0  0  0  0
  3 54  1  0  0  0  0
  3 55  1  0  0  0  0
  3 56  1  0  0  0  0
  4  6  2  0  0  0  0
  4 48  1  0  0  0  0
  5 48  1  0  0  0  0
  5 57  1  0  0  0  0
  5 58  1  0  0  0  0
  6 49  1  0  0  0  0
  6 59  1  0  0  0  0
  7 29  1  0  0  0  0
  7 49  1  0  0  0  0
  7 50  1  0  0  0  0
  7 60  1  1  0  0  0
  8  9  1  6  0  0  0
  8 28  1  0  0  0  0
  8 29  1  0  0  0  0
  8 30  1  0  0  0  0
  9 10  1  0  0  0  0
  9 61  1  0  0  0  0
  9 62  1  0  0  0  0
 10 24  1  0  0  0  0
 10 27  1  0  0  0  0
 10 63  1  6  0  0  0
 11 45  1  0  0  0  0
 11 64  1  0  0  0  0
 11 65  1  0  0  0  0
 11 66  1  0  0  0  0
 12 67  1  0  0  0  0
 13 12  1  1  0  0  0
 13 14  1  0  0  0  0
 13 15  1  0  0  0  0
 13 19  1  0  0  0  0
 14 68  1  0  0  0  0
 14 69  1  0  0  0  0
 14 70  1  0  0  0  0
 15 16  1  0  0  0  0
 15 71  1  0  0  0  0
 15 72  1  0  0  0  0
 16 17  1  0  0  0  0
 16 73  1  0  0  0  0
 16 74  1  0  0  0  0
 17 18  1  0  0  0  0
 17 35  1  0  0  0  0
 17 75  1  1  0  0  0
 19 18  1  6  0  0  0
 19 20  1  0  0  0  0
 19 21  1  0  0  0  0
 21 22  1  0  0  0  0
 21 76  1  0  0  0  0
 21 77  1  0  0  0  0
 22 23  1  0  0  0  0
 22 78  1  0  0  0  0
 22 79  1  0  0  0  0
 23 20  1  6  0  0  0
 23 24  1  0  0  0  0
 23 25  1  0  0  0  0
 25 26  1  0  0  0  0
 25 80  1  0  0  0  0
 25 81  1  0  0  0  0
 26 27  1  0  0  0  0
 26 82  1  0  0  0  0
 26 83  1  0  0  0  0
 27 84  1  0  0  0  0
 27 85  1  0  0  0  0
 28 50  1  0  0  0  0
 30 31  1  0  0  0  0
 30 86  1  0  0  0  0
 30 87  1  0  0  0  0
 31 32  1  0  0  0  0
 31 33  1  0  0  0  0
 31 88  1  6  0  0  0
 32 89  1  0  0  0  0
 32 90  1  0  0  0  0
 32 91  1  0  0  0  0
 33 34  1  0  0  0  0
 33 50  1  0  0  0  0
 33 92  1  1  0  0  0
 34 93  1  0  0  0  0
 35 36  1  0  0  0  0
 35 94  1  0  0  0  0
 35 95  1  0  0  0  0
 36 37  2  0  0  0  0
 36 38  1  0  0  0  0
 37 96  1  0  0  0  0
 37 97  1  0  0  0  0
 38 39  1  0  0  0  0
 38 98  1  0  0  0  0
 38 99  1  0  0  0  0
 39 40  1  0  0  0  0
 39100  1  0  0  0  0
 39101  1  0  0  0  0
 40 41  1  0  0  0  0
 40102  1  0  0  0  0
 40103  1  0  0  0  0
 41 42  2  0  0  0  0
 41 47  1  0  0  0  0
 42 43  1  0  0  0  0
 43 44  1  0  0  0  0
 43104  1  0  0  0  0
 43105  1  0  0  0  0
 44 45  1  0  0  0  0
 44106  1  1  0  0  0
 45 46  1  0  0  0  0
 45107  1  6  0  0  0
 46 47  1  0  0  0  0
 46108  1  0  0  0  0
 46109  1  0  0  0  0
 47  5  1  1  0  0  0
 47 49  1  0  0  0  0
 48110  1  0  0  0  0
 48111  1  0  0  0  0
 49112  1  6  0  0  0
 50113  1  1  0  0  0
M  END
$$$$
