435
 OpenBabel04111920403D

 45 47  0  0  0  0  0  0  0  0999 V2000
  -15.2915   13.2118   -6.4328 C   0  0  0  0  0  0  0  0  0  0  0  0
  -15.8361   11.9625   -6.0915 C   0  0  0  0  0  0  0  0  0  0  0  0
  -15.2847   10.7631   -6.5679 C   0  0  0  0  0  0  0  0  0  0  0  0
  -14.1600   10.8484   -7.4083 C   0  0  0  0  0  0  0  0  0  0  0  0
  -13.5880   12.0828   -7.7618 C   0  0  0  0  0  0  0  0  0  0  0  0
  -14.1688   13.2525   -7.2640 C   0  0  0  0  0  0  0  0  0  0  0  0
  -13.6523   14.4805   -7.5726 O   0  0  0  0  0  0  0  0  0  0  0  0
  -12.3645   12.1150   -8.6296 C   0  0  0  0  0  0  0  0  0  0  0  0
  -15.8761    9.5444   -6.1433 N   0  0  0  0  0  0  0  0  0  0  0  0
  -15.3377    8.5382   -6.6502 N   0  0  0  0  0  0  0  0  0  0  0  0
  -15.8096    7.3003   -6.1591 C   0  0  0  0  0  0  0  0  0  0  0  0
  -15.3338    6.1402   -6.7922 C   0  0  0  0  0  0  0  0  0  0  0  0
  -15.7079    4.8615   -6.3609 C   0  0  0  0  0  0  0  0  0  0  0  0
  -16.5626    4.7289   -5.2670 C   0  0  0  0  0  0  0  0  0  0  0  0
  -17.0713    5.8675   -4.6334 C   0  0  0  0  0  0  0  0  0  0  0  0
  -16.6848    7.1431   -5.0729 C   0  0  0  0  0  0  0  0  0  0  0  0
  -17.0764    3.0965   -4.7595 S   0  0  0  0  0  0  0  0  0  0  0  0
  -17.3096    2.3407   -5.9739 O   0  0  0  0  0  0  0  0  0  0  0  0
  -18.1247    3.2461   -3.7747 O   0  0  0  0  0  0  0  0  0  0  0  0
  -15.7332    2.4427   -4.0463 N   0  0  0  0  0  0  0  0  0  0  0  0
  -15.1267    2.9128   -2.8686 C   0  0  0  0  0  0  0  0  0  0  0  0
  -13.9410    2.3043   -2.6589 N   0  0  0  0  0  0  0  0  0  0  0  0
  -13.2757    2.6455   -1.5289 C   0  0  0  0  0  0  0  0  0  0  0  0
  -13.7361    3.5724   -0.6098 C   0  0  0  0  0  0  0  0  0  0  0  0
  -14.9637    4.1748   -0.8521 C   0  0  0  0  0  0  0  0  0  0  0  0
  -15.6767    3.8286   -1.9941 C   0  0  0  0  0  0  0  0  0  0  0  0
  -15.9051   14.4861   -5.9277 C   0  0  0  0  0  0  0  0  0  0  0  0
  -16.7045   11.9167   -5.4376 H   0  0  0  0  0  0  0  0  0  0  0  0
  -13.7077    9.9336   -7.7851 H   0  0  0  0  0  0  0  0  0  0  0  0
  -13.4900   14.4939   -8.5300 H   0  0  0  0  0  0  0  0  0  0  0  0
  -12.0392   11.1062   -8.9053 H   0  0  0  0  0  0  0  0  0  0  0  0
  -11.5370   12.5977   -8.1000 H   0  0  0  0  0  0  0  0  0  0  0  0
  -12.5732   12.6598   -9.5553 H   0  0  0  0  0  0  0  0  0  0  0  0
  -14.6575    6.2368   -7.6393 H   0  0  0  0  0  0  0  0  0  0  0  0
  -15.3377    3.9844   -6.8869 H   0  0  0  0  0  0  0  0  0  0  0  0
  -17.7701    5.7823   -3.8044 H   0  0  0  0  0  0  0  0  0  0  0  0
  -17.0753    8.0169   -4.5565 H   0  0  0  0  0  0  0  0  0  0  0  0
  -15.2446    1.6962   -4.5272 H   0  0  0  0  0  0  0  0  0  0  0  0
  -12.3299    2.1349   -1.3729 H   0  0  0  0  0  0  0  0  0  0  0  0
  -13.1603    3.8109    0.2765 H   0  0  0  0  0  0  0  0  0  0  0  0
  -15.3738    4.8992   -0.1533 H   0  0  0  0  0  0  0  0  0  0  0  0
  -16.6476    4.2763   -2.1536 H   0  0  0  0  0  0  0  0  0  0  0  0
  -16.8066   14.2930   -5.3386 H   0  0  0  0  0  0  0  0  0  0  0  0
  -16.1916   15.1257   -6.7701 H   0  0  0  0  0  0  0  0  0  0  0  0
  -15.1940   15.0257   -5.2937 H   0  0  0  0  0  0  0  0  0  0  0  0
  1  2  2  0  0  0  0
  1  6  1  0  0  0  0
  1 27  1  0  0  0  0
  2  3  1  0  0  0  0
  2 28  1  0  0  0  0
  3  4  2  0  0  0  0
  3  9  1  0  0  0  0
  4  5  1  0  0  0  0
  4 29  1  0  0  0  0
  5  6  2  0  0  0  0
  5  8  1  0  0  0  0
  6  7  1  0  0  0  0
  7 30  1  0  0  0  0
  8 31  1  0  0  0  0
  8 32  1  0  0  0  0
  8 33  1  0  0  0  0
  9 10  2  0  0  0  0
 10 11  1  0  0  0  0
 11 12  2  0  0  0  0
 11 16  1  0  0  0  0
 12 13  1  0  0  0  0
 12 34  1  0  0  0  0
 13 14  2  0  0  0  0
 13 35  1  0  0  0  0
 14 15  1  0  0  0  0
 14 17  1  0  0  0  0
 15 16  2  0  0  0  0
 15 36  1  0  0  0  0
 16 37  1  0  0  0  0
 17 18  2  0  0  0  0
 17 19  2  0  0  0  0
 17 20  1  0  0  0  0
 20 21  1  0  0  0  0
 20 38  1  0  0  0  0
 21 22  2  0  0  0  0
 21 26  1  0  0  0  0
 22 23  1  0  0  0  0
 23 24  2  0  0  0  0
 23 39  1  0  0  0  0
 24 25  1  0  0  0  0
 24 40  1  0  0  0  0
 25 26  2  0  0  0  0
 25 41  1  0  0  0  0
 26 42  1  0  0  0  0
 27 43  1  0  0  0  0
 27 44  1  0  0  0  0
 27 45  1  0  0  0  0
M  END
$$$$
