43T
 OpenBabel04111921493D

 61 63  0  0  1  0  0  0  0  0999 V2000
   33.1042   58.2232   41.9102 C   0  0  0  0  0  0  0  0  0  0  0  0
   34.1574   59.2503   41.6049 C   0  0  0  0  0  0  0  0  0  0  0  0
   33.9005   60.5942   42.0388 N   0  0  0  0  0  0  0  0  0  0  0  0
   32.7480   60.9248   42.6528 C   0  0  0  0  0  0  0  0  0  0  0  0
   31.9720   59.9720   43.1947 N   0  0  0  0  0  0  0  0  0  0  0  0
   32.3622   58.5409   43.2065 C   0  0  1  0  0  0  0  0  0  0  0  0
   31.0553   57.7303   43.2223 C   0  0  0  0  0  0  0  0  0  0  0  0
   33.2487   58.2373   44.4602 C   0  0  0  0  0  0  0  0  0  0  0  0
   32.3160   62.2001   42.7566 N   0  0  0  0  0  0  0  0  0  0  0  0
   34.8885   61.6101   41.6255 C   0  0  0  0  0  0  0  0  0  0  0  0
   35.1261   58.9805   40.9113 O   0  0  0  0  0  0  0  0  0  0  0  0
   32.6976   58.8625   45.7469 C   0  0  0  0  0  0  0  0  0  0  0  0
   33.4559   56.7378   44.7057 C   0  0  0  0  0  0  0  0  0  0  0  0
   36.2275   61.4398   42.2938 C   0  0  0  0  0  0  0  0  0  0  0  0
   36.3698   60.9637   43.6036 C   0  0  0  0  0  0  0  0  0  0  0  0
   37.6410   60.8749   44.1941 C   0  0  0  0  0  0  0  0  0  0  0  0
   38.7733   61.2583   43.4712 C   0  0  0  0  0  0  0  0  0  0  0  0
   38.6278   61.7442   42.1852 C   0  0  0  0  0  0  0  0  0  0  0  0
   37.3734   61.8480   41.5984 C   0  0  0  0  0  0  0  0  0  0  0  0
   39.7079   62.1315   41.4994 F   0  0  0  0  0  0  0  0  0  0  0  0
   37.8624   60.3823   45.5766 C   0  0  0  0  0  0  0  0  0  0  0  0
   38.9913   60.0818   45.9422 O   0  0  0  0  0  0  0  0  0  0  0  0
   36.7561   60.3039   46.3897 N   0  0  0  0  0  0  0  0  0  0  0  0
   36.8651   59.7751   47.7370 C   0  0  2  0  0  0  0  0  0  0  0  0
   37.0924   58.2769   47.7373 C   0  0  0  0  0  0  0  0  0  0  0  0
   37.8418   57.7007   48.7698 C   0  0  0  0  0  0  0  0  0  0  0  0
   38.0585   56.3225   48.7976 C   0  0  0  0  0  0  0  0  0  0  0  0
   37.5315   55.5115   47.7990 C   0  0  0  0  0  0  0  0  0  0  0  0
   36.7905   56.0694   46.7604 C   0  0  0  0  0  0  0  0  0  0  0  0
   36.5707   57.4457   46.7353 C   0  0  0  0  0  0  0  0  0  0  0  0
   35.5965   60.0999   48.5144 C   0  0  0  0  0  0  0  0  0  0  0  0
   33.5830   57.2409   41.9452 H   0  0  0  0  0  0  0  0  0  0  0  0
   32.4077   58.2299   41.0629 H   0  0  0  0  0  0  0  0  0  0  0  0
   31.0800   60.2362   43.5953 H   0  0  0  0  0  0  0  0  0  0  0  0
   30.4902   57.9038   44.1430 H   0  0  0  0  0  0  0  0  0  0  0  0
   31.2374   56.6575   43.1151 H   0  0  0  0  0  0  0  0  0  0  0  0
   30.4089   58.0448   42.3950 H   0  0  0  0  0  0  0  0  0  0  0  0
   34.2379   58.6819   44.2984 H   0  0  0  0  0  0  0  0  0  0  0  0
   31.4293   62.4161   43.1932 H   0  0  0  0  0  0  0  0  0  0  0  0
   34.5552   62.6176   41.8904 H   0  0  0  0  0  0  0  0  0  0  0  0
   34.9784   61.5774   40.5365 H   0  0  0  0  0  0  0  0  0  0  0  0
   33.3441   58.6166   46.5947 H   0  0  0  0  0  0  0  0  0  0  0  0
   31.6965   58.4910   45.9821 H   0  0  0  0  0  0  0  0  0  0  0  0
   32.6563   59.9534   45.6744 H   0  0  0  0  0  0  0  0  0  0  0  0
   33.8645   56.2316   43.8286 H   0  0  0  0  0  0  0  0  0  0  0  0
   32.5235   56.2434   44.9939 H   0  0  0  0  0  0  0  0  0  0  0  0
   34.1561   56.5772   45.5274 H   0  0  0  0  0  0  0  0  0  0  0  0
   35.4881   60.6480   44.1481 H   0  0  0  0  0  0  0  0  0  0  0  0
   39.7656   61.1880   43.9078 H   0  0  0  0  0  0  0  0  0  0  0  0
   37.3083   62.2449   40.5884 H   0  0  0  0  0  0  0  0  0  0  0  0
   35.8518   60.6196   46.0918 H   0  0  0  0  0  0  0  0  0  0  0  0
   37.7224   60.2724   48.2059 H   0  0  0  0  0  0  0  0  0  0  0  0
   38.2752   58.3234   49.5486 H   0  0  0  0  0  0  0  0  0  0  0  0
   38.6447   55.8799   49.5998 H   0  0  0  0  0  0  0  0  0  0  0  0
   37.7093   54.4397   47.8191 H   0  0  0  0  0  0  0  0  0  0  0  0
   36.3936   55.4370   45.9725 H   0  0  0  0  0  0  0  0  0  0  0  0
   36.0064   57.8718   45.9147 H   0  0  0  0  0  0  0  0  0  0  0  0
   35.6502   59.7230   49.5400 H   0  0  0  0  0  0  0  0  0  0  0  0
   34.7179   59.6511   48.0393 H   0  0  0  0  0  0  0  0  0  0  0  0
   35.4322   61.1817   48.5472 H   0  0  0  0  0  0  0  0  0  0  0  0
   32.7914   62.9738   42.3295 H   0  0  0  0  0  0  0  0  0  0  0  0
  1  2  1  0  0  0  0
  1  6  1  0  0  0  0
  1 32  1  0  0  0  0
  1 33  1  0  0  0  0
  2  3  1  0  0  0  0
  2 11  2  0  0  0  0
  3  4  1  0  0  0  0
  3 10  1  0  0  0  0
  4  5  1  0  0  0  0
  4  9  2  0  0  0  0
  5  6  1  0  0  0  0
  5 34  1  0  0  0  0
  6  7  1  1  0  0  0
  6  8  1  0  0  0  0
  7 35  1  0  0  0  0
  7 36  1  0  0  0  0
  7 37  1  0  0  0  0
  8 12  1  0  0  0  0
  8 13  1  0  0  0  0
  8 38  1  0  0  0  0
  9 39  1  0  0  0  0
  9 61  1  0  0  0  0
 10 14  1  0  0  0  0
 10 40  1  0  0  0  0
 10 41  1  0  0  0  0
 12 42  1  0  0  0  0
 12 43  1  0  0  0  0
 12 44  1  0  0  0  0
 13 45  1  0  0  0  0
 13 46  1  0  0  0  0
 13 47  1  0  0  0  0
 14 15  2  0  0  0  0
 14 19  1  0  0  0  0
 15 16  1  0  0  0  0
 15 48  1  0  0  0  0
 16 17  2  0  0  0  0
 16 21  1  0  0  0  0
 17 18  1  0  0  0  0
 17 49  1  0  0  0  0
 18 19  2  0  0  0  0
 18 20  1  0  0  0  0
 19 50  1  0  0  0  0
 21 22  2  0  0  0  0
 21 23  1  0  0  0  0
 23 24  1  0  0  0  0
 23 51  1  0  0  0  0
 24 25  1  0  0  0  0
 24 31  1  0  0  0  0
 24 52  1  1  0  0  0
 25 26  2  0  0  0  0
 25 30  1  0  0  0  0
 26 27  1  0  0  0  0
 26 53  1  0  0  0  0
 27 28  2  0  0  0  0
 27 54  1  0  0  0  0
 28 29  1  0  0  0  0
 28 55  1  0  0  0  0
 29 30  2  0  0  0  0
 29 56  1  0  0  0  0
 30 57  1  0  0  0  0
 31 58  1  0  0  0  0
 31 59  1  0  0  0  0
 31 60  1  0  0  0  0
M  END
$$$$
