43U
 OpenBabel04111922363D

 29 31  0  0  0  0  0  0  0  0999 V2000
   18.2059   28.0543  -19.1986 C   0  0  0  0  0  0  0  0  0  0  0  0
   17.7918   26.7325  -19.3556 C   0  0  0  0  0  0  0  0  0  0  0  0
   17.8374   25.8128  -18.2818 C   0  0  0  0  0  0  0  0  0  0  0  0
   19.0375   21.7754  -16.7970 C   0  0  0  0  0  0  0  0  0  0  0  0
   17.4132   24.4173  -18.5229 C   0  0  0  0  0  0  0  0  0  0  0  0
   17.9819   23.2878  -17.9103 C   0  0  0  0  0  0  0  0  0  0  0  0
   17.4595   22.0654  -18.3047 C   0  0  0  0  0  0  0  0  0  0  0  0
   16.0470   22.9594  -19.7628 C   0  0  0  0  0  0  0  0  0  0  0  0
   15.0848   22.8277  -20.7201 N   0  0  0  0  0  0  0  0  0  0  0  0
   16.4438   24.2105  -19.4729 N   0  0  0  0  0  0  0  0  0  0  0  0
   18.6914   28.4975  -17.9783 C   0  0  0  0  0  0  0  0  0  0  0  0
   18.1317   21.1274  -17.5827 N   0  3  0  0  0  0  0  0  0  0  0  0
   18.1075   29.2577  -20.6549 Br  0  0  0  0  0  0  0  0  0  0  0  0
   18.7159   27.6239  -16.8912 C   0  0  0  0  0  0  0  0  0  0  0  0
   18.2649   26.3023  -17.0230 C   0  0  0  0  0  0  0  0  0  0  0  0
   18.1785   25.4371  -15.9686 O   0  0  0  0  0  0  0  0  0  0  0  0
   18.4398   25.9161  -14.6596 C   0  0  0  0  0  0  0  0  0  0  0  0
   16.5045   21.8304  -19.2118 N   0  0  0  0  0  0  0  0  0  0  0  0
   18.9958   23.0754  -16.9888 N   0  0  0  0  0  0  0  0  0  0  0  0
   17.4263   26.4042  -20.3254 H   0  0  0  0  0  0  0  0  0  0  0  0
   19.7005   21.2578  -16.1180 H   0  0  0  0  0  0  0  0  0  0  0  0
   14.7516   23.6620  -21.1713 H   0  0  0  0  0  0  0  0  0  0  0  0
   14.8097   21.8992  -20.9898 H   0  0  0  0  0  0  0  0  0  0  0  0
   19.0395   29.5218  -17.8519 H   0  0  0  0  0  0  0  0  0  0  0  0
   17.9709   20.1340  -17.6385 H   0  0  0  0  0  0  0  0  0  0  0  0
   19.0867   28.0090  -15.9460 H   0  0  0  0  0  0  0  0  0  0  0  0
   18.3532   25.0681  -13.9720 H   0  0  0  0  0  0  0  0  0  0  0  0
   17.6913   26.6630  -14.3674 H   0  0  0  0  0  0  0  0  0  0  0  0
   19.4555   26.3114  -14.5634 H   0  0  0  0  0  0  0  0  0  0  0  0
  1  2  2  0  0  0  0
  1 11  1  0  0  0  0
  1 13  1  0  0  0  0
  2  3  1  0  0  0  0
  2 20  1  0  0  0  0
  3  5  1  0  0  0  0
  3 15  2  0  0  0  0
  4 12  2  0  0  0  0
  4 19  1  0  0  0  0
  4 21  1  0  0  0  0
  5  6  2  0  0  0  0
  5 10  1  0  0  0  0
  6  7  1  0  0  0  0
  6 19  1  0  0  0  0
  7 12  1  0  0  0  0
  7 18  2  0  0  0  0
  8  9  1  0  0  0  0
  8 10  2  0  0  0  0
  8 18  1  0  0  0  0
  9 22  1  0  0  0  0
  9 23  1  0  0  0  0
 11 14  2  0  0  0  0
 11 24  1  0  0  0  0
 12 25  1  0  0  0  0
 14 15  1  0  0  0  0
 14 26  1  0  0  0  0
 15 16  1  0  0  0  0
 16 17  1  0  0  0  0
 17 27  1  0  0  0  0
 17 28  1  0  0  0  0
 17 29  1  0  0  0  0
M  CHG  1  12   1
M  END
$$$$
