44Q
 OpenBabel04111922353D

 66 70  0  0  1  0  0  0  0  0999 V2000
   -7.9948   -0.8011   11.9848 C   0  0  0  0  0  0  0  0  0  0  0  0
   -5.8569   -0.4468   11.4875 C   0  0  0  0  0  0  0  0  0  0  0  0
   -5.4596   -0.6854   12.7925 C   0  0  0  0  0  0  0  0  0  0  0  0
   -6.1904   -1.2320   15.0453 N   0  0  0  0  0  0  0  0  0  0  0  0
   -3.6753   -0.2580   11.7349 C   0  0  0  0  0  0  0  0  0  0  0  0
   -2.0955  -10.0214   13.8717 C   0  0  1  0  0  0  0  0  0  0  0  0
   -0.8901   -9.3445   13.4450 N   0  0  0  0  0  0  0  0  0  0  0  0
    0.1204   -9.4817   14.3375 C   0  0  0  0  0  0  0  0  0  0  0  0
    1.2069   -8.9150   14.2761 O   0  0  0  0  0  0  0  0  0  0  0  0
   -0.2772  -10.3626   15.3097 N   0  0  0  0  0  0  0  0  0  0  0  0
   -1.7084  -10.5807   15.2538 C   0  0  1  0  0  0  0  0  0  0  0  0
   -2.4046   -9.8238   16.3802 C   0  0  0  0  0  0  0  0  0  0  0  0
   -3.4804   -8.5620   15.6690 S   0  0  0  0  0  0  0  0  0  0  0  0
   -3.3265   -9.1176   13.9494 C   0  0  1  0  0  0  0  0  0  0  0  0
   -3.2598   -7.9085   13.0029 C   0  0  0  0  0  0  0  0  0  0  0  0
   -3.5160   -8.3498   11.5603 C   0  0  0  0  0  0  0  0  0  0  0  0
   -3.6977   -7.1525   10.6376 C   0  0  0  0  0  0  0  0  0  0  0  0
   -4.0524   -7.5999    9.2266 C   0  0  0  0  0  0  0  0  0  0  0  0
   -4.4957   -6.4120    8.4188 C   0  0  0  0  0  0  0  0  0  0  0  0
   -5.6194   -5.9481    8.5490 O   0  0  0  0  0  0  0  0  0  0  0  0
   -3.5316   -5.8535    7.5745 N   0  0  0  0  0  0  0  0  0  0  0  0
   -3.9553   -4.9809    6.2395 S   0  0  0  0  0  0  0  0  0  0  0  0
   -5.1976   -5.4632    5.6919 O   0  0  0  0  0  0  0  0  0  0  0  0
   -2.7695   -4.8876    5.4201 O   0  0  0  0  0  0  0  0  0  0  0  0
   -4.2550   -3.5007    6.8805 N   0  0  0  0  0  0  0  0  0  0  0  0
   -3.4149   -2.8451    7.8723 C   0  0  0  0  0  0  0  0  0  0  0  0
   -3.6820   -1.3323    7.8253 C   0  0  1  0  0  0  0  0  0  0  0  0
   -4.8366   -1.0261    8.6260 O   0  0  0  0  0  0  0  0  0  0  0  0
   -2.5275   -0.5114    8.3613 C   0  0  0  0  0  0  0  0  0  0  0  0
   -3.2060    0.6835    8.9874 C   0  0  2  0  0  0  0  0  0  0  0  0
   -4.5817    0.1553    9.4076 C   0  0  2  0  0  0  0  0  0  0  0  0
   -4.6901   -0.1876   10.8118 N   0  3  0  0  0  0  0  0  0  0  0  0
   -4.0972   -0.5497   12.9329 N   0  0  0  0  0  0  0  0  0  0  0  0
   -7.1113   -0.4661   11.0104 N   0  0  0  0  0  0  0  0  0  0  0  0
   -7.7431   -1.0611   13.2862 N   0  0  0  0  0  0  0  0  0  0  0  0
   -6.4644   -1.0008   13.7200 C   0  0  0  0  0  0  0  0  0  0  0  0
   -3.3168    1.7206    8.0146 O   0  0  0  0  0  0  0  0  0  0  0  0
   -9.0321   -0.8647   11.6830 H   0  0  0  0  0  0  0  0  0  0  0  0
   -6.9479   -1.4803   15.6606 H   0  0  0  0  0  0  0  0  0  0  0  0
   -5.2257   -1.2069   15.3534 H   0  0  0  0  0  0  0  0  0  0  0  0
   -2.6284   -0.0795   11.4965 H   0  0  0  0  0  0  0  0  0  0  0  0
   -2.2670  -10.8334   13.1547 H   0  0  0  0  0  0  0  0  0  0  0  0
   -0.7745   -8.7671   12.6179 H   0  0  0  0  0  0  0  0  0  0  0  0
    0.3443  -10.6030   16.0682 H   0  0  0  0  0  0  0  0  0  0  0  0
   -1.8843  -11.6588   15.3284 H   0  0  0  0  0  0  0  0  0  0  0  0
   -1.6889   -9.3341   17.0496 H   0  0  0  0  0  0  0  0  0  0  0  0
   -2.9998  -10.5138   16.9876 H   0  0  0  0  0  0  0  0  0  0  0  0
   -4.2247   -9.7075   13.7257 H   0  0  0  0  0  0  0  0  0  0  0  0
   -2.2854   -7.4044   13.0602 H   0  0  0  0  0  0  0  0  0  0  0  0
   -3.9941   -7.1501   13.2912 H   0  0  0  0  0  0  0  0  0  0  0  0
   -4.4165   -8.9741   11.5335 H   0  0  0  0  0  0  0  0  0  0  0  0
   -2.6833   -8.9676   11.1977 H   0  0  0  0  0  0  0  0  0  0  0  0
   -2.7832   -6.5521   10.6139 H   0  0  0  0  0  0  0  0  0  0  0  0
   -4.4866   -6.4989   11.0318 H   0  0  0  0  0  0  0  0  0  0  0  0
   -4.8935   -8.3049    9.2428 H   0  0  0  0  0  0  0  0  0  0  0  0
   -3.2123   -8.1146    8.7449 H   0  0  0  0  0  0  0  0  0  0  0  0
   -2.5627   -6.1630    7.5876 H   0  0  0  0  0  0  0  0  0  0  0  0
   -4.9856   -2.9662    6.4155 H   0  0  0  0  0  0  0  0  0  0  0  0
   -2.3575   -3.0611    7.6938 H   0  0  0  0  0  0  0  0  0  0  0  0
   -3.6995   -3.2379    8.8575 H   0  0  0  0  0  0  0  0  0  0  0  0
   -3.9019   -1.0216    6.7963 H   0  0  0  0  0  0  0  0  0  0  0  0
   -1.8430   -0.2351    7.5535 H   0  0  0  0  0  0  0  0  0  0  0  0
   -1.9687   -1.0839    9.1094 H   0  0  0  0  0  0  0  0  0  0  0  0
   -2.6139    1.0998    9.8051 H   0  0  0  0  0  0  0  0  0  0  0  0
   -5.3629    0.8953    9.1869 H   0  0  0  0  0  0  0  0  0  0  0  0
   -3.8435    2.4410    8.4076 H   0  0  0  0  0  0  0  0  0  0  0  0
  1 34  2  0  0  0  0
  1 35  1  0  0  0  0
  1 38  1  0  0  0  0
  2  3  2  0  0  0  0
  2 32  1  0  0  0  0
  2 34  1  0  0  0  0
  3 33  1  0  0  0  0
  3 36  1  0  0  0  0
  4 36  1  0  0  0  0
  4 39  1  0  0  0  0
  4 40  1  0  0  0  0
  5 32  2  0  0  0  0
  5 33  1  0  0  0  0
  5 41  1  0  0  0  0
  6  7  1  0  0  0  0
  6 11  1  0  0  0  0
  6 14  1  0  0  0  0
  6 42  1  6  0  0  0
  7  8  1  0  0  0  0
  7 43  1  0  0  0  0
  8  9  2  0  0  0  0
  8 10  1  0  0  0  0
 10 11  1  0  0  0  0
 10 44  1  0  0  0  0
 11 12  1  0  0  0  0
 11 45  1  1  0  0  0
 12 13  1  0  0  0  0
 12 46  1  0  0  0  0
 12 47  1  0  0  0  0
 13 14  1  0  0  0  0
 14 15  1  0  0  0  0
 14 48  1  6  0  0  0
 15 16  1  0  0  0  0
 15 49  1  0  0  0  0
 15 50  1  0  0  0  0
 16 17  1  0  0  0  0
 16 51  1  0  0  0  0
 16 52  1  0  0  0  0
 17 18  1  0  0  0  0
 17 53  1  0  0  0  0
 17 54  1  0  0  0  0
 18 19  1  0  0  0  0
 18 55  1  0  0  0  0
 18 56  1  0  0  0  0
 19 20  2  0  0  0  0
 19 21  1  0  0  0  0
 21 22  1  0  0  0  0
 21 57  1  0  0  0  0
 22 23  2  0  0  0  0
 22 24  2  0  0  0  0
 22 25  1  0  0  0  0
 25 26  1  0  0  0  0
 25 58  1  0  0  0  0
 26 27  1  0  0  0  0
 26 59  1  0  0  0  0
 26 60  1  0  0  0  0
 27 28  1  0  0  0  0
 27 29  1  0  0  0  0
 27 61  1  6  0  0  0
 28 31  1  0  0  0  0
 29 30  1  0  0  0  0
 29 62  1  0  0  0  0
 29 63  1  0  0  0  0
 30 31  1  0  0  0  0
 30 37  1  0  0  0  0
 30 64  1  1  0  0  0
 31 32  1  0  0  0  0
 31 65  1  6  0  0  0
 35 36  2  0  0  0  0
 37 66  1  0  0  0  0
M  CHG  1  32   1
M  END
$$$$
