45S
 OpenBabel04111922413D

 50 52  0  0  1  0  0  0  0  0999 V2000
    4.1938   19.8041   49.5259 C   0  0  0  0  0  0  0  0  0  0  0  0
    3.4577   18.9064   48.6569 C   0  0  1  0  0  0  0  0  0  0  0  0
    5.3329   20.1513   49.2013 O   0  0  0  0  0  0  0  0  0  0  0  0
    2.1352   18.5066   48.5503 C   0  0  0  0  0  0  0  0  0  0  0  0
    2.0187   17.6058   47.4664 C   0  0  0  0  0  0  0  0  0  0  0  0
    3.2604   17.4945   46.8912 C   0  0  2  0  0  0  0  0  0  0  0  0
    4.1094   18.2987   47.5987 N   0  3  0  0  0  0  0  0  0  0  0  0
    3.7204   16.7193   45.7151 C   0  0  0  0  0  0  0  0  0  0  0  0
    3.6535   20.2057   50.7423 N   0  0  0  0  0  0  0  0  0  0  0  0
    4.2308   21.3154   51.4916 C   0  0  2  0  0  0  0  0  0  0  0  0
    5.7668   21.2640   51.5829 C   0  0  0  0  0  0  0  0  0  0  0  0
    6.4046   20.2515   51.8832 O   0  0  0  0  0  0  0  0  0  0  0  0
    3.6209   21.1817   52.8945 C   0  0  0  0  0  0  0  0  0  0  0  0
    2.2563   20.5711   52.6371 C   0  0  0  0  0  0  0  0  0  0  0  0
    2.4716   19.6844   51.4210 C   0  0  0  0  0  0  0  0  0  0  0  0
    6.3871   22.4388   51.2188 N   0  0  0  0  0  0  0  0  0  0  0  0
    7.8079   22.6279   51.3450 C   0  0  0  0  0  0  0  0  0  0  0  0
    8.5277   22.5534   50.0148 C   0  0  2  0  0  0  0  0  0  0  0  0
    9.2191   21.4060   49.5594 C   0  0  1  0  0  0  0  0  0  0  0  0
    9.1935   20.0872   50.2878 C   0  0  0  0  0  0  0  0  0  0  0  0
    8.1489   19.1991   49.7485 N   0  3  0  0  0  0  0  0  0  0  0  0
    9.9330   21.4728   48.3415 C   0  0  0  0  0  0  0  0  0  0  0  0
    9.9567   22.6432   47.5823 C   0  0  0  0  0  0  0  0  0  0  0  0
    9.2482   23.7560   48.0146 C   0  0  2  0  0  0  0  0  0  0  0  0
    9.2653   25.1977   47.0804 Cl  0  0  0  0  0  0  0  0  0  0  0  0
    8.5356   23.7132   49.2132 C   0  0  0  0  0  0  0  0  0  0  0  0
    1.2917   18.8174   49.1444 H   0  0  0  0  0  0  0  0  0  0  0  0
    1.1114   17.1164   47.1315 H   0  0  0  0  0  0  0  0  0  0  0  0
    5.0819   18.4565   47.3796 H   0  0  0  0  0  0  0  0  0  0  0  0
    2.8879   16.1717   45.2635 H   0  0  0  0  0  0  0  0  0  0  0  0
    4.4855   15.9970   46.0124 H   0  0  0  0  0  0  0  0  0  0  0  0
    4.1421   17.3862   44.9594 H   0  0  0  0  0  0  0  0  0  0  0  0
    3.8910   22.2439   51.0173 H   0  0  0  0  0  0  0  0  0  0  0  0
    3.5479   22.1413   53.4166 H   0  0  0  0  0  0  0  0  0  0  0  0
    4.2096   20.5053   53.5262 H   0  0  0  0  0  0  0  0  0  0  0  0
    1.5326   21.3598   52.3973 H   0  0  0  0  0  0  0  0  0  0  0  0
    1.8629   20.0108   53.4914 H   0  0  0  0  0  0  0  0  0  0  0  0
    2.6618   18.6416   51.6886 H   0  0  0  0  0  0  0  0  0  0  0  0
    1.5869   19.7603   50.7954 H   0  0  0  0  0  0  0  0  0  0  0  0
    5.8417   23.1811   50.7969 H   0  0  0  0  0  0  0  0  0  0  0  0
    8.2174   21.9167   52.0646 H   0  0  0  0  0  0  0  0  0  0  0  0
    7.9605   23.6165   51.7891 H   0  0  0  0  0  0  0  0  0  0  0  0
    9.0204   20.1795   51.3605 H   0  0  0  0  0  0  0  0  0  0  0  0
   10.1520   19.5670   50.1722 H   0  0  0  0  0  0  0  0  0  0  0  0
    8.0993   18.3207   50.2730 H   0  0  0  0  0  0  0  0  0  0  0  0
    7.2162   19.6463   49.8461 H   0  0  0  0  0  0  0  0  0  0  0  0
   10.4974   20.6166   47.9732 H   0  0  0  0  0  0  0  0  0  0  0  0
   10.5301   22.6831   46.6582 H   0  0  0  0  0  0  0  0  0  0  0  0
    7.9987   24.6046   49.5352 H   0  0  0  0  0  0  0  0  0  0  0  0
    8.2912   19.0011   48.7545 H   0  0  0  0  0  0  0  0  0  0  0  0
  1  3  2  0  0  0  0
  1  9  1  0  0  0  0
  2  1  1  6  0  0  0
  2  4  1  0  0  0  0
  2  7  1  0  0  0  0
  4  5  1  0  0  0  0
  4 27  1  0  0  0  0
  5  6  1  0  0  0  0
  5 28  1  0  0  0  0
  6  7  1  0  0  0  0
  6  8  1  6  0  0  0
  7 29  1  0  0  0  0
  8 30  1  0  0  0  0
  8 31  1  0  0  0  0
  8 32  1  0  0  0  0
  9 10  1  0  0  0  0
  9 15  1  0  0  0  0
 10 11  1  0  0  0  0
 10 13  1  0  0  0  0
 10 33  1  6  0  0  0
 11 12  2  0  0  0  0
 11 16  1  0  0  0  0
 13 14  1  0  0  0  0
 13 34  1  0  0  0  0
 13 35  1  0  0  0  0
 14 15  1  0  0  0  0
 14 36  1  0  0  0  0
 14 37  1  0  0  0  0
 15 38  1  0  0  0  0
 15 39  1  0  0  0  0
 16 17  1  0  0  0  0
 16 40  1  0  0  0  0
 17 41  1  0  0  0  0
 17 42  1  0  0  0  0
 18 17  1  1  0  0  0
 18 19  1  0  0  0  0
 18 26  1  0  0  0  0
 19 20  1  6  0  0  0
 19 22  1  0  0  0  0
 20 21  1  0  0  0  0
 20 43  1  0  0  0  0
 20 44  1  0  0  0  0
 21 45  1  0  0  0  0
 21 46  1  0  0  0  0
 21 50  1  0  0  0  0
 22 23  1  0  0  0  0
 22 47  1  0  0  0  0
 23 24  1  0  0  0  0
 23 48  1  0  0  0  0
 24 25  1  1  0  0  0
 24 26  1  0  0  0  0
 26 49  1  0  0  0  0
M  CHG  2   7   1  21   1
M  END
$$$$
