467
 OpenBabel04111922483D

 44 46  0  0  0  0  0  0  0  0999 V2000
   12.2826   17.3630    4.4520 F   0  0  0  0  0  0  0  0  0  0  0  0
   12.2489   16.1052    3.9909 C   0  0  0  0  0  0  0  0  0  0  0  0
   11.3127   15.7240    3.0635 C   0  0  0  0  0  0  0  0  0  0  0  0
   11.2331   14.4768    2.5652 N   0  0  0  0  0  0  0  0  0  0  0  0
   12.1462   13.5974    3.0303 C   0  0  0  0  0  0  0  0  0  0  0  0
   13.1075   13.8893    3.9384 N   0  0  0  0  0  0  0  0  0  0  0  0
   13.1507   15.1428    4.4309 C   0  0  0  0  0  0  0  0  0  0  0  0
   14.1859   15.5492    5.2753 N   0  0  0  0  0  0  0  0  0  0  0  0
   15.2062   14.6301    5.8340 C   0  0  0  0  0  0  0  0  0  0  0  0
   16.1777   15.4936    6.6645 C   0  0  0  0  0  0  0  0  0  0  0  0
   16.0419   14.0070    4.6846 C   0  0  0  0  0  0  0  0  0  0  0  0
   16.3379   14.9045    3.6746 N   0  0  0  0  0  0  0  0  0  0  0  0
   16.9344   14.4768    2.4143 C   0  0  0  0  0  0  0  0  0  0  0  0
   15.9832   14.5218    1.2186 C   0  0  0  0  0  0  0  0  0  0  0  0
   15.5351   15.7863    1.0207 F   0  0  0  0  0  0  0  0  0  0  0  0
   14.9070   13.7276    1.3817 F   0  0  0  0  0  0  0  0  0  0  0  0
   16.6149   14.1362    0.0870 F   0  0  0  0  0  0  0  0  0  0  0  0
   16.4905   12.8652    4.7028 O   0  0  0  0  0  0  0  0  0  0  0  0
   14.6259   13.5578    6.7653 C   0  0  0  0  0  0  0  0  0  0  0  0
   12.0681   12.2171    2.5383 C   0  0  0  0  0  0  0  0  0  0  0  0
   12.9220   11.0918    2.7981 C   0  0  0  0  0  0  0  0  0  0  0  0
   14.1000   10.8595    3.5358 C   0  0  0  0  0  0  0  0  0  0  0  0
   14.6441    9.5849    3.5335 C   0  0  0  0  0  0  0  0  0  0  0  0
   16.0936    9.2526    4.3954 Cl  0  0  0  0  0  0  0  0  0  0  0  0
   14.0034    8.5794    2.8174 C   0  0  0  0  0  0  0  0  0  0  0  0
   12.8631    8.7308    2.0971 N   0  0  0  0  0  0  0  0  0  0  0  0
   12.3937    9.9981    2.1205 C   0  0  0  0  0  0  0  0  0  0  0  0
   11.2716   10.4164    1.4600 N   0  3  0  0  0  0  0  0  0  0  0  0
   11.0703   11.7535    1.6903 C   0  0  0  0  0  0  0  0  0  0  0  0
   10.5778   16.4349    2.7013 H   0  0  0  0  0  0  0  0  0  0  0  0
   13.9751   16.3797    5.8223 H   0  0  0  0  0  0  0  0  0  0  0  0
   17.0004   14.8909    7.0663 H   0  0  0  0  0  0  0  0  0  0  0  0
   15.6646   15.9704    7.5078 H   0  0  0  0  0  0  0  0  0  0  0  0
   16.6218   16.2930    6.0600 H   0  0  0  0  0  0  0  0  0  0  0  0
   15.8264   15.7827    3.7034 H   0  0  0  0  0  0  0  0  0  0  0  0
   17.3363   13.4643    2.5167 H   0  0  0  0  0  0  0  0  0  0  0  0
   17.7724   15.1561    2.2327 H   0  0  0  0  0  0  0  0  0  0  0  0
   15.4188   12.9190    7.1639 H   0  0  0  0  0  0  0  0  0  0  0  0
   13.9194   12.8960    6.2553 H   0  0  0  0  0  0  0  0  0  0  0  0
   14.1072   14.0036    7.6214 H   0  0  0  0  0  0  0  0  0  0  0  0
   14.5708   11.6672    4.0804 H   0  0  0  0  0  0  0  0  0  0  0  0
   14.4094    7.5724    2.8176 H   0  0  0  0  0  0  0  0  0  0  0  0
   10.6995    9.8108    0.8916 H   0  0  0  0  0  0  0  0  0  0  0  0
   10.2276   12.2645    1.2365 H   0  0  0  0  0  0  0  0  0  0  0  0
  1  2  1  0  0  0  0
  2  3  2  0  0  0  0
  2  7  1  0  0  0  0
  3  4  1  0  0  0  0
  3 30  1  0  0  0  0
  4  5  2  0  0  0  0
  5  6  1  0  0  0  0
  5 20  1  0  0  0  0
  6  7  2  0  0  0  0
  7  8  1  0  0  0  0
  8  9  1  0  0  0  0
  8 31  1  0  0  0  0
  9 10  1  0  0  0  0
  9 11  1  0  0  0  0
  9 19  1  0  0  0  0
 10 32  1  0  0  0  0
 10 33  1  0  0  0  0
 10 34  1  0  0  0  0
 11 12  1  0  0  0  0
 11 18  2  0  0  0  0
 12 13  1  0  0  0  0
 12 35  1  0  0  0  0
 13 14  1  0  0  0  0
 13 36  1  0  0  0  0
 13 37  1  0  0  0  0
 14 15  1  0  0  0  0
 14 16  1  0  0  0  0
 14 17  1  0  0  0  0
 19 38  1  0  0  0  0
 19 39  1  0  0  0  0
 19 40  1  0  0  0  0
 20 21  1  0  0  0  0
 20 29  2  0  0  0  0
 21 22  2  0  0  0  0
 21 27  1  0  0  0  0
 22 23  1  0  0  0  0
 22 41  1  0  0  0  0
 23 24  1  0  0  0  0
 23 25  2  0  0  0  0
 25 26  1  0  0  0  0
 25 42  1  0  0  0  0
 26 27  1  0  0  0  0
 27 28  2  0  0  0  0
 28 29  1  0  0  0  0
 28 43  1  0  0  0  0
 29 44  1  0  0  0  0
M  CHG  1  28   1
M  END
$$$$
