49N
 OpenBabel04111922383D

 29 30  0  0  0  0  0  0  0  0999 V2000
  -16.8443  -11.4090   72.4012 C   0  0  0  0  0  0  0  0  0  0  0  0
  -17.1587  -12.3519   71.4449 C   0  0  0  0  0  0  0  0  0  0  0  0
  -16.7552  -10.0941   71.9777 C   0  0  0  0  0  0  0  0  0  0  0  0
  -17.3659  -11.9471   70.1141 C   0  0  0  0  0  0  0  0  0  0  0  0
  -17.2842  -10.6053   69.7707 C   0  0  0  0  0  0  0  0  0  0  0  0
  -18.8498  -10.3640   66.4685 C   0  0  0  0  0  0  0  0  0  0  0  0
  -16.7669   -8.8960   66.5068 C   0  0  0  0  0  0  0  0  0  0  0  0
  -18.8812  -10.2607   67.9993 C   0  0  0  0  0  0  0  0  0  0  0  0
  -16.8473   -8.9438   68.0464 C   0  0  0  0  0  0  0  0  0  0  0  0
  -17.6800  -13.0355   69.1266 C   0  0  0  0  0  0  0  0  0  0  0  0
  -16.9576   -9.6833   70.7014 N   0  0  0  0  0  0  0  0  0  0  0  0
  -18.1049   -9.1946   65.8614 N   0  3  0  0  0  0  0  0  0  0  0  0
  -17.4874  -10.2007   68.4525 N   0  0  0  0  0  0  0  0  0  0  0  0
  -17.2109  -14.2516   69.5177 F   0  0  0  0  0  0  0  0  0  0  0  0
  -19.0229  -13.2053   68.9516 F   0  0  0  0  0  0  0  0  0  0  0  0
  -17.1785  -12.8387   67.8732 F   0  0  0  0  0  0  0  0  0  0  0  0
  -16.6718  -11.6878   73.4305 H   0  0  0  0  0  0  0  0  0  0  0  0
  -17.2178  -13.4063   71.7213 H   0  0  0  0  0  0  0  0  0  0  0  0
  -16.5048   -9.3250   72.7047 H   0  0  0  0  0  0  0  0  0  0  0  0
  -19.8580  -10.3474   66.0523 H   0  0  0  0  0  0  0  0  0  0  0  0
  -18.3174  -11.2663   66.1535 H   0  0  0  0  0  0  0  0  0  0  0  0
  -16.0695   -9.6470   66.1222 H   0  0  0  0  0  0  0  0  0  0  0  0
  -16.4703   -7.9016   66.1609 H   0  0  0  0  0  0  0  0  0  0  0  0
  -19.4195  -11.1203   68.3963 H   0  0  0  0  0  0  0  0  0  0  0  0
  -19.4253   -9.3590   68.3115 H   0  0  0  0  0  0  0  0  0  0  0  0
  -17.4408   -8.0929   68.4012 H   0  0  0  0  0  0  0  0  0  0  0  0
  -15.8289   -8.8752   68.4379 H   0  0  0  0  0  0  0  0  0  0  0  0
  -17.9495   -9.3862   64.8669 H   0  0  0  0  0  0  0  0  0  0  0  0
  -18.6914   -8.3576   65.9148 H   0  0  0  0  0  0  0  0  0  0  0  0
  1  2  2  0  0  0  0
  1  3  1  0  0  0  0
  1 17  1  0  0  0  0
  2  4  1  0  0  0  0
  2 18  1  0  0  0  0
  3 11  2  0  0  0  0
  3 19  1  0  0  0  0
  4  5  2  0  0  0  0
  4 10  1  0  0  0  0
  5 11  1  0  0  0  0
  5 13  1  0  0  0  0
  6  8  1  0  0  0  0
  6 12  1  0  0  0  0
  6 20  1  0  0  0  0
  6 21  1  0  0  0  0
  7  9  1  0  0  0  0
  7 12  1  0  0  0  0
  7 22  1  0  0  0  0
  7 23  1  0  0  0  0
  8 13  1  0  0  0  0
  8 24  1  0  0  0  0
  8 25  1  0  0  0  0
  9 13  1  0  0  0  0
  9 26  1  0  0  0  0
  9 27  1  0  0  0  0
 10 14  1  0  0  0  0
 10 15  1  0  0  0  0
 10 16  1  0  0  0  0
 12 28  1  0  0  0  0
 12 29  1  0  0  0  0
M  CHG  1  12   1
M  END
$$$$
