4A1
 OpenBabel04111920013D

 28 28  0  0  0  0  0  0  0  0999 V2000
   80.5041    4.4855   33.5059 C   0  0  0  0  0  0  0  0  0  0  0  0
   81.2436    5.2791   34.5618 C   0  0  0  0  0  0  0  0  0  0  0  0
   78.9367    5.8159   27.9887 C   0  0  0  0  0  0  0  0  0  0  0  0
   79.2937    4.8410   30.1941 N   0  0  0  0  0  0  0  0  0  0  0  0
   78.6600    3.4564   28.1161 O   0  0  0  0  0  0  0  0  0  0  0  0
   78.4882    4.5275   31.6234 S   0  0  0  0  0  0  0  0  0  0  0  0
   78.9931    5.9797   29.3792 C   0  0  0  0  0  0  0  0  0  0  0  0
   79.2679    4.3628   26.1379 O   0  0  0  0  0  0  0  0  0  0  0  0
   79.0099    7.2719   29.9209 C   0  0  0  0  0  0  0  0  0  0  0  0
   77.1941    5.1697   31.6674 O   0  0  0  0  0  0  0  0  0  0  0  0
   78.9879    8.4012   29.0910 C   0  0  0  0  0  0  0  0  0  0  0  0
   78.6341    3.1066   31.9011 O   0  0  0  0  0  0  0  0  0  0  0  0
   78.9482    8.2426   27.7174 C   0  0  0  0  0  0  0  0  0  0  0  0
   78.9132    6.9555   27.1658 C   0  0  0  0  0  0  0  0  0  0  0  0
   78.9400    4.4421   27.3563 C   0  0  0  0  0  0  0  0  0  0  0  0
   79.5745    5.4000   32.7377 C   0  0  0  0  0  0  0  0  0  0  0  0
   79.9381    3.6809   33.9877 H   0  0  0  0  0  0  0  0  0  0  0  0
   81.2171    4.0177   32.8161 H   0  0  0  0  0  0  0  0  0  0  0  0
   81.9126    4.6269   35.1280 H   0  0  0  0  0  0  0  0  0  0  0  0
   80.5341    5.7363   35.2596 H   0  0  0  0  0  0  0  0  0  0  0  0
   81.8370    6.0785   34.1054 H   0  0  0  0  0  0  0  0  0  0  0  0
   79.3315    3.9631   29.6252 H   0  0  0  0  0  0  0  0  0  0  0  0
   79.0669    7.4420   30.9828 H   0  0  0  0  0  0  0  0  0  0  0  0
   79.0372    9.3975   29.5279 H   0  0  0  0  0  0  0  0  0  0  0  0
   78.9512    9.1175   27.0523 H   0  0  0  0  0  0  0  0  0  0  0  0
   78.9001    6.8270   26.0891 H   0  0  0  0  0  0  0  0  0  0  0  0
   80.1786    6.1064   32.1614 H   0  0  0  0  0  0  0  0  0  0  0  0
   78.9368    5.9905   33.4032 H   0  0  0  0  0  0  0  0  0  0  0  0
  1  2  1  0  0  0  0
  1 16  1  0  0  0  0
  1 17  1  0  0  0  0
  1 18  1  0  0  0  0
  2 19  1  0  0  0  0
  2 20  1  0  0  0  0
  2 21  1  0  0  0  0
  3  7  2  0  0  0  0
  3 14  1  0  0  0  0
  3 15  1  0  0  0  0
  4  6  1  0  0  0  0
  4  7  1  0  0  0  0
  4 22  1  0  0  0  0
  5 15  2  0  0  0  0
  6 10  2  0  0  0  0
  6 12  2  0  0  0  0
  6 16  1  0  0  0  0
  7  9  1  0  0  0  0
  8 15  1  0  0  0  0
  9 11  2  0  0  0  0
  9 23  1  0  0  0  0
 11 13  1  0  0  0  0
 11 24  1  0  0  0  0
 13 14  2  0  0  0  0
 13 25  1  0  0  0  0
 14 26  1  0  0  0  0
 16 27  1  0  0  0  0
 16 28  1  0  0  0  0
M  END
$$$$
