4B7
 OpenBabel04111922403D

 68 72  0  0  0  0  0  0  0  0999 V2000
   62.1527   60.7935  109.9261 O   0  0  0  0  0  0  0  0  0  0  0  0
   62.8913   61.2874  109.0566 C   0  0  0  0  0  0  0  0  0  0  0  0
   62.4087   61.8368  107.8865 N   0  0  0  0  0  0  0  0  0  0  0  0
   61.0620   62.0103  107.5391 C   0  0  0  0  0  0  0  0  0  0  0  0
   60.7889   62.2726  106.1893 C   0  0  0  0  0  0  0  0  0  0  0  0
   59.4905   62.5606  105.7627 C   0  0  0  0  0  0  0  0  0  0  0  0
   58.4648   62.6080  106.7002 C   0  0  0  0  0  0  0  0  0  0  0  0
   57.2043   62.9662  106.2903 O   0  0  0  0  0  0  0  0  0  0  0  0
   56.7501   64.2230  106.6548 C   0  0  0  0  0  0  0  0  0  0  0  0
   57.5646   65.2821  107.0652 C   0  0  0  0  0  0  0  0  0  0  0  0
   57.0025   66.5266  107.3745 C   0  0  0  0  0  0  0  0  0  0  0  0
   55.6232   66.7108  107.2612 C   0  0  0  0  0  0  0  0  0  0  0  0
   54.8069   65.6590  106.8426 C   0  0  0  0  0  0  0  0  0  0  0  0
   55.3755   64.4154  106.5404 C   0  0  0  0  0  0  0  0  0  0  0  0
   58.7000   62.2719  108.0303 C   0  0  0  0  0  0  0  0  0  0  0  0
   60.0004   61.9839  108.4553 C   0  0  0  0  0  0  0  0  0  0  0  0
   64.3115   61.2724  109.2055 C   0  0  0  0  0  0  0  0  0  0  0  0
   65.2681   62.2036  108.8675 C   0  0  0  0  0  0  0  0  0  0  0  0
   66.5583   61.8939  109.2828 N   0  0  0  0  0  0  0  0  0  0  0  0
   66.5853   60.7210  109.9110 C   0  0  0  0  0  0  0  0  0  0  0  0
   65.0372   59.9708  110.0028 S   0  0  0  0  0  0  0  0  0  0  0  0
   67.7362   60.1625  110.3963 N   0  0  0  0  0  0  0  0  0  0  0  0
   67.8808   58.9778  111.1734 C   0  0  0  0  0  0  0  0  0  0  0  0
   69.1546   58.5428  111.5627 C   0  0  0  0  0  0  0  0  0  0  0  0
   69.2856   57.4032  112.3708 C   0  0  0  0  0  0  0  0  0  0  0  0
   68.1653   56.7667  112.7861 N   0  0  0  0  0  0  0  0  0  0  0  0
   66.9626   57.2285  112.3608 C   0  0  0  0  0  0  0  0  0  0  0  0
   65.6937   56.5698  112.8681 C   0  0  0  0  0  0  0  0  0  0  0  0
   66.8029   58.2853  111.5593 N   0  0  0  0  0  0  0  0  0  0  0  0
   70.5276   56.8817  112.7463 N   0  0  0  0  0  0  0  0  0  0  0  0
   70.6698   55.5330  113.3438 C   0  0  0  0  0  0  0  0  0  0  0  0
   71.1120   55.6573  114.8161 C   0  0  0  0  0  0  0  0  0  0  0  0
   72.4445   56.4182  114.8876 N   0  3  0  0  0  0  0  0  0  0  0  0
   72.2838   57.7977  114.2426 C   0  0  0  0  0  0  0  0  0  0  0  0
   71.7940   57.6295  112.7819 C   0  0  0  0  0  0  0  0  0  0  0  0
   73.0922   56.4360  116.2559 C   0  0  0  0  0  0  0  0  0  0  0  0
   72.2849   57.2146  117.2879 C   0  0  0  0  0  0  0  0  0  0  0  0
   72.6258   58.5915  117.2065 O   0  0  0  0  0  0  0  0  0  0  0  0
   63.0913   62.0550  107.1741 H   0  0  0  0  0  0  0  0  0  0  0  0
   61.5835   62.2350  105.4477 H   0  0  0  0  0  0  0  0  0  0  0  0
   59.2890   62.7692  104.7157 H   0  0  0  0  0  0  0  0  0  0  0  0
   58.6467   65.1686  107.1470 H   0  0  0  0  0  0  0  0  0  0  0  0
   57.6327   67.3502  107.6987 H   0  0  0  0  0  0  0  0  0  0  0  0
   55.1842   67.6767  107.4984 H   0  0  0  0  0  0  0  0  0  0  0  0
   53.7327   65.8106  106.7487 H   0  0  0  0  0  0  0  0  0  0  0  0
   54.7287   63.5955  106.2122 H   0  0  0  0  0  0  0  0  0  0  0  0
   57.8760   62.2593  108.7407 H   0  0  0  0  0  0  0  0  0  0  0  0
   60.1557   61.7713  109.5093 H   0  0  0  0  0  0  0  0  0  0  0  0
   65.0498   63.1327  108.3525 H   0  0  0  0  0  0  0  0  0  0  0  0
   68.5680   60.7003  110.2309 H   0  0  0  0  0  0  0  0  0  0  0  0
   70.0186   59.0921  111.2137 H   0  0  0  0  0  0  0  0  0  0  0  0
   65.9246   55.7252  113.5243 H   0  0  0  0  0  0  0  0  0  0  0  0
   65.0767   56.2006  112.0402 H   0  0  0  0  0  0  0  0  0  0  0  0
   65.0886   57.2851  113.4403 H   0  0  0  0  0  0  0  0  0  0  0  0
   71.4667   54.9970  112.8014 H   0  0  0  0  0  0  0  0  0  0  0  0
   69.7671   54.9247  113.2820 H   0  0  0  0  0  0  0  0  0  0  0  0
   71.2732   54.6786  115.2811 H   0  0  0  0  0  0  0  0  0  0  0  0
   70.3725   56.2338  115.3753 H   0  0  0  0  0  0  0  0  0  0  0  0
   73.2600   58.2929  114.2763 H   0  0  0  0  0  0  0  0  0  0  0  0
   71.5441   58.3514  114.8256 H   0  0  0  0  0  0  0  0  0  0  0  0
   71.7220   58.6095  112.3200 H   0  0  0  0  0  0  0  0  0  0  0  0
   72.5504   57.0460  112.2355 H   0  0  0  0  0  0  0  0  0  0  0  0
   74.0872   56.8790  116.1263 H   0  0  0  0  0  0  0  0  0  0  0  0
   73.1919   55.3907  116.5643 H   0  0  0  0  0  0  0  0  0  0  0  0
   72.5320   56.8401  118.2868 H   0  0  0  0  0  0  0  0  0  0  0  0
   71.2135   57.1091  117.1197 H   0  0  0  0  0  0  0  0  0  0  0  0
   72.1291   59.0609  117.9044 H   0  0  0  0  0  0  0  0  0  0  0  0
   73.0969   55.9025  114.2835 H   0  0  0  0  0  0  0  0  0  0  0  0
  1  2  2  0  0  0  0
  2  3  1  0  0  0  0
  2 17  1  0  0  0  0
  3  4  1  0  0  0  0
  3 39  1  0  0  0  0
  4  5  2  0  0  0  0
  4 16  1  0  0  0  0
  5  6  1  0  0  0  0
  5 40  1  0  0  0  0
  6  7  2  0  0  0  0
  6 41  1  0  0  0  0
  7  8  1  0  0  0  0
  7 15  1  0  0  0  0
  8  9  1  0  0  0  0
  9 10  2  0  0  0  0
  9 14  1  0  0  0  0
 10 11  1  0  0  0  0
 10 42  1  0  0  0  0
 11 12  2  0  0  0  0
 11 43  1  0  0  0  0
 12 13  1  0  0  0  0
 12 44  1  0  0  0  0
 13 14  2  0  0  0  0
 13 45  1  0  0  0  0
 14 46  1  0  0  0  0
 15 16  2  0  0  0  0
 15 47  1  0  0  0  0
 16 48  1  0  0  0  0
 17 18  2  0  0  0  0
 17 21  1  0  0  0  0
 18 19  1  0  0  0  0
 18 49  1  0  0  0  0
 19 20  2  0  0  0  0
 20 21  1  0  0  0  0
 20 22  1  0  0  0  0
 22 23  1  0  0  0  0
 22 50  1  0  0  0  0
 23 24  2  0  0  0  0
 23 29  1  0  0  0  0
 24 25  1  0  0  0  0
 24 51  1  0  0  0  0
 25 26  2  0  0  0  0
 25 30  1  0  0  0  0
 26 27  1  0  0  0  0
 27 28  1  0  0  0  0
 27 29  2  0  0  0  0
 28 52  1  0  0  0  0
 28 53  1  0  0  0  0
 28 54  1  0  0  0  0
 30 31  1  0  0  0  0
 30 35  1  0  0  0  0
 31 32  1  0  0  0  0
 31 55  1  0  0  0  0
 31 56  1  0  0  0  0
 32 33  1  0  0  0  0
 32 57  1  0  0  0  0
 32 58  1  0  0  0  0
 33 34  1  0  0  0  0
 33 36  1  0  0  0  0
 33 68  1  0  0  0  0
 34 35  1  0  0  0  0
 34 59  1  0  0  0  0
 34 60  1  0  0  0  0
 35 61  1  0  0  0  0
 35 62  1  0  0  0  0
 36 37  1  0  0  0  0
 36 63  1  0  0  0  0
 36 64  1  0  0  0  0
 37 38  1  0  0  0  0
 37 65  1  0  0  0  0
 37 66  1  0  0  0  0
 38 67  1  0  0  0  0
M  CHG  1  33   1
M  END
$$$$
