4BI
 OpenBabel04111920423D

 48 50  0  0  1  0  0  0  0  0999 V2000
   18.7068   64.4146    8.4502 N   0  0  0  0  0  0  0  0  0  0  0  0
   18.6426   64.5829    9.7706 C   0  0  0  0  0  0  0  0  0  0  0  0
   19.6872   64.2168   10.6432 C   0  0  0  0  0  0  0  0  0  0  0  0
   20.8649   63.6381   10.0493 C   0  0  0  0  0  0  0  0  0  0  0  0
   20.9416   63.4644    8.6309 C   0  0  0  0  0  0  0  0  0  0  0  0
   19.8138   63.8495    7.8864 C   0  0  0  0  0  0  0  0  0  0  0  0
   19.4867   64.4522   12.0338 C   0  0  0  0  0  0  0  0  0  0  0  0
   18.3149   65.0285   12.5324 C   0  0  0  0  0  0  0  0  0  0  0  0
   17.3062   65.3783   11.6572 C   0  0  0  0  0  0  0  0  0  0  0  0
   17.4787   65.1501   10.2925 C   0  0  0  0  0  0  0  0  0  0  0  0
   22.1832   62.8515    7.9659 C   0  0  1  0  0  0  0  0  0  0  0  0
   21.9506   61.3439    7.5467 C   0  0  0  0  0  0  0  0  0  0  0  0
   21.1743   60.6700    8.2896 O   0  0  0  0  0  0  0  0  0  0  0  0
   22.6297   60.9273    6.5577 O   0  0  0  0  0  0  0  0  0  0  0  0
   22.6568   63.6232    6.8287 O   0  0  0  0  0  0  0  0  0  0  0  0
   23.6527   64.6337    6.9898 C   0  0  0  0  0  0  0  0  0  0  0  0
   19.6831   63.7086    6.3973 C   0  0  0  0  0  0  0  0  0  0  0  0
   21.9931   63.2272   10.9304 C   0  0  0  0  0  0  0  0  0  0  0  0
   22.9651   64.1603   11.3338 C   0  0  0  0  0  0  0  0  0  0  0  0
   24.0467   63.7769   12.1376 C   0  0  0  0  0  0  0  0  0  0  0  0
   24.1612   62.4539   12.5593 C   0  0  0  0  0  0  0  0  0  0  0  0
   23.2065   61.5147   12.1824 C   0  0  0  0  0  0  0  0  0  0  0  0
   22.1307   61.9017   11.3706 C   0  0  0  0  0  0  0  0  0  0  0  0
   25.4939   61.9841   13.5448 Cl  0  0  0  0  0  0  0  0  0  0  0  0
   22.9778   65.9359    7.4196 C   0  0  0  0  0  0  0  0  0  0  0  0
   24.8129   64.2925    7.9341 C   0  0  0  0  0  0  0  0  0  0  0  0
   24.2551   64.8473    5.5861 C   0  0  0  0  0  0  0  0  0  0  0  0
   20.2616   64.1777   12.7467 H   0  0  0  0  0  0  0  0  0  0  0  0
   18.1963   65.1967   13.5989 H   0  0  0  0  0  0  0  0  0  0  0  0
   16.3790   65.8229   12.0188 H   0  0  0  0  0  0  0  0  0  0  0  0
   16.6837   65.4170    9.6017 H   0  0  0  0  0  0  0  0  0  0  0  0
   22.9988   62.7577    8.6807 H   0  0  0  0  0  0  0  0  0  0  0  0
   20.5298   63.2381    5.9017 H   0  0  0  0  0  0  0  0  0  0  0  0
   19.5404   64.7014    5.9551 H   0  0  0  0  0  0  0  0  0  0  0  0
   18.7976   63.1064    6.1638 H   0  0  0  0  0  0  0  0  0  0  0  0
   22.8982   65.1918   10.9917 H   0  0  0  0  0  0  0  0  0  0  0  0
   24.7996   64.5069   12.4130 H   0  0  0  0  0  0  0  0  0  0  0  0
   23.2976   60.4781   12.4936 H   0  0  0  0  0  0  0  0  0  0  0  0
   21.4078   61.1465   11.0483 H   0  0  0  0  0  0  0  0  0  0  0  0
   23.7021   66.7531    7.5045 H   0  0  0  0  0  0  0  0  0  0  0  0
   22.4756   65.8261    8.3843 H   0  0  0  0  0  0  0  0  0  0  0  0
   22.2115   66.2317    6.6934 H   0  0  0  0  0  0  0  0  0  0  0  0
   25.5301   65.1205    7.9860 H   0  0  0  0  0  0  0  0  0  0  0  0
   25.3489   63.3974    7.6008 H   0  0  0  0  0  0  0  0  0  0  0  0
   24.4796   64.1098    8.9560 H   0  0  0  0  0  0  0  0  0  0  0  0
   24.9933   65.6577    5.5807 H   0  0  0  0  0  0  0  0  0  0  0  0
   23.4780   65.0845    4.8506 H   0  0  0  0  0  0  0  0  0  0  0  0
   24.7500   63.9357    5.2287 H   0  0  0  0  0  0  0  0  0  0  0  0
  1  2  2  0  0  0  0
  1  6  1  0  0  0  0
  2  3  1  0  0  0  0
  2 10  1  0  0  0  0
  3  4  2  0  0  0  0
  3  7  1  0  0  0  0
  4  5  1  0  0  0  0
  4 18  1  0  0  0  0
  5  6  2  0  0  0  0
  5 11  1  0  0  0  0
  6 17  1  0  0  0  0
  7  8  2  0  0  0  0
  7 28  1  0  0  0  0
  8  9  1  0  0  0  0
  8 29  1  0  0  0  0
  9 10  2  0  0  0  0
  9 30  1  0  0  0  0
 10 31  1  0  0  0  0
 11 12  1  0  0  0  0
 11 15  1  0  0  0  0
 11 32  1  1  0  0  0
 12 13  2  0  0  0  0
 12 14  1  0  0  0  0
 15 16  1  0  0  0  0
 16 25  1  0  0  0  0
 16 26  1  0  0  0  0
 16 27  1  0  0  0  0
 17 33  1  0  0  0  0
 17 34  1  0  0  0  0
 17 35  1  0  0  0  0
 18 19  2  0  0  0  0
 18 23  1  0  0  0  0
 19 20  1  0  0  0  0
 19 36  1  0  0  0  0
 20 21  2  0  0  0  0
 20 37  1  0  0  0  0
 21 22  1  0  0  0  0
 21 24  1  0  0  0  0
 22 23  2  0  0  0  0
 22 38  1  0  0  0  0
 23 39  1  0  0  0  0
 25 40  1  0  0  0  0
 25 41  1  0  0  0  0
 25 42  1  0  0  0  0
 26 43  1  0  0  0  0
 26 44  1  0  0  0  0
 26 45  1  0  0  0  0
 27 46  1  0  0  0  0
 27 47  1  0  0  0  0
 27 48  1  0  0  0  0
M  END
$$$$
