4CC
 OpenBabel04111922423D

 60 63  0  0  0  0  0  0  0  0999 V2000
   -4.5639   20.9755    9.6474 N   0  3  0  0  0  0  0  0  0  0  0  0
   -3.9387   23.1810   10.6748 C   0  0  0  0  0  0  0  0  0  0  0  0
   -1.3091   22.0925   10.4552 C   0  0  0  0  0  0  0  0  0  0  0  0
   -3.8252   19.8984    9.2109 C   0  0  0  0  0  0  0  0  0  0  0  0
   -5.9985   21.1314    9.6610 C   0  0  0  0  0  0  0  0  0  0  0  0
   -1.5394   23.3544   11.0363 C   0  0  0  0  0  0  0  0  0  0  0  0
    0.0546   22.7524   13.3949 C   0  0  0  0  0  0  0  0  0  0  0  0
   -5.0296   17.4735    5.9605 C   0  0  0  0  0  0  0  0  0  0  0  0
    1.0242   21.8286   13.0235 C   0  0  0  0  0  0  0  0  0  0  0  0
   -3.0053   16.0208    4.7524 C   0  0  0  0  0  0  0  0  0  0  0  0
    1.1024   20.6309   13.7162 C   0  0  0  0  0  0  0  0  0  0  0  0
    0.0191   26.3342   15.7218 C   0  0  0  0  0  0  0  0  0  0  0  0
   -3.6928   21.9184   10.1321 C   0  0  0  0  0  0  0  0  0  0  0  0
   -2.4317   21.3612   10.0050 C   0  0  0  0  0  0  0  0  0  0  0  0
   -2.5294   20.1091    9.4049 N   0  0  0  0  0  0  0  0  0  0  0  0
   -2.8243   23.8859   11.1192 C   0  0  0  0  0  0  0  0  0  0  0  0
   -4.4985   18.7048    8.6109 C   0  0  0  0  0  0  0  0  0  0  0  0
   -0.4988   24.2850   11.5563 C   0  0  0  0  0  0  0  0  0  0  0  0
   -3.6541   17.7088    7.9692 N   0  0  0  0  0  0  0  0  0  0  0  0
    0.1322   24.0060   12.7604 N   0  0  0  0  0  0  0  0  0  0  0  0
   -0.3809   25.3488   10.9458 O   0  0  0  0  0  0  0  0  0  0  0  0
   -3.8399   17.2749    6.6725 C   0  0  0  0  0  0  0  0  0  0  0  0
    0.6348   25.1076   13.6101 C   0  0  0  0  0  0  0  0  0  0  0  0
   -2.8351   16.5304    6.0461 C   0  0  0  0  0  0  0  0  0  0  0  0
   -0.8143   22.5416   14.3943 N   0  0  0  0  0  0  0  0  0  0  0  0
   -0.4821   25.7698   14.4015 C   0  0  0  0  0  0  0  0  0  0  0  0
   -5.2066   16.9845    4.6661 C   0  0  0  0  0  0  0  0  0  0  0  0
   -0.6976   21.3884   15.0789 C   0  0  0  0  0  0  0  0  0  0  0  0
   -4.1955   16.2453    4.0514 C   0  0  0  0  0  0  0  0  0  0  0  0
    0.2257   20.4004   14.7740 C   0  0  0  0  0  0  0  0  0  0  0  0
    0.2615   25.4858   16.6254 O   0  0  0  0  0  0  0  0  0  0  0  0
    0.0945   27.5944   15.7694 O   0  0  0  0  0  0  0  0  0  0  0  0
   -4.3878   15.7209    2.6997 C   0  0  0  0  0  0  0  0  0  0  0  0
   -4.6659   16.5589    1.7259 N   0  0  0  0  0  0  0  0  0  0  0  0
   -4.2917   14.4282    2.4932 N   0  0  0  0  0  0  0  0  0  0  0  0
   -4.9277   23.6010   10.7576 H   0  0  0  0  0  0  0  0  0  0  0  0
   -0.3097   21.6786   10.3509 H   0  0  0  0  0  0  0  0  0  0  0  0
   -6.4936   20.2602    9.2343 H   0  0  0  0  0  0  0  0  0  0  0  0
   -6.2584   22.0202    9.0749 H   0  0  0  0  0  0  0  0  0  0  0  0
   -6.3178   21.2520   10.6969 H   0  0  0  0  0  0  0  0  0  0  0  0
   -5.8661   18.0103    6.3964 H   0  0  0  0  0  0  0  0  0  0  0  0
    1.7342   22.0703   12.2421 H   0  0  0  0  0  0  0  0  0  0  0  0
   -2.1853   15.4664    4.3002 H   0  0  0  0  0  0  0  0  0  0  0  0
    1.8689   19.9044   13.4630 H   0  0  0  0  0  0  0  0  0  0  0  0
   -2.9704   24.8777   11.5477 H   0  0  0  0  0  0  0  0  0  0  0  0
   -5.2264   19.1098    7.9015 H   0  0  0  0  0  0  0  0  0  0  0  0
   -5.0720   18.1932    9.3914 H   0  0  0  0  0  0  0  0  0  0  0  0
   -2.7368   17.6247    8.4008 H   0  0  0  0  0  0  0  0  0  0  0  0
    1.0950   25.8527   12.9459 H   0  0  0  0  0  0  0  0  0  0  0  0
    1.4493   24.7247   14.2389 H   0  0  0  0  0  0  0  0  0  0  0  0
   -1.8937   16.3538    6.5647 H   0  0  0  0  0  0  0  0  0  0  0  0
   -0.9425   26.5596   13.7984 H   0  0  0  0  0  0  0  0  0  0  0  0
   -1.2788   25.0587   14.6385 H   0  0  0  0  0  0  0  0  0  0  0  0
   -6.1546   17.1790    4.1684 H   0  0  0  0  0  0  0  0  0  0  0  0
   -1.3759   21.2787   15.9215 H   0  0  0  0  0  0  0  0  0  0  0  0
    0.2861   19.4953   15.3623 H   0  0  0  0  0  0  0  0  0  0  0  0
   -4.8083   16.2620    0.7735 H   0  0  0  0  0  0  0  0  0  0  0  0
   -4.1076   13.8080    3.2766 H   0  0  0  0  0  0  0  0  0  0  0  0
   -4.4205   14.0089    1.5817 H   0  0  0  0  0  0  0  0  0  0  0  0
   -4.7158   17.5569    1.9246 H   0  0  0  0  0  0  0  0  0  0  0  0
  1  4  2  0  0  0  0
  1  5  1  0  0  0  0
  1 13  1  0  0  0  0
  2 13  2  0  0  0  0
  2 16  1  0  0  0  0
  2 36  1  0  0  0  0
  3  6  1  0  0  0  0
  3 14  2  0  0  0  0
  3 37  1  0  0  0  0
  4 15  1  0  0  0  0
  4 17  1  0  0  0  0
  5 38  1  0  0  0  0
  5 39  1  0  0  0  0
  5 40  1  0  0  0  0
  6 16  2  0  0  0  0
  6 18  1  0  0  0  0
  7  9  2  0  0  0  0
  7 20  1  0  0  0  0
  7 25  1  0  0  0  0
  8 22  2  0  0  0  0
  8 27  1  0  0  0  0
  8 41  1  0  0  0  0
  9 11  1  0  0  0  0
  9 42  1  0  0  0  0
 10 24  2  0  0  0  0
 10 29  1  0  0  0  0
 10 43  1  0  0  0  0
 11 30  2  0  0  0  0
 11 44  1  0  0  0  0
 12 26  1  0  0  0  0
 12 31  2  0  0  0  0
 12 32  1  0  0  0  0
 13 14  1  0  0  0  0
 14 15  1  0  0  0  0
 16 45  1  0  0  0  0
 17 19  1  0  0  0  0
 17 46  1  0  0  0  0
 17 47  1  0  0  0  0
 18 20  1  0  0  0  0
 18 21  2  0  0  0  0
 19 22  1  0  0  0  0
 19 48  1  0  0  0  0
 20 23  1  0  0  0  0
 22 24  1  0  0  0  0
 23 26  1  0  0  0  0
 23 49  1  0  0  0  0
 23 50  1  0  0  0  0
 24 51  1  0  0  0  0
 25 28  2  0  0  0  0
 26 52  1  0  0  0  0
 26 53  1  0  0  0  0
 27 29  2  0  0  0  0
 27 54  1  0  0  0  0
 28 30  1  0  0  0  0
 28 55  1  0  0  0  0
 29 33  1  0  0  0  0
 30 56  1  0  0  0  0
 33 34  2  0  0  0  0
 33 35  1  0  0  0  0
 34 57  1  0  0  0  0
 34 60  1  0  0  0  0
 35 58  1  0  0  0  0
 35 59  1  0  0  0  0
M  CHG  1   1   1
M  END
$$$$
