4D2
 OpenBabel04111918183D

 51 53  0  0  1  0  0  0  0  0999 V2000
   -9.8905   48.2950    5.0289 C   0  0  0  0  0  0  0  0  0  0  0  0
   -9.2648   47.8660    3.8692 C   0  0  0  0  0  0  0  0  0  0  0  0
  -11.1946   44.0279   -2.3287 C   0  0  0  0  0  0  0  0  0  0  0  0
  -12.0855   44.1095   -3.3777 C   0  0  0  0  0  0  0  0  0  0  0  0
  -10.9423   49.1896    4.9218 C   0  0  0  0  0  0  0  0  0  0  0  0
  -10.8010   49.2426    2.6361 C   0  0  0  0  0  0  0  0  0  0  0  0
   -9.7542   48.3465    2.6581 C   0  0  0  0  0  0  0  0  0  0  0  0
  -12.8207   44.9915   -0.7675 C   0  0  0  0  0  0  0  0  0  0  0  0
  -11.5317   44.4685   -1.0284 C   0  0  0  0  0  0  0  0  0  0  0  0
  -13.3327   44.6110   -3.1026 C   0  0  0  0  0  0  0  0  0  0  0  0
  -13.6888   45.0370   -1.8384 C   0  0  0  0  0  0  0  0  0  0  0  0
   -9.1072   47.9393    1.4124 C   0  0  0  0  0  0  0  0  0  0  0  0
  -13.2885   45.4707    0.5594 C   0  0  0  0  0  0  0  0  0  0  0  0
  -15.4311   44.9781   -3.0641 C   0  0  0  0  0  0  0  0  0  0  0  0
   -7.4458   42.4200   -0.1981 C   0  0  0  0  0  0  0  0  0  0  0  0
   -6.7568   43.0618    2.0901 C   0  0  0  0  0  0  0  0  0  0  0  0
  -10.4972   44.3157    0.0479 C   0  0  0  0  0  0  0  0  0  0  0  0
   -8.1139   44.6548    0.7845 C   0  0  0  0  0  0  0  0  0  0  0  0
   -9.2676   46.4495   -0.5172 C   0  0  0  0  0  0  0  0  0  0  0  0
   -7.8644   43.1721    1.0567 C   0  0  0  0  0  0  0  0  0  0  0  0
   -9.1405   44.9394   -0.3119 C   0  0  2  0  0  0  0  0  0  0  0  0
  -11.4014   49.6950    3.7540 N   0  0  0  0  0  0  0  0  0  0  0  0
   -9.8563   47.1058    0.6253 N   0  0  0  0  0  0  0  0  0  0  0  0
  -14.3835   45.0187    1.0102 O   0  0  0  0  0  0  0  0  0  0  0  0
   -7.9650   48.3199    1.1845 O   0  0  0  0  0  0  0  0  0  0  0  0
  -12.5104   46.3059    1.1636 O   0  0  0  0  0  0  0  0  0  0  0  0
  -14.3560   44.7247   -3.9946 O   0  0  0  0  0  0  0  0  0  0  0  0
  -14.9703   45.4890   -1.8139 O   0  0  0  0  0  0  0  0  0  0  0  0
   -9.5657   47.9348    6.0020 H   0  0  0  0  0  0  0  0  0  0  0  0
   -8.4369   47.1633    3.8983 H   0  0  0  0  0  0  0  0  0  0  0  0
  -10.2006   43.6121   -2.5196 H   0  0  0  0  0  0  0  0  0  0  0  0
  -11.8297   43.7749   -4.3764 H   0  0  0  0  0  0  0  0  0  0  0  0
  -11.4564   49.5392    5.8158 H   0  0  0  0  0  0  0  0  0  0  0  0
  -11.1690   49.6288    1.6878 H   0  0  0  0  0  0  0  0  0  0  0  0
  -15.9577   44.0345   -2.8880 H   0  0  0  0  0  0  0  0  0  0  0  0
  -16.1260   45.7015   -3.5057 H   0  0  0  0  0  0  0  0  0  0  0  0
   -7.2731   41.3673    0.0342 H   0  0  0  0  0  0  0  0  0  0  0  0
   -6.5228   42.8464   -0.6061 H   0  0  0  0  0  0  0  0  0  0  0  0
   -8.2195   42.4660   -0.9681 H   0  0  0  0  0  0  0  0  0  0  0  0
   -7.0321   43.5973    3.0031 H   0  0  0  0  0  0  0  0  0  0  0  0
   -5.8321   43.4994    1.6969 H   0  0  0  0  0  0  0  0  0  0  0  0
   -6.5694   42.0136    2.3334 H   0  0  0  0  0  0  0  0  0  0  0  0
  -10.3878   43.2453    0.2380 H   0  0  0  0  0  0  0  0  0  0  0  0
  -10.8280   44.7478    0.9921 H   0  0  0  0  0  0  0  0  0  0  0  0
   -7.1670   45.1349    0.5091 H   0  0  0  0  0  0  0  0  0  0  0  0
   -8.4549   45.1179    1.7178 H   0  0  0  0  0  0  0  0  0  0  0  0
   -9.9018   46.6641   -1.3788 H   0  0  0  0  0  0  0  0  0  0  0  0
   -8.2729   46.8607   -0.7173 H   0  0  0  0  0  0  0  0  0  0  0  0
   -8.7693   42.7101    1.4684 H   0  0  0  0  0  0  0  0  0  0  0  0
   -8.7577   44.5181   -1.2515 H   0  0  0  0  0  0  0  0  0  0  0  0
  -10.8211   46.8661    0.9022 H   0  0  0  0  0  0  0  0  0  0  0  0
  1  2  2  0  0  0  0
  1  5  1  0  0  0  0
  1 29  1  0  0  0  0
  2  7  1  0  0  0  0
  2 30  1  0  0  0  0
  3  4  2  0  0  0  0
  3  9  1  0  0  0  0
  3 31  1  0  0  0  0
  4 10  1  0  0  0  0
  4 32  1  0  0  0  0
  5 22  2  0  0  0  0
  5 33  1  0  0  0  0
  6  7  2  0  0  0  0
  6 22  1  0  0  0  0
  6 34  1  0  0  0  0
  7 12  1  0  0  0  0
  8  9  2  0  0  0  0
  8 11  1  0  0  0  0
  8 13  1  0  0  0  0
  9 17  1  0  0  0  0
 10 11  2  0  0  0  0
 10 27  1  0  0  0  0
 11 28  1  0  0  0  0
 12 23  1  0  0  0  0
 12 25  2  0  0  0  0
 13 24  2  0  0  0  0
 13 26  1  0  0  0  0
 14 27  1  0  0  0  0
 14 28  1  0  0  0  0
 14 35  1  0  0  0  0
 14 36  1  0  0  0  0
 15 20  1  0  0  0  0
 15 37  1  0  0  0  0
 15 38  1  0  0  0  0
 15 39  1  0  0  0  0
 16 20  1  0  0  0  0
 16 40  1  0  0  0  0
 16 41  1  0  0  0  0
 16 42  1  0  0  0  0
 17 21  1  0  0  0  0
 17 43  1  0  0  0  0
 17 44  1  0  0  0  0
 18 20  1  0  0  0  0
 18 21  1  0  0  0  0
 18 45  1  0  0  0  0
 18 46  1  0  0  0  0
 19 21  1  0  0  0  0
 19 23  1  0  0  0  0
 19 47  1  0  0  0  0
 19 48  1  0  0  0  0
 20 49  1  0  0  0  0
 21 50  1  6  0  0  0
 23 51  1  0  0  0  0
M  END
$$$$
