4F0
 OpenBabel04111922443D

 40 42  0  0  1  0  0  0  0  0999 V2000
  -24.9687    2.5202  -21.9489 C   0  0  0  0  0  0  0  0  0  0  0  0
  -23.1523    1.3433  -22.5449 C   0  0  0  0  0  0  0  0  0  0  0  0
  -22.4912    2.5251  -22.8276 C   0  0  0  0  0  0  0  0  0  0  0  0
  -23.1337    3.7407  -22.6544 C   0  0  0  0  0  0  0  0  0  0  0  0
  -26.7792   -0.6380  -28.3889 C   0  0  0  0  0  0  0  0  0  0  0  0
  -26.1923   -0.2913  -26.7126 S   0  0  0  0  0  0  0  0  0  0  0  0
  -25.8537   -1.9792  -26.0794 C   0  0  0  0  0  0  0  0  0  0  0  0
  -25.0610   -1.8372  -24.7685 C   0  0  2  0  0  0  0  0  0  0  0  0
  -23.7049   -1.1867  -25.0512 C   0  0  0  0  0  0  0  0  0  0  0  0
  -22.7325   -1.8432  -24.1119 N   0  3  1  0  0  0  0  0  0  0  0  0
  -22.6693   -1.1718  -22.7522 C   0  0  0  0  0  0  0  0  0  0  0  0
  -22.2911    0.2598  -22.8507 C   0  0  0  0  0  0  0  0  0  0  0  0
  -21.1109    0.8183  -23.3207 C   0  0  0  0  0  0  0  0  0  0  0  0
  -21.2436    2.1879  -23.2845 N   0  3  0  0  0  0  0  0  0  0  0  0
  -22.5785    4.9614  -22.9500 N   0  0  0  0  0  0  0  0  0  0  0  0
  -24.3974    3.7125  -22.1946 N   0  0  0  0  0  0  0  0  0  0  0  0
  -24.4307    1.3029  -22.0994 N   0  0  0  0  0  0  0  0  0  0  0  0
  -23.2044   -3.2751  -24.0770 C   0  0  0  0  0  0  0  0  0  0  0  0
  -24.7335   -3.1646  -24.0565 C   0  0  1  0  0  0  0  0  0  0  0  0
  -25.1627   -3.0597  -22.6935 O   0  0  0  0  0  0  0  0  0  0  0  0
  -25.9949    2.5526  -21.5877 H   0  0  0  0  0  0  0  0  0  0  0  0
  -27.0252    0.3181  -28.8623 H   0  0  0  0  0  0  0  0  0  0  0  0
  -27.6799   -1.2547  -28.3729 H   0  0  0  0  0  0  0  0  0  0  0  0
  -25.9991   -1.1179  -28.9852 H   0  0  0  0  0  0  0  0  0  0  0  0
  -25.2721   -2.5431  -26.8177 H   0  0  0  0  0  0  0  0  0  0  0  0
  -26.7989   -2.5018  -25.9048 H   0  0  0  0  0  0  0  0  0  0  0  0
  -25.6298   -1.1979  -24.0781 H   0  0  0  0  0  0  0  0  0  0  0  0
  -23.7050   -0.1027  -24.9206 H   0  0  0  0  0  0  0  0  0  0  0  0
  -23.3336   -1.4097  -26.0589 H   0  0  0  0  0  0  0  0  0  0  0  0
  -21.9203   -1.7245  -22.1728 H   0  0  0  0  0  0  0  0  0  0  0  0
  -23.6385   -1.2885  -22.2614 H   0  0  0  0  0  0  0  0  0  0  0  0
  -20.1950    0.3688  -23.6847 H   0  0  0  0  0  0  0  0  0  0  0  0
  -20.5398    2.8524  -23.5736 H   0  0  0  0  0  0  0  0  0  0  0  0
  -23.1334    5.7571  -22.6587 H   0  0  0  0  0  0  0  0  0  0  0  0
  -21.6146    5.0952  -23.1730 H   0  0  0  0  0  0  0  0  0  0  0  0
  -22.7687   -3.7704  -23.2045 H   0  0  0  0  0  0  0  0  0  0  0  0
  -22.8539   -3.7442  -25.0023 H   0  0  0  0  0  0  0  0  0  0  0  0
  -25.2304   -4.0344  -24.4954 H   0  0  0  0  0  0  0  0  0  0  0  0
  -24.9946   -3.8993  -22.2254 H   0  0  0  0  0  0  0  0  0  0  0  0
  -21.7876   -1.7846  -24.5071 H   0  0  0  0  0  0  0  0  0  0  0  0
  1 16  1  0  0  0  0
  1 17  2  0  0  0  0
  1 21  1  0  0  0  0
  2  3  1  0  0  0  0
  2 12  2  0  0  0  0
  2 17  1  0  0  0  0
  3  4  2  0  0  0  0
  3 14  1  0  0  0  0
  4 15  1  0  0  0  0
  4 16  1  0  0  0  0
  5  6  1  0  0  0  0
  5 22  1  0  0  0  0
  5 23  1  0  0  0  0
  5 24  1  0  0  0  0
  6  7  1  0  0  0  0
  7  8  1  0  0  0  0
  7 25  1  0  0  0  0
  7 26  1  0  0  0  0
  8  9  1  0  0  0  0
  8 19  1  0  0  0  0
  8 27  1  1  0  0  0
  9 10  1  0  0  0  0
  9 28  1  0  0  0  0
  9 29  1  0  0  0  0
 10 11  1  0  0  0  0
 10 18  1  0  0  0  0
 10 40  1  6  0  0  0
 11 12  1  0  0  0  0
 11 30  1  0  0  0  0
 11 31  1  0  0  0  0
 12 13  1  0  0  0  0
 13 14  2  0  0  0  0
 13 32  1  0  0  0  0
 14 33  1  0  0  0  0
 15 34  1  0  0  0  0
 15 35  1  0  0  0  0
 18 19  1  0  0  0  0
 18 36  1  0  0  0  0
 18 37  1  0  0  0  0
 19 20  1  0  0  0  0
 19 38  1  6  0  0  0
 20 39  1  0  0  0  0
M  CHG  2  10   1  14   1
M  END
$$$$
