4H2
 OpenBabel04111921193D

 14 14  0  0  0  0  0  0  0  0999 V2000
   14.9525    5.1066   15.3976 C   0  0  0  0  0  0  0  0  0  0  0  0
   15.3797    3.7002   15.1205 C   0  0  0  0  0  0  0  0  0  0  0  0
   15.0474    2.6595   15.9930 C   0  0  0  0  0  0  0  0  0  0  0  0
   15.4735    1.3717   15.6934 C   0  0  0  0  0  0  0  0  0  0  0  0
   15.0751    0.0883   16.7569 S   0  0  0  0  0  0  0  0  0  0  0  0
   16.1952    1.0611   14.5986 N   0  0  0  0  0  0  0  0  0  0  0  0
   16.5015    2.0790   13.7706 C   0  0  0  0  0  0  0  0  0  0  0  0
   16.1246    3.3972   13.9807 C   0  0  0  0  0  0  0  0  0  0  0  0
   14.3825    5.1788   16.3298 H   0  0  0  0  0  0  0  0  0  0  0  0
   14.3163    5.4753   14.5865 H   0  0  0  0  0  0  0  0  0  0  0  0
   15.8286    5.7564   15.4904 H   0  0  0  0  0  0  0  0  0  0  0  0
   14.4678    2.8460   16.8915 H   0  0  0  0  0  0  0  0  0  0  0  0
   17.0817    1.7938   12.9003 H   0  0  0  0  0  0  0  0  0  0  0  0
   16.4084    4.1633   13.2705 H   0  0  0  0  0  0  0  0  0  0  0  0
  1  2  1  0  0  0  0
  1  9  1  0  0  0  0
  1 10  1  0  0  0  0
  1 11  1  0  0  0  0
  2  3  2  0  0  0  0
  2  8  1  0  0  0  0
  3  4  1  0  0  0  0
  3 12  1  0  0  0  0
  4  5  1  0  0  0  0
  4  6  2  0  0  0  0
  6  7  1  0  0  0  0
  7  8  2  0  0  0  0
  7 13  1  0  0  0  0
  8 14  1  0  0  0  0
M  END
$$$$
