4J8
 OpenBabel04111922483D

 20 20  0  0  0  0  0  0  0  0999 V2000
   -1.1112    4.6846   84.5916 C   0  0  0  0  0  0  0  0  0  0  0  0
   -0.2948    3.6111   84.9741 C   0  0  0  0  0  0  0  0  0  0  0  0
   -2.1810    2.5427   86.0374 C   0  0  0  0  0  0  0  0  0  0  0  0
   -2.4719    4.6658   84.9269 C   0  0  0  0  0  0  0  0  0  0  0  0
   -4.2887    1.2177   86.8537 O   0  0  0  0  0  0  0  0  0  0  0  0
   -2.8521    1.2438   87.0334 S   0  0  0  0  0  0  0  0  0  0  0  0
   -2.2483    1.3417   88.3462 O   0  0  0  0  0  0  0  0  0  0  0  0
   -2.2754   -0.1532   86.3458 N   0  0  0  0  0  0  0  0  0  0  0  0
   -0.8240    2.5400   85.6998 C   0  0  0  0  0  0  0  0  0  0  0  0
   -3.0091    3.5960   85.6445 C   0  0  0  0  0  0  0  0  0  0  0  0
   -0.5429    5.8573   83.8465 C   0  0  0  0  0  0  0  0  0  0  0  0
    0.7646    3.6142   84.7249 H   0  0  0  0  0  0  0  0  0  0  0  0
   -3.1181    5.4951   84.6442 H   0  0  0  0  0  0  0  0  0  0  0  0
   -2.6094   -1.0215   86.7526 H   0  0  0  0  0  0  0  0  0  0  0  0
   -1.7340   -0.1397   85.4886 H   0  0  0  0  0  0  0  0  0  0  0  0
   -0.1689    1.7333   86.0182 H   0  0  0  0  0  0  0  0  0  0  0  0
   -4.0628    3.6055   85.9148 H   0  0  0  0  0  0  0  0  0  0  0  0
    0.5280    5.7309   83.6571 H   0  0  0  0  0  0  0  0  0  0  0  0
   -0.6732    6.7750   84.4299 H   0  0  0  0  0  0  0  0  0  0  0  0
   -1.0448    5.9701   82.8804 H   0  0  0  0  0  0  0  0  0  0  0  0
  1  2  2  0  0  0  0
  1  4  1  0  0  0  0
  1 11  1  0  0  0  0
  2  9  1  0  0  0  0
  2 12  1  0  0  0  0
  3  6  1  0  0  0  0
  3  9  2  0  0  0  0
  3 10  1  0  0  0  0
  4 10  2  0  0  0  0
  4 13  1  0  0  0  0
  5  6  2  0  0  0  0
  6  7  2  0  0  0  0
  6  8  1  0  0  0  0
  8 14  1  0  0  0  0
  8 15  1  0  0  0  0
  9 16  1  0  0  0  0
 10 17  1  0  0  0  0
 11 18  1  0  0  0  0
 11 19  1  0  0  0  0
 11 20  1  0  0  0  0
M  END
$$$$
