4K6
 OpenBabel04111922493D

 47 50  0  0  0  0  0  0  0  0999 V2000
  -17.2718  -38.8894  -12.7279 O   0  0  0  0  0  0  0  0  0  0  0  0
  -16.0796  -39.0472  -12.4657 C   0  0  0  0  0  0  0  0  0  0  0  0
  -15.6263  -40.2814  -11.7698 C   0  0  0  0  0  0  0  0  0  0  0  0
  -16.3774  -41.4377  -11.9763 C   0  0  0  0  0  0  0  0  0  0  0  0
  -16.1404  -42.5878  -11.2204 C   0  0  0  0  0  0  0  0  0  0  0  0
  -15.1511  -42.5853  -10.2411 C   0  0  0  0  0  0  0  0  0  0  0  0
  -14.9790  -43.7214   -9.4235 N   0  3  0  0  0  0  0  0  0  0  0  0
  -14.7487  -43.7523   -8.0728 C   0  0  0  0  0  0  0  0  0  0  0  0
  -14.7111  -44.9967   -7.6486 N   0  0  0  0  0  0  0  0  0  0  0  0
  -14.8934  -45.8111   -8.7353 N   0  0  0  0  0  0  0  0  0  0  0  0
  -15.0594  -45.0403   -9.7869 C   0  0  0  0  0  0  0  0  0  0  0  0
  -14.3555  -41.4537  -10.0629 C   0  0  0  0  0  0  0  0  0  0  0  0
  -14.5773  -40.3084  -10.8449 C   0  0  0  0  0  0  0  0  0  0  0  0
  -15.1441  -38.1320  -12.8016 N   0  0  0  0  0  0  0  0  0  0  0  0
  -15.5252  -36.8647  -13.4162 C   0  0  0  0  0  0  0  0  0  0  0  0
  -14.3513  -35.9163  -13.5331 C   0  0  0  0  0  0  0  0  0  0  0  0
  -13.8681  -35.4768  -12.1941 C   0  0  0  0  0  0  0  0  0  0  0  0
  -14.5941  -34.8475  -11.2907 N   0  0  0  0  0  0  0  0  0  0  0  0
  -13.7554  -34.5725  -10.2427 C   0  0  0  0  0  0  0  0  0  0  0  0
  -13.9904  -33.9419   -8.9960 C   0  0  0  0  0  0  0  0  0  0  0  0
  -12.5801  -35.6727  -11.7755 N   0  3  0  0  0  0  0  0  0  0  0  0
  -12.4992  -35.0710  -10.5385 C   0  0  0  0  0  0  0  0  0  0  0  0
  -11.4331  -34.9467   -9.6574 C   0  0  0  0  0  0  0  0  0  0  0  0
  -11.6616  -34.3372   -8.4163 C   0  0  0  0  0  0  0  0  0  0  0  0
  -10.4896  -34.1922   -7.4853 C   0  0  0  0  0  0  0  0  0  0  0  0
  -12.9406  -33.8755   -8.0556 C   0  0  0  0  0  0  0  0  0  0  0  0
  -13.2211  -33.3673   -6.6684 C   0  0  0  0  0  0  0  0  0  0  0  0
  -17.1618  -41.4384  -12.7286 H   0  0  0  0  0  0  0  0  0  0  0  0
  -16.7703  -43.4555  -11.3767 H   0  0  0  0  0  0  0  0  0  0  0  0
  -14.6606  -42.8767   -7.4486 H   0  0  0  0  0  0  0  0  0  0  0  0
  -15.2056  -45.3840  -10.7990 H   0  0  0  0  0  0  0  0  0  0  0  0
  -13.5471  -41.4597   -9.3375 H   0  0  0  0  0  0  0  0  0  0  0  0
  -13.9489  -39.4377  -10.6915 H   0  0  0  0  0  0  0  0  0  0  0  0
  -14.1759  -38.3213  -12.6066 H   0  0  0  0  0  0  0  0  0  0  0  0
  -16.3193  -36.4017  -12.8188 H   0  0  0  0  0  0  0  0  0  0  0  0
  -15.9155  -37.0764  -14.4197 H   0  0  0  0  0  0  0  0  0  0  0  0
  -14.6763  -35.0225  -14.0745 H   0  0  0  0  0  0  0  0  0  0  0  0
  -13.5493  -36.4059  -14.0953 H   0  0  0  0  0  0  0  0  0  0  0  0
  -14.9735  -33.5395   -8.7473 H   0  0  0  0  0  0  0  0  0  0  0  0
  -11.8474  -36.1360  -12.2679 H   0  0  0  0  0  0  0  0  0  0  0  0
  -10.4656  -35.3309   -9.9261 H   0  0  0  0  0  0  0  0  0  0  0  0
   -9.5854  -34.6142   -7.9412 H   0  0  0  0  0  0  0  0  0  0  0  0
  -10.6878  -34.7193   -6.5477 H   0  0  0  0  0  0  0  0  0  0  0  0
  -10.3111  -33.1307   -7.2794 H   0  0  0  0  0  0  0  0  0  0  0  0
  -14.2662  -33.0498   -6.5771 H   0  0  0  0  0  0  0  0  0  0  0  0
  -12.5724  -32.5173   -6.4381 H   0  0  0  0  0  0  0  0  0  0  0  0
  -13.0394  -34.1700   -5.9416 H   0  0  0  0  0  0  0  0  0  0  0  0
  1  2  2  0  0  0  0
  2  3  1  0  0  0  0
  2 14  1  0  0  0  0
  3  4  2  0  0  0  0
  3 13  1  0  0  0  0
  4  5  1  0  0  0  0
  4 28  1  0  0  0  0
  5  6  2  0  0  0  0
  5 29  1  0  0  0  0
  6  7  1  0  0  0  0
  6 12  1  0  0  0  0
  7  8  2  0  0  0  0
  7 11  1  0  0  0  0
  8  9  1  0  0  0  0
  8 30  1  0  0  0  0
  9 10  1  0  0  0  0
 10 11  2  0  0  0  0
 11 31  1  0  0  0  0
 12 13  2  0  0  0  0
 12 32  1  0  0  0  0
 13 33  1  0  0  0  0
 14 15  1  0  0  0  0
 14 34  1  0  0  0  0
 15 16  1  0  0  0  0
 15 35  1  0  0  0  0
 15 36  1  0  0  0  0
 16 17  1  0  0  0  0
 16 37  1  0  0  0  0
 16 38  1  0  0  0  0
 17 18  1  0  0  0  0
 17 21  2  0  0  0  0
 18 19  1  0  0  0  0
 19 20  2  0  0  0  0
 19 22  1  0  0  0  0
 20 26  1  0  0  0  0
 20 39  1  0  0  0  0
 21 22  1  0  0  0  0
 21 40  1  0  0  0  0
 22 23  2  0  0  0  0
 23 24  1  0  0  0  0
 23 41  1  0  0  0  0
 24 25  1  0  0  0  0
 24 26  2  0  0  0  0
 25 42  1  0  0  0  0
 25 43  1  0  0  0  0
 25 44  1  0  0  0  0
 26 27  1  0  0  0  0
 27 45  1  0  0  0  0
 27 46  1  0  0  0  0
 27 47  1  0  0  0  0
M  CHG  2   7   1  21   1
M  END
$$$$
