4K9
 OpenBabel04111922503D

 38 40  0  0  0  0  0  0  0  0999 V2000
   19.1457    9.7919   14.4704 C   0  0  0  0  0  0  0  0  0  0  0  0
   21.3863   10.0245   12.8002 C   0  0  0  0  0  0  0  0  0  0  0  0
   20.6032    8.8662   12.7546 C   0  0  0  0  0  0  0  0  0  0  0  0
   17.4338    7.4587   14.0156 C   0  0  0  0  0  0  0  0  0  0  0  0
   16.8754    6.2292   14.6820 C   0  0  0  0  0  0  0  0  0  0  0  0
   19.9536   10.9209   14.5293 C   0  0  0  0  0  0  0  0  0  0  0  0
   19.4751    8.7556   13.5796 C   0  0  0  0  0  0  0  0  0  0  0  0
   19.6474    6.3605   13.4897 C   0  0  0  0  0  0  0  0  0  0  0  0
   20.7931    6.4197   12.5091 C   0  0  0  0  0  0  0  0  0  0  0  0
   20.9248    7.7533   11.8039 C   0  0  0  0  0  0  0  0  0  0  0  0
   13.5851    2.6182   16.6203 O   0  0  0  0  0  0  0  0  0  0  0  0
   15.0148    2.6932   16.8680 S   0  0  0  0  0  0  0  0  0  0  0  0
   15.5819    2.6985   18.1943 O   0  0  0  0  0  0  0  0  0  0  0  0
   15.7255    1.4197   16.0500 N   0  0  0  0  0  0  0  0  0  0  0  0
   15.6868    4.0635   15.9922 C   0  0  0  0  0  0  0  0  0  0  0  0
   17.0573    4.0824   15.8217 C   0  0  0  0  0  0  0  0  0  0  0  0
   17.6402    5.1871   15.2269 C   0  0  0  0  0  0  0  0  0  0  0  0
   14.8839    5.0857   15.4976 C   0  0  0  0  0  0  0  0  0  0  0  0
   15.4816    6.1627   14.8363 C   0  0  0  0  0  0  0  0  0  0  0  0
   16.6546    8.4015   13.8479 O   0  0  0  0  0  0  0  0  0  0  0  0
   18.7741    7.5161   13.5991 N   0  0  0  0  0  0  0  0  0  0  0  0
   21.0614   11.0470   13.7057 C   0  0  0  0  0  0  0  0  0  0  0  0
   18.3239    9.6874   15.1616 H   0  0  0  0  0  0  0  0  0  0  0  0
   22.2503   10.1354   12.1582 H   0  0  0  0  0  0  0  0  0  0  0  0
   19.7172   11.7105   15.2522 H   0  0  0  0  0  0  0  0  0  0  0  0
   20.0927    6.2580   14.4903 H   0  0  0  0  0  0  0  0  0  0  0  0
   19.0551    5.4825   13.2406 H   0  0  0  0  0  0  0  0  0  0  0  0
   20.6769    5.6109   11.7779 H   0  0  0  0  0  0  0  0  0  0  0  0
   21.7153    6.1901   13.0606 H   0  0  0  0  0  0  0  0  0  0  0  0
   21.9415    7.8362   11.4102 H   0  0  0  0  0  0  0  0  0  0  0  0
   20.2343    7.7944   10.9540 H   0  0  0  0  0  0  0  0  0  0  0  0
   15.1418    1.0166   15.3167 H   0  0  0  0  0  0  0  0  0  0  0  0
   16.1742    0.7577   16.6864 H   0  0  0  0  0  0  0  0  0  0  0  0
   17.6896    3.2703   16.1796 H   0  0  0  0  0  0  0  0  0  0  0  0
   18.7159    5.1684   15.2535 H   0  0  0  0  0  0  0  0  0  0  0  0
   13.8049    5.0718   15.6351 H   0  0  0  0  0  0  0  0  0  0  0  0
   14.8547    6.9740   14.4670 H   0  0  0  0  0  0  0  0  0  0  0  0
   21.6816   11.9293   13.7553 H   0  0  0  0  0  0  0  0  0  0  0  0
  1  6  2  0  0  0  0
  1  7  1  0  0  0  0
  1 23  1  0  0  0  0
  2  3  1  0  0  0  0
  2 22  2  0  0  0  0
  2 24  1  0  0  0  0
  3  7  2  0  0  0  0
  3 10  1  0  0  0  0
  4  5  1  0  0  0  0
  4 20  2  0  0  0  0
  4 21  1  0  0  0  0
  5 17  2  0  0  0  0
  5 19  1  0  0  0  0
  6 22  1  0  0  0  0
  6 25  1  0  0  0  0
  7 21  1  0  0  0  0
  8  9  1  0  0  0  0
  8 21  1  0  0  0  0
  8 26  1  0  0  0  0
  8 27  1  0  0  0  0
  9 10  1  0  0  0  0
  9 28  1  0  0  0  0
  9 29  1  0  0  0  0
 10 30  1  0  0  0  0
 10 31  1  0  0  0  0
 11 12  2  0  0  0  0
 12 13  2  0  0  0  0
 12 14  1  0  0  0  0
 12 15  1  0  0  0  0
 14 32  1  0  0  0  0
 14 33  1  0  0  0  0
 15 16  2  0  0  0  0
 15 18  1  0  0  0  0
 16 17  1  0  0  0  0
 16 34  1  0  0  0  0
 17 35  1  0  0  0  0
 18 19  2  0  0  0  0
 18 36  1  0  0  0  0
 19 37  1  0  0  0  0
 22 38  1  0  0  0  0
M  END
$$$$
