4KC
 OpenBabel04111922513D

 38 40  0  0  0  0  0  0  0  0999 V2000
   18.6420   11.1851   11.7291 C   0  0  0  0  0  0  0  0  0  0  0  0
   18.5320   10.0388   12.5157 C   0  0  0  0  0  0  0  0  0  0  0  0
   16.3840    7.1759   13.0223 C   0  0  0  0  0  0  0  0  0  0  0  0
   16.1412    6.0728   13.9813 C   0  0  0  0  0  0  0  0  0  0  0  0
   17.8679    8.7972   11.9353 C   0  0  0  0  0  0  0  0  0  0  0  0
   18.7478    7.5581   13.8706 C   0  0  0  0  0  0  0  0  0  0  0  0
   18.9567    8.8177   14.7026 C   0  0  0  0  0  0  0  0  0  0  0  0
   19.0649   10.0304   13.8165 C   0  0  0  0  0  0  0  0  0  0  0  0
   15.4244    7.5403   12.3431 O   0  0  0  0  0  0  0  0  0  0  0  0
   16.9554    4.9295   14.0049 C   0  0  0  0  0  0  0  0  0  0  0  0
   16.6709    3.8880   14.8969 C   0  0  0  0  0  0  0  0  0  0  0  0
   15.0135    6.1494   14.8013 C   0  0  0  0  0  0  0  0  0  0  0  0
   14.7122    5.0978   15.6585 C   0  0  0  0  0  0  0  0  0  0  0  0
   15.5453    3.9719   15.7136 C   0  0  0  0  0  0  0  0  0  0  0  0
   15.0693    2.6509   16.8059 S   0  0  0  0  0  0  0  0  0  0  0  0
   15.5607    1.2457   16.0618 N   0  0  0  0  0  0  0  0  0  0  0  0
   13.6319    2.5871   16.8328 O   0  0  0  0  0  0  0  0  0  0  0  0
   15.8574    2.8049   18.0133 O   0  0  0  0  0  0  0  0  0  0  0  0
   17.6507    7.7396   12.9269 N   0  0  0  0  0  0  0  0  0  0  0  0
   19.6625   11.2020   14.3294 C   0  0  0  0  0  0  0  0  0  0  0  0
   19.7619   12.3415   13.5406 C   0  0  0  0  0  0  0  0  0  0  0  0
   19.2668   12.3372   12.2328 C   0  0  0  0  0  0  0  0  0  0  0  0
   18.2611   11.1956   10.7103 H   0  0  0  0  0  0  0  0  0  0  0  0
   18.5219    8.3733   11.1656 H   0  0  0  0  0  0  0  0  0  0  0  0
   16.9250    9.0868   11.4570 H   0  0  0  0  0  0  0  0  0  0  0  0
   18.5782    6.7294   14.5615 H   0  0  0  0  0  0  0  0  0  0  0  0
   19.6449    7.3196   13.2856 H   0  0  0  0  0  0  0  0  0  0  0  0
   19.8682    8.7050   15.2982 H   0  0  0  0  0  0  0  0  0  0  0  0
   18.1125    8.9639   15.3847 H   0  0  0  0  0  0  0  0  0  0  0  0
   17.8085    4.8512   13.3352 H   0  0  0  0  0  0  0  0  0  0  0  0
   17.3453    3.0367   14.9369 H   0  0  0  0  0  0  0  0  0  0  0  0
   14.3637    7.0221   14.7584 H   0  0  0  0  0  0  0  0  0  0  0  0
   13.8260    5.1591   16.2951 H   0  0  0  0  0  0  0  0  0  0  0  0
   15.6364    0.4486   16.6973 H   0  0  0  0  0  0  0  0  0  0  0  0
   16.1763    1.2725   15.2567 H   0  0  0  0  0  0  0  0  0  0  0  0
   20.0497   11.2155   15.3401 H   0  0  0  0  0  0  0  0  0  0  0  0
   20.2206   13.2407   13.9290 H   0  0  0  0  0  0  0  0  0  0  0  0
   19.3310   13.2227   11.6142 H   0  0  0  0  0  0  0  0  0  0  0  0
  1  2  2  0  0  0  0
  1 22  1  0  0  0  0
  1 23  1  0  0  0  0
  2  5  1  0  0  0  0
  2  8  1  0  0  0  0
  3  4  1  0  0  0  0
  3  9  2  0  0  0  0
  3 19  1  0  0  0  0
  4 10  2  0  0  0  0
  4 12  1  0  0  0  0
  5 19  1  0  0  0  0
  5 24  1  0  0  0  0
  5 25  1  0  0  0  0
  6  7  1  0  0  0  0
  6 19  1  0  0  0  0
  6 26  1  0  0  0  0
  6 27  1  0  0  0  0
  7  8  1  0  0  0  0
  7 28  1  0  0  0  0
  7 29  1  0  0  0  0
  8 20  2  0  0  0  0
 10 11  1  0  0  0  0
 10 30  1  0  0  0  0
 11 14  2  0  0  0  0
 11 31  1  0  0  0  0
 12 13  2  0  0  0  0
 12 32  1  0  0  0  0
 13 14  1  0  0  0  0
 13 33  1  0  0  0  0
 14 15  1  0  0  0  0
 15 16  1  0  0  0  0
 15 17  2  0  0  0  0
 15 18  2  0  0  0  0
 16 34  1  0  0  0  0
 16 35  1  0  0  0  0
 20 21  1  0  0  0  0
 20 36  1  0  0  0  0
 21 22  2  0  0  0  0
 21 37  1  0  0  0  0
 22 38  1  0  0  0  0
M  END
$$$$
