4L7
 OpenBabel04111922523D

 39 42  0  0  1  0  0  0  0  0999 V2000
  -14.1231  -11.4857    6.4346 C   0  0  0  0  0  0  0  0  0  0  0  0
  -13.4785  -10.1129    6.2885 C   0  0  1  0  0  0  0  0  0  0  0  0
  -14.5675   -9.0454    6.3074 C   0  0  0  0  0  0  0  0  0  0  0  0
  -12.5482   -8.1759    7.3251 C   0  0  0  0  0  0  0  0  0  0  0  0
  -17.6663  -14.4203    3.0913 Br  0  0  0  0  0  0  0  0  0  0  0  0
  -16.0138  -12.0896    3.2302 C   0  0  0  0  0  0  0  0  0  0  0  0
  -15.0962  -11.3690    4.0489 C   0  0  0  0  0  0  0  0  0  0  0  0
  -14.9242  -11.9447    5.2983 C   0  0  0  0  0  0  0  0  0  0  0  0
  -16.4724  -13.2100    3.8713 C   0  0  0  0  0  0  0  0  0  0  0  0
  -13.9955  -12.1024    7.4864 O   0  0  0  0  0  0  0  0  0  0  0  0
  -13.9296   -7.8176    6.8800 N   0  3  0  0  0  0  0  0  0  0  0  0
   -6.2913  -11.0615    8.5473 O   0  0  0  0  0  0  0  0  0  0  0  0
   -6.9238  -10.8871    7.5144 C   0  0  0  0  0  0  0  0  0  0  0  0
   -6.3213  -10.7972    6.2844 N   0  3  0  0  0  0  0  0  0  0  0  0
   -7.0156  -10.5596    5.1334 C   0  0  0  0  0  0  0  0  0  0  0  0
   -8.2922  -10.3811    5.0833 N   0  0  0  0  0  0  0  0  0  0  0  0
   -8.9997  -10.4611    6.2908 C   0  0  0  0  0  0  0  0  0  0  0  0
  -10.3743  -10.2102    6.2650 C   0  0  0  0  0  0  0  0  0  0  0  0
   -8.3894  -10.7306    7.5137 C   0  0  0  0  0  0  0  0  0  0  0  0
   -9.1398  -10.8176    8.6874 C   0  0  0  0  0  0  0  0  0  0  0  0
  -10.5171  -10.5702    8.6475 C   0  0  0  0  0  0  0  0  0  0  0  0
  -11.1429  -10.2156    7.4406 C   0  0  0  0  0  0  0  0  0  0  0  0
  -12.5667   -9.7045    7.4544 C   0  0  2  0  0  0  0  0  0  0  0  0
  -15.8509  -13.3867    5.4388 S   0  0  0  0  0  0  0  0  0  0  0  0
  -12.9367  -10.0806    5.3379 H   0  0  0  0  0  0  0  0  0  0  0  0
  -15.4238   -9.2922    6.9446 H   0  0  0  0  0  0  0  0  0  0  0  0
  -14.9151   -8.7795    5.3054 H   0  0  0  0  0  0  0  0  0  0  0  0
  -12.3350   -7.6472    8.2578 H   0  0  0  0  0  0  0  0  0  0  0  0
  -11.8736   -7.8198    6.5376 H   0  0  0  0  0  0  0  0  0  0  0  0
  -16.3004  -11.8006    2.2241 H   0  0  0  0  0  0  0  0  0  0  0  0
  -14.6037  -10.4687    3.7056 H   0  0  0  0  0  0  0  0  0  0  0  0
  -13.9006   -7.0438    6.1990 H   0  0  0  0  0  0  0  0  0  0  0  0
   -5.3165  -10.9044    6.2680 H   0  0  0  0  0  0  0  0  0  0  0  0
   -6.3906  -10.5267    4.2270 H   0  0  0  0  0  0  0  0  0  0  0  0
  -10.8026   -9.9689    5.2965 H   0  0  0  0  0  0  0  0  0  0  0  0
   -8.6530  -11.0574    9.6310 H   0  0  0  0  0  0  0  0  0  0  0  0
  -11.0828  -10.6460    9.5753 H   0  0  0  0  0  0  0  0  0  0  0  0
  -13.0424   -9.9682    8.4109 H   0  0  0  0  0  0  0  0  0  0  0  0
  -14.4817   -7.4706    7.6786 H   0  0  0  0  0  0  0  0  0  0  0  0
  1  2  1  0  0  0  0
  1  8  1  0  0  0  0
  1 10  2  0  0  0  0
  2  3  1  0  0  0  0
  2 23  1  0  0  0  0
  2 25  1  6  0  0  0
  3 11  1  0  0  0  0
  3 26  1  0  0  0  0
  3 27  1  0  0  0  0
  4 11  1  0  0  0  0
  4 23  1  0  0  0  0
  4 28  1  0  0  0  0
  4 29  1  0  0  0  0
  5  9  1  0  0  0  0
  6  7  1  0  0  0  0
  6  9  2  0  0  0  0
  6 30  1  0  0  0  0
  7  8  2  0  0  0  0
  7 31  1  0  0  0  0
  8 24  1  0  0  0  0
  9 24  1  0  0  0  0
 11 32  1  0  0  0  0
 11 39  1  0  0  0  0
 12 13  2  0  0  0  0
 13 14  1  0  0  0  0
 13 19  1  0  0  0  0
 14 15  1  0  0  0  0
 14 33  1  0  0  0  0
 15 16  2  0  0  0  0
 15 34  1  0  0  0  0
 16 17  1  0  0  0  0
 17 18  2  0  0  0  0
 17 19  1  0  0  0  0
 18 22  1  0  0  0  0
 18 35  1  0  0  0  0
 19 20  2  0  0  0  0
 20 21  1  0  0  0  0
 20 36  1  0  0  0  0
 21 22  2  0  0  0  0
 21 37  1  0  0  0  0
 22 23  1  0  0  0  0
 23 38  1  1  0  0  0
M  CHG  2  11   1  14   1
M  END
$$$$
