4LN
 OpenBabel04111922503D

 52 56  0  0  1  0  0  0  0  0999 V2000
  -15.0798  -38.4626  -14.0613 O   0  0  0  0  0  0  0  0  0  0  0  0
  -15.1550  -38.3224  -12.8485 C   0  0  0  0  0  0  0  0  0  0  0  0
  -15.1759  -39.5121  -11.9725 C   0  0  0  0  0  0  0  0  0  0  0  0
  -14.2828  -39.6374  -10.8998 C   0  0  0  0  0  0  0  0  0  0  0  0
  -14.2833  -40.8040  -10.1293 C   0  0  0  0  0  0  0  0  0  0  0  0
  -15.1625  -41.8480  -10.4529 C   0  0  0  0  0  0  0  0  0  0  0  0
  -15.1246  -43.0533   -9.7203 N   0  3  0  0  0  0  0  0  0  0  0  0
  -15.3595  -44.3214  -10.1841 C   0  0  0  0  0  0  0  0  0  0  0  0
  -15.2234  -45.1919   -9.2094 N   0  0  0  0  0  0  0  0  0  0  0  0
  -14.9011  -44.4928   -8.0713 N   0  0  0  0  0  0  0  0  0  0  0  0
  -14.8363  -43.2204   -8.3921 C   0  0  0  0  0  0  0  0  0  0  0  0
  -16.0648  -41.7136  -11.5171 C   0  0  0  0  0  0  0  0  0  0  0  0
  -16.0756  -40.5389  -12.2697 C   0  0  0  0  0  0  0  0  0  0  0  0
  -15.2336  -37.1240  -12.1895 N   0  0  0  0  0  0  0  0  0  0  0  0
  -15.1316  -35.7910  -12.8227 C   0  0  1  0  0  0  0  0  0  0  0  0
  -16.2970  -35.5705  -13.7968 C   0  0  0  0  0  0  0  0  0  0  0  0
  -15.2123  -34.7188  -11.6907 C   0  0  0  0  0  0  0  0  0  0  0  0
  -13.9566  -34.7232  -10.8868 C   0  0  0  0  0  0  0  0  0  0  0  0
  -13.6879  -34.2880   -9.6120 C   0  0  0  0  0  0  0  0  0  0  0  0
  -14.4346  -33.7049   -8.5558 C   0  0  0  0  0  0  0  0  0  0  0  0
  -15.7752  -33.5506   -8.7914 O   0  0  0  0  0  0  0  0  0  0  0  0
  -13.8368  -33.3539   -7.4099 C   0  0  0  0  0  0  0  0  0  0  0  0
  -12.4121  -33.5524   -7.2160 C   0  0  0  0  0  0  0  0  0  0  0  0
  -13.7792  -35.6215  -13.5804 C   0  0  0  0  0  0  0  0  0  0  0  0
  -12.5702  -35.9202  -12.6765 C   0  0  0  0  0  0  0  0  0  0  0  0
  -12.7329  -35.2450  -11.3562 C   0  0  0  0  0  0  0  0  0  0  0  0
  -11.7421  -35.1230  -10.4700 N   0  0  0  0  0  0  0  0  0  0  0  0
  -12.3141  -34.4968   -9.3925 N   0  3  0  0  0  0  0  0  0  0  0  0
  -11.6774  -34.1097   -8.1993 C   0  0  0  0  0  0  0  0  0  0  0  0
  -10.2015  -34.3178   -8.0749 C   0  0  0  0  0  0  0  0  0  0  0  0
  -13.5573  -38.8536  -10.6892 H   0  0  0  0  0  0  0  0  0  0  0  0
  -13.5404  -40.9067   -9.3406 H   0  0  0  0  0  0  0  0  0  0  0  0
  -15.5596  -44.5584  -11.2192 H   0  0  0  0  0  0  0  0  0  0  0  0
  -14.6507  -42.4055   -7.7080 H   0  0  0  0  0  0  0  0  0  0  0  0
  -16.7932  -42.4857  -11.7530 H   0  0  0  0  0  0  0  0  0  0  0  0
  -16.7821  -40.4182  -13.0890 H   0  0  0  0  0  0  0  0  0  0  0  0
  -15.3193  -37.1451  -11.1792 H   0  0  0  0  0  0  0  0  0  0  0  0
  -16.2496  -34.5759  -14.2526 H   0  0  0  0  0  0  0  0  0  0  0  0
  -17.2611  -35.6665  -13.2859 H   0  0  0  0  0  0  0  0  0  0  0  0
  -16.2858  -36.3018  -14.6133 H   0  0  0  0  0  0  0  0  0  0  0  0
  -16.0758  -34.9200  -11.0478 H   0  0  0  0  0  0  0  0  0  0  0  0
  -15.3446  -33.7174  -12.1206 H   0  0  0  0  0  0  0  0  0  0  0  0
  -16.1839  -33.1601   -8.0031 H   0  0  0  0  0  0  0  0  0  0  0  0
  -14.3866  -32.9034   -6.5896 H   0  0  0  0  0  0  0  0  0  0  0  0
  -11.9741  -33.2467   -6.2721 H   0  0  0  0  0  0  0  0  0  0  0  0
  -13.7018  -34.5836  -13.9360 H   0  0  0  0  0  0  0  0  0  0  0  0
  -13.7351  -36.2547  -14.4732 H   0  0  0  0  0  0  0  0  0  0  0  0
  -11.6454  -35.6012  -13.1739 H   0  0  0  0  0  0  0  0  0  0  0  0
  -12.4904  -37.0044  -12.5222 H   0  0  0  0  0  0  0  0  0  0  0  0
   -9.8305  -33.9896   -7.0987 H   0  0  0  0  0  0  0  0  0  0  0  0
   -9.6644  -33.7437   -8.8391 H   0  0  0  0  0  0  0  0  0  0  0  0
   -9.9450  -35.3740   -8.1939 H   0  0  0  0  0  0  0  0  0  0  0  0
  1  2  2  0  0  0  0
  2  3  1  0  0  0  0
  2 14  1  0  0  0  0
  3  4  2  0  0  0  0
  3 13  1  0  0  0  0
  4  5  1  0  0  0  0
  4 31  1  0  0  0  0
  5  6  2  0  0  0  0
  5 32  1  0  0  0  0
  6  7  1  0  0  0  0
  6 12  1  0  0  0  0
  7  8  2  0  0  0  0
  7 11  1  0  0  0  0
  8  9  1  0  0  0  0
  8 33  1  0  0  0  0
  9 10  1  0  0  0  0
 10 11  2  0  0  0  0
 11 34  1  0  0  0  0
 12 13  2  0  0  0  0
 12 35  1  0  0  0  0
 13 36  1  0  0  0  0
 14 37  1  0  0  0  0
 15 14  1  1  0  0  0
 15 16  1  0  0  0  0
 15 17  1  0  0  0  0
 15 24  1  0  0  0  0
 16 38  1  0  0  0  0
 16 39  1  0  0  0  0
 16 40  1  0  0  0  0
 17 18  1  0  0  0  0
 17 41  1  0  0  0  0
 17 42  1  0  0  0  0
 18 19  1  0  0  0  0
 18 26  2  0  0  0  0
 19 20  2  0  0  0  0
 19 28  1  0  0  0  0
 20 21  1  0  0  0  0
 20 22  1  0  0  0  0
 21 43  1  0  0  0  0
 22 23  2  0  0  0  0
 22 44  1  0  0  0  0
 23 29  1  0  0  0  0
 23 45  1  0  0  0  0
 24 25  1  0  0  0  0
 24 46  1  0  0  0  0
 24 47  1  0  0  0  0
 25 26  1  0  0  0  0
 25 48  1  0  0  0  0
 25 49  1  0  0  0  0
 26 27  1  0  0  0  0
 27 28  1  0  0  0  0
 28 29  2  0  0  0  0
 29 30  1  0  0  0  0
 30 50  1  0  0  0  0
 30 51  1  0  0  0  0
 30 52  1  0  0  0  0
M  CHG  2   7   1  28   1
M  END
$$$$
