4M1
 OpenBabel04111922533D

 57 61  0  0  1  0  0  0  0  0999 V2000
  -14.6824  -32.5643  -16.1547 C   0  0  0  0  0  0  0  0  0  0  0  0
  -14.2916  -33.8316  -16.5871 C   0  0  0  0  0  0  0  0  0  0  0  0
  -15.0306  -32.3647  -14.8219 C   0  0  0  0  0  0  0  0  0  0  0  0
  -14.2317  -34.8927  -15.6874 C   0  0  0  0  0  0  0  0  0  0  0  0
  -14.9902  -33.4267  -13.9259 C   0  0  0  0  0  0  0  0  0  0  0  0
  -11.6143  -34.9082   -9.3617 C   0  0  0  0  0  0  0  0  0  0  0  0
  -14.2544  -34.1329   -8.6967 C   0  0  0  0  0  0  0  0  0  0  0  0
  -14.2431  -41.4150  -10.2833 C   0  0  0  0  0  0  0  0  0  0  0  0
  -16.3867  -42.1892  -11.1034 C   0  0  0  0  0  0  0  0  0  0  0  0
  -14.6518  -43.6134   -8.1971 C   0  0  0  0  0  0  0  0  0  0  0  0
  -15.6458  -44.7809   -9.7285 C   0  0  0  0  0  0  0  0  0  0  0  0
  -15.4433  -40.1202  -11.9630 C   0  0  0  0  0  0  0  0  0  0  0  0
  -14.5651  -34.7082  -14.3336 C   0  0  0  0  0  0  0  0  0  0  0  0
  -11.9113  -34.3972   -8.0786 C   0  0  0  0  0  0  0  0  0  0  0  0
  -13.2260  -34.0134   -7.7397 C   0  0  0  0  0  0  0  0  0  0  0  0
  -12.6686  -35.0380  -10.2686 C   0  0  0  0  0  0  0  0  0  0  0  0
  -15.2678  -42.3708  -10.2816 C   0  0  0  0  0  0  0  0  0  0  0  0
  -13.9696  -34.6725   -9.9623 C   0  0  0  0  0  0  0  0  0  0  0  0
  -14.3180  -40.3096  -11.1505 C   0  0  0  0  0  0  0  0  0  0  0  0
  -16.4876  -41.0483  -11.9128 C   0  0  0  0  0  0  0  0  0  0  0  0
  -14.0426  -35.4402  -11.9740 C   0  0  0  0  0  0  0  0  0  0  0  0
  -15.5076  -39.0124  -12.9352 C   0  0  0  0  0  0  0  0  0  0  0  0
  -10.7986  -34.3066   -7.0672 C   0  0  0  0  0  0  0  0  0  0  0  0
  -13.5646  -33.5376   -6.3497 C   0  0  0  0  0  0  0  0  0  0  0  0
  -15.8699  -36.5830  -13.2592 C   0  0  0  0  0  0  0  0  0  0  0  0
  -14.4996  -35.8742  -13.3556 C   0  0  1  0  0  0  0  0  0  0  0  0
  -14.7944  -44.8356   -7.7360 N   0  0  0  0  0  0  0  0  0  0  0  0
  -15.4099  -45.5792   -8.7124 N   0  0  0  0  0  0  0  0  0  0  0  0
  -12.7336  -35.5111  -11.5586 N   0  3  0  0  0  0  0  0  0  0  0  0
  -15.1871  -43.5167   -9.4552 N   0  3  0  0  0  0  0  0  0  0  0  0
  -14.8077  -34.9436  -11.0149 N   0  0  0  0  0  0  0  0  0  0  0  0
  -15.8251  -37.7798  -12.4200 N   0  0  0  0  0  0  0  0  0  0  0  0
  -15.2867  -39.2349  -14.1185 O   0  0  0  0  0  0  0  0  0  0  0  0
  -12.9694  -39.2271  -11.1907 Cl  0  0  0  0  0  0  0  0  0  0  0  0
  -17.9679  -40.8105  -12.7744 Cl  0  0  0  0  0  0  0  0  0  0  0  0
  -14.7179  -31.7361  -16.8551 H   0  0  0  0  0  0  0  0  0  0  0  0
  -14.0318  -33.9860  -17.6287 H   0  0  0  0  0  0  0  0  0  0  0  0
  -15.3339  -31.3771  -14.4756 H   0  0  0  0  0  0  0  0  0  0  0  0
  -13.9267  -35.8751  -16.0487 H   0  0  0  0  0  0  0  0  0  0  0  0
  -15.2828  -33.2508  -12.8912 H   0  0  0  0  0  0  0  0  0  0  0  0
  -10.6092  -35.2135   -9.6241 H   0  0  0  0  0  0  0  0  0  0  0  0
  -15.2719  -33.8384   -8.4606 H   0  0  0  0  0  0  0  0  0  0  0  0
  -13.3478  -41.5530   -9.6779 H   0  0  0  0  0  0  0  0  0  0  0  0
  -17.2174  -42.8940  -11.0817 H   0  0  0  0  0  0  0  0  0  0  0  0
  -14.2411  -42.7799   -7.6468 H   0  0  0  0  0  0  0  0  0  0  0  0
  -16.0789  -45.0781  -10.6731 H   0  0  0  0  0  0  0  0  0  0  0  0
   -9.8490  -34.6429   -7.4941 H   0  0  0  0  0  0  0  0  0  0  0  0
  -11.0213  -34.9482   -6.2086 H   0  0  0  0  0  0  0  0  0  0  0  0
  -10.6647  -33.2744   -6.7284 H   0  0  0  0  0  0  0  0  0  0  0  0
  -14.6208  -33.2623   -6.2630 H   0  0  0  0  0  0  0  0  0  0  0  0
  -12.9709  -32.6598   -6.0749 H   0  0  0  0  0  0  0  0  0  0  0  0
  -13.3752  -34.3397   -5.6280 H   0  0  0  0  0  0  0  0  0  0  0  0
  -16.2261  -36.8709  -14.2562 H   0  0  0  0  0  0  0  0  0  0  0  0
  -16.6287  -35.9216  -12.8244 H   0  0  0  0  0  0  0  0  0  0  0  0
  -13.7672  -36.5981  -13.7424 H   0  0  0  0  0  0  0  0  0  0  0  0
  -11.9572  -35.8600  -12.1030 H   0  0  0  0  0  0  0  0  0  0  0  0
  -15.8780  -37.6304  -11.4182 H   0  0  0  0  0  0  0  0  0  0  0  0
  1  2  2  0  0  0  0
  1  3  1  0  0  0  0
  1 36  1  0  0  0  0
  2  4  1  0  0  0  0
  2 37  1  0  0  0  0
  3  5  2  0  0  0  0
  3 38  1  0  0  0  0
  4 13  2  0  0  0  0
  4 39  1  0  0  0  0
  5 13  1  0  0  0  0
  5 40  1  0  0  0  0
  6 14  2  0  0  0  0
  6 16  1  0  0  0  0
  6 41  1  0  0  0  0
  7 15  2  0  0  0  0
  7 18  1  0  0  0  0
  7 42  1  0  0  0  0
  8 17  2  0  0  0  0
  8 19  1  0  0  0  0
  8 43  1  0  0  0  0
  9 17  1  0  0  0  0
  9 20  2  0  0  0  0
  9 44  1  0  0  0  0
 10 27  1  0  0  0  0
 10 30  2  0  0  0  0
 10 45  1  0  0  0  0
 11 28  2  0  0  0  0
 11 30  1  0  0  0  0
 11 46  1  0  0  0  0
 12 19  2  0  0  0  0
 12 20  1  0  0  0  0
 12 22  1  0  0  0  0
 13 26  1  0  0  0  0
 14 15  1  0  0  0  0
 14 23  1  0  0  0  0
 15 24  1  0  0  0  0
 16 18  2  0  0  0  0
 16 29  1  0  0  0  0
 17 30  1  0  0  0  0
 18 31  1  0  0  0  0
 19 34  1  0  0  0  0
 20 35  1  0  0  0  0
 21 26  1  0  0  0  0
 21 29  2  0  0  0  0
 21 31  1  0  0  0  0
 22 32  1  0  0  0  0
 22 33  2  0  0  0  0
 23 47  1  0  0  0  0
 23 48  1  0  0  0  0
 23 49  1  0  0  0  0
 24 50  1  0  0  0  0
 24 51  1  0  0  0  0
 24 52  1  0  0  0  0
 25 26  1  0  0  0  0
 25 32  1  0  0  0  0
 25 53  1  0  0  0  0
 25 54  1  0  0  0  0
 26 55  1  6  0  0  0
 27 28  1  0  0  0  0
 29 56  1  0  0  0  0
 32 57  1  0  0  0  0
M  CHG  2  29   1  30   1
M  END
$$$$
