4M6
 OpenBabel04111922553D

 51 55  0  0  1  0  0  0  0  0999 V2000
   -8.7841  -23.0185    8.9185 O   0  0  0  0  0  0  0  0  0  0  0  0
   -8.1734  -22.8790    7.8054 C   0  0  0  0  0  0  0  0  0  0  0  0
   -7.1451  -23.5076    7.4344 O   0  0  0  0  0  0  0  0  0  0  0  0
   -8.7493  -21.8756    6.8771 C   0  0  2  0  0  0  0  0  0  0  0  0
   -9.3924  -20.7099    7.2269 N   0  3  2  0  0  0  0  0  0  0  0  0
   -9.7831  -20.0340    6.0944 C   0  0  1  0  0  0  0  0  0  0  0  0
   -9.6237  -20.1213    8.5401 C   0  0  0  0  0  0  0  0  0  0  0  0
   -9.8754  -18.5884    8.4954 C   0  0  0  0  0  0  0  0  0  0  0  0
  -10.7621  -18.1028    7.3297 C   0  0  0  0  0  0  0  0  0  0  0  0
  -10.4245  -18.7934    6.0440 C   0  0  2  0  0  0  0  0  0  0  0  0
  -10.7561  -18.3134    4.7696 C   0  0  0  0  0  0  0  0  0  0  0  0
  -10.4271  -19.0347    3.6206 C   0  0  0  0  0  0  0  0  0  0  0  0
   -9.7637  -20.2691    3.7155 C   0  0  0  0  0  0  0  0  0  0  0  0
   -9.4291  -20.7810    4.9866 C   0  0  1  0  0  0  0  0  0  0  0  0
   -8.7526  -21.9513    5.4809 C   0  0  2  0  0  0  0  0  0  0  0  0
   -8.1797  -23.0513    4.6323 C   0  0  0  0  0  0  0  0  0  0  0  0
   -6.6758  -22.8869    4.4130 C   0  0  0  0  0  0  0  0  0  0  0  0
   -6.3431  -21.6580    3.5848 C   0  0  0  0  0  0  0  0  0  0  0  0
   -6.9266  -21.8200    2.2940 O   0  0  0  0  0  0  0  0  0  0  0  0
   -6.5752  -20.9076    1.3310 C   0  0  1  0  0  0  0  0  0  0  0  0
   -6.9696  -21.2167    0.0159 C   0  0  2  0  0  0  0  0  0  0  0  0
   -7.6705  -22.3982   -0.2992 C   0  0  0  0  0  0  0  0  0  0  0  0
   -8.0469  -22.6872   -1.6041 C   0  0  0  0  0  0  0  0  0  0  0  0
   -7.7103  -21.8075   -2.6324 C   0  0  0  0  0  0  0  0  0  0  0  0
   -7.0134  -20.6291   -2.3419 C   0  0  0  0  0  0  0  0  0  0  0  0
   -6.6307  -20.3253   -1.0266 C   0  0  1  0  0  0  0  0  0  0  0  0
   -5.9296  -19.1513   -0.7332 C   0  0  0  0  0  0  0  0  0  0  0  0
   -5.5562  -18.8528    0.5715 C   0  0  0  0  0  0  0  0  0  0  0  0
   -5.8856  -19.7268    1.5998 C   0  0  0  0  0  0  0  0  0  0  0  0
   -8.7526  -20.3158    9.1746 H   0  0  0  0  0  0  0  0  0  0  0  0
  -10.5004  -20.6191    8.9660 H   0  0  0  0  0  0  0  0  0  0  0  0
   -8.9084  -18.0692    8.4363 H   0  0  0  0  0  0  0  0  0  0  0  0
  -10.3309  -18.2640    9.4415 H   0  0  0  0  0  0  0  0  0  0  0  0
  -10.6320  -17.0205    7.2128 H   0  0  0  0  0  0  0  0  0  0  0  0
  -11.8155  -18.2916    7.5727 H   0  0  0  0  0  0  0  0  0  0  0  0
  -11.2752  -17.3644    4.6672 H   0  0  0  0  0  0  0  0  0  0  0  0
  -10.6871  -18.6475    2.6360 H   0  0  0  0  0  0  0  0  0  0  0  0
   -9.5048  -20.8208    2.8125 H   0  0  0  0  0  0  0  0  0  0  0  0
   -8.6950  -23.0924    3.6616 H   0  0  0  0  0  0  0  0  0  0  0  0
   -8.3778  -24.0217    5.1021 H   0  0  0  0  0  0  0  0  0  0  0  0
   -6.2936  -23.7793    3.9035 H   0  0  0  0  0  0  0  0  0  0  0  0
   -6.1525  -22.8035    5.3680 H   0  0  0  0  0  0  0  0  0  0  0  0
   -5.2543  -21.5801    3.4957 H   0  0  0  0  0  0  0  0  0  0  0  0
   -6.7286  -20.7527    4.0658 H   0  0  0  0  0  0  0  0  0  0  0  0
   -7.9384  -23.0940    0.4925 H   0  0  0  0  0  0  0  0  0  0  0  0
   -8.5838  -23.6043   -1.8247 H   0  0  0  0  0  0  0  0  0  0  0  0
   -7.9949  -22.0291   -3.6586 H   0  0  0  0  0  0  0  0  0  0  0  0
   -6.7609  -19.9550   -3.1587 H   0  0  0  0  0  0  0  0  0  0  0  0
   -5.6643  -18.4523   -1.5277 H   0  0  0  0  0  0  0  0  0  0  0  0
   -5.0175  -17.9398    0.7911 H   0  0  0  0  0  0  0  0  0  0  0  0
   -5.5906  -19.4659    2.6134 H   0  0  0  0  0  0  0  0  0  0  0  0
  1  2  2  0  0  0  0
  2  3  1  0  0  0  0
  4  2  1  1  0  0  0
  4  5  1  0  0  0  0
  4 15  1  0  0  0  0
  5  7  1  6  0  0  0
  6  5  1  6  0  0  0
  6 10  1  0  0  0  0
  6 14  1  0  0  0  0
  7  8  1  0  0  0  0
  7 30  1  0  0  0  0
  7 31  1  0  0  0  0
  8  9  1  0  0  0  0
  8 32  1  0  0  0  0
  8 33  1  0  0  0  0
  9 34  1  0  0  0  0
  9 35  1  0  0  0  0
 10  9  1  1  0  0  0
 10 11  1  0  0  0  0
 11 12  1  0  0  0  0
 11 36  1  0  0  0  0
 12 13  1  0  0  0  0
 12 37  1  0  0  0  0
 13 38  1  0  0  0  0
 14 13  1  6  0  0  0
 14 15  1  0  0  0  0
 15 16  1  1  0  0  0
 16 17  1  0  0  0  0
 16 39  1  0  0  0  0
 16 40  1  0  0  0  0
 17 18  1  0  0  0  0
 17 41  1  0  0  0  0
 17 42  1  0  0  0  0
 18 19  1  0  0  0  0
 18 43  1  0  0  0  0
 18 44  1  0  0  0  0
 20 19  1  1  0  0  0
 20 21  1  0  0  0  0
 20 29  1  0  0  0  0
 21 22  1  6  0  0  0
 21 26  1  0  0  0  0
 22 23  1  0  0  0  0
 22 45  1  0  0  0  0
 23 24  1  0  0  0  0
 23 46  1  0  0  0  0
 24 25  1  0  0  0  0
 24 47  1  0  0  0  0
 25 48  1  0  0  0  0
 26 25  1  1  0  0  0
 26 27  1  0  0  0  0
 27 28  1  0  0  0  0
 27 49  1  0  0  0  0
 28 29  1  0  0  0  0
 28 50  1  0  0  0  0
 29 51  1  0  0  0  0
M  CHG  1   5   1
M  END
$$$$
