4ME
 OpenBabel04111917543D

 22 23  0  0  1  0  0  0  0  0999 V2000
   23.3132    3.6515   -4.1777 C   0  0  0  0  0  0  0  0  0  0  0  0
   22.1302    4.1046   -3.5162 O   0  0  0  0  0  0  0  0  0  0  0  0
   22.0142    5.4602   -3.5522 C   0  0  0  0  0  0  0  0  0  0  0  0
   22.8325    6.1912   -4.0898 O   0  0  0  0  0  0  0  0  0  0  0  0
   20.7858    5.9414   -2.8674 C   0  0  2  0  0  0  0  0  0  0  0  0
   19.8435    5.0777   -2.2891 C   0  0  0  0  0  0  0  0  0  0  0  0
   18.7008    5.5802   -1.6597 C   0  0  0  0  0  0  0  0  0  0  0  0
   18.4534    6.9541   -1.5871 C   0  0  0  0  0  0  0  0  0  0  0  0
   19.3965    7.8093   -2.1671 C   0  0  1  0  0  0  0  0  0  0  0  0
   20.5509    7.3390   -2.8008 C   0  0  2  0  0  0  0  0  0  0  0  0
   21.2567    8.4915   -3.2592 C   0  0  0  0  0  0  0  0  0  0  0  0
   20.5393    9.6054   -2.9065 C   0  0  0  0  0  0  0  0  0  0  0  0
   19.4158    9.1869   -2.2491 N   0  3  0  0  0  0  0  0  0  0  0  0
   23.3547    2.5605   -4.1256 H   0  0  0  0  0  0  0  0  0  0  0  0
   24.2039    4.0557   -3.6842 H   0  0  0  0  0  0  0  0  0  0  0  0
   23.2958    3.9462   -5.2329 H   0  0  0  0  0  0  0  0  0  0  0  0
   19.9929    4.0006   -2.3264 H   0  0  0  0  0  0  0  0  0  0  0  0
   17.9837    4.8872   -1.2197 H   0  0  0  0  0  0  0  0  0  0  0  0
   17.5613    7.3366   -1.0998 H   0  0  0  0  0  0  0  0  0  0  0  0
   22.1960    8.4924   -3.7944 H   0  0  0  0  0  0  0  0  0  0  0  0
   20.7430   10.6547   -3.0734 H   0  0  0  0  0  0  0  0  0  0  0  0
   18.7034    9.7969   -1.8717 H   0  0  0  0  0  0  0  0  0  0  0  0
  1  2  1  0  0  0  0
  1 14  1  0  0  0  0
  1 15  1  0  0  0  0
  1 16  1  0  0  0  0
  2  3  1  0  0  0  0
  3  4  2  0  0  0  0
  5  3  1  6  0  0  0
  5  6  1  0  0  0  0
  5 10  1  0  0  0  0
  6  7  1  0  0  0  0
  6 17  1  0  0  0  0
  7  8  1  0  0  0  0
  7 18  1  0  0  0  0
  8 19  1  0  0  0  0
  9  8  1  6  0  0  0
  9 10  1  0  0  0  0
  9 13  1  0  0  0  0
 10 11  1  6  0  0  0
 11 12  1  0  0  0  0
 11 20  1  0  0  0  0
 12 13  1  0  0  0  0
 12 21  1  0  0  0  0
 13 22  1  0  0  0  0
M  CHG  1  13   1
M  END
$$$$
