4OQ
 OpenBabel04111922583D

 50 53  0  0  1  0  0  0  0  0999 V2000
   13.0194   47.2256   46.8775 C   0  0  0  0  0  0  0  0  0  0  0  0
   11.0060   46.0102   46.0366 C   0  0  0  0  0  0  0  0  0  0  0  0
   10.5157   45.7891   47.3372 C   0  0  0  0  0  0  0  0  0  0  0  0
   10.7136   50.1697   43.4204 C   0  0  0  0  0  0  0  0  0  0  0  0
   11.1762   50.4088   44.7005 C   0  0  0  0  0  0  0  0  0  0  0  0
   11.6736   49.3523   45.4670 C   0  0  0  0  0  0  0  0  0  0  0  0
   11.7163   48.0381   44.9640 C   0  0  0  0  0  0  0  0  0  0  0  0
   12.9194   47.1012   41.3023 C   0  0  0  0  0  0  0  0  0  0  0  0
   14.1641   46.2081   41.5454 C   0  0  0  0  0  0  0  0  0  0  0  0
   15.1899   43.9552   41.0908 C   0  0  0  0  0  0  0  0  0  0  0  0
   12.6932   44.1357   41.1647 C   0  0  0  0  0  0  0  0  0  0  0  0
   11.4975   45.0851   40.9466 C   0  0  0  0  0  0  0  0  0  0  0  0
   10.0626   51.4487   42.4784 Cl  0  0  0  0  0  0  0  0  0  0  0  0
   10.7563   48.8799   42.8930 C   0  0  0  0  0  0  0  0  0  0  0  0
   12.0694   46.9251   45.7708 N   0  0  0  0  0  0  0  0  0  0  0  0
   13.8789   46.0176   47.2381 C   0  0  0  0  0  0  0  0  0  0  0  0
   11.2572   47.8038   43.6489 C   0  0  0  0  0  0  0  0  0  0  0  0
   11.2843   46.4463   43.0460 C   0  0  0  0  0  0  0  0  0  0  0  0
   11.7408   46.3006   41.7808 N   0  0  0  0  0  0  0  0  0  0  0  0
   14.0062   44.8508   40.8254 N   0  3  1  0  0  0  0  0  0  0  0  0
   10.7741   45.3877   43.6600 N   0  0  0  0  0  0  0  0  0  0  0  0
   10.3719   45.3227   44.9653 C   0  0  0  0  0  0  0  0  0  0  0  0
    9.3455   44.4085   45.2243 C   0  0  0  0  0  0  0  0  0  0  0  0
    8.8924   44.2211   46.5139 C   0  0  0  0  0  0  0  0  0  0  0  0
    7.8868   43.3672   46.7335 F   0  0  0  0  0  0  0  0  0  0  0  0
    9.4587   44.9061   47.5718 C   0  0  0  0  0  0  0  0  0  0  0  0
   12.5081   47.6190   47.7633 H   0  0  0  0  0  0  0  0  0  0  0  0
   13.7268   48.0035   46.5579 H   0  0  0  0  0  0  0  0  0  0  0  0
   10.9130   46.3139   48.1996 H   0  0  0  0  0  0  0  0  0  0  0  0
   11.1231   51.4078   45.1317 H   0  0  0  0  0  0  0  0  0  0  0  0
   11.9630   49.5756   46.4921 H   0  0  0  0  0  0  0  0  0  0  0  0
   12.7899   47.3139   40.2347 H   0  0  0  0  0  0  0  0  0  0  0  0
   13.0287   48.0478   41.8331 H   0  0  0  0  0  0  0  0  0  0  0  0
   14.2561   45.9787   42.6124 H   0  0  0  0  0  0  0  0  0  0  0  0
   15.0787   46.6742   41.1729 H   0  0  0  0  0  0  0  0  0  0  0  0
   15.0444   43.0353   40.5199 H   0  0  0  0  0  0  0  0  0  0  0  0
   15.2301   43.7506   42.1641 H   0  0  0  0  0  0  0  0  0  0  0  0
   16.0851   44.4794   40.7516 H   0  0  0  0  0  0  0  0  0  0  0  0
   12.6226   43.2429   40.5382 H   0  0  0  0  0  0  0  0  0  0  0  0
   12.7610   43.8499   42.2212 H   0  0  0  0  0  0  0  0  0  0  0  0
   10.5420   44.6192   41.2054 H   0  0  0  0  0  0  0  0  0  0  0  0
   11.4302   45.3895   39.8954 H   0  0  0  0  0  0  0  0  0  0  0  0
   10.3768   48.7142   41.8849 H   0  0  0  0  0  0  0  0  0  0  0  0
   14.5841   46.2865   48.0324 H   0  0  0  0  0  0  0  0  0  0  0  0
   14.4601   45.6797   46.3736 H   0  0  0  0  0  0  0  0  0  0  0  0
   13.2843   45.1723   47.5949 H   0  0  0  0  0  0  0  0  0  0  0  0
    8.8598   43.8513   44.4259 H   0  0  0  0  0  0  0  0  0  0  0  0
    9.0722   44.7546   48.5762 H   0  0  0  0  0  0  0  0  0  0  0  0
   14.0145   45.0339   39.8097 H   0  0  0  0  0  0  0  0  0  0  0  0
   10.6444   44.5268   43.1606 H   0  0  0  0  0  0  0  0  0  0  0  0
  1 15  1  0  0  0  0
  1 16  1  0  0  0  0
  1 27  1  0  0  0  0
  1 28  1  0  0  0  0
  2  3  2  0  0  0  0
  2 15  1  0  0  0  0
  2 22  1  0  0  0  0
  3 26  1  0  0  0  0
  3 29  1  0  0  0  0
  4  5  2  0  0  0  0
  4 13  1  0  0  0  0
  4 14  1  0  0  0  0
  5  6  1  0  0  0  0
  5 30  1  0  0  0  0
  6  7  2  0  0  0  0
  6 31  1  0  0  0  0
  7 15  1  0  0  0  0
  7 17  1  0  0  0  0
  8  9  1  0  0  0  0
  8 19  1  0  0  0  0
  8 32  1  0  0  0  0
  8 33  1  0  0  0  0
  9 20  1  0  0  0  0
  9 34  1  0  0  0  0
  9 35  1  0  0  0  0
 10 20  1  0  0  0  0
 10 36  1  0  0  0  0
 10 37  1  0  0  0  0
 10 38  1  0  0  0  0
 11 12  1  0  0  0  0
 11 20  1  0  0  0  0
 11 39  1  0  0  0  0
 11 40  1  0  0  0  0
 12 19  1  0  0  0  0
 12 41  1  0  0  0  0
 12 42  1  0  0  0  0
 14 17  2  0  0  0  0
 14 43  1  0  0  0  0
 16 44  1  0  0  0  0
 16 45  1  0  0  0  0
 16 46  1  0  0  0  0
 17 18  1  0  0  0  0
 18 19  1  0  0  0  0
 18 21  2  0  0  0  0
 20 49  1  6  0  0  0
 21 22  1  0  0  0  0
 21 50  1  0  0  0  0
 22 23  2  0  0  0  0
 23 24  1  0  0  0  0
 23 47  1  0  0  0  0
 24 25  1  0  0  0  0
 24 26  2  0  0  0  0
 26 48  1  0  0  0  0
M  CHG  1  20   1
M  END
$$$$
