4S4
 OpenBabel04111923013D

 33 34  0  0  1  0  0  0  0  0999 V2000
  -13.3467   17.7820   21.6796 C   0  0  0  0  0  0  0  0  0  0  0  0
  -12.4137   20.0358   22.2178 C   0  0  0  0  0  0  0  0  0  0  0  0
  -12.7200   20.1349   23.5752 C   0  0  0  0  0  0  0  0  0  0  0  0
  -12.1248   21.1331   24.3598 C   0  0  0  0  0  0  0  0  0  0  0  0
  -11.2262   22.0422   23.7825 C   0  0  0  0  0  0  0  0  0  0  0  0
  -10.9207   21.9424   22.4249 C   0  0  0  0  0  0  0  0  0  0  0  0
  -13.9523   17.0006   20.6082 C   0  0  1  0  0  0  0  0  0  0  0  0
  -13.8505   17.1324   19.2337 C   0  0  0  0  0  0  0  0  0  0  0  0
  -14.6287   16.1177   18.6356 C   0  0  1  0  0  0  0  0  0  0  0  0
  -15.2011   15.3793   19.6380 C   0  0  1  0  0  0  0  0  0  0  0  0
  -13.1571   17.2863   22.7740 O   0  0  0  0  0  0  0  0  0  0  0  0
  -13.0036   19.0849   21.3539 N   0  0  0  0  0  0  0  0  0  0  0  0
  -11.5272   20.9531   21.6469 C   0  0  0  0  0  0  0  0  0  0  0  0
  -10.5867   23.0713   24.6333 C   0  0  0  0  0  0  0  0  0  0  0  0
  -10.1539   22.7470   25.7484 O   0  0  0  0  0  0  0  0  0  0  0  0
  -10.5111   24.3412   24.1730 N   0  0  0  0  0  0  0  0  0  0  0  0
   -9.8918   25.4164   24.9666 C   0  0  0  0  0  0  0  0  0  0  0  0
   -9.5924   26.6749   24.1133 C   0  0  0  0  0  0  0  0  0  0  0  0
   -8.8912   27.5291   24.7104 O   0  0  0  0  0  0  0  0  0  0  0  0
  -10.0601   26.7088   22.9487 O   0  0  0  0  0  0  0  0  0  0  0  0
  -14.7772   15.9316   16.7750 Br  0  0  0  0  0  0  0  0  0  0  0  0
  -16.3487   13.9113   19.4804 Br  0  0  0  0  0  0  0  0  0  0  0  0
  -14.7817   15.9043   20.8359 N   0  3  0  0  0  0  0  0  0  0  0  0
  -13.4420   19.4649   24.0322 H   0  0  0  0  0  0  0  0  0  0  0  0
  -12.3684   21.1999   25.4188 H   0  0  0  0  0  0  0  0  0  0  0  0
  -10.2131   22.6269   21.9696 H   0  0  0  0  0  0  0  0  0  0  0  0
  -13.2685   17.8869   18.7234 H   0  0  0  0  0  0  0  0  0  0  0  0
  -13.1727   19.3981   20.4125 H   0  0  0  0  0  0  0  0  0  0  0  0
  -11.2812   20.8913   20.5917 H   0  0  0  0  0  0  0  0  0  0  0  0
  -10.8654   24.6111   23.2622 H   0  0  0  0  0  0  0  0  0  0  0  0
   -8.9604   25.0328   25.4223 H   0  0  0  0  0  0  0  0  0  0  0  0
  -10.5726   25.6789   25.7967 H   0  0  0  0  0  0  0  0  0  0  0  0
  -15.0554   15.5513   21.7477 H   0  0  0  0  0  0  0  0  0  0  0  0
  1 11  2  0  0  0  0
  1 12  1  0  0  0  0
  2  3  2  0  0  0  0
  2 12  1  0  0  0  0
  2 13  1  0  0  0  0
  3  4  1  0  0  0  0
  3 24  1  0  0  0  0
  4  5  2  0  0  0  0
  4 25  1  0  0  0  0
  5  6  1  0  0  0  0
  5 14  1  0  0  0  0
  6 13  2  0  0  0  0
  6 26  1  0  0  0  0
  7  1  1  1  0  0  0
  7  8  1  0  0  0  0
  7 23  1  0  0  0  0
  8  9  1  0  0  0  0
  8 27  1  0  0  0  0
  9 10  1  0  0  0  0
  9 21  1  6  0  0  0
 10 22  1  6  0  0  0
 10 23  1  0  0  0  0
 12 28  1  0  0  0  0
 13 29  1  0  0  0  0
 14 15  2  0  0  0  0
 14 16  1  0  0  0  0
 16 17  1  0  0  0  0
 16 30  1  0  0  0  0
 17 18  1  0  0  0  0
 17 31  1  0  0  0  0
 17 32  1  0  0  0  0
 18 19  2  0  0  0  0
 18 20  1  0  0  0  0
 23 33  1  0  0  0  0
M  CHG  1  23   1
M  END
$$$$
