4SY
 OpenBabel04111923033D

 47 48  0  0  1  0  0  0  0  0999 V2000
   88.6591  120.1099  132.2253 C   0  0  0  0  0  0  0  0  0  0  0  0
   88.3404  121.4124  132.6318 C   0  0  0  0  0  0  0  0  0  0  0  0
   87.9096  121.6522  133.9347 C   0  0  0  0  0  0  0  0  0  0  0  0
   88.5673  119.0599  133.1502 C   0  0  0  0  0  0  0  0  0  0  0  0
   88.1317  119.3014  134.4537 C   0  0  0  0  0  0  0  0  0  0  0  0
   87.8024  120.6006  134.8549 C   0  0  0  0  0  0  0  0  0  0  0  0
   87.3968  120.8744  136.2125 C   0  0  0  0  0  0  0  0  0  0  0  0
   88.0208  121.7915  137.0284 C   0  0  0  0  0  0  0  0  0  0  0  0
   86.3733  120.3335  137.0191 C   0  0  0  0  0  0  0  0  0  0  0  0
   86.3509  120.8750  138.2479 N   0  0  0  0  0  0  0  0  0  0  0  0
   87.3726  121.7670  138.2329 N   0  3  0  0  0  0  0  0  0  0  0  0
   87.7103  122.5767  139.3864 C   0  0  0  0  0  0  0  0  0  0  0  0
   90.7869  117.1495  127.2678 C   0  0  0  0  0  0  0  0  0  0  0  0
   91.6451  118.2542  127.9062 C   0  0  0  0  0  0  0  0  0  0  0  0
   91.8382  119.3422  126.8519 C   0  0  0  0  0  0  0  0  0  0  0  0
   92.9983  117.6661  128.3174 C   0  0  0  0  0  0  0  0  0  0  0  0
   90.9016  118.7681  129.0454 O   0  0  0  0  0  0  0  0  0  0  0  0
   91.4164  119.7773  129.8032 C   0  0  0  0  0  0  0  0  0  0  0  0
   92.5109  120.2864  129.6895 O   0  0  0  0  0  0  0  0  0  0  0  0
   90.5301  120.2672  130.7190 N   0  0  0  0  0  0  0  0  0  0  0  0
   89.1653  119.8177  130.8329 C   0  0  2  0  0  0  0  0  0  0  0  0
   88.2666  120.4222  129.7373 C   0  0  0  0  0  0  0  0  0  0  0  0
   87.1757  119.9254  129.4763 O   0  0  0  0  0  0  0  0  0  0  0  0
   88.7142  121.5953  129.1596 N   0  0  0  0  0  0  0  0  0  0  0  0
   87.8737  122.1365  128.1695 O   0  0  0  0  0  0  0  0  0  0  0  0
   88.4260  122.2477  131.9413 H   0  0  0  0  0  0  0  0  0  0  0  0
   87.6511  122.6670  134.2295 H   0  0  0  0  0  0  0  0  0  0  0  0
   88.8438  118.0502  132.8535 H   0  0  0  0  0  0  0  0  0  0  0  0
   88.0778  118.4698  135.1524 H   0  0  0  0  0  0  0  0  0  0  0  0
   88.8684  122.4331  136.8496 H   0  0  0  0  0  0  0  0  0  0  0  0
   85.6540  119.5757  136.7312 H   0  0  0  0  0  0  0  0  0  0  0  0
   87.0407  122.3787  140.2273 H   0  0  0  0  0  0  0  0  0  0  0  0
   87.6436  123.6352  139.1134 H   0  0  0  0  0  0  0  0  0  0  0  0
   88.7412  122.3608  139.6867 H   0  0  0  0  0  0  0  0  0  0  0  0
   91.2732  116.7244  126.3807 H   0  0  0  0  0  0  0  0  0  0  0  0
   89.8094  117.5377  126.9565 H   0  0  0  0  0  0  0  0  0  0  0  0
   90.5949  116.3382  127.9768 H   0  0  0  0  0  0  0  0  0  0  0  0
   92.4424  120.1655  127.2379 H   0  0  0  0  0  0  0  0  0  0  0  0
   90.8740  119.7586  126.5438 H   0  0  0  0  0  0  0  0  0  0  0  0
   92.3440  118.9386  125.9690 H   0  0  0  0  0  0  0  0  0  0  0  0
   92.8749  116.8905  129.0789 H   0  0  0  0  0  0  0  0  0  0  0  0
   93.6585  118.4283  128.7396 H   0  0  0  0  0  0  0  0  0  0  0  0
   93.5225  117.2333  127.4580 H   0  0  0  0  0  0  0  0  0  0  0  0
   90.8533  121.0294  131.3021 H   0  0  0  0  0  0  0  0  0  0  0  0
   89.1502  118.7333  130.6670 H   0  0  0  0  0  0  0  0  0  0  0  0
   89.6133  122.0192  129.3679 H   0  0  0  0  0  0  0  0  0  0  0  0
   88.3378  122.9209  127.8311 H   0  0  0  0  0  0  0  0  0  0  0  0
  1  2  2  0  0  0  0
  1  4  1  0  0  0  0
  1 21  1  0  0  0  0
  2  3  1  0  0  0  0
  2 26  1  0  0  0  0
  3  6  2  0  0  0  0
  3 27  1  0  0  0  0
  4  5  2  0  0  0  0
  4 28  1  0  0  0  0
  5  6  1  0  0  0  0
  5 29  1  0  0  0  0
  6  7  1  0  0  0  0
  7  8  1  0  0  0  0
  7  9  2  0  0  0  0
  8 11  2  0  0  0  0
  8 30  1  0  0  0  0
  9 10  1  0  0  0  0
  9 31  1  0  0  0  0
 10 11  1  0  0  0  0
 11 12  1  0  0  0  0
 12 32  1  0  0  0  0
 12 33  1  0  0  0  0
 12 34  1  0  0  0  0
 13 14  1  0  0  0  0
 13 35  1  0  0  0  0
 13 36  1  0  0  0  0
 13 37  1  0  0  0  0
 14 15  1  0  0  0  0
 14 16  1  0  0  0  0
 14 17  1  0  0  0  0
 15 38  1  0  0  0  0
 15 39  1  0  0  0  0
 15 40  1  0  0  0  0
 16 41  1  0  0  0  0
 16 42  1  0  0  0  0
 16 43  1  0  0  0  0
 17 18  1  0  0  0  0
 18 19  2  0  0  0  0
 18 20  1  0  0  0  0
 20 21  1  0  0  0  0
 20 44  1  0  0  0  0
 21 22  1  0  0  0  0
 21 45  1  6  0  0  0
 22 23  2  0  0  0  0
 22 24  1  0  0  0  0
 24 25  1  0  0  0  0
 24 46  1  0  0  0  0
 25 47  1  0  0  0  0
M  CHG  1  11   1
M  END
$$$$
