4SZ
 OpenBabel04111923033D

 47 48  0  0  1  0  0  0  0  0999 V2000
   93.2174  117.3921  128.0868 C   0  0  0  0  0  0  0  0  0  0  0  0
   91.8748  118.0006  127.6688 C   0  0  0  0  0  0  0  0  0  0  0  0
   90.9940  116.8935  127.0712 C   0  0  0  0  0  0  0  0  0  0  0  0
   92.0645  119.0916  126.6106 C   0  0  0  0  0  0  0  0  0  0  0  0
   91.1329  118.5189  128.8004 O   0  0  0  0  0  0  0  0  0  0  0  0
   91.6447  119.5228  129.5380 C   0  0  0  0  0  0  0  0  0  0  0  0
   92.7578  120.0238  129.4229 O   0  0  0  0  0  0  0  0  0  0  0  0
   90.7774  120.0343  130.4350 N   0  0  0  0  0  0  0  0  0  0  0  0
   89.4133  119.5704  130.6009 C   0  0  2  0  0  0  0  0  0  0  0  0
   88.4920  120.0983  129.4872 C   0  0  0  0  0  0  0  0  0  0  0  0
   87.4445  119.5320  129.1840 O   0  0  0  0  0  0  0  0  0  0  0  0
   88.9033  121.3180  128.9908 N   0  0  0  0  0  0  0  0  0  0  0  0
   88.1293  121.9069  127.9784 O   0  0  0  0  0  0  0  0  0  0  0  0
   88.9463  119.9971  131.9667 C   0  0  0  0  0  0  0  0  0  0  0  0
   88.7938  119.0042  132.9373 C   0  0  0  0  0  0  0  0  0  0  0  0
   88.4298  119.3494  134.2226 C   0  0  0  0  0  0  0  0  0  0  0  0
   88.7563  121.3481  132.3009 C   0  0  0  0  0  0  0  0  0  0  0  0
   88.3979  121.6934  133.5934 C   0  0  0  0  0  0  0  0  0  0  0  0
   88.2312  120.6914  134.5597 C   0  0  0  0  0  0  0  0  0  0  0  0
   87.9479  121.0312  135.9377 C   0  0  0  0  0  0  0  0  0  0  0  0
   88.8593  121.8402  136.6272 C   0  0  0  0  0  0  0  0  0  0  0  0
   88.6463  122.1085  137.9738 C   0  0  0  0  0  0  0  0  0  0  0  0
   89.5388  122.8615  138.6287 F   0  0  0  0  0  0  0  0  0  0  0  0
   87.5371  121.5889  138.6298 C   0  0  0  0  0  0  0  0  0  0  0  0
   87.3468  121.8530  139.9269 F   0  0  0  0  0  0  0  0  0  0  0  0
   86.6359  120.7867  137.9418 C   0  0  0  0  0  0  0  0  0  0  0  0
   85.5757  120.2698  138.5737 F   0  0  0  0  0  0  0  0  0  0  0  0
   86.8329  120.5004  136.5997 C   0  0  0  0  0  0  0  0  0  0  0  0
   93.7610  117.0098  127.2162 H   0  0  0  0  0  0  0  0  0  0  0  0
   93.0746  116.5707  128.7974 H   0  0  0  0  0  0  0  0  0  0  0  0
   93.8671  118.1201  128.5786 H   0  0  0  0  0  0  0  0  0  0  0  0
   90.0137  117.2898  126.7805 H   0  0  0  0  0  0  0  0  0  0  0  0
   90.8028  116.1030  127.8064 H   0  0  0  0  0  0  0  0  0  0  0  0
   91.4603  116.4421  126.1892 H   0  0  0  0  0  0  0  0  0  0  0  0
   92.6907  119.9095  126.9776 H   0  0  0  0  0  0  0  0  0  0  0  0
   91.1018  119.5336  126.3297 H   0  0  0  0  0  0  0  0  0  0  0  0
   92.5415  118.6884  125.7115 H   0  0  0  0  0  0  0  0  0  0  0  0
   91.1486  120.7594  131.0340 H   0  0  0  0  0  0  0  0  0  0  0  0
   89.4112  118.4763  130.5290 H   0  0  0  0  0  0  0  0  0  0  0  0
   89.7821  121.7414  129.2699 H   0  0  0  0  0  0  0  0  0  0  0  0
   88.6366  122.6983  127.7293 H   0  0  0  0  0  0  0  0  0  0  0  0
   88.9804  117.9592  132.7016 H   0  0  0  0  0  0  0  0  0  0  0  0
   88.3403  118.5680  134.9741 H   0  0  0  0  0  0  0  0  0  0  0  0
   88.9012  122.1461  131.5752 H   0  0  0  0  0  0  0  0  0  0  0  0
   88.2687  122.7431  133.8518 H   0  0  0  0  0  0  0  0  0  0  0  0
   89.7449  122.2234  136.1404 H   0  0  0  0  0  0  0  0  0  0  0  0
   86.1282  119.8539  136.0793 H   0  0  0  0  0  0  0  0  0  0  0  0
  1  2  1  0  0  0  0
  1 29  1  0  0  0  0
  1 30  1  0  0  0  0
  1 31  1  0  0  0  0
  2  3  1  0  0  0  0
  2  4  1  0  0  0  0
  2  5  1  0  0  0  0
  3 32  1  0  0  0  0
  3 33  1  0  0  0  0
  3 34  1  0  0  0  0
  4 35  1  0  0  0  0
  4 36  1  0  0  0  0
  4 37  1  0  0  0  0
  5  6  1  0  0  0  0
  6  7  2  0  0  0  0
  6  8  1  0  0  0  0
  8  9  1  0  0  0  0
  8 38  1  0  0  0  0
  9 10  1  0  0  0  0
  9 14  1  0  0  0  0
  9 39  1  6  0  0  0
 10 11  2  0  0  0  0
 10 12  1  0  0  0  0
 12 13  1  0  0  0  0
 12 40  1  0  0  0  0
 13 41  1  0  0  0  0
 14 15  2  0  0  0  0
 14 17  1  0  0  0  0
 15 16  1  0  0  0  0
 15 42  1  0  0  0  0
 16 19  2  0  0  0  0
 16 43  1  0  0  0  0
 17 18  2  0  0  0  0
 17 44  1  0  0  0  0
 18 19  1  0  0  0  0
 18 45  1  0  0  0  0
 19 20  1  0  0  0  0
 20 21  2  0  0  0  0
 20 28  1  0  0  0  0
 21 22  1  0  0  0  0
 21 46  1  0  0  0  0
 22 23  1  0  0  0  0
 22 24  2  0  0  0  0
 24 25  1  0  0  0  0
 24 26  1  0  0  0  0
 26 27  1  0  0  0  0
 26 28  2  0  0  0  0
 28 47  1  0  0  0  0
M  END
$$$$
