4T2
 OpenBabel04111923043D

 54 55  0  0  1  0  0  0  0  0999 V2000
   93.4999  117.5356  127.7586 C   0  0  0  0  0  0  0  0  0  0  0  0
   92.0763  118.0702  127.6513 C   0  0  0  0  0  0  0  0  0  0  0  0
   91.1938  116.9695  127.0518 C   0  0  0  0  0  0  0  0  0  0  0  0
   92.0212  119.2804  126.7211 C   0  0  0  0  0  0  0  0  0  0  0  0
   91.4956  118.4182  128.9320 O   0  0  0  0  0  0  0  0  0  0  0  0
   91.9975  119.4787  129.6093 C   0  0  0  0  0  0  0  0  0  0  0  0
   93.1042  119.9729  129.4967 O   0  0  0  0  0  0  0  0  0  0  0  0
   91.0762  120.0725  130.4134 N   0  0  0  0  0  0  0  0  0  0  0  0
   89.7240  119.6131  130.5417 C   0  0  2  0  0  0  0  0  0  0  0  0
   88.7844  120.2009  129.4836 C   0  0  0  0  0  0  0  0  0  0  0  0
   87.6754  119.7159  129.2330 O   0  0  0  0  0  0  0  0  0  0  0  0
   89.1988  121.4143  128.9910 N   0  0  0  0  0  0  0  0  0  0  0  0
   88.4601  121.9996  127.9502 O   0  0  0  0  0  0  0  0  0  0  0  0
   89.2674  119.9643  131.9205 C   0  0  0  0  0  0  0  0  0  0  0  0
   89.1567  121.3016  132.3161 C   0  0  0  0  0  0  0  0  0  0  0  0
   88.7593  121.5840  133.6025 C   0  0  0  0  0  0  0  0  0  0  0  0
   89.0120  118.9132  132.8026 C   0  0  0  0  0  0  0  0  0  0  0  0
   88.6199  119.1992  134.0834 C   0  0  0  0  0  0  0  0  0  0  0  0
   88.4848  120.5303  134.4800 C   0  0  0  0  0  0  0  0  0  0  0  0
   88.0886  120.8047  135.8330 C   0  0  0  0  0  0  0  0  0  0  0  0
   88.8651  121.6683  136.5947 C   0  0  0  0  0  0  0  0  0  0  0  0
   86.9617  120.1936  136.3773 C   0  0  0  0  0  0  0  0  0  0  0  0
   86.5922  120.4517  137.6838 C   0  0  0  0  0  0  0  0  0  0  0  0
   87.3602  121.3175  138.4495 C   0  0  0  0  0  0  0  0  0  0  0  0
   88.5029  121.9184  137.9008 C   0  0  0  0  0  0  0  0  0  0  0  0
   89.3007  122.8397  138.6851 C   0  0  0  0  0  0  0  0  0  0  0  0
   88.6639  123.7702  139.3742 N   0  0  0  0  0  0  0  0  0  0  0  0
   90.6186  122.7145  138.6566 N   0  3  0  0  0  0  0  0  0  0  0  0
   91.4056  123.5286  139.4573 O   0  0  0  0  0  0  0  0  0  0  0  0
   93.8949  117.2970  126.7632 H   0  0  0  0  0  0  0  0  0  0  0  0
   93.5352  116.6292  128.3702 H   0  0  0  0  0  0  0  0  0  0  0  0
   94.1706  118.2664  128.2130 H   0  0  0  0  0  0  0  0  0  0  0  0
   90.1538  117.3031  126.9714 H   0  0  0  0  0  0  0  0  0  0  0  0
   91.1992  116.0750  127.6840 H   0  0  0  0  0  0  0  0  0  0  0  0
   91.5455  116.6884  126.0523 H   0  0  0  0  0  0  0  0  0  0  0  0
   92.6336  120.1011  127.1040 H   0  0  0  0  0  0  0  0  0  0  0  0
   90.9954  119.6550  126.6357 H   0  0  0  0  0  0  0  0  0  0  0  0
   92.3915  119.0260  125.7242 H   0  0  0  0  0  0  0  0  0  0  0  0
   91.3947  120.9129  130.8802 H   0  0  0  0  0  0  0  0  0  0  0  0
   89.7071  118.5230  130.4327 H   0  0  0  0  0  0  0  0  0  0  0  0
   90.1241  121.7822  129.1780 H   0  0  0  0  0  0  0  0  0  0  0  0
   87.5845  122.1408  128.3600 H   0  0  0  0  0  0  0  0  0  0  0  0
   89.3769  122.1176  131.6338 H   0  0  0  0  0  0  0  0  0  0  0  0
   88.6690  122.6195  133.9191 H   0  0  0  0  0  0  0  0  0  0  0  0
   89.1244  117.8786  132.4906 H   0  0  0  0  0  0  0  0  0  0  0  0
   88.4257  118.3847  134.7768 H   0  0  0  0  0  0  0  0  0  0  0  0
   89.7411  122.1395  136.1558 H   0  0  0  0  0  0  0  0  0  0  0  0
   86.3747  119.5057  135.7713 H   0  0  0  0  0  0  0  0  0  0  0  0
   85.7151  119.9717  138.0996 H   0  0  0  0  0  0  0  0  0  0  0  0
   87.0614  121.5070  139.4785 H   0  0  0  0  0  0  0  0  0  0  0  0
   89.1325  124.4119  139.9622 H   0  0  0  0  0  0  0  0  0  0  0  0
   91.0713  121.9302  138.1821 H   0  0  0  0  0  0  0  0  0  0  0  0
   91.2196  124.4377  139.1525 H   0  0  0  0  0  0  0  0  0  0  0  0
   87.6438  123.8321  139.3679 H   0  0  0  0  0  0  0  0  0  0  0  0
  1  2  1  0  0  0  0
  1 30  1  0  0  0  0
  1 31  1  0  0  0  0
  1 32  1  0  0  0  0
  2  3  1  0  0  0  0
  2  4  1  0  0  0  0
  2  5  1  0  0  0  0
  3 33  1  0  0  0  0
  3 34  1  0  0  0  0
  3 35  1  0  0  0  0
  4 36  1  0  0  0  0
  4 37  1  0  0  0  0
  4 38  1  0  0  0  0
  5  6  1  0  0  0  0
  6  7  2  0  0  0  0
  6  8  1  0  0  0  0
  8  9  1  0  0  0  0
  8 39  1  0  0  0  0
  9 10  1  0  0  0  0
  9 14  1  0  0  0  0
  9 40  1  6  0  0  0
 10 11  2  0  0  0  0
 10 12  1  0  0  0  0
 12 13  1  0  0  0  0
 12 41  1  0  0  0  0
 13 42  1  0  0  0  0
 14 15  2  0  0  0  0
 14 17  1  0  0  0  0
 15 16  1  0  0  0  0
 15 43  1  0  0  0  0
 16 19  2  0  0  0  0
 16 44  1  0  0  0  0
 17 18  2  0  0  0  0
 17 45  1  0  0  0  0
 18 19  1  0  0  0  0
 18 46  1  0  0  0  0
 19 20  1  0  0  0  0
 20 21  2  0  0  0  0
 20 22  1  0  0  0  0
 21 25  1  0  0  0  0
 21 47  1  0  0  0  0
 22 23  2  0  0  0  0
 22 48  1  0  0  0  0
 23 24  1  0  0  0  0
 23 49  1  0  0  0  0
 24 25  2  0  0  0  0
 24 50  1  0  0  0  0
 25 26  1  0  0  0  0
 26 27  2  0  0  0  0
 26 28  1  0  0  0  0
 27 51  1  0  0  0  0
 27 54  1  0  0  0  0
 28 29  1  0  0  0  0
 28 52  1  0  0  0  0
 29 53  1  0  0  0  0
M  CHG  1  28   1
M  END
$$$$
