4T4
 OpenBabel04111923073D

 95100  0  0  1  0  0  0  0  0999 V2000
  -21.7050   -7.8780   -5.9915 C   0  0  0  0  0  0  0  0  0  0  0  0
   -5.2186  -14.6216   -1.5213 C   0  0  0  0  0  0  0  0  0  0  0  0
   -6.1929  -14.1749   -0.6312 C   0  0  0  0  0  0  0  0  0  0  0  0
   -9.0057  -10.9150   -2.7384 C   0  0  0  0  0  0  0  0  0  0  0  0
   -9.3077  -12.2081   -3.1349 C   0  0  0  0  0  0  0  0  0  0  0  0
  -10.5552  -12.7569   -2.8168 C   0  0  0  0  0  0  0  0  0  0  0  0
  -11.5498  -12.0492   -2.1087 C   0  0  0  0  0  0  0  0  0  0  0  0
  -11.2055  -10.7344   -1.7477 C   0  0  0  0  0  0  0  0  0  0  0  0
   -9.9522  -10.1752   -2.0421 C   0  0  0  0  0  0  0  0  0  0  0  0
  -13.8141  -11.8841   -1.0296 C   0  0  0  0  0  0  0  0  0  0  0  0
  -14.7539  -11.0359   -1.9246 C   0  0  2  0  0  0  0  0  0  0  0  0
  -15.7866  -10.2824   -1.0537 C   0  0  0  0  0  0  0  0  0  0  0  0
   -6.7622  -10.5757   -1.8440 C   0  0  2  0  0  0  0  0  0  0  0  0
   -7.3572   -9.8975   -4.1904 C   0  0  0  0  0  0  0  0  0  0  0  0
   -5.9668   -9.3050   -4.3472 C   0  0  0  0  0  0  0  0  0  0  0  0
   -5.2557   -8.9482   -3.0623 C   0  0  0  0  0  0  0  0  0  0  0  0
   -5.6474   -9.5517   -1.8646 C   0  0  0  0  0  0  0  0  0  0  0  0
   -4.9493   -9.2787   -0.6767 C   0  0  0  0  0  0  0  0  0  0  0  0
   -3.8606   -8.4151   -0.6664 C   0  0  0  0  0  0  0  0  0  0  0  0
   -3.4550   -7.8049   -1.8716 C   0  0  0  0  0  0  0  0  0  0  0  0
   -4.1504   -8.0761   -3.0602 C   0  0  0  0  0  0  0  0  0  0  0  0
   -1.8941   -6.3200   -2.9344 C   0  0  0  0  0  0  0  0  0  0  0  0
   -4.5890  -16.2158   -1.3759 Cl  0  0  0  0  0  0  0  0  0  0  0  0
   -6.6957  -12.8744   -0.7465 C   0  0  0  0  0  0  0  0  0  0  0  0
   -6.2280  -12.0079   -1.7531 C   0  0  0  0  0  0  0  0  0  0  0  0
   -5.2532  -12.4871   -2.6454 C   0  0  0  0  0  0  0  0  0  0  0  0
   -4.7479  -13.7843   -2.5259 C   0  0  0  0  0  0  0  0  0  0  0  0
   -7.7149  -10.3815   -2.9449 N   0  0  0  0  0  0  0  0  0  0  0  0
   -2.3700   -6.9708   -1.7680 O   0  0  0  0  0  0  0  0  0  0  0  0
   -3.1115   -8.1287    0.4483 O   0  0  0  0  0  0  0  0  0  0  0  0
   -3.4874   -8.6629    1.7216 C   0  0  0  0  0  0  0  0  0  0  0  0
   -2.9235   -7.7235    2.7840 C   0  0  0  0  0  0  0  0  0  0  0  0
   -2.9012  -10.0599    1.9149 C   0  0  0  0  0  0  0  0  0  0  0  0
   -8.1220   -9.9118   -5.1684 O   0  0  0  0  0  0  0  0  0  0  0  0
  -12.7936  -12.6064   -1.8111 N   0  0  0  0  0  0  0  0  0  0  0  0
  -16.8366   -9.5061   -1.8759 C   0  0  0  0  0  0  0  0  0  0  0  0
  -17.5137  -10.4311   -2.8887 C   0  0  2  0  0  0  0  0  0  0  0  0
  -16.4680  -11.0750   -3.7976 C   0  0  0  0  0  0  0  0  0  0  0  0
  -15.4783  -11.8952   -2.9761 C   0  0  0  0  0  0  0  0  0  0  0  0
  -18.5945   -9.7707   -3.7225 N   0  3  1  0  0  0  0  0  0  0  0  0
  -19.8127   -9.2888   -2.9577 C   0  0  0  0  0  0  0  0  0  0  0  0
  -20.9671   -9.1405   -3.9601 C   0  0  0  0  0  0  0  0  0  0  0  0
  -20.6186   -8.3414   -5.1358 N   0  0  0  0  0  0  0  0  0  0  0  0
  -19.3148   -8.1330   -5.5766 C   0  0  0  0  0  0  0  0  0  0  0  0
  -18.1679   -8.6788   -4.7053 C   0  0  0  0  0  0  0  0  0  0  0  0
  -19.0604   -7.5090   -6.6046 O   0  0  0  0  0  0  0  0  0  0  0  0
  -13.0498  -14.0427   -1.9813 C   0  0  0  0  0  0  0  0  0  0  0  0
  -22.6760   -8.1686   -5.5813 H   0  0  0  0  0  0  0  0  0  0  0  0
  -21.5897   -8.3050   -6.9929 H   0  0  0  0  0  0  0  0  0  0  0  0
  -21.6503   -6.7876   -6.0637 H   0  0  0  0  0  0  0  0  0  0  0  0
   -6.5594  -14.8308    0.1530 H   0  0  0  0  0  0  0  0  0  0  0  0
   -8.5764  -12.8100   -3.6657 H   0  0  0  0  0  0  0  0  0  0  0  0
  -10.6990  -13.7763   -3.1578 H   0  0  0  0  0  0  0  0  0  0  0  0
  -11.8984  -10.0959   -1.2108 H   0  0  0  0  0  0  0  0  0  0  0  0
   -9.7289   -9.1585   -1.7272 H   0  0  0  0  0  0  0  0  0  0  0  0
  -14.4230  -12.6086   -0.4710 H   0  0  0  0  0  0  0  0  0  0  0  0
  -13.3566  -11.2635   -0.2493 H   0  0  0  0  0  0  0  0  0  0  0  0
  -14.1511  -10.2883   -2.4571 H   0  0  0  0  0  0  0  0  0  0  0  0
  -15.2657   -9.5869   -0.3846 H   0  0  0  0  0  0  0  0  0  0  0  0
  -16.3097  -11.0022   -0.4108 H   0  0  0  0  0  0  0  0  0  0  0  0
   -7.3287  -10.3644   -0.9243 H   0  0  0  0  0  0  0  0  0  0  0  0
   -6.0769   -8.3940   -4.9484 H   0  0  0  0  0  0  0  0  0  0  0  0
   -5.3614  -10.0215   -4.9123 H   0  0  0  0  0  0  0  0  0  0  0  0
   -5.2694   -9.7898    0.2235 H   0  0  0  0  0  0  0  0  0  0  0  0
   -3.8392   -7.6316   -4.0018 H   0  0  0  0  0  0  0  0  0  0  0  0
   -1.0484   -5.6915   -2.6356 H   0  0  0  0  0  0  0  0  0  0  0  0
   -2.6569   -5.6642   -3.3654 H   0  0  0  0  0  0  0  0  0  0  0  0
   -1.5269   -7.0424   -3.6699 H   0  0  0  0  0  0  0  0  0  0  0  0
   -7.4575  -12.5450   -0.0409 H   0  0  0  0  0  0  0  0  0  0  0  0
   -4.8566  -11.8541   -3.4301 H   0  0  0  0  0  0  0  0  0  0  0  0
   -3.9828  -14.1255   -3.2168 H   0  0  0  0  0  0  0  0  0  0  0  0
   -4.5765   -8.6704    1.8506 H   0  0  0  0  0  0  0  0  0  0  0  0
   -3.1461   -8.0864    3.7927 H   0  0  0  0  0  0  0  0  0  0  0  0
   -3.3520   -6.7214    2.6733 H   0  0  0  0  0  0  0  0  0  0  0  0
   -1.8380   -7.6172    2.6798 H   0  0  0  0  0  0  0  0  0  0  0  0
   -3.1661  -10.4624    2.8983 H   0  0  0  0  0  0  0  0  0  0  0  0
   -1.8087  -10.0397    1.8311 H   0  0  0  0  0  0  0  0  0  0  0  0
   -3.2595  -10.7588    1.1531 H   0  0  0  0  0  0  0  0  0  0  0  0
  -16.3421   -8.6689   -2.3812 H   0  0  0  0  0  0  0  0  0  0  0  0
  -17.5741   -9.0788   -1.1866 H   0  0  0  0  0  0  0  0  0  0  0  0
  -18.0372  -11.2293   -2.3442 H   0  0  0  0  0  0  0  0  0  0  0  0
  -15.9060  -10.3109   -4.3470 H   0  0  0  0  0  0  0  0  0  0  0  0
  -16.9485  -11.7235   -4.5430 H   0  0  0  0  0  0  0  0  0  0  0  0
  -16.0118  -12.7174   -2.4826 H   0  0  0  0  0  0  0  0  0  0  0  0
  -14.7543  -12.3425   -3.6653 H   0  0  0  0  0  0  0  0  0  0  0  0
  -19.5564   -8.3289   -2.4953 H   0  0  0  0  0  0  0  0  0  0  0  0
  -20.0553  -10.0248   -2.1860 H   0  0  0  0  0  0  0  0  0  0  0  0
  -21.8251   -8.6738   -3.4639 H   0  0  0  0  0  0  0  0  0  0  0  0
  -21.2796  -10.1272   -4.3221 H   0  0  0  0  0  0  0  0  0  0  0  0
  -17.4328   -9.1272   -5.3778 H   0  0  0  0  0  0  0  0  0  0  0  0
  -17.7284   -7.8597   -4.1304 H   0  0  0  0  0  0  0  0  0  0  0  0
  -12.2748  -14.6122   -2.4884 H   0  0  0  0  0  0  0  0  0  0  0  0
  -13.9609  -14.1886   -2.5692 H   0  0  0  0  0  0  0  0  0  0  0  0
  -13.1979  -14.5177   -1.0036 H   0  0  0  0  0  0  0  0  0  0  0  0
  -18.9409  -10.5235   -4.3347 H   0  0  0  0  0  0  0  0  0  0  0  0
  1 43  1  0  0  0  0
  1 48  1  0  0  0  0
  1 49  1  0  0  0  0
  1 50  1  0  0  0  0
  2  3  2  0  0  0  0
  2 23  1  0  0  0  0
  2 27  1  0  0  0  0
  3 24  1  0  0  0  0
  3 51  1  0  0  0  0
  4  5  2  0  0  0  0
  4  9  1  0  0  0  0
  4 28  1  0  0  0  0
  5  6  1  0  0  0  0
  5 52  1  0  0  0  0
  6  7  2  0  0  0  0
  6 53  1  0  0  0  0
  7  8  1  0  0  0  0
  7 35  1  0  0  0  0
  8  9  2  0  0  0  0
  8 54  1  0  0  0  0
  9 55  1  0  0  0  0
 10 11  1  0  0  0  0
 10 35  1  0  0  0  0
 10 56  1  0  0  0  0
 10 57  1  0  0  0  0
 11 12  1  0  0  0  0
 11 39  1  0  0  0  0
 11 58  1  6  0  0  0
 12 36  1  0  0  0  0
 12 59  1  0  0  0  0
 12 60  1  0  0  0  0
 13 17  1  0  0  0  0
 13 25  1  0  0  0  0
 13 28  1  0  0  0  0
 13 61  1  1  0  0  0
 14 15  1  0  0  0  0
 14 28  1  0  0  0  0
 14 34  2  0  0  0  0
 15 16  1  0  0  0  0
 15 62  1  0  0  0  0
 15 63  1  0  0  0  0
 16 17  2  0  0  0  0
 16 21  1  0  0  0  0
 17 18  1  0  0  0  0
 18 19  2  0  0  0  0
 18 64  1  0  0  0  0
 19 20  1  0  0  0  0
 19 30  1  0  0  0  0
 20 21  2  0  0  0  0
 20 29  1  0  0  0  0
 21 65  1  0  0  0  0
 22 29  1  0  0  0  0
 22 66  1  0  0  0  0
 22 67  1  0  0  0  0
 22 68  1  0  0  0  0
 24 25  2  0  0  0  0
 24 69  1  0  0  0  0
 25 26  1  0  0  0  0
 26 27  2  0  0  0  0
 26 70  1  0  0  0  0
 27 71  1  0  0  0  0
 30 31  1  0  0  0  0
 31 32  1  0  0  0  0
 31 33  1  0  0  0  0
 31 72  1  0  0  0  0
 32 73  1  0  0  0  0
 32 74  1  0  0  0  0
 32 75  1  0  0  0  0
 33 76  1  0  0  0  0
 33 77  1  0  0  0  0
 33 78  1  0  0  0  0
 35 47  1  0  0  0  0
 36 37  1  0  0  0  0
 36 79  1  0  0  0  0
 36 80  1  0  0  0  0
 37 38  1  0  0  0  0
 37 40  1  0  0  0  0
 37 81  1  1  0  0  0
 38 39  1  0  0  0  0
 38 82  1  0  0  0  0
 38 83  1  0  0  0  0
 39 84  1  0  0  0  0
 39 85  1  0  0  0  0
 40 41  1  0  0  0  0
 40 45  1  0  0  0  0
 40 95  1  6  0  0  0
 41 42  1  0  0  0  0
 41 86  1  0  0  0  0
 41 87  1  0  0  0  0
 42 43  1  0  0  0  0
 42 88  1  0  0  0  0
 42 89  1  0  0  0  0
 43 44  1  0  0  0  0
 44 45  1  0  0  0  0
 44 46  2  0  0  0  0
 45 90  1  0  0  0  0
 45 91  1  0  0  0  0
 47 92  1  0  0  0  0
 47 93  1  0  0  0  0
 47 94  1  0  0  0  0
M  CHG  1  40   1
M  END
$$$$
