4VA
 OpenBabel04111918013D

 48 49  0  0  1  0  0  0  0  0999 V2000
    2.8766   13.0157  -42.0843 F   0  0  0  0  0  0  0  0  0  0  0  0
    4.8257   17.3843  -40.3976 Cl  0  0  0  0  0  0  0  0  0  0  0  0
    0.0899   14.7297  -44.6553 C   0  0  0  0  0  0  0  0  0  0  0  0
    0.3440   13.5838  -43.7064 C   0  0  0  0  0  0  0  0  0  0  0  0
    0.2108   13.9934  -42.2493 C   0  0  1  0  0  0  0  0  0  0  0  0
    0.0277   12.7444  -41.4340 N   0  3  0  0  0  0  0  0  0  0  0  0
   -1.3379   12.1196  -41.4085 C   0  0  1  0  0  0  0  0  0  0  0  0
   -1.2613   10.7639  -40.7163 C   0  0  0  0  0  0  0  0  0  0  0  0
   -2.3191   13.0620  -40.7396 C   0  0  0  0  0  0  0  0  0  0  0  0
   -1.9623   13.3110  -39.3126 C   0  0  0  0  0  0  0  0  0  0  0  0
   -0.7783   13.4255  -38.9582 O   0  0  0  0  0  0  0  0  0  0  0  0
   -2.9845   13.4114  -38.4606 N   0  0  0  0  0  0  0  0  0  0  0  0
    1.3798   14.8135  -41.7733 C   0  0  0  0  0  0  0  0  0  0  0  0
    1.1790   16.1376  -41.3923 C   0  0  0  0  0  0  0  0  0  0  0  0
    2.2475   16.9144  -40.9758 C   0  0  0  0  0  0  0  0  0  0  0  0
    3.5352   16.3775  -40.9267 C   0  0  0  0  0  0  0  0  0  0  0  0
    3.7546   15.0445  -41.2830 C   0  0  0  0  0  0  0  0  0  0  0  0
    5.0052   14.4806  -41.3237 O   0  0  0  0  0  0  0  0  0  0  0  0
    5.6526   14.2422  -40.1257 C   0  0  0  0  0  0  0  0  0  0  0  0
    5.0169   14.2519  -38.8925 C   0  0  0  0  0  0  0  0  0  0  0  0
    5.7296   13.9795  -37.7352 C   0  0  0  0  0  0  0  0  0  0  0  0
    7.0904   13.6790  -37.8146 C   0  0  0  0  0  0  0  0  0  0  0  0
    7.7356   13.6578  -39.0433 C   0  0  0  0  0  0  0  0  0  0  0  0
    7.0113   13.9424  -40.2017 C   0  0  0  0  0  0  0  0  0  0  0  0
    2.6751   14.2879  -41.7247 C   0  0  0  0  0  0  0  0  0  0  0  0
    0.1938   14.3773  -45.6859 H   0  0  0  0  0  0  0  0  0  0  0  0
    0.8119   15.5319  -44.4806 H   0  0  0  0  0  0  0  0  0  0  0  0
   -0.9234   15.1187  -44.5132 H   0  0  0  0  0  0  0  0  0  0  0  0
    1.3477   13.1949  -43.8980 H   0  0  0  0  0  0  0  0  0  0  0  0
   -0.3821   12.7964  -43.9366 H   0  0  0  0  0  0  0  0  0  0  0  0
   -0.6883   14.6018  -42.1291 H   0  0  0  0  0  0  0  0  0  0  0  0
    0.7183   12.0524  -41.7533 H   0  0  0  0  0  0  0  0  0  0  0  0
   -1.6459   11.9495  -42.4410 H   0  0  0  0  0  0  0  0  0  0  0  0
   -2.2522   10.2924  -40.7042 H   0  0  0  0  0  0  0  0  0  0  0  0
   -0.9180   10.8621  -39.6809 H   0  0  0  0  0  0  0  0  0  0  0  0
   -0.5730   10.0934  -41.2443 H   0  0  0  0  0  0  0  0  0  0  0  0
   -3.3252   12.6393  -40.7960 H   0  0  0  0  0  0  0  0  0  0  0  0
   -2.3240   14.0205  -41.2595 H   0  0  0  0  0  0  0  0  0  0  0  0
   -2.8155   13.5749  -37.4677 H   0  0  0  0  0  0  0  0  0  0  0  0
   -3.9479   13.3104  -38.7744 H   0  0  0  0  0  0  0  0  0  0  0  0
    0.1863   16.5871  -41.4225 H   0  0  0  0  0  0  0  0  0  0  0  0
    2.0921   17.9529  -40.6802 H   0  0  0  0  0  0  0  0  0  0  0  0
    3.9621   14.4809  -38.8151 H   0  0  0  0  0  0  0  0  0  0  0  0
    5.2346   14.0006  -36.7770 H   0  0  0  0  0  0  0  0  0  0  0  0
    7.6488   13.4594  -36.9073 H   0  0  0  0  0  0  0  0  0  0  0  0
    8.7932   13.4215  -39.0963 H   0  0  0  0  0  0  0  0  0  0  0  0
    7.5301   13.9292  -41.1570 H   0  0  0  0  0  0  0  0  0  0  0  0
    0.2805   12.9724  -40.4505 H   0  0  0  0  0  0  0  0  0  0  0  0
  1 25  1  0  0  0  0
  2 16  1  0  0  0  0
  3  4  1  0  0  0  0
  3 26  1  0  0  0  0
  3 27  1  0  0  0  0
  3 28  1  0  0  0  0
  4  5  1  0  0  0  0
  4 29  1  0  0  0  0
  4 30  1  0  0  0  0
  5  6  1  0  0  0  0
  5 13  1  0  0  0  0
  5 31  1  1  0  0  0
  6  7  1  0  0  0  0
  6 32  1  0  0  0  0
  6 48  1  0  0  0  0
  7  8  1  0  0  0  0
  7  9  1  0  0  0  0
  7 33  1  6  0  0  0
  8 34  1  0  0  0  0
  8 35  1  0  0  0  0
  8 36  1  0  0  0  0
  9 10  1  0  0  0  0
  9 37  1  0  0  0  0
  9 38  1  0  0  0  0
 10 11  2  0  0  0  0
 10 12  1  0  0  0  0
 12 39  1  0  0  0  0
 12 40  1  0  0  0  0
 13 14  2  0  0  0  0
 13 25  1  0  0  0  0
 14 15  1  0  0  0  0
 14 41  1  0  0  0  0
 15 16  2  0  0  0  0
 15 42  1  0  0  0  0
 16 17  1  0  0  0  0
 17 18  1  0  0  0  0
 17 25  2  0  0  0  0
 18 19  1  0  0  0  0
 19 20  2  0  0  0  0
 19 24  1  0  0  0  0
 20 21  1  0  0  0  0
 20 43  1  0  0  0  0
 21 22  2  0  0  0  0
 21 44  1  0  0  0  0
 22 23  1  0  0  0  0
 22 45  1  0  0  0  0
 23 24  2  0  0  0  0
 23 46  1  0  0  0  0
 24 47  1  0  0  0  0
M  CHG  1   6   1
M  END
$$$$
