513
 OpenBabel04111917393D

 21 22  0  0  0  0  0  0  0  0999 V2000
    0.9586  -15.5594   15.8696 C   0  0  0  0  0  0  0  0  0  0  0  0
    1.8511  -16.5498   18.4756 N   0  3  0  0  0  0  0  0  0  0  0  0
    0.7533  -14.7998   14.3563 S   0  0  0  0  0  0  0  0  0  0  0  0
    1.7287  -13.4547   14.8148 C   0  0  0  0  0  0  0  0  0  0  0  0
    2.2020  -13.6030   16.1232 C   0  0  0  0  0  0  0  0  0  0  0  0
    1.7473  -14.8162   16.7306 C   0  0  0  0  0  0  0  0  0  0  0  0
    2.0516  -12.3328   14.0358 C   0  0  0  0  0  0  0  0  0  0  0  0
    2.9021  -11.3696   14.5965 C   0  0  0  0  0  0  0  0  0  0  0  0
    2.1318  -15.1542   18.1296 C   0  0  0  0  0  0  0  0  0  0  0  0
    3.4061  -11.5146   15.8835 C   0  0  0  0  0  0  0  0  0  0  0  0
    3.0412  -12.6058   16.6579 C   0  0  0  0  0  0  0  0  0  0  0  0
    4.6017  -10.2379   16.5866 Br  0  0  0  0  0  0  0  0  0  0  0  0
    0.4856  -16.5164   16.0335 H   0  0  0  0  0  0  0  0  0  0  0  0
    2.1505  -16.7711   19.4307 H   0  0  0  0  0  0  0  0  0  0  0  0
    0.8448  -16.7341   18.3998 H   0  0  0  0  0  0  0  0  0  0  0  0
    1.6748  -12.2168   13.0290 H   0  0  0  0  0  0  0  0  0  0  0  0
    3.1784  -10.5035   13.9977 H   0  0  0  0  0  0  0  0  0  0  0  0
    3.2084  -15.0132   18.2753 H   0  0  0  0  0  0  0  0  0  0  0  0
    1.5945  -14.5201   18.8456 H   0  0  0  0  0  0  0  0  0  0  0  0
    3.4297  -12.6928   17.6746 H   0  0  0  0  0  0  0  0  0  0  0  0
    2.3494  -17.1714   17.8291 H   0  0  0  0  0  0  0  0  0  0  0  0
  1  3  1  0  0  0  0
  1  6  2  0  0  0  0
  1 13  1  0  0  0  0
  2  9  1  0  0  0  0
  2 14  1  0  0  0  0
  2 15  1  0  0  0  0
  2 21  1  0  0  0  0
  3  4  1  0  0  0  0
  4  5  2  0  0  0  0
  4  7  1  0  0  0  0
  5  6  1  0  0  0  0
  5 11  1  0  0  0  0
  6  9  1  0  0  0  0
  7  8  2  0  0  0  0
  7 16  1  0  0  0  0
  8 10  1  0  0  0  0
  8 17  1  0  0  0  0
  9 18  1  0  0  0  0
  9 19  1  0  0  0  0
 10 11  2  0  0  0  0
 10 12  1  0  0  0  0
 11 20  1  0  0  0  0
M  CHG  1   2   1
M  END
$$$$
