525
 OpenBabel04111920223D

 75 78  0  0  1  0  0  0  0  0999 V2000
    9.5095   27.5943    8.5426 C   0  0  0  0  0  0  0  0  0  0  0  0
    8.5589   27.8942    7.5805 C   0  0  0  0  0  0  0  0  0  0  0  0
    8.3131   27.0274    6.5261 C   0  0  0  0  0  0  0  0  0  0  0  0
    9.0351   25.8353    6.4101 C   0  0  0  0  0  0  0  0  0  0  0  0
    9.9962   25.5413    7.3870 C   0  0  0  0  0  0  0  0  0  0  0  0
   10.2259   26.4094    8.4515 C   0  0  0  0  0  0  0  0  0  0  0  0
    8.7009   24.9157    5.2687 C   0  0  0  0  0  0  0  0  0  0  0  0
    9.8039   24.7731    4.2208 C   0  0  1  0  0  0  0  0  0  0  0  0
   10.8110   23.7051    4.6488 C   0  0  0  0  0  0  0  0  0  0  0  0
   11.6088   24.0753    5.8211 N   0  0  0  0  0  0  0  0  0  0  0  0
   10.8947   24.0160    7.3339 S   0  0  0  0  0  0  0  0  0  0  0  0
   12.8435   24.8318    5.6110 C   0  0  0  0  0  0  0  0  0  0  0  0
   13.9672   23.9187    5.1281 C   0  0  2  0  0  0  0  0  0  0  0  0
   14.4122   22.8320    6.1134 C   0  0  2  0  0  0  0  0  0  0  0  0
   15.0855   24.7290    4.7408 O   0  0  0  0  0  0  0  0  0  0  0  0
   15.1012   23.3618    7.3703 C   0  0  0  0  0  0  0  0  0  0  0  0
   15.2968   21.9243    5.4021 N   0  0  0  0  0  0  0  0  0  0  0  0
   14.8986   20.6855    5.0216 C   0  0  0  0  0  0  0  0  0  0  0  0
   15.9338   20.0653    4.4361 O   0  0  0  0  0  0  0  0  0  0  0  0
   13.7757   20.2189    5.1657 O   0  0  0  0  0  0  0  0  0  0  0  0
   15.4495   22.2414    8.3073 C   0  0  0  0  0  0  0  0  0  0  0  0
   16.7473   21.7355    8.3310 C   0  0  0  0  0  0  0  0  0  0  0  0
   17.0653   20.6739    9.1659 C   0  0  0  0  0  0  0  0  0  0  0  0
   16.0848   20.1075    9.9678 C   0  0  0  0  0  0  0  0  0  0  0  0
   14.7896   20.6048    9.9469 C   0  0  0  0  0  0  0  0  0  0  0  0
   14.4692   21.6718    9.1189 C   0  0  0  0  0  0  0  0  0  0  0  0
   11.9620   24.0812    8.3424 O   0  0  0  0  0  0  0  0  0  0  0  0
    9.9349   22.9746    7.3526 O   0  0  0  0  0  0  0  0  0  0  0  0
    9.2342   24.4486    2.8064 C   0  0  0  0  0  0  0  0  0  0  0  0
    8.4567   25.6226    2.2292 C   0  0  0  0  0  0  0  0  0  0  0  0
    8.3048   23.2388    2.8035 C   0  0  0  0  0  0  0  0  0  0  0  0
   10.3786   24.1943    1.8334 C   0  0  0  0  0  0  0  0  0  0  0  0
    7.8761   29.0412    7.6713 F   0  0  0  0  0  0  0  0  0  0  0  0
   15.6796   18.7919    3.8227 C   0  0  2  0  0  0  0  0  0  0  0  0
   17.0397   18.1896    3.5344 C   0  0  0  0  0  0  0  0  0  0  0  0
   15.0692   19.0338    2.4619 C   0  0  0  0  0  0  0  0  0  0  0  0
   17.3832   18.6361    2.2135 O   0  0  0  0  0  0  0  0  0  0  0  0
   16.1539   18.6576    1.4829 C   0  0  0  0  0  0  0  0  0  0  0  0
    9.6888   28.2834    9.3602 H   0  0  0  0  0  0  0  0  0  0  0  0
    7.5477   27.2754    5.7936 H   0  0  0  0  0  0  0  0  0  0  0  0
   10.9631   26.1609    9.2132 H   0  0  0  0  0  0  0  0  0  0  0  0
    7.7964   25.3022    4.7953 H   0  0  0  0  0  0  0  0  0  0  0  0
    8.4494   23.9344    5.6798 H   0  0  0  0  0  0  0  0  0  0  0  0
   10.3287   25.7323    4.1376 H   0  0  0  0  0  0  0  0  0  0  0  0
   11.5041   23.5053    3.8314 H   0  0  0  0  0  0  0  0  0  0  0  0
   10.2887   22.7616    4.8501 H   0  0  0  0  0  0  0  0  0  0  0  0
   13.1555   25.3159    6.5405 H   0  0  0  0  0  0  0  0  0  0  0  0
   12.7006   25.6235    4.8661 H   0  0  0  0  0  0  0  0  0  0  0  0
   13.6193   23.4006    4.2275 H   0  0  0  0  0  0  0  0  0  0  0  0
   13.5258   22.2724    6.4295 H   0  0  0  0  0  0  0  0  0  0  0  0
   15.4411   25.1470    5.5370 H   0  0  0  0  0  0  0  0  0  0  0  0
   14.4446   24.0561    7.8995 H   0  0  0  0  0  0  0  0  0  0  0  0
   16.0244   23.8956    7.1144 H   0  0  0  0  0  0  0  0  0  0  0  0
   16.2287   22.2248    5.1622 H   0  0  0  0  0  0  0  0  0  0  0  0
   17.5100   22.1696    7.6923 H   0  0  0  0  0  0  0  0  0  0  0  0
   18.0798   20.2918    9.1905 H   0  0  0  0  0  0  0  0  0  0  0  0
   16.3323   19.2714   10.6152 H   0  0  0  0  0  0  0  0  0  0  0  0
   14.0248   20.1631   10.5769 H   0  0  0  0  0  0  0  0  0  0  0  0
   13.4550   22.0623    9.1060 H   0  0  0  0  0  0  0  0  0  0  0  0
    8.0814   25.3601    1.2356 H   0  0  0  0  0  0  0  0  0  0  0  0
    9.1106   26.4947    2.1426 H   0  0  0  0  0  0  0  0  0  0  0  0
    7.6052   25.8712    2.8637 H   0  0  0  0  0  0  0  0  0  0  0  0
    8.8146   22.3635    3.2114 H   0  0  0  0  0  0  0  0  0  0  0  0
    7.9909   23.0142    1.7788 H   0  0  0  0  0  0  0  0  0  0  0  0
    7.4114   23.4437    3.4000 H   0  0  0  0  0  0  0  0  0  0  0  0
   11.0612   25.0497    1.8366 H   0  0  0  0  0  0  0  0  0  0  0  0
    9.9921   24.0397    0.8265 H   0  0  0  0  0  0  0  0  0  0  0  0
   10.9243   23.2914    2.1076 H   0  0  0  0  0  0  0  0  0  0  0  0
   15.0669   18.1423    4.4592 H   0  0  0  0  0  0  0  0  0  0  0  0
   17.0075   17.0940    3.5346 H   0  0  0  0  0  0  0  0  0  0  0  0
   17.7978   18.5357    4.2449 H   0  0  0  0  0  0  0  0  0  0  0  0
   14.7955   20.0870    2.3349 H   0  0  0  0  0  0  0  0  0  0  0  0
   14.1781   18.4184    2.3040 H   0  0  0  0  0  0  0  0  0  0  0  0
   16.2158   19.3783    0.6616 H   0  0  0  0  0  0  0  0  0  0  0  0
   15.9724   17.6565    1.0754 H   0  0  0  0  0  0  0  0  0  0  0  0
  1  2  2  0  0  0  0
  1  6  1  0  0  0  0
  1 39  1  0  0  0  0
  2  3  1  0  0  0  0
  2 33  1  0  0  0  0
  3  4  2  0  0  0  0
  3 40  1  0  0  0  0
  4  5  1  0  0  0  0
  4  7  1  0  0  0  0
  5  6  2  0  0  0  0
  5 11  1  0  0  0  0
  6 41  1  0  0  0  0
  7  8  1  0  0  0  0
  7 42  1  0  0  0  0
  7 43  1  0  0  0  0
  8  9  1  0  0  0  0
  8 29  1  0  0  0  0
  8 44  1  6  0  0  0
  9 10  1  0  0  0  0
  9 45  1  0  0  0  0
  9 46  1  0  0  0  0
 10 11  1  0  0  0  0
 10 12  1  0  0  0  0
 11 27  2  0  0  0  0
 11 28  2  0  0  0  0
 12 13  1  0  0  0  0
 12 47  1  0  0  0  0
 12 48  1  0  0  0  0
 13 14  1  0  0  0  0
 13 15  1  0  0  0  0
 13 49  1  6  0  0  0
 14 16  1  0  0  0  0
 14 17  1  0  0  0  0
 14 50  1  1  0  0  0
 15 51  1  0  0  0  0
 16 21  1  0  0  0  0
 16 52  1  0  0  0  0
 16 53  1  0  0  0  0
 17 18  1  0  0  0  0
 17 54  1  0  0  0  0
 18 19  1  0  0  0  0
 18 20  2  0  0  0  0
 19 34  1  0  0  0  0
 21 22  2  0  0  0  0
 21 26  1  0  0  0  0
 22 23  1  0  0  0  0
 22 55  1  0  0  0  0
 23 24  2  0  0  0  0
 23 56  1  0  0  0  0
 24 25  1  0  0  0  0
 24 57  1  0  0  0  0
 25 26  2  0  0  0  0
 25 58  1  0  0  0  0
 26 59  1  0  0  0  0
 29 30  1  0  0  0  0
 29 31  1  0  0  0  0
 29 32  1  0  0  0  0
 30 60  1  0  0  0  0
 30 61  1  0  0  0  0
 30 62  1  0  0  0  0
 31 63  1  0  0  0  0
 31 64  1  0  0  0  0
 31 65  1  0  0  0  0
 32 66  1  0  0  0  0
 32 67  1  0  0  0  0
 32 68  1  0  0  0  0
 34 35  1  0  0  0  0
 34 36  1  0  0  0  0
 34 69  1  1  0  0  0
 35 37  1  0  0  0  0
 35 70  1  0  0  0  0
 35 71  1  0  0  0  0
 36 38  1  0  0  0  0
 36 72  1  0  0  0  0
 36 73  1  0  0  0  0
 37 38  1  0  0  0  0
 38 74  1  0  0  0  0
 38 75  1  0  0  0  0
M  END
$$$$
