52J
 OpenBabel04111918453D

 71 74  0  0  1  0  0  0  0  0999 V2000
   15.3137  -31.4684   -6.3540 N   0  0  0  0  0  0  0  0  0  0  0  0
   15.6935  -31.9138   -5.0719 C   0  0  0  0  0  0  0  0  0  0  0  0
   15.9780  -30.9855   -4.0600 C   0  0  0  0  0  0  0  0  0  0  0  0
   15.8924  -29.5012   -4.3195 C   0  0  0  0  0  0  0  0  0  0  0  0
   16.5403  -28.6340   -3.2495 C   0  0  0  0  0  0  0  0  0  0  0  0
   15.8551  -27.5496   -2.6943 C   0  0  0  0  0  0  0  0  0  0  0  0
   16.4248  -26.7581   -1.6837 C   0  0  0  0  0  0  0  0  0  0  0  0
   15.7583  -25.6693   -1.1467 O   0  0  0  0  0  0  0  0  0  0  0  0
   14.3380  -25.6249   -1.3373 C   0  0  0  0  0  0  0  0  0  0  0  0
   17.7233  -27.0856   -1.1856 C   0  0  0  0  0  0  0  0  0  0  0  0
   18.2947  -26.2416   -0.2442 O   0  0  0  0  0  0  0  0  0  0  0  0
   18.4061  -26.7936    1.0736 C   0  0  0  0  0  0  0  0  0  0  0  0
   18.4613  -28.1660   -1.7394 C   0  0  0  0  0  0  0  0  0  0  0  0
   22.6733  -28.1293   -0.7685 O   0  0  0  0  0  0  0  0  0  0  0  0
   17.8466  -28.9141   -2.7716 C   0  0  0  0  0  0  0  0  0  0  0  0
   16.3213  -31.5074   -2.8120 C   0  0  0  0  0  0  0  0  0  0  0  0
   16.4497  -32.8159   -2.5313 N   0  0  0  0  0  0  0  0  0  0  0  0
   16.1667  -33.6682   -3.5418 C   0  0  0  0  0  0  0  0  0  0  0  0
   16.2590  -35.0286   -3.2915 N   0  0  0  0  0  0  0  0  0  0  0  0
   15.7950  -33.2465   -4.7946 N   0  0  0  0  0  0  0  0  0  0  0  0
   19.8423  -28.5044   -1.2855 C   0  0  0  0  0  0  0  0  0  0  0  0
   20.8530  -28.8376   -2.1130 C   0  0  0  0  0  0  0  0  0  0  0  0
   22.2683  -28.9388   -1.6649 C   0  0  0  0  0  0  0  0  0  0  0  0
   23.1343  -29.8452   -2.1971 N   0  0  0  0  0  0  0  0  0  0  0  0
   22.6998  -30.7847   -3.1513 N   0  0  0  0  0  0  0  0  0  0  0  0
   23.5406  -30.7160   -4.3510 C   0  0  0  0  0  0  0  0  0  0  0  0
   24.5380  -29.9828   -1.6982 C   0  0  1  0  0  0  0  0  0  0  0  0
   24.6558  -31.1775   -0.7201 C   0  0  0  0  0  0  0  0  0  0  0  0
   25.9811  -31.3064    0.0612 C   0  0  0  0  0  0  0  0  0  0  0  0
   26.0660  -30.3183    1.2168 C   0  0  0  0  0  0  0  0  0  0  0  0
   25.4955  -30.1654   -2.8568 C   0  0  0  0  0  0  0  0  0  0  0  0
   25.0187  -30.5461   -4.1134 C   0  0  0  0  0  0  0  0  0  0  0  0
   25.9097  -30.7155   -5.1742 C   0  0  0  0  0  0  0  0  0  0  0  0
   27.2783  -30.5450   -4.9855 C   0  0  0  0  0  0  0  0  0  0  0  0
   27.7591  -30.1882   -3.7270 C   0  0  0  0  0  0  0  0  0  0  0  0
   26.8740  -29.9857   -2.6835 C   0  0  0  0  0  0  0  0  0  0  0  0
   26.3280  -32.7485    0.4695 C   0  0  0  0  0  0  0  0  0  0  0  0
   15.1043  -32.1220   -7.1011 H   0  0  0  0  0  0  0  0  0  0  0  0
   15.2281  -30.4888   -6.6052 H   0  0  0  0  0  0  0  0  0  0  0  0
   14.8254  -29.2476   -4.4230 H   0  0  0  0  0  0  0  0  0  0  0  0
   16.3741  -29.2950   -5.2874 H   0  0  0  0  0  0  0  0  0  0  0  0
   14.8612  -27.3153   -3.0580 H   0  0  0  0  0  0  0  0  0  0  0  0
   13.9491  -24.7138   -0.8663 H   0  0  0  0  0  0  0  0  0  0  0  0
   13.8574  -26.4897   -0.8639 H   0  0  0  0  0  0  0  0  0  0  0  0
   14.0712  -25.5835   -2.3994 H   0  0  0  0  0  0  0  0  0  0  0  0
   18.8916  -26.0509    1.7247 H   0  0  0  0  0  0  0  0  0  0  0  0
   19.0246  -27.6890    1.1072 H   0  0  0  0  0  0  0  0  0  0  0  0
   17.4239  -27.0298    1.4925 H   0  0  0  0  0  0  0  0  0  0  0  0
   18.3676  -29.7873   -3.1908 H   0  0  0  0  0  0  0  0  0  0  0  0
   16.5709  -30.8258   -1.9576 H   0  0  0  0  0  0  0  0  0  0  0  0
   16.5276  -35.3779   -2.3826 H   0  0  0  0  0  0  0  0  0  0  0  0
   16.0549  -35.7015   -4.0171 H   0  0  0  0  0  0  0  0  0  0  0  0
   20.0637  -28.4607   -0.2151 H   0  0  0  0  0  0  0  0  0  0  0  0
   20.6698  -28.9903   -3.1738 H   0  0  0  0  0  0  0  0  0  0  0  0
   22.7939  -31.7150   -2.7439 H   0  0  0  0  0  0  0  0  0  0  0  0
   23.1814  -29.8852   -4.9637 H   0  0  0  0  0  0  0  0  0  0  0  0
   23.3920  -31.6598   -4.8801 H   0  0  0  0  0  0  0  0  0  0  0  0
   24.7894  -29.0420   -1.1923 H   0  0  0  0  0  0  0  0  0  0  0  0
   24.5208  -32.0876   -1.3154 H   0  0  0  0  0  0  0  0  0  0  0  0
   23.8194  -31.0932   -0.0189 H   0  0  0  0  0  0  0  0  0  0  0  0
   26.7853  -31.0228   -0.5890 H   0  0  0  0  0  0  0  0  0  0  0  0
   27.0174  -30.4415    1.7492 H   0  0  0  0  0  0  0  0  0  0  0  0
   25.2429  -30.4722    1.9199 H   0  0  0  0  0  0  0  0  0  0  0  0
   26.0205  -29.2842    0.8448 H   0  0  0  0  0  0  0  0  0  0  0  0
   25.5310  -30.9927   -6.1568 H   0  0  0  0  0  0  0  0  0  0  0  0
   27.9740  -30.6846   -5.8078 H   0  0  0  0  0  0  0  0  0  0  0  0
   28.8251  -30.0557   -3.5791 H   0  0  0  0  0  0  0  0  0  0  0  0
   27.2469  -29.6920   -1.7123 H   0  0  0  0  0  0  0  0  0  0  0  0
   26.2608  -33.4280   -0.3938 H   0  0  0  0  0  0  0  0  0  0  0  0
   25.6640  -33.1326    1.2510 H   0  0  0  0  0  0  0  0  0  0  0  0
   27.3617  -32.8227    0.8472 H   0  0  0  0  0  0  0  0  0  0  0  0
  1  2  1  0  0  0  0
  1 38  1  0  0  0  0
  1 39  1  0  0  0  0
  2  3  2  0  0  0  0
  2 20  1  0  0  0  0
  3  4  1  0  0  0  0
  3 16  1  0  0  0  0
  4  5  1  0  0  0  0
  4 40  1  0  0  0  0
  4 41  1  0  0  0  0
  5  6  2  0  0  0  0
  5 15  1  0  0  0  0
  6  7  1  0  0  0  0
  6 42  1  0  0  0  0
  7  8  1  0  0  0  0
  7 10  2  0  0  0  0
  8  9  1  0  0  0  0
  9 43  1  0  0  0  0
  9 44  1  0  0  0  0
  9 45  1  0  0  0  0
 10 11  1  0  0  0  0
 10 13  1  0  0  0  0
 11 12  1  0  0  0  0
 12 46  1  0  0  0  0
 12 47  1  0  0  0  0
 12 48  1  0  0  0  0
 13 15  2  0  0  0  0
 13 21  1  0  0  0  0
 14 23  2  0  0  0  0
 15 49  1  0  0  0  0
 16 17  2  0  0  0  0
 16 50  1  0  0  0  0
 17 18  1  0  0  0  0
 18 19  1  0  0  0  0
 18 20  2  0  0  0  0
 19 51  1  0  0  0  0
 19 52  1  0  0  0  0
 21 22  2  0  0  0  0
 21 53  1  0  0  0  0
 22 23  1  0  0  0  0
 22 54  1  0  0  0  0
 23 24  1  0  0  0  0
 24 25  1  0  0  0  0
 24 27  1  0  0  0  0
 25 26  1  0  0  0  0
 25 55  1  0  0  0  0
 26 32  1  0  0  0  0
 26 56  1  0  0  0  0
 26 57  1  0  0  0  0
 27 28  1  0  0  0  0
 27 31  1  0  0  0  0
 27 58  1  1  0  0  0
 28 29  1  0  0  0  0
 28 59  1  0  0  0  0
 28 60  1  0  0  0  0
 29 30  1  0  0  0  0
 29 37  1  0  0  0  0
 29 61  1  0  0  0  0
 30 62  1  0  0  0  0
 30 63  1  0  0  0  0
 30 64  1  0  0  0  0
 31 32  2  0  0  0  0
 31 36  1  0  0  0  0
 32 33  1  0  0  0  0
 33 34  2  0  0  0  0
 33 65  1  0  0  0  0
 34 35  1  0  0  0  0
 34 66  1  0  0  0  0
 35 36  2  0  0  0  0
 35 67  1  0  0  0  0
 36 68  1  0  0  0  0
 37 69  1  0  0  0  0
 37 70  1  0  0  0  0
 37 71  1  0  0  0  0
M  END
$$$$
