53I
 OpenBabel04111918453D

 71 74  0  0  1  0  0  0  0  0999 V2000
   21.7446  -26.2449    0.6527 O   0  0  0  0  0  0  0  0  0  0  0  0
   21.5721  -26.9702   -0.3400 C   0  0  0  0  0  0  0  0  0  0  0  0
   22.5330  -27.9116   -0.7627 N   0  0  0  0  0  0  0  0  0  0  0  0
   22.3071  -28.6857   -1.9411 N   0  0  0  0  0  0  0  0  0  0  0  0
   23.3870  -29.5493   -2.4201 C   0  0  0  0  0  0  0  0  0  0  0  0
   24.3050  -30.1116   -1.3815 C   0  0  0  0  0  0  0  0  0  0  0  0
   25.0170  -31.2999   -1.6124 C   0  0  0  0  0  0  0  0  0  0  0  0
   25.9185  -31.7843   -0.6632 C   0  0  0  0  0  0  0  0  0  0  0  0
   26.1365  -31.0789    0.5155 C   0  0  0  0  0  0  0  0  0  0  0  0
   25.4380  -29.8948    0.7438 C   0  0  0  0  0  0  0  0  0  0  0  0
   24.5108  -29.4076   -0.1994 C   0  0  0  0  0  0  0  0  0  0  0  0
   23.7782  -28.0931    0.0297 C   0  0  1  0  0  0  0  0  0  0  0  0
   24.8080  -26.9356   -0.0365 C   0  0  0  0  0  0  0  0  0  0  0  0
   24.6255  -25.9075   -1.1458 C   0  0  0  0  0  0  0  0  0  0  0  0
   24.6375  -24.4733   -0.6226 C   0  0  0  0  0  0  0  0  0  0  0  0
   25.5547  -26.1489   -2.3264 C   0  0  0  0  0  0  0  0  0  0  0  0
   20.2873  -26.7903   -1.1087 C   0  0  0  0  0  0  0  0  0  0  0  0
   19.4917  -27.8028   -1.4967 C   0  0  0  0  0  0  0  0  0  0  0  0
   18.0974  -27.6956   -1.9666 C   0  0  0  0  0  0  0  0  0  0  0  0
   17.1739  -26.7221   -1.4920 C   0  0  0  0  0  0  0  0  0  0  0  0
   17.6240  -25.8575   -0.5180 O   0  0  0  0  0  0  0  0  0  0  0  0
   17.2305  -24.4936   -0.6407 C   0  0  0  0  0  0  0  0  0  0  0  0
   15.8365  -26.7496   -1.9435 C   0  0  0  0  0  0  0  0  0  0  0  0
   14.9563  -25.8229   -1.4593 O   0  0  0  0  0  0  0  0  0  0  0  0
   13.6193  -25.8451   -1.9416 C   0  0  0  0  0  0  0  0  0  0  0  0
   15.4491  -27.7403   -2.8446 C   0  0  0  0  0  0  0  0  0  0  0  0
   16.3278  -28.7345   -3.2888 C   0  0  0  0  0  0  0  0  0  0  0  0
   15.8389  -29.7543   -4.2857 C   0  0  0  0  0  0  0  0  0  0  0  0
   16.0868  -31.2189   -4.0648 C   0  0  0  0  0  0  0  0  0  0  0  0
   16.5261  -31.8129   -2.8948 C   0  0  0  0  0  0  0  0  0  0  0  0
   16.7307  -33.1672   -2.7581 N   0  0  0  0  0  0  0  0  0  0  0  0
   16.4569  -33.9122   -3.8425 C   0  0  0  0  0  0  0  0  0  0  0  0
   16.6676  -35.2921   -3.7875 N   0  0  0  0  0  0  0  0  0  0  0  0
   16.0155  -33.4251   -4.9976 N   0  0  0  0  0  0  0  0  0  0  0  0
   15.8321  -32.0879   -5.1057 C   0  0  0  0  0  0  0  0  0  0  0  0
   15.3642  -31.5941   -6.3222 N   0  0  0  0  0  0  0  0  0  0  0  0
   17.6551  -28.6901   -2.8642 C   0  0  0  0  0  0  0  0  0  0  0  0
   21.5596  -29.3253   -1.7056 H   0  0  0  0  0  0  0  0  0  0  0  0
   23.9608  -29.0096   -3.1745 H   0  0  0  0  0  0  0  0  0  0  0  0
   22.8862  -30.3993   -2.9023 H   0  0  0  0  0  0  0  0  0  0  0  0
   24.8626  -31.8603   -2.5331 H   0  0  0  0  0  0  0  0  0  0  0  0
   26.4498  -32.7168   -0.8389 H   0  0  0  0  0  0  0  0  0  0  0  0
   26.8418  -31.4529    1.2537 H   0  0  0  0  0  0  0  0  0  0  0  0
   25.6260  -29.3406    1.6616 H   0  0  0  0  0  0  0  0  0  0  0  0
   23.4324  -28.1425    1.0696 H   0  0  0  0  0  0  0  0  0  0  0  0
   25.8205  -27.3525   -0.1217 H   0  0  0  0  0  0  0  0  0  0  0  0
   24.7406  -26.4196    0.9256 H   0  0  0  0  0  0  0  0  0  0  0  0
   23.6334  -26.0253   -1.5526 H   0  0  0  0  0  0  0  0  0  0  0  0
   24.6332  -23.7759   -1.4637 H   0  0  0  0  0  0  0  0  0  0  0  0
   25.4780  -24.2308    0.0371 H   0  0  0  0  0  0  0  0  0  0  0  0
   23.7129  -24.3060   -0.0546 H   0  0  0  0  0  0  0  0  0  0  0  0
   25.5919  -27.2166   -2.5694 H   0  0  0  0  0  0  0  0  0  0  0  0
   26.5790  -25.7955   -2.1705 H   0  0  0  0  0  0  0  0  0  0  0  0
   25.1327  -25.6312   -3.1930 H   0  0  0  0  0  0  0  0  0  0  0  0
   19.9223  -25.7587   -1.1932 H   0  0  0  0  0  0  0  0  0  0  0  0
   19.8494  -28.8156   -1.4394 H   0  0  0  0  0  0  0  0  0  0  0  0
   17.6886  -23.9241    0.1755 H   0  0  0  0  0  0  0  0  0  0  0  0
   16.1597  -24.3549   -0.5151 H   0  0  0  0  0  0  0  0  0  0  0  0
   17.5690  -24.0653   -1.5894 H   0  0  0  0  0  0  0  0  0  0  0  0
   13.0669  -25.0183   -1.4838 H   0  0  0  0  0  0  0  0  0  0  0  0
   13.1292  -26.7789   -1.6504 H   0  0  0  0  0  0  0  0  0  0  0  0
   13.5894  -25.7025   -3.0271 H   0  0  0  0  0  0  0  0  0  0  0  0
   14.4293  -27.7596   -3.2201 H   0  0  0  0  0  0  0  0  0  0  0  0
   16.2924  -29.4575   -5.2422 H   0  0  0  0  0  0  0  0  0  0  0  0
   14.7528  -29.6284   -4.3983 H   0  0  0  0  0  0  0  0  0  0  0  0
   16.7492  -31.2340   -2.0088 H   0  0  0  0  0  0  0  0  0  0  0  0
   16.9661  -35.7216   -2.9216 H   0  0  0  0  0  0  0  0  0  0  0  0
   16.4416  -35.8264   -4.5890 H   0  0  0  0  0  0  0  0  0  0  0  0
   15.1830  -32.2263   -7.0782 H   0  0  0  0  0  0  0  0  0  0  0  0
   15.1955  -30.6121   -6.4782 H   0  0  0  0  0  0  0  0  0  0  0  0
   18.3479  -29.4498   -3.2363 H   0  0  0  0  0  0  0  0  0  0  0  0
  1  2  2  0  0  0  0
  2  3  1  0  0  0  0
  2 17  1  0  0  0  0
  3  4  1  0  0  0  0
  3 12  1  0  0  0  0
  4  5  1  0  0  0  0
  4 38  1  0  0  0  0
  5  6  1  0  0  0  0
  5 39  1  0  0  0  0
  5 40  1  0  0  0  0
  6  7  2  0  0  0  0
  6 11  1  0  0  0  0
  7  8  1  0  0  0  0
  7 41  1  0  0  0  0
  8  9  2  0  0  0  0
  8 42  1  0  0  0  0
  9 10  1  0  0  0  0
  9 43  1  0  0  0  0
 10 11  2  0  0  0  0
 10 44  1  0  0  0  0
 11 12  1  0  0  0  0
 12 13  1  0  0  0  0
 12 45  1  1  0  0  0
 13 14  1  0  0  0  0
 13 46  1  0  0  0  0
 13 47  1  0  0  0  0
 14 15  1  0  0  0  0
 14 16  1  0  0  0  0
 14 48  1  0  0  0  0
 15 49  1  0  0  0  0
 15 50  1  0  0  0  0
 15 51  1  0  0  0  0
 16 52  1  0  0  0  0
 16 53  1  0  0  0  0
 16 54  1  0  0  0  0
 17 18  2  0  0  0  0
 17 55  1  0  0  0  0
 18 19  1  0  0  0  0
 18 56  1  0  0  0  0
 19 20  2  0  0  0  0
 19 37  1  0  0  0  0
 20 21  1  0  0  0  0
 20 23  1  0  0  0  0
 21 22  1  0  0  0  0
 22 57  1  0  0  0  0
 22 58  1  0  0  0  0
 22 59  1  0  0  0  0
 23 24  1  0  0  0  0
 23 26  2  0  0  0  0
 24 25  1  0  0  0  0
 25 60  1  0  0  0  0
 25 61  1  0  0  0  0
 25 62  1  0  0  0  0
 26 27  1  0  0  0  0
 26 63  1  0  0  0  0
 27 28  1  0  0  0  0
 27 37  2  0  0  0  0
 28 29  1  0  0  0  0
 28 64  1  0  0  0  0
 28 65  1  0  0  0  0
 29 30  2  0  0  0  0
 29 35  1  0  0  0  0
 30 31  1  0  0  0  0
 30 66  1  0  0  0  0
 31 32  2  0  0  0  0
 32 33  1  0  0  0  0
 32 34  1  0  0  0  0
 33 67  1  0  0  0  0
 33 68  1  0  0  0  0
 34 35  2  0  0  0  0
 35 36  1  0  0  0  0
 36 69  1  0  0  0  0
 36 70  1  0  0  0  0
 37 71  1  0  0  0  0
M  END
$$$$
