54F
 OpenBabel04111917533D

 24 25  0  0  0  0  0  0  0  0999 V2000
   22.5209   18.3462   14.4962 N   0  0  0  0  0  0  0  0  0  0  0  0
   22.2425   17.0271   14.5322 C   0  0  0  0  0  0  0  0  0  0  0  0
   21.9243   16.3433   15.7048 C   0  0  0  0  0  0  0  0  0  0  0  0
   21.9228   17.0288   16.9190 C   0  0  0  0  0  0  0  0  0  0  0  0
   22.2162   18.3838   16.9168 C   0  0  0  0  0  0  0  0  0  0  0  0
   22.4907   18.9941   15.6969 C   0  0  0  0  0  0  0  0  0  0  0  0
   24.8499   17.1276    9.3833 N   0  0  0  0  0  0  0  0  0  0  0  0
   23.6571   17.1333   10.0873 C   0  0  0  0  0  0  0  0  0  0  0  0
   23.6128   16.7663   11.4383 C   0  0  0  0  0  0  0  0  0  0  0  0
   22.4048   16.7890   12.1486 C   0  0  0  0  0  0  0  0  0  0  0  0
   21.2232   17.1257   11.4886 C   0  0  0  0  0  0  0  0  0  0  0  0
   21.2622   17.5104   10.1450 C   0  0  0  0  0  0  0  0  0  0  0  0
   22.4770   17.5362    9.4571 C   0  0  0  0  0  0  0  0  0  0  0  0
   22.3545   16.2164   13.3991 O   0  0  0  0  0  0  0  0  0  0  0  0
   21.7009   15.2838   15.6663 H   0  0  0  0  0  0  0  0  0  0  0  0
   21.7041   16.5028   17.8441 H   0  0  0  0  0  0  0  0  0  0  0  0
   22.2363   18.9479   17.8440 H   0  0  0  0  0  0  0  0  0  0  0  0
   22.7083   20.0587   15.6594 H   0  0  0  0  0  0  0  0  0  0  0  0
   25.6923   16.7646    9.8050 H   0  0  0  0  0  0  0  0  0  0  0  0
   24.8602   17.3461    8.3964 H   0  0  0  0  0  0  0  0  0  0  0  0
   24.5132   16.4200   11.9374 H   0  0  0  0  0  0  0  0  0  0  0  0
   20.2692   17.0485   11.9991 H   0  0  0  0  0  0  0  0  0  0  0  0
   20.3432   17.7629    9.6202 H   0  0  0  0  0  0  0  0  0  0  0  0
   22.4909   17.8439    8.4136 H   0  0  0  0  0  0  0  0  0  0  0  0
  1  2  2  0  0  0  0
  1  6  1  0  0  0  0
  2  3  1  0  0  0  0
  2 14  1  0  0  0  0
  3  4  2  0  0  0  0
  3 15  1  0  0  0  0
  4  5  1  0  0  0  0
  4 16  1  0  0  0  0
  5  6  2  0  0  0  0
  5 17  1  0  0  0  0
  6 18  1  0  0  0  0
  7  8  1  0  0  0  0
  7 19  1  0  0  0  0
  7 20  1  0  0  0  0
  8  9  2  0  0  0  0
  8 13  1  0  0  0  0
  9 10  1  0  0  0  0
  9 21  1  0  0  0  0
 10 11  2  0  0  0  0
 10 14  1  0  0  0  0
 11 12  1  0  0  0  0
 11 22  1  0  0  0  0
 12 13  2  0  0  0  0
 12 23  1  0  0  0  0
 13 24  1  0  0  0  0
M  END
$$$$
