57D
 OpenBabel04111918313D

 28 30  0  0  0  0  0  0  0  0999 V2000
   21.9005    0.1338   -7.2150 C   0  0  0  0  0  0  0  0  0  0  0  0
   22.9626   -0.6705   -7.1960 C   0  0  0  0  0  0  0  0  0  0  0  0
   23.4123   -1.2531   -5.9453 C   0  0  0  0  0  0  0  0  0  0  0  0
   22.6562   -0.8659   -4.7224 C   0  0  0  0  0  0  0  0  0  0  0  0
   23.0390   -1.3826   -3.4599 C   0  0  0  0  0  0  0  0  0  0  0  0
   22.2494   -0.9371   -2.3933 C   0  0  0  0  0  0  0  0  0  0  0  0
   21.1735   -0.0565   -2.5395 C   0  0  0  0  0  0  0  0  0  0  0  0
   20.8164    0.4376   -3.7806 C   0  0  0  0  0  0  0  0  0  0  0  0
   21.5659    0.0272   -4.8828 C   0  0  0  0  0  0  0  0  0  0  0  0
   21.1872    0.5400   -6.1058 O   0  3  0  0  0  0  0  0  0  0  0  0
   24.3777   -2.0091   -6.0559 O   0  0  0  0  0  0  0  0  0  0  0  0
   24.0056   -2.1826   -3.2287 O   0  0  0  0  0  0  0  0  0  0  0  0
   20.4550    0.3247   -1.4417 O   0  0  0  0  0  0  0  0  0  0  0  0
   21.2641    2.0332   -8.6664 C   0  0  0  0  0  0  0  0  0  0  0  0
   20.9118    2.5234   -9.9151 C   0  0  0  0  0  0  0  0  0  0  0  0
   20.7705    1.6492  -10.9956 C   0  0  0  0  0  0  0  0  0  0  0  0
   20.9810    0.2818  -10.8391 C   0  0  0  0  0  0  0  0  0  0  0  0
   21.3312   -0.2117   -9.5929 C   0  0  0  0  0  0  0  0  0  0  0  0
   21.4742    0.6659   -8.5028 C   0  0  0  0  0  0  0  0  0  0  0  0
   23.5268   -0.9768   -8.0725 H   0  0  0  0  0  0  0  0  0  0  0  0
   22.5291   -1.3161   -1.4120 H   0  0  0  0  0  0  0  0  0  0  0  0
   19.9754    1.1162   -3.8819 H   0  0  0  0  0  0  0  0  0  0  0  0
   20.8717   -0.1300   -0.6884 H   0  0  0  0  0  0  0  0  0  0  0  0
   21.4030    2.7048   -7.8227 H   0  0  0  0  0  0  0  0  0  0  0  0
   20.7554    3.5873  -10.0432 H   0  0  0  0  0  0  0  0  0  0  0  0
   20.4944    2.0421  -11.9679 H   0  0  0  0  0  0  0  0  0  0  0  0
   20.8803   -0.3998  -11.6780 H   0  0  0  0  0  0  0  0  0  0  0  0
   21.5112   -1.2801   -9.4655 H   0  0  0  0  0  0  0  0  0  0  0  0
  1  2  2  0  0  0  0
  1 10  1  0  0  0  0
  1 19  1  0  0  0  0
  2  3  1  0  0  0  0
  2 20  1  0  0  0  0
  3  4  1  0  0  0  0
  3 11  2  0  0  0  0
  4  5  2  0  0  0  0
  4  9  1  0  0  0  0
  5  6  1  0  0  0  0
  5 12  1  0  0  0  0
  6  7  2  0  0  0  0
  6 21  1  0  0  0  0
  7  8  1  0  0  0  0
  7 13  1  0  0  0  0
  8  9  2  0  0  0  0
  8 22  1  0  0  0  0
  9 10  1  0  0  0  0
 13 23  1  0  0  0  0
 14 15  2  0  0  0  0
 14 19  1  0  0  0  0
 14 24  1  0  0  0  0
 15 16  1  0  0  0  0
 15 25  1  0  0  0  0
 16 17  2  0  0  0  0
 16 26  1  0  0  0  0
 17 18  1  0  0  0  0
 17 27  1  0  0  0  0
 18 19  2  0  0  0  0
 18 28  1  0  0  0  0
M  CHG  1  10   1
M  END
$$$$
