5FX
 OpenBabel04111918063D

 19 18  0  0  1  0  0  0  0  0999 V2000
   13.8137   -0.5066   29.2684 C   0  0  0  0  0  0  0  0  0  0  0  0
   13.9368    0.8845   29.5792 O   0  0  0  0  0  0  0  0  0  0  0  0
   14.8925   -1.3648   29.9135 C   0  0  0  0  0  0  0  0  0  0  0  0
   15.7281   -0.8808   30.7048 O   0  0  0  0  0  0  0  0  0  0  0  0
   14.9782   -2.8369   29.5898 C   0  0  1  0  0  0  0  0  0  0  0  0
   13.7912   -3.2947   28.9548 O   0  0  0  0  0  0  0  0  0  0  0  0
   16.2551   -3.1813   28.7928 C   0  0  2  0  0  0  0  0  0  0  0  0
   16.1555   -2.7142   27.4365 O   0  0  0  0  0  0  0  0  0  0  0  0
   16.4020   -4.7020   28.7709 C   0  0  0  0  0  0  0  0  0  0  0  0
   17.5614   -5.0463   28.1665 F   0  0  0  0  0  0  0  0  0  0  0  0
   13.8524   -0.6110   28.1796 H   0  0  0  0  0  0  0  0  0  0  0  0
   12.8255   -0.8263   29.6229 H   0  0  0  0  0  0  0  0  0  0  0  0
   14.8146    1.1777   29.2754 H   0  0  0  0  0  0  0  0  0  0  0  0
   15.0442   -3.3512   30.5578 H   0  0  0  0  0  0  0  0  0  0  0  0
   13.8767   -4.2458   28.7901 H   0  0  0  0  0  0  0  0  0  0  0  0
   17.1452   -2.7197   29.2452 H   0  0  0  0  0  0  0  0  0  0  0  0
   15.4123   -3.1761   27.0096 H   0  0  0  0  0  0  0  0  0  0  0  0
   15.5757   -5.1525   28.2095 H   0  0  0  0  0  0  0  0  0  0  0  0
   16.3898   -5.1033   29.7881 H   0  0  0  0  0  0  0  0  0  0  0  0
  1  2  1  0  0  0  0
  1  3  1  0  0  0  0
  1 11  1  0  0  0  0
  1 12  1  0  0  0  0
  2 13  1  0  0  0  0
  3  4  2  0  0  0  0
  3  5  1  0  0  0  0
  5  6  1  0  0  0  0
  5  7  1  0  0  0  0
  5 14  1  1  0  0  0
  6 15  1  0  0  0  0
  7  8  1  0  0  0  0
  7  9  1  0  0  0  0
  7 16  1  1  0  0  0
  8 17  1  0  0  0  0
  9 10  1  0  0  0  0
  9 18  1  0  0  0  0
  9 19  1  0  0  0  0
M  END
$$$$
