5GP
 OpenBabel04111919003D

 36 38  0  0  1  0  0  0  0  0999 V2000
   25.4253   34.6455   38.2684 P   0  0  0  0  0  0  0  0  0  0  0  0
   25.9924   35.9838   38.7182 O   0  0  0  0  0  0  0  0  0  0  0  0
   25.7655   34.2734   36.8324 O   0  0  0  0  0  0  0  0  0  0  0  0
   23.9891   34.3823   38.6869 O   0  0  0  0  0  0  0  0  0  0  0  0
   26.2666   33.5630   39.1559 O   0  0  0  0  0  0  0  0  0  0  0  0
   27.6746   33.5618   39.0480 C   0  0  0  0  0  0  0  0  0  0  0  0
   28.1817   32.4708   39.9989 C   0  0  1  0  0  0  0  0  0  0  0  0
   27.6395   31.1930   39.6140 O   0  0  0  0  0  0  0  0  0  0  0  0
   29.7014   32.3170   40.0248 C   0  0  1  0  0  0  0  0  0  0  0  0
   30.2885   32.8391   41.2243 O   0  0  0  0  0  0  0  0  0  0  0  0
   29.9642   30.8108   39.9774 C   0  0  1  0  0  0  0  0  0  0  0  0
   30.6265   30.3613   41.1740 O   0  0  0  0  0  0  0  0  0  0  0  0
   28.5920   30.1731   39.8365 C   0  0  2  0  0  0  0  0  0  0  0  0
   28.5045   29.2392   38.7308 N   0  3  0  0  0  0  0  0  0  0  0  0
   28.1655   27.9040   38.8083 C   0  0  0  0  0  0  0  0  0  0  0  0
   28.2140   27.3045   37.6387 N   0  0  0  0  0  0  0  0  0  0  0  0
   28.5572   28.2971   36.7498 C   0  0  0  0  0  0  0  0  0  0  0  0
   28.7479   28.2503   35.3019 C   0  0  0  0  0  0  0  0  0  0  0  0
   28.6059   27.2446   34.6120 O   0  0  0  0  0  0  0  0  0  0  0  0
   29.1521   29.4651   34.7520 N   0  3  0  0  0  0  0  0  0  0  0  0
   29.3546   30.6311   35.4583 C   0  0  0  0  0  0  0  0  0  0  0  0
   29.7299   31.6513   34.7763 N   0  0  0  0  0  0  0  0  0  0  0  0
   29.1693   30.6212   36.8157 N   0  3  0  0  0  0  0  0  0  0  0  0
   28.7686   29.4812   37.4137 C   0  0  0  0  0  0  0  0  0  0  0  0
   28.0812   34.5363   39.3396 H   0  0  0  0  0  0  0  0  0  0  0  0
   27.9710   33.3461   38.0149 H   0  0  0  0  0  0  0  0  0  0  0  0
   27.8047   32.6888   41.0055 H   0  0  0  0  0  0  0  0  0  0  0  0
   30.1738   32.8198   39.1726 H   0  0  0  0  0  0  0  0  0  0  0  0
   29.8582   32.3536   41.9565 H   0  0  0  0  0  0  0  0  0  0  0  0
   30.6356   30.5608   39.1494 H   0  0  0  0  0  0  0  0  0  0  0  0
   31.3863   30.9673   41.2822 H   0  0  0  0  0  0  0  0  0  0  0  0
   28.3133   29.6259   40.7531 H   0  0  0  0  0  0  0  0  0  0  0  0
   27.8993   27.4282   39.7454 H   0  0  0  0  0  0  0  0  0  0  0  0
   29.2723   29.5090   33.7553 H   0  0  0  0  0  0  0  0  0  0  0  0
   29.7761   32.4650   35.3891 H   0  0  0  0  0  0  0  0  0  0  0  0
   29.1880   31.5189   37.2829 H   0  0  0  0  0  0  0  0  0  0  0  0
  1  2  2  0  0  0  0
  1  3  1  0  0  0  0
  1  4  1  0  0  0  0
  1  5  1  0  0  0  0
  5  6  1  0  0  0  0
  6  7  1  0  0  0  0
  6 25  1  0  0  0  0
  6 26  1  0  0  0  0
  7  8  1  0  0  0  0
  7  9  1  0  0  0  0
  7 27  1  1  0  0  0
  8 13  1  0  0  0  0
  9 10  1  0  0  0  0
  9 11  1  0  0  0  0
  9 28  1  6  0  0  0
 10 29  1  0  0  0  0
 11 12  1  0  0  0  0
 11 13  1  0  0  0  0
 11 30  1  6  0  0  0
 12 31  1  0  0  0  0
 13 14  1  0  0  0  0
 13 32  1  1  0  0  0
 14 15  2  0  0  0  0
 14 24  1  0  0  0  0
 15 16  1  0  0  0  0
 15 33  1  0  0  0  0
 16 17  2  0  0  0  0
 17 18  1  0  0  0  0
 17 24  1  0  0  0  0
 18 19  2  0  0  0  0
 18 20  1  0  0  0  0
 20 21  1  0  0  0  0
 20 34  1  0  0  0  0
 21 22  2  0  0  0  0
 21 23  1  0  0  0  0
 22 35  1  0  0  0  0
 23 24  2  0  0  0  0
 23 36  1  0  0  0  0
M  CHG  3  14   1  20   1  23   1
M  END
$$$$
