5L2
 OpenBabel04111923053D

 53 54  0  0  1  0  0  0  0  0999 V2000
   -2.0235    5.2671   12.0222 C   0  0  1  0  0  0  0  0  0  0  0  0
   -0.6494    5.9281   11.9665 C   0  0  1  0  0  0  0  0  0  0  0  0
    0.4124    5.1354   11.1838 C   0  0  1  0  0  0  0  0  0  0  0  0
    0.0596    3.6926   10.7581 C   0  0  1  0  0  0  0  0  0  0  0  0
   -1.1927    3.0990   11.3400 C   0  0  0  0  0  0  0  0  0  0  0  0
   -1.4898    1.7987   11.1982 C   0  0  0  0  0  0  0  0  0  0  0  0
   -0.7022    7.3082   11.5235 O   0  0  0  0  0  0  0  0  0  0  0  0
    0.9684    5.8790   10.0897 O   0  0  0  0  0  0  0  0  0  0  0  0
    0.0194    3.5599    9.3366 O   0  0  0  0  0  0  0  0  0  0  0  0
   -2.5744    1.2083   11.8508 O   0  0  0  0  0  0  0  0  0  0  0  0
   -3.3334    0.3982   11.0427 C   0  0  0  0  0  0  0  0  0  0  0  0
   -3.1784    0.2142    9.8424 O   0  0  0  0  0  0  0  0  0  0  0  0
   -4.4138   -0.2514   11.8534 C   0  0  0  0  0  0  0  0  0  0  0  0
   -1.9958    3.8494   12.1567 O   0  0  0  0  0  0  0  0  0  0  0  0
   -2.8323    6.0007   13.5341 S   0  0  0  0  0  0  0  0  0  0  0  0
   -1.8979    5.9682   14.6416 O   0  0  0  0  0  0  0  0  0  0  0  0
   -3.4448    7.2510   13.1362 O   0  0  0  0  0  0  0  0  0  0  0  0
   -4.0391    4.9337   13.9173 N   0  0  0  0  0  0  0  0  0  0  0  0
   -3.7725    3.7413   14.7344 C   0  0  0  0  0  0  0  0  0  0  0  0
   -5.1396    3.0628   14.7797 C   0  0  2  0  0  0  0  0  0  0  0  0
   -5.0407    1.6796   15.0596 O   0  0  0  0  0  0  0  0  0  0  0  0
   -5.6303    1.1496   16.4728 S   0  0  0  0  0  0  0  0  0  0  0  0
   -4.7381    1.5728   17.5242 O   0  0  0  0  0  0  0  0  0  0  0  0
   -7.0487    1.4016   16.5128 O   0  0  0  0  0  0  0  0  0  0  0  0
   -5.4416   -0.5078   16.3301 N   0  0  0  0  0  0  0  0  0  0  0  0
   -5.6229    3.2622   13.3461 C   0  0  0  0  0  0  0  0  0  0  0  0
   -5.1322    4.6576   12.9630 C   0  0  1  0  0  0  0  0  0  0  0  0
   -6.2285    5.6913   13.1390 C   0  0  0  0  0  0  0  0  0  0  0  0
   -6.8414    5.8640   14.1763 O   0  0  0  0  0  0  0  0  0  0  0  0
   -6.4165    6.3882   11.9840 O   0  0  0  0  0  0  0  0  0  0  0  0
   -7.3324    7.4714   12.1511 C   0  0  0  0  0  0  0  0  0  0  0  0
   -2.6626    5.5567   11.1790 H   0  0  0  0  0  0  0  0  0  0  0  0
   -0.2441    5.9672   12.9804 H   0  0  0  0  0  0  0  0  0  0  0  0
    1.2477    5.0299   11.8876 H   0  0  0  0  0  0  0  0  0  0  0  0
    0.8995    3.0661   11.0866 H   0  0  0  0  0  0  0  0  0  0  0  0
   -0.8992    1.0924   10.6242 H   0  0  0  0  0  0  0  0  0  0  0  0
   -1.3020    7.8168   12.0981 H   0  0  0  0  0  0  0  0  0  0  0  0
    1.0084    6.8060   10.4031 H   0  0  0  0  0  0  0  0  0  0  0  0
    0.7773    4.0837    9.0055 H   0  0  0  0  0  0  0  0  0  0  0  0
   -4.9576   -0.9615   11.2247 H   0  0  0  0  0  0  0  0  0  0  0  0
   -5.1264    0.4859   12.2201 H   0  0  0  0  0  0  0  0  0  0  0  0
   -3.9693   -0.8006   12.6865 H   0  0  0  0  0  0  0  0  0  0  0  0
   -3.4197    4.0005   15.7358 H   0  0  0  0  0  0  0  0  0  0  0  0
   -3.0290    3.0917   14.2627 H   0  0  0  0  0  0  0  0  0  0  0  0
   -5.8056    3.5885   15.4771 H   0  0  0  0  0  0  0  0  0  0  0  0
   -5.5193   -0.9570   17.2424 H   0  0  0  0  0  0  0  0  0  0  0  0
   -4.5907   -0.7528   15.8310 H   0  0  0  0  0  0  0  0  0  0  0  0
   -6.7028    3.1236   13.2557 H   0  0  0  0  0  0  0  0  0  0  0  0
   -5.1463    2.5256   12.6927 H   0  0  0  0  0  0  0  0  0  0  0  0
   -4.7791    4.6451   11.9270 H   0  0  0  0  0  0  0  0  0  0  0  0
   -7.4876    7.9427   11.1774 H   0  0  0  0  0  0  0  0  0  0  0  0
   -6.9071    8.2114   12.8363 H   0  0  0  0  0  0  0  0  0  0  0  0
   -8.2966    7.1102   12.5215 H   0  0  0  0  0  0  0  0  0  0  0  0
  1  2  1  0  0  0  0
  1 14  1  0  0  0  0
  1 15  1  0  0  0  0
  1 32  1  6  0  0  0
  2  3  1  0  0  0  0
  2  7  1  0  0  0  0
  2 33  1  1  0  0  0
  3  4  1  0  0  0  0
  3  8  1  0  0  0  0
  3 34  1  1  0  0  0
  4  5  1  0  0  0  0
  4  9  1  0  0  0  0
  4 35  1  1  0  0  0
  5  6  2  0  0  0  0
  5 14  1  0  0  0  0
  6 10  1  0  0  0  0
  6 36  1  0  0  0  0
  7 37  1  0  0  0  0
  8 38  1  0  0  0  0
  9 39  1  0  0  0  0
 10 11  1  0  0  0  0
 11 12  2  0  0  0  0
 11 13  1  0  0  0  0
 13 40  1  0  0  0  0
 13 41  1  0  0  0  0
 13 42  1  0  0  0  0
 15 16  2  0  0  0  0
 15 17  2  0  0  0  0
 15 18  1  0  0  0  0
 18 19  1  0  0  0  0
 18 27  1  0  0  0  0
 19 20  1  0  0  0  0
 19 43  1  0  0  0  0
 19 44  1  0  0  0  0
 20 21  1  0  0  0  0
 20 26  1  0  0  0  0
 20 45  1  1  0  0  0
 21 22  1  0  0  0  0
 22 23  2  0  0  0  0
 22 24  2  0  0  0  0
 22 25  1  0  0  0  0
 25 46  1  0  0  0  0
 25 47  1  0  0  0  0
 26 27  1  0  0  0  0
 26 48  1  0  0  0  0
 26 49  1  0  0  0  0
 27 28  1  0  0  0  0
 27 50  1  6  0  0  0
 28 29  2  0  0  0  0
 28 30  1  0  0  0  0
 30 31  1  0  0  0  0
 31 51  1  0  0  0  0
 31 52  1  0  0  0  0
 31 53  1  0  0  0  0
M  END
$$$$
