5OF
 OpenBabel04111922413D

 22 23  0  0  0  0  0  0  0  0999 V2000
    1.7389  -15.8998   -5.9576 C   0  0  0  0  0  0  0  0  0  0  0  0
    3.1399  -18.1648   -5.1725 C   0  0  0  0  0  0  0  0  0  0  0  0
    3.0364  -15.7528   -5.4669 C   0  0  0  0  0  0  0  0  0  0  0  0
    5.9041  -12.8338   -6.5944 O   0  0  0  0  0  0  0  0  0  0  0  0
    5.5392  -12.8149   -5.3825 C   0  0  0  0  0  0  0  0  0  0  0  0
    5.6707  -11.9011   -4.5175 O   0  0  0  0  0  0  0  0  0  0  0  0
    4.9681  -14.1280   -4.8591 C   0  0  0  0  0  0  0  0  0  0  0  0
    3.5698  -14.3623   -5.3859 C   0  0  0  0  0  0  0  0  0  0  0  0
    2.8452  -13.3297   -5.7018 N   0  0  0  0  0  0  0  0  0  0  0  0
    1.5977  -13.5107   -6.1841 N   0  3  0  0  0  0  0  0  0  0  0  0
    0.9722  -14.7105   -6.3500 C   0  0  0  0  0  0  0  0  0  0  0  0
   -0.1727  -14.8068   -6.7865 O   0  0  0  0  0  0  0  0  0  0  0  0
    1.1458  -17.1627   -6.0737 C   0  0  0  0  0  0  0  0  0  0  0  0
    1.8477  -18.2975   -5.6829 C   0  0  0  0  0  0  0  0  0  0  0  0
    3.7357  -16.8984   -5.0638 C   0  0  0  0  0  0  0  0  0  0  0  0
    3.6857  -19.0518   -4.8582 H   0  0  0  0  0  0  0  0  0  0  0  0
    4.9295  -14.1170   -3.7637 H   0  0  0  0  0  0  0  0  0  0  0  0
    5.6477  -14.9291   -5.1662 H   0  0  0  0  0  0  0  0  0  0  0  0
    1.1146  -12.6706   -6.4798 H   0  0  0  0  0  0  0  0  0  0  0  0
    0.1358  -17.2505   -6.4699 H   0  0  0  0  0  0  0  0  0  0  0  0
    1.3856  -19.2772   -5.7742 H   0  0  0  0  0  0  0  0  0  0  0  0
    4.7418  -16.8342   -4.6584 H   0  0  0  0  0  0  0  0  0  0  0  0
  1  3  2  0  0  0  0
  1 11  1  0  0  0  0
  1 13  1  0  0  0  0
  2 14  1  0  0  0  0
  2 15  2  0  0  0  0
  2 16  1  0  0  0  0
  3  8  1  0  0  0  0
  3 15  1  0  0  0  0
  4  5  2  0  0  0  0
  5  6  1  0  0  0  0
  5  7  1  0  0  0  0
  7  8  1  0  0  0  0
  7 17  1  0  0  0  0
  7 18  1  0  0  0  0
  8  9  2  0  0  0  0
  9 10  1  0  0  0  0
 10 11  1  0  0  0  0
 10 19  1  0  0  0  0
 11 12  2  0  0  0  0
 13 14  2  0  0  0  0
 13 20  1  0  0  0  0
 14 21  1  0  0  0  0
 15 22  1  0  0  0  0
M  CHG  1  10   1
M  END
$$$$
