5P8
 OpenBabel04111918193D

 49 52  0  0  1  0  0  0  0  0999 V2000
  -26.4229  -20.0018   59.8481 C   0  0  0  0  0  0  0  0  0  0  0  0
  -34.4078  -18.7513   61.1524 C   0  0  0  0  0  0  0  0  0  0  0  0
  -34.8907  -18.5741   62.4562 C   0  0  0  0  0  0  0  0  0  0  0  0
  -29.9813  -17.3394   60.9021 C   0  0  0  0  0  0  0  0  0  0  0  0
  -33.7070  -16.4409   62.6032 C   0  0  0  0  0  0  0  0  0  0  0  0
  -27.9029  -17.8566   61.8801 C   0  0  0  0  0  0  0  0  0  0  0  0
  -27.8213  -20.2410   59.7205 C   0  0  0  0  0  0  0  0  0  0  0  0
  -28.9083  -18.2457   60.9942 C   0  0  0  0  0  0  0  0  0  0  0  0
  -28.9254  -19.5080   60.2018 C   0  0  0  0  0  0  0  0  0  0  0  0
  -33.5507  -17.7866   60.5694 C   0  0  0  0  0  0  0  0  0  0  0  0
  -33.2015  -16.5943   61.2831 C   0  0  0  0  0  0  0  0  0  0  0  0
  -30.0615  -16.1406   61.6347 C   0  0  0  0  0  0  0  0  0  0  0  0
  -34.5369  -17.4238   63.1700 C   0  0  0  0  0  0  0  0  0  0  0  0
  -30.0675  -20.2649   59.7052 C   0  0  0  0  0  0  0  0  0  0  0  0
  -28.9910  -15.8438   62.5033 C   0  0  0  0  0  0  0  0  0  0  0  0
  -33.1058  -18.0634   59.1611 C   0  0  0  0  0  0  0  0  0  0  0  0
  -31.5736  -20.0446   59.8745 C   0  0  0  0  0  0  0  0  0  0  0  0
  -32.2696  -15.5069   60.7152 C   0  0  1  0  0  0  0  0  0  0  0  0
  -33.0052  -14.1521   60.5861 C   0  0  0  0  0  0  0  0  0  0  0  0
  -27.6241  -22.3824   58.3548 C   0  0  0  0  0  0  0  0  0  0  0  0
  -31.8257  -19.3150   57.4694 C   0  0  0  0  0  0  0  0  0  0  0  0
  -25.2640  -19.8196   59.9676 N   0  0  0  0  0  0  0  0  0  0  0  0
  -27.9256  -16.6912   62.6242 N   0  0  0  0  0  0  0  0  0  0  0  0
  -29.6810  -21.3569   59.0293 N   0  0  0  0  0  0  0  0  0  0  0  0
  -28.3404  -21.3190   59.0378 N   0  3  0  0  0  0  0  0  0  0  0  0
  -32.1828  -19.1103   58.8788 N   0  0  0  0  0  0  0  0  0  0  0  0
  -29.0045  -14.6796   63.2622 N   0  0  0  0  0  0  0  0  0  0  0  0
  -33.5722  -17.3164   58.2990 O   0  0  0  0  0  0  0  0  0  0  0  0
  -31.1158  -15.2520   61.5695 O   0  0  0  0  0  0  0  0  0  0  0  0
  -34.9991  -17.2599   64.4169 F   0  0  0  0  0  0  0  0  0  0  0  0
  -34.6919  -19.6435   60.5966 H   0  0  0  0  0  0  0  0  0  0  0  0
  -35.5359  -19.3220   62.9163 H   0  0  0  0  0  0  0  0  0  0  0  0
  -30.7764  -17.5808   60.2216 H   0  0  0  0  0  0  0  0  0  0  0  0
  -33.4553  -15.5635   63.1984 H   0  0  0  0  0  0  0  0  0  0  0  0
  -27.0311  -18.4889   62.0309 H   0  0  0  0  0  0  0  0  0  0  0  0
  -31.7552  -19.6690   60.8846 H   0  0  0  0  0  0  0  0  0  0  0  0
  -32.0725  -21.0230   59.7787 H   0  0  0  0  0  0  0  0  0  0  0  0
  -31.9245  -15.7742   59.7096 H   0  0  0  0  0  0  0  0  0  0  0  0
  -32.3386  -13.3731   60.1828 H   0  0  0  0  0  0  0  0  0  0  0  0
  -33.3524  -13.7985   61.5680 H   0  0  0  0  0  0  0  0  0  0  0  0
  -33.8768  -14.2354   59.9236 H   0  0  0  0  0  0  0  0  0  0  0  0
  -28.3457  -23.0836   57.9183 H   0  0  0  0  0  0  0  0  0  0  0  0
  -26.9963  -22.9090   59.0758 H   0  0  0  0  0  0  0  0  0  0  0  0
  -27.0140  -21.9478   57.5612 H   0  0  0  0  0  0  0  0  0  0  0  0
  -32.3291  -18.5813   56.8322 H   0  0  0  0  0  0  0  0  0  0  0  0
  -32.1151  -20.3198   57.1421 H   0  0  0  0  0  0  0  0  0  0  0  0
  -30.7447  -19.1914   57.3396 H   0  0  0  0  0  0  0  0  0  0  0  0
  -28.2331  -14.4760   63.8808 H   0  0  0  0  0  0  0  0  0  0  0  0
  -29.7841  -14.0395   63.1907 H   0  0  0  0  0  0  0  0  0  0  0  0
  1  7  1  0  0  0  0
  1 22  3  0  0  0  0
  2  3  2  0  0  0  0
  2 10  1  0  0  0  0
  2 31  1  0  0  0  0
  3 13  1  0  0  0  0
  3 32  1  0  0  0  0
  4  8  2  0  0  0  0
  4 12  1  0  0  0  0
  4 33  1  0  0  0  0
  5 11  1  0  0  0  0
  5 13  2  0  0  0  0
  5 34  1  0  0  0  0
  6  8  1  0  0  0  0
  6 23  2  0  0  0  0
  6 35  1  0  0  0  0
  7  9  1  0  0  0  0
  7 25  2  0  0  0  0
  8  9  1  0  0  0  0
  9 14  2  0  0  0  0
 10 11  2  0  0  0  0
 10 16  1  0  0  0  0
 11 18  1  0  0  0  0
 12 15  2  0  0  0  0
 12 29  1  0  0  0  0
 13 30  1  0  0  0  0
 14 17  1  0  0  0  0
 14 24  1  0  0  0  0
 15 23  1  0  0  0  0
 15 27  1  0  0  0  0
 16 26  1  0  0  0  0
 16 28  2  0  0  0  0
 17 26  1  0  0  0  0
 17 36  1  0  0  0  0
 17 37  1  0  0  0  0
 18 19  1  0  0  0  0
 18 29  1  0  0  0  0
 18 38  1  6  0  0  0
 19 39  1  0  0  0  0
 19 40  1  0  0  0  0
 19 41  1  0  0  0  0
 20 25  1  0  0  0  0
 20 42  1  0  0  0  0
 20 43  1  0  0  0  0
 20 44  1  0  0  0  0
 21 26  1  0  0  0  0
 21 45  1  0  0  0  0
 21 46  1  0  0  0  0
 21 47  1  0  0  0  0
 24 25  1  0  0  0  0
 27 48  1  0  0  0  0
 27 49  1  0  0  0  0
M  CHG  1  25   1
M  END
$$$$
