5PN
 OpenBabel04111919483D

 19 20  0  0  0  0  0  0  0  0999 V2000
    1.7185    7.0916  -12.7828 C   0  0  0  0  0  0  0  0  0  0  0  0
    0.6972    6.1737  -12.1835 C   0  0  0  0  0  0  0  0  0  0  0  0
   -0.5391    6.7059  -11.9224 N   0  0  0  0  0  0  0  0  0  0  0  0
   -1.4820    5.8888  -11.3896 C   0  0  0  0  0  0  0  0  0  0  0  0
   -1.2090    4.5704  -11.1225 C   0  0  0  0  0  0  0  0  0  0  0  0
   -2.0441    3.5384  -10.5532 C   0  0  0  0  0  0  0  0  0  0  0  0
   -3.2008    3.6535  -10.1984 O   0  0  0  0  0  0  0  0  0  0  0  0
   -1.2799    2.4029  -10.4987 O   0  0  0  0  0  0  0  0  0  0  0  0
    0.0552    2.6256  -11.0029 C   0  0  0  0  0  0  0  0  0  0  0  0
    0.0290    4.0406  -11.3994 C   0  0  0  0  0  0  0  0  0  0  0  0
    1.0072    4.8346  -11.9419 C   0  0  0  0  0  0  0  0  0  0  0  0
    2.2347    4.3293  -12.2250 O   0  0  0  0  0  0  0  0  0  0  0  0
    2.6717    6.5834  -12.9589 H   0  0  0  0  0  0  0  0  0  0  0  0
    1.9090    7.9312  -12.1083 H   0  0  0  0  0  0  0  0  0  0  0  0
    1.3589    7.4643  -13.7459 H   0  0  0  0  0  0  0  0  0  0  0  0
   -2.4523    6.3293  -11.1919 H   0  0  0  0  0  0  0  0  0  0  0  0
    0.2293    1.9680  -11.8584 H   0  0  0  0  0  0  0  0  0  0  0  0
    0.7795    2.4337  -10.2073 H   0  0  0  0  0  0  0  0  0  0  0  0
    2.1113    3.5554  -12.8018 H   0  0  0  0  0  0  0  0  0  0  0  0
  1  2  1  0  0  0  0
  1 13  1  0  0  0  0
  1 14  1  0  0  0  0
  1 15  1  0  0  0  0
  2  3  2  0  0  0  0
  2 11  1  0  0  0  0
  3  4  1  0  0  0  0
  4  5  2  0  0  0  0
  4 16  1  0  0  0  0
  5  6  1  0  0  0  0
  5 10  1  0  0  0  0
  6  7  2  0  0  0  0
  6  8  1  0  0  0  0
  8  9  1  0  0  0  0
  9 10  1  0  0  0  0
  9 17  1  0  0  0  0
  9 18  1  0  0  0  0
 10 11  2  0  0  0  0
 11 12  1  0  0  0  0
 12 19  1  0  0  0  0
M  END
$$$$
