5UD
 OpenBabel04111921003D

 29 30  0  0  1  0  0  0  0  0999 V2000
   49.2951  -22.1301   -5.3816 F   0  0  0  0  0  0  0  0  0  0  0  0
   49.7975  -21.5977   -6.5125 C   0  0  0  0  0  0  0  0  0  0  0  0
   49.1726  -21.9695   -7.7666 C   0  0  0  0  0  0  0  0  0  0  0  0
   48.2123  -22.7348   -7.8136 O   0  0  0  0  0  0  0  0  0  0  0  0
   49.6911  -21.4100   -8.9178 N   0  3  0  0  0  0  0  0  0  0  0  0
   50.7611  -20.5500   -8.8941 C   0  0  0  0  0  0  0  0  0  0  0  0
   51.1953  -20.0716   -9.9416 O   0  0  0  0  0  0  0  0  0  0  0  0
   50.8240  -20.7636   -6.4944 C   0  0  0  0  0  0  0  0  0  0  0  0
   51.3252  -20.2359   -7.6581 N   0  3  0  0  0  0  0  0  0  0  0  0
   52.4583  -19.3074   -7.6494 C   0  0  1  0  0  0  0  0  0  0  0  0
   52.0355  -17.8416   -7.7341 C   0  0  2  0  0  0  0  0  0  0  0  0
   52.9874  -17.1401   -8.5494 O   0  0  0  0  0  0  0  0  0  0  0  0
   52.1343  -17.3535   -6.3096 C   0  0  2  0  0  0  0  0  0  0  0  0
   52.3992  -15.9560   -6.2720 O   0  0  0  0  0  0  0  0  0  0  0  0
   53.2937  -18.1695   -5.7843 C   0  0  2  0  0  0  0  0  0  0  0  0
   53.2244  -19.4502   -6.4341 O   0  0  0  0  0  0  0  0  0  0  0  0
   53.1946  -18.3571   -4.2736 C   0  0  0  0  0  0  0  0  0  0  0  0
   51.9419  -18.8631   -3.8073 O   0  0  0  0  0  0  0  0  0  0  0  0
   49.2815  -21.6474   -9.8080 H   0  0  0  0  0  0  0  0  0  0  0  0
   51.2901  -20.4994   -5.5522 H   0  0  0  0  0  0  0  0  0  0  0  0
   53.1227  -19.5420   -8.4931 H   0  0  0  0  0  0  0  0  0  0  0  0
   51.0343  -17.7201   -8.1522 H   0  0  0  0  0  0  0  0  0  0  0  0
   52.7100  -16.2066   -8.5754 H   0  0  0  0  0  0  0  0  0  0  0  0
   51.2077  -17.5635   -5.7620 H   0  0  0  0  0  0  0  0  0  0  0  0
   52.4666  -15.6736   -5.3433 H   0  0  0  0  0  0  0  0  0  0  0  0
   54.2553  -17.6788   -6.0187 H   0  0  0  0  0  0  0  0  0  0  0  0
   53.3637  -17.3940   -3.7911 H   0  0  0  0  0  0  0  0  0  0  0  0
   53.9553  -19.0745   -3.9661 H   0  0  0  0  0  0  0  0  0  0  0  0
   51.2325  -18.2380   -4.0245 H   0  0  0  0  0  0  0  0  0  0  0  0
  1  2  1  0  0  0  0
  2  3  1  0  0  0  0
  2  8  2  0  0  0  0
  3  4  2  0  0  0  0
  3  5  1  0  0  0  0
  5  6  1  0  0  0  0
  5 19  1  0  0  0  0
  6  7  2  0  0  0  0
  6  9  1  0  0  0  0
  8  9  1  0  0  0  0
  8 20  1  0  0  0  0
  9 10  1  0  0  0  0
 10 11  1  0  0  0  0
 10 16  1  0  0  0  0
 10 21  1  6  0  0  0
 11 12  1  0  0  0  0
 11 13  1  0  0  0  0
 11 22  1  6  0  0  0
 12 23  1  0  0  0  0
 13 14  1  0  0  0  0
 13 15  1  0  0  0  0
 13 24  1  1  0  0  0
 14 25  1  0  0  0  0
 15 16  1  0  0  0  0
 15 17  1  0  0  0  0
 15 26  1  6  0  0  0
 17 18  1  0  0  0  0
 17 27  1  0  0  0  0
 17 28  1  0  0  0  0
 18 29  1  0  0  0  0
M  CHG  2   5   1   9   1
M  END
$$$$
