5ZE
 OpenBabel04111920093D

 18 18  0  0  0  0  0  0  0  0999 V2000
    5.6657   11.1203   44.7380 C   0  0  0  0  0  0  0  0  0  0  0  0
    4.8711   12.2319   44.1093 C   0  0  0  0  0  0  0  0  0  0  0  0
    4.7793   12.3466   42.7322 C   0  0  0  0  0  0  0  0  0  0  0  0
    4.0204   13.3982   42.2494 C   0  0  0  0  0  0  0  0  0  0  0  0
    3.8494   13.6031   40.7694 C   0  0  0  0  0  0  0  0  0  0  0  0
    3.4029   14.2740   43.0700 N   0  0  0  0  0  0  0  0  0  0  0  0
    3.5430   14.0866   44.3893 C   0  0  0  0  0  0  0  0  0  0  0  0
    2.9266   14.9844   45.2194 N   0  0  0  0  0  0  0  0  0  0  0  0
    4.2544   13.0964   44.9428 N   0  0  0  0  0  0  0  0  0  0  0  0
    6.1310   10.4735   43.9849 H   0  0  0  0  0  0  0  0  0  0  0  0
    5.0215   10.4917   45.3624 H   0  0  0  0  0  0  0  0  0  0  0  0
    6.4656   11.5275   45.3651 H   0  0  0  0  0  0  0  0  0  0  0  0
    5.2728   11.6522   42.0693 H   0  0  0  0  0  0  0  0  0  0  0  0
    3.2167   14.4742   40.5669 H   0  0  0  0  0  0  0  0  0  0  0  0
    3.3723   12.7321   40.3061 H   0  0  0  0  0  0  0  0  0  0  0  0
    4.8165   13.7740   40.2844 H   0  0  0  0  0  0  0  0  0  0  0  0
    2.3973   15.7220   44.7934 H   0  0  0  0  0  0  0  0  0  0  0  0
    3.0042   14.8510   46.2109 H   0  0  0  0  0  0  0  0  0  0  0  0
  1  2  1  0  0  0  0
  1 10  1  0  0  0  0
  1 11  1  0  0  0  0
  1 12  1  0  0  0  0
  2  3  2  0  0  0  0
  2  9  1  0  0  0  0
  3  4  1  0  0  0  0
  3 13  1  0  0  0  0
  4  5  1  0  0  0  0
  4  6  2  0  0  0  0
  5 14  1  0  0  0  0
  5 15  1  0  0  0  0
  5 16  1  0  0  0  0
  6  7  1  0  0  0  0
  7  8  1  0  0  0  0
  7  9  2  0  0  0  0
  8 17  1  0  0  0  0
  8 18  1  0  0  0  0
M  END
$$$$
