683
 OpenBabel04111919063D

 31 32  0  0  0  0  0  0  0  0999 V2000
  -30.2568  -30.8888    6.6932 O   0  0  0  0  0  0  0  0  0  0  0  0
  -29.7252  -30.1237    7.5429 C   0  0  0  0  0  0  0  0  0  0  0  0
  -30.3199  -29.1653    8.1435 O   0  0  0  0  0  0  0  0  0  0  0  0
  -28.2448  -30.2648    7.8041 C   0  0  0  0  0  0  0  0  0  0  0  0
  -27.5024  -29.0860    8.0363 C   0  0  0  0  0  0  0  0  0  0  0  0
  -26.1335  -29.1209    8.3162 C   0  0  0  0  0  0  0  0  0  0  0  0
  -25.3781  -27.8542    8.5431 C   0  0  0  0  0  0  0  0  0  0  0  0
  -25.4863  -30.3487    8.3653 C   0  0  0  0  0  0  0  0  0  0  0  0
  -26.2027  -31.5159    8.1140 C   0  0  0  0  0  0  0  0  0  0  0  0
  -27.5814  -31.5070    7.8337 C   0  0  0  0  0  0  0  0  0  0  0  0
  -28.2952  -32.7132    7.6914 N   0  0  0  0  0  0  0  0  0  0  0  0
  -28.0904  -34.0021    8.2219 C   0  0  0  0  0  0  0  0  0  0  0  0
  -27.2274  -34.2030    9.3188 C   0  0  0  0  0  0  0  0  0  0  0  0
  -26.9313  -35.4685    9.8184 C   0  0  0  0  0  0  0  0  0  0  0  0
  -27.5238  -36.5756    9.2439 C   0  0  0  0  0  0  0  0  0  0  0  0
  -28.3979  -36.4075    8.1683 C   0  0  0  0  0  0  0  0  0  0  0  0
  -28.6902  -35.1356    7.6303 C   0  0  0  0  0  0  0  0  0  0  0  0
  -29.6308  -35.0737    6.4379 C   0  0  0  0  0  0  0  0  0  0  0  0
  -29.8842  -36.1856    5.8507 O   0  0  0  0  0  0  0  0  0  0  0  0
  -30.1163  -33.9646    6.0988 O   0  0  0  0  0  0  0  0  0  0  0  0
  -28.0360  -28.1375    7.9867 H   0  0  0  0  0  0  0  0  0  0  0  0
  -24.3236  -28.0622    8.7523 H   0  0  0  0  0  0  0  0  0  0  0  0
  -25.7936  -27.3162    9.3994 H   0  0  0  0  0  0  0  0  0  0  0  0
  -25.4265  -27.2259    7.6490 H   0  0  0  0  0  0  0  0  0  0  0  0
  -24.4269  -30.4171    8.5873 H   0  0  0  0  0  0  0  0  0  0  0  0
  -25.6624  -32.4573    8.1226 H   0  0  0  0  0  0  0  0  0  0  0  0
  -29.1522  -32.6303    7.0955 H   0  0  0  0  0  0  0  0  0  0  0  0
  -26.7797  -33.3470    9.8146 H   0  0  0  0  0  0  0  0  0  0  0  0
  -26.2431  -35.5712   10.6512 H   0  0  0  0  0  0  0  0  0  0  0  0
  -27.3222  -37.5700    9.6220 H   0  0  0  0  0  0  0  0  0  0  0  0
  -28.8734  -37.2771    7.7239 H   0  0  0  0  0  0  0  0  0  0  0  0
  1  2  2  0  0  0  0
  2  3  1  0  0  0  0
  2  4  1  0  0  0  0
  4  5  2  0  0  0  0
  4 10  1  0  0  0  0
  5  6  1  0  0  0  0
  5 21  1  0  0  0  0
  6  7  1  0  0  0  0
  6  8  2  0  0  0  0
  7 22  1  0  0  0  0
  7 23  1  0  0  0  0
  7 24  1  0  0  0  0
  8  9  1  0  0  0  0
  8 25  1  0  0  0  0
  9 10  2  0  0  0  0
  9 26  1  0  0  0  0
 10 11  1  0  0  0  0
 11 12  1  0  0  0  0
 11 27  1  0  0  0  0
 12 13  2  0  0  0  0
 12 17  1  0  0  0  0
 13 14  1  0  0  0  0
 13 28  1  0  0  0  0
 14 15  2  0  0  0  0
 14 29  1  0  0  0  0
 15 16  1  0  0  0  0
 15 30  1  0  0  0  0
 16 17  2  0  0  0  0
 16 31  1  0  0  0  0
 17 18  1  0  0  0  0
 18 19  2  0  0  0  0
 18 20  1  0  0  0  0
M  END
$$$$
