6MH
 OpenBabel04111921173D

 15 15  0  0  0  0  0  0  0  0999 V2000
   16.1379    3.6538   13.5409 C   0  0  0  0  0  0  0  0  0  0  0  0
   15.5548    3.1574   14.8044 C   0  0  0  0  0  0  0  0  0  0  0  0
   14.8664    4.0047   15.5988 C   0  0  0  0  0  0  0  0  0  0  0  0
   14.3148    3.5360   16.8336 C   0  0  0  0  0  0  0  0  0  0  0  0
   14.4693    2.2778   17.2097 C   0  0  0  0  0  0  0  0  0  0  0  0
   15.2416    1.3068   16.3877 C   0  0  0  0  0  0  0  0  0  0  0  0
   15.4656   -0.2772   16.9153 S   0  0  0  0  0  0  0  0  0  0  0  0
   15.7202    1.8557   15.2092 N   0  0  0  0  0  0  0  0  0  0  0  0
   16.4735    1.0257   14.3778 O   0  0  0  0  0  0  0  0  0  0  0  0
   15.8849    4.7076   13.3958 H   0  0  0  0  0  0  0  0  0  0  0  0
   15.7439    3.0794   12.7001 H   0  0  0  0  0  0  0  0  0  0  0  0
   17.2250    3.5576   13.5847 H   0  0  0  0  0  0  0  0  0  0  0  0
   14.7346    5.0360   15.3240 H   0  0  0  0  0  0  0  0  0  0  0  0
   13.7569    4.2387   17.4599 H   0  0  0  0  0  0  0  0  0  0  0  0
   14.0514    1.8905   18.1305 H   0  0  0  0  0  0  0  0  0  0  0  0
  1  2  1  0  0  0  0
  1 10  1  0  0  0  0
  1 11  1  0  0  0  0
  1 12  1  0  0  0  0
  2  3  2  0  0  0  0
  2  8  1  0  0  0  0
  3  4  1  0  0  0  0
  3 13  1  0  0  0  0
  4  5  2  0  0  0  0
  4 14  1  0  0  0  0
  5  6  1  0  0  0  0
  5 15  1  0  0  0  0
  6  7  2  0  0  0  0
  6  8  1  0  0  0  0
  8  9  1  0  0  0  0
M  END
$$$$
