6NT
 OpenBabel04111918103D

 16 17  0  0  0  0  0  0  0  0999 V2000
   22.9603   -2.7265  -18.4191 O   0  0  0  0  0  0  0  0  0  0  0  0
   23.8257   -2.1566  -19.0985 N   0  0  0  0  0  0  0  0  0  0  0  0
   24.9975   -1.9739  -18.7356 O   0  0  0  0  0  0  0  0  0  0  0  0
   23.4343   -1.6575  -20.4237 C   0  0  0  0  0  0  0  0  0  0  0  0
   24.3762   -0.9799  -21.2195 C   0  0  0  0  0  0  0  0  0  0  0  0
   24.0043   -0.4547  -22.4670 C   0  0  0  0  0  0  0  0  0  0  0  0
   22.6725   -0.6078  -22.8876 C   0  0  0  0  0  0  0  0  0  0  0  0
   22.0260   -0.1816  -24.0153 N   0  0  0  0  0  0  0  0  0  0  0  0
   21.7761   -1.2969  -22.0802 C   0  0  0  0  0  0  0  0  0  0  0  0
   22.1097   -1.8562  -20.8467 C   0  0  0  0  0  0  0  0  0  0  0  0
   20.6099   -1.2421  -22.7888 N   0  3  0  0  0  0  0  0  0  0  0  0
   20.7589   -0.5744  -23.9422 N   0  0  0  0  0  0  0  0  0  0  0  0
   25.4023   -0.8445  -20.8835 H   0  0  0  0  0  0  0  0  0  0  0  0
   24.7209    0.0725  -23.0900 H   0  0  0  0  0  0  0  0  0  0  0  0
   21.3782   -2.3932  -20.2519 H   0  0  0  0  0  0  0  0  0  0  0  0
   19.6993   -1.6165  -22.5487 H   0  0  0  0  0  0  0  0  0  0  0  0
  1  2  2  0  0  0  0
  2  3  2  0  0  0  0
  2  4  1  0  0  0  0
  4  5  2  0  0  0  0
  4 10  1  0  0  0  0
  5  6  1  0  0  0  0
  5 13  1  0  0  0  0
  6  7  2  0  0  0  0
  6 14  1  0  0  0  0
  7  8  1  0  0  0  0
  7  9  1  0  0  0  0
  8 12  1  0  0  0  0
  9 10  2  0  0  0  0
  9 11  1  0  0  0  0
 10 15  1  0  0  0  0
 11 12  2  0  0  0  0
 11 16  1  0  0  0  0
M  CHG  1  11   1
M  END
$$$$
