6P3
 OpenBabel04111919233D

 23 24  0  0  0  0  0  0  0  0999 V2000
   11.9113   12.6696   43.4078 C   0  0  0  0  0  0  0  0  0  0  0  0
   11.6103   13.6981   42.4929 C   0  0  0  0  0  0  0  0  0  0  0  0
   11.9967   13.6431   41.1456 C   0  0  0  0  0  0  0  0  0  0  0  0
   12.7011   12.5417   40.6705 C   0  0  0  0  0  0  0  0  0  0  0  0
   13.0153   11.5036   41.5385 C   0  0  0  0  0  0  0  0  0  0  0  0
   12.6231   11.5647   42.8843 C   0  0  0  0  0  0  0  0  0  0  0  0
   11.4986   12.7724   44.8383 C   0  0  0  0  0  0  0  0  0  0  0  0
   11.3397   14.0316   45.3253 N   0  0  0  0  0  0  0  0  0  0  0  0
   10.9676   14.1769   46.6337 C   0  0  0  0  0  0  0  0  0  0  0  0
   10.7307   13.1300   47.5057 C   0  0  0  0  0  0  0  0  0  0  0  0
   10.8832   11.8452   46.9873 C   0  0  0  0  0  0  0  0  0  0  0  0
   11.2717   11.6592   45.6565 C   0  0  0  0  0  0  0  0  0  0  0  0
   10.3209   13.3758   48.9278 C   0  0  0  0  0  0  0  0  0  0  0  0
   10.5652   14.5257   49.4130 O   0  0  0  0  0  0  0  0  0  0  0  0
    9.7644   12.4111   49.5413 O   0  0  0  0  0  0  0  0  0  0  0  0
   11.0613   14.5722   42.8436 H   0  0  0  0  0  0  0  0  0  0  0  0
   11.7449   14.4616   40.4799 H   0  0  0  0  0  0  0  0  0  0  0  0
   13.0085   12.5034   39.6275 H   0  0  0  0  0  0  0  0  0  0  0  0
   13.5734   10.6469   41.1718 H   0  0  0  0  0  0  0  0  0  0  0  0
   12.9061   10.7385   43.5341 H   0  0  0  0  0  0  0  0  0  0  0  0
   10.8673   15.2073   46.9731 H   0  0  0  0  0  0  0  0  0  0  0  0
   10.6978   10.9893   47.6344 H   0  0  0  0  0  0  0  0  0  0  0  0
   11.3729   10.6492   45.2804 H   0  0  0  0  0  0  0  0  0  0  0  0
  1  2  2  0  0  0  0
  1  6  1  0  0  0  0
  1  7  1  0  0  0  0
  2  3  1  0  0  0  0
  2 16  1  0  0  0  0
  3  4  2  0  0  0  0
  3 17  1  0  0  0  0
  4  5  1  0  0  0  0
  4 18  1  0  0  0  0
  5  6  2  0  0  0  0
  5 19  1  0  0  0  0
  6 20  1  0  0  0  0
  7  8  2  0  0  0  0
  7 12  1  0  0  0  0
  8  9  1  0  0  0  0
  9 10  2  0  0  0  0
  9 21  1  0  0  0  0
 10 11  1  0  0  0  0
 10 13  1  0  0  0  0
 11 12  2  0  0  0  0
 11 22  1  0  0  0  0
 12 23  1  0  0  0  0
 13 14  2  0  0  0  0
 13 15  1  0  0  0  0
M  END
$$$$
