7MH
 OpenBabel04111921183D

 18 18  0  0  0  0  0  0  0  0999 V2000
   17.0952    1.3841   12.4501 C   0  0  0  0  0  0  0  0  0  0  0  0
   16.3861    1.8623   13.6704 C   0  0  0  0  0  0  0  0  0  0  0  0
   16.0041    3.1464   13.7883 C   0  0  0  0  0  0  0  0  0  0  0  0
   15.3419    3.6055   14.9897 C   0  0  0  0  0  0  0  0  0  0  0  0
   14.9512    5.0362   15.0956 C   0  0  0  0  0  0  0  0  0  0  0  0
   15.0612    2.7433   15.9535 C   0  0  0  0  0  0  0  0  0  0  0  0
   15.4431    1.3049   15.8673 C   0  0  0  0  0  0  0  0  0  0  0  0
   15.0424    0.2484   17.1199 S   0  0  0  0  0  0  0  0  0  0  0  0
   16.1307    0.9862   14.7083 N   0  0  0  0  0  0  0  0  0  0  0  0
   16.5761   -0.3240   14.5562 O   0  0  0  0  0  0  0  0  0  0  0  0
   17.1890    2.2133   11.7353 H   0  0  0  0  0  0  0  0  0  0  0  0
   16.5404    0.5761   11.9720 H   0  0  0  0  0  0  0  0  0  0  0  0
   18.0982    1.0427   12.7148 H   0  0  0  0  0  0  0  0  0  0  0  0
   16.1870    3.8593   12.9976 H   0  0  0  0  0  0  0  0  0  0  0  0
   14.4727    5.2108   16.0686 H   0  0  0  0  0  0  0  0  0  0  0  0
   14.2367    5.2957   14.3094 H   0  0  0  0  0  0  0  0  0  0  0  0
   15.8244    5.6900   15.0192 H   0  0  0  0  0  0  0  0  0  0  0  0
   14.5348    3.0379   16.8650 H   0  0  0  0  0  0  0  0  0  0  0  0
  1  2  1  0  0  0  0
  1 11  1  0  0  0  0
  1 12  1  0  0  0  0
  1 13  1  0  0  0  0
  2  3  2  0  0  0  0
  2  9  1  0  0  0  0
  3  4  1  0  0  0  0
  3 14  1  0  0  0  0
  4  5  1  0  0  0  0
  4  6  2  0  0  0  0
  5 15  1  0  0  0  0
  5 16  1  0  0  0  0
  5 17  1  0  0  0  0
  6  7  1  0  0  0  0
  6 18  1  0  0  0  0
  7  8  2  0  0  0  0
  7  9  1  0  0  0  0
  9 10  1  0  0  0  0
M  END
$$$$
