7SB
 OpenBabel04111918193D

 30 32  0  0  0  0  0  0  0  0999 V2000
  -37.9365   59.8448    0.1375 Cl  0  0  0  0  0  0  0  0  0  0  0  0
  -34.6237   52.3434    9.8373 C   0  0  0  0  0  0  0  0  0  0  0  0
  -35.7528   51.5881   10.0293 C   0  0  0  0  0  0  0  0  0  0  0  0
  -35.0507   53.5179    9.1731 C   0  0  0  0  0  0  0  0  0  0  0  0
  -37.6289   59.9963    2.8139 C   0  0  0  0  0  0  0  0  0  0  0  0
  -37.3868   57.8057    1.8162 C   0  0  0  0  0  0  0  0  0  0  0  0
  -37.3671   59.4549    4.0744 C   0  0  0  0  0  0  0  0  0  0  0  0
  -37.1267   57.2622    3.0754 C   0  0  0  0  0  0  0  0  0  0  0  0
  -36.8069   57.4959    5.5687 C   0  0  0  0  0  0  0  0  0  0  0  0
  -38.6162   54.4074    8.4894 N   0  0  0  0  0  0  0  0  0  0  0  0
  -36.9037   55.2894    7.4743 N   0  3  0  0  0  0  0  0  0  0  0  0
  -38.0040   56.8917    6.0985 N   0  0  0  0  0  0  0  0  0  0  0  0
  -39.0636   55.4267    7.6687 N   0  0  0  0  0  0  0  0  0  0  0  0
  -36.8416   52.2281    9.5350 O   0  0  0  0  0  0  0  0  0  0  0  0
  -37.6307   59.1710    1.6898 C   0  0  0  0  0  0  0  0  0  0  0  0
  -37.0976   58.0867    4.2131 C   0  0  0  0  0  0  0  0  0  0  0  0
  -37.3090   54.3368    8.3611 C   0  0  0  0  0  0  0  0  0  0  0  0
  -36.4242   53.4173    8.9970 C   0  0  0  0  0  0  0  0  0  0  0  0
  -38.0257   55.9326    7.0403 C   0  0  0  0  0  0  0  0  0  0  0  0
  -33.6191   52.0821   10.1400 H   0  0  0  0  0  0  0  0  0  0  0  0
  -35.9445   50.6245   10.4806 H   0  0  0  0  0  0  0  0  0  0  0  0
  -34.4261   54.3458    8.8699 H   0  0  0  0  0  0  0  0  0  0  0  0
  -37.8315   61.0586    2.7159 H   0  0  0  0  0  0  0  0  0  0  0  0
  -37.4011   57.1599    0.9424 H   0  0  0  0  0  0  0  0  0  0  0  0
  -37.3747   60.1066    4.9445 H   0  0  0  0  0  0  0  0  0  0  0  0
  -36.9516   56.1927    3.1685 H   0  0  0  0  0  0  0  0  0  0  0  0
  -35.9979   56.7648    5.4474 H   0  0  0  0  0  0  0  0  0  0  0  0
  -36.4341   58.2677    6.2523 H   0  0  0  0  0  0  0  0  0  0  0  0
  -35.9617   55.4428    7.1599 H   0  0  0  0  0  0  0  0  0  0  0  0
  -38.8733   57.3950    5.9345 H   0  0  0  0  0  0  0  0  0  0  0  0
  1 15  1  0  0  0  0
  2  3  2  0  0  0  0
  2  4  1  0  0  0  0
  2 20  1  0  0  0  0
  3 14  1  0  0  0  0
  3 21  1  0  0  0  0
  4 18  2  0  0  0  0
  4 22  1  0  0  0  0
  5  7  2  0  0  0  0
  5 15  1  0  0  0  0
  5 23  1  0  0  0  0
  6  8  1  0  0  0  0
  6 15  2  0  0  0  0
  6 24  1  0  0  0  0
  7 16  1  0  0  0  0
  7 25  1  0  0  0  0
  8 16  2  0  0  0  0
  8 26  1  0  0  0  0
  9 12  1  0  0  0  0
  9 16  1  0  0  0  0
  9 27  1  0  0  0  0
  9 28  1  0  0  0  0
 10 13  1  0  0  0  0
 10 17  1  0  0  0  0
 11 17  2  0  0  0  0
 11 19  1  0  0  0  0
 11 29  1  0  0  0  0
 12 19  1  0  0  0  0
 12 30  1  0  0  0  0
 13 19  2  0  0  0  0
 14 18  1  0  0  0  0
 17 18  1  0  0  0  0
M  CHG  1  11   1
M  END
$$$$
