7Z3
 OpenBabel04111917393D

 30 31  0  0  0  0  0  0  0  0999 V2000
    1.8075  -15.9779   18.2874 C   0  0  0  0  0  0  0  0  0  0  0  0
    3.0957  -15.7901   18.9993 N   0  3  0  0  0  0  0  0  0  0  0  0
    1.7189  -15.1616   17.0413 C   0  0  0  0  0  0  0  0  0  0  0  0
    2.4239  -11.7021   15.8731 N   0  0  0  0  0  0  0  0  0  0  0  0
    1.3121  -15.7635   15.8531 C   0  0  0  0  0  0  0  0  0  0  0  0
    1.2109  -15.0142   14.6964 C   0  0  0  0  0  0  0  0  0  0  0  0
    1.5712  -13.6672   14.6993 C   0  0  0  0  0  0  0  0  0  0  0  0
    2.0202  -13.0313   15.8642 C   0  0  0  0  0  0  0  0  0  0  0  0
    2.6961  -11.0307   14.5998 C   0  0  0  0  0  0  0  0  0  0  0  0
    3.4726   -9.7834   14.9700 C   0  0  0  0  0  0  0  0  0  0  0  0
    4.0392  -10.0211   16.3565 C   0  0  0  0  0  0  0  0  0  0  0  0
    3.3482  -11.2473   16.9128 C   0  0  0  0  0  0  0  0  0  0  0  0
    2.0424  -13.7887   17.0362 C   0  0  0  0  0  0  0  0  0  0  0  0
    1.0010  -15.7350   18.9870 H   0  0  0  0  0  0  0  0  0  0  0  0
    1.7578  -17.0447   18.0431 H   0  0  0  0  0  0  0  0  0  0  0  0
    3.1667  -16.3941   19.8122 H   0  0  0  0  0  0  0  0  0  0  0  0
    3.8806  -16.0032   18.3692 H   0  0  0  0  0  0  0  0  0  0  0  0
    1.0730  -16.8235   15.8231 H   0  0  0  0  0  0  0  0  0  0  0  0
    0.8616  -15.4799   13.7800 H   0  0  0  0  0  0  0  0  0  0  0  0
    1.5146  -13.1248   13.7581 H   0  0  0  0  0  0  0  0  0  0  0  0
    1.7732  -10.7652   14.0674 H   0  0  0  0  0  0  0  0  0  0  0  0
    3.3035  -11.6616   13.9392 H   0  0  0  0  0  0  0  0  0  0  0  0
    2.8071   -8.9147   14.9788 H   0  0  0  0  0  0  0  0  0  0  0  0
    4.2709   -9.5913   14.2469 H   0  0  0  0  0  0  0  0  0  0  0  0
    3.8614   -9.1553   17.0016 H   0  0  0  0  0  0  0  0  0  0  0  0
    5.1200  -10.1891   16.3142 H   0  0  0  0  0  0  0  0  0  0  0  0
    4.1012  -12.0138   17.1386 H   0  0  0  0  0  0  0  0  0  0  0  0
    2.8243  -11.0089   17.8471 H   0  0  0  0  0  0  0  0  0  0  0  0
    2.3387  -13.3112   17.9655 H   0  0  0  0  0  0  0  0  0  0  0  0
    3.2040  -14.8140   19.3032 H   0  0  0  0  0  0  0  0  0  0  0  0
  1  2  1  0  0  0  0
  1  3  1  0  0  0  0
  1 14  1  0  0  0  0
  1 15  1  0  0  0  0
  2 16  1  0  0  0  0
  2 17  1  0  0  0  0
  2 30  1  0  0  0  0
  3  5  2  0  0  0  0
  3 13  1  0  0  0  0
  4  8  1  0  0  0  0
  4  9  1  0  0  0  0
  4 12  1  0  0  0  0
  5  6  1  0  0  0  0
  5 18  1  0  0  0  0
  6  7  2  0  0  0  0
  6 19  1  0  0  0  0
  7  8  1  0  0  0  0
  7 20  1  0  0  0  0
  8 13  2  0  0  0  0
  9 10  1  0  0  0  0
  9 21  1  0  0  0  0
  9 22  1  0  0  0  0
 10 11  1  0  0  0  0
 10 23  1  0  0  0  0
 10 24  1  0  0  0  0
 11 12  1  0  0  0  0
 11 25  1  0  0  0  0
 11 26  1  0  0  0  0
 12 27  1  0  0  0  0
 12 28  1  0  0  0  0
 13 29  1  0  0  0  0
M  CHG  1   2   1
M  END
$$$$
