7ZE
 OpenBabel04111920093D

 19 20  0  0  0  0  0  0  0  0999 V2000
    5.3067   10.4181   43.1351 O   0  0  0  0  0  0  0  0  0  0  0  0
    5.3195   11.2366   44.0581 N   0  0  0  0  0  0  0  0  0  0  0  0
    5.8807   11.0268   45.1506 O   0  0  0  0  0  0  0  0  0  0  0  0
    4.6246   12.5206   43.8990 C   0  0  0  0  0  0  0  0  0  0  0  0
    4.3402   13.2289   45.0795 C   0  0  0  0  0  0  0  0  0  0  0  0
    3.6936   14.4508   45.0061 C   0  0  0  0  0  0  0  0  0  0  0  0
    3.3234   14.9573   43.7580 C   0  0  0  0  0  0  0  0  0  0  0  0
    3.5915   14.2779   42.5698 C   0  0  0  0  0  0  0  0  0  0  0  0
    3.2108   14.8352   41.4012 N   0  0  0  0  0  0  0  0  0  0  0  0
    3.4616   14.1736   40.2573 C   0  0  0  0  0  0  0  0  0  0  0  0
    4.1035   12.9591   40.1933 C   0  0  0  0  0  0  0  0  0  0  0  0
    4.5128   12.4034   41.3861 C   0  0  0  0  0  0  0  0  0  0  0  0
    4.2565   13.0309   42.6259 C   0  0  0  0  0  0  0  0  0  0  0  0
    4.6235   12.8313   46.0502 H   0  0  0  0  0  0  0  0  0  0  0  0
    3.4770   15.0046   45.9156 H   0  0  0  0  0  0  0  0  0  0  0  0
    2.8178   15.9210   43.7136 H   0  0  0  0  0  0  0  0  0  0  0  0
    3.1270   14.6514   39.3388 H   0  0  0  0  0  0  0  0  0  0  0  0
    4.2966   12.4351   39.2646 H   0  0  0  0  0  0  0  0  0  0  0  0
    5.0300   11.4523   41.3164 H   0  0  0  0  0  0  0  0  0  0  0  0
  1  2  2  0  0  0  0
  2  3  2  0  0  0  0
  2  4  1  0  0  0  0
  4  5  2  0  0  0  0
  4 13  1  0  0  0  0
  5  6  1  0  0  0  0
  5 14  1  0  0  0  0
  6  7  2  0  0  0  0
  6 15  1  0  0  0  0
  7  8  1  0  0  0  0
  7 16  1  0  0  0  0
  8  9  2  0  0  0  0
  8 13  1  0  0  0  0
  9 10  1  0  0  0  0
 10 11  2  0  0  0  0
 10 17  1  0  0  0  0
 11 12  1  0  0  0  0
 11 18  1  0  0  0  0
 12 13  2  0  0  0  0
 12 19  1  0  0  0  0
M  END
$$$$
