8BQ
 OpenBabel04111922103D

 44 47  0  0  1  0  0  0  0  0999 V2000
  -23.3424   10.8034   -1.7319 F   0  0  0  0  0  0  0  0  0  0  0  0
  -23.5069   11.4983   -0.6000 C   0  0  0  0  0  0  0  0  0  0  0  0
  -22.9813   12.7726   -0.4920 C   0  0  0  0  0  0  0  0  0  0  0  0
  -23.1675   13.4867    0.6944 C   0  0  0  0  0  0  0  0  0  0  0  0
  -23.8707   12.9143    1.7574 C   0  0  0  0  0  0  0  0  0  0  0  0
  -24.3950   11.6234    1.6297 C   0  0  0  0  0  0  0  0  0  0  0  0
  -24.2037   10.9285    0.4427 C   0  0  0  0  0  0  0  0  0  0  0  0
  -25.1619   11.0046    2.7269 C   0  0  0  0  0  0  0  0  0  0  0  0
  -25.4048   11.6567    3.7441 O   0  0  0  0  0  0  0  0  0  0  0  0
  -25.6345    9.5647    2.5857 C   0  0  1  0  0  0  0  0  0  0  0  0
  -24.5033    8.5464    2.6750 C   0  0  0  0  0  0  0  0  0  0  0  0
  -25.1630    7.3206    3.2034 N   0  3  0  0  0  0  0  0  0  0  0  0
  -26.4933    7.7028    3.7608 C   0  0  0  0  0  0  0  0  0  0  0  0
  -26.5451    9.2122    3.7738 C   0  0  2  0  0  0  0  0  0  0  0  0
  -28.0309    9.5258    3.7365 C   0  0  0  0  0  0  0  0  0  0  0  0
  -28.7492    9.4280    2.5283 C   0  0  0  0  0  0  0  0  0  0  0  0
  -30.1406    9.5956    2.4618 C   0  0  0  0  0  0  0  0  0  0  0  0
  -30.8317    9.8367    3.6551 C   0  0  0  0  0  0  0  0  0  0  0  0
  -30.1443    9.8990    4.8775 C   0  0  0  0  0  0  0  0  0  0  0  0
  -28.7499    9.7299    4.9236 C   0  0  0  0  0  0  0  0  0  0  0  0
  -32.3053   10.0278    3.5750 C   0  0  0  0  0  0  0  0  0  0  0  0
  -32.9592   10.2065    4.5786 O   0  0  0  0  0  0  0  0  0  0  0  0
  -32.8709    9.9527    2.3355 N   0  0  0  0  0  0  0  0  0  0  0  0
  -32.1980    9.7053    1.0910 C   0  0  0  0  0  0  0  0  0  0  0  0
  -30.7837    9.4931    1.2460 N   0  0  0  0  0  0  0  0  0  0  0  0
  -22.4362   13.1925   -1.3319 H   0  0  0  0  0  0  0  0  0  0  0  0
  -22.7670   14.4935    0.7826 H   0  0  0  0  0  0  0  0  0  0  0  0
  -24.0137   13.4768    2.6786 H   0  0  0  0  0  0  0  0  0  0  0  0
  -24.6017    9.9261    0.2899 H   0  0  0  0  0  0  0  0  0  0  0  0
  -26.1665    9.4358    1.6364 H   0  0  0  0  0  0  0  0  0  0  0  0
  -23.7031    8.7919    3.3786 H   0  0  0  0  0  0  0  0  0  0  0  0
  -24.0599    8.2502    1.7147 H   0  0  0  0  0  0  0  0  0  0  0  0
  -25.2611    6.6249    2.4465 H   0  0  0  0  0  0  0  0  0  0  0  0
  -26.6186    7.3230    4.7729 H   0  0  0  0  0  0  0  0  0  0  0  0
  -27.2558    7.3066    3.0770 H   0  0  0  0  0  0  0  0  0  0  0  0
  -26.0906    9.5968    4.6991 H   0  0  0  0  0  0  0  0  0  0  0  0
  -28.2137    9.2007    1.6113 H   0  0  0  0  0  0  0  0  0  0  0  0
  -30.6858   10.0945    5.8030 H   0  0  0  0  0  0  0  0  0  0  0  0
  -28.2465    9.7716    5.8922 H   0  0  0  0  0  0  0  0  0  0  0  0
  -33.8708   10.1028    2.3056 H   0  0  0  0  0  0  0  0  0  0  0  0
  -32.3989   10.5501    0.4269 H   0  0  0  0  0  0  0  0  0  0  0  0
  -32.6496    8.8143    0.6521 H   0  0  0  0  0  0  0  0  0  0  0  0
  -30.2575    9.3352    0.3942 H   0  0  0  0  0  0  0  0  0  0  0  0
  -24.5636    6.8952    3.9251 H   0  0  0  0  0  0  0  0  0  0  0  0
  1  2  1  0  0  0  0
  2  3  2  0  0  0  0
  2  7  1  0  0  0  0
  3  4  1  0  0  0  0
  3 26  1  0  0  0  0
  4  5  2  0  0  0  0
  4 27  1  0  0  0  0
  5  6  1  0  0  0  0
  5 28  1  0  0  0  0
  6  7  2  0  0  0  0
  6  8  1  0  0  0  0
  7 29  1  0  0  0  0
  8  9  2  0  0  0  0
  8 10  1  0  0  0  0
 10 11  1  0  0  0  0
 10 14  1  0  0  0  0
 10 30  1  6  0  0  0
 11 12  1  0  0  0  0
 11 31  1  0  0  0  0
 11 32  1  0  0  0  0
 12 13  1  0  0  0  0
 12 33  1  0  0  0  0
 12 44  1  0  0  0  0
 13 14  1  0  0  0  0
 13 34  1  0  0  0  0
 13 35  1  0  0  0  0
 14 15  1  0  0  0  0
 14 36  1  1  0  0  0
 15 16  2  0  0  0  0
 15 20  1  0  0  0  0
 16 17  1  0  0  0  0
 16 37  1  0  0  0  0
 17 18  2  0  0  0  0
 17 25  1  0  0  0  0
 18 19  1  0  0  0  0
 18 21  1  0  0  0  0
 19 20  2  0  0  0  0
 19 38  1  0  0  0  0
 20 39  1  0  0  0  0
 21 22  2  0  0  0  0
 21 23  1  0  0  0  0
 23 24  1  0  0  0  0
 23 40  1  0  0  0  0
 24 25  1  0  0  0  0
 24 41  1  0  0  0  0
 24 42  1  0  0  0  0
 25 43  1  0  0  0  0
M  CHG  1  12   1
M  END
$$$$
