8ZE
 OpenBabel04111920103D

 22 23  0  0  0  0  0  0  0  0999 V2000
    5.3367   12.3189   48.0382 O   0  0  0  0  0  0  0  0  0  0  0  0
    4.2724   12.9577   47.3395 C   0  0  0  0  0  0  0  0  0  0  0  0
    4.4682   12.8365   45.8528 C   0  0  0  0  0  0  0  0  0  0  0  0
    5.0823   11.7032   45.2995 C   0  0  0  0  0  0  0  0  0  0  0  0
    5.2503   11.5827   43.9203 C   0  0  0  0  0  0  0  0  0  0  0  0
    4.7862   12.5812   43.0668 C   0  0  0  0  0  0  0  0  0  0  0  0
    5.0109   12.3993   41.7307 O   0  0  0  0  0  0  0  0  0  0  0  0
    4.1475   13.2014   40.9268 C   0  0  0  0  0  0  0  0  0  0  0  0
    4.0000   14.6260   41.4407 C   0  0  0  0  0  0  0  0  0  0  0  0
    3.6418   14.7157   42.8214 O   0  0  0  0  0  0  0  0  0  0  0  0
    4.1494   13.7034   43.5924 C   0  0  0  0  0  0  0  0  0  0  0  0
    4.0008   13.8401   44.9795 C   0  0  0  0  0  0  0  0  0  0  0  0
    5.1518   12.4150   48.9858 H   0  0  0  0  0  0  0  0  0  0  0  0
    4.2568   14.0093   47.6485 H   0  0  0  0  0  0  0  0  0  0  0  0
    3.3292   12.4821   47.6284 H   0  0  0  0  0  0  0  0  0  0  0  0
    5.4492   10.9147   45.9539 H   0  0  0  0  0  0  0  0  0  0  0  0
    5.7452   10.7047   43.5116 H   0  0  0  0  0  0  0  0  0  0  0  0
    3.1746   12.7036   40.8564 H   0  0  0  0  0  0  0  0  0  0  0  0
    4.5746   13.2256   39.9179 H   0  0  0  0  0  0  0  0  0  0  0  0
    3.2052   15.1242   40.8726 H   0  0  0  0  0  0  0  0  0  0  0  0
    4.9205   15.1997   41.2802 H   0  0  0  0  0  0  0  0  0  0  0  0
    3.4995   14.7177   45.3748 H   0  0  0  0  0  0  0  0  0  0  0  0
  1  2  1  0  0  0  0
  1 13  1  0  0  0  0
  2  3  1  0  0  0  0
  2 14  1  0  0  0  0
  2 15  1  0  0  0  0
  3  4  2  0  0  0  0
  3 12  1  0  0  0  0
  4  5  1  0  0  0  0
  4 16  1  0  0  0  0
  5  6  2  0  0  0  0
  5 17  1  0  0  0  0
  6  7  1  0  0  0  0
  6 11  1  0  0  0  0
  7  8  1  0  0  0  0
  8  9  1  0  0  0  0
  8 18  1  0  0  0  0
  8 19  1  0  0  0  0
  9 10  1  0  0  0  0
  9 20  1  0  0  0  0
  9 21  1  0  0  0  0
 10 11  1  0  0  0  0
 11 12  2  0  0  0  0
 12 22  1  0  0  0  0
M  END
$$$$
