913
 OpenBabel04111917393D

 25 26  0  0  0  0  0  0  0  0999 V2000
   -1.8569   15.9872   18.2273 C   0  0  0  0  0  0  0  0  0  0  0  0
   -3.1165   15.8970   18.9883 N   0  3  0  0  0  0  0  0  0  0  0  0
   -1.8058   15.1594   16.9694 C   0  0  0  0  0  0  0  0  0  0  0  0
   -3.0037   11.9631   15.4110 N   0  3  0  0  0  0  0  0  0  0  0  0
   -0.9493   15.5992   15.9431 C   0  0  0  0  0  0  0  0  0  0  0  0
   -0.8034   14.8768   14.7688 C   0  0  0  0  0  0  0  0  0  0  0  0
   -1.4802   13.6770   14.5945 C   0  0  0  0  0  0  0  0  0  0  0  0
   -2.3262   13.2009   15.5996 C   0  0  0  0  0  0  0  0  0  0  0  0
   -2.6385   10.9346   14.5668 C   0  0  0  0  0  0  0  0  0  0  0  0
   -3.6047    9.9654   14.6674 C   0  0  0  0  0  0  0  0  0  0  0  0
   -4.5287   10.4907   15.5835 C   0  0  0  0  0  0  0  0  0  0  0  0
   -2.5015   13.9461   16.7852 C   0  0  0  0  0  0  0  0  0  0  0  0
   -4.1420   11.6679   16.0920 N   0  0  0  0  0  0  0  0  0  0  0  0
   -1.0457   15.7094   18.9093 H   0  0  0  0  0  0  0  0  0  0  0  0
   -1.7514   17.0493   17.9759 H   0  0  0  0  0  0  0  0  0  0  0  0
   -3.1219   16.5635   19.7694 H   0  0  0  0  0  0  0  0  0  0  0  0
   -3.9185   16.1099   18.3824 H   0  0  0  0  0  0  0  0  0  0  0  0
   -0.3834   16.5276   16.0496 H   0  0  0  0  0  0  0  0  0  0  0  0
   -0.1502   15.2471   13.9758 H   0  0  0  0  0  0  0  0  0  0  0  0
   -1.3614   13.1513   13.6500 H   0  0  0  0  0  0  0  0  0  0  0  0
   -1.7183   10.9583   14.0026 H   0  0  0  0  0  0  0  0  0  0  0  0
   -3.6315    9.0151   14.1501 H   0  0  0  0  0  0  0  0  0  0  0  0
   -5.4601   10.0456   15.9134 H   0  0  0  0  0  0  0  0  0  0  0  0
   -3.1442   13.5348   17.5613 H   0  0  0  0  0  0  0  0  0  0  0  0
   -3.2513   14.9571   19.3774 H   0  0  0  0  0  0  0  0  0  0  0  0
  1  2  1  0  0  0  0
  1  3  1  0  0  0  0
  1 14  1  0  0  0  0
  1 15  1  0  0  0  0
  2 16  1  0  0  0  0
  2 17  1  0  0  0  0
  2 25  1  0  0  0  0
  3  5  2  0  0  0  0
  3 12  1  0  0  0  0
  4  8  1  0  0  0  0
  4  9  2  0  0  0  0
  4 13  1  0  0  0  0
  5  6  1  0  0  0  0
  5 18  1  0  0  0  0
  6  7  2  0  0  0  0
  6 19  1  0  0  0  0
  7  8  1  0  0  0  0
  7 20  1  0  0  0  0
  8 12  2  0  0  0  0
  9 10  1  0  0  0  0
  9 21  1  0  0  0  0
 10 11  2  0  0  0  0
 10 22  1  0  0  0  0
 11 13  1  0  0  0  0
 11 23  1  0  0  0  0
 12 24  1  0  0  0  0
M  CHG  2   2   1   4   1
M  END
$$$$
