91B
 OpenBabel04111917393D

 36 37  0  0  0  0  0  0  0  0999 V2000
  -21.6768    1.6646   14.1819 C   0  0  0  0  0  0  0  0  0  0  0  0
  -20.7418    1.2738   15.1261 C   0  0  0  0  0  0  0  0  0  0  0  0
  -22.6315    2.6014   14.4932 C   0  0  0  0  0  0  0  0  0  0  0  0
  -21.7168    2.7966   16.6939 C   0  0  0  0  0  0  0  0  0  0  0  0
  -20.7413    1.8310   16.3950 C   0  0  0  0  0  0  0  0  0  0  0  0
  -22.6605    3.2143   15.7441 C   0  0  0  0  0  0  0  0  0  0  0  0
  -23.5115    4.8715   17.3476 C   0  0  0  0  0  0  0  0  0  0  0  0
  -24.1137    4.9991   14.9124 C   0  0  0  0  0  0  0  0  0  0  0  0
  -24.7344    5.7029   17.6852 C   0  0  0  0  0  0  0  0  0  0  0  0
  -25.4351    5.6562   15.2947 C   0  0  0  0  0  0  0  0  0  0  0  0
  -26.2938    7.4306   16.8323 C   0  0  0  0  0  0  0  0  0  0  0  0
  -19.7401    1.3517   17.4023 C   0  0  0  0  0  0  0  0  0  0  0  0
  -23.6283    4.1836   16.0463 N   0  0  0  0  0  0  0  0  0  0  0  0
  -25.1569    6.5395   16.4982 N   0  3  0  0  0  0  0  0  0  0  0  0
  -19.1919    2.4419   18.2266 N   0  3  0  0  0  0  0  0  0  0  0  0
  -21.6632    1.2127   13.1796 H   0  0  0  0  0  0  0  0  0  0  0  0
  -19.9985    0.5248   14.8505 H   0  0  0  0  0  0  0  0  0  0  0  0
  -23.3556    2.8189   13.7133 H   0  0  0  0  0  0  0  0  0  0  0  0
  -21.7107    3.2367   17.6822 H   0  0  0  0  0  0  0  0  0  0  0  0
  -23.4173    4.1338   18.1635 H   0  0  0  0  0  0  0  0  0  0  0  0
  -22.6057    5.4879   17.3472 H   0  0  0  0  0  0  0  0  0  0  0  0
  -23.3626    5.7540   14.6512 H   0  0  0  0  0  0  0  0  0  0  0  0
  -24.3249    4.4238   14.0036 H   0  0  0  0  0  0  0  0  0  0  0  0
  -24.4960    6.3869   18.5068 H   0  0  0  0  0  0  0  0  0  0  0  0
  -25.5751    5.0583   17.9604 H   0  0  0  0  0  0  0  0  0  0  0  0
  -26.1795    4.9025   15.5818 H   0  0  0  0  0  0  0  0  0  0  0  0
  -25.8173    6.2794   14.4817 H   0  0  0  0  0  0  0  0  0  0  0  0
  -25.9885    8.0273   17.6946 H   0  0  0  0  0  0  0  0  0  0  0  0
  -27.1607    6.8090   17.0632 H   0  0  0  0  0  0  0  0  0  0  0  0
  -26.4709    8.0737   15.9690 H   0  0  0  0  0  0  0  0  0  0  0  0
  -18.8804    0.9095   16.8887 H   0  0  0  0  0  0  0  0  0  0  0  0
  -20.1776    0.6127   18.0830 H   0  0  0  0  0  0  0  0  0  0  0  0
  -18.4663    2.0992   18.8676 H   0  0  0  0  0  0  0  0  0  0  0  0
  -18.7703    3.1624   17.6277 H   0  0  0  0  0  0  0  0  0  0  0  0
  -24.3595    7.1339   16.2402 H   0  0  0  0  0  0  0  0  0  0  0  0
  -19.9223    2.8780   18.7961 H   0  0  0  0  0  0  0  0  0  0  0  0
  1  2  2  0  0  0  0
  1  3  1  0  0  0  0
  1 16  1  0  0  0  0
  2  5  1  0  0  0  0
  2 17  1  0  0  0  0
  3  6  2  0  0  0  0
  3 18  1  0  0  0  0
  4  5  2  0  0  0  0
  4  6  1  0  0  0  0
  4 19  1  0  0  0  0
  5 12  1  0  0  0  0
  6 13  1  0  0  0  0
  7  9  1  0  0  0  0
  7 13  1  0  0  0  0
  7 20  1  0  0  0  0
  7 21  1  0  0  0  0
  8 10  1  0  0  0  0
  8 13  1  0  0  0  0
  8 22  1  0  0  0  0
  8 23  1  0  0  0  0
  9 14  1  0  0  0  0
  9 24  1  0  0  0  0
  9 25  1  0  0  0  0
 10 14  1  0  0  0  0
 10 26  1  0  0  0  0
 10 27  1  0  0  0  0
 11 14  1  0  0  0  0
 11 28  1  0  0  0  0
 11 29  1  0  0  0  0
 11 30  1  0  0  0  0
 12 15  1  0  0  0  0
 12 31  1  0  0  0  0
 12 32  1  0  0  0  0
 14 35  1  0  0  0  0
 15 33  1  0  0  0  0
 15 34  1  0  0  0  0
 15 36  1  0  0  0  0
M  CHG  2  14   1  15   1
M  END
$$$$
