9F9
 OpenBabel04111922143D

 55 58  0  0  0  0  0  0  0  0999 V2000
   10.2041   44.6359   22.1401 C   0  0  0  0  0  0  0  0  0  0  0  0
    9.1133   43.9072   21.5823 O   0  0  0  0  0  0  0  0  0  0  0  0
    9.1109   42.5527   21.7773 C   0  0  0  0  0  0  0  0  0  0  0  0
   10.0808   41.9211   22.5738 C   0  0  0  0  0  0  0  0  0  0  0  0
   10.0467   40.5482   22.7573 C   0  0  0  0  0  0  0  0  0  0  0  0
    9.0541   39.7991   22.1553 C   0  0  0  0  0  0  0  0  0  0  0  0
    8.0889   40.4085   21.3588 C   0  0  0  0  0  0  0  0  0  0  0  0
    8.0985   41.7881   21.1561 C   0  0  0  0  0  0  0  0  0  0  0  0
    6.9976   42.3156   20.2632 C   0  0  0  0  0  0  0  0  0  0  0  0
    6.3102   41.5413   19.6000 O   0  0  0  0  0  0  0  0  0  0  0  0
    6.8154   43.6644   20.2825 N   0  0  0  0  0  0  0  0  0  0  0  0
    5.8696   44.4652   19.6133 C   0  0  0  0  0  0  0  0  0  0  0  0
    5.1591   44.0190   18.4834 C   0  0  0  0  0  0  0  0  0  0  0  0
    4.2642   44.8790   17.8724 C   0  0  0  0  0  0  0  0  0  0  0  0
    3.4249   44.7258   16.7572 N   0  3  0  0  0  0  0  0  0  0  0  0
    3.2725   43.5557   15.9372 C   0  0  0  0  0  0  0  0  0  0  0  0
    2.7175   45.9248   16.5588 C   0  0  0  0  0  0  0  0  0  0  0  0
    1.8918   46.1522   15.6627 O   0  0  0  0  0  0  0  0  0  0  0  0
    3.1264   46.8157   17.5638 N   0  3  0  0  0  0  0  0  0  0  0  0
    2.6348   48.1607   17.7126 C   0  0  0  0  0  0  0  0  0  0  0  0
    4.0763   46.1642   18.3598 C   0  0  0  0  0  0  0  0  0  0  0  0
    4.7672   46.6201   19.4594 C   0  0  0  0  0  0  0  0  0  0  0  0
    5.6960   45.7890   20.1158 C   0  0  0  0  0  0  0  0  0  0  0  0
    6.4007   46.2056   21.2662 N   0  0  0  0  0  0  0  0  0  0  0  0
    5.7774   45.6953   22.4926 C   0  0  0  0  0  0  0  0  0  0  0  0
    6.7340   45.8290   23.6669 C   0  0  0  0  0  0  0  0  0  0  0  0
    7.2402   47.2546   23.8053 C   0  0  0  0  0  0  0  0  0  0  0  0
    7.8131   47.7674   22.4930 C   0  0  0  0  0  0  0  0  0  0  0  0
    6.8222   47.6056   21.3441 C   0  0  0  0  0  0  0  0  0  0  0  0
   10.0739   45.6941   21.9014 H   0  0  0  0  0  0  0  0  0  0  0  0
   11.1505   44.2967   21.7071 H   0  0  0  0  0  0  0  0  0  0  0  0
   10.2221   44.5240   23.2297 H   0  0  0  0  0  0  0  0  0  0  0  0
   10.8691   42.4908   23.0555 H   0  0  0  0  0  0  0  0  0  0  0  0
   10.7935   40.0565   23.3701 H   0  0  0  0  0  0  0  0  0  0  0  0
    9.0214   38.7240   22.2994 H   0  0  0  0  0  0  0  0  0  0  0  0
    7.3175   39.7997   20.8931 H   0  0  0  0  0  0  0  0  0  0  0  0
    7.4518   44.1796   20.8833 H   0  0  0  0  0  0  0  0  0  0  0  0
    5.3362   43.0375   18.0817 H   0  0  0  0  0  0  0  0  0  0  0  0
    3.9310   42.7606   16.2807 H   0  0  0  0  0  0  0  0  0  0  0  0
    3.5100   43.8021   14.8929 H   0  0  0  0  0  0  0  0  0  0  0  0
    2.2297   43.2116   15.9797 H   0  0  0  0  0  0  0  0  0  0  0  0
    1.8899   48.3790   16.9350 H   0  0  0  0  0  0  0  0  0  0  0  0
    3.4622   48.8707   17.6173 H   0  0  0  0  0  0  0  0  0  0  0  0
    2.1639   48.2757   18.6938 H   0  0  0  0  0  0  0  0  0  0  0  0
    4.5775   47.6016   19.8290 H   0  0  0  0  0  0  0  0  0  0  0  0
    5.5371   44.6370   22.3697 H   0  0  0  0  0  0  0  0  0  0  0  0
    4.8625   46.2532   22.7186 H   0  0  0  0  0  0  0  0  0  0  0  0
    7.5866   45.1566   23.5206 H   0  0  0  0  0  0  0  0  0  0  0  0
    6.2125   45.5419   24.5867 H   0  0  0  0  0  0  0  0  0  0  0  0
    8.0161   47.2873   24.5764 H   0  0  0  0  0  0  0  0  0  0  0  0
    6.4086   47.9018   24.1088 H   0  0  0  0  0  0  0  0  0  0  0  0
    8.7245   47.2095   22.2635 H   0  0  0  0  0  0  0  0  0  0  0  0
    8.0683   48.8253   22.6050 H   0  0  0  0  0  0  0  0  0  0  0  0
    5.9695   48.2688   21.5216 H   0  0  0  0  0  0  0  0  0  0  0  0
    7.3250   47.8928   20.4139 H   0  0  0  0  0  0  0  0  0  0  0  0
  1  2  1  0  0  0  0
  1 30  1  0  0  0  0
  1 31  1  0  0  0  0
  1 32  1  0  0  0  0
  2  3  1  0  0  0  0
  3  4  2  0  0  0  0
  3  8  1  0  0  0  0
  4  5  1  0  0  0  0
  4 33  1  0  0  0  0
  5  6  2  0  0  0  0
  5 34  1  0  0  0  0
  6  7  1  0  0  0  0
  6 35  1  0  0  0  0
  7  8  2  0  0  0  0
  7 36  1  0  0  0  0
  8  9  1  0  0  0  0
  9 10  2  0  0  0  0
  9 11  1  0  0  0  0
 11 12  1  0  0  0  0
 11 37  1  0  0  0  0
 12 13  2  0  0  0  0
 12 23  1  0  0  0  0
 13 14  1  0  0  0  0
 13 38  1  0  0  0  0
 14 15  1  0  0  0  0
 14 21  2  0  0  0  0
 15 16  1  0  0  0  0
 15 17  1  0  0  0  0
 16 39  1  0  0  0  0
 16 40  1  0  0  0  0
 16 41  1  0  0  0  0
 17 18  2  0  0  0  0
 17 19  1  0  0  0  0
 19 20  1  0  0  0  0
 19 21  1  0  0  0  0
 20 42  1  0  0  0  0
 20 43  1  0  0  0  0
 20 44  1  0  0  0  0
 21 22  1  0  0  0  0
 22 23  2  0  0  0  0
 22 45  1  0  0  0  0
 23 24  1  0  0  0  0
 24 25  1  0  0  0  0
 24 29  1  0  0  0  0
 25 26  1  0  0  0  0
 25 46  1  0  0  0  0
 25 47  1  0  0  0  0
 26 27  1  0  0  0  0
 26 48  1  0  0  0  0
 26 49  1  0  0  0  0
 27 28  1  0  0  0  0
 27 50  1  0  0  0  0
 27 51  1  0  0  0  0
 28 29  1  0  0  0  0
 28 52  1  0  0  0  0
 28 53  1  0  0  0  0
 29 54  1  0  0  0  0
 29 55  1  0  0  0  0
M  CHG  2  15   1  19   1
M  END
$$$$
