9FK
 OpenBabel04111918073D

 36 39  0  0  0  0  0  0  0  0999 V2000
   -7.5812    0.8311   16.9077 O   0  0  0  0  0  0  0  0  0  0  0  0
   -6.1663    0.9064   16.9895 S   0  0  0  0  0  0  0  0  0  0  0  0
   -5.4628    0.9776   18.2565 O   0  0  0  0  0  0  0  0  0  0  0  0
   -5.5245   -0.4098   16.2093 N   0  0  0  0  0  0  0  0  0  0  0  0
   -5.7544    2.4015   16.1516 C   0  0  0  0  0  0  0  0  0  0  0  0
   -4.1803    2.7266   15.5653 S   0  0  0  0  0  0  0  0  0  0  0  0
   -4.6650    4.2791   15.0204 C   0  0  0  0  0  0  0  0  0  0  0  0
   -5.9921    4.5256   15.2817 C   0  0  0  0  0  0  0  0  0  0  0  0
   -6.6237    3.4238   15.8761 C   0  0  0  0  0  0  0  0  0  0  0  0
   -3.8175    5.2986   14.3748 C   0  0  0  0  0  0  0  0  0  0  0  0
   -2.4684    5.2075   14.1285 C   0  0  0  0  0  0  0  0  0  0  0  0
   -2.1720    6.4369   13.5832 N   0  3  0  0  0  0  0  0  0  0  0  0
   -3.2834    7.2072   13.4951 N   0  0  0  0  0  0  0  0  0  0  0  0
   -4.2975    6.5147   13.9760 N   0  0  0  0  0  0  0  0  0  0  0  0
   -0.9339    6.9300   13.1431 C   0  0  0  0  0  0  0  0  0  0  0  0
   -0.3129    6.3001   12.0648 C   0  0  0  0  0  0  0  0  0  0  0  0
    0.9338    6.7272   11.6135 C   0  0  0  0  0  0  0  0  0  0  0  0
    1.5453    7.8352   12.1942 C   0  0  0  0  0  0  0  0  0  0  0  0
    0.8816    8.5230   13.2170 C   0  0  0  0  0  0  0  0  0  0  0  0
   -0.3660    8.0765   13.7188 C   0  0  0  0  0  0  0  0  0  0  0  0
    1.4759    9.6478   13.7749 C   0  0  0  0  0  0  0  0  0  0  0  0
    0.8773   10.3168   14.8387 C   0  0  0  0  0  0  0  0  0  0  0  0
   -0.3486    9.8929   15.3323 C   0  0  0  0  0  0  0  0  0  0  0  0
   -0.9673    8.7682   14.7893 C   0  0  0  0  0  0  0  0  0  0  0  0
   -5.8835   -0.6654   15.3034 H   0  0  0  0  0  0  0  0  0  0  0  0
   -4.8421   -0.9852   16.7024 H   0  0  0  0  0  0  0  0  0  0  0  0
   -6.5067    5.4452   15.0489 H   0  0  0  0  0  0  0  0  0  0  0  0
   -7.6787    3.3787   16.1123 H   0  0  0  0  0  0  0  0  0  0  0  0
   -1.7461    4.4278   14.3514 H   0  0  0  0  0  0  0  0  0  0  0  0
   -0.8169    5.5042   11.5266 H   0  0  0  0  0  0  0  0  0  0  0  0
    1.4202    6.1874   10.8119 H   0  0  0  0  0  0  0  0  0  0  0  0
    2.5368    8.1429   11.8551 H   0  0  0  0  0  0  0  0  0  0  0  0
    2.4262   10.0169   13.3833 H   0  0  0  0  0  0  0  0  0  0  0  0
    1.3759   11.1680   15.2915 H   0  0  0  0  0  0  0  0  0  0  0  0
   -0.8366   10.4397   16.1344 H   0  0  0  0  0  0  0  0  0  0  0  0
   -1.9226    8.4459   15.2048 H   0  0  0  0  0  0  0  0  0  0  0  0
  1  2  2  0  0  0  0
  2  3  2  0  0  0  0
  2  4  1  0  0  0  0
  2  5  1  0  0  0  0
  4 25  1  0  0  0  0
  4 26  1  0  0  0  0
  5  6  1  0  0  0  0
  5  9  2  0  0  0  0
  6  7  1  0  0  0  0
  7  8  2  0  0  0  0
  7 10  1  0  0  0  0
  8  9  1  0  0  0  0
  8 27  1  0  0  0  0
  9 28  1  0  0  0  0
 10 11  1  0  0  0  0
 10 14  2  0  0  0  0
 11 12  2  0  0  0  0
 11 29  1  0  0  0  0
 12 13  1  0  0  0  0
 12 15  1  0  0  0  0
 13 14  1  0  0  0  0
 15 16  2  0  0  0  0
 15 20  1  0  0  0  0
 16 17  1  0  0  0  0
 16 30  1  0  0  0  0
 17 18  2  0  0  0  0
 17 31  1  0  0  0  0
 18 19  1  0  0  0  0
 18 32  1  0  0  0  0
 19 20  2  0  0  0  0
 19 21  1  0  0  0  0
 20 24  1  0  0  0  0
 21 22  2  0  0  0  0
 21 33  1  0  0  0  0
 22 23  1  0  0  0  0
 22 34  1  0  0  0  0
 23 24  2  0  0  0  0
 23 35  1  0  0  0  0
 24 36  1  0  0  0  0
M  CHG  1  12   1
M  END
$$$$
