9LI
 OpenBabel04111918383D

 28 29  0  0  1  0  0  0  0  0999 V2000
   24.2320   14.2590   15.3685 C   0  0  0  0  0  0  0  0  0  0  0  0
   26.5870   12.7044   10.1767 Cl  0  0  0  0  0  0  0  0  0  0  0  0
   24.3246   14.3655   13.8892 C   0  0  1  0  0  0  0  0  0  0  0  0
   23.1654   16.2398    8.0619 Cl  0  0  0  0  0  0  0  0  0  0  0  0
   25.1530   13.6826   13.0210 C   0  0  1  0  0  0  0  0  0  0  0  0
   24.8675   14.1300   11.6897 C   0  0  1  0  0  0  0  0  0  0  0  0
   23.8561   15.0877   11.8187 C   0  0  2  0  0  0  0  0  0  0  0  0
   23.5398   15.2112   13.1457 N   0  3  0  0  0  0  0  0  0  0  0  0
   23.3126   15.7559   10.7011 C   0  0  0  0  0  0  0  0  0  0  0  0
   23.8144   15.4426    9.4380 C   0  0  1  0  0  0  0  0  0  0  0  0
   24.8154   14.4988    9.2659 C   0  0  0  0  0  0  0  0  0  0  0  0
   25.3380   13.8518   10.3790 C   0  0  1  0  0  0  0  0  0  0  0  0
   26.1702   12.6938   13.4641 C   0  0  0  0  0  0  0  0  0  0  0  0
   27.4197   13.4091   13.9621 C   0  0  0  0  0  0  0  0  0  0  0  0
   28.4290   12.4110   14.3819 N   0  3  0  0  0  0  0  0  0  0  0  0
   23.4749   14.9214   15.7920 H   0  0  0  0  0  0  0  0  0  0  0  0
   25.1994   14.5090   15.8177 H   0  0  0  0  0  0  0  0  0  0  0  0
   23.9963   13.2256   15.6466 H   0  0  0  0  0  0  0  0  0  0  0  0
   22.8302   15.8329   13.5173 H   0  0  0  0  0  0  0  0  0  0  0  0
   22.5226   16.4904   10.8136 H   0  0  0  0  0  0  0  0  0  0  0  0
   25.1924   14.2643    8.2705 H   0  0  0  0  0  0  0  0  0  0  0  0
   26.4254   12.0005   12.6632 H   0  0  0  0  0  0  0  0  0  0  0  0
   25.7563   12.0664   14.2656 H   0  0  0  0  0  0  0  0  0  0  0  0
   27.2153   14.0343   14.8370 H   0  0  0  0  0  0  0  0  0  0  0  0
   27.8741   14.0266   13.1813 H   0  0  0  0  0  0  0  0  0  0  0  0
   29.2834   12.8704   14.7194 H   0  0  0  0  0  0  0  0  0  0  0  0
   28.0736   11.8133   15.1392 H   0  0  0  0  0  0  0  0  0  0  0  0
   28.6918   11.8042   13.5937 H   0  0  0  0  0  0  0  0  0  0  0  0
  1 16  1  0  0  0  0
  1 17  1  0  0  0  0
  1 18  1  0  0  0  0
  3  1  1  6  0  0  0
  3  5  1  0  0  0  0
  3  8  1  0  0  0  0
  5 13  1  1  0  0  0
  6  5  1  1  0  0  0
  6  7  1  0  0  0  0
  6 12  1  0  0  0  0
  7  8  1  6  0  0  0
  7  9  1  0  0  0  0
  8 19  1  0  0  0  0
  9 10  1  0  0  0  0
  9 20  1  0  0  0  0
 10  4  1  6  0  0  0
 10 11  1  0  0  0  0
 11 12  1  0  0  0  0
 11 21  1  0  0  0  0
 12  2  1  1  0  0  0
 13 14  1  0  0  0  0
 13 22  1  0  0  0  0
 13 23  1  0  0  0  0
 14 15  1  0  0  0  0
 14 24  1  0  0  0  0
 14 25  1  0  0  0  0
 15 26  1  0  0  0  0
 15 27  1  0  0  0  0
 15 28  1  0  0  0  0
M  CHG  2   8   1  15   1
M  END
$$$$
