9MW
 OpenBabel04111918203D

117119  0  0  1  0  0  0  0  0999 V2000
    4.4921   25.3661    0.2368 C   0  0  0  0  0  0  0  0  0  0  0  0
    5.8685   25.6941    0.7680 C   0  0  0  0  0  0  0  0  0  0  0  0
    6.0452   25.2911    2.2279 C   0  0  0  0  0  0  0  0  0  0  0  0
    7.4801   24.9405    2.4976 C   0  0  0  0  0  0  0  0  0  0  0  0
    8.4993   25.8358    2.1402 C   0  0  0  0  0  0  0  0  0  0  0  0
    9.8281   25.4749    2.2775 C   0  0  0  0  0  0  0  0  0  0  0  0
    7.8017   23.6993    3.0512 C   0  0  0  0  0  0  0  0  0  0  0  0
    9.1307   23.3421    3.2038 C   0  0  0  0  0  0  0  0  0  0  0  0
   10.1443   24.2276    2.8141 C   0  0  0  0  0  0  0  0  0  0  0  0
   11.5659   23.8830    3.1323 C   0  0  0  0  0  0  0  0  0  0  0  0
   10.8573   24.4638    5.5577 C   0  0  0  0  0  0  0  0  0  0  0  0
   10.4892   23.4491    6.1468 O   0  0  0  0  0  0  0  0  0  0  0  0
   10.2511   25.6884    5.7524 N   0  0  0  0  0  0  0  0  0  0  0  0
    9.1223   25.8647    6.6519 C   0  0  1  0  0  0  0  0  0  0  0  0
    9.5338   26.4362    8.0385 C   0  0  0  0  0  0  0  0  0  0  0  0
   10.9310   25.9719    8.4755 C   0  0  0  0  0  0  0  0  0  0  0  0
    9.4727   27.9650    8.1325 C   0  0  0  0  0  0  0  0  0  0  0  0
    8.1335   26.7699    5.8866 C   0  0  0  0  0  0  0  0  0  0  0  0
    8.4864   27.8249    5.3574 O   0  0  0  0  0  0  0  0  0  0  0  0
    6.8394   26.3092    5.8486 N   0  0  0  0  0  0  0  0  0  0  0  0
    5.7637   27.0788    5.2664 C   0  0  0  0  0  0  0  0  0  0  0  0
    5.0227   27.9068    6.3039 C   0  0  0  0  0  0  0  0  0  0  0  0
    4.4817   27.0599    7.4460 C   0  0  0  0  0  0  0  0  0  0  0  0
   12.5422   25.7824    4.2699 O   0  0  0  0  0  0  0  0  0  0  0  0
   13.1426   23.5914    5.0076 C   0  0  0  0  0  0  0  0  0  0  0  0
   13.7925   24.1953    6.2469 C   0  0  0  0  0  0  0  0  0  0  0  0
   15.2587   23.8286    6.3176 C   0  0  0  0  0  0  0  0  0  0  0  0
   15.3826   22.4977    6.8956 N   0  0  0  0  0  0  0  0  0  0  0  0
   15.9821   21.6281    5.9850 N   0  0  0  0  0  0  0  0  0  0  0  0
   15.2637   20.5436    5.5096 C   0  0  0  0  0  0  0  0  0  0  0  0
   12.0019   24.4669    4.4931 C   0  0  2  0  0  0  0  0  0  0  0  0
   14.1060   20.2751    5.8156 O   0  0  0  0  0  0  0  0  0  0  0  0
   16.1333   19.6761    4.5932 C   0  0  2  0  0  0  0  0  0  0  0  0
   15.3565   18.9798    3.4556 C   0  0  0  0  0  0  0  0  0  0  0  0
   14.5447   20.0251    2.6594 C   0  0  0  0  0  0  0  0  0  0  0  0
   14.4240   17.8865    4.0001 C   0  0  0  0  0  0  0  0  0  0  0  0
   16.3774   18.3397    2.4894 C   0  0  0  0  0  0  0  0  0  0  0  0
   16.8716   18.7382    5.4310 N   0  0  0  0  0  0  0  0  0  0  0  0
   18.2066   18.8775    5.6284 C   0  0  0  0  0  0  0  0  0  0  0  0
   18.8875   19.7520    5.1103 O   0  0  0  0  0  0  0  0  0  0  0  0
   18.6689   17.9392    6.4874 O   0  0  0  0  0  0  0  0  0  0  0  0
   20.0480   18.1414    6.7946 C   0  0  0  0  0  0  0  0  0  0  0  0
   16.1221   22.5712    8.1549 C   0  0  0  0  0  0  0  0  0  0  0  0
   16.2659   21.2389    8.8324 C   0  0  0  0  0  0  0  0  0  0  0  0
   15.1577   20.6063    9.4027 C   0  0  0  0  0  0  0  0  0  0  0  0
   15.3213   19.3958   10.0686 C   0  0  0  0  0  0  0  0  0  0  0  0
   17.5174   20.6241    8.8774 C   0  0  0  0  0  0  0  0  0  0  0  0
   17.6694   19.4101    9.5294 C   0  0  0  0  0  0  0  0  0  0  0  0
   16.5813   18.7839   10.1587 C   0  0  0  0  0  0  0  0  0  0  0  0
   16.7672   17.5377   10.9110 C   0  0  0  0  0  0  0  0  0  0  0  0
   17.9097   17.3492   11.6972 C   0  0  0  0  0  0  0  0  0  0  0  0
   18.0479   16.1665   12.4073 C   0  0  0  0  0  0  0  0  0  0  0  0
   17.1411   15.1632   12.3928 N   0  0  0  0  0  0  0  0  0  0  0  0
   16.0460   15.3582   11.6255 C   0  0  0  0  0  0  0  0  0  0  0  0
   15.8178   16.5119   10.8780 C   0  0  0  0  0  0  0  0  0  0  0  0
    4.4254   25.6893   -0.8057 H   0  0  0  0  0  0  0  0  0  0  0  0
    3.7119   25.8726    0.8111 H   0  0  0  0  0  0  0  0  0  0  0  0
    4.3128   24.2870    0.2718 H   0  0  0  0  0  0  0  0  0  0  0  0
    6.0463   26.7731    0.6777 H   0  0  0  0  0  0  0  0  0  0  0  0
    6.6094   25.1938    0.1331 H   0  0  0  0  0  0  0  0  0  0  0  0
    5.3940   24.4532    2.5044 H   0  0  0  0  0  0  0  0  0  0  0  0
    5.7650   26.1345    2.8564 H   0  0  0  0  0  0  0  0  0  0  0  0
    8.2601   26.8144    1.7314 H   0  0  0  0  0  0  0  0  0  0  0  0
   10.6049   26.1756    1.9841 H   0  0  0  0  0  0  0  0  0  0  0  0
    7.0284   23.0018    3.3611 H   0  0  0  0  0  0  0  0  0  0  0  0
    9.3794   22.3892    3.6701 H   0  0  0  0  0  0  0  0  0  0  0  0
   12.2122   24.2632    2.3285 H   0  0  0  0  0  0  0  0  0  0  0  0
   11.6710   22.7901    3.1091 H   0  0  0  0  0  0  0  0  0  0  0  0
   10.5814   26.5158    5.2755 H   0  0  0  0  0  0  0  0  0  0  0  0
    8.6566   24.8843    6.8110 H   0  0  0  0  0  0  0  0  0  0  0  0
    8.8125   26.0528    8.7732 H   0  0  0  0  0  0  0  0  0  0  0  0
   11.1823   26.3553    9.4695 H   0  0  0  0  0  0  0  0  0  0  0  0
   11.7044   26.3352    7.7884 H   0  0  0  0  0  0  0  0  0  0  0  0
   10.9893   24.8799    8.5153 H   0  0  0  0  0  0  0  0  0  0  0  0
    8.4572   28.3330    7.9511 H   0  0  0  0  0  0  0  0  0  0  0  0
   10.1514   28.4339    7.4130 H   0  0  0  0  0  0  0  0  0  0  0  0
    9.7522   28.3072    9.1345 H   0  0  0  0  0  0  0  0  0  0  0  0
    6.6343   25.3818    6.1985 H   0  0  0  0  0  0  0  0  0  0  0  0
    5.0701   26.3724    4.8021 H   0  0  0  0  0  0  0  0  0  0  0  0
    6.1621   27.7421    4.4892 H   0  0  0  0  0  0  0  0  0  0  0  0
    4.1891   28.4192    5.8102 H   0  0  0  0  0  0  0  0  0  0  0  0
    5.6893   28.6762    6.7076 H   0  0  0  0  0  0  0  0  0  0  0  0
    3.9359   27.6925    8.1508 H   0  0  0  0  0  0  0  0  0  0  0  0
    5.2906   26.5682    7.9963 H   0  0  0  0  0  0  0  0  0  0  0  0
    3.8001   26.2867    7.0766 H   0  0  0  0  0  0  0  0  0  0  0  0
   11.8559   26.3125    3.8364 H   0  0  0  0  0  0  0  0  0  0  0  0
   12.7883   22.5798    5.2376 H   0  0  0  0  0  0  0  0  0  0  0  0
   13.8838   23.4818    4.2053 H   0  0  0  0  0  0  0  0  0  0  0  0
   13.2460   23.8780    7.1445 H   0  0  0  0  0  0  0  0  0  0  0  0
   13.7389   25.2849    6.2364 H   0  0  0  0  0  0  0  0  0  0  0  0
   15.7834   24.5852    6.9119 H   0  0  0  0  0  0  0  0  0  0  0  0
   15.7095   23.8801    5.3157 H   0  0  0  0  0  0  0  0  0  0  0  0
   16.9872   21.6654    5.8351 H   0  0  0  0  0  0  0  0  0  0  0  0
   16.8530   20.3558    4.1151 H   0  0  0  0  0  0  0  0  0  0  0  0
   14.0012   19.5559    1.8330 H   0  0  0  0  0  0  0  0  0  0  0  0
   15.2002   20.7955    2.2343 H   0  0  0  0  0  0  0  0  0  0  0  0
   13.8040   20.5386    3.2805 H   0  0  0  0  0  0  0  0  0  0  0  0
   14.9830   17.1277    4.5578 H   0  0  0  0  0  0  0  0  0  0  0  0
   13.8929   17.3799    3.1901 H   0  0  0  0  0  0  0  0  0  0  0  0
   13.6655   18.2914    4.6748 H   0  0  0  0  0  0  0  0  0  0  0  0
   17.0469   19.0985    2.0639 H   0  0  0  0  0  0  0  0  0  0  0  0
   15.8761   17.8339    1.6613 H   0  0  0  0  0  0  0  0  0  0  0  0
   17.0069   17.6014    3.0012 H   0  0  0  0  0  0  0  0  0  0  0  0
   16.3760   18.1175    6.0600 H   0  0  0  0  0  0  0  0  0  0  0  0
   20.4032   17.3215    7.4233 H   0  0  0  0  0  0  0  0  0  0  0  0
   20.1546   19.0791    7.3488 H   0  0  0  0  0  0  0  0  0  0  0  0
   20.6548   18.1679    5.8829 H   0  0  0  0  0  0  0  0  0  0  0  0
   15.6119   23.2482    8.8514 H   0  0  0  0  0  0  0  0  0  0  0  0
   17.1171   22.9930    7.9654 H   0  0  0  0  0  0  0  0  0  0  0  0
   14.1673   21.0543    9.3267 H   0  0  0  0  0  0  0  0  0  0  0  0
   14.4495   18.9462   10.5361 H   0  0  0  0  0  0  0  0  0  0  0  0
   18.3775   21.0836    8.3992 H   0  0  0  0  0  0  0  0  0  0  0  0
   18.6542   18.9519    9.5435 H   0  0  0  0  0  0  0  0  0  0  0  0
   18.6753   18.1132   11.7798 H   0  0  0  0  0  0  0  0  0  0  0  0
   18.9259   15.9917   13.0222 H   0  0  0  0  0  0  0  0  0  0  0  0
   15.3205   14.5604   11.6324 H   0  0  0  0  0  0  0  0  0  0  0  0
   14.9152   16.5908   10.2801 H   0  0  0  0  0  0  0  0  0  0  0  0
  1  2  1  0  0  0  0
  1 56  1  0  0  0  0
  1 57  1  0  0  0  0
  1 58  1  0  0  0  0
  2  3  1  0  0  0  0
  2 59  1  0  0  0  0
  2 60  1  0  0  0  0
  3  4  1  0  0  0  0
  3 61  1  0  0  0  0
  3 62  1  0  0  0  0
  4  5  2  0  0  0  0
  4  7  1  0  0  0  0
  5  6  1  0  0  0  0
  5 63  1  0  0  0  0
  6  9  2  0  0  0  0
  6 64  1  0  0  0  0
  7  8  2  0  0  0  0
  7 65  1  0  0  0  0
  8  9  1  0  0  0  0
  8 66  1  0  0  0  0
  9 10  1  0  0  0  0
 10 67  1  0  0  0  0
 10 68  1  0  0  0  0
 11 12  2  0  0  0  0
 11 13  1  0  0  0  0
 11 31  1  0  0  0  0
 13 14  1  0  0  0  0
 13 69  1  0  0  0  0
 14 15  1  0  0  0  0
 14 18  1  0  0  0  0
 14 70  1  1  0  0  0
 15 16  1  0  0  0  0
 15 17  1  0  0  0  0
 15 71  1  0  0  0  0
 16 72  1  0  0  0  0
 16 73  1  0  0  0  0
 16 74  1  0  0  0  0
 17 75  1  0  0  0  0
 17 76  1  0  0  0  0
 17 77  1  0  0  0  0
 18 19  2  0  0  0  0
 18 20  1  0  0  0  0
 20 21  1  0  0  0  0
 20 78  1  0  0  0  0
 21 22  1  0  0  0  0
 21 79  1  0  0  0  0
 21 80  1  0  0  0  0
 22 23  1  0  0  0  0
 22 81  1  0  0  0  0
 22 82  1  0  0  0  0
 23 83  1  0  0  0  0
 23 84  1  0  0  0  0
 23 85  1  0  0  0  0
 24 31  1  0  0  0  0
 24 86  1  0  0  0  0
 25 26  1  0  0  0  0
 25 31  1  0  0  0  0
 25 87  1  0  0  0  0
 25 88  1  0  0  0  0
 26 27  1  0  0  0  0
 26 89  1  0  0  0  0
 26 90  1  0  0  0  0
 27 28  1  0  0  0  0
 27 91  1  0  0  0  0
 27 92  1  0  0  0  0
 28 29  1  0  0  0  0
 28 43  1  0  0  0  0
 29 30  1  0  0  0  0
 29 93  1  0  0  0  0
 30 32  2  0  0  0  0
 30 33  1  0  0  0  0
 31 10  1  6  0  0  0
 33 34  1  0  0  0  0
 33 38  1  0  0  0  0
 33 94  1  6  0  0  0
 34 35  1  0  0  0  0
 34 36  1  0  0  0  0
 34 37  1  0  0  0  0
 35 95  1  0  0  0  0
 35 96  1  0  0  0  0
 35 97  1  0  0  0  0
 36 98  1  0  0  0  0
 36 99  1  0  0  0  0
 36100  1  0  0  0  0
 37101  1  0  0  0  0
 37102  1  0  0  0  0
 37103  1  0  0  0  0
 38 39  1  0  0  0  0
 38104  1  0  0  0  0
 39 40  2  0  0  0  0
 39 41  1  0  0  0  0
 41 42  1  0  0  0  0
 42105  1  0  0  0  0
 42106  1  0  0  0  0
 42107  1  0  0  0  0
 43 44  1  0  0  0  0
 43108  1  0  0  0  0
 43109  1  0  0  0  0
 44 45  2  0  0  0  0
 44 47  1  0  0  0  0
 45 46  1  0  0  0  0
 45110  1  0  0  0  0
 46 49  2  0  0  0  0
 46111  1  0  0  0  0
 47 48  2  0  0  0  0
 47112  1  0  0  0  0
 48 49  1  0  0  0  0
 48113  1  0  0  0  0
 49 50  1  0  0  0  0
 50 51  2  0  0  0  0
 50 55  1  0  0  0  0
 51 52  1  0  0  0  0
 51114  1  0  0  0  0
 52 53  2  0  0  0  0
 52115  1  0  0  0  0
 53 54  1  0  0  0  0
 54 55  2  0  0  0  0
 54116  1  0  0  0  0
 55117  1  0  0  0  0
M  END
$$$$
