9UN
 OpenBabel04111918033D

 56 59  0  0  1  0  0  0  0  0999 V2000
    8.0840    3.8556   11.0755 C   0  0  0  0  0  0  0  0  0  0  0  0
    6.8323    4.3801   11.4234 C   0  0  0  0  0  0  0  0  0  0  0  0
    5.6697    3.6156   11.2997 C   0  0  0  0  0  0  0  0  0  0  0  0
    5.7937    2.2959   10.8184 C   0  0  0  0  0  0  0  0  0  0  0  0
    7.0376    1.7543   10.4895 C   0  0  0  0  0  0  0  0  0  0  0  0
    8.1697    2.5466   10.6077 C   0  0  0  0  0  0  0  0  0  0  0  0
    9.3568    1.9946   10.2409 O   0  0  0  0  0  0  0  0  0  0  0  0
    6.7353    5.6782   11.8483 O   0  0  0  0  0  0  0  0  0  0  0  0
    4.6463    1.5368   10.7793 O   0  0  0  0  0  0  0  0  0  0  0  0
    4.4452    0.6979    9.7162 C   0  0  0  0  0  0  0  0  0  0  0  0
    3.9299   -0.5531   10.0574 C   0  0  0  0  0  0  0  0  0  0  0  0
    3.6386   -1.4744    9.0647 C   0  0  0  0  0  0  0  0  0  0  0  0
    3.8584   -1.1230    7.7275 C   0  0  0  0  0  0  0  0  0  0  0  0
    4.3494    0.1419    7.3717 C   0  0  0  0  0  0  0  0  0  0  0  0
    4.6364    1.0619    8.3794 C   0  0  0  0  0  0  0  0  0  0  0  0
    3.5402   -2.1033    6.7006 N   0  0  0  0  0  0  0  0  0  0  0  0
    3.0675   -1.6776    5.6359 O   0  0  0  0  0  0  0  0  0  0  0  0
    3.7372   -3.2957    6.9712 O   0  0  0  0  0  0  0  0  0  0  0  0
    4.3386    4.1640   11.5289 C   0  0  0  0  0  0  0  0  0  0  0  0
    4.0946    4.8766   12.6662 O   0  0  0  0  0  0  0  0  0  0  0  0
    2.7388    5.2275   12.7110 N   0  0  0  0  0  0  0  0  0  0  0  0
    2.2138    4.7584   11.5641 C   0  0  0  0  0  0  0  0  0  0  0  0
    3.1771    4.0713   10.8071 C   0  0  0  0  0  0  0  0  0  0  0  0
    0.8117    4.8961   11.1892 C   0  0  0  0  0  0  0  0  0  0  0  0
    0.4110    4.7109   10.0444 O   0  0  0  0  0  0  0  0  0  0  0  0
   -0.0533    5.1577   12.2350 N   0  0  0  0  0  0  0  0  0  0  0  0
   -1.4932    5.1248   12.0464 C   0  0  2  0  0  0  0  0  0  0  0  0
   -2.1832    5.7136   13.2754 C   0  0  0  0  0  0  0  0  0  0  0  0
   -3.6956    5.6126   13.1752 C   0  0  0  0  0  0  0  0  0  0  0  0
   -4.0854    4.1692   12.9705 N   0  3  2  0  0  0  0  0  0  0  0  0
   -3.5001    3.6255   11.6924 C   0  0  0  0  0  0  0  0  0  0  0  0
   -1.9868    3.6972   11.7689 C   0  0  0  0  0  0  0  0  0  0  0  0
   -5.5772    3.9749   13.0071 C   0  0  0  0  0  0  0  0  0  0  0  0
    8.9750    4.4651   11.1488 H   0  0  0  0  0  0  0  0  0  0  0  0
    7.1350    0.7303   10.1404 H   0  0  0  0  0  0  0  0  0  0  0  0
   10.0743    2.6337   10.3865 H   0  0  0  0  0  0  0  0  0  0  0  0
    7.6216    6.0633   11.9463 H   0  0  0  0  0  0  0  0  0  0  0  0
    3.7678   -0.8009   11.1025 H   0  0  0  0  0  0  0  0  0  0  0  0
    3.2391   -2.4472    9.3363 H   0  0  0  0  0  0  0  0  0  0  0  0
    4.5076    0.4130    6.3265 H   0  0  0  0  0  0  0  0  0  0  0  0
    5.0036    2.0553    8.1158 H   0  0  0  0  0  0  0  0  0  0  0  0
    3.0300    3.5482    9.8748 H   0  0  0  0  0  0  0  0  0  0  0  0
    0.3706    5.1738   13.1580 H   0  0  0  0  0  0  0  0  0  0  0  0
   -1.7231    5.7482   11.1707 H   0  0  0  0  0  0  0  0  0  0  0  0
   -1.8912    6.7636   13.3975 H   0  0  0  0  0  0  0  0  0  0  0  0
   -1.8380    5.1894   14.1763 H   0  0  0  0  0  0  0  0  0  0  0  0
   -4.0858    6.1836   12.3250 H   0  0  0  0  0  0  0  0  0  0  0  0
   -4.1701    5.9581   14.0987 H   0  0  0  0  0  0  0  0  0  0  0  0
   -3.9016    4.2221   10.8653 H   0  0  0  0  0  0  0  0  0  0  0  0
   -3.8350    2.5881   11.5893 H   0  0  0  0  0  0  0  0  0  0  0  0
   -1.6248    3.0235   12.5555 H   0  0  0  0  0  0  0  0  0  0  0  0
   -1.5754    3.3196   10.8258 H   0  0  0  0  0  0  0  0  0  0  0  0
   -5.9436    4.3349   13.9716 H   0  0  0  0  0  0  0  0  0  0  0  0
   -5.7780    2.9042   12.9082 H   0  0  0  0  0  0  0  0  0  0  0  0
   -6.0178    4.5347   12.1797 H   0  0  0  0  0  0  0  0  0  0  0  0
   -3.7063    3.6190   13.7561 H   0  0  0  0  0  0  0  0  0  0  0  0
  1  2  2  0  0  0  0
  1  6  1  0  0  0  0
  1 34  1  0  0  0  0
  2  3  1  0  0  0  0
  2  8  1  0  0  0  0
  3  4  2  0  0  0  0
  3 19  1  0  0  0  0
  4  5  1  0  0  0  0
  4  9  1  0  0  0  0
  5  6  2  0  0  0  0
  5 35  1  0  0  0  0
  6  7  1  0  0  0  0
  7 36  1  0  0  0  0
  8 37  1  0  0  0  0
  9 10  1  0  0  0  0
 10 11  2  0  0  0  0
 10 15  1  0  0  0  0
 11 12  1  0  0  0  0
 11 38  1  0  0  0  0
 12 13  2  0  0  0  0
 12 39  1  0  0  0  0
 13 14  1  0  0  0  0
 13 16  1  0  0  0  0
 14 15  2  0  0  0  0
 14 40  1  0  0  0  0
 15 41  1  0  0  0  0
 16 17  2  0  0  0  0
 16 18  2  0  0  0  0
 19 20  1  0  0  0  0
 19 23  2  0  0  0  0
 20 21  1  0  0  0  0
 21 22  2  0  0  0  0
 22 23  1  0  0  0  0
 22 24  1  0  0  0  0
 23 42  1  0  0  0  0
 24 25  2  0  0  0  0
 24 26  1  0  0  0  0
 26 27  1  0  0  0  0
 26 43  1  0  0  0  0
 27 28  1  0  0  0  0
 27 32  1  0  0  0  0
 27 44  1  6  0  0  0
 28 29  1  0  0  0  0
 28 45  1  0  0  0  0
 28 46  1  0  0  0  0
 29 30  1  0  0  0  0
 29 47  1  0  0  0  0
 29 48  1  0  0  0  0
 30 31  1  0  0  0  0
 30 33  1  0  0  0  0
 30 56  1  1  0  0  0
 31 32  1  0  0  0  0
 31 49  1  0  0  0  0
 31 50  1  0  0  0  0
 32 51  1  0  0  0  0
 32 52  1  0  0  0  0
 33 53  1  0  0  0  0
 33 54  1  0  0  0  0
 33 55  1  0  0  0  0
M  CHG  1  30   1
M  END
$$$$
