9ZE
 OpenBabel04111920103D

 23 24  0  0  0  0  0  0  0  0999 V2000
    4.9721   12.1974   45.0492 C   0  0  0  0  0  0  0  0  0  0  0  0
    4.9101   11.6229   43.7791 C   0  0  0  0  0  0  0  0  0  0  0  0
    4.7093   13.5580   45.2113 C   0  0  0  0  0  0  0  0  0  0  0  0
    4.5342   12.3930   42.6776 C   0  0  0  0  0  0  0  0  0  0  0  0
    4.3143   14.3308   44.1108 C   0  0  0  0  0  0  0  0  0  0  0  0
    4.2344   13.7467   42.8421 C   0  0  0  0  0  0  0  0  0  0  0  0
    4.4604   11.7441   41.4781 O   0  0  0  0  0  0  0  0  0  0  0  0
    4.2800   12.6168   40.3630 C   0  0  0  0  0  0  0  0  0  0  0  0
    3.8996   14.5747   41.8066 O   0  0  0  0  0  0  0  0  0  0  0  0
    3.4355   13.8441   40.6685 C   0  0  0  0  0  0  0  0  0  0  0  0
    4.9537   14.1624   46.5533 C   0  0  0  0  0  0  0  0  0  0  0  0
    5.2811   15.6318   46.5972 C   0  0  0  0  0  0  0  0  0  0  0  0
    4.9490   13.4644   47.5555 O   0  0  0  0  0  0  0  0  0  0  0  0
    5.2566   11.5861   45.9069 H   0  0  0  0  0  0  0  0  0  0  0  0
    5.1778   10.5798   43.6466 H   0  0  0  0  0  0  0  0  0  0  0  0
    4.0536   15.3799   44.2118 H   0  0  0  0  0  0  0  0  0  0  0  0
    3.7837   12.0309   39.5777 H   0  0  0  0  0  0  0  0  0  0  0  0
    5.2668   12.9006   39.9834 H   0  0  0  0  0  0  0  0  0  0  0  0
    2.3849   13.5775   40.8387 H   0  0  0  0  0  0  0  0  0  0  0  0
    3.4649   14.5234   39.8098 H   0  0  0  0  0  0  0  0  0  0  0  0
    5.5499   15.9138   47.6211 H   0  0  0  0  0  0  0  0  0  0  0  0
    4.4167   16.2273   46.2911 H   0  0  0  0  0  0  0  0  0  0  0  0
    6.1389   15.8390   45.9508 H   0  0  0  0  0  0  0  0  0  0  0  0
  1  2  2  0  0  0  0
  1  3  1  0  0  0  0
  1 14  1  0  0  0  0
  2  4  1  0  0  0  0
  2 15  1  0  0  0  0
  3  5  2  0  0  0  0
  3 11  1  0  0  0  0
  4  6  2  0  0  0  0
  4  7  1  0  0  0  0
  5  6  1  0  0  0  0
  5 16  1  0  0  0  0
  6  9  1  0  0  0  0
  7  8  1  0  0  0  0
  8 10  1  0  0  0  0
  8 17  1  0  0  0  0
  8 18  1  0  0  0  0
  9 10  1  0  0  0  0
 10 19  1  0  0  0  0
 10 20  1  0  0  0  0
 11 12  1  0  0  0  0
 11 13  2  0  0  0  0
 12 21  1  0  0  0  0
 12 22  1  0  0  0  0
 12 23  1  0  0  0  0
M  END
$$$$
