A22
 OpenBabel04111918393D

 72 77  0  0  1  0  0  0  0  0999 V2000
   17.4338    9.9485   17.6726 P   0  0  0  0  0  0  0  0  0  0  0  0
   18.2732   10.8108   18.6154 O   0  0  0  0  0  0  0  0  0  0  0  0
   17.5148    8.4654   18.0142 O   0  0  0  0  0  0  0  0  0  0  0  0
   16.0761   10.5054   17.3895 O   0  0  0  0  0  0  0  0  0  0  0  0
   13.9771    7.3704   13.1838 P   0  0  1  0  0  0  0  0  0  0  0  0
   13.7876    6.2546   12.1611 O   0  0  0  0  0  0  0  0  0  0  0  0
   13.6982    7.0164   14.6206 O   0  0  0  0  0  0  0  0  0  0  0  0
   15.4882    7.9361   12.9915 O   0  0  0  0  0  0  0  0  0  0  0  0
   16.5251    6.9797   12.9411 C   0  0  0  0  0  0  0  0  0  0  0  0
   17.7655    7.4001   13.7307 C   0  0  1  0  0  0  0  0  0  0  0  0
   18.5114    8.4340   13.0284 O   0  0  0  0  0  0  0  0  0  0  0  0
   17.5129    7.8942   15.1585 C   0  0  1  0  0  0  0  0  0  0  0  0
   18.5046    7.2709   15.9950 O   0  0  0  0  0  0  0  0  0  0  0  0
   17.7590    9.4034   15.0957 C   0  0  1  0  0  0  0  0  0  0  0  0
   18.2671   10.0303   16.2680 O   0  0  0  0  0  0  0  0  0  0  0  0
   18.8641    9.4124   14.0375 C   0  0  2  0  0  0  0  0  0  0  0  0
   19.1545   10.6634   13.3626 N   0  3  0  0  0  0  0  0  0  0  0  0
   18.2540   11.5827   12.8897 C   0  0  0  0  0  0  0  0  0  0  0  0
   18.8490   12.5929   12.2721 N   0  0  0  0  0  0  0  0  0  0  0  0
   20.1913   12.3171   12.3815 C   0  0  0  0  0  0  0  0  0  0  0  0
   21.3300   13.0154   11.9321 C   0  0  0  0  0  0  0  0  0  0  0  0
   21.2492   14.2056   11.2251 N   0  0  0  0  0  0  0  0  0  0  0  0
   22.5581   12.4941   12.1763 N   0  0  0  0  0  0  0  0  0  0  0  0
   22.6120   11.3039   12.8251 C   0  0  0  0  0  0  0  0  0  0  0  0
   21.6067   10.5391   13.2745 N   0  0  0  0  0  0  0  0  0  0  0  0
   20.4166   11.1164   13.0376 C   0  0  0  0  0  0  0  0  0  0  0  0
   13.2326   10.1884   12.9027 P   0  0  2  0  0  0  0  0  0  0  0  0
   14.1437   10.5756   14.0259 O   0  0  0  0  0  0  0  0  0  0  0  0
   11.8477   10.8048   12.7759 O   0  0  0  0  0  0  0  0  0  0  0  0
   13.1065    8.6139   12.6841 O   0  0  0  0  0  0  0  0  0  0  0  0
   14.0307   10.6762   11.5739 O   0  0  0  0  0  0  0  0  0  0  0  0
   14.0464    9.9246   10.3884 C   0  0  0  0  0  0  0  0  0  0  0  0
   15.5010    9.8319    9.9109 C   0  0  1  0  0  0  0  0  0  0  0  0
   15.9407    8.4581    9.9502 O   0  0  0  0  0  0  0  0  0  0  0  0
   15.6401   10.1977    8.4351 C   0  0  1  0  0  0  0  0  0  0  0  0
   15.7666   11.5942    8.1927 O   0  0  0  0  0  0  0  0  0  0  0  0
   16.8592    9.4031    7.9707 C   0  0  1  0  0  0  0  0  0  0  0  0
   18.0374   10.1956    7.7965 O   0  0  0  0  0  0  0  0  0  0  0  0
   17.0323    8.3133    9.0396 C   0  0  2  0  0  0  0  0  0  0  0  0
   16.9861    6.9723    8.4741 N   0  3  0  0  0  0  0  0  0  0  0  0
   15.8936    6.3610    7.9050 C   0  0  0  0  0  0  0  0  0  0  0  0
   16.1999    5.2040    7.3463 N   0  0  0  0  0  0  0  0  0  0  0  0
   17.5372    5.0236    7.6392 C   0  0  0  0  0  0  0  0  0  0  0  0
   18.4429    3.9869    7.3345 C   0  0  0  0  0  0  0  0  0  0  0  0
   18.1042    2.8694    6.5800 N   0  0  0  0  0  0  0  0  0  0  0  0
   19.7285    4.1064    7.7429 N   0  0  0  0  0  0  0  0  0  0  0  0
   20.0805    5.2383    8.3976 C   0  0  0  0  0  0  0  0  0  0  0  0
   19.3227    6.3084    8.6914 N   0  0  0  0  0  0  0  0  0  0  0  0
   18.0486    6.1226    8.3132 C   0  0  0  0  0  0  0  0  0  0  0  0
   16.7960    6.8457   11.8872 H   0  0  0  0  0  0  0  0  0  0  0  0
   16.1732    6.0117   13.3156 H   0  0  0  0  0  0  0  0  0  0  0  0
   18.4359    6.5300   13.7461 H   0  0  0  0  0  0  0  0  0  0  0  0
   16.5244    7.6231   15.5401 H   0  0  0  0  0  0  0  0  0  0  0  0
   18.2314    7.6263   16.8835 H   0  0  0  0  0  0  0  0  0  0  0  0
   16.8660    9.9222   14.7418 H   0  0  0  0  0  0  0  0  0  0  0  0
   19.8117    9.0834   14.4873 H   0  0  0  0  0  0  0  0  0  0  0  0
   17.1796   11.4630   13.0265 H   0  0  0  0  0  0  0  0  0  0  0  0
   22.0991   14.7258   11.1040 H   0  0  0  0  0  0  0  0  0  0  0  0
   20.3324   14.6403   11.2326 H   0  0  0  0  0  0  0  0  0  0  0  0
   23.6071   10.9046   12.9929 H   0  0  0  0  0  0  0  0  0  0  0  0
   13.4216   10.4681    9.6740 H   0  0  0  0  0  0  0  0  0  0  0  0
   13.6144    8.9305   10.5123 H   0  0  0  0  0  0  0  0  0  0  0  0
   16.1651   10.4494   10.5306 H   0  0  0  0  0  0  0  0  0  0  0  0
   14.7557    9.8267    7.8999 H   0  0  0  0  0  0  0  0  0  0  0  0
   15.6540   11.7577    7.2472 H   0  0  0  0  0  0  0  0  0  0  0  0
   16.6559    8.9829    6.9795 H   0  0  0  0  0  0  0  0  0  0  0  0
   17.7557   11.0494    7.4263 H   0  0  0  0  0  0  0  0  0  0  0  0
   17.9749    8.4233    9.5903 H   0  0  0  0  0  0  0  0  0  0  0  0
   14.9102    6.8158    7.9162 H   0  0  0  0  0  0  0  0  0  0  0  0
   18.7628    2.1081    6.6403 H   0  0  0  0  0  0  0  0  0  0  0  0
   17.1101    2.6889    6.5084 H   0  0  0  0  0  0  0  0  0  0  0  0
   21.1170    5.3001    8.7151 H   0  0  0  0  0  0  0  0  0  0  0  0
  1  2  2  0  0  0  0
  1  3  1  0  0  0  0
  1  4  1  0  0  0  0
  1 15  1  0  0  0  0
  5  6  2  6  0  0  0
  5  7  1  0  0  0  0
  5  8  1  0  0  0  0
  5 30  1  0  0  0  0
  8  9  1  0  0  0  0
  9 10  1  0  0  0  0
  9 50  1  0  0  0  0
  9 51  1  0  0  0  0
 10 11  1  0  0  0  0
 10 12  1  0  0  0  0
 10 52  1  1  0  0  0
 11 16  1  0  0  0  0
 12 13  1  0  0  0  0
 12 14  1  0  0  0  0
 12 53  1  1  0  0  0
 13 54  1  0  0  0  0
 14 15  1  0  0  0  0
 14 16  1  0  0  0  0
 14 55  1  6  0  0  0
 16 17  1  0  0  0  0
 16 56  1  1  0  0  0
 17 18  2  0  0  0  0
 17 26  1  0  0  0  0
 18 19  1  0  0  0  0
 18 57  1  0  0  0  0
 19 20  1  0  0  0  0
 20 21  2  0  0  0  0
 20 26  1  0  0  0  0
 21 22  1  0  0  0  0
 21 23  1  0  0  0  0
 22 58  1  0  0  0  0
 22 59  1  0  0  0  0
 23 24  2  0  0  0  0
 24 25  1  0  0  0  0
 24 60  1  0  0  0  0
 25 26  2  0  0  0  0
 27 28  2  1  0  0  0
 27 29  1  0  0  0  0
 27 30  1  0  0  0  0
 27 31  1  0  0  0  0
 31 32  1  0  0  0  0
 32 33  1  0  0  0  0
 32 61  1  0  0  0  0
 32 62  1  0  0  0  0
 33 34  1  0  0  0  0
 33 35  1  0  0  0  0
 33 63  1  1  0  0  0
 34 39  1  0  0  0  0
 35 36  1  0  0  0  0
 35 37  1  0  0  0  0
 35 64  1  6  0  0  0
 36 65  1  0  0  0  0
 37 38  1  0  0  0  0
 37 39  1  0  0  0  0
 37 66  1  6  0  0  0
 38 67  1  0  0  0  0
 39 40  1  0  0  0  0
 39 68  1  1  0  0  0
 40 41  2  0  0  0  0
 40 49  1  0  0  0  0
 41 42  1  0  0  0  0
 41 69  1  0  0  0  0
 42 43  1  0  0  0  0
 43 44  2  0  0  0  0
 43 49  1  0  0  0  0
 44 45  1  0  0  0  0
 44 46  1  0  0  0  0
 45 70  1  0  0  0  0
 45 71  1  0  0  0  0
 46 47  2  0  0  0  0
 47 48  1  0  0  0  0
 47 72  1  0  0  0  0
 48 49  2  0  0  0  0
M  CHG  2  17   1  40   1
M  END
$$$$
