A2P
 OpenBabel04111921343D

 38 40  0  0  1  0  0  0  0  0999 V2000
  -16.0855   -5.3434    5.4533 P   0  0  0  0  0  0  0  0  0  0  0  0
  -17.3921   -5.3135    6.2389 O   0  0  0  0  0  0  0  0  0  0  0  0
  -16.1912   -4.7079    4.0800 O   0  0  0  0  0  0  0  0  0  0  0  0
  -15.3537   -6.6663    5.5477 O   0  0  0  0  0  0  0  0  0  0  0  0
   -9.2535   -5.4233    3.3570 P   0  0  0  0  0  0  0  0  0  0  0  0
   -8.1265   -6.2942    3.9096 O   0  0  0  0  0  0  0  0  0  0  0  0
  -10.3619   -6.1835    2.6686 O   0  0  0  0  0  0  0  0  0  0  0  0
   -8.7475   -4.2000    2.5850 O   0  0  0  0  0  0  0  0  0  0  0  0
   -9.9386   -4.7839    4.6995 O   0  0  0  0  0  0  0  0  0  0  0  0
  -10.8992   -3.7581    4.5249 C   0  0  0  0  0  0  0  0  0  0  0  0
  -11.6058   -3.5296    5.8640 C   0  0  1  0  0  0  0  0  0  0  0  0
  -12.2549   -2.2121    5.8879 O   0  0  0  0  0  0  0  0  0  0  0  0
  -12.6961   -4.5812    6.1265 C   0  0  1  0  0  0  0  0  0  0  0  0
  -12.7713   -4.8541    7.5512 O   0  0  0  0  0  0  0  0  0  0  0  0
  -13.9584   -3.8588    5.6818 C   0  0  1  0  0  0  0  0  0  0  0  0
  -15.1351   -4.3357    6.3059 O   0  0  0  0  0  0  0  0  0  0  0  0
  -13.6557   -2.4571    6.1784 C   0  0  2  0  0  0  0  0  0  0  0  0
  -14.4696   -1.3979    5.6036 N   0  3  0  0  0  0  0  0  0  0  0  0
  -14.6029   -1.0818    4.2752 C   0  0  0  0  0  0  0  0  0  0  0  0
  -15.4413   -0.0739    4.0734 N   0  0  0  0  0  0  0  0  0  0  0  0
  -15.9157    0.2317    5.3347 C   0  0  0  0  0  0  0  0  0  0  0  0
  -16.8444    1.1922    5.7941 C   0  0  0  0  0  0  0  0  0  0  0  0
  -17.4999    2.0912    4.9667 N   0  0  0  0  0  0  0  0  0  0  0  0
  -17.0766    1.2954    7.1261 N   0  0  0  0  0  0  0  0  0  0  0  0
  -16.3892    0.4643    7.9441 C   0  0  0  0  0  0  0  0  0  0  0  0
  -15.4655   -0.4575    7.6328 N   0  0  0  0  0  0  0  0  0  0  0  0
  -15.2906   -0.5477    6.3001 C   0  0  0  0  0  0  0  0  0  0  0  0
  -11.6274   -4.0136    3.7457 H   0  0  0  0  0  0  0  0  0  0  0  0
  -10.3908   -2.8396    4.2155 H   0  0  0  0  0  0  0  0  0  0  0  0
  -10.8635   -3.5363    6.6748 H   0  0  0  0  0  0  0  0  0  0  0  0
  -12.5250   -5.5309    5.6106 H   0  0  0  0  0  0  0  0  0  0  0  0
  -13.5373   -5.4792    7.5747 H   0  0  0  0  0  0  0  0  0  0  0  0
  -14.0164   -3.8658    4.5876 H   0  0  0  0  0  0  0  0  0  0  0  0
  -13.7682   -2.3892    7.2707 H   0  0  0  0  0  0  0  0  0  0  0  0
  -14.0787   -1.6396    3.5022 H   0  0  0  0  0  0  0  0  0  0  0  0
  -18.2359    2.6375    5.3796 H   0  0  0  0  0  0  0  0  0  0  0  0
  -17.4269    1.9225    3.9724 H   0  0  0  0  0  0  0  0  0  0  0  0
  -16.5960    0.5690    9.0040 H   0  0  0  0  0  0  0  0  0  0  0  0
  1  2  2  0  0  0  0
  1  3  1  0  0  0  0
  1  4  1  0  0  0  0
  1 16  1  0  0  0  0
  5  6  2  0  0  0  0
  5  7  1  0  0  0  0
  5  8  1  0  0  0  0
  5  9  1  0  0  0  0
  9 10  1  0  0  0  0
 10 11  1  0  0  0  0
 10 28  1  0  0  0  0
 10 29  1  0  0  0  0
 11 12  1  0  0  0  0
 11 13  1  0  0  0  0
 11 30  1  1  0  0  0
 12 17  1  0  0  0  0
 13 14  1  0  0  0  0
 13 15  1  0  0  0  0
 13 31  1  6  0  0  0
 14 32  1  0  0  0  0
 15 16  1  0  0  0  0
 15 17  1  0  0  0  0
 15 33  1  6  0  0  0
 17 18  1  0  0  0  0
 17 34  1  1  0  0  0
 18 19  2  0  0  0  0
 18 27  1  0  0  0  0
 19 20  1  0  0  0  0
 19 35  1  0  0  0  0
 20 21  1  0  0  0  0
 21 22  2  0  0  0  0
 21 27  1  0  0  0  0
 22 23  1  0  0  0  0
 22 24  1  0  0  0  0
 23 36  1  0  0  0  0
 23 37  1  0  0  0  0
 24 25  2  0  0  0  0
 25 26  1  0  0  0  0
 25 38  1  0  0  0  0
 26 27  2  0  0  0  0
M  CHG  1  18   1
M  END
$$$$
