A3S
 OpenBabel04111921463D

 45 47  0  0  1  0  0  0  0  0999 V2000
   15.3074   -2.4817   -5.8377 O   0  0  0  0  0  0  0  0  0  0  0  0
   14.9579   -3.8414   -6.0738 C   0  0  0  0  0  0  0  0  0  0  0  0
   14.7795   -4.5182   -4.7305 C   0  0  1  0  0  0  0  0  0  0  0  0
   16.0196   -4.4781   -4.0000 O   0  0  0  0  0  0  0  0  0  0  0  0
   15.7678   -3.9220   -2.6831 C   0  0  1  0  0  0  0  0  0  0  0  0
   16.4783   -2.6590   -2.5272 N   0  3  0  0  0  0  0  0  0  0  0  0
   16.3621   -1.7844   -1.4616 C   0  0  0  0  0  0  0  0  0  0  0  0
   15.4869   -1.8713   -0.4247 N   0  0  0  0  0  0  0  0  0  0  0  0
   15.6548   -0.8478    0.4430 C   0  0  0  0  0  0  0  0  0  0  0  0
   16.5439    0.1606    0.3739 N   0  0  0  0  0  0  0  0  0  0  0  0
   17.3867    0.1977   -0.6892 C   0  0  0  0  0  0  0  0  0  0  0  0
   18.2895    1.2278   -0.7859 N   0  0  0  0  0  0  0  0  0  0  0  0
   17.3044   -0.8108   -1.6669 C   0  0  0  0  0  0  0  0  0  0  0  0
   18.0038   -1.0396   -2.8428 N   0  0  0  0  0  0  0  0  0  0  0  0
   17.4910   -2.1621   -3.3098 C   0  0  0  0  0  0  0  0  0  0  0  0
   14.2495   -3.9601   -2.5030 C   0  0  2  0  0  0  0  0  0  0  0  0
   13.8546   -5.2999   -2.0716 O   0  0  0  0  0  0  0  0  0  0  0  0
   13.7624   -3.7391   -3.9128 C   0  0  2  0  0  0  0  0  0  0  0  0
   12.4282   -4.2604   -4.1064 N   0  0  0  0  0  0  0  0  0  0  0  0
    9.1040   -3.9645   -2.9646 N   0  3  0  0  0  0  0  0  0  0  0  0
   10.0439   -4.1892   -4.1038 C   0  0  1  0  0  0  0  0  0  0  0  0
    9.3955   -3.7509   -5.4062 C   0  0  0  0  0  0  0  0  0  0  0  0
    8.3626   -4.6669   -5.7564 O   0  0  0  0  0  0  0  0  0  0  0  0
   11.3425   -3.4338   -3.9191 C   0  0  0  0  0  0  0  0  0  0  0  0
   11.3913   -2.2585   -3.5816 O   0  0  0  0  0  0  0  0  0  0  0  0
   15.4333   -2.0346   -6.6943 H   0  0  0  0  0  0  0  0  0  0  0  0
   15.7571   -4.3310   -6.6331 H   0  0  0  0  0  0  0  0  0  0  0  0
   14.0184   -3.8794   -6.6343 H   0  0  0  0  0  0  0  0  0  0  0  0
   14.4700   -5.5634   -4.8714 H   0  0  0  0  0  0  0  0  0  0  0  0
   16.1866   -4.6113   -1.9482 H   0  0  0  0  0  0  0  0  0  0  0  0
   14.9768   -0.8346    1.3011 H   0  0  0  0  0  0  0  0  0  0  0  0
   18.9145    1.2525   -1.5806 H   0  0  0  0  0  0  0  0  0  0  0  0
   18.3188    1.9266   -0.0614 H   0  0  0  0  0  0  0  0  0  0  0  0
   17.8434   -2.6375   -4.2293 H   0  0  0  0  0  0  0  0  0  0  0  0
   13.8422   -3.2458   -1.7878 H   0  0  0  0  0  0  0  0  0  0  0  0
   12.8811   -5.3127   -1.9516 H   0  0  0  0  0  0  0  0  0  0  0  0
   13.7815   -2.6740   -4.1558 H   0  0  0  0  0  0  0  0  0  0  0  0
   12.3249   -5.2236   -4.3651 H   0  0  0  0  0  0  0  0  0  0  0  0
    9.5226   -4.2500   -2.0713 H   0  0  0  0  0  0  0  0  0  0  0  0
    8.8718   -2.9629   -2.8894 H   0  0  0  0  0  0  0  0  0  0  0  0
   10.2184   -5.2708   -4.1226 H   0  0  0  0  0  0  0  0  0  0  0  0
   10.1393   -3.7469   -6.2112 H   0  0  0  0  0  0  0  0  0  0  0  0
    8.9766   -2.7441   -5.3194 H   0  0  0  0  0  0  0  0  0  0  0  0
    7.6548   -4.6774   -5.0939 H   0  0  0  0  0  0  0  0  0  0  0  0
    8.2348   -4.4956   -3.0916 H   0  0  0  0  0  0  0  0  0  0  0  0
  1  2  1  0  0  0  0
  1 26  1  0  0  0  0
  2  3  1  0  0  0  0
  2 27  1  0  0  0  0
  2 28  1  0  0  0  0
  3  4  1  0  0  0  0
  3 18  1  0  0  0  0
  3 29  1  6  0  0  0
  4  5  1  0  0  0  0
  5  6  1  0  0  0  0
  5 16  1  0  0  0  0
  5 30  1  1  0  0  0
  6  7  1  0  0  0  0
  6 15  2  0  0  0  0
  7  8  2  0  0  0  0
  7 13  1  0  0  0  0
  8  9  1  0  0  0  0
  9 10  2  0  0  0  0
  9 31  1  0  0  0  0
 10 11  1  0  0  0  0
 11 12  1  0  0  0  0
 11 13  2  0  0  0  0
 12 32  1  0  0  0  0
 12 33  1  0  0  0  0
 13 14  1  0  0  0  0
 14 15  1  0  0  0  0
 15 34  1  0  0  0  0
 16 17  1  0  0  0  0
 16 18  1  0  0  0  0
 16 35  1  1  0  0  0
 17 36  1  0  0  0  0
 18 19  1  0  0  0  0
 18 37  1  6  0  0  0
 19 24  1  0  0  0  0
 19 38  1  0  0  0  0
 20 21  1  0  0  0  0
 20 39  1  0  0  0  0
 20 40  1  0  0  0  0
 20 45  1  0  0  0  0
 21 22  1  0  0  0  0
 21 24  1  0  0  0  0
 21 41  1  6  0  0  0
 22 23  1  0  0  0  0
 22 42  1  0  0  0  0
 22 43  1  0  0  0  0
 23 44  1  0  0  0  0
 24 25  2  0  0  0  0
M  CHG  2   6   1  20   1
M  END
$$$$
