A3S
 OpenBabel04111921463D

 45 47  0  0  1  0  0  0  0  0999 V2000
    9.1116   -2.9461    8.6310 O   0  0  0  0  0  0  0  0  0  0  0  0
    9.0697   -4.2704    8.1054 C   0  0  0  0  0  0  0  0  0  0  0  0
    9.8136   -4.3049    6.7944 C   0  0  1  0  0  0  0  0  0  0  0  0
    9.1528   -3.3408    5.9700 O   0  0  0  0  0  0  0  0  0  0  0  0
   10.1575   -2.5433    5.3035 C   0  0  1  0  0  0  0  0  0  0  0  0
   10.0010   -1.1612    5.6652 N   0  3  0  0  0  0  0  0  0  0  0  0
   10.8765   -0.1250    5.3844 C   0  0  0  0  0  0  0  0  0  0  0  0
   12.1409   -0.1815    4.9077 N   0  0  0  0  0  0  0  0  0  0  0  0
   12.6809    1.0588    4.7447 C   0  0  0  0  0  0  0  0  0  0  0  0
   12.1046    2.2413    5.0113 N   0  0  0  0  0  0  0  0  0  0  0  0
   10.8392    2.2338    5.4683 C   0  0  0  0  0  0  0  0  0  0  0  0
   10.2192    3.4616    5.7161 N   0  0  0  0  0  0  0  0  0  0  0  0
   10.1593    1.0195    5.6781 C   0  0  0  0  0  0  0  0  0  0  0  0
    8.8828    0.7111    6.1273 N   0  0  0  0  0  0  0  0  0  0  0  0
    8.8076   -0.5991    6.0839 C   0  0  0  0  0  0  0  0  0  0  0  0
   11.4939   -3.2221    5.5438 C   0  0  2  0  0  0  0  0  0  0  0  0
   11.6162   -4.2460    4.5243 O   0  0  0  0  0  0  0  0  0  0  0  0
   11.2661   -3.8378    6.9199 C   0  0  2  0  0  0  0  0  0  0  0  0
   12.1673   -4.9484    7.1661 N   0  0  0  0  0  0  0  0  0  0  0  0
   15.7388   -5.6569    7.7189 N   0  3  0  0  0  0  0  0  0  0  0  0
   14.3134   -6.0318    7.4978 C   0  0  1  0  0  0  0  0  0  0  0  0
   13.9245   -7.0033    8.5998 C   0  0  0  0  0  0  0  0  0  0  0  0
   14.6778   -8.1975    8.3887 O   0  0  0  0  0  0  0  0  0  0  0  0
   13.4609   -4.7396    7.4907 C   0  0  0  0  0  0  0  0  0  0  0  0
   13.9754   -3.6417    7.6872 O   0  0  0  0  0  0  0  0  0  0  0  0
    8.6841   -2.3571    7.9777 H   0  0  0  0  0  0  0  0  0  0  0  0
    8.0240   -4.5580    7.9465 H   0  0  0  0  0  0  0  0  0  0  0  0
    9.5430   -4.9472    8.8214 H   0  0  0  0  0  0  0  0  0  0  0  0
    9.7478   -5.2998    6.3280 H   0  0  0  0  0  0  0  0  0  0  0  0
    9.9265   -2.6208    4.2418 H   0  0  0  0  0  0  0  0  0  0  0  0
   13.6935    1.0969    4.3428 H   0  0  0  0  0  0  0  0  0  0  0  0
    9.2825    3.4335    6.0482 H   0  0  0  0  0  0  0  0  0  0  0  0
   10.7536    4.2874    5.5820 H   0  0  0  0  0  0  0  0  0  0  0  0
    7.9280   -1.1994    6.3000 H   0  0  0  0  0  0  0  0  0  0  0  0
   12.3634   -2.5693    5.4793 H   0  0  0  0  0  0  0  0  0  0  0  0
   12.4809   -4.6786    4.5804 H   0  0  0  0  0  0  0  0  0  0  0  0
   11.3808   -3.0835    7.7080 H   0  0  0  0  0  0  0  0  0  0  0  0
   11.7928   -5.8741    6.9864 H   0  0  0  0  0  0  0  0  0  0  0  0
   16.0382   -4.9779    7.0103 H   0  0  0  0  0  0  0  0  0  0  0  0
   15.8291   -5.1891    8.6311 H   0  0  0  0  0  0  0  0  0  0  0  0
   14.2471   -6.5124    6.5265 H   0  0  0  0  0  0  0  0  0  0  0  0
   12.8614   -7.2602    8.5616 H   0  0  0  0  0  0  0  0  0  0  0  0
   14.1498   -6.6076    9.5953 H   0  0  0  0  0  0  0  0  0  0  0  0
   15.6334   -8.0345    8.4585 H   0  0  0  0  0  0  0  0  0  0  0  0
   16.3523   -6.4710    7.6821 H   0  0  0  0  0  0  0  0  0  0  0  0
  1  2  1  0  0  0  0
  1 26  1  0  0  0  0
  2  3  1  0  0  0  0
  2 27  1  0  0  0  0
  2 28  1  0  0  0  0
  3  4  1  0  0  0  0
  3 18  1  0  0  0  0
  3 29  1  6  0  0  0
  4  5  1  0  0  0  0
  5  6  1  0  0  0  0
  5 16  1  0  0  0  0
  5 30  1  6  0  0  0
  6  7  1  0  0  0  0
  6 15  2  0  0  0  0
  7  8  2  0  0  0  0
  7 13  1  0  0  0  0
  8  9  1  0  0  0  0
  9 10  2  0  0  0  0
  9 31  1  0  0  0  0
 10 11  1  0  0  0  0
 11 12  1  0  0  0  0
 11 13  2  0  0  0  0
 12 32  1  0  0  0  0
 12 33  1  0  0  0  0
 13 14  1  0  0  0  0
 14 15  1  0  0  0  0
 15 34  1  0  0  0  0
 16 17  1  0  0  0  0
 16 18  1  0  0  0  0
 16 35  1  6  0  0  0
 17 36  1  0  0  0  0
 18 19  1  0  0  0  0
 18 37  1  1  0  0  0
 19 24  1  0  0  0  0
 19 38  1  0  0  0  0
 20 21  1  0  0  0  0
 20 39  1  0  0  0  0
 20 40  1  0  0  0  0
 20 45  1  0  0  0  0
 21 22  1  0  0  0  0
 21 24  1  0  0  0  0
 21 41  1  6  0  0  0
 22 23  1  0  0  0  0
 22 42  1  0  0  0  0
 22 43  1  0  0  0  0
 23 44  1  0  0  0  0
 24 25  2  0  0  0  0
M  CHG  2   6   1  20   1
M  END
$$$$
