A3T
 OpenBabel04111921473D

 48 50  0  0  1  0  0  0  0  0999 V2000
   -1.9679    7.5571   41.4872 C   0  0  0  0  0  0  0  0  0  0  0  0
    0.3851    7.7798   40.8409 N   0  3  0  0  0  0  0  0  0  0  0  0
   -1.7599    6.4529   41.9815 O   0  0  0  0  0  0  0  0  0  0  0  0
   -4.0125    3.8245   47.5883 N   0  0  0  0  0  0  0  0  0  0  0  0
   -3.1087    4.7285   47.1699 C   0  0  0  0  0  0  0  0  0  0  0  0
   -3.3303    5.8997   46.5205 N   0  0  0  0  0  0  0  0  0  0  0  0
   -4.6396    6.0928   46.3045 C   0  0  0  0  0  0  0  0  0  0  0  0
   -5.6722    5.2431   46.6812 C   0  0  0  0  0  0  0  0  0  0  0  0
   -5.3278    4.0716   47.3470 C   0  0  0  0  0  0  0  0  0  0  0  0
   -6.2706    3.1637   47.7334 N   0  0  0  0  0  0  0  0  0  0  0  0
   -6.8987    5.7545   46.2891 N   0  0  0  0  0  0  0  0  0  0  0  0
   -6.6122    6.8991   45.7131 C   0  0  0  0  0  0  0  0  0  0  0  0
   -2.9712    8.4152   41.8468 N   0  0  0  0  0  0  0  0  0  0  0  0
   -5.2692    7.1378   45.6654 N   0  3  0  0  0  0  0  0  0  0  0  0
   -1.0234    8.1340   40.4518 C   0  0  1  0  0  0  0  0  0  0  0  0
   -1.3119    7.5770   39.0593 C   0  0  2  0  0  0  0  0  0  0  0  0
   -0.5004    8.2904   38.1241 O   0  0  0  0  0  0  0  0  0  0  0  0
   -4.6073    8.3171   45.1273 C   0  0  1  0  0  0  0  0  0  0  0  0
   -3.4018    8.0200   44.2476 C   0  0  2  0  0  0  0  0  0  0  0  0
   -2.4354    9.0726   44.4256 O   0  0  0  0  0  0  0  0  0  0  0  0
   -3.9718    8.0673   42.8373 C   0  0  1  0  0  0  0  0  0  0  0  0
   -5.0659    9.1259   42.9514 C   0  0  2  0  0  0  0  0  0  0  0  0
   -5.5390    9.0886   44.3105 O   0  0  0  0  0  0  0  0  0  0  0  0
   -6.2368    8.8773   42.0016 C   0  0  0  0  0  0  0  0  0  0  0  0
   -6.7842    7.5848   42.2342 O   0  0  0  0  0  0  0  0  0  0  0  0
   -2.7701    7.7657   38.6514 C   0  0  0  0  0  0  0  0  0  0  0  0
    1.0821    8.1347   40.1810 H   0  0  0  0  0  0  0  0  0  0  0  0
    0.6043    8.1484   41.7734 H   0  0  0  0  0  0  0  0  0  0  0  0
   -2.0668    4.4796   47.3794 H   0  0  0  0  0  0  0  0  0  0  0  0
   -7.2419    3.3994   47.5992 H   0  0  0  0  0  0  0  0  0  0  0  0
   -5.9894    2.3539   48.2866 H   0  0  0  0  0  0  0  0  0  0  0  0
   -7.3527    7.5879   45.3154 H   0  0  0  0  0  0  0  0  0  0  0  0
   -2.9887    9.3666   41.4853 H   0  0  0  0  0  0  0  0  0  0  0  0
   -1.0532    9.2326   40.4481 H   0  0  0  0  0  0  0  0  0  0  0  0
   -1.0665    6.5095   39.0091 H   0  0  0  0  0  0  0  0  0  0  0  0
    0.4412    8.0868   38.2378 H   0  0  0  0  0  0  0  0  0  0  0  0
   -4.3333    8.9387   45.9881 H   0  0  0  0  0  0  0  0  0  0  0  0
   -2.9081    7.0665   44.4501 H   0  0  0  0  0  0  0  0  0  0  0  0
   -1.6434    8.8138   43.9359 H   0  0  0  0  0  0  0  0  0  0  0  0
   -4.3898    7.0884   42.5749 H   0  0  0  0  0  0  0  0  0  0  0  0
   -4.6574   10.1281   42.7414 H   0  0  0  0  0  0  0  0  0  0  0  0
   -5.9157    8.9157   40.9561 H   0  0  0  0  0  0  0  0  0  0  0  0
   -7.0275    9.6192   42.1505 H   0  0  0  0  0  0  0  0  0  0  0  0
   -7.1207    7.5753   43.1485 H   0  0  0  0  0  0  0  0  0  0  0  0
   -2.9413    7.3652   37.6471 H   0  0  0  0  0  0  0  0  0  0  0  0
   -3.0406    8.8272   38.6275 H   0  0  0  0  0  0  0  0  0  0  0  0
   -3.4484    7.2473   39.3362 H   0  0  0  0  0  0  0  0  0  0  0  0
    0.4520    6.7524   40.9130 H   0  0  0  0  0  0  0  0  0  0  0  0
  1  3  2  0  0  0  0
  1 13  1  0  0  0  0
  1 15  1  0  0  0  0
  2 15  1  0  0  0  0
  2 27  1  0  0  0  0
  2 28  1  0  0  0  0
  2 48  1  0  0  0  0
  4  5  2  0  0  0  0
  4  9  1  0  0  0  0
  5  6  1  0  0  0  0
  5 29  1  0  0  0  0
  6  7  2  0  0  0  0
  7  8  1  0  0  0  0
  7 14  1  0  0  0  0
  8  9  2  0  0  0  0
  8 11  1  0  0  0  0
  9 10  1  0  0  0  0
 10 30  1  0  0  0  0
 10 31  1  0  0  0  0
 11 12  1  0  0  0  0
 12 14  2  0  0  0  0
 12 32  1  0  0  0  0
 13 21  1  0  0  0  0
 13 33  1  0  0  0  0
 14 18  1  0  0  0  0
 15 16  1  0  0  0  0
 15 34  1  6  0  0  0
 16 17  1  0  0  0  0
 16 26  1  0  0  0  0
 16 35  1  6  0  0  0
 17 36  1  0  0  0  0
 18 19  1  0  0  0  0
 18 23  1  0  0  0  0
 18 37  1  1  0  0  0
 19 20  1  0  0  0  0
 19 21  1  0  0  0  0
 19 38  1  1  0  0  0
 20 39  1  0  0  0  0
 21 22  1  0  0  0  0
 21 40  1  6  0  0  0
 22 23  1  0  0  0  0
 22 24  1  0  0  0  0
 22 41  1  6  0  0  0
 24 25  1  0  0  0  0
 24 42  1  0  0  0  0
 24 43  1  0  0  0  0
 25 44  1  0  0  0  0
 26 45  1  0  0  0  0
 26 46  1  0  0  0  0
 26 47  1  0  0  0  0
M  CHG  2   2   1  14   1
M  END
$$$$
