A73
 OpenBabel04111920023D

 27 29  0  0  0  0  0  0  0  0999 V2000
   -7.7425   38.1497  -12.9198 C   0  0  0  0  0  0  0  0  0  0  0  0
   -7.6706   37.8613  -14.3639 C   0  0  0  0  0  0  0  0  0  0  0  0
   -8.3620   38.4782  -15.1627 O   0  0  0  0  0  0  0  0  0  0  0  0
   -6.7384   36.8065  -14.7762 C   0  0  0  0  0  0  0  0  0  0  0  0
   -6.5775   36.4716  -16.1229 C   0  0  0  0  0  0  0  0  0  0  0  0
   -5.6923   35.4522  -16.4740 C   0  0  0  0  0  0  0  0  0  0  0  0
   -4.9798   34.7689  -15.4860 C   0  0  0  0  0  0  0  0  0  0  0  0
   -5.1411   35.1120  -14.1443 C   0  0  0  0  0  0  0  0  0  0  0  0
   -6.0163   36.1393  -13.7951 C   0  0  0  0  0  0  0  0  0  0  0  0
   -6.1129   36.4450  -12.4654 O   0  3  0  0  0  0  0  0  0  0  0  0
   -6.9746   37.4587  -12.0636 C   0  0  0  0  0  0  0  0  0  0  0  0
   -6.9708   37.6833  -10.5928 C   0  0  0  0  0  0  0  0  0  0  0  0
   -6.2820   36.7860   -9.7526 C   0  0  0  0  0  0  0  0  0  0  0  0
   -6.2609   36.9519   -8.3648 C   0  0  0  0  0  0  0  0  0  0  0  0
   -6.9317   38.0248   -7.7923 C   0  0  0  0  0  0  0  0  0  0  0  0
   -6.9301   38.2405   -5.9160 Br  0  0  0  0  0  0  0  0  0  0  0  0
   -7.6066   38.9384   -8.5954 C   0  0  0  0  0  0  0  0  0  0  0  0
   -7.6201   38.7711   -9.9852 C   0  0  0  0  0  0  0  0  0  0  0  0
   -8.4390   38.9281  -12.6419 H   0  0  0  0  0  0  0  0  0  0  0  0
   -7.1366   37.0022  -16.8902 H   0  0  0  0  0  0  0  0  0  0  0  0
   -5.5591   35.1883  -17.5205 H   0  0  0  0  0  0  0  0  0  0  0  0
   -4.2956   33.9698  -15.7627 H   0  0  0  0  0  0  0  0  0  0  0  0
   -4.5867   34.5819  -13.3745 H   0  0  0  0  0  0  0  0  0  0  0  0
   -5.7483   35.9322  -10.1670 H   0  0  0  0  0  0  0  0  0  0  0  0
   -5.7219   36.2358   -7.7502 H   0  0  0  0  0  0  0  0  0  0  0  0
   -8.1273   39.7849   -8.1552 H   0  0  0  0  0  0  0  0  0  0  0  0
   -8.1490   39.5168  -10.5723 H   0  0  0  0  0  0  0  0  0  0  0  0
  1  2  1  0  0  0  0
  1 11  2  0  0  0  0
  1 19  1  0  0  0  0
  2  3  2  0  0  0  0
  2  4  1  0  0  0  0
  4  5  2  0  0  0  0
  4  9  1  0  0  0  0
  5  6  1  0  0  0  0
  5 20  1  0  0  0  0
  6  7  2  0  0  0  0
  6 21  1  0  0  0  0
  7  8  1  0  0  0  0
  7 22  1  0  0  0  0
  8  9  2  0  0  0  0
  8 23  1  0  0  0  0
  9 10  1  0  0  0  0
 10 11  1  0  0  0  0
 11 12  1  0  0  0  0
 12 13  2  0  0  0  0
 12 18  1  0  0  0  0
 13 14  1  0  0  0  0
 13 24  1  0  0  0  0
 14 15  2  0  0  0  0
 14 25  1  0  0  0  0
 15 16  1  0  0  0  0
 15 17  1  0  0  0  0
 17 18  2  0  0  0  0
 17 26  1  0  0  0  0
 18 27  1  0  0  0  0
M  CHG  1  10   1
M  END
$$$$
