A7I
 OpenBabel04111917373D

 49 50  0  0  1  0  0  0  0  0999 V2000
   48.8255    5.0788   57.9709 C   0  0  0  0  0  0  0  0  0  0  0  0
   47.9186    4.0496   58.6294 C   0  0  0  0  0  0  0  0  0  0  0  0
   48.6688    2.7362   58.7759 N   0  3  1  0  0  0  0  0  0  0  0  0
   47.9441    1.6641   59.5846 C   0  0  0  0  0  0  0  0  0  0  0  0
   46.5754    1.3544   58.9962 C   0  0  0  0  0  0  0  0  0  0  0  0
   47.8611    2.0915   61.0458 C   0  0  0  0  0  0  0  0  0  0  0  0
   49.1072    2.2082   57.4266 C   0  0  0  0  0  0  0  0  0  0  0  0
   50.0267    3.2171   56.7708 C   0  0  0  0  0  0  0  0  0  0  0  0
   49.3163    4.5555   56.6207 C   0  0  2  0  0  0  0  0  0  0  0  0
   50.2197    5.4852   55.9233 N   0  0  0  0  0  0  0  0  0  0  0  0
   49.5112    6.8886   55.2832 S   0  0  0  0  0  0  0  0  0  0  0  0
   48.1630    6.4971   54.9314 O   0  0  0  0  0  0  0  0  0  0  0  0
   49.8075    7.9453   56.2205 O   0  0  0  0  0  0  0  0  0  0  0  0
   50.4888    7.0820   53.8045 C   0  0  0  0  0  0  0  0  0  0  0  0
   50.0008    8.2497   52.9672 C   0  0  0  0  0  0  0  0  0  0  0  0
   48.7311    7.9681   52.3108 N   0  0  0  0  0  0  0  0  0  0  0  0
   47.5163    8.5082   52.7388 C   0  0  0  0  0  0  0  0  0  0  0  0
   47.4913    9.3062   53.6860 O   0  0  0  0  0  0  0  0  0  0  0  0
   46.3659    8.0503   51.9858 C   0  0  0  0  0  0  0  0  0  0  0  0
   46.3291    7.3750   50.7706 C   0  0  0  0  0  0  0  0  0  0  0  0
   45.0027    7.0777   50.3384 C   0  0  0  0  0  0  0  0  0  0  0  0
   44.0744    7.5433   51.2312 C   0  0  0  0  0  0  0  0  0  0  0  0
   42.3723    7.3789   51.0754 Cl  0  0  0  0  0  0  0  0  0  0  0  0
   44.7633    8.3355   52.5617 S   0  0  0  0  0  0  0  0  0  0  0  0
   49.6670    5.3098   58.6352 H   0  0  0  0  0  0  0  0  0  0  0  0
   48.2542    6.0065   57.8501 H   0  0  0  0  0  0  0  0  0  0  0  0
   47.0272    3.8609   58.0222 H   0  0  0  0  0  0  0  0  0  0  0  0
   47.6195    4.3882   59.6237 H   0  0  0  0  0  0  0  0  0  0  0  0
   48.5773    0.7694   59.5315 H   0  0  0  0  0  0  0  0  0  0  0  0
   46.0792    0.5731   59.5792 H   0  0  0  0  0  0  0  0  0  0  0  0
   46.6527    0.9881   57.9671 H   0  0  0  0  0  0  0  0  0  0  0  0
   45.9182    2.2295   58.9992 H   0  0  0  0  0  0  0  0  0  0  0  0
   47.3573    1.3179   61.6356 H   0  0  0  0  0  0  0  0  0  0  0  0
   47.2936    3.0160   61.1793 H   0  0  0  0  0  0  0  0  0  0  0  0
   48.8601    2.2388   61.4674 H   0  0  0  0  0  0  0  0  0  0  0  0
   48.2095    2.0397   56.8228 H   0  0  0  0  0  0  0  0  0  0  0  0
   49.6255    1.2586   57.5887 H   0  0  0  0  0  0  0  0  0  0  0  0
   50.3239    2.8442   55.7836 H   0  0  0  0  0  0  0  0  0  0  0  0
   50.9448    3.3300   57.3605 H   0  0  0  0  0  0  0  0  0  0  0  0
   48.4454    4.3819   55.9773 H   0  0  0  0  0  0  0  0  0  0  0  0
   51.1930    5.5781   56.2248 H   0  0  0  0  0  0  0  0  0  0  0  0
   50.4388    6.1414   53.2480 H   0  0  0  0  0  0  0  0  0  0  0  0
   51.5164    7.2603   54.1249 H   0  0  0  0  0  0  0  0  0  0  0  0
   50.7077    8.4285   52.1595 H   0  0  0  0  0  0  0  0  0  0  0  0
   49.9202    9.1608   53.5632 H   0  0  0  0  0  0  0  0  0  0  0  0
   48.7117    7.2469   51.6020 H   0  0  0  0  0  0  0  0  0  0  0  0
   47.1985    7.1061   50.2030 H   0  0  0  0  0  0  0  0  0  0  0  0
   44.7587    6.5625   49.4186 H   0  0  0  0  0  0  0  0  0  0  0  0
   49.5254    2.9416   59.3088 H   0  0  0  0  0  0  0  0  0  0  0  0
  1  2  1  0  0  0  0
  1  9  1  0  0  0  0
  1 25  1  0  0  0  0
  1 26  1  0  0  0  0
  2  3  1  0  0  0  0
  2 27  1  0  0  0  0
  2 28  1  0  0  0  0
  3  4  1  0  0  0  0
  3  7  1  0  0  0  0
  3 49  1  1  0  0  0
  4  5  1  0  0  0  0
  4  6  1  0  0  0  0
  4 29  1  0  0  0  0
  5 30  1  0  0  0  0
  5 31  1  0  0  0  0
  5 32  1  0  0  0  0
  6 33  1  0  0  0  0
  6 34  1  0  0  0  0
  6 35  1  0  0  0  0
  7  8  1  0  0  0  0
  7 36  1  0  0  0  0
  7 37  1  0  0  0  0
  8  9  1  0  0  0  0
  8 38  1  0  0  0  0
  8 39  1  0  0  0  0
  9 10  1  0  0  0  0
  9 40  1  6  0  0  0
 10 11  1  0  0  0  0
 10 41  1  0  0  0  0
 11 12  2  0  0  0  0
 11 13  2  0  0  0  0
 11 14  1  0  0  0  0
 14 15  1  0  0  0  0
 14 42  1  0  0  0  0
 14 43  1  0  0  0  0
 15 16  1  0  0  0  0
 15 44  1  0  0  0  0
 15 45  1  0  0  0  0
 16 17  1  0  0  0  0
 16 46  1  0  0  0  0
 17 18  2  0  0  0  0
 17 19  1  0  0  0  0
 19 20  2  0  0  0  0
 19 24  1  0  0  0  0
 20 21  1  0  0  0  0
 20 47  1  0  0  0  0
 21 22  2  0  0  0  0
 21 48  1  0  0  0  0
 22 23  1  0  0  0  0
 22 24  1  0  0  0  0
M  CHG  1   3   1
M  END
$$$$
