ABV
 OpenBabel04111917543D

 16 17  0  0  0  0  0  0  0  0999 V2000
   18.5384    5.3596   -1.6763 C   0  0  0  0  0  0  0  0  0  0  0  0
   20.3537    8.2233   -3.0687 N   0  0  0  0  0  0  0  0  0  0  0  0
   18.1579    8.1580   -1.7357 S   0  0  0  0  0  0  0  0  0  0  0  0
   19.3493    4.2860   -2.0573 C   0  0  0  0  0  0  0  0  0  0  0  0
   19.3920   10.3102   -2.7008 N   0  0  0  0  0  0  0  0  0  0  0  0
   20.5163    4.4976   -2.7849 C   0  0  0  0  0  0  0  0  0  0  0  0
   20.9002    5.7929   -3.1485 C   0  0  0  0  0  0  0  0  0  0  0  0
   20.0994    6.8923   -2.7778 C   0  0  0  0  0  0  0  0  0  0  0  0
   18.9329    6.6548   -2.0484 C   0  0  0  0  0  0  0  0  0  0  0  0
   19.4067    8.9789   -2.5740 C   0  0  0  0  0  0  0  0  0  0  0  0
   17.6274    5.1944   -1.1081 H   0  0  0  0  0  0  0  0  0  0  0  0
   19.0620    3.2739   -1.7803 H   0  0  0  0  0  0  0  0  0  0  0  0
   20.1339   10.7741   -3.2083 H   0  0  0  0  0  0  0  0  0  0  0  0
   18.6475   10.8788   -2.3226 H   0  0  0  0  0  0  0  0  0  0  0  0
   21.1362    3.6521   -3.0743 H   0  0  0  0  0  0  0  0  0  0  0  0
   21.8105    5.9622   -3.7153 H   0  0  0  0  0  0  0  0  0  0  0  0
  1  4  2  0  0  0  0
  1  9  1  0  0  0  0
  1 11  1  0  0  0  0
  2  8  1  0  0  0  0
  2 10  2  0  0  0  0
  3  9  1  0  0  0  0
  3 10  1  0  0  0  0
  4  6  1  0  0  0  0
  4 12  1  0  0  0  0
  5 10  1  0  0  0  0
  5 13  1  0  0  0  0
  5 14  1  0  0  0  0
  6  7  2  0  0  0  0
  6 15  1  0  0  0  0
  7  8  1  0  0  0  0
  7 16  1  0  0  0  0
  8  9  2  0  0  0  0
M  END
$$$$
