ACP
 OpenBabel04111920253D

 42 44  0  0  1  0  0  0  0  0999 V2000
   -2.8755  -42.7297   27.5102 P   0  0  2  0  0  0  0  0  0  0  0  0
   -1.8198  -41.6758   27.2468 O   0  0  0  0  0  0  0  0  0  0  0  0
   -2.5777  -44.0032   28.2692 O   0  0  0  0  0  0  0  0  0  0  0  0
   -3.3898  -43.3526   25.8070 C   0  0  0  0  0  0  0  0  0  0  0  0
   -4.4003  -41.1840   29.3565 P   0  0  2  0  0  0  0  0  0  0  0  0
   -4.7016  -39.7231   29.0814 O   0  0  0  0  0  0  0  0  0  0  0  0
   -3.3743  -41.5385   30.3865 O   0  0  0  0  0  0  0  0  0  0  0  0
   -4.2651  -42.0567   27.9929 O   0  0  0  0  0  0  0  0  0  0  0  0
   -5.8232  -41.8586   29.8707 O   0  0  0  0  0  0  0  0  0  0  0  0
   -5.8123  -43.1703   30.4561 C   0  0  0  0  0  0  0  0  0  0  0  0
   -6.1619  -43.0314   31.9343 C   0  0  1  0  0  0  0  0  0  0  0  0
   -7.3302  -42.1875   32.0649 O   0  0  0  0  0  0  0  0  0  0  0  0
   -6.5409  -44.3242   32.6477 C   0  0  1  0  0  0  0  0  0  0  0  0
   -5.4375  -45.1078   33.0854 O   0  0  0  0  0  0  0  0  0  0  0  0
   -7.3636  -43.7914   33.8248 C   0  0  1  0  0  0  0  0  0  0  0  0
   -6.5191  -43.3926   34.9191 O   0  0  0  0  0  0  0  0  0  0  0  0
   -8.0501  -42.5551   33.2413 C   0  0  2  0  0  0  0  0  0  0  0  0
   -9.4403  -42.7838   32.8885 N   0  3  0  0  0  0  0  0  0  0  0  0
   -9.9706  -43.0378   31.6441 C   0  0  0  0  0  0  0  0  0  0  0  0
  -11.2809  -43.2429   31.6907 N   0  0  0  0  0  0  0  0  0  0  0  0
  -11.6318  -43.0831   32.9976 C   0  0  0  0  0  0  0  0  0  0  0  0
  -12.8287  -43.1649   33.7057 C   0  0  0  0  0  0  0  0  0  0  0  0
  -14.0441  -43.4579   33.0810 N   0  0  0  0  0  0  0  0  0  0  0  0
  -12.8539  -42.9645   35.0322 N   0  0  0  0  0  0  0  0  0  0  0  0
  -11.6845  -42.6726   35.6348 C   0  0  0  0  0  0  0  0  0  0  0  0
  -10.4498  -42.5704   35.0900 N   0  0  0  0  0  0  0  0  0  0  0  0
  -10.4878  -42.7806   33.7696 C   0  0  0  0  0  0  0  0  0  0  0  0
   -2.5375  -43.8415   25.3127 H   0  0  0  0  0  0  0  0  0  0  0  0
   -3.7364  -42.5396   25.1615 H   0  0  0  0  0  0  0  0  0  0  0  0
   -4.1910  -44.0952   25.8949 H   0  0  0  0  0  0  0  0  0  0  0  0
   -4.8437  -43.6601   30.3349 H   0  0  0  0  0  0  0  0  0  0  0  0
   -6.5758  -43.7863   29.9575 H   0  0  0  0  0  0  0  0  0  0  0  0
   -5.3115  -42.5657   32.4414 H   0  0  0  0  0  0  0  0  0  0  0  0
   -7.1850  -44.9516   32.0181 H   0  0  0  0  0  0  0  0  0  0  0  0
   -4.8625  -44.5286   33.6212 H   0  0  0  0  0  0  0  0  0  0  0  0
   -8.0795  -44.5242   34.2098 H   0  0  0  0  0  0  0  0  0  0  0  0
   -6.0227  -44.1768   35.2141 H   0  0  0  0  0  0  0  0  0  0  0  0
   -8.0007  -41.7123   33.9417 H   0  0  0  0  0  0  0  0  0  0  0  0
   -9.3699  -43.0751   30.7490 H   0  0  0  0  0  0  0  0  0  0  0  0
  -14.8679  -43.4924   33.6529 H   0  0  0  0  0  0  0  0  0  0  0  0
  -14.0444  -43.5916   32.0925 H   0  0  0  0  0  0  0  0  0  0  0  0
  -11.7372  -42.5008   36.7046 H   0  0  0  0  0  0  0  0  0  0  0  0
  1  2  2  6  0  0  0
  1  3  1  0  0  0  0
  1  4  1  0  0  0  0
  1  8  1  0  0  0  0
  4 28  1  0  0  0  0
  4 29  1  0  0  0  0
  4 30  1  0  0  0  0
  5  6  2  6  0  0  0
  5  7  1  0  0  0  0
  5  8  1  0  0  0  0
  5  9  1  0  0  0  0
  9 10  1  0  0  0  0
 10 11  1  0  0  0  0
 10 31  1  0  0  0  0
 10 32  1  0  0  0  0
 11 12  1  0  0  0  0
 11 13  1  0  0  0  0
 11 33  1  1  0  0  0
 12 17  1  0  0  0  0
 13 14  1  0  0  0  0
 13 15  1  0  0  0  0
 13 34  1  6  0  0  0
 14 35  1  0  0  0  0
 15 16  1  0  0  0  0
 15 17  1  0  0  0  0
 15 36  1  1  0  0  0
 16 37  1  0  0  0  0
 17 18  1  0  0  0  0
 17 38  1  1  0  0  0
 18 19  2  0  0  0  0
 18 27  1  0  0  0  0
 19 20  1  0  0  0  0
 19 39  1  0  0  0  0
 20 21  1  0  0  0  0
 21 22  2  0  0  0  0
 21 27  1  0  0  0  0
 22 23  1  0  0  0  0
 22 24  1  0  0  0  0
 23 40  1  0  0  0  0
 23 41  1  0  0  0  0
 24 25  2  0  0  0  0
 25 26  1  0  0  0  0
 25 42  1  0  0  0  0
 26 27  2  0  0  0  0
M  CHG  1  18   1
M  END
$$$$
