ACR
 OpenBabel04111922033D

 90 93  0  0  1  0  0  0  0  0999 V2000
   22.2584   66.1946   27.7684 C   0  0  2  0  0  0  0  0  0  0  0  0
   22.2179   67.3570   28.7679 C   0  0  1  0  0  0  0  0  0  0  0  0
   22.7758   66.9381   30.1223 C   0  0  2  0  0  0  0  0  0  0  0  0
   21.9129   65.8390   30.7525 C   0  0  1  0  0  0  0  0  0  0  0  0
   21.8828   64.6097   29.8353 C   0  0  1  0  0  0  0  0  0  0  0  0
   21.1704   63.3862   30.3425 C   0  0  0  0  0  0  0  0  0  0  0  0
   21.7388   64.8802   28.3251 C   0  0  0  0  0  0  0  0  0  0  0  0
   23.0700   68.3833   28.2370 O   0  0  0  0  0  0  0  0  0  0  0  0
   22.7865   68.0720   30.9752 O   0  0  0  0  0  0  0  0  0  0  0  0
   22.5489   65.3726   31.9414 O   0  0  0  0  0  0  0  0  0  0  0  0
   20.2005   62.8969   29.4069 O   0  0  0  0  0  0  0  0  0  0  0  0
   25.4407   65.4400   23.4215 C   0  0  2  0  0  0  0  0  0  0  0  0
   25.0916   66.8720   23.8636 C   0  0  1  0  0  0  0  0  0  0  0  0
   24.9755   66.9013   25.3883 C   0  0  2  0  0  0  0  0  0  0  0  0
   23.8962   65.8982   25.8082 C   0  0  1  0  0  0  0  0  0  0  0  0
   24.3318   64.5079   25.3293 C   0  0  1  0  0  0  0  0  0  0  0  0
   23.3306   63.4133   25.6284 C   0  0  0  0  0  0  0  0  0  0  0  0
   23.7032   66.0099   27.2973 N   0  3  0  0  0  0  0  0  0  0  0  0
   26.0964   67.7793   23.4191 O   0  0  0  0  0  0  0  0  0  0  0  0
   24.6216   68.2034   25.8720 O   0  0  0  0  0  0  0  0  0  0  0  0
   24.4701   64.5115   23.9002 O   0  0  0  0  0  0  0  0  0  0  0  0
   30.3064   63.7018   22.3436 C   0  0  2  0  0  0  0  0  0  0  0  0
   29.6906   64.9254   21.6582 C   0  0  1  0  0  0  0  0  0  0  0  0
   28.6387   65.5537   22.5806 C   0  0  2  0  0  0  0  0  0  0  0  0
   27.5925   64.5133   22.9524 C   0  0  1  0  0  0  0  0  0  0  0  0
   28.2775   63.2680   23.5403 C   0  0  1  0  0  0  0  0  0  0  0  0
   27.2291   62.1613   23.7513 C   0  0  0  0  0  0  0  0  0  0  0  0
   30.7155   65.8742   21.3986 O   0  0  0  0  0  0  0  0  0  0  0  0
   28.0519   66.6581   21.8926 O   0  0  0  0  0  0  0  0  0  0  0  0
   26.7191   65.0767   23.9388 O   0  0  0  0  0  0  0  0  0  0  0  0
   29.3055   62.7412   22.6839 O   0  0  0  0  0  0  0  0  0  0  0  0
   27.7839   61.0334   24.3658 O   0  0  0  0  0  0  0  0  0  0  0  0
   34.8593   63.6590   25.0484 C   0  0  1  0  0  0  0  0  0  0  0  0
   34.7320   64.4513   23.7462 C   0  0  1  0  0  0  0  0  0  0  0  0
   33.2860   64.9231   23.5526 C   0  0  2  0  0  0  0  0  0  0  0  0
   32.3527   63.7012   23.5977 C   0  0  1  0  0  0  0  0  0  0  0  0
   32.5625   62.9445   24.9167 C   0  0  1  0  0  0  0  0  0  0  0  0
   31.7723   61.6347   24.9064 C   0  0  0  0  0  0  0  0  0  0  0  0
   34.7414   64.4745   26.2049 O   0  0  0  0  0  0  0  0  0  0  0  0
   35.6456   65.5502   23.6961 O   0  0  0  0  0  0  0  0  0  0  0  0
   33.2315   65.6206   22.2949 O   0  0  0  0  0  0  0  0  0  0  0  0
   30.9959   64.1593   23.5175 O   0  0  0  0  0  0  0  0  0  0  0  0
   33.9384   62.5804   25.1166 O   0  0  0  0  0  0  0  0  0  0  0  0
   31.9135   60.9687   26.1584 O   0  0  0  0  0  0  0  0  0  0  0  0
   21.6952   66.4943   26.8802 H   0  0  0  0  0  0  0  0  0  0  0  0
   21.1972   67.7454   28.8990 H   0  0  0  0  0  0  0  0  0  0  0  0
   23.8149   66.6027   29.9937 H   0  0  0  0  0  0  0  0  0  0  0  0
   20.9219   66.2209   31.0245 H   0  0  0  0  0  0  0  0  0  0  0  0
   22.9126   64.3011   29.8961 H   0  0  0  0  0  0  0  0  0  0  0  0
   20.6571   63.5177   31.3283 H   0  0  0  0  0  0  0  0  0  0  0  0
   21.8971   62.6093   30.4701 H   0  0  0  0  0  0  0  0  0  0  0  0
   22.3787   64.0961   27.9460 H   0  0  0  0  0  0  0  0  0  0  0  0
   20.7688   64.6730   27.8619 H   0  0  0  0  0  0  0  0  0  0  0  0
   22.6185   68.8426   27.5062 H   0  0  0  0  0  0  0  0  0  0  0  0
   23.3166   67.8724   31.7632 H   0  0  0  0  0  0  0  0  0  0  0  0
   22.6745   66.1001   32.5560 H   0  0  0  0  0  0  0  0  0  0  0  0
   19.8853   62.0383   29.7479 H   0  0  0  0  0  0  0  0  0  0  0  0
   25.4227   65.4145   22.3244 H   0  0  0  0  0  0  0  0  0  0  0  0
   24.1369   67.1793   23.4202 H   0  0  0  0  0  0  0  0  0  0  0  0
   25.9362   66.6554   25.8516 H   0  0  0  0  0  0  0  0  0  0  0  0
   22.9546   66.1906   25.3292 H   0  0  0  0  0  0  0  0  0  0  0  0
   25.2841   64.2364   25.8037 H   0  0  0  0  0  0  0  0  0  0  0  0
   23.6648   62.4611   25.2417 H   0  0  0  0  0  0  0  0  0  0  0  0
   22.3505   63.6529   25.1751 H   0  0  0  0  0  0  0  0  0  0  0  0
   23.2212   63.2614   26.6852 H   0  0  0  0  0  0  0  0  0  0  0  0
   24.2102   66.8783   27.5994 H   0  0  0  0  0  0  0  0  0  0  0  0
   25.8916   68.6628   23.7640 H   0  0  0  0  0  0  0  0  0  0  0  0
   23.8168   68.5191   25.4195 H   0  0  0  0  0  0  0  0  0  0  0  0
   31.0030   63.2456   21.6323 H   0  0  0  0  0  0  0  0  0  0  0  0
   29.2195   64.6289   20.7047 H   0  0  0  0  0  0  0  0  0  0  0  0
   29.1169   65.9588   23.4830 H   0  0  0  0  0  0  0  0  0  0  0  0
   27.0420   64.2237   22.0461 H   0  0  0  0  0  0  0  0  0  0  0  0
   28.7308   63.4979   24.5191 H   0  0  0  0  0  0  0  0  0  0  0  0
   26.8138   61.8636   22.7670 H   0  0  0  0  0  0  0  0  0  0  0  0
   26.4033   62.5060   24.3701 H   0  0  0  0  0  0  0  0  0  0  0  0
   30.7617   66.4219   22.2025 H   0  0  0  0  0  0  0  0  0  0  0  0
   27.4663   67.1444   22.5147 H   0  0  0  0  0  0  0  0  0  0  0  0
   28.5198   60.7309   23.8025 H   0  0  0  0  0  0  0  0  0  0  0  0
   35.8658   63.2331   25.0796 H   0  0  0  0  0  0  0  0  0  0  0  0
   34.9777   63.7991   22.8977 H   0  0  0  0  0  0  0  0  0  0  0  0
   32.9983   65.6495   24.3244 H   0  0  0  0  0  0  0  0  0  0  0  0
   32.6098   63.0399   22.7591 H   0  0  0  0  0  0  0  0  0  0  0  0
   32.2200   63.5408   25.7712 H   0  0  0  0  0  0  0  0  0  0  0  0
   32.1500   60.9661   24.1276 H   0  0  0  0  0  0  0  0  0  0  0  0
   30.7051   61.8035   24.7396 H   0  0  0  0  0  0  0  0  0  0  0  0
   33.8657   64.8836   26.2115 H   0  0  0  0  0  0  0  0  0  0  0  0
   35.4102   66.1811   24.3976 H   0  0  0  0  0  0  0  0  0  0  0  0
   32.3191   65.7448   22.0120 H   0  0  0  0  0  0  0  0  0  0  0  0
   32.8749   60.8633   26.2975 H   0  0  0  0  0  0  0  0  0  0  0  0
   24.1800   65.2418   27.7886 H   0  0  0  0  0  0  0  0  0  0  0  0
  1  2  1  0  0  0  0
  1  7  1  0  0  0  0
  1 18  1  0  0  0  0
  1 45  1  6  0  0  0
  2  3  1  0  0  0  0
  2  8  1  0  0  0  0
  2 46  1  1  0  0  0
  3  4  1  0  0  0  0
  3  9  1  0  0  0  0
  3 47  1  6  0  0  0
  4  5  1  0  0  0  0
  4 10  1  0  0  0  0
  4 48  1  1  0  0  0
  5  6  1  0  0  0  0
  5  7  1  0  0  0  0
  5 49  1  1  0  0  0
  6 11  1  0  0  0  0
  6 50  1  0  0  0  0
  6 51  1  0  0  0  0
  7 52  1  0  0  0  0
  7 53  1  0  0  0  0
  8 54  1  0  0  0  0
  9 55  1  0  0  0  0
 10 56  1  0  0  0  0
 11 57  1  0  0  0  0
 12 13  1  0  0  0  0
 12 21  1  0  0  0  0
 12 30  1  0  0  0  0
 12 58  1  6  0  0  0
 13 14  1  0  0  0  0
 13 19  1  0  0  0  0
 13 59  1  6  0  0  0
 14 15  1  0  0  0  0
 14 20  1  0  0  0  0
 14 60  1  1  0  0  0
 15 16  1  0  0  0  0
 15 18  1  0  0  0  0
 15 61  1  6  0  0  0
 16 17  1  0  0  0  0
 16 21  1  0  0  0  0
 16 62  1  1  0  0  0
 17 63  1  0  0  0  0
 17 64  1  0  0  0  0
 17 65  1  0  0  0  0
 18 66  1  0  0  0  0
 18 90  1  0  0  0  0
 19 67  1  0  0  0  0
 20 68  1  0  0  0  0
 22 23  1  0  0  0  0
 22 31  1  0  0  0  0
 22 42  1  0  0  0  0
 22 69  1  6  0  0  0
 23 24  1  0  0  0  0
 23 28  1  0  0  0  0
 23 70  1  6  0  0  0
 24 25  1  0  0  0  0
 24 29  1  0  0  0  0
 24 71  1  1  0  0  0
 25 26  1  0  0  0  0
 25 30  1  0  0  0  0
 25 72  1  6  0  0  0
 26 27  1  0  0  0  0
 26 31  1  0  0  0  0
 26 73  1  1  0  0  0
 27 32  1  0  0  0  0
 27 74  1  0  0  0  0
 27 75  1  0  0  0  0
 28 76  1  0  0  0  0
 29 77  1  0  0  0  0
 32 78  1  0  0  0  0
 33 34  1  0  0  0  0
 33 39  1  0  0  0  0
 33 43  1  0  0  0  0
 33 79  1  1  0  0  0
 34 35  1  0  0  0  0
 34 40  1  0  0  0  0
 34 80  1  6  0  0  0
 35 36  1  0  0  0  0
 35 41  1  0  0  0  0
 35 81  1  1  0  0  0
 36 37  1  0  0  0  0
 36 42  1  0  0  0  0
 36 82  1  6  0  0  0
 37 38  1  0  0  0  0
 37 43  1  0  0  0  0
 37 83  1  1  0  0  0
 38 44  1  0  0  0  0
 38 84  1  0  0  0  0
 38 85  1  0  0  0  0
 39 86  1  0  0  0  0
 40 87  1  0  0  0  0
 41 88  1  0  0  0  0
 44 89  1  0  0  0  0
M  CHG  1  18   1
M  END
$$$$
