ACR
 OpenBabel04111918053D

 88 91  0  0  1  0  0  0  0  0999 V2000
   29.7894   79.7802   34.7203 C   0  0  2  0  0  0  0  0  0  0  0  0
   28.2324   79.7341   34.6584 C   0  0  1  0  0  0  0  0  0  0  0  0
   27.5855   80.2741   35.9460 C   0  0  2  0  0  0  0  0  0  0  0  0
   28.0390   79.4240   37.1605 C   0  0  1  0  0  0  0  0  0  0  0  0
   29.5245   79.1019   37.1133 C   0  0  0  0  0  0  0  0  0  0  0  0
   30.1995   78.7281   38.4064 C   0  0  0  0  0  0  0  0  0  0  0  0
   30.2393   79.1402   36.0033 C   0  0  0  0  0  0  0  0  0  0  0  0
   27.7630   80.3701   33.4653 O   0  0  0  0  0  0  0  0  0  0  0  0
   26.1565   80.2097   35.8557 O   0  0  0  0  0  0  0  0  0  0  0  0
   27.7558   80.1630   38.3420 O   0  0  0  0  0  0  0  0  0  0  0  0
   30.0655   77.3418   38.6089 O   0  0  0  0  0  0  0  0  0  0  0  0
   34.6026   82.2078   34.6242 C   0  0  2  0  0  0  0  0  0  0  0  0
   34.1069   81.1274   33.6374 C   0  0  1  0  0  0  0  0  0  0  0  0
   32.5933   81.2550   33.4134 C   0  0  2  0  0  0  0  0  0  0  0  0
   31.8907   81.2537   34.7780 C   0  0  1  0  0  0  0  0  0  0  0  0
   32.4050   82.4764   35.5540 C   0  0  1  0  0  0  0  0  0  0  0  0
   31.7145   82.6835   36.8920 C   0  0  0  0  0  0  0  0  0  0  0  0
   30.3696   81.1761   34.6236 N   0  3  0  0  0  0  0  0  0  0  0  0
   34.7830   81.2651   32.3785 O   0  0  0  0  0  0  0  0  0  0  0  0
   32.1001   80.1691   32.6274 O   0  0  0  0  0  0  0  0  0  0  0  0
   33.8040   82.2550   35.8126 O   0  0  0  0  0  0  0  0  0  0  0  0
   36.6063   86.7030   33.1411 C   0  0  1  0  0  0  0  0  0  0  0  0
   37.2733   85.4933   32.4935 C   0  0  1  0  0  0  0  0  0  0  0  0
   36.1946   84.4193   32.5672 C   0  0  2  0  0  0  0  0  0  0  0  0
   35.7767   84.1880   34.0222 C   0  0  1  0  0  0  0  0  0  0  0  0
   35.5374   85.4979   34.8119 C   0  0  1  0  0  0  0  0  0  0  0  0
   35.5267   85.1973   36.3039 C   0  0  0  0  0  0  0  0  0  0  0  0
   37.6203   85.7330   31.1277 O   0  0  0  0  0  0  0  0  0  0  0  0
   36.6696   83.2084   31.9740 O   0  0  0  0  0  0  0  0  0  0  0  0
   34.5359   83.4726   33.9785 O   0  0  0  0  0  0  0  0  0  0  0  0
   36.5402   86.4980   34.5385 O   0  0  0  0  0  0  0  0  0  0  0  0
   34.8660   86.2466   36.9901 O   0  0  0  0  0  0  0  0  0  0  0  0
   35.7469   91.0757   30.6713 C   0  0  2  0  0  0  0  0  0  0  0  0
   36.5721   90.1231   29.8011 C   0  0  1  0  0  0  0  0  0  0  0  0
   37.0459   88.9246   30.6332 C   0  0  1  0  0  0  0  0  0  0  0  0
   36.4247   88.7883   32.0273 C   0  0  2  0  0  0  0  0  0  0  0  0
   36.1614   90.1039   32.7618 C   0  0  1  0  0  0  0  0  0  0  0  0
   36.9291   90.2258   34.0794 C   0  0  0  0  0  0  0  0  0  0  0  0
   35.6541   92.3249   30.0268 O   0  0  0  0  0  0  0  0  0  0  0  0
   35.8185   89.7316   28.6493 O   0  0  0  0  0  0  0  0  0  0  0  0
   36.6967   87.7217   29.9350 O   0  0  0  0  0  0  0  0  0  0  0  0
   37.2585   87.9080   32.8077 O   0  0  0  0  0  0  0  0  0  0  0  0
   36.3929   91.2408   31.9246 O   0  0  0  0  0  0  0  0  0  0  0  0
   36.1263   89.7292   35.1526 O   0  0  0  0  0  0  0  0  0  0  0  0
   30.1710   79.2284   33.8411 H   0  0  0  0  0  0  0  0  0  0  0  0
   27.9321   78.6821   34.5668 H   0  0  0  0  0  0  0  0  0  0  0  0
   27.8367   81.3295   36.1080 H   0  0  0  0  0  0  0  0  0  0  0  0
   27.4627   78.4937   37.1794 H   0  0  0  0  0  0  0  0  0  0  0  0
   29.7919   79.2647   39.2586 H   0  0  0  0  0  0  0  0  0  0  0  0
   31.2628   79.0040   38.3684 H   0  0  0  0  0  0  0  0  0  0  0  0
   31.2321   78.6921   35.9925 H   0  0  0  0  0  0  0  0  0  0  0  0
   27.7134   81.3334   33.5599 H   0  0  0  0  0  0  0  0  0  0  0  0
   25.8439   80.7515   35.1111 H   0  0  0  0  0  0  0  0  0  0  0  0
   27.7639   79.5295   39.0868 H   0  0  0  0  0  0  0  0  0  0  0  0
   30.5248   76.8846   37.8861 H   0  0  0  0  0  0  0  0  0  0  0  0
   35.6262   81.9564   34.9148 H   0  0  0  0  0  0  0  0  0  0  0  0
   34.3389   80.1364   34.0480 H   0  0  0  0  0  0  0  0  0  0  0  0
   32.3657   82.1784   32.8670 H   0  0  0  0  0  0  0  0  0  0  0  0
   32.2164   80.3604   35.3178 H   0  0  0  0  0  0  0  0  0  0  0  0
   32.2805   83.3917   34.9639 H   0  0  0  0  0  0  0  0  0  0  0  0
   32.1553   83.5377   37.4164 H   0  0  0  0  0  0  0  0  0  0  0  0
   31.8331   81.8076   37.5367 H   0  0  0  0  0  0  0  0  0  0  0  0
   30.6494   82.8933   36.7672 H   0  0  0  0  0  0  0  0  0  0  0  0
   30.1206   81.5502   33.7018 H   0  0  0  0  0  0  0  0  0  0  0  0
   34.5481   80.5103   31.8087 H   0  0  0  0  0  0  0  0  0  0  0  0
   32.5431   80.1981   31.7570 H   0  0  0  0  0  0  0  0  0  0  0  0
   35.5741   86.7574   32.7901 H   0  0  0  0  0  0  0  0  0  0  0  0
   38.1850   85.1792   33.0320 H   0  0  0  0  0  0  0  0  0  0  0  0
   35.3287   84.7172   31.9557 H   0  0  0  0  0  0  0  0  0  0  0  0
   36.5793   83.6249   34.5055 H   0  0  0  0  0  0  0  0  0  0  0  0
   34.5686   85.9432   34.5390 H   0  0  0  0  0  0  0  0  0  0  0  0
   36.5489   85.0955   36.6871 H   0  0  0  0  0  0  0  0  0  0  0  0
   34.9746   84.2829   36.5152 H   0  0  0  0  0  0  0  0  0  0  0  0
   36.7935   85.6190   30.6278 H   0  0  0  0  0  0  0  0  0  0  0  0
   35.9355   82.5590   32.0001 H   0  0  0  0  0  0  0  0  0  0  0  0
   34.9213   86.0455   37.9426 H   0  0  0  0  0  0  0  0  0  0  0  0
   34.7305   90.6839   30.7979 H   0  0  0  0  0  0  0  0  0  0  0  0
   37.4586   90.6469   29.4348 H   0  0  0  0  0  0  0  0  0  0  0  0
   38.1383   88.9588   30.7174 H   0  0  0  0  0  0  0  0  0  0  0  0
   35.4382   88.3359   31.8614 H   0  0  0  0  0  0  0  0  0  0  0  0
   35.0885   90.1197   33.0095 H   0  0  0  0  0  0  0  0  0  0  0  0
   37.1744   91.2702   34.2888 H   0  0  0  0  0  0  0  0  0  0  0  0
   37.8821   89.6844   34.0717 H   0  0  0  0  0  0  0  0  0  0  0  0
   35.0972   92.8736   30.5941 H   0  0  0  0  0  0  0  0  0  0  0  0
   35.1692   89.0676   28.9383 H   0  0  0  0  0  0  0  0  0  0  0  0
   37.4637   87.1381   30.1453 H   0  0  0  0  0  0  0  0  0  0  0  0
   36.0093   88.7694   35.0242 H   0  0  0  0  0  0  0  0  0  0  0  0
   29.9164   81.7579   35.3336 H   0  0  0  0  0  0  0  0  0  0  0  0
  1  2  1  0  0  0  0
  1  7  1  0  0  0  0
  1 18  1  0  0  0  0
  1 45  1  6  0  0  0
  2  3  1  0  0  0  0
  2  8  1  0  0  0  0
  2 46  1  6  0  0  0
  3  4  1  0  0  0  0
  3  9  1  0  0  0  0
  3 47  1  1  0  0  0
  4  5  1  0  0  0  0
  4 10  1  0  0  0  0
  4 48  1  1  0  0  0
  5  6  1  0  0  0  0
  5  7  2  0  0  0  0
  6 11  1  0  0  0  0
  6 49  1  0  0  0  0
  6 50  1  0  0  0  0
  7 51  1  0  0  0  0
  8 52  1  0  0  0  0
  9 53  1  0  0  0  0
 10 54  1  0  0  0  0
 11 55  1  0  0  0  0
 12 13  1  0  0  0  0
 12 21  1  0  0  0  0
 12 30  1  0  0  0  0
 12 56  1  1  0  0  0
 13 14  1  0  0  0  0
 13 19  1  0  0  0  0
 13 57  1  1  0  0  0
 14 15  1  0  0  0  0
 14 20  1  0  0  0  0
 14 58  1  6  0  0  0
 15 16  1  0  0  0  0
 15 18  1  0  0  0  0
 15 59  1  1  0  0  0
 16 17  1  0  0  0  0
 16 21  1  0  0  0  0
 16 60  1  6  0  0  0
 17 61  1  0  0  0  0
 17 62  1  0  0  0  0
 17 63  1  0  0  0  0
 18 64  1  0  0  0  0
 18 88  1  0  0  0  0
 19 65  1  0  0  0  0
 20 66  1  0  0  0  0
 22 23  1  0  0  0  0
 22 31  1  0  0  0  0
 22 42  1  0  0  0  0
 22 67  1  6  0  0  0
 23 24  1  0  0  0  0
 23 28  1  0  0  0  0
 23 68  1  1  0  0  0
 24 25  1  0  0  0  0
 24 29  1  0  0  0  0
 24 69  1  6  0  0  0
 25 26  1  0  0  0  0
 25 30  1  0  0  0  0
 25 70  1  1  0  0  0
 26 27  1  0  0  0  0
 26 31  1  0  0  0  0
 26 71  1  6  0  0  0
 27 32  1  0  0  0  0
 27 72  1  0  0  0  0
 27 73  1  0  0  0  0
 28 74  1  0  0  0  0
 29 75  1  0  0  0  0
 32 76  1  0  0  0  0
 33 34  1  0  0  0  0
 33 39  1  0  0  0  0
 33 43  1  0  0  0  0
 33 77  1  1  0  0  0
 34 35  1  0  0  0  0
 34 40  1  0  0  0  0
 34 78  1  6  0  0  0
 35 36  1  0  0  0  0
 35 41  1  0  0  0  0
 35 79  1  1  0  0  0
 36 37  1  0  0  0  0
 36 42  1  0  0  0  0
 36 80  1  6  0  0  0
 37 38  1  0  0  0  0
 37 43  1  0  0  0  0
 37 81  1  1  0  0  0
 38 44  1  0  0  0  0
 38 82  1  0  0  0  0
 38 83  1  0  0  0  0
 39 84  1  0  0  0  0
 40 85  1  0  0  0  0
 41 86  1  0  0  0  0
 44 87  1  0  0  0  0
M  CHG  1  18   1
M  END
$$$$
