ADK
 OpenBabel04111917423D

 18 19  0  0  0  0  0  0  0  0999 V2000
   30.5940  -19.8510    2.7663 N   0  0  0  0  0  0  0  0  0  0  0  0
   29.7698  -20.8296    2.4866 C   0  0  0  0  0  0  0  0  0  0  0  0
   29.9389  -22.1685    2.2786 N   0  3  0  0  0  0  0  0  0  0  0  0
   28.8290  -22.9391    1.9968 C   0  0  0  0  0  0  0  0  0  0  0  0
   27.6101  -22.4930    1.9056 N   0  0  0  0  0  0  0  0  0  0  0  0
   27.4225  -21.1345    2.1224 C   0  0  0  0  0  0  0  0  0  0  0  0
   26.1877  -20.6246    2.0367 N   0  0  0  0  0  0  0  0  0  0  0  0
   28.4370  -20.2875    2.4130 C   0  0  0  0  0  0  0  0  0  0  0  0
   28.5294  -18.9456    2.6754 N   0  0  0  0  0  0  0  0  0  0  0  0
   29.8006  -18.7297    2.8801 C   0  0  0  0  0  0  0  0  0  0  0  0
   31.2689  -22.7298    2.3430 C   0  0  0  0  0  0  0  0  0  0  0  0
   29.0170  -24.0186    1.8382 H   0  0  0  0  0  0  0  0  0  0  0  0
   26.0294  -19.6447    2.2068 H   0  0  0  0  0  0  0  0  0  0  0  0
   25.4080  -21.2657    1.8452 H   0  0  0  0  0  0  0  0  0  0  0  0
   30.2197  -17.7135    3.1332 H   0  0  0  0  0  0  0  0  0  0  0  0
   32.0154  -21.9567    2.5810 H   0  0  0  0  0  0  0  0  0  0  0  0
   31.5345  -23.1804    1.3769 H   0  0  0  0  0  0  0  0  0  0  0  0
   31.3155  -23.5056    3.1194 H   0  0  0  0  0  0  0  0  0  0  0  0
  1  2  1  0  0  0  0
  1 10  1  0  0  0  0
  2  3  2  0  0  0  0
  2  8  1  0  0  0  0
  3  4  1  0  0  0  0
  3 11  1  0  0  0  0
  4  5  2  0  0  0  0
  4 12  1  0  0  0  0
  5  6  1  0  0  0  0
  6  7  1  0  0  0  0
  6  8  2  0  0  0  0
  7 13  1  0  0  0  0
  7 14  1  0  0  0  0
  8  9  1  0  0  0  0
  9 10  2  0  0  0  0
 10 15  1  0  0  0  0
 11 16  1  0  0  0  0
 11 17  1  0  0  0  0
 11 18  1  0  0  0  0
M  CHG  1   3   1
M  END
$$$$
