ADN
 OpenBabel04111922593D

 32 34  0  0  1  0  0  0  0  0999 V2000
   13.9576  -14.9308    7.9126 O   0  0  0  0  0  0  0  0  0  0  0  0
   14.5235  -14.1725    6.8498 C   0  0  0  0  0  0  0  0  0  0  0  0
   15.0125  -12.8229    7.3820 C   0  0  1  0  0  0  0  0  0  0  0  0
   16.4474  -12.7542    7.2764 O   0  0  0  0  0  0  0  0  0  0  0  0
   14.4453  -11.6760    6.5596 C   0  0  1  0  0  0  0  0  0  0  0  0
   13.1852  -11.2190    7.0434 O   0  0  0  0  0  0  0  0  0  0  0  0
   15.5205  -10.6132    6.6839 C   0  0  1  0  0  0  0  0  0  0  0  0
   15.3100   -9.8422    7.8766 O   0  0  0  0  0  0  0  0  0  0  0  0
   16.8084  -11.4365    6.7931 C   0  0  2  0  0  0  0  0  0  0  0  0
   17.5286  -11.5736    5.5348 N   0  3  0  0  0  0  0  0  0  0  0  0
   17.4824  -12.6097    4.6375 C   0  0  0  0  0  0  0  0  0  0  0  0
   18.2764  -12.4013    3.6026 N   0  0  0  0  0  0  0  0  0  0  0  0
   18.8895  -11.1891    3.8514 C   0  0  0  0  0  0  0  0  0  0  0  0
   19.8534  -10.4240    3.1590 C   0  0  0  0  0  0  0  0  0  0  0  0
   20.4301  -10.7927    1.9622 N   0  0  0  0  0  0  0  0  0  0  0  0
   20.2416   -9.2465    3.6954 N   0  0  0  0  0  0  0  0  0  0  0  0
   19.6938   -8.8501    4.8649 C   0  0  0  0  0  0  0  0  0  0  0  0
   18.7666   -9.4967    5.6070 N   0  0  0  0  0  0  0  0  0  0  0  0
   18.4236  -10.6595    5.0469 C   0  0  0  0  0  0  0  0  0  0  0  0
   14.6489  -15.0234    8.5935 H   0  0  0  0  0  0  0  0  0  0  0  0
   13.7372  -14.0479    6.0982 H   0  0  0  0  0  0  0  0  0  0  0  0
   15.3321  -14.7590    6.4011 H   0  0  0  0  0  0  0  0  0  0  0  0
   14.7427  -12.7155    8.4407 H   0  0  0  0  0  0  0  0  0  0  0  0
   14.3317  -11.9611    5.5080 H   0  0  0  0  0  0  0  0  0  0  0  0
   12.5820  -11.9861    7.0882 H   0  0  0  0  0  0  0  0  0  0  0  0
   15.5130   -9.9176    5.8412 H   0  0  0  0  0  0  0  0  0  0  0  0
   14.3896   -9.5143    7.8204 H   0  0  0  0  0  0  0  0  0  0  0  0
   17.5019  -10.9937    7.5189 H   0  0  0  0  0  0  0  0  0  0  0  0
   16.8686  -13.4857    4.7861 H   0  0  0  0  0  0  0  0  0  0  0  0
   21.1218  -10.1794    1.5589 H   0  0  0  0  0  0  0  0  0  0  0  0
   20.1993  -11.6834    1.5475 H   0  0  0  0  0  0  0  0  0  0  0  0
   20.0387   -7.9013    5.2488 H   0  0  0  0  0  0  0  0  0  0  0  0
  1  2  1  0  0  0  0
  1 20  1  0  0  0  0
  2  3  1  0  0  0  0
  2 21  1  0  0  0  0
  2 22  1  0  0  0  0
  3  4  1  0  0  0  0
  3  5  1  0  0  0  0
  3 23  1  1  0  0  0
  4  9  1  0  0  0  0
  5  6  1  0  0  0  0
  5  7  1  0  0  0  0
  5 24  1  6  0  0  0
  6 25  1  0  0  0  0
  7  8  1  0  0  0  0
  7  9  1  0  0  0  0
  7 26  1  6  0  0  0
  8 27  1  0  0  0  0
  9 10  1  0  0  0  0
  9 28  1  1  0  0  0
 10 11  2  0  0  0  0
 10 19  1  0  0  0  0
 11 12  1  0  0  0  0
 11 29  1  0  0  0  0
 12 13  1  0  0  0  0
 13 14  2  0  0  0  0
 13 19  1  0  0  0  0
 14 15  1  0  0  0  0
 14 16  1  0  0  0  0
 15 30  1  0  0  0  0
 15 31  1  0  0  0  0
 16 17  2  0  0  0  0
 17 18  1  0  0  0  0
 17 32  1  0  0  0  0
 18 19  2  0  0  0  0
M  CHG  1  10   1
M  END
$$$$
