ADP
 OpenBabel04111920463D

 39 41  0  0  1  0  0  0  0  0999 V2000
   77.3974  -11.3213    4.3819 P   0  0  0  0  0  0  0  0  0  0  0  0
   78.4348  -10.9325    3.3207 O   0  0  0  0  0  0  0  0  0  0  0  0
   76.3503  -10.2258    4.5797 O   0  0  0  0  0  0  0  0  0  0  0  0
   76.8147  -12.7095    4.1093 O   0  0  0  0  0  0  0  0  0  0  0  0
   78.2173  -12.3092    7.0611 P   0  0  1  0  0  0  0  0  0  0  0  0
   79.1225  -11.6722    8.1140 O   0  0  0  0  0  0  0  0  0  0  0  0
   76.8656  -12.8002    7.5509 O   0  0  0  0  0  0  0  0  0  0  0  0
   78.2211  -11.3968    5.7539 O   0  0  0  0  0  0  0  0  0  0  0  0
   79.0809  -13.5852    6.5408 O   0  0  0  0  0  0  0  0  0  0  0  0
   78.3962  -14.7389    6.0924 C   0  0  0  0  0  0  0  0  0  0  0  0
   79.3002  -15.9169    6.4477 C   0  0  1  0  0  0  0  0  0  0  0  0
   79.4591  -15.9985    7.8810 O   0  0  0  0  0  0  0  0  0  0  0  0
   78.7635  -17.2719    5.9715 C   0  0  1  0  0  0  0  0  0  0  0  0
   79.8116  -18.0545    5.3556 O   0  0  0  0  0  0  0  0  0  0  0  0
   78.2984  -17.9529    7.2643 C   0  0  1  0  0  0  0  0  0  0  0  0
   78.3482  -19.3845    7.2242 O   0  0  0  0  0  0  0  0  0  0  0  0
   79.2505  -17.3472    8.2879 C   0  0  2  0  0  0  0  0  0  0  0  0
   78.8155  -17.3677    9.6638 N   0  3  0  0  0  0  0  0  0  0  0  0
   77.6784  -16.8318   10.2181 C   0  0  0  0  0  0  0  0  0  0  0  0
   77.6004  -17.0486   11.5154 N   0  0  0  0  0  0  0  0  0  0  0  0
   78.7902  -17.6816   11.8391 C   0  0  0  0  0  0  0  0  0  0  0  0
   79.3355  -18.1279   13.0567 C   0  0  0  0  0  0  0  0  0  0  0  0
   78.6756  -18.0641   14.2810 N   0  0  0  0  0  0  0  0  0  0  0  0
   80.5764  -18.6887   13.0389 N   0  0  0  0  0  0  0  0  0  0  0  0
   81.1951  -18.8210   11.8497 C   0  0  0  0  0  0  0  0  0  0  0  0
   80.7490  -18.4828   10.6330 N   0  0  0  0  0  0  0  0  0  0  0  0
   79.5485  -17.8883   10.7041 C   0  0  0  0  0  0  0  0  0  0  0  0
   78.2521  -14.6800    5.0065 H   0  0  0  0  0  0  0  0  0  0  0  0
   77.4257  -14.8572    6.5827 H   0  0  0  0  0  0  0  0  0  0  0  0
   80.3038  -15.7282    6.0495 H   0  0  0  0  0  0  0  0  0  0  0  0
   77.9664  -17.2003    5.2296 H   0  0  0  0  0  0  0  0  0  0  0  0
   80.2039  -17.4725    4.6661 H   0  0  0  0  0  0  0  0  0  0  0  0
   77.2628  -17.6637    7.4656 H   0  0  0  0  0  0  0  0  0  0  0  0
   78.1908  -19.6336    6.2985 H   0  0  0  0  0  0  0  0  0  0  0  0
   80.2245  -17.8577    8.2391 H   0  0  0  0  0  0  0  0  0  0  0  0
   76.9450  -16.2845    9.6206 H   0  0  0  0  0  0  0  0  0  0  0  0
   79.3092  -18.1332   15.0607 H   0  0  0  0  0  0  0  0  0  0  0  0
   77.9462  -17.3706   14.3011 H   0  0  0  0  0  0  0  0  0  0  0  0
   82.1766  -19.2739   11.8807 H   0  0  0  0  0  0  0  0  0  0  0  0
  1  2  2  0  0  0  0
  1  3  1  0  0  0  0
  1  4  1  0  0  0  0
  1  8  1  0  0  0  0
  5  6  2  1  0  0  0
  5  7  1  0  0  0  0
  5  8  1  0  0  0  0
  5  9  1  0  0  0  0
  9 10  1  0  0  0  0
 10 11  1  0  0  0  0
 10 28  1  0  0  0  0
 10 29  1  0  0  0  0
 11 12  1  0  0  0  0
 11 13  1  0  0  0  0
 11 30  1  6  0  0  0
 12 17  1  0  0  0  0
 13 14  1  0  0  0  0
 13 15  1  0  0  0  0
 13 31  1  6  0  0  0
 14 32  1  0  0  0  0
 15 16  1  0  0  0  0
 15 17  1  0  0  0  0
 15 33  1  1  0  0  0
 16 34  1  0  0  0  0
 17 18  1  0  0  0  0
 17 35  1  6  0  0  0
 18 19  2  0  0  0  0
 18 27  1  0  0  0  0
 19 20  1  0  0  0  0
 19 36  1  0  0  0  0
 20 21  1  0  0  0  0
 21 22  2  0  0  0  0
 21 27  1  0  0  0  0
 22 23  1  0  0  0  0
 22 24  1  0  0  0  0
 23 37  1  0  0  0  0
 23 38  1  0  0  0  0
 24 25  2  0  0  0  0
 25 26  1  0  0  0  0
 25 39  1  0  0  0  0
 26 27  2  0  0  0  0
M  CHG  1  18   1
M  END
$$$$
