ADP
 OpenBabel04111920573D

 39 41  0  0  1  0  0  0  0  0999 V2000
  -19.7052    2.5019   10.7597 P   0  0  0  0  0  0  0  0  0  0  0  0
  -20.0089    1.8420    9.4097 O   0  0  0  0  0  0  0  0  0  0  0  0
  -19.9354    1.5367   11.9170 O   0  0  0  0  0  0  0  0  0  0  0  0
  -20.3867    3.8544   10.9029 O   0  0  0  0  0  0  0  0  0  0  0  0
  -17.1316    3.6646   11.6029 P   0  0  1  0  0  0  0  0  0  0  0  0
  -17.0001    5.1184   11.1433 O   0  0  0  0  0  0  0  0  0  0  0  0
  -17.1084    3.3327   13.0832 O   0  0  0  0  0  0  0  0  0  0  0  0
  -18.1162    2.7798   10.6973 O   0  0  0  0  0  0  0  0  0  0  0  0
  -15.7291    2.9863   11.0957 O   0  0  0  0  0  0  0  0  0  0  0  0
  -15.0530    3.5175    9.9827 C   0  0  0  0  0  0  0  0  0  0  0  0
  -13.7262    2.7630    9.8770 C   0  0  1  0  0  0  0  0  0  0  0  0
  -12.9504    2.8726   11.1062 O   0  0  0  0  0  0  0  0  0  0  0  0
  -13.9391    1.2714    9.6273 C   0  0  1  0  0  0  0  0  0  0  0  0
  -14.1397    0.9668    8.2480 O   0  0  0  0  0  0  0  0  0  0  0  0
  -12.6622    0.6717   10.1973 C   0  0  1  0  0  0  0  0  0  0  0  0
  -11.5663    0.8020    9.2591 O   0  0  0  0  0  0  0  0  0  0  0  0
  -12.4143    1.5663   11.4163 C   0  0  2  0  0  0  0  0  0  0  0  0
  -12.9286    1.0611   12.6846 N   0  3  0  0  0  0  0  0  0  0  0  0
  -14.0551    1.4288   13.3605 C   0  0  0  0  0  0  0  0  0  0  0  0
  -14.1623    0.7964   14.5213 N   0  0  0  0  0  0  0  0  0  0  0  0
  -13.0779   -0.0186   14.5875 C   0  0  0  0  0  0  0  0  0  0  0  0
  -12.6622   -0.9245   15.5818 C   0  0  0  0  0  0  0  0  0  0  0  0
  -13.3505   -1.0890   16.7755 N   0  0  0  0  0  0  0  0  0  0  0  0
  -11.5171   -1.6141   15.3770 N   0  0  0  0  0  0  0  0  0  0  0  0
  -10.8327   -1.3798   14.2379 C   0  0  0  0  0  0  0  0  0  0  0  0
  -11.1323   -0.5378   13.2085 N   0  0  0  0  0  0  0  0  0  0  0  0
  -12.2875    0.1078   13.4551 C   0  0  0  0  0  0  0  0  0  0  0  0
  -14.8516    4.5846   10.1269 H   0  0  0  0  0  0  0  0  0  0  0  0
  -15.6589    3.3799    9.0808 H   0  0  0  0  0  0  0  0  0  0  0  0
  -13.1292    3.2069    9.0701 H   0  0  0  0  0  0  0  0  0  0  0  0
  -14.7922    0.8807   10.1936 H   0  0  0  0  0  0  0  0  0  0  0  0
  -15.0007    1.3704    8.0180 H   0  0  0  0  0  0  0  0  0  0  0  0
  -12.7638   -0.3938   10.4234 H   0  0  0  0  0  0  0  0  0  0  0  0
  -10.7913    0.3969    9.6792 H   0  0  0  0  0  0  0  0  0  0  0  0
  -11.3369    1.7170   11.5739 H   0  0  0  0  0  0  0  0  0  0  0  0
  -14.7654    2.1599   13.0007 H   0  0  0  0  0  0  0  0  0  0  0  0
  -13.1190   -1.8892   17.3303 H   0  0  0  0  0  0  0  0  0  0  0  0
  -14.2888   -0.7031   16.7729 H   0  0  0  0  0  0  0  0  0  0  0  0
   -9.9178   -1.9421   14.1173 H   0  0  0  0  0  0  0  0  0  0  0  0
  1  2  2  0  0  0  0
  1  3  1  0  0  0  0
  1  4  1  0  0  0  0
  1  8  1  0  0  0  0
  5  6  2  6  0  0  0
  5  7  1  0  0  0  0
  5  8  1  0  0  0  0
  5  9  1  0  0  0  0
  9 10  1  0  0  0  0
 10 11  1  0  0  0  0
 10 28  1  0  0  0  0
 10 29  1  0  0  0  0
 11 12  1  0  0  0  0
 11 13  1  0  0  0  0
 11 30  1  6  0  0  0
 12 17  1  0  0  0  0
 13 14  1  0  0  0  0
 13 15  1  0  0  0  0
 13 31  1  1  0  0  0
 14 32  1  0  0  0  0
 15 16  1  0  0  0  0
 15 17  1  0  0  0  0
 15 33  1  1  0  0  0
 16 34  1  0  0  0  0
 17 18  1  0  0  0  0
 17 35  1  1  0  0  0
 18 19  2  0  0  0  0
 18 27  1  0  0  0  0
 19 20  1  0  0  0  0
 19 36  1  0  0  0  0
 20 21  1  0  0  0  0
 21 22  2  0  0  0  0
 21 27  1  0  0  0  0
 22 23  1  0  0  0  0
 22 24  1  0  0  0  0
 23 37  1  0  0  0  0
 23 38  1  0  0  0  0
 24 25  2  0  0  0  0
 25 26  1  0  0  0  0
 25 39  1  0  0  0  0
 26 27  2  0  0  0  0
M  CHG  1  18   1
M  END
$$$$
