ADP
 OpenBabel04111920413D

 39 41  0  0  1  0  0  0  0  0999 V2000
   -5.1280  -26.8753  -12.0131 P   0  0  0  0  0  0  0  0  0  0  0  0
   -5.1370  -25.4362  -11.5040 O   0  0  0  0  0  0  0  0  0  0  0  0
   -4.3253  -27.0057  -13.3103 O   0  0  0  0  0  0  0  0  0  0  0  0
   -6.4842  -27.5370  -12.1370 O   0  0  0  0  0  0  0  0  0  0  0  0
   -4.4616  -28.1627   -9.4231 P   0  0  1  0  0  0  0  0  0  0  0  0
   -3.1966  -27.8894   -8.6348 O   0  0  0  0  0  0  0  0  0  0  0  0
   -5.8032  -27.8618   -8.7600 O   0  0  0  0  0  0  0  0  0  0  0  0
   -4.2916  -27.7472  -10.9591 O   0  0  0  0  0  0  0  0  0  0  0  0
   -4.4480  -29.7931   -9.6170 O   0  0  0  0  0  0  0  0  0  0  0  0
   -5.6407  -30.3817  -10.0640 C   0  0  0  0  0  0  0  0  0  0  0  0
   -5.4317  -31.9019  -10.0896 C   0  0  1  0  0  0  0  0  0  0  0  0
   -4.9566  -32.3598   -8.7927 O   0  0  0  0  0  0  0  0  0  0  0  0
   -6.7181  -32.6642  -10.3978 C   0  0  1  0  0  0  0  0  0  0  0  0
   -6.4549  -33.7786  -11.2718 O   0  0  0  0  0  0  0  0  0  0  0  0
   -7.1751  -33.1800   -9.0325 C   0  0  1  0  0  0  0  0  0  0  0  0
   -7.9097  -34.4154   -9.1132 O   0  0  0  0  0  0  0  0  0  0  0  0
   -5.8586  -33.3234   -8.2593 C   0  0  2  0  0  0  0  0  0  0  0  0
   -5.9592  -33.1238   -6.8177 N   0  3  0  0  0  0  0  0  0  0  0  0
   -6.7114  -32.1769   -6.1591 C   0  0  0  0  0  0  0  0  0  0  0  0
   -6.6775  -32.3237   -4.8493 N   0  0  0  0  0  0  0  0  0  0  0  0
   -5.7741  -33.3400   -4.6368 C   0  0  0  0  0  0  0  0  0  0  0  0
   -5.2894  -33.9362   -3.4532 C   0  0  0  0  0  0  0  0  0  0  0  0
   -5.7144  -33.5789   -2.1795 N   0  0  0  0  0  0  0  0  0  0  0  0
   -4.3818  -34.9370   -3.5588 N   0  0  0  0  0  0  0  0  0  0  0  0
   -4.0225  -35.3314   -4.8057 C   0  0  0  0  0  0  0  0  0  0  0  0
   -4.4648  -34.8846   -6.0026 N   0  0  0  0  0  0  0  0  0  0  0  0
   -5.3216  -33.8619   -5.8452 C   0  0  0  0  0  0  0  0  0  0  0  0
   -5.8949  -30.0224  -11.0681 H   0  0  0  0  0  0  0  0  0  0  0  0
   -6.4594  -30.1406   -9.3803 H   0  0  0  0  0  0  0  0  0  0  0  0
   -4.6428  -32.1419  -10.8111 H   0  0  0  0  0  0  0  0  0  0  0  0
   -7.4847  -32.0507  -10.8818 H   0  0  0  0  0  0  0  0  0  0  0  0
   -7.3168  -34.1307  -11.5443 H   0  0  0  0  0  0  0  0  0  0  0  0
   -7.8365  -32.4432   -8.5748 H   0  0  0  0  0  0  0  0  0  0  0  0
   -8.6911  -34.2371   -9.6615 H   0  0  0  0  0  0  0  0  0  0  0  0
   -5.4284  -34.3198   -8.4169 H   0  0  0  0  0  0  0  0  0  0  0  0
   -7.2664  -31.4040   -6.6835 H   0  0  0  0  0  0  0  0  0  0  0  0
   -5.0492  -33.8366   -1.4662 H   0  0  0  0  0  0  0  0  0  0  0  0
   -6.1115  -32.6452   -2.1491 H   0  0  0  0  0  0  0  0  0  0  0  0
   -3.2985  -36.1407   -4.8452 H   0  0  0  0  0  0  0  0  0  0  0  0
  1  2  2  0  0  0  0
  1  3  1  0  0  0  0
  1  4  1  0  0  0  0
  1  8  1  0  0  0  0
  5  6  2  1  0  0  0
  5  7  1  0  0  0  0
  5  8  1  0  0  0  0
  5  9  1  0  0  0  0
  9 10  1  0  0  0  0
 10 11  1  0  0  0  0
 10 28  1  0  0  0  0
 10 29  1  0  0  0  0
 11 12  1  0  0  0  0
 11 13  1  0  0  0  0
 11 30  1  6  0  0  0
 12 17  1  0  0  0  0
 13 14  1  0  0  0  0
 13 15  1  0  0  0  0
 13 31  1  6  0  0  0
 14 32  1  0  0  0  0
 15 16  1  0  0  0  0
 15 17  1  0  0  0  0
 15 33  1  1  0  0  0
 16 34  1  0  0  0  0
 17 18  1  0  0  0  0
 17 35  1  6  0  0  0
 18 19  2  0  0  0  0
 18 27  1  0  0  0  0
 19 20  1  0  0  0  0
 19 36  1  0  0  0  0
 20 21  1  0  0  0  0
 21 22  2  0  0  0  0
 21 27  1  0  0  0  0
 22 23  1  0  0  0  0
 22 24  1  0  0  0  0
 23 37  1  0  0  0  0
 23 38  1  0  0  0  0
 24 25  2  0  0  0  0
 25 26  1  0  0  0  0
 25 39  1  0  0  0  0
 26 27  2  0  0  0  0
M  CHG  1  18   1
M  END
$$$$
