ADP
 OpenBabel04111922123D

 39 41  0  0  1  0  0  0  0  0999 V2000
   10.6180  -19.1722    4.7776 P   0  0  0  0  0  0  0  0  0  0  0  0
   10.5599  -18.4427    6.1419 O   0  0  0  0  0  0  0  0  0  0  0  0
    9.4962  -20.1839    4.6286 O   0  0  0  0  0  0  0  0  0  0  0  0
   11.9805  -19.7588    4.4260 O   0  0  0  0  0  0  0  0  0  0  0  0
   11.1824  -16.8231    3.0816 P   0  0  2  0  0  0  0  0  0  0  0  0
   10.6338  -16.4990    1.6962 O   0  0  0  0  0  0  0  0  0  0  0  0
   12.6782  -16.9102    3.2600 O   0  0  0  0  0  0  0  0  0  0  0  0
   10.3058  -18.0031    3.7136 O   0  0  0  0  0  0  0  0  0  0  0  0
   10.6887  -15.5544    3.9889 O   0  0  0  0  0  0  0  0  0  0  0  0
   11.3066  -15.3528    5.2476 C   0  0  0  0  0  0  0  0  0  0  0  0
   10.2547  -14.8280    6.2108 C   0  0  1  0  0  0  0  0  0  0  0  0
    9.7727  -13.5359    5.7582 O   0  0  0  0  0  0  0  0  0  0  0  0
    9.0394  -15.7399    6.3361 C   0  0  1  0  0  0  0  0  0  0  0  0
    9.2064  -16.7360    7.3384 O   0  0  0  0  0  0  0  0  0  0  0  0
    7.9482  -14.7694    6.7539 C   0  0  1  0  0  0  0  0  0  0  0  0
    7.8673  -14.6093    8.1817 O   0  0  0  0  0  0  0  0  0  0  0  0
    8.3822  -13.4673    6.0936 C   0  0  2  0  0  0  0  0  0  0  0  0
    7.6171  -13.2217    4.8895 N   0  3  0  0  0  0  0  0  0  0  0  0
    7.5781  -14.0350    3.7794 C   0  0  0  0  0  0  0  0  0  0  0  0
    6.6583  -13.6344    2.9231 N   0  0  0  0  0  0  0  0  0  0  0  0
    6.1024  -12.5174    3.5157 C   0  0  0  0  0  0  0  0  0  0  0  0
    5.0932  -11.6592    3.0833 C   0  0  0  0  0  0  0  0  0  0  0  0
    4.4611  -11.8176    1.8622 N   0  0  0  0  0  0  0  0  0  0  0  0
    4.7113  -10.6391    3.8915 N   0  0  0  0  0  0  0  0  0  0  0  0
    5.3352  -10.5292    5.0904 C   0  0  0  0  0  0  0  0  0  0  0  0
    6.3186  -11.2881    5.6052 N   0  0  0  0  0  0  0  0  0  0  0  0
    6.6645  -12.2651    4.7455 C   0  0  0  0  0  0  0  0  0  0  0  0
   12.0859  -14.5916    5.1218 H   0  0  0  0  0  0  0  0  0  0  0  0
   11.7655  -16.2609    5.6446 H   0  0  0  0  0  0  0  0  0  0  0  0
   10.7054  -14.6573    7.1926 H   0  0  0  0  0  0  0  0  0  0  0  0
    8.7629  -16.2085    5.3864 H   0  0  0  0  0  0  0  0  0  0  0  0
    9.8031  -17.4358    6.8939 H   0  0  0  0  0  0  0  0  0  0  0  0
    6.9550  -15.1048    6.4372 H   0  0  0  0  0  0  0  0  0  0  0  0
    7.9108  -15.5390    8.4934 H   0  0  0  0  0  0  0  0  0  0  0  0
    8.2621  -12.6136    6.7695 H   0  0  0  0  0  0  0  0  0  0  0  0
    8.2132  -14.9015    3.6590 H   0  0  0  0  0  0  0  0  0  0  0  0
    3.7655  -11.1682    1.5794 H   0  0  0  0  0  0  0  0  0  0  0  0
    4.7934  -12.5805    1.2877 H   0  0  0  0  0  0  0  0  0  0  0  0
    4.9914   -9.7171    5.7227 H   0  0  0  0  0  0  0  0  0  0  0  0
  1  2  2  0  0  0  0
  1  3  1  0  0  0  0
  1  4  1  0  0  0  0
  1  8  1  0  0  0  0
  5  6  2  6  0  0  0
  5  7  1  0  0  0  0
  5  8  1  0  0  0  0
  5  9  1  0  0  0  0
  9 10  1  0  0  0  0
 10 11  1  0  0  0  0
 10 28  1  0  0  0  0
 10 29  1  0  0  0  0
 11 12  1  0  0  0  0
 11 13  1  0  0  0  0
 11 30  1  1  0  0  0
 12 17  1  0  0  0  0
 13 14  1  0  0  0  0
 13 15  1  0  0  0  0
 13 31  1  6  0  0  0
 14 32  1  0  0  0  0
 15 16  1  0  0  0  0
 15 17  1  0  0  0  0
 15 33  1  6  0  0  0
 16 34  1  0  0  0  0
 17 18  1  0  0  0  0
 17 35  1  1  0  0  0
 18 19  2  0  0  0  0
 18 27  1  0  0  0  0
 19 20  1  0  0  0  0
 19 36  1  0  0  0  0
 20 21  1  0  0  0  0
 21 22  2  0  0  0  0
 21 27  1  0  0  0  0
 22 23  1  0  0  0  0
 22 24  1  0  0  0  0
 23 37  1  0  0  0  0
 23 38  1  0  0  0  0
 24 25  2  0  0  0  0
 25 26  1  0  0  0  0
 25 39  1  0  0  0  0
 26 27  2  0  0  0  0
M  CHG  1  18   1
M  END
$$$$
