ADP
 OpenBabel04111920063D

 39 41  0  0  1  0  0  0  0  0999 V2000
   54.1418   18.7024   46.0879 P   0  0  0  0  0  0  0  0  0  0  0  0
   55.2284   18.7599   44.9973 O   0  0  0  0  0  0  0  0  0  0  0  0
   54.5527   17.7912   47.2306 O   0  0  0  0  0  0  0  0  0  0  0  0
   52.7694   18.4084   45.4937 O   0  0  0  0  0  0  0  0  0  0  0  0
   53.0652   20.7924   47.7969 P   0  0  1  0  0  0  0  0  0  0  0  0
   51.6911   21.1810   47.2601 O   0  0  0  0  0  0  0  0  0  0  0  0
   53.1863   20.1609   49.1694 O   0  0  0  0  0  0  0  0  0  0  0  0
   54.0731   20.2119   46.6825 O   0  0  0  0  0  0  0  0  0  0  0  0
   53.7944   22.2543   48.0399 O   0  0  0  0  0  0  0  0  0  0  0  0
   53.4665   23.3115   47.1731 C   0  0  0  0  0  0  0  0  0  0  0  0
   52.8856   24.5051   47.9548 C   0  0  1  0  0  0  0  0  0  0  0  0
   52.3746   25.4855   47.0168 O   0  0  0  0  0  0  0  0  0  0  0  0
   51.7505   24.1245   48.9233 C   0  0  1  0  0  0  0  0  0  0  0  0
   52.0753   24.3440   50.3094 O   0  0  0  0  0  0  0  0  0  0  0  0
   50.5942   25.0473   48.5611 C   0  0  1  0  0  0  0  0  0  0  0  0
   50.4943   26.1272   49.5235 O   0  0  0  0  0  0  0  0  0  0  0  0
   50.9443   25.5958   47.1808 C   0  0  2  0  0  0  0  0  0  0  0  0
   50.2256   24.9631   46.0981 N   0  3  0  0  0  0  0  0  0  0  0  0
   50.7449   24.3548   44.9793 C   0  0  0  0  0  0  0  0  0  0  0  0
   49.7958   23.9502   44.1407 N   0  0  0  0  0  0  0  0  0  0  0  0
   48.6172   24.2531   44.7796 C   0  0  0  0  0  0  0  0  0  0  0  0
   47.2689   24.0627   44.4025 C   0  0  0  0  0  0  0  0  0  0  0  0
   46.8811   23.4760   43.2106 N   0  0  0  0  0  0  0  0  0  0  0  0
   46.2976   24.5433   45.2243 N   0  0  0  0  0  0  0  0  0  0  0  0
   46.6840   25.2051   46.3454 C   0  0  0  0  0  0  0  0  0  0  0  0
   47.9308   25.4635   46.7806 N   0  0  0  0  0  0  0  0  0  0  0  0
   48.8534   24.9410   45.9645 C   0  0  0  0  0  0  0  0  0  0  0  0
   52.7915   23.0098   46.3716 H   0  0  0  0  0  0  0  0  0  0  0  0
   54.3892   23.6280   46.6743 H   0  0  0  0  0  0  0  0  0  0  0  0
   53.7023   24.9764   48.5078 H   0  0  0  0  0  0  0  0  0  0  0  0
   51.4479   23.0873   48.7992 H   0  0  0  0  0  0  0  0  0  0  0  0
   52.4457   25.2384   50.3709 H   0  0  0  0  0  0  0  0  0  0  0  0
   49.6399   24.5174   48.5932 H   0  0  0  0  0  0  0  0  0  0  0  0
   50.3354   25.6556   50.3711 H   0  0  0  0  0  0  0  0  0  0  0  0
   50.6939   26.6705   47.1073 H   0  0  0  0  0  0  0  0  0  0  0  0
   51.8031   24.2362   44.8155 H   0  0  0  0  0  0  0  0  0  0  0  0
   45.9163   23.1905   43.1540 H   0  0  0  0  0  0  0  0  0  0  0  0
   47.5989   22.9254   42.7526 H   0  0  0  0  0  0  0  0  0  0  0  0
   45.8878   25.5704   46.9682 H   0  0  0  0  0  0  0  0  0  0  0  0
  1  2  2  0  0  0  0
  1  3  1  0  0  0  0
  1  4  1  0  0  0  0
  1  8  1  0  0  0  0
  5  6  2  6  0  0  0
  5  7  1  0  0  0  0
  5  8  1  0  0  0  0
  5  9  1  0  0  0  0
  9 10  1  0  0  0  0
 10 11  1  0  0  0  0
 10 28  1  0  0  0  0
 10 29  1  0  0  0  0
 11 12  1  0  0  0  0
 11 13  1  0  0  0  0
 11 30  1  1  0  0  0
 12 17  1  0  0  0  0
 13 14  1  0  0  0  0
 13 15  1  0  0  0  0
 13 31  1  6  0  0  0
 14 32  1  0  0  0  0
 15 16  1  0  0  0  0
 15 17  1  0  0  0  0
 15 33  1  6  0  0  0
 16 34  1  0  0  0  0
 17 18  1  0  0  0  0
 17 35  1  6  0  0  0
 18 19  2  0  0  0  0
 18 27  1  0  0  0  0
 19 20  1  0  0  0  0
 19 36  1  0  0  0  0
 20 21  1  0  0  0  0
 21 22  2  0  0  0  0
 21 27  1  0  0  0  0
 22 23  1  0  0  0  0
 22 24  1  0  0  0  0
 23 37  1  0  0  0  0
 23 38  1  0  0  0  0
 24 25  2  0  0  0  0
 25 26  1  0  0  0  0
 25 39  1  0  0  0  0
 26 27  2  0  0  0  0
M  CHG  1  18   1
M  END
$$$$
