ADX
 OpenBabel04111918593D

 39 41  0  0  1  0  0  0  0  0999 V2000
   -8.3047   -9.6064   11.6209 S   0  0  0  0  0  0  0  0  0  0  0  0
   -7.8172  -10.4545   10.5285 O   0  0  0  0  0  0  0  0  0  0  0  0
   -8.4967  -10.3992   12.8463 O   0  0  0  0  0  0  0  0  0  0  0  0
   -7.5513   -8.3886   11.8641 O   0  0  0  0  0  0  0  0  0  0  0  0
  -10.0207   -8.0013   10.2352 P   0  0  2  0  0  0  0  0  0  0  0  0
   -9.1564   -8.0411    8.9878 O   0  0  0  0  0  0  0  0  0  0  0  0
  -10.2620   -6.6952   10.9721 O   0  0  0  0  0  0  0  0  0  0  0  0
   -9.8323   -9.2300   11.2353 O   0  0  0  0  0  0  0  0  0  0  0  0
  -11.5160   -8.4094    9.6712 O   0  0  0  0  0  0  0  0  0  0  0  0
  -12.6185   -8.3408   10.5628 C   0  0  0  0  0  0  0  0  0  0  0  0
  -13.9455   -8.3731    9.8098 C   0  0  1  0  0  0  0  0  0  0  0  0
  -14.1069   -9.6169    9.0969 O   0  0  0  0  0  0  0  0  0  0  0  0
  -15.1163   -8.2445   10.7891 C   0  0  1  0  0  0  0  0  0  0  0  0
  -15.6008   -6.9034   10.8815 O   0  0  0  0  0  0  0  0  0  0  0  0
  -16.1813   -9.1250   10.1733 C   0  0  1  0  0  0  0  0  0  0  0  0
  -16.9593   -8.3220    9.2508 O   0  0  0  0  0  0  0  0  0  0  0  0
  -15.4083  -10.1470    9.3594 C   0  0  2  0  0  0  0  0  0  0  0  0
  -15.2977  -11.4537    9.9344 N   0  3  0  0  0  0  0  0  0  0  0  0
  -15.7177  -12.6092    9.3214 C   0  0  0  0  0  0  0  0  0  0  0  0
  -15.4747  -13.6708   10.0592 N   0  0  0  0  0  0  0  0  0  0  0  0
  -14.8611  -13.1732   11.1972 C   0  0  0  0  0  0  0  0  0  0  0  0
  -14.3790  -13.8122   12.3563 C   0  0  0  0  0  0  0  0  0  0  0  0
  -14.4351  -15.1810   12.5017 N   0  0  0  0  0  0  0  0  0  0  0  0
  -13.8813  -13.0450   13.3578 N   0  0  0  0  0  0  0  0  0  0  0  0
  -13.8693  -11.7093   13.1860 C   0  0  0  0  0  0  0  0  0  0  0  0
  -14.3349  -11.0083   12.1409 N   0  0  0  0  0  0  0  0  0  0  0  0
  -14.7948  -11.7916   11.1674 C   0  0  0  0  0  0  0  0  0  0  0  0
  -12.5926   -7.4129   11.1410 H   0  0  0  0  0  0  0  0  0  0  0  0
  -12.5820   -9.2040   11.2316 H   0  0  0  0  0  0  0  0  0  0  0  0
  -13.9862   -7.5709    9.0619 H   0  0  0  0  0  0  0  0  0  0  0  0
  -14.8538   -8.5849   11.7953 H   0  0  0  0  0  0  0  0  0  0  0  0
  -15.9738   -6.6912   10.0063 H   0  0  0  0  0  0  0  0  0  0  0  0
  -16.8529   -9.5565   10.9246 H   0  0  0  0  0  0  0  0  0  0  0  0
  -16.3305   -8.0185    8.5658 H   0  0  0  0  0  0  0  0  0  0  0  0
  -15.8950  -10.2578    8.3813 H   0  0  0  0  0  0  0  0  0  0  0  0
  -16.1832  -12.6113    8.3395 H   0  0  0  0  0  0  0  0  0  0  0  0
  -14.0015  -15.6005   13.3040 H   0  0  0  0  0  0  0  0  0  0  0  0
  -14.7383  -15.7217   11.7019 H   0  0  0  0  0  0  0  0  0  0  0  0
  -13.4428  -11.1266   14.0043 H   0  0  0  0  0  0  0  0  0  0  0  0
  1  2  2  0  0  0  0
  1  3  2  0  0  0  0
  1  4  1  0  0  0  0
  1  8  1  0  0  0  0
  5  6  2  6  0  0  0
  5  7  1  0  0  0  0
  5  8  1  0  0  0  0
  5  9  1  0  0  0  0
  9 10  1  0  0  0  0
 10 11  1  0  0  0  0
 10 28  1  0  0  0  0
 10 29  1  0  0  0  0
 11 12  1  0  0  0  0
 11 13  1  0  0  0  0
 11 30  1  6  0  0  0
 12 17  1  0  0  0  0
 13 14  1  0  0  0  0
 13 15  1  0  0  0  0
 13 31  1  1  0  0  0
 14 32  1  0  0  0  0
 15 16  1  0  0  0  0
 15 17  1  0  0  0  0
 15 33  1  1  0  0  0
 16 34  1  0  0  0  0
 17 18  1  0  0  0  0
 17 35  1  6  0  0  0
 18 19  2  0  0  0  0
 18 27  1  0  0  0  0
 19 20  1  0  0  0  0
 19 36  1  0  0  0  0
 20 21  1  0  0  0  0
 21 22  2  0  0  0  0
 21 27  1  0  0  0  0
 22 23  1  0  0  0  0
 22 24  1  0  0  0  0
 23 37  1  0  0  0  0
 23 38  1  0  0  0  0
 24 25  2  0  0  0  0
 25 26  1  0  0  0  0
 25 39  1  0  0  0  0
 26 27  2  0  0  0  0
M  CHG  1  18   1
M  END
$$$$
