AGI
 OpenBabel04111918313D

 29 31  0  0  0  0  0  0  0  0999 V2000
   21.3474   43.7711   40.3120 C   0  0  0  0  0  0  0  0  0  0  0  0
   21.3559   43.7663   41.6882 C   0  0  0  0  0  0  0  0  0  0  0  0
   21.5804   42.5650   42.3581 C   0  0  0  0  0  0  0  0  0  0  0  0
   21.5804   42.5290   43.7157 O   0  0  0  0  0  0  0  0  0  0  0  0
   21.7854   41.3585   41.6909 C   0  0  0  0  0  0  0  0  0  0  0  0
   21.7754   41.3567   40.3177 C   0  0  0  0  0  0  0  0  0  0  0  0
   21.5587   42.5649   39.6478 C   0  0  0  0  0  0  0  0  0  0  0  0
   21.4736   42.5344   38.2213 C   0  0  0  0  0  0  0  0  0  0  0  0
   22.4799   43.1575   37.5594 O   0  3  0  0  0  0  0  0  0  0  0  0
   20.4353   41.8898   37.7061 C   0  0  0  0  0  0  0  0  0  0  0  0
   20.3305   41.7504   36.2731 C   0  0  0  0  0  0  0  0  0  0  0  0
   19.3936   41.0852   35.8892 O   0  0  0  0  0  0  0  0  0  0  0  0
   21.3984   42.4337   35.4884 C   0  0  0  0  0  0  0  0  0  0  0  0
   22.4176   43.1095   36.1885 C   0  0  0  0  0  0  0  0  0  0  0  0
   23.4260   43.7793   35.5258 C   0  0  0  0  0  0  0  0  0  0  0  0
   23.3881   43.7600   34.1494 C   0  0  0  0  0  0  0  0  0  0  0  0
   24.3726   44.4306   33.4747 O   0  0  0  0  0  0  0  0  0  0  0  0
   22.3814   43.0952   33.4513 C   0  0  0  0  0  0  0  0  0  0  0  0
   21.3434   42.3958   34.0874 C   0  0  0  0  0  0  0  0  0  0  0  0
   20.4662   41.8121   33.3707 O   0  0  0  0  0  0  0  0  0  0  0  0
   21.1632   44.6819   39.7430 H   0  0  0  0  0  0  0  0  0  0  0  0
   21.2034   44.6937   42.2211 H   0  0  0  0  0  0  0  0  0  0  0  0
   20.7273   42.9194   43.9741 H   0  0  0  0  0  0  0  0  0  0  0  0
   21.9391   40.4323   42.2319 H   0  0  0  0  0  0  0  0  0  0  0  0
   21.9138   40.4338   39.7563 H   0  0  0  0  0  0  0  0  0  0  0  0
   19.6551   41.4070   38.2767 H   0  0  0  0  0  0  0  0  0  0  0  0
   24.2132   44.3060   36.0514 H   0  0  0  0  0  0  0  0  0  0  0  0
   24.1595   44.2946   32.5401 H   0  0  0  0  0  0  0  0  0  0  0  0
   22.3500   43.0925   32.3609 H   0  0  0  0  0  0  0  0  0  0  0  0
  1  2  2  0  0  0  0
  1  7  1  0  0  0  0
  1 21  1  0  0  0  0
  2  3  1  0  0  0  0
  2 22  1  0  0  0  0
  3  4  1  0  0  0  0
  3  5  2  0  0  0  0
  4 23  1  0  0  0  0
  5  6  1  0  0  0  0
  5 24  1  0  0  0  0
  6  7  2  0  0  0  0
  6 25  1  0  0  0  0
  7  8  1  0  0  0  0
  8  9  1  0  0  0  0
  8 10  2  0  0  0  0
  9 14  1  0  0  0  0
 10 11  1  0  0  0  0
 10 26  1  0  0  0  0
 11 12  2  0  0  0  0
 11 13  1  0  0  0  0
 13 14  2  0  0  0  0
 13 19  1  0  0  0  0
 14 15  1  0  0  0  0
 15 16  2  0  0  0  0
 15 27  1  0  0  0  0
 16 17  1  0  0  0  0
 16 18  1  0  0  0  0
 17 28  1  0  0  0  0
 18 19  2  0  0  0  0
 18 29  1  0  0  0  0
 19 20  1  0  0  0  0
M  CHG  1   9   1
M  END
$$$$
