AGR
 OpenBabel04111922553D

 66 68  0  0  1  0  0  0  0  0999 V2000
   33.0687   28.8853   35.9437 O   0  0  0  0  0  0  0  0  0  0  0  0
   32.5437   27.7741   36.6856 C   0  0  2  0  0  0  0  0  0  0  0  0
   33.4198   27.3497   37.8874 C   0  0  2  0  0  0  0  0  0  0  0  0
   34.4901   28.2775   38.1535 O   0  0  0  0  0  0  0  0  0  0  0  0
   33.9800   25.9313   37.7804 C   0  0  1  0  0  0  0  0  0  0  0  0
   34.6083   25.5556   39.0229 O   0  0  0  0  0  0  0  0  0  0  0  0
   32.9849   24.8955   37.2065 C   0  0  1  0  0  0  0  0  0  0  0  0
   32.4889   23.8082   38.1786 C   0  0  0  0  0  0  0  0  0  0  0  0
   31.3325   24.1872   38.9267 O   0  0  0  0  0  0  0  0  0  0  0  0
   31.8565   25.4595   36.5098 O   0  0  0  0  0  0  0  0  0  0  0  0
   32.1533   26.6141   35.7285 C   0  0  2  0  0  0  0  0  0  0  0  0
   33.1801   26.3718   34.7731 O   0  0  0  0  0  0  0  0  0  0  0  0
   32.8038   26.1954   33.3913 C   0  0  1  0  0  0  0  0  0  0  0  0
   32.4805   27.5416   32.6845 C   0  0  0  0  0  0  0  0  0  0  0  0
   33.2872   28.6449   33.0906 O   0  0  0  0  0  0  0  0  0  0  0  0
   33.9748   25.4960   32.6514 C   0  0  1  0  0  0  0  0  0  0  0  0
   35.2578   25.9386   33.0683 O   0  0  0  0  0  0  0  0  0  0  0  0
   31.6846   25.3126   33.2332 O   0  0  0  0  0  0  0  0  0  0  0  0
   32.1927   23.9911   32.9265 C   0  0  2  0  0  0  0  0  0  0  0  0
   31.6780   22.9884   33.9546 C   0  0  0  0  0  0  0  0  0  0  0  0
   30.2574   22.8362   33.8979 O   0  0  0  0  0  0  0  0  0  0  0  0
   33.7180   24.0318   32.9605 C   0  0  1  0  0  0  0  0  0  0  0  0
   34.2263   23.1701   31.9257 O   0  0  0  0  0  0  0  0  0  0  0  0
   36.2693   22.1024   30.9384 O   0  0  0  0  0  0  0  0  0  0  0  0
   35.4472   22.1723   32.1874 P   0  0  1  0  0  0  0  0  0  0  0  0
   36.0544   22.4816   33.5441 O   0  0  0  0  0  0  0  0  0  0  0  0
   34.6335   20.7896   32.3904 O   0  0  0  0  0  0  0  0  0  0  0  0
   34.3011   19.9553   31.2750 C   0  0  2  0  0  0  0  0  0  0  0  0
   32.7939   19.7052   31.3761 C   0  0  1  0  0  0  0  0  0  0  0  0
   32.0396   20.9139   31.1537 O   0  0  0  0  0  0  0  0  0  0  0  0
   32.3221   18.5719   30.4595 C   0  0  1  0  0  0  0  0  0  0  0  0
   32.4197   18.9413   29.0833 O   0  0  0  0  0  0  0  0  0  0  0  0
   33.1413   17.3160   30.7494 C   0  0  0  0  0  0  0  0  0  0  0  0
   34.5327   17.5567   30.5902 O   0  0  0  0  0  0  0  0  0  0  0  0
   35.0361   18.6002   31.4308 C   0  0  1  0  0  0  0  0  0  0  0  0
   36.4105   18.7253   31.1121 O   0  0  0  0  0  0  0  0  0  0  0  0
   32.3135   29.2940   35.4887 H   0  0  0  0  0  0  0  0  0  0  0  0
   31.6147   28.1322   37.1487 H   0  0  0  0  0  0  0  0  0  0  0  0
   32.8016   27.4006   38.7926 H   0  0  0  0  0  0  0  0  0  0  0  0
   35.1102   27.8268   38.7578 H   0  0  0  0  0  0  0  0  0  0  0  0
   34.8176   25.9739   37.0744 H   0  0  0  0  0  0  0  0  0  0  0  0
   33.9887   25.7154   39.7564 H   0  0  0  0  0  0  0  0  0  0  0  0
   33.5683   24.3391   36.4637 H   0  0  0  0  0  0  0  0  0  0  0  0
   33.2589   23.5201   38.8979 H   0  0  0  0  0  0  0  0  0  0  0  0
   32.2284   22.9160   37.5964 H   0  0  0  0  0  0  0  0  0  0  0  0
   31.0162   23.3664   39.3488 H   0  0  0  0  0  0  0  0  0  0  0  0
   31.2346   26.9265   35.2188 H   0  0  0  0  0  0  0  0  0  0  0  0
   31.4302   27.8219   32.8158 H   0  0  0  0  0  0  0  0  0  0  0  0
   32.6196   27.4401   31.5992 H   0  0  0  0  0  0  0  0  0  0  0  0
   33.3267   28.6356   34.0671 H   0  0  0  0  0  0  0  0  0  0  0  0
   33.9020   25.6367   31.5657 H   0  0  0  0  0  0  0  0  0  0  0  0
   35.2883   26.9016   32.9598 H   0  0  0  0  0  0  0  0  0  0  0  0
   31.8154   23.7311   31.9288 H   0  0  0  0  0  0  0  0  0  0  0  0
   31.9220   23.3312   34.9608 H   0  0  0  0  0  0  0  0  0  0  0  0
   32.1324   22.0085   33.7949 H   0  0  0  0  0  0  0  0  0  0  0  0
   30.0527   22.5729   32.9861 H   0  0  0  0  0  0  0  0  0  0  0  0
   34.1100   23.7695   33.9518 H   0  0  0  0  0  0  0  0  0  0  0  0
   34.5554   20.4366   30.3249 H   0  0  0  0  0  0  0  0  0  0  0  0
   32.5681   19.4149   32.4111 H   0  0  0  0  0  0  0  0  0  0  0  0
   31.1090   20.6531   31.0650 H   0  0  0  0  0  0  0  0  0  0  0  0
   31.2600   18.3771   30.6413 H   0  0  0  0  0  0  0  0  0  0  0  0
   32.2286   18.1595   28.5404 H   0  0  0  0  0  0  0  0  0  0  0  0
   32.8704   16.5257   30.0443 H   0  0  0  0  0  0  0  0  0  0  0  0
   32.9474   16.9402   31.7616 H   0  0  0  0  0  0  0  0  0  0  0  0
   34.9720   18.2669   32.4769 H   0  0  0  0  0  0  0  0  0  0  0  0
   36.8331   17.9093   31.4095 H   0  0  0  0  0  0  0  0  0  0  0  0
  1  2  1  0  0  0  0
  1 37  1  0  0  0  0
  2  3  1  0  0  0  0
  2 11  1  0  0  0  0
  2 38  1  1  0  0  0
  3  4  1  0  0  0  0
  3  5  1  0  0  0  0
  3 39  1  1  0  0  0
  4 40  1  0  0  0  0
  5  6  1  0  0  0  0
  5  7  1  0  0  0  0
  5 41  1  6  0  0  0
  6 42  1  0  0  0  0
  7  8  1  0  0  0  0
  7 10  1  0  0  0  0
  7 43  1  6  0  0  0
  8  9  1  0  0  0  0
  8 44  1  0  0  0  0
  8 45  1  0  0  0  0
  9 46  1  0  0  0  0
 10 11  1  0  0  0  0
 11 12  1  0  0  0  0
 11 47  1  6  0  0  0
 13 12  1  1  0  0  0
 13 14  1  0  0  0  0
 13 16  1  0  0  0  0
 13 18  1  0  0  0  0
 14 15  1  0  0  0  0
 14 48  1  0  0  0  0
 14 49  1  0  0  0  0
 15 50  1  0  0  0  0
 16 17  1  0  0  0  0
 16 22  1  0  0  0  0
 16 51  1  6  0  0  0
 17 52  1  0  0  0  0
 18 19  1  0  0  0  0
 19 20  1  0  0  0  0
 19 22  1  0  0  0  0
 19 53  1  6  0  0  0
 20 21  1  0  0  0  0
 20 54  1  0  0  0  0
 20 55  1  0  0  0  0
 21 56  1  0  0  0  0
 22 23  1  0  0  0  0
 22 57  1  1  0  0  0
 24 25  2  0  0  0  0
 25 23  1  6  0  0  0
 25 26  1  0  0  0  0
 25 27  1  0  0  0  0
 27 28  1  0  0  0  0
 28 29  1  0  0  0  0
 28 35  1  0  0  0  0
 28 58  1  6  0  0  0
 29 30  1  0  0  0  0
 29 31  1  0  0  0  0
 29 59  1  1  0  0  0
 30 60  1  0  0  0  0
 31 32  1  0  0  0  0
 31 33  1  0  0  0  0
 31 61  1  1  0  0  0
 32 62  1  0  0  0  0
 33 34  1  0  0  0  0
 33 63  1  0  0  0  0
 33 64  1  0  0  0  0
 34 35  1  0  0  0  0
 35 36  1  0  0  0  0
 35 65  1  1  0  0  0
 36 66  1  0  0  0  0
M  END
$$$$
