AGV
 OpenBabel04111919203D

 38 40  0  0  1  0  0  0  0  0999 V2000
    5.6476   22.0413   17.9686 O   0  0  0  0  0  0  0  0  0  0  0  0
    5.4742   20.6300   18.0471 C   0  0  0  0  0  0  0  0  0  0  0  0
    6.7069   19.9639   18.6797 C   0  0  2  0  0  0  0  0  0  0  0  0
    6.6941   18.4343   18.4741 C   0  0  1  0  0  0  0  0  0  0  0  0
    8.0240   18.0150   18.1596 O   0  0  0  0  0  0  0  0  0  0  0  0
    6.7777   20.1085   20.1931 N   0  3  2  0  0  0  0  0  0  0  0  0
    5.9334   18.9857   20.7413 C   0  0  0  0  0  0  0  0  0  0  0  0
    6.2116   17.8143   19.8019 C   0  0  2  0  0  0  0  0  0  0  0  0
    7.2163   16.9960   20.3981 O   0  0  0  0  0  0  0  0  0  0  0  0
    6.5888   21.4632   20.8280 C   0  0  0  0  0  0  0  0  0  0  0  0
    5.2229   21.7702   21.3363 C   0  0  0  0  0  0  0  0  0  0  0  0
    4.2532   22.5202   20.7045 C   0  0  0  0  0  0  0  0  0  0  0  0
    3.1215   22.5160   21.4755 N   0  3  0  0  0  0  0  0  0  0  0  0
    3.3381   21.7766   22.6075 C   0  0  0  0  0  0  0  0  0  0  0  0
    4.6510   21.3316   22.5663 C   0  0  0  0  0  0  0  0  0  0  0  0
    2.5131   21.4342   23.6644 C   0  0  0  0  0  0  0  0  0  0  0  0
    1.1930   21.7896   23.7412 N   0  0  0  0  0  0  0  0  0  0  0  0
    3.0453   20.6877   24.6441 N   0  0  0  0  0  0  0  0  0  0  0  0
    4.3313   20.3084   24.5369 C   0  0  0  0  0  0  0  0  0  0  0  0
    5.1902   20.5611   23.5355 N   0  0  0  0  0  0  0  0  0  0  0  0
    6.2941   22.2478   17.2673 H   0  0  0  0  0  0  0  0  0  0  0  0
    5.3102   20.2624   17.0289 H   0  0  0  0  0  0  0  0  0  0  0  0
    4.5638   20.4229   18.6175 H   0  0  0  0  0  0  0  0  0  0  0  0
    7.6234   20.4278   18.2924 H   0  0  0  0  0  0  0  0  0  0  0  0
    6.0467   18.1454   17.6400 H   0  0  0  0  0  0  0  0  0  0  0  0
    8.0221   17.0532   18.0023 H   0  0  0  0  0  0  0  0  0  0  0  0
    4.8820   19.2755   20.6778 H   0  0  0  0  0  0  0  0  0  0  0  0
    6.2466   18.7982   21.7721 H   0  0  0  0  0  0  0  0  0  0  0  0
    5.3028   17.2193   19.6680 H   0  0  0  0  0  0  0  0  0  0  0  0
    7.3275   16.1859   19.8701 H   0  0  0  0  0  0  0  0  0  0  0  0
    6.9176   22.2112   20.1009 H   0  0  0  0  0  0  0  0  0  0  0  0
    7.3074   21.5091   21.6565 H   0  0  0  0  0  0  0  0  0  0  0  0
    4.2580   23.0503   19.7580 H   0  0  0  0  0  0  0  0  0  0  0  0
    2.2522   22.9807   21.2480 H   0  0  0  0  0  0  0  0  0  0  0  0
    0.7195   21.5523   24.6027 H   0  0  0  0  0  0  0  0  0  0  0  0
    0.7453   22.4103   23.0890 H   0  0  0  0  0  0  0  0  0  0  0  0
    4.7116   19.7067   25.3651 H   0  0  0  0  0  0  0  0  0  0  0  0
    7.7454   19.8398   20.4290 H   0  0  0  0  0  0  0  0  0  0  0  0
  1  2  1  0  0  0  0
  1 21  1  0  0  0  0
  2  3  1  0  0  0  0
  2 22  1  0  0  0  0
  2 23  1  0  0  0  0
  3  4  1  0  0  0  0
  3  6  1  0  0  0  0
  3 24  1  6  0  0  0
  4  5  1  0  0  0  0
  4  8  1  0  0  0  0
  4 25  1  6  0  0  0
  5 26  1  0  0  0  0
  6  7  1  0  0  0  0
  6 10  1  0  0  0  0
  6 38  1  1  0  0  0
  7  8  1  0  0  0  0
  7 27  1  0  0  0  0
  7 28  1  0  0  0  0
  8  9  1  0  0  0  0
  8 29  1  6  0  0  0
  9 30  1  0  0  0  0
 10 11  1  0  0  0  0
 10 31  1  0  0  0  0
 10 32  1  0  0  0  0
 11 12  1  0  0  0  0
 11 15  2  0  0  0  0
 12 13  2  0  0  0  0
 12 33  1  0  0  0  0
 13 14  1  0  0  0  0
 13 34  1  0  0  0  0
 14 15  1  0  0  0  0
 14 16  2  0  0  0  0
 15 20  1  0  0  0  0
 16 17  1  0  0  0  0
 16 18  1  0  0  0  0
 17 35  1  0  0  0  0
 17 36  1  0  0  0  0
 18 19  1  0  0  0  0
 19 20  2  0  0  0  0
 19 37  1  0  0  0  0
M  CHG  2   6   1  13   1
M  END
$$$$
