AJ4
 OpenBabel04111919343D

 31 33  0  0  0  0  0  0  0  0999 V2000
    5.6290  -12.1628  -14.0903 C   0  0  0  0  0  0  0  0  0  0  0  0
    4.1828  -12.1710  -13.6647 C   0  0  0  0  0  0  0  0  0  0  0  0
    3.1802  -12.3457  -14.5641 C   0  0  0  0  0  0  0  0  0  0  0  0
    1.7566  -12.3518  -14.1422 C   0  0  0  0  0  0  0  0  0  0  0  0
    0.8706  -12.5235  -14.9611 O   0  0  0  0  0  0  0  0  0  0  0  0
    1.5070  -12.1652  -12.8064 N   0  3  0  0  0  0  0  0  0  0  0  0
    2.5102  -11.9860  -11.8504 C   0  0  0  0  0  0  0  0  0  0  0  0
    2.1444  -11.8057  -10.5246 C   0  0  0  0  0  0  0  0  0  0  0  0
    3.8568  -11.9776  -12.2315 C   0  0  0  0  0  0  0  0  0  0  0  0
    4.8326  -11.7748  -11.2399 C   0  0  0  0  0  0  0  0  0  0  0  0
    4.4710  -11.6092   -9.8990 C   0  0  0  0  0  0  0  0  0  0  0  0
    3.1151  -11.6324   -9.5400 C   0  0  0  0  0  0  0  0  0  0  0  0
    2.6836  -11.5021   -8.1562 C   0  0  0  0  0  0  0  0  0  0  0  0
    3.1410  -10.4011   -7.4040 C   0  0  0  0  0  0  0  0  0  0  0  0
    2.7361  -10.2238   -6.0929 C   0  0  0  0  0  0  0  0  0  0  0  0
    1.8914  -11.1683   -5.5006 C   0  0  0  0  0  0  0  0  0  0  0  0
    1.4404  -12.2735   -6.2361 C   0  0  0  0  0  0  0  0  0  0  0  0
    1.8173  -12.4417   -7.5597 C   0  0  0  0  0  0  0  0  0  0  0  0
    1.3485  -13.5195   -8.2228 F   0  0  0  0  0  0  0  0  0  0  0  0
    5.7028  -12.3164  -15.1751 H   0  0  0  0  0  0  0  0  0  0  0  0
    6.1973  -12.9644  -13.5969 H   0  0  0  0  0  0  0  0  0  0  0  0
    6.1102  -11.2030  -13.8529 H   0  0  0  0  0  0  0  0  0  0  0  0
    3.3795  -12.4901  -15.6148 H   0  0  0  0  0  0  0  0  0  0  0  0
    0.5387  -12.1655  -12.5205 H   0  0  0  0  0  0  0  0  0  0  0  0
    1.0961  -11.8111  -10.2362 H   0  0  0  0  0  0  0  0  0  0  0  0
    5.8852  -11.7421  -11.5076 H   0  0  0  0  0  0  0  0  0  0  0  0
    5.2372  -11.4827   -9.1334 H   0  0  0  0  0  0  0  0  0  0  0  0
    3.8144   -9.6681   -7.8502 H   0  0  0  0  0  0  0  0  0  0  0  0
    3.0896   -9.3780   -5.5165 H   0  0  0  0  0  0  0  0  0  0  0  0
    1.5807  -11.0335   -4.4662 H   0  0  0  0  0  0  0  0  0  0  0  0
    0.7987  -13.0033   -5.7623 H   0  0  0  0  0  0  0  0  0  0  0  0
  1  2  1  0  0  0  0
  1 20  1  0  0  0  0
  1 21  1  0  0  0  0
  1 22  1  0  0  0  0
  2  3  2  0  0  0  0
  2  9  1  0  0  0  0
  3  4  1  0  0  0  0
  3 23  1  0  0  0  0
  4  5  2  0  0  0  0
  4  6  1  0  0  0  0
  6  7  1  0  0  0  0
  6 24  1  0  0  0  0
  7  8  2  0  0  0  0
  7  9  1  0  0  0  0
  8 12  1  0  0  0  0
  8 25  1  0  0  0  0
  9 10  2  0  0  0  0
 10 11  1  0  0  0  0
 10 26  1  0  0  0  0
 11 12  2  0  0  0  0
 11 27  1  0  0  0  0
 12 13  1  0  0  0  0
 13 14  2  0  0  0  0
 13 18  1  0  0  0  0
 14 15  1  0  0  0  0
 14 28  1  0  0  0  0
 15 16  2  0  0  0  0
 15 29  1  0  0  0  0
 16 17  1  0  0  0  0
 16 30  1  0  0  0  0
 17 18  2  0  0  0  0
 17 31  1  0  0  0  0
 18 19  1  0  0  0  0
M  CHG  1   6   1
M  END
$$$$
