AJ5
 OpenBabel04111919363D

 45 47  0  0  0  0  0  0  0  0999 V2000
    2.6284  -10.3968   -1.6794 C   0  0  0  0  0  0  0  0  0  0  0  0
    2.4202  -11.6250   -3.8326 C   0  0  0  0  0  0  0  0  0  0  0  0
    2.5273  -11.5824   -5.3247 C   0  0  0  0  0  0  0  0  0  0  0  0
    3.3756  -10.6785   -7.4103 C   0  0  0  0  0  0  0  0  0  0  0  0
    4.4325  -11.8284  -10.0429 C   0  0  0  0  0  0  0  0  0  0  0  0
    3.8046  -12.1364  -12.3726 C   0  0  0  0  0  0  0  0  0  0  0  0
    5.5329  -12.4126  -14.2861 C   0  0  0  0  0  0  0  0  0  0  0  0
    2.1082  -11.9466  -10.6075 C   0  0  0  0  0  0  0  0  0  0  0  0
    6.2989  -10.3155   -1.0960 C   0  0  0  0  0  0  0  0  0  0  0  0
    4.9995  -10.7788   -1.4298 O   0  0  0  0  0  0  0  0  0  0  0  0
    3.9620   -9.8307   -1.1703 C   0  0  0  0  0  0  0  0  0  0  0  0
    2.5988  -10.4455   -3.1398 N   0  0  0  0  0  0  0  0  0  0  0  0
    2.1600  -12.6922   -3.2866 O   0  0  0  0  0  0  0  0  0  0  0  0
    3.2470  -10.6043   -6.0125 C   0  0  0  0  0  0  0  0  0  0  0  0
    2.7971  -11.7247   -8.1656 C   0  0  0  0  0  0  0  0  0  0  0  0
    3.0952  -11.8243   -9.6162 C   0  0  0  0  0  0  0  0  0  0  0  0
    4.7875  -11.9798  -11.3946 C   0  0  0  0  0  0  0  0  0  0  0  0
    4.1102  -12.3491  -13.8076 C   0  0  0  0  0  0  0  0  0  0  0  0
    3.0927  -12.5078  -14.6708 C   0  0  0  0  0  0  0  0  0  0  0  0
    1.6809  -12.4761  -14.2320 C   0  0  0  0  0  0  0  0  0  0  0  0
    0.7707  -12.6302  -15.0411 O   0  0  0  0  0  0  0  0  0  0  0  0
    1.4454  -12.2667  -12.9060 N   0  3  0  0  0  0  0  0  0  0  0  0
    2.4643  -12.1079  -11.9553 C   0  0  0  0  0  0  0  0  0  0  0  0
    2.0503  -12.6833   -7.4533 C   0  0  0  0  0  0  0  0  0  0  0  0
    1.2953  -14.0379   -8.2277 Cl  0  0  0  0  0  0  0  0  0  0  0  0
    1.9287  -12.6162   -6.0567 C   0  0  0  0  0  0  0  0  0  0  0  0
    1.7994   -9.7513   -1.3646 H   0  0  0  0  0  0  0  0  0  0  0  0
    2.4558  -11.3974   -1.2633 H   0  0  0  0  0  0  0  0  0  0  0  0
    3.9748   -9.9180   -7.9114 H   0  0  0  0  0  0  0  0  0  0  0  0
    5.2347  -11.7444   -9.3100 H   0  0  0  0  0  0  0  0  0  0  0  0
    5.5898  -12.5655  -15.3708 H   0  0  0  0  0  0  0  0  0  0  0  0
    6.0631  -13.2469  -13.8141 H   0  0  0  0  0  0  0  0  0  0  0  0
    6.0636  -11.4812  -14.0644 H   0  0  0  0  0  0  0  0  0  0  0  0
    1.0568  -11.9458  -10.3308 H   0  0  0  0  0  0  0  0  0  0  0  0
    7.0085  -11.1173   -1.3234 H   0  0  0  0  0  0  0  0  0  0  0  0
    6.3760  -10.0810   -0.0302 H   0  0  0  0  0  0  0  0  0  0  0  0
    6.5680   -9.4429   -1.6988 H   0  0  0  0  0  0  0  0  0  0  0  0
    3.9003   -9.6392   -0.0928 H   0  0  0  0  0  0  0  0  0  0  0  0
    4.1813   -8.8892   -1.6877 H   0  0  0  0  0  0  0  0  0  0  0  0
    2.7455   -9.5787   -3.6325 H   0  0  0  0  0  0  0  0  0  0  0  0
    3.7608   -9.8052   -5.4866 H   0  0  0  0  0  0  0  0  0  0  0  0
    5.8402  -11.9809  -11.6471 H   0  0  0  0  0  0  0  0  0  0  0  0
    3.2404  -12.6816  -15.7299 H   0  0  0  0  0  0  0  0  0  0  0  0
    0.4765  -12.2687  -12.6292 H   0  0  0  0  0  0  0  0  0  0  0  0
    1.3831  -13.3973   -5.5287 H   0  0  0  0  0  0  0  0  0  0  0  0
  1 11  1  0  0  0  0
  1 12  1  0  0  0  0
  1 27  1  0  0  0  0
  1 28  1  0  0  0  0
  2  3  1  0  0  0  0
  2 12  1  0  0  0  0
  2 13  2  0  0  0  0
  3 14  2  0  0  0  0
  3 26  1  0  0  0  0
  4 14  1  0  0  0  0
  4 15  2  0  0  0  0
  4 29  1  0  0  0  0
  5 16  2  0  0  0  0
  5 17  1  0  0  0  0
  5 30  1  0  0  0  0
  6 17  2  0  0  0  0
  6 18  1  0  0  0  0
  6 23  1  0  0  0  0
  7 18  1  0  0  0  0
  7 31  1  0  0  0  0
  7 32  1  0  0  0  0
  7 33  1  0  0  0  0
  8 16  1  0  0  0  0
  8 23  2  0  0  0  0
  8 34  1  0  0  0  0
  9 10  1  0  0  0  0
  9 35  1  0  0  0  0
  9 36  1  0  0  0  0
  9 37  1  0  0  0  0
 10 11  1  0  0  0  0
 11 38  1  0  0  0  0
 11 39  1  0  0  0  0
 12 40  1  0  0  0  0
 14 41  1  0  0  0  0
 15 16  1  0  0  0  0
 15 24  1  0  0  0  0
 17 42  1  0  0  0  0
 18 19  2  0  0  0  0
 19 20  1  0  0  0  0
 19 43  1  0  0  0  0
 20 21  2  0  0  0  0
 20 22  1  0  0  0  0
 22 23  1  0  0  0  0
 22 44  1  0  0  0  0
 24 25  1  0  0  0  0
 24 26  2  0  0  0  0
 26 45  1  0  0  0  0
M  CHG  1  22   1
M  END
$$$$
