AJ6
 OpenBabel04111919353D

 33 35  0  0  0  0  0  0  0  0999 V2000
  -12.4757    1.8323   14.2282 C   0  0  0  0  0  0  0  0  0  0  0  0
  -12.1014    2.5996   11.9536 C   0  0  0  0  0  0  0  0  0  0  0  0
  -11.7588    3.2130    9.6360 C   0  0  0  0  0  0  0  0  0  0  0  0
  -10.2514    3.1446    6.1773 C   0  0  0  0  0  0  0  0  0  0  0  0
  -12.4973    2.1033    7.4644 C   0  0  0  0  0  0  0  0  0  0  0  0
  -11.9042    4.9206   11.3905 C   0  0  0  0  0  0  0  0  0  0  0  0
  -12.0983    3.9468   12.3695 C   0  0  0  0  0  0  0  0  0  0  0  0
  -12.3209    5.6914   14.3050 C   0  0  0  0  0  0  0  0  0  0  0  0
  -12.2942    4.2711   13.8035 C   0  0  0  0  0  0  0  0  0  0  0  0
  -12.4610    3.2479   14.6612 C   0  0  0  0  0  0  0  0  0  0  0  0
  -12.6471    0.9283   15.0435 O   0  0  0  0  0  0  0  0  0  0  0  0
  -12.2900    1.5895   12.9035 N   0  3  0  0  0  0  0  0  0  0  0  0
  -11.9233    2.2329   10.6165 C   0  0  0  0  0  0  0  0  0  0  0  0
  -11.5872    2.8770    8.2099 C   0  0  0  0  0  0  0  0  0  0  0  0
  -10.4590    3.3869    7.5353 C   0  0  0  0  0  0  0  0  0  0  0  0
  -11.1646    2.3856    5.4510 C   0  0  0  0  0  0  0  0  0  0  0  0
  -10.9589    2.1508    4.1078 N   0  0  0  0  0  0  0  0  0  0  0  0
  -12.2820    1.8631    6.1018 C   0  0  0  0  0  0  0  0  0  0  0  0
  -13.9438    1.4376    8.1522 Cl  0  0  0  0  0  0  0  0  0  0  0  0
  -11.7342    4.5557   10.0487 C   0  0  0  0  0  0  0  0  0  0  0  0
   -9.3696    3.5568    5.6935 H   0  0  0  0  0  0  0  0  0  0  0  0
  -11.8853    5.9758   11.6448 H   0  0  0  0  0  0  0  0  0  0  0  0
  -12.4730    5.7355   15.3922 H   0  0  0  0  0  0  0  0  0  0  0  0
  -13.1430    6.2579   13.8543 H   0  0  0  0  0  0  0  0  0  0  0  0
  -11.3805    6.2148   14.1014 H   0  0  0  0  0  0  0  0  0  0  0  0
  -12.6067    3.4022   15.7245 H   0  0  0  0  0  0  0  0  0  0  0  0
  -12.3065    0.6189   12.6182 H   0  0  0  0  0  0  0  0  0  0  0  0
  -11.9184    1.1784   10.3352 H   0  0  0  0  0  0  0  0  0  0  0  0
   -9.7244    3.9860    8.0717 H   0  0  0  0  0  0  0  0  0  0  0  0
  -11.6258    1.6113    3.5724 H   0  0  0  0  0  0  0  0  0  0  0  0
  -10.1519    2.5333    3.6356 H   0  0  0  0  0  0  0  0  0  0  0  0
  -12.9991    1.2680    5.5413 H   0  0  0  0  0  0  0  0  0  0  0  0
  -11.5822    5.3442    9.3119 H   0  0  0  0  0  0  0  0  0  0  0  0
  1 10  1  0  0  0  0
  1 11  2  0  0  0  0
  1 12  1  0  0  0  0
  2  7  2  0  0  0  0
  2 12  1  0  0  0  0
  2 13  1  0  0  0  0
  3 13  2  0  0  0  0
  3 14  1  0  0  0  0
  3 20  1  0  0  0  0
  4 15  2  0  0  0  0
  4 16  1  0  0  0  0
  4 21  1  0  0  0  0
  5 14  2  0  0  0  0
  5 18  1  0  0  0  0
  5 19  1  0  0  0  0
  6  7  1  0  0  0  0
  6 20  2  0  0  0  0
  6 22  1  0  0  0  0
  7  9  1  0  0  0  0
  8  9  1  0  0  0  0
  8 23  1  0  0  0  0
  8 24  1  0  0  0  0
  8 25  1  0  0  0  0
  9 10  2  0  0  0  0
 10 26  1  0  0  0  0
 12 27  1  0  0  0  0
 13 28  1  0  0  0  0
 14 15  1  0  0  0  0
 15 29  1  0  0  0  0
 16 17  1  0  0  0  0
 16 18  2  0  0  0  0
 17 30  1  0  0  0  0
 17 31  1  0  0  0  0
 18 32  1  0  0  0  0
 20 33  1  0  0  0  0
M  CHG  1  12   1
M  END
$$$$
