AJ7
 OpenBabel04111919353D

 55 58  0  0  0  0  0  0  0  0999 V2000
    7.5846   10.3887  -14.2057 C   0  0  0  0  0  0  0  0  0  0  0  0
    6.7873   10.6783  -11.9256 C   0  0  0  0  0  0  0  0  0  0  0  0
    6.1467   10.9205   -9.5904 C   0  0  0  0  0  0  0  0  0  0  0  0
    5.1629   10.1266   -6.0285 C   0  0  0  0  0  0  0  0  0  0  0  0
    6.4485   10.1370   -3.8510 C   0  0  0  0  0  0  0  0  0  0  0  0
    3.6085   10.4547    1.0211 C   0  0  0  0  0  0  0  0  0  0  0  0
    3.7060   10.6214    2.5461 C   0  0  0  0  0  0  0  0  0  0  0  0
    6.0071   10.0144    2.1958 C   0  0  0  0  0  0  0  0  0  0  0  0
    7.5407   10.5039   -6.0558 C   0  0  0  0  0  0  0  0  0  0  0  0
    4.7387   13.0078  -14.2066 C   0  0  0  0  0  0  0  0  0  0  0  0
    5.7386   11.9823  -13.7639 C   0  0  0  0  0  0  0  0  0  0  0  0
    6.5846   11.3868  -14.6245 C   0  0  0  0  0  0  0  0  0  0  0  0
    8.3454    9.8708  -15.0166 O   0  0  0  0  0  0  0  0  0  0  0  0
    7.6249   10.0810  -12.8717 N   0  3  0  0  0  0  0  0  0  0  0  0
    6.9434   10.3246  -10.5829 C   0  0  0  0  0  0  0  0  0  0  0  0
    6.2939   10.6096   -8.1562 C   0  0  0  0  0  0  0  0  0  0  0  0
    5.1326   10.2996   -7.4177 C   0  0  0  0  0  0  0  0  0  0  0  0
    6.3688   10.2295   -5.3367 C   0  0  0  0  0  0  0  0  0  0  0  0
    7.4120   10.5954   -3.2456 O   0  0  0  0  0  0  0  0  0  0  0  0
    5.3826    9.5687   -3.1690 N   0  0  0  0  0  0  0  0  0  0  0  0
    5.3607    9.5751   -1.7098 C   0  0  0  0  0  0  0  0  0  0  0  0
    4.7664   10.8991   -1.1970 C   0  0  0  0  0  0  0  0  0  0  0  0
    4.7713   11.1138    0.3026 N   0  3  0  0  0  0  0  0  0  0  0  0
    5.0111   10.4753    3.1053 O   0  0  0  0  0  0  0  0  0  0  0  0
    6.1216   10.9506    0.9946 C   0  0  0  0  0  0  0  0  0  0  0  0
    7.5070   10.6940   -7.4460 C   0  0  0  0  0  0  0  0  0  0  0  0
    9.0105   11.0997   -8.2030 Cl  0  0  0  0  0  0  0  0  0  0  0  0
    5.1784   11.8481  -10.0096 C   0  0  0  0  0  0  0  0  0  0  0  0
    5.0206   12.1983  -11.3528 C   0  0  0  0  0  0  0  0  0  0  0  0
    5.8288   11.6230  -12.3323 C   0  0  0  0  0  0  0  0  0  0  0  0
    4.2177    9.9592   -5.5272 H   0  0  0  0  0  0  0  0  0  0  0  0
    2.6902   10.9259    0.6515 H   0  0  0  0  0  0  0  0  0  0  0  0
    3.6093    9.3968    0.7425 H   0  0  0  0  0  0  0  0  0  0  0  0
    3.0469    9.8922    3.0297 H   0  0  0  0  0  0  0  0  0  0  0  0
    3.3409   11.6118    2.8407 H   0  0  0  0  0  0  0  0  0  0  0  0
    5.7819    8.9875    1.8886 H   0  0  0  0  0  0  0  0  0  0  0  0
    6.9601    9.9969    2.7347 H   0  0  0  0  0  0  0  0  0  0  0  0
    8.4903   10.6039   -5.5296 H   0  0  0  0  0  0  0  0  0  0  0  0
    4.7706   13.1750  -15.2884 H   0  0  0  0  0  0  0  0  0  0  0  0
    4.9348   13.9707  -13.7237 H   0  0  0  0  0  0  0  0  0  0  0  0
    3.7208   12.6899  -13.9581 H   0  0  0  0  0  0  0  0  0  0  0  0
    6.5807   11.6156  -15.6843 H   0  0  0  0  0  0  0  0  0  0  0  0
    8.3348    9.4066  -12.6085 H   0  0  0  0  0  0  0  0  0  0  0  0
    7.7046    9.5994  -10.3093 H   0  0  0  0  0  0  0  0  0  0  0  0
    4.1715   10.2188   -7.9266 H   0  0  0  0  0  0  0  0  0  0  0  0
    4.5852    9.2023   -3.6732 H   0  0  0  0  0  0  0  0  0  0  0  0
    6.3838    9.4270   -1.3600 H   0  0  0  0  0  0  0  0  0  0  0  0
    4.7692    8.7126   -1.3826 H   0  0  0  0  0  0  0  0  0  0  0  0
    3.7231   10.9719   -1.5134 H   0  0  0  0  0  0  0  0  0  0  0  0
    5.2975   11.7575   -1.6246 H   0  0  0  0  0  0  0  0  0  0  0  0
    6.8668   10.6009    0.2790 H   0  0  0  0  0  0  0  0  0  0  0  0
    6.4028   11.9584    1.3201 H   0  0  0  0  0  0  0  0  0  0  0  0
    4.5423   12.3427   -9.2772 H   0  0  0  0  0  0  0  0  0  0  0  0
    4.2566   12.9261  -11.6067 H   0  0  0  0  0  0  0  0  0  0  0  0
    4.5808   12.1203    0.4076 H   0  0  0  0  0  0  0  0  0  0  0  0
  1 12  1  0  0  0  0
  1 13  2  0  0  0  0
  1 14  1  0  0  0  0
  2 14  1  0  0  0  0
  2 15  2  0  0  0  0
  2 30  1  0  0  0  0
  3 15  1  0  0  0  0
  3 16  1  0  0  0  0
  3 28  2  0  0  0  0
  4 17  2  0  0  0  0
  4 18  1  0  0  0  0
  4 31  1  0  0  0  0
  5 18  1  0  0  0  0
  5 19  2  0  0  0  0
  5 20  1  0  0  0  0
  6  7  1  0  0  0  0
  6 23  1  0  0  0  0
  6 32  1  0  0  0  0
  6 33  1  0  0  0  0
  7 24  1  0  0  0  0
  7 34  1  0  0  0  0
  7 35  1  0  0  0  0
  8 24  1  0  0  0  0
  8 25  1  0  0  0  0
  8 36  1  0  0  0  0
  8 37  1  0  0  0  0
  9 18  2  0  0  0  0
  9 26  1  0  0  0  0
  9 38  1  0  0  0  0
 10 11  1  0  0  0  0
 10 39  1  0  0  0  0
 10 40  1  0  0  0  0
 10 41  1  0  0  0  0
 11 12  2  0  0  0  0
 11 30  1  0  0  0  0
 12 42  1  0  0  0  0
 14 43  1  0  0  0  0
 15 44  1  0  0  0  0
 16 17  1  0  0  0  0
 16 26  2  0  0  0  0
 17 45  1  0  0  0  0
 20 21  1  0  0  0  0
 20 46  1  0  0  0  0
 21 22  1  0  0  0  0
 21 47  1  0  0  0  0
 21 48  1  0  0  0  0
 22 23  1  0  0  0  0
 22 49  1  0  0  0  0
 22 50  1  0  0  0  0
 23 25  1  0  0  0  0
 23 55  1  0  0  0  0
 25 51  1  0  0  0  0
 25 52  1  0  0  0  0
 26 27  1  0  0  0  0
 28 29  1  0  0  0  0
 28 53  1  0  0  0  0
 29 30  2  0  0  0  0
 29 54  1  0  0  0  0
M  CHG  2  14   1  23   1
M  END
$$$$
