AKG
 OpenBabel04111920523D

 14 13  0  0  0  0  0  0  0  0999 V2000
   17.6972    3.5775    2.5798 C   0  0  0  0  0  0  0  0  0  0  0  0
   18.1397    2.4401    2.9116 O   0  0  0  0  0  0  0  0  0  0  0  0
   18.3342    4.6784    2.6832 O   0  0  0  0  0  0  0  0  0  0  0  0
   16.2750    3.6620    1.9902 C   0  0  0  0  0  0  0  0  0  0  0  0
   15.8260    2.5868    1.5794 O   0  0  0  0  0  0  0  0  0  0  0  0
   15.4538    4.9229    1.9109 C   0  0  0  0  0  0  0  0  0  0  0  0
   13.9929    4.6445    2.3183 C   0  0  0  0  0  0  0  0  0  0  0  0
   13.1553    5.9181    2.5638 C   0  0  0  0  0  0  0  0  0  0  0  0
   13.6561    7.0142    2.1874 O   0  0  0  0  0  0  0  0  0  0  0  0
   12.0269    5.7469    3.1162 O   0  0  0  0  0  0  0  0  0  0  0  0
   15.4720    5.2949    0.8772 H   0  0  0  0  0  0  0  0  0  0  0  0
   15.8769    5.6818    2.5714 H   0  0  0  0  0  0  0  0  0  0  0  0
   13.9975    4.0325    3.2351 H   0  0  0  0  0  0  0  0  0  0  0  0
   13.5115    4.0433    1.5266 H   0  0  0  0  0  0  0  0  0  0  0  0
  1  2  2  0  0  0  0
  1  3  1  0  0  0  0
  1  4  1  0  0  0  0
  4  5  2  0  0  0  0
  4  6  1  0  0  0  0
  6  7  1  0  0  0  0
  6 11  1  0  0  0  0
  6 12  1  0  0  0  0
  7  8  1  0  0  0  0
  7 13  1  0  0  0  0
  7 14  1  0  0  0  0
  8  9  2  0  0  0  0
  8 10  1  0  0  0  0
M  END
$$$$
