AKH
 OpenBabel04111917423D

 17 18  0  0  0  0  0  0  0  0999 V2000
  -15.5037   20.3094  -10.7551 C   0  0  0  0  0  0  0  0  0  0  0  0
  -16.5372   20.0504  -11.6724 C   0  0  0  0  0  0  0  0  0  0  0  0
  -17.4627   20.8672  -12.3769 C   0  0  0  0  0  0  0  0  0  0  0  0
  -18.2348   20.0146  -13.1256 C   0  0  0  0  0  0  0  0  0  0  0  0
  -14.7729   19.2355  -10.2455 C   0  0  0  0  0  0  0  0  0  0  0  0
  -15.0671   17.9300  -10.6404 C   0  0  0  0  0  0  0  0  0  0  0  0
  -16.0991   17.6222  -11.5595 C   0  0  0  0  0  0  0  0  0  0  0  0
  -16.3759   16.1946  -11.9435 C   0  0  0  0  0  0  0  0  0  0  0  0
  -17.1025   15.9626  -12.9592 O   0  0  0  0  0  0  0  0  0  0  0  0
  -16.8063   18.7302  -12.0468 C   0  0  0  0  0  0  0  0  0  0  0  0
  -15.8287   15.3001  -11.2168 O   0  0  0  0  0  0  0  0  0  0  0  0
  -17.8522   18.7293  -12.9299 O   0  0  0  0  0  0  0  0  0  0  0  0
  -15.2781   21.3238  -10.4458 H   0  0  0  0  0  0  0  0  0  0  0  0
  -17.5494   21.9422  -12.3371 H   0  0  0  0  0  0  0  0  0  0  0  0
  -19.0560   20.1526  -13.8131 H   0  0  0  0  0  0  0  0  0  0  0  0
  -13.9709   19.4105   -9.5352 H   0  0  0  0  0  0  0  0  0  0  0  0
  -14.4838   17.1046  -10.2293 H   0  0  0  0  0  0  0  0  0  0  0  0
  1  2  2  0  0  0  0
  1  5  1  0  0  0  0
  1 13  1  0  0  0  0
  2  3  1  0  0  0  0
  2 10  1  0  0  0  0
  3  4  2  0  0  0  0
  3 14  1  0  0  0  0
  4 12  1  0  0  0  0
  4 15  1  0  0  0  0
  5  6  2  0  0  0  0
  5 16  1  0  0  0  0
  6  7  1  0  0  0  0
  6 17  1  0  0  0  0
  7  8  1  0  0  0  0
  7 10  2  0  0  0  0
  8  9  2  0  0  0  0
  8 11  1  0  0  0  0
 10 12  1  0  0  0  0
M  END
$$$$
