ALA
 OpenBabel04111922433D

 13 12  0  0  1  0  0  0  0  0999 V2000
   10.0111   61.4515   43.6504 N   0  3  0  0  0  0  0  0  0  0  0  0
    8.9133   60.4709   44.0058 C   0  0  2  0  0  0  0  0  0  0  0  0
    8.3204   60.7211   45.4227 C   0  0  0  0  0  0  0  0  0  0  0  0
    7.3311   60.0175   45.7381 O   0  0  0  0  0  0  0  0  0  0  0  0
    9.5038   59.0826   43.9077 C   0  0  0  0  0  0  0  0  0  0  0  0
    8.9518   61.6525   46.0081 O   0  0  0  0  0  0  0  0  0  0  0  0
   10.4144   61.2955   42.7312 H   0  0  0  0  0  0  0  0  0  0  0  0
    9.6131   62.3910   43.7553 H   0  0  0  0  0  0  0  0  0  0  0  0
    8.1340   60.6054   43.2472 H   0  0  0  0  0  0  0  0  0  0  0  0
    8.7415   58.3268   44.1187 H   0  0  0  0  0  0  0  0  0  0  0  0
   10.3230   58.9500   44.6240 H   0  0  0  0  0  0  0  0  0  0  0  0
    9.8948   58.8956   42.9028 H   0  0  0  0  0  0  0  0  0  0  0  0
   10.7070   61.4005   44.4056 H   0  0  0  0  0  0  0  0  0  0  0  0
  1  2  1  0  0  0  0
  1  7  1  0  0  0  0
  1  8  1  0  0  0  0
  1 13  1  0  0  0  0
  2  3  1  0  0  0  0
  2  5  1  0  0  0  0
  2  9  1  6  0  0  0
  3  4  2  0  0  0  0
  3  6  1  0  0  0  0
  5 10  1  0  0  0  0
  5 11  1  0  0  0  0
  5 12  1  0  0  0  0
M  CHG  1   1   1
M  END
$$$$
