ANP
 OpenBabel04111918543D

 44 46  0  0  1  0  0  0  0  0999 V2000
   -1.1628    6.8969    8.5947 P   0  0  0  0  0  0  0  0  0  0  0  0
   -1.1561    6.8079   10.0817 O   0  0  0  0  0  0  0  0  0  0  0  0
   -1.3856    8.2719    7.9716 O   0  0  0  0  0  0  0  0  0  0  0  0
   -2.1847    5.8871    8.0266 O   0  0  0  0  0  0  0  0  0  0  0  0
    1.8065    7.0439    8.5144 P   0  0  1  0  0  0  0  0  0  0  0  0
    2.6632    7.3409    7.2893 O   0  0  0  0  0  0  0  0  0  0  0  0
    1.5590    8.2722    9.3716 O   0  0  0  0  0  0  0  0  0  0  0  0
    0.3492    6.2941    7.9538 N   0  0  0  0  0  0  0  0  0  0  0  0
    2.4488    5.4996   10.8827 P   0  0  1  0  0  0  0  0  0  0  0  0
    3.7962    5.4812   11.6248 O   0  0  0  0  0  0  0  0  0  0  0  0
    1.3415    6.1195   11.6558 O   0  0  0  0  0  0  0  0  0  0  0  0
    2.5948    5.9146    9.3469 O   0  0  0  0  0  0  0  0  0  0  0  0
    2.0557    3.8653   10.7503 O   0  0  0  0  0  0  0  0  0  0  0  0
    0.7003    3.5131   10.4494 C   0  0  0  0  0  0  0  0  0  0  0  0
    0.1826    2.4554   11.4613 C   0  0  1  0  0  0  0  0  0  0  0  0
    1.0773    1.2863   11.5232 O   0  0  0  0  0  0  0  0  0  0  0  0
    0.1063    2.9879   12.8856 C   0  0  1  0  0  0  0  0  0  0  0  0
   -1.0801    3.6972   13.2044 O   0  0  0  0  0  0  0  0  0  0  0  0
    0.1823    1.7038   13.7112 C   0  0  1  0  0  0  0  0  0  0  0  0
   -1.1147    1.0398   13.7819 O   0  0  0  0  0  0  0  0  0  0  0  0
    1.1548    0.8399   12.9044 C   0  0  2  0  0  0  0  0  0  0  0  0
    2.5257    0.8708   13.4177 N   0  3  0  0  0  0  0  0  0  0  0  0
    3.5611    1.6877   13.0241 C   0  0  0  0  0  0  0  0  0  0  0  0
    4.6788    1.5023   13.7239 N   0  0  0  0  0  0  0  0  0  0  0  0
    4.3244    0.5408   14.6818 C   0  0  0  0  0  0  0  0  0  0  0  0
    5.0752   -0.0526   15.7595 C   0  0  0  0  0  0  0  0  0  0  0  0
    6.3645    0.2341   16.0816 N   0  0  0  0  0  0  0  0  0  0  0  0
    4.4276   -0.9908   16.5233 N   0  0  0  0  0  0  0  0  0  0  0  0
    3.1405   -1.2640   16.2362 C   0  0  0  0  0  0  0  0  0  0  0  0
    2.3435   -0.7804   15.2604 N   0  0  0  0  0  0  0  0  0  0  0  0
    3.0296    0.1376   14.5067 C   0  0  0  0  0  0  0  0  0  0  0  0
    0.3043    5.5792    7.2722 H   0  0  0  0  0  0  0  0  0  0  0  0
    0.6696    3.0457    9.4487 H   0  0  0  0  0  0  0  0  0  0  0  0
    0.0287    4.3646   10.4619 H   0  0  0  0  0  0  0  0  0  0  0  0
   -0.8143    2.1001   11.1432 H   0  0  0  0  0  0  0  0  0  0  0  0
    0.9708    3.6214   13.1104 H   0  0  0  0  0  0  0  0  0  0  0  0
   -1.8535    3.1723   12.9452 H   0  0  0  0  0  0  0  0  0  0  0  0
    0.5223    1.8591   14.7392 H   0  0  0  0  0  0  0  0  0  0  0  0
   -1.7332    1.6789   14.1883 H   0  0  0  0  0  0  0  0  0  0  0  0
    0.8423   -0.2167   12.8981 H   0  0  0  0  0  0  0  0  0  0  0  0
    3.4749    2.4191   12.2162 H   0  0  0  0  0  0  0  0  0  0  0  0
    6.7871   -0.2241   16.8516 H   0  0  0  0  0  0  0  0  0  0  0  0
    6.8460    0.9470   15.5405 H   0  0  0  0  0  0  0  0  0  0  0  0
    2.6610   -1.9927   16.9140 H   0  0  0  0  0  0  0  0  0  0  0  0
  1  2  2  0  0  0  0
  1  3  1  0  0  0  0
  1  4  1  0  0  0  0
  1  8  1  0  0  0  0
  5  6  2  6  0  0  0
  5  7  1  0  0  0  0
  5  8  1  0  0  0  0
  5 12  1  0  0  0  0
  8 32  1  0  0  0  0
  9 10  2  1  0  0  0
  9 11  1  0  0  0  0
  9 12  1  0  0  0  0
  9 13  1  0  0  0  0
 13 14  1  0  0  0  0
 14 15  1  0  0  0  0
 14 33  1  0  0  0  0
 14 34  1  0  0  0  0
 15 16  1  0  0  0  0
 15 17  1  0  0  0  0
 15 35  1  6  0  0  0
 16 21  1  0  0  0  0
 17 18  1  0  0  0  0
 17 19  1  0  0  0  0
 17 36  1  1  0  0  0
 18 37  1  0  0  0  0
 19 20  1  0  0  0  0
 19 21  1  0  0  0  0
 19 38  1  1  0  0  0
 20 39  1  0  0  0  0
 21 22  1  0  0  0  0
 21 40  1  1  0  0  0
 22 23  2  0  0  0  0
 22 31  1  0  0  0  0
 23 24  1  0  0  0  0
 23 41  1  0  0  0  0
 24 25  1  0  0  0  0
 25 26  2  0  0  0  0
 25 31  1  0  0  0  0
 26 27  1  0  0  0  0
 26 28  1  0  0  0  0
 27 42  1  0  0  0  0
 27 43  1  0  0  0  0
 28 29  2  0  0  0  0
 29 30  1  0  0  0  0
 29 44  1  0  0  0  0
 30 31  2  0  0  0  0
M  CHG  1  22   1
M  END
$$$$
