AP5
 OpenBabel04111922283D

 81 86  0  0  1  0  0  0  0  0999 V2000
  -18.7715   13.6791  -33.4667 P   0  0  1  0  0  0  0  0  0  0  0  0
  -17.4187   13.3118  -32.8768 O   0  0  0  0  0  0  0  0  0  0  0  0
  -19.8451   14.2640  -32.5698 O   0  0  0  0  0  0  0  0  0  0  0  0
  -18.7780   14.1953  -34.9802 O   0  0  0  0  0  0  0  0  0  0  0  0
  -18.1580   15.5260  -35.6679 P   0  0  2  0  0  0  0  0  0  0  0  0
  -17.4925   15.0161  -36.9492 O   0  0  0  0  0  0  0  0  0  0  0  0
  -17.3043   16.2221  -34.6321 O   0  0  0  0  0  0  0  0  0  0  0  0
  -19.5201   16.3081  -36.0651 O   0  0  0  0  0  0  0  0  0  0  0  0
  -19.7382   17.9167  -36.1429 P   0  0  2  0  0  0  0  0  0  0  0  0
  -18.5115   18.5255  -36.7914 O   0  0  0  0  0  0  0  0  0  0  0  0
  -20.2536   18.3676  -34.7928 O   0  0  0  0  0  0  0  0  0  0  0  0
  -20.9471   18.0128  -37.2203 O   0  0  0  0  0  0  0  0  0  0  0  0
  -22.2486   18.9635  -37.3125 P   0  0  2  0  0  0  0  0  0  0  0  0
  -23.4671   18.1658  -36.8472 O   0  0  0  0  0  0  0  0  0  0  0  0
  -22.4262   19.5151  -38.7291 O   0  0  0  0  0  0  0  0  0  0  0  0
  -22.0296   20.1692  -36.2837 O   0  0  0  0  0  0  0  0  0  0  0  0
  -21.2293   21.5423  -36.2281 P   0  0  2  0  0  0  0  0  0  0  0  0
  -19.9306   21.6088  -36.9998 O   0  0  0  0  0  0  0  0  0  0  0  0
  -21.3058   22.1846  -34.8435 O   0  0  0  0  0  0  0  0  0  0  0  0
  -19.3679   12.1696  -33.7564 O   0  0  0  0  0  0  0  0  0  0  0  0
  -20.7222   12.0744  -34.1410 C   0  0  0  0  0  0  0  0  0  0  0  0
  -21.4370   11.0675  -33.2344 C   0  0  1  0  0  0  0  0  0  0  0  0
  -20.9266    9.7296  -33.5063 O   0  0  0  0  0  0  0  0  0  0  0  0
  -21.2572   11.3152  -31.7360 C   0  0  1  0  0  0  0  0  0  0  0  0
  -22.4362   10.8774  -31.0185 O   0  0  0  0  0  0  0  0  0  0  0  0
  -20.0843   10.4286  -31.3444 C   0  0  1  0  0  0  0  0  0  0  0  0
  -20.1990    9.9483  -29.9869 O   0  0  0  0  0  0  0  0  0  0  0  0
  -20.1609    9.2965  -32.3704 C   0  0  2  0  0  0  0  0  0  0  0  0
  -18.8774    8.7813  -32.8285 N   0  3  0  0  0  0  0  0  0  0  0  0
  -17.6942    9.4553  -32.9933 C   0  0  0  0  0  0  0  0  0  0  0  0
  -16.7007    8.6453  -33.3154 N   0  0  0  0  0  0  0  0  0  0  0  0
  -17.2728    7.4170  -33.4416 C   0  0  0  0  0  0  0  0  0  0  0  0
  -16.7422    6.1547  -33.8029 C   0  0  0  0  0  0  0  0  0  0  0  0
  -15.3841    5.9511  -34.0928 N   0  0  0  0  0  0  0  0  0  0  0  0
  -17.5748    5.0939  -33.8639 N   0  0  0  0  0  0  0  0  0  0  0  0
  -18.8670    5.2928  -33.5445 C   0  0  0  0  0  0  0  0  0  0  0  0
  -19.4857    6.4204  -33.1514 N   0  0  0  0  0  0  0  0  0  0  0  0
  -18.6287    7.4566  -33.1385 C   0  0  0  0  0  0  0  0  0  0  0  0
  -22.2056   22.5007  -37.1297 O   0  0  0  0  0  0  0  0  0  0  0  0
  -23.4374   22.9069  -36.5848 C   0  0  0  0  0  0  0  0  0  0  0  0
  -23.8118   24.2546  -37.2132 C   0  0  1  0  0  0  0  0  0  0  0  0
  -22.9553   25.3321  -36.7315 O   0  0  0  0  0  0  0  0  0  0  0  0
  -23.6868   24.2720  -38.7380 C   0  0  1  0  0  0  0  0  0  0  0  0
  -24.8706   23.9001  -39.4564 O   0  0  0  0  0  0  0  0  0  0  0  0
  -23.4207   25.7311  -39.0449 C   0  0  1  0  0  0  0  0  0  0  0  0
  -24.6655   26.4614  -39.1697 O   0  0  0  0  0  0  0  0  0  0  0  0
  -22.6215   26.1970  -37.8400 C   0  0  2  0  0  0  0  0  0  0  0  0
  -21.1850   26.2386  -38.0781 N   0  3  0  0  0  0  0  0  0  0  0  0
  -20.1916   25.6300  -37.3682 C   0  0  0  0  0  0  0  0  0  0  0  0
  -18.9837   26.0018  -37.7988 N   0  0  0  0  0  0  0  0  0  0  0  0
  -19.2254   26.7821  -38.9018 C   0  0  0  0  0  0  0  0  0  0  0  0
  -18.3702   27.4165  -39.8248 C   0  0  0  0  0  0  0  0  0  0  0  0
  -16.9754   27.3774  -39.7623 N   0  0  0  0  0  0  0  0  0  0  0  0
  -18.9186   28.1236  -40.8425 N   0  0  0  0  0  0  0  0  0  0  0  0
  -20.2647   28.2207  -40.8878 C   0  0  0  0  0  0  0  0  0  0  0  0
  -21.1786   27.7066  -40.0415 N   0  0  0  0  0  0  0  0  0  0  0  0
  -20.5882   26.9720  -39.0806 C   0  0  0  0  0  0  0  0  0  0  0  0
  -20.7356   11.7235  -35.1758 H   0  0  0  0  0  0  0  0  0  0  0  0
  -21.2376   13.0394  -34.1014 H   0  0  0  0  0  0  0  0  0  0  0  0
  -22.5003   11.0510  -33.5018 H   0  0  0  0  0  0  0  0  0  0  0  0
  -21.1006   12.3633  -31.4722 H   0  0  0  0  0  0  0  0  0  0  0  0
  -22.2300   11.0671  -30.0879 H   0  0  0  0  0  0  0  0  0  0  0  0
  -19.1495   10.9825  -31.4019 H   0  0  0  0  0  0  0  0  0  0  0  0
  -19.9565   10.7097  -29.4349 H   0  0  0  0  0  0  0  0  0  0  0  0
  -20.6974    8.4460  -31.9330 H   0  0  0  0  0  0  0  0  0  0  0  0
  -17.6058   10.5293  -32.8548 H   0  0  0  0  0  0  0  0  0  0  0  0
  -15.2633    5.1529  -34.6912 H   0  0  0  0  0  0  0  0  0  0  0  0
  -14.9351    6.8244  -34.3633 H   0  0  0  0  0  0  0  0  0  0  0  0
  -19.5067    4.4162  -33.5980 H   0  0  0  0  0  0  0  0  0  0  0  0
  -23.3853   23.0148  -35.4981 H   0  0  0  0  0  0  0  0  0  0  0  0
  -24.1834   22.1442  -36.8262 H   0  0  0  0  0  0  0  0  0  0  0  0
  -24.8336   24.5024  -36.8996 H   0  0  0  0  0  0  0  0  0  0  0  0
  -22.8387   23.6683  -39.0801 H   0  0  0  0  0  0  0  0  0  0  0  0
  -24.5350   23.4035  -40.2287 H   0  0  0  0  0  0  0  0  0  0  0  0
  -22.9225   25.8392  -40.0104 H   0  0  0  0  0  0  0  0  0  0  0  0
  -25.2618   25.8103  -39.5955 H   0  0  0  0  0  0  0  0  0  0  0  0
  -22.9065   27.2151  -37.5399 H   0  0  0  0  0  0  0  0  0  0  0  0
  -20.3845   24.9326  -36.5539 H   0  0  0  0  0  0  0  0  0  0  0  0
  -16.5730   27.5394  -40.6751 H   0  0  0  0  0  0  0  0  0  0  0  0
  -16.6543   26.5491  -39.2616 H   0  0  0  0  0  0  0  0  0  0  0  0
  -20.6633   28.7928  -41.7170 H   0  0  0  0  0  0  0  0  0  0  0  0
  1  2  2  1  0  0  0
  1  3  1  0  0  0  0
  1  4  1  0  0  0  0
  1 20  1  0  0  0  0
  5  4  1  1  0  0  0
  5  6  2  0  0  0  0
  5  7  1  0  0  0  0
  5  8  1  0  0  0  0
  9  8  1  1  0  0  0
  9 10  2  0  0  0  0
  9 11  1  0  0  0  0
  9 12  1  0  0  0  0
 13 12  1  1  0  0  0
 13 14  2  0  0  0  0
 13 15  1  0  0  0  0
 13 16  1  0  0  0  0
 17 16  1  1  0  0  0
 17 18  2  0  0  0  0
 17 19  1  0  0  0  0
 17 39  1  0  0  0  0
 20 21  1  0  0  0  0
 21 22  1  0  0  0  0
 21 58  1  0  0  0  0
 21 59  1  0  0  0  0
 22 23  1  0  0  0  0
 22 24  1  0  0  0  0
 22 60  1  6  0  0  0
 23 28  1  0  0  0  0
 24 25  1  0  0  0  0
 24 26  1  0  0  0  0
 24 61  1  1  0  0  0
 25 62  1  0  0  0  0
 26 27  1  0  0  0  0
 26 28  1  0  0  0  0
 26 63  1  6  0  0  0
 27 64  1  0  0  0  0
 28 29  1  0  0  0  0
 28 65  1  1  0  0  0
 29 30  2  0  0  0  0
 29 38  1  0  0  0  0
 30 31  1  0  0  0  0
 30 66  1  0  0  0  0
 31 32  1  0  0  0  0
 32 33  2  0  0  0  0
 32 38  1  0  0  0  0
 33 34  1  0  0  0  0
 33 35  1  0  0  0  0
 34 67  1  0  0  0  0
 34 68  1  0  0  0  0
 35 36  2  0  0  0  0
 36 37  1  0  0  0  0
 36 69  1  0  0  0  0
 37 38  2  0  0  0  0
 39 40  1  0  0  0  0
 40 41  1  0  0  0  0
 40 70  1  0  0  0  0
 40 71  1  0  0  0  0
 41 42  1  0  0  0  0
 41 43  1  0  0  0  0
 41 72  1  1  0  0  0
 42 47  1  0  0  0  0
 43 44  1  0  0  0  0
 43 45  1  0  0  0  0
 43 73  1  6  0  0  0
 44 74  1  0  0  0  0
 45 46  1  0  0  0  0
 45 47  1  0  0  0  0
 45 75  1  6  0  0  0
 46 76  1  0  0  0  0
 47 48  1  0  0  0  0
 47 77  1  1  0  0  0
 48 49  2  0  0  0  0
 48 57  1  0  0  0  0
 49 50  1  0  0  0  0
 49 78  1  0  0  0  0
 50 51  1  0  0  0  0
 51 52  2  0  0  0  0
 51 57  1  0  0  0  0
 52 53  1  0  0  0  0
 52 54  1  0  0  0  0
 53 79  1  0  0  0  0
 53 80  1  0  0  0  0
 54 55  2  0  0  0  0
 55 56  1  0  0  0  0
 55 81  1  0  0  0  0
 56 57  2  0  0  0  0
M  CHG  2  29   1  48   1
M  END
$$$$
