ARG
 OpenBabel04111923013D

 27 26  0  0  1  0  0  0  0  0999 V2000
    3.1767  -24.2603   12.8798 N   0  3  0  0  0  0  0  0  0  0  0  0
    3.7055  -23.5777   11.6388 C   0  0  2  0  0  0  0  0  0  0  0  0
    5.0414  -22.8397   11.9307 C   0  0  0  0  0  0  0  0  0  0  0  0
    5.6485  -22.3672   10.9488 O   0  0  0  0  0  0  0  0  0  0  0  0
    2.7054  -22.5297   11.1426 C   0  0  0  0  0  0  0  0  0  0  0  0
    2.3135  -21.4793   12.1913 C   0  0  0  0  0  0  0  0  0  0  0  0
    1.5883  -20.3010   11.5526 C   0  0  0  0  0  0  0  0  0  0  0  0
    0.9393  -19.4748   12.5796 N   0  0  0  0  0  0  0  0  0  0  0  0
    0.1651  -18.4146   12.2984 C   0  0  0  0  0  0  0  0  0  0  0  0
   -0.4168  -17.7458   13.2974 N   0  0  0  0  0  0  0  0  0  0  0  0
   -0.0483  -18.0167   11.0434 N   0  0  0  0  0  0  0  0  0  0  0  0
    5.2504  -22.7971   13.1863 O   0  0  0  0  0  0  0  0  0  0  0  0
    2.2820  -24.7419   12.7972 H   0  0  0  0  0  0  0  0  0  0  0  0
    3.9191  -24.9064   13.1871 H   0  0  0  0  0  0  0  0  0  0  0  0
    3.8580  -24.3679   10.8962 H   0  0  0  0  0  0  0  0  0  0  0  0
    1.7954  -23.0339   10.7931 H   0  0  0  0  0  0  0  0  0  0  0  0
    3.1260  -22.0196   10.2661 H   0  0  0  0  0  0  0  0  0  0  0  0
    3.1903  -21.0909   12.7209 H   0  0  0  0  0  0  0  0  0  0  0  0
    1.6691  -21.9397   12.9494 H   0  0  0  0  0  0  0  0  0  0  0  0
    0.8147  -20.6663   10.8706 H   0  0  0  0  0  0  0  0  0  0  0  0
    2.3054  -19.6764   11.0089 H   0  0  0  0  0  0  0  0  0  0  0  0
    1.0851  -19.6977   13.5561 H   0  0  0  0  0  0  0  0  0  0  0  0
   -1.0127  -16.9464   13.1159 H   0  0  0  0  0  0  0  0  0  0  0  0
    0.4054  -18.4720   10.2620 H   0  0  0  0  0  0  0  0  0  0  0  0
   -0.6306  -17.2180   10.8295 H   0  0  0  0  0  0  0  0  0  0  0  0
    3.2120  -23.5583   13.6348 H   0  0  0  0  0  0  0  0  0  0  0  0
   -0.2733  -17.9995   14.2668 H   0  0  0  0  0  0  0  0  0  0  0  0
  1  2  1  0  0  0  0
  1 13  1  0  0  0  0
  1 14  1  0  0  0  0
  1 26  1  0  0  0  0
  2  3  1  0  0  0  0
  2  5  1  0  0  0  0
  2 15  1  6  0  0  0
  3  4  2  0  0  0  0
  3 12  1  0  0  0  0
  5  6  1  0  0  0  0
  5 16  1  0  0  0  0
  5 17  1  0  0  0  0
  6  7  1  0  0  0  0
  6 18  1  0  0  0  0
  6 19  1  0  0  0  0
  7  8  1  0  0  0  0
  7 20  1  0  0  0  0
  7 21  1  0  0  0  0
  8  9  1  0  0  0  0
  8 22  1  0  0  0  0
  9 10  2  0  0  0  0
  9 11  1  0  0  0  0
 10 23  1  0  0  0  0
 10 27  1  0  0  0  0
 11 24  1  0  0  0  0
 11 25  1  0  0  0  0
M  CHG  1   1   1
M  END
$$$$
