ARG
 OpenBabel04111922453D

 27 26  0  0  1  0  0  0  0  0999 V2000
   -3.2595   -8.1922  -18.0270 N   0  3  0  0  0  0  0  0  0  0  0  0
   -3.2386   -9.6534  -18.4217 C   0  0  2  0  0  0  0  0  0  0  0  0
   -3.6530   -9.8540  -19.9061 C   0  0  0  0  0  0  0  0  0  0  0  0
   -4.0568   -8.7498  -20.3947 O   0  0  0  0  0  0  0  0  0  0  0  0
   -4.2041  -10.4391  -17.5302 C   0  0  0  0  0  0  0  0  0  0  0  0
   -5.6433   -9.9088  -17.5372 C   0  0  0  0  0  0  0  0  0  0  0  0
   -6.5977  -10.8874  -16.8643 C   0  0  0  0  0  0  0  0  0  0  0  0
   -7.8920  -10.2448  -16.6004 N   0  0  0  0  0  0  0  0  0  0  0  0
   -8.9257  -10.8642  -16.0123 C   0  0  0  0  0  0  0  0  0  0  0  0
   -8.8536  -12.1388  -15.6243 N   0  0  0  0  0  0  0  0  0  0  0  0
  -10.0578  -10.1888  -15.7974 N   0  0  0  0  0  0  0  0  0  0  0  0
   -3.5990  -11.0155  -20.3556 O   0  0  0  0  0  0  0  0  0  0  0  0
   -3.0310   -7.9809  -17.0573 H   0  0  0  0  0  0  0  0  0  0  0  0
   -2.6182   -7.7130  -18.6766 H   0  0  0  0  0  0  0  0  0  0  0  0
   -2.2069   -9.9894  -18.2747 H   0  0  0  0  0  0  0  0  0  0  0  0
   -3.8313  -10.4247  -16.4975 H   0  0  0  0  0  0  0  0  0  0  0  0
   -4.2066  -11.4921  -17.8400 H   0  0  0  0  0  0  0  0  0  0  0  0
   -5.9977   -9.7265  -18.5579 H   0  0  0  0  0  0  0  0  0  0  0  0
   -5.6846   -8.9459  -17.0151 H   0  0  0  0  0  0  0  0  0  0  0  0
   -6.1814  -11.2166  -15.9048 H   0  0  0  0  0  0  0  0  0  0  0  0
   -6.7631  -11.7505  -17.5178 H   0  0  0  0  0  0  0  0  0  0  0  0
   -8.0351   -9.2879  -16.8984 H   0  0  0  0  0  0  0  0  0  0  0  0
   -9.6336  -12.6099  -15.1900 H   0  0  0  0  0  0  0  0  0  0  0  0
  -10.1672   -9.2219  -16.0766 H   0  0  0  0  0  0  0  0  0  0  0  0
  -10.8576  -10.6288  -15.3610 H   0  0  0  0  0  0  0  0  0  0  0  0
   -4.1672   -7.8140  -18.3375 H   0  0  0  0  0  0  0  0  0  0  0  0
   -8.0225  -12.6937  -15.7910 H   0  0  0  0  0  0  0  0  0  0  0  0
  1  2  1  0  0  0  0
  1 13  1  0  0  0  0
  1 14  1  0  0  0  0
  1 26  1  0  0  0  0
  2  3  1  0  0  0  0
  2  5  1  0  0  0  0
  2 15  1  1  0  0  0
  3  4  2  0  0  0  0
  3 12  1  0  0  0  0
  5  6  1  0  0  0  0
  5 16  1  0  0  0  0
  5 17  1  0  0  0  0
  6  7  1  0  0  0  0
  6 18  1  0  0  0  0
  6 19  1  0  0  0  0
  7  8  1  0  0  0  0
  7 20  1  0  0  0  0
  7 21  1  0  0  0  0
  8  9  1  0  0  0  0
  8 22  1  0  0  0  0
  9 10  2  0  0  0  0
  9 11  1  0  0  0  0
 10 23  1  0  0  0  0
 10 27  1  0  0  0  0
 11 24  1  0  0  0  0
 11 25  1  0  0  0  0
M  CHG  1   1   1
M  END
$$$$
