ASP
 OpenBabel04111919313D

 15 14  0  0  1  0  0  0  0  0999 V2000
    3.4634   49.3593   -7.8389 N   0  3  0  0  0  0  0  0  0  0  0  0
    2.9342   50.7879   -7.9817 C   0  0  2  0  0  0  0  0  0  0  0  0
    1.4624   50.9003   -7.4883 C   0  0  0  0  0  0  0  0  0  0  0  0
    0.9616   49.7385   -7.3013 O   0  0  0  0  0  0  0  0  0  0  0  0
    3.0079   51.1794   -9.4463 C   0  0  0  0  0  0  0  0  0  0  0  0
    4.4071   51.5707   -9.8643 C   0  0  0  0  0  0  0  0  0  0  0  0
    4.6797   51.3181  -11.0697 O   0  0  0  0  0  0  0  0  0  0  0  0
    5.1685   51.9815   -8.9469 O   0  0  0  0  0  0  0  0  0  0  0  0
    1.0095   52.0412   -7.2602 O   0  0  0  0  0  0  0  0  0  0  0  0
    4.4233   49.2880   -8.1742 H   0  0  0  0  0  0  0  0  0  0  0  0
    3.3570   49.1126   -6.8517 H   0  0  0  0  0  0  0  0  0  0  0  0
    3.5640   51.3873   -7.3151 H   0  0  0  0  0  0  0  0  0  0  0  0
    2.3597   52.0445   -9.6359 H   0  0  0  0  0  0  0  0  0  0  0  0
    2.6417   50.3628  -10.0861 H   0  0  0  0  0  0  0  0  0  0  0  0
    2.7974   48.7612   -8.3395 H   0  0  0  0  0  0  0  0  0  0  0  0
  1  2  1  0  0  0  0
  1 10  1  0  0  0  0
  1 11  1  0  0  0  0
  1 15  1  0  0  0  0
  2  3  1  0  0  0  0
  2  5  1  0  0  0  0
  2 12  1  1  0  0  0
  3  4  2  0  0  0  0
  3  9  1  0  0  0  0
  5  6  1  0  0  0  0
  5 13  1  0  0  0  0
  5 14  1  0  0  0  0
  6  7  2  0  0  0  0
  6  8  1  0  0  0  0
M  CHG  1   1   1
M  END
$$$$
