AV9
 OpenBabel04111917473D

 51 54  0  0  0  0  0  0  0  0999 V2000
  -17.6565    2.7618  -15.3206 C   0  0  0  0  0  0  0  0  0  0  0  0
  -18.7143    3.6361  -15.0538 C   0  0  0  0  0  0  0  0  0  0  0  0
  -19.9626    3.1777  -14.6304 C   0  0  0  0  0  0  0  0  0  0  0  0
  -20.1768    1.7940  -14.4768 C   0  0  0  0  0  0  0  0  0  0  0  0
  -19.1067    0.9066  -14.7517 C   0  0  0  0  0  0  0  0  0  0  0  0
  -17.8546    1.3784  -15.1652 C   0  0  0  0  0  0  0  0  0  0  0  0
  -20.9255    4.0880  -14.3861 N   0  0  0  0  0  0  0  0  0  0  0  0
  -22.1324    3.6450  -13.9708 C   0  0  0  0  0  0  0  0  0  0  0  0
  -22.4509    2.3149  -13.7808 C   0  0  0  0  0  0  0  0  0  0  0  0
  -21.4662    1.3667  -14.0476 C   0  0  0  0  0  0  0  0  0  0  0  0
  -21.6718   -0.0025  -13.9633 O   0  0  0  0  0  0  0  0  0  0  0  0
  -22.7569   -0.4930  -13.2743 C   0  0  0  0  0  0  0  0  0  0  0  0
  -23.9952   -0.6509  -13.8987 C   0  0  0  0  0  0  0  0  0  0  0  0
  -24.8854   -1.6970  -11.8779 C   0  0  0  0  0  0  0  0  0  0  0  0
  -23.6270   -1.5637  -11.2831 C   0  0  0  0  0  0  0  0  0  0  0  0
  -22.5626   -0.9821  -11.9833 C   0  0  0  0  0  0  0  0  0  0  0  0
  -29.2252   -2.9606   -6.4414 O   0  0  0  0  0  0  0  0  0  0  0  0
  -25.0537   -1.2535  -13.2019 C   0  0  0  0  0  0  0  0  0  0  0  0
  -25.9598   -2.3076  -11.1709 N   0  0  0  0  0  0  0  0  0  0  0  0
  -16.7723    0.5821  -15.4392 O   0  0  0  0  0  0  0  0  0  0  0  0
  -16.4077    3.1376  -15.7330 O   0  0  0  0  0  0  0  0  0  0  0  0
  -26.2448   -2.0078   -9.8401 C   0  0  0  0  0  0  0  0  0  0  0  0
  -25.5862   -1.2176   -9.1709 O   0  0  0  0  0  0  0  0  0  0  0  0
  -27.3572   -2.6750   -9.3844 N   0  0  0  0  0  0  0  0  0  0  0  0
  -27.8841   -2.5647   -8.1074 C   0  0  0  0  0  0  0  0  0  0  0  0
  -28.4373   -1.5989   -4.6058 C   0  0  0  0  0  0  0  0  0  0  0  0
  -28.3139   -2.0517   -6.0028 C   0  0  0  0  0  0  0  0  0  0  0  0
  -27.4452   -1.7670   -7.0254 C   0  0  0  0  0  0  0  0  0  0  0  0
  -28.9559   -3.2797   -7.7675 N   0  0  0  0  0  0  0  0  0  0  0  0
  -26.5916   -1.3669  -13.9860 Cl  0  0  0  0  0  0  0  0  0  0  0  0
  -16.9107   -0.8223  -15.2814 C   0  0  0  0  0  0  0  0  0  0  0  0
  -16.1420    4.5325  -15.9173 C   0  0  0  0  0  0  0  0  0  0  0  0
  -18.5927    4.7086  -15.1651 H   0  0  0  0  0  0  0  0  0  0  0  0
  -19.2779   -0.1570  -14.6289 H   0  0  0  0  0  0  0  0  0  0  0  0
  -22.8696    4.4248  -13.7936 H   0  0  0  0  0  0  0  0  0  0  0  0
  -23.4477    2.0556  -13.4493 H   0  0  0  0  0  0  0  0  0  0  0  0
  -24.1329   -0.3037  -14.9194 H   0  0  0  0  0  0  0  0  0  0  0  0
  -23.4494   -1.9456  -10.2799 H   0  0  0  0  0  0  0  0  0  0  0  0
  -21.5807   -0.9313  -11.5200 H   0  0  0  0  0  0  0  0  0  0  0  0
  -26.7355   -2.6280  -11.7357 H   0  0  0  0  0  0  0  0  0  0  0  0
  -27.8519   -3.3231   -9.9729 H   0  0  0  0  0  0  0  0  0  0  0  0
  -27.6578   -0.8681   -4.3682 H   0  0  0  0  0  0  0  0  0  0  0  0
  -28.3333   -2.4392   -3.9148 H   0  0  0  0  0  0  0  0  0  0  0  0
  -29.4078   -1.1267   -4.4367 H   0  0  0  0  0  0  0  0  0  0  0  0
  -26.6103   -1.0788   -6.9846 H   0  0  0  0  0  0  0  0  0  0  0  0
  -15.9517   -1.2829  -15.5372 H   0  0  0  0  0  0  0  0  0  0  0  0
  -17.6645   -1.2251  -15.9661 H   0  0  0  0  0  0  0  0  0  0  0  0
  -17.1371   -1.0843  -14.2424 H   0  0  0  0  0  0  0  0  0  0  0  0
  -15.0944    4.6248  -16.2457 H   0  0  0  0  0  0  0  0  0  0  0  0
  -16.2419    5.0764  -14.9795 H   0  0  0  0  0  0  0  0  0  0  0  0
  -16.7736    4.9511  -16.6971 H   0  0  0  0  0  0  0  0  0  0  0  0
  1  2  2  0  0  0  0
  1  6  1  0  0  0  0
  1 21  1  0  0  0  0
  2  3  1  0  0  0  0
  2 33  1  0  0  0  0
  3  4  2  0  0  0  0
  3  7  1  0  0  0  0
  4  5  1  0  0  0  0
  4 10  1  0  0  0  0
  5  6  2  0  0  0  0
  5 34  1  0  0  0  0
  6 20  1  0  0  0  0
  7  8  2  0  0  0  0
  8  9  1  0  0  0  0
  8 35  1  0  0  0  0
  9 10  2  0  0  0  0
  9 36  1  0  0  0  0
 10 11  1  0  0  0  0
 11 12  1  0  0  0  0
 12 13  2  0  0  0  0
 12 16  1  0  0  0  0
 13 18  1  0  0  0  0
 13 37  1  0  0  0  0
 14 15  1  0  0  0  0
 14 18  2  0  0  0  0
 14 19  1  0  0  0  0
 15 16  2  0  0  0  0
 15 38  1  0  0  0  0
 16 39  1  0  0  0  0
 17 27  1  0  0  0  0
 17 29  1  0  0  0  0
 18 30  1  0  0  0  0
 19 22  1  0  0  0  0
 19 40  1  0  0  0  0
 20 31  1  0  0  0  0
 21 32  1  0  0  0  0
 22 23  2  0  0  0  0
 22 24  1  0  0  0  0
 24 25  1  0  0  0  0
 24 41  1  0  0  0  0
 25 28  1  0  0  0  0
 25 29  2  0  0  0  0
 26 27  1  0  0  0  0
 26 42  1  0  0  0  0
 26 43  1  0  0  0  0
 26 44  1  0  0  0  0
 27 28  2  0  0  0  0
 28 45  1  0  0  0  0
 31 46  1  0  0  0  0
 31 47  1  0  0  0  0
 31 48  1  0  0  0  0
 32 49  1  0  0  0  0
 32 50  1  0  0  0  0
 32 51  1  0  0  0  0
M  END
$$$$
