AVI
 OpenBabel04111921033D

 26 26  0  0  1  0  0  0  0  0999 V2000
   10.0328   15.9984   16.7060 C   0  0  0  0  0  0  0  0  0  0  0  0
    9.0615   15.9272   15.6107 N   0  3  0  0  0  0  0  0  0  0  0  0
    9.4037   16.9376   14.5668 C   0  0  0  0  0  0  0  0  0  0  0  0
    9.0928   14.5497   14.9046 C   0  0  2  0  0  0  0  0  0  0  0  0
    8.0381   14.4320   13.7721 C   0  0  0  0  0  0  0  0  0  0  0  0
    6.8700   14.7235   14.1635 O   0  0  0  0  0  0  0  0  0  0  0  0
    8.5231   14.2694   12.6203 O   0  0  0  0  0  0  0  0  0  0  0  0
    8.8227   13.4274   15.8956 C   0  0  0  0  0  0  0  0  0  0  0  0
    8.8966   12.0728   15.2887 C   0  0  0  0  0  0  0  0  0  0  0  0
    8.0456   11.0782   15.6757 N   0  0  0  0  0  0  0  0  0  0  0  0
    8.3489   10.0432   14.9362 C   0  0  0  0  0  0  0  0  0  0  0  0
    9.3911   10.3031   14.0696 N   0  3  0  0  0  0  0  0  0  0  0  0
    9.7533   11.6121   14.3136 C   0  0  0  0  0  0  0  0  0  0  0  0
    9.9370   16.9777   17.1642 H   0  0  0  0  0  0  0  0  0  0  0  0
   11.0209   15.8539   16.2644 H   0  0  0  0  0  0  0  0  0  0  0  0
    9.8120   15.2235   17.4317 H   0  0  0  0  0  0  0  0  0  0  0  0
    8.6806   16.8954   13.7553 H   0  0  0  0  0  0  0  0  0  0  0  0
   10.4078   16.6911   14.2066 H   0  0  0  0  0  0  0  0  0  0  0  0
    9.3970   17.9129   15.0493 H   0  0  0  0  0  0  0  0  0  0  0  0
   10.1124   14.4705   14.5087 H   0  0  0  0  0  0  0  0  0  0  0  0
    7.8413   13.5725   16.3621 H   0  0  0  0  0  0  0  0  0  0  0  0
    9.5723   13.4559   16.7001 H   0  0  0  0  0  0  0  0  0  0  0  0
    7.8554    9.0722   14.9819 H   0  0  0  0  0  0  0  0  0  0  0  0
    9.7814    9.6678   13.4263 H   0  0  0  0  0  0  0  0  0  0  0  0
   10.5318   12.1197   13.7653 H   0  0  0  0  0  0  0  0  0  0  0  0
    8.0766   16.0646   15.9163 H   0  0  0  0  0  0  0  0  0  0  0  0
  1  2  1  0  0  0  0
  1 14  1  0  0  0  0
  1 15  1  0  0  0  0
  1 16  1  0  0  0  0
  2  3  1  0  0  0  0
  2  4  1  0  0  0  0
  2 26  1  0  0  0  0
  3 17  1  0  0  0  0
  3 18  1  0  0  0  0
  3 19  1  0  0  0  0
  4  5  1  0  0  0  0
  4  8  1  0  0  0  0
  4 20  1  6  0  0  0
  5  6  2  0  0  0  0
  5  7  1  0  0  0  0
  8  9  1  0  0  0  0
  8 21  1  0  0  0  0
  8 22  1  0  0  0  0
  9 10  1  0  0  0  0
  9 13  2  0  0  0  0
 10 11  1  0  0  0  0
 11 12  2  0  0  0  0
 11 23  1  0  0  0  0
 12 13  1  0  0  0  0
 12 24  1  0  0  0  0
 13 25  1  0  0  0  0
M  CHG  2   2   1  12   1
M  END
$$$$
