AWJ
 OpenBabel04111918153D

 56 59  0  0  1  0  0  0  0  0999 V2000
  -29.8797  -16.6305   61.4843 C   0  0  0  0  0  0  0  0  0  0  0  0
  -28.8036  -16.3895   62.3534 C   0  0  0  0  0  0  0  0  0  0  0  0
  -27.7786  -17.2581   62.5010 N   0  0  0  0  0  0  0  0  0  0  0  0
  -27.8208  -18.4141   61.7821 C   0  0  0  0  0  0  0  0  0  0  0  0
  -28.8337  -18.7606   60.8916 C   0  0  0  0  0  0  0  0  0  0  0  0
  -29.8689  -17.8193   60.7513 C   0  0  0  0  0  0  0  0  0  0  0  0
  -30.8779  -15.6841   61.4510 O   0  0  0  0  0  0  0  0  0  0  0  0
  -28.7368  -15.2174   63.0802 N   0  0  0  0  0  0  0  0  0  0  0  0
  -32.0120  -15.8359   60.5652 C   0  0  1  0  0  0  0  0  0  0  0  0
  -33.0704  -16.7640   61.1555 C   0  0  0  0  0  0  0  0  0  0  0  0
  -32.5984  -14.4295   60.3909 C   0  0  0  0  0  0  0  0  0  0  0  0
  -33.7270  -17.7770   60.4145 C   0  0  0  0  0  0  0  0  0  0  0  0
  -34.6311  -18.6590   61.0419 C   0  0  0  0  0  0  0  0  0  0  0  0
  -34.9233  -18.5160   62.4004 C   0  0  0  0  0  0  0  0  0  0  0  0
  -34.2911  -17.5173   63.1267 C   0  0  0  0  0  0  0  0  0  0  0  0
  -33.3791  -16.6590   62.5303 C   0  0  0  0  0  0  0  0  0  0  0  0
  -34.5632  -17.3908   64.4398 F   0  0  0  0  0  0  0  0  0  0  0  0
  -33.4954  -17.9782   59.0380 N   0  0  0  0  0  0  0  0  0  0  0  0
  -33.0155  -19.1602   58.5766 N   0  0  0  0  0  0  0  0  0  0  0  0
  -32.9440  -18.9494   57.2623 C   0  0  0  0  0  0  0  0  0  0  0  0
  -33.4747  -17.6907   56.9641 C   0  0  0  0  0  0  0  0  0  0  0  0
  -33.7780  -17.0412   58.0948 N   0  0  0  0  0  0  0  0  0  0  0  0
  -28.8572  -20.0452   60.1538 C   0  0  0  0  0  0  0  0  0  0  0  0
  -27.8687  -20.8433   59.5798 C   0  0  0  0  0  0  0  0  0  0  0  0
  -28.3351  -21.9663   58.8994 N   0  0  0  0  0  0  0  0  0  0  0  0
  -29.6441  -22.0741   58.9906 C   0  0  0  0  0  0  0  0  0  0  0  0
  -30.3794  -20.8396   59.9188 S   0  0  0  0  0  0  0  0  0  0  0  0
  -26.3940  -20.6334   59.5548 C   0  0  0  0  0  0  0  0  0  0  0  0
  -30.4519  -23.1898   58.3352 C   0  0  1  0  0  0  0  0  0  0  0  0
  -30.0348  -24.5738   58.8723 C   0  0  0  0  0  0  0  0  0  0  0  0
  -31.8640  -23.0232   58.5736 O   0  0  0  0  0  0  0  0  0  0  0  0
  -30.2604  -23.1471   56.8174 C   0  0  0  0  0  0  0  0  0  0  0  0
  -30.2214  -24.6922   60.2870 O   0  0  0  0  0  0  0  0  0  0  0  0
  -26.9829  -19.0747   61.9827 H   0  0  0  0  0  0  0  0  0  0  0  0
  -30.6794  -18.0420   60.0646 H   0  0  0  0  0  0  0  0  0  0  0  0
  -27.9599  -15.0908   63.7090 H   0  0  0  0  0  0  0  0  0  0  0  0
  -29.4979  -14.5561   63.0229 H   0  0  0  0  0  0  0  0  0  0  0  0
  -31.6631  -16.1664   59.5834 H   0  0  0  0  0  0  0  0  0  0  0  0
  -33.4853  -14.4345   59.7507 H   0  0  0  0  0  0  0  0  0  0  0  0
  -31.8539  -13.7594   59.9476 H   0  0  0  0  0  0  0  0  0  0  0  0
  -32.8734  -13.9836   61.3555 H   0  0  0  0  0  0  0  0  0  0  0  0
  -35.1424  -19.4311   60.4675 H   0  0  0  0  0  0  0  0  0  0  0  0
  -35.6382  -19.1711   62.8882 H   0  0  0  0  0  0  0  0  0  0  0  0
  -32.8906  -15.9113   63.1515 H   0  0  0  0  0  0  0  0  0  0  0  0
  -32.5379  -19.7070   56.6045 H   0  0  0  0  0  0  0  0  0  0  0  0
  -33.6382  -17.2290   56.0005 H   0  0  0  0  0  0  0  0  0  0  0  0
  -25.9000  -21.4378   58.9967 H   0  0  0  0  0  0  0  0  0  0  0  0
  -25.9817  -20.6439   60.5672 H   0  0  0  0  0  0  0  0  0  0  0  0
  -26.1403  -19.6873   59.0686 H   0  0  0  0  0  0  0  0  0  0  0  0
  -28.9840  -24.7865   58.6515 H   0  0  0  0  0  0  0  0  0  0  0  0
  -30.6452  -25.3579   58.4079 H   0  0  0  0  0  0  0  0  0  0  0  0
  -31.9878  -22.9470   59.5345 H   0  0  0  0  0  0  0  0  0  0  0  0
  -30.5608  -22.1746   56.4095 H   0  0  0  0  0  0  0  0  0  0  0  0
  -30.8866  -23.8995   56.3239 H   0  0  0  0  0  0  0  0  0  0  0  0
  -29.2172  -23.3270   56.5367 H   0  0  0  0  0  0  0  0  0  0  0  0
  -31.1703  -24.6129   60.4744 H   0  0  0  0  0  0  0  0  0  0  0  0
  1  2  2  0  0  0  0
  1  6  1  0  0  0  0
  1  7  1  0  0  0  0
  2  3  1  0  0  0  0
  2  8  1  0  0  0  0
  3  4  2  0  0  0  0
  4  5  1  0  0  0  0
  4 34  1  0  0  0  0
  5  6  2  0  0  0  0
  5 23  1  0  0  0  0
  6 35  1  0  0  0  0
  7  9  1  0  0  0  0
  8 36  1  0  0  0  0
  8 37  1  0  0  0  0
  9 10  1  0  0  0  0
  9 11  1  0  0  0  0
  9 38  1  6  0  0  0
 10 12  2  0  0  0  0
 10 16  1  0  0  0  0
 11 39  1  0  0  0  0
 11 40  1  0  0  0  0
 11 41  1  0  0  0  0
 12 13  1  0  0  0  0
 12 18  1  0  0  0  0
 13 14  2  0  0  0  0
 13 42  1  0  0  0  0
 14 15  1  0  0  0  0
 14 43  1  0  0  0  0
 15 16  2  0  0  0  0
 15 17  1  0  0  0  0
 16 44  1  0  0  0  0
 18 19  1  0  0  0  0
 18 22  1  0  0  0  0
 19 20  2  0  0  0  0
 20 21  1  0  0  0  0
 20 45  1  0  0  0  0
 21 22  2  0  0  0  0
 21 46  1  0  0  0  0
 23 24  2  0  0  0  0
 23 27  1  0  0  0  0
 24 25  1  0  0  0  0
 24 28  1  0  0  0  0
 25 26  2  0  0  0  0
 26 27  1  0  0  0  0
 28 47  1  0  0  0  0
 28 48  1  0  0  0  0
 28 49  1  0  0  0  0
 29 26  1  1  0  0  0
 29 30  1  0  0  0  0
 29 31  1  0  0  0  0
 29 32  1  0  0  0  0
 30 33  1  0  0  0  0
 30 50  1  0  0  0  0
 30 51  1  0  0  0  0
 31 52  1  0  0  0  0
 32 53  1  0  0  0  0
 32 54  1  0  0  0  0
 32 55  1  0  0  0  0
 33 56  1  0  0  0  0
M  END
$$$$
