AXI
 OpenBabel04111922193D

 46 49  0  0  0  0  0  0  0  0999 V2000
   14.2441  158.9214   37.0791 O   0  0  0  0  0  0  0  0  0  0  0  0
   13.1659  159.0151   37.6620 C   0  0  0  0  0  0  0  0  0  0  0  0
   12.4941  160.2133   37.7954 N   0  0  0  0  0  0  0  0  0  0  0  0
   12.9943  161.3889   37.1199 C   0  0  0  0  0  0  0  0  0  0  0  0
   12.5473  157.8106   38.2781 C   0  0  0  0  0  0  0  0  0  0  0  0
   12.2399  157.8506   39.6506 C   0  0  0  0  0  0  0  0  0  0  0  0
   11.7486  156.7123   40.2983 C   0  0  0  0  0  0  0  0  0  0  0  0
   11.5640  155.5330   39.5863 C   0  0  0  0  0  0  0  0  0  0  0  0
   12.3615  156.6196   37.5468 C   0  0  0  0  0  0  0  0  0  0  0  0
   11.8782  155.4849   38.2277 C   0  0  0  0  0  0  0  0  0  0  0  0
   12.7341  156.4946   35.7891 S   0  0  0  0  0  0  0  0  0  0  0  0
   11.4582  155.4211   35.1553 C   0  0  0  0  0  0  0  0  0  0  0  0
   10.1229  155.6407   35.4833 C   0  0  0  0  0  0  0  0  0  0  0  0
    9.1223  154.7826   35.0262 C   0  0  0  0  0  0  0  0  0  0  0  0
   11.8151  154.3474   34.3251 C   0  0  0  0  0  0  0  0  0  0  0  0
   10.7850  153.5139   33.8600 C   0  0  0  0  0  0  0  0  0  0  0  0
   10.8020  152.4084   33.0569 N   0  3  0  0  0  0  0  0  0  0  0  0
    9.5956  151.8625   32.8376 N   0  0  0  0  0  0  0  0  0  0  0  0
    8.7411  152.6422   33.5182 C   0  0  0  0  0  0  0  0  0  0  0  0
    9.4442  153.7006   34.1855 C   0  0  0  0  0  0  0  0  0  0  0  0
    7.3226  152.3636   33.5469 C   0  0  0  0  0  0  0  0  0  0  0  0
    6.3634  153.0644   34.1780 C   0  0  0  0  0  0  0  0  0  0  0  0
    4.9336  152.7245   34.2556 C   0  0  0  0  0  0  0  0  0  0  0  0
    4.4495  151.8388   33.3609 N   0  0  0  0  0  0  0  0  0  0  0  0
    3.1346  151.5368   33.4479 C   0  0  0  0  0  0  0  0  0  0  0  0
    2.2738  152.0682   34.3946 C   0  0  0  0  0  0  0  0  0  0  0  0
    2.7883  152.9784   35.3070 C   0  0  0  0  0  0  0  0  0  0  0  0
    4.1357  153.3201   35.2341 C   0  0  0  0  0  0  0  0  0  0  0  0
   11.5960  160.2543   38.2598 H   0  0  0  0  0  0  0  0  0  0  0  0
   12.3419  162.2383   37.3292 H   0  0  0  0  0  0  0  0  0  0  0  0
   13.0220  161.2022   36.0398 H   0  0  0  0  0  0  0  0  0  0  0  0
   14.0092  161.6031   37.4661 H   0  0  0  0  0  0  0  0  0  0  0  0
   12.4301  158.7482   40.2323 H   0  0  0  0  0  0  0  0  0  0  0  0
   11.5374  156.7354   41.3662 H   0  0  0  0  0  0  0  0  0  0  0  0
   11.1911  154.6396   40.0846 H   0  0  0  0  0  0  0  0  0  0  0  0
   11.7414  154.5399   37.7062 H   0  0  0  0  0  0  0  0  0  0  0  0
    9.8324  156.4718   36.1215 H   0  0  0  0  0  0  0  0  0  0  0  0
    8.1104  154.9869   35.3473 H   0  0  0  0  0  0  0  0  0  0  0  0
   12.8525  154.1682   34.0578 H   0  0  0  0  0  0  0  0  0  0  0  0
   11.6118  151.9713   32.6285 H   0  0  0  0  0  0  0  0  0  0  0  0
    7.0232  151.4647   33.0045 H   0  0  0  0  0  0  0  0  0  0  0  0
    6.5942  153.9648   34.7156 H   0  0  0  0  0  0  0  0  0  0  0  0
    2.7791  150.8254   32.7079 H   0  0  0  0  0  0  0  0  0  0  0  0
    1.2295  151.7781   34.4193 H   0  0  0  0  0  0  0  0  0  0  0  0
    2.1488  153.4139   36.0709 H   0  0  0  0  0  0  0  0  0  0  0  0
    4.5480  154.0270   35.9476 H   0  0  0  0  0  0  0  0  0  0  0  0
  1  2  2  0  0  0  0
  2  3  1  0  0  0  0
  2  5  1  0  0  0  0
  3  4  1  0  0  0  0
  3 29  1  0  0  0  0
  4 30  1  0  0  0  0
  4 31  1  0  0  0  0
  4 32  1  0  0  0  0
  5  6  2  0  0  0  0
  5  9  1  0  0  0  0
  6  7  1  0  0  0  0
  6 33  1  0  0  0  0
  7  8  2  0  0  0  0
  7 34  1  0  0  0  0
  8 10  1  0  0  0  0
  8 35  1  0  0  0  0
  9 10  2  0  0  0  0
  9 11  1  0  0  0  0
 10 36  1  0  0  0  0
 11 12  1  0  0  0  0
 12 13  1  0  0  0  0
 12 15  2  0  0  0  0
 13 14  2  0  0  0  0
 13 37  1  0  0  0  0
 14 20  1  0  0  0  0
 14 38  1  0  0  0  0
 15 16  1  0  0  0  0
 15 39  1  0  0  0  0
 16 17  2  0  0  0  0
 16 20  1  0  0  0  0
 17 18  1  0  0  0  0
 17 40  1  0  0  0  0
 18 19  1  0  0  0  0
 19 20  2  0  0  0  0
 19 21  1  0  0  0  0
 21 22  2  0  0  0  0
 21 41  1  0  0  0  0
 22 23  1  0  0  0  0
 22 42  1  0  0  0  0
 23 24  2  0  0  0  0
 23 28  1  0  0  0  0
 24 25  1  0  0  0  0
 25 26  2  0  0  0  0
 25 43  1  0  0  0  0
 26 27  1  0  0  0  0
 26 44  1  0  0  0  0
 27 28  2  0  0  0  0
 27 45  1  0  0  0  0
 28 46  1  0  0  0  0
M  CHG  1  17   1
M  END
$$$$
