AXI
 OpenBabel04111921553D

 46 49  0  0  0  0  0  0  0  0999 V2000
   62.0962   19.2596   46.7124 O   0  0  0  0  0  0  0  0  0  0  0  0
   62.4614   19.2557   47.9023 C   0  0  0  0  0  0  0  0  0  0  0  0
   62.5411   20.4059   48.6491 N   0  0  0  0  0  0  0  0  0  0  0  0
   62.0686   21.6621   48.0828 C   0  0  0  0  0  0  0  0  0  0  0  0
   62.8611   17.9776   48.5356 C   0  0  0  0  0  0  0  0  0  0  0  0
   64.1708   17.8741   49.0472 C   0  0  0  0  0  0  0  0  0  0  0  0
   64.6231   16.6684   49.5939 C   0  0  0  0  0  0  0  0  0  0  0  0
   63.7807   15.5589   49.6308 C   0  0  0  0  0  0  0  0  0  0  0  0
   62.0033   16.8515   48.5541 C   0  0  0  0  0  0  0  0  0  0  0  0
   62.4887   15.6510   49.1040 C   0  0  0  0  0  0  0  0  0  0  0  0
   60.3418   16.9123   47.8550 S   0  0  0  0  0  0  0  0  0  0  0  0
   59.3830   15.6615   48.7189 C   0  0  0  0  0  0  0  0  0  0  0  0
   59.2885   15.7189   50.1210 C   0  0  0  0  0  0  0  0  0  0  0  0
   58.5131   14.8248   50.8663 C   0  0  0  0  0  0  0  0  0  0  0  0
   58.6828   14.6718   47.9489 C   0  0  0  0  0  0  0  0  0  0  0  0
   57.8999   13.7432   48.6791 C   0  0  0  0  0  0  0  0  0  0  0  0
   57.1424   12.6946   48.2934 N   0  0  0  0  0  0  0  0  0  0  0  0
   56.6447   12.1738   49.4477 N   0  3  0  0  0  0  0  0  0  0  0  0
   57.0455   12.8518   50.5889 C   0  0  0  0  0  0  0  0  0  0  0  0
   57.8496   13.8477   50.1124 C   0  0  0  0  0  0  0  0  0  0  0  0
   56.6298   12.3930   51.8707 C   0  0  0  0  0  0  0  0  0  0  0  0
   57.2588   12.7900   52.9966 C   0  0  0  0  0  0  0  0  0  0  0  0
   57.0126   12.2953   54.3535 C   0  0  0  0  0  0  0  0  0  0  0  0
   57.6942   12.8832   55.3692 N   0  0  0  0  0  0  0  0  0  0  0  0
   57.4849   12.3853   56.6159 C   0  0  0  0  0  0  0  0  0  0  0  0
   56.6376   11.3222   56.8851 C   0  0  0  0  0  0  0  0  0  0  0  0
   55.9686   10.7316   55.8264 C   0  0  0  0  0  0  0  0  0  0  0  0
   56.1681   11.2197   54.5487 C   0  0  0  0  0  0  0  0  0  0  0  0
   62.8234   20.3812   49.6157 H   0  0  0  0  0  0  0  0  0  0  0  0
   62.1810   22.4671   48.8133 H   0  0  0  0  0  0  0  0  0  0  0  0
   61.0138   21.5685   47.7967 H   0  0  0  0  0  0  0  0  0  0  0  0
   62.6542   21.8926   47.1840 H   0  0  0  0  0  0  0  0  0  0  0  0
   64.8549   18.7177   48.9865 H   0  0  0  0  0  0  0  0  0  0  0  0
   65.6334   16.5905   49.9895 H   0  0  0  0  0  0  0  0  0  0  0  0
   64.1247   14.6223   50.0648 H   0  0  0  0  0  0  0  0  0  0  0  0
   61.8634   14.7626   49.1386 H   0  0  0  0  0  0  0  0  0  0  0  0
   59.8191   16.5010   50.6834 H   0  0  0  0  0  0  0  0  0  0  0  0
   58.4865   14.9434   51.9290 H   0  0  0  0  0  0  0  0  0  0  0  0
   58.7472   14.6592   46.8775 H   0  0  0  0  0  0  0  0  0  0  0  0
   56.0531   11.3452   49.3714 H   0  0  0  0  0  0  0  0  0  0  0  0
   55.8045   11.6914   51.9330 H   0  0  0  0  0  0  0  0  0  0  0  0
   58.0674   13.5001   52.9878 H   0  0  0  0  0  0  0  0  0  0  0  0
   58.0227   12.8684   57.4275 H   0  0  0  0  0  0  0  0  0  0  0  0
   56.4924   10.9554   57.8929 H   0  0  0  0  0  0  0  0  0  0  0  0
   55.2996    9.8925   55.9733 H   0  0  0  0  0  0  0  0  0  0  0  0
   55.6619   10.7394   53.7228 H   0  0  0  0  0  0  0  0  0  0  0  0
  1  2  2  0  0  0  0
  2  3  1  0  0  0  0
  2  5  1  0  0  0  0
  3  4  1  0  0  0  0
  3 29  1  0  0  0  0
  4 30  1  0  0  0  0
  4 31  1  0  0  0  0
  4 32  1  0  0  0  0
  5  6  2  0  0  0  0
  5  9  1  0  0  0  0
  6  7  1  0  0  0  0
  6 33  1  0  0  0  0
  7  8  2  0  0  0  0
  7 34  1  0  0  0  0
  8 10  1  0  0  0  0
  8 35  1  0  0  0  0
  9 10  2  0  0  0  0
  9 11  1  0  0  0  0
 10 36  1  0  0  0  0
 11 12  1  0  0  0  0
 12 13  2  0  0  0  0
 12 15  1  0  0  0  0
 13 14  1  0  0  0  0
 13 37  1  0  0  0  0
 14 20  2  0  0  0  0
 14 38  1  0  0  0  0
 15 16  2  0  0  0  0
 15 39  1  0  0  0  0
 16 17  1  0  0  0  0
 16 20  1  0  0  0  0
 17 18  1  0  0  0  0
 18 19  2  0  0  0  0
 18 40  1  0  0  0  0
 19 20  1  0  0  0  0
 19 21  1  0  0  0  0
 21 22  2  0  0  0  0
 21 41  1  0  0  0  0
 22 23  1  0  0  0  0
 22 42  1  0  0  0  0
 23 24  2  0  0  0  0
 23 28  1  0  0  0  0
 24 25  1  0  0  0  0
 25 26  2  0  0  0  0
 25 43  1  0  0  0  0
 26 27  1  0  0  0  0
 26 44  1  0  0  0  0
 27 28  2  0  0  0  0
 27 45  1  0  0  0  0
 28 46  1  0  0  0  0
M  CHG  1  18   1
M  END
$$$$
