AXI
 OpenBabel04111917413D

 46 49  0  0  0  0  0  0  0  0999 V2000
  -26.0630   -1.5388   -9.1397 O   0  0  0  0  0  0  0  0  0  0  0  0
  -26.7831   -2.0887   -9.9148 C   0  0  0  0  0  0  0  0  0  0  0  0
  -27.8114   -2.9112   -9.4746 N   0  0  0  0  0  0  0  0  0  0  0  0
  -28.0572   -3.1631   -8.0679 C   0  0  0  0  0  0  0  0  0  0  0  0
  -26.6650   -1.9241  -11.4316 C   0  0  0  0  0  0  0  0  0  0  0  0
  -27.8263   -2.0169  -12.2303 C   0  0  0  0  0  0  0  0  0  0  0  0
  -27.7676   -1.8442  -13.6242 C   0  0  0  0  0  0  0  0  0  0  0  0
  -26.5425   -1.5770  -14.2416 C   0  0  0  0  0  0  0  0  0  0  0  0
  -25.4243   -1.6374  -12.0550 C   0  0  0  0  0  0  0  0  0  0  0  0
  -25.3791   -1.4842  -13.4628 C   0  0  0  0  0  0  0  0  0  0  0  0
  -23.8825   -1.5337  -11.1257 S   0  0  0  0  0  0  0  0  0  0  0  0
  -22.9389   -0.2300  -11.9312 C   0  0  0  0  0  0  0  0  0  0  0  0
  -21.5901   -0.5035  -12.2808 C   0  0  0  0  0  0  0  0  0  0  0  0
  -20.7559    0.4800  -12.9111 C   0  0  0  0  0  0  0  0  0  0  0  0
  -23.5156    1.0482  -12.1863 C   0  0  0  0  0  0  0  0  0  0  0  0
  -22.7088    2.0480  -12.8127 C   0  0  0  0  0  0  0  0  0  0  0  0
  -22.9905    3.3166  -13.1724 N   0  0  0  0  0  0  0  0  0  0  0  0
  -21.8472    3.8193  -13.7325 N   0  3  0  0  0  0  0  0  0  0  0  0
  -20.7898    2.8984  -13.7490 C   0  0  0  0  0  0  0  0  0  0  0  0
  -21.3380    1.7515  -13.1635 C   0  0  0  0  0  0  0  0  0  0  0  0
  -19.5461    3.3396  -14.3199 C   0  0  0  0  0  0  0  0  0  0  0  0
  -18.3571    2.7818  -14.0072 C   0  0  0  0  0  0  0  0  0  0  0  0
  -17.0148    3.1628  -14.5802 C   0  0  0  0  0  0  0  0  0  0  0  0
  -16.1038    2.1537  -14.7490 N   0  0  0  0  0  0  0  0  0  0  0  0
  -14.8766    2.4689  -15.2668 C   0  0  0  0  0  0  0  0  0  0  0  0
  -14.4947    3.7623  -15.6165 C   0  0  0  0  0  0  0  0  0  0  0  0
  -15.4192    4.7917  -15.4300 C   0  0  0  0  0  0  0  0  0  0  0  0
  -16.6930    4.4905  -14.9044 C   0  0  0  0  0  0  0  0  0  0  0  0
  -28.3985   -3.3663  -10.1509 H   0  0  0  0  0  0  0  0  0  0  0  0
  -28.9150   -3.8433   -7.9809 H   0  0  0  0  0  0  0  0  0  0  0  0
  -28.2861   -2.2245   -7.5576 H   0  0  0  0  0  0  0  0  0  0  0  0
  -27.1796   -3.6263   -7.6103 H   0  0  0  0  0  0  0  0  0  0  0  0
  -28.7957   -2.2126  -11.7724 H   0  0  0  0  0  0  0  0  0  0  0  0
  -28.6783   -1.9197  -14.2242 H   0  0  0  0  0  0  0  0  0  0  0  0
  -26.4878   -1.4405  -15.3251 H   0  0  0  0  0  0  0  0  0  0  0  0
  -24.4279   -1.2781  -13.9616 H   0  0  0  0  0  0  0  0  0  0  0  0
  -21.1745   -1.5015  -12.0645 H   0  0  0  0  0  0  0  0  0  0  0  0
  -19.7376    0.2421  -13.1674 H   0  0  0  0  0  0  0  0  0  0  0  0
  -24.5391    1.2701  -11.9204 H   0  0  0  0  0  0  0  0  0  0  0  0
  -21.8591    4.7985  -14.0716 H   0  0  0  0  0  0  0  0  0  0  0  0
  -19.5549    4.1501  -15.0569 H   0  0  0  0  0  0  0  0  0  0  0  0
  -18.3278    1.9697  -13.2818 H   0  0  0  0  0  0  0  0  0  0  0  0
  -14.1745    1.6369  -15.4021 H   0  0  0  0  0  0  0  0  0  0  0  0
  -13.5002    3.9554  -16.0219 H   0  0  0  0  0  0  0  0  0  0  0  0
  -15.1525    5.8213  -15.6924 H   0  0  0  0  0  0  0  0  0  0  0  0
  -17.4162    5.2929  -14.7550 H   0  0  0  0  0  0  0  0  0  0  0  0
  1  2  2  0  0  0  0
  2  3  1  0  0  0  0
  2  5  1  0  0  0  0
  3  4  1  0  0  0  0
  3 29  1  0  0  0  0
  4 30  1  0  0  0  0
  4 31  1  0  0  0  0
  4 32  1  0  0  0  0
  5  6  2  0  0  0  0
  5  9  1  0  0  0  0
  6  7  1  0  0  0  0
  6 33  1  0  0  0  0
  7  8  2  0  0  0  0
  7 34  1  0  0  0  0
  8 10  1  0  0  0  0
  8 35  1  0  0  0  0
  9 10  2  0  0  0  0
  9 11  1  0  0  0  0
 10 36  1  0  0  0  0
 11 12  1  0  0  0  0
 12 13  2  0  0  0  0
 12 15  1  0  0  0  0
 13 14  1  0  0  0  0
 13 37  1  0  0  0  0
 14 20  2  0  0  0  0
 14 38  1  0  0  0  0
 15 16  2  0  0  0  0
 15 39  1  0  0  0  0
 16 17  1  0  0  0  0
 16 20  1  0  0  0  0
 17 18  1  0  0  0  0
 18 19  2  0  0  0  0
 18 40  1  0  0  0  0
 19 20  1  0  0  0  0
 19 21  1  0  0  0  0
 21 22  2  0  0  0  0
 21 41  1  0  0  0  0
 22 23  1  0  0  0  0
 22 42  1  0  0  0  0
 23 24  2  0  0  0  0
 23 28  1  0  0  0  0
 24 25  1  0  0  0  0
 25 26  2  0  0  0  0
 25 43  1  0  0  0  0
 26 27  1  0  0  0  0
 26 44  1  0  0  0  0
 27 28  2  0  0  0  0
 27 45  1  0  0  0  0
 28 46  1  0  0  0  0
M  CHG  1  18   1
M  END
$$$$
