AZM
 OpenBabel04111922413D

 19 19  0  0  0  0  0  0  0  0999 V2000
  -10.6790  -39.7808  -77.1682 C   0  0  0  0  0  0  0  0  0  0  0  0
  -11.4853  -41.2796  -78.8480 C   0  0  0  0  0  0  0  0  0  0  0  0
  -12.6008  -43.4664  -79.0918 C   0  0  0  0  0  0  0  0  0  0  0  0
  -13.1424  -44.4693  -80.0843 C   0  0  0  0  0  0  0  0  0  0  0  0
   -8.5703  -38.8318  -75.5374 N   0  0  0  0  0  0  0  0  0  0  0  0
  -10.9192  -40.2015  -79.3694 N   0  0  0  0  0  0  0  0  0  0  0  0
  -10.4385  -39.3251  -78.3829 N   0  0  0  0  0  0  0  0  0  0  0  0
  -12.0451  -42.3085  -79.6079 N   0  0  0  0  0  0  0  0  0  0  0  0
  -10.7617  -37.6452  -75.7005 O   0  0  0  0  0  0  0  0  0  0  0  0
  -10.5934  -39.8780  -74.5543 O   0  0  0  0  0  0  0  0  0  0  0  0
  -12.6803  -43.7434  -77.8930 O   0  0  0  0  0  0  0  0  0  0  0  0
  -10.2331  -38.9833  -75.6309 S   0  0  0  0  0  0  0  0  0  0  0  0
  -11.4517  -41.2982  -77.1338 S   0  0  0  0  0  0  0  0  0  0  0  0
  -13.5495  -45.3208  -79.5188 H   0  0  0  0  0  0  0  0  0  0  0  0
  -12.3575  -44.8633  -80.7335 H   0  0  0  0  0  0  0  0  0  0  0  0
  -13.9644  -44.0552  -80.6741 H   0  0  0  0  0  0  0  0  0  0  0  0
   -8.1934  -38.3602  -74.7211 H   0  0  0  0  0  0  0  0  0  0  0  0
   -7.9796  -39.1166  -76.3120 H   0  0  0  0  0  0  0  0  0  0  0  0
  -12.0117  -42.1726  -80.6094 H   0  0  0  0  0  0  0  0  0  0  0  0
  1  7  2  0  0  0  0
  1 12  1  0  0  0  0
  1 13  1  0  0  0  0
  2  6  2  0  0  0  0
  2  8  1  0  0  0  0
  2 13  1  0  0  0  0
  3  4  1  0  0  0  0
  3  8  1  0  0  0  0
  3 11  2  0  0  0  0
  4 14  1  0  0  0  0
  4 15  1  0  0  0  0
  4 16  1  0  0  0  0
  5 12  1  0  0  0  0
  5 17  1  0  0  0  0
  5 18  1  0  0  0  0
  6  7  1  0  0  0  0
  8 19  1  0  0  0  0
  9 12  2  0  0  0  0
 10 12  2  0  0  0  0
M  END
$$$$
