B40
 OpenBabel04111919073D

 27 27  0  0  1  0  0  0  0  0999 V2000
   -2.2989   -2.0340   15.3428 N   0  3  0  0  0  0  0  0  0  0  0  0
   -2.7995   -3.4453   15.5700 C   0  0  1  0  0  0  0  0  0  0  0  0
   -1.6098   -4.3546   15.3327 C   0  0  0  0  0  0  0  0  0  0  0  0
   -3.3169   -3.6272   17.0173 C   0  0  0  0  0  0  0  0  0  0  0  0
   -4.0604   -4.9228   17.2392 C   0  0  0  0  0  0  0  0  0  0  0  0
   -3.3889   -6.0356   17.7339 C   0  0  0  0  0  0  0  0  0  0  0  0
   -5.4353   -5.0175   16.9578 C   0  0  0  0  0  0  0  0  0  0  0  0
   -4.0671   -7.2264   17.9650 C   0  0  0  0  0  0  0  0  0  0  0  0
   -6.1122   -6.2259   17.1605 C   0  0  0  0  0  0  0  0  0  0  0  0
   -5.4207   -7.3396   17.6648 C   0  0  0  0  0  0  0  0  0  0  0  0
   -3.4048   -1.0439   15.2624 C   0  0  0  0  0  0  0  0  0  0  0  0
   -1.6129   -1.7649   16.0675 H   0  0  0  0  0  0  0  0  0  0  0  0
   -3.5814   -3.6195   14.8228 H   0  0  0  0  0  0  0  0  0  0  0  0
   -1.8995   -5.4002   15.4551 H   0  0  0  0  0  0  0  0  0  0  0  0
   -0.8204   -4.1253   16.0568 H   0  0  0  0  0  0  0  0  0  0  0  0
   -1.2012   -4.2313   14.3243 H   0  0  0  0  0  0  0  0  0  0  0  0
   -3.9745   -2.8147   17.3287 H   0  0  0  0  0  0  0  0  0  0  0  0
   -2.4596   -3.6000   17.7029 H   0  0  0  0  0  0  0  0  0  0  0  0
   -2.3233   -5.9893   17.9608 H   0  0  0  0  0  0  0  0  0  0  0  0
   -5.9965   -4.1618   16.6135 H   0  0  0  0  0  0  0  0  0  0  0  0
   -3.5398   -8.0795   18.3888 H   0  0  0  0  0  0  0  0  0  0  0  0
   -7.1773   -6.3090   16.9513 H   0  0  0  0  0  0  0  0  0  0  0  0
   -5.9467   -8.2660   17.8471 H   0  0  0  0  0  0  0  0  0  0  0  0
   -2.9790   -0.0589   15.0879 H   0  0  0  0  0  0  0  0  0  0  0  0
   -3.9394   -1.0693   16.2091 H   0  0  0  0  0  0  0  0  0  0  0  0
   -4.0547   -1.3475   14.4358 H   0  0  0  0  0  0  0  0  0  0  0  0
   -1.7670   -1.9989   14.4583 H   0  0  0  0  0  0  0  0  0  0  0  0
  1  2  1  0  0  0  0
  1 11  1  0  0  0  0
  1 12  1  0  0  0  0
  1 27  1  0  0  0  0
  2  3  1  0  0  0  0
  2  4  1  0  0  0  0
  2 13  1  6  0  0  0
  3 14  1  0  0  0  0
  3 15  1  0  0  0  0
  3 16  1  0  0  0  0
  4  5  1  0  0  0  0
  4 17  1  0  0  0  0
  4 18  1  0  0  0  0
  5  6  2  0  0  0  0
  5  7  1  0  0  0  0
  6  8  1  0  0  0  0
  6 19  1  0  0  0  0
  7  9  2  0  0  0  0
  7 20  1  0  0  0  0
  8 10  2  0  0  0  0
  8 21  1  0  0  0  0
  9 10  1  0  0  0  0
  9 22  1  0  0  0  0
 10 23  1  0  0  0  0
 11 24  1  0  0  0  0
 11 25  1  0  0  0  0
 11 26  1  0  0  0  0
M  CHG  1   1   1
M  END
$$$$
