BEW
 OpenBabel04111919413D

 15 15  0  0  0  0  0  0  0  0999 V2000
   16.0769    3.1156   13.0036 C   0  0  0  0  0  0  0  0  0  0  0  0
   15.5741    3.7194   14.0534 C   0  0  0  0  0  0  0  0  0  0  0  0
   14.7523    2.9756   15.0631 C   0  0  0  0  0  0  0  0  0  0  0  0
   15.4703    0.9149   13.9432 N   0  0  0  0  0  0  0  0  0  0  0  0
   15.6436   -0.4904   13.9355 O   0  0  0  0  0  0  0  0  0  0  0  0
   16.1208    1.6272   12.8569 C   0  0  0  0  0  0  0  0  0  0  0  0
   14.7428    1.4679   14.9403 C   0  0  0  0  0  0  0  0  0  0  0  0
   13.7865    0.5951   16.0250 S   0  0  0  0  0  0  0  0  0  0  0  0
   16.5267    3.6679   12.1851 H   0  0  0  0  0  0  0  0  0  0  0  0
   15.6761    4.7822   14.2367 H   0  0  0  0  0  0  0  0  0  0  0  0
   13.7158    3.3071   14.9376 H   0  0  0  0  0  0  0  0  0  0  0  0
   15.1364    3.2204   16.0524 H   0  0  0  0  0  0  0  0  0  0  0  0
   15.1936   -0.8049   13.1326 H   0  0  0  0  0  0  0  0  0  0  0  0
   17.1697    1.3324   12.8470 H   0  0  0  0  0  0  0  0  0  0  0  0
   15.5982    1.3655   11.9405 H   0  0  0  0  0  0  0  0  0  0  0  0
  1  2  2  0  0  0  0
  1  6  1  0  0  0  0
  1  9  1  0  0  0  0
  2  3  1  0  0  0  0
  2 10  1  0  0  0  0
  3  7  1  0  0  0  0
  3 11  1  0  0  0  0
  3 12  1  0  0  0  0
  4  5  1  0  0  0  0
  4  6  1  0  0  0  0
  4  7  1  0  0  0  0
  5 13  1  0  0  0  0
  6 14  1  0  0  0  0
  6 15  1  0  0  0  0
  7  8  2  0  0  0  0
M  END
$$$$
