BFM
 OpenBabel04111918583D

 14 13  0  0  0  0  0  0  0  0999 V2000
  -22.6939  -23.2551  -24.6664 O   0  0  0  0  0  0  0  0  0  0  0  0
  -22.9652  -22.8712  -23.2607 C   0  0  0  0  0  0  0  0  0  0  0  0
  -21.8192  -22.0731  -22.6271 C   0  0  0  0  0  0  0  0  0  0  0  0
  -22.0359  -21.1886  -21.7640 O   0  0  0  0  0  0  0  0  0  0  0  0
  -20.6502  -22.4417  -23.0943 O   0  0  0  0  0  0  0  0  0  0  0  0
  -24.0839  -21.9247  -23.3012 C   0  0  0  0  0  0  0  0  0  0  0  0
  -24.6267  -21.6513  -22.0993 F   0  0  0  0  0  0  0  0  0  0  0  0
  -25.0858  -22.4924  -24.0539 F   0  0  0  0  0  0  0  0  0  0  0  0
  -23.7642  -20.7733  -23.9293 F   0  0  0  0  0  0  0  0  0  0  0  0
  -23.4738  -23.9551  -22.3384 C   0  0  0  0  0  0  0  0  0  0  0  0
  -23.3025  -25.1917  -22.8678 F   0  0  0  0  0  0  0  0  0  0  0  0
  -24.8155  -23.9120  -22.0676 F   0  0  0  0  0  0  0  0  0  0  0  0
  -22.8628  -23.9451  -21.1313 F   0  0  0  0  0  0  0  0  0  0  0  0
  -21.8763  -23.7829  -24.6366 H   0  0  0  0  0  0  0  0  0  0  0  0
  1  2  1  0  0  0  0
  1 14  1  0  0  0  0
  2  3  1  0  0  0  0
  2  6  1  0  0  0  0
  2 10  1  0  0  0  0
  3  4  2  0  0  0  0
  3  5  1  0  0  0  0
  6  7  1  0  0  0  0
  6  8  1  0  0  0  0
  6  9  1  0  0  0  0
 10 11  1  0  0  0  0
 10 12  1  0  0  0  0
 10 13  1  0  0  0  0
M  END
$$$$
