BIG
 OpenBabel04111918503D

 49 51  0  0  1  0  0  0  0  0999 V2000
  -34.3911   -6.1227    6.7820 C   0  0  0  0  0  0  0  0  0  0  0  0
  -36.8745   -5.5005    6.2444 C   0  0  0  0  0  0  0  0  0  0  0  0
  -36.1748   -4.8163    7.2346 C   0  0  0  0  0  0  0  0  0  0  0  0
  -38.2436   -3.9445    7.0950 C   0  0  0  0  0  0  0  0  0  0  0  0
  -33.9992    0.4503    8.7659 O   0  0  0  0  0  0  0  0  0  0  0  0
  -33.9823   -0.6004    7.7955 C   0  0  2  0  0  0  0  0  0  0  0  0
  -35.0423   -0.2869    6.7359 C   0  0  1  0  0  0  0  0  0  0  0  0
  -34.7939   -1.0094    5.4108 C   0  0  0  0  0  0  0  0  0  0  0  0
  -33.4177   -0.3302    4.4617 S   0  0  0  0  0  0  0  0  0  0  0  0
  -34.3634    0.8607    3.4621 C   0  0  0  0  0  0  0  0  0  0  0  0
  -33.4564    1.5293    2.4368 C   0  0  0  0  0  0  0  0  0  0  0  0
  -33.9692    2.9099    2.0276 C   0  0  0  0  0  0  0  0  0  0  0  0
  -35.3365    2.8568    1.3709 C   0  0  0  0  0  0  0  0  0  0  0  0
  -36.3527   -0.8330    7.3177 C   0  0  0  0  0  0  0  0  0  0  0  0
  -35.9706   -1.6148    8.5453 N   0  3  2  0  0  0  0  0  0  0  0  0
  -34.4897   -1.8784    8.4499 C   0  0  0  0  0  0  0  0  0  0  0  0
  -36.8065   -2.8151    8.8680 C   0  0  0  0  0  0  0  0  0  0  0  0
  -38.1348   -4.9617    6.1948 N   0  3  0  0  0  0  0  0  0  0  0  0
  -36.2760   -6.5419    5.5300 C   0  0  0  0  0  0  0  0  0  0  0  0
  -36.9399   -7.2430    4.5549 N   0  0  0  0  0  0  0  0  0  0  0  0
  -34.8855   -5.0995    7.5222 N   0  0  0  0  0  0  0  0  0  0  0  0
  -37.0327   -3.8070    7.7760 C   0  0  0  0  0  0  0  0  0  0  0  0
  -35.0087   -6.8368    5.8215 N   0  0  0  0  0  0  0  0  0  0  0  0
  -33.3596   -6.4045    6.9828 H   0  0  0  0  0  0  0  0  0  0  0  0
  -39.1769   -3.4092    7.2036 H   0  0  0  0  0  0  0  0  0  0  0  0
  -33.2246    0.3393    9.3523 H   0  0  0  0  0  0  0  0  0  0  0  0
  -32.9714   -0.7157    7.3941 H   0  0  0  0  0  0  0  0  0  0  0  0
  -35.1449    0.7957    6.5792 H   0  0  0  0  0  0  0  0  0  0  0  0
  -35.6950   -0.9671    4.7905 H   0  0  0  0  0  0  0  0  0  0  0  0
  -34.5757   -2.0655    5.5899 H   0  0  0  0  0  0  0  0  0  0  0  0
  -34.8106    1.5955    4.1388 H   0  0  0  0  0  0  0  0  0  0  0  0
  -35.1704    0.3269    2.9466 H   0  0  0  0  0  0  0  0  0  0  0  0
  -33.3810    0.8884    1.5489 H   0  0  0  0  0  0  0  0  0  0  0  0
  -32.4430    1.6543    2.8340 H   0  0  0  0  0  0  0  0  0  0  0  0
  -33.2542    3.3613    1.3306 H   0  0  0  0  0  0  0  0  0  0  0  0
  -34.0148    3.5622    2.9082 H   0  0  0  0  0  0  0  0  0  0  0  0
  -35.6571    3.8635    1.0874 H   0  0  0  0  0  0  0  0  0  0  0  0
  -36.0877    2.4450    2.0513 H   0  0  0  0  0  0  0  0  0  0  0  0
  -35.3067    2.2366    0.4699 H   0  0  0  0  0  0  0  0  0  0  0  0
  -36.8603   -1.5015    6.6176 H   0  0  0  0  0  0  0  0  0  0  0  0
  -37.0495   -0.0465    7.6221 H   0  0  0  0  0  0  0  0  0  0  0  0
  -34.1130   -2.0354    9.4646 H   0  0  0  0  0  0  0  0  0  0  0  0
  -34.3254   -2.7435    7.8151 H   0  0  0  0  0  0  0  0  0  0  0  0
  -37.7756   -2.3918    9.1716 H   0  0  0  0  0  0  0  0  0  0  0  0
  -36.3782   -3.2813    9.7603 H   0  0  0  0  0  0  0  0  0  0  0  0
  -38.8657   -5.2890    5.5818 H   0  0  0  0  0  0  0  0  0  0  0  0
  -36.4529   -8.0204    4.1292 H   0  0  0  0  0  0  0  0  0  0  0  0
  -37.9072   -7.0895    4.3253 H   0  0  0  0  0  0  0  0  0  0  0  0
  -36.0683   -0.9495    9.3267 H   0  0  0  0  0  0  0  0  0  0  0  0
  1 21  1  0  0  0  0
  1 23  2  0  0  0  0
  1 24  1  0  0  0  0
  2  3  1  0  0  0  0
  2 18  1  0  0  0  0
  2 19  2  0  0  0  0
  3 21  1  0  0  0  0
  3 22  2  0  0  0  0
  4 18  2  0  0  0  0
  4 22  1  0  0  0  0
  4 25  1  0  0  0  0
  5  6  1  0  0  0  0
  5 26  1  0  0  0  0
  6  7  1  0  0  0  0
  6 16  1  0  0  0  0
  6 27  1  6  0  0  0
  7  8  1  0  0  0  0
  7 14  1  0  0  0  0
  7 28  1  6  0  0  0
  8  9  1  0  0  0  0
  8 29  1  0  0  0  0
  8 30  1  0  0  0  0
  9 10  1  0  0  0  0
 10 11  1  0  0  0  0
 10 31  1  0  0  0  0
 10 32  1  0  0  0  0
 11 12  1  0  0  0  0
 11 33  1  0  0  0  0
 11 34  1  0  0  0  0
 12 13  1  0  0  0  0
 12 35  1  0  0  0  0
 12 36  1  0  0  0  0
 13 37  1  0  0  0  0
 13 38  1  0  0  0  0
 13 39  1  0  0  0  0
 14 15  1  0  0  0  0
 14 40  1  0  0  0  0
 14 41  1  0  0  0  0
 15 16  1  0  0  0  0
 15 17  1  0  0  0  0
 15 49  1  1  0  0  0
 16 42  1  0  0  0  0
 16 43  1  0  0  0  0
 17 22  1  0  0  0  0
 17 44  1  0  0  0  0
 17 45  1  0  0  0  0
 18 46  1  0  0  0  0
 19 20  1  0  0  0  0
 19 23  1  0  0  0  0
 20 47  1  0  0  0  0
 20 48  1  0  0  0  0
M  CHG  2  15   1  18   1
M  END
$$$$
