BIG
 OpenBabel04111918533D

 49 51  0  0  1  0  0  0  0  0999 V2000
  -37.0789  -48.8867    8.0071 C   0  0  0  0  0  0  0  0  0  0  0  0
  -35.9105  -50.2823   10.0059 C   0  0  0  0  0  0  0  0  0  0  0  0
  -35.3931  -49.0559    9.5592 C   0  0  0  0  0  0  0  0  0  0  0  0
  -34.0734  -49.8118   11.2538 C   0  0  0  0  0  0  0  0  0  0  0  0
  -34.1006  -43.4773   10.9898 O   0  0  0  0  0  0  0  0  0  0  0  0
  -35.1231  -44.4720   10.8433 C   0  0  2  0  0  0  0  0  0  0  0  0
  -35.2826  -45.2306   12.1566 C   0  0  1  0  0  0  0  0  0  0  0  0
  -36.5852  -46.0130   12.2487 C   0  0  0  0  0  0  0  0  0  0  0  0
  -37.9942  -44.9280   12.4688 S   0  0  0  0  0  0  0  0  0  0  0  0
  -37.9825  -44.7408   14.2687 C   0  0  0  0  0  0  0  0  0  0  0  0
  -39.0642  -43.7279   14.6167 C   0  0  0  0  0  0  0  0  0  0  0  0
  -39.3496  -43.6498   16.1106 C   0  0  0  0  0  0  0  0  0  0  0  0
  -38.0984  -43.3493   16.9038 C   0  0  0  0  0  0  0  0  0  0  0  0
  -34.1516  -46.2427   12.1446 C   0  0  0  0  0  0  0  0  0  0  0  0
  -33.6491  -46.2626   10.7319 N   0  3  2  0  0  0  0  0  0  0  0  0
  -34.6377  -45.5245    9.8726 C   0  0  0  0  0  0  0  0  0  0  0  0
  -33.2660  -47.5915   10.2109 C   0  0  0  0  0  0  0  0  0  0  0  0
  -35.0904  -50.7257   11.0278 N   0  3  0  0  0  0  0  0  0  0  0  0
  -37.0761  -50.7991    9.3835 C   0  0  0  0  0  0  0  0  0  0  0  0
  -37.6278  -51.9975    9.7870 N   0  0  0  0  0  0  0  0  0  0  0  0
  -35.9594  -48.3416    8.5606 N   0  0  0  0  0  0  0  0  0  0  0  0
  -34.2180  -48.7524   10.3614 C   0  0  0  0  0  0  0  0  0  0  0  0
  -37.6396  -50.0591    8.3887 N   0  0  0  0  0  0  0  0  0  0  0  0
  -37.5592  -48.3299    7.1907 H   0  0  0  0  0  0  0  0  0  0  0  0
  -33.3091  -49.9622   12.0106 H   0  0  0  0  0  0  0  0  0  0  0  0
  -34.0148  -42.9946   10.1500 H   0  0  0  0  0  0  0  0  0  0  0  0
  -36.0535  -44.0192   10.5130 H   0  0  0  0  0  0  0  0  0  0  0  0
  -35.1849  -44.5581   13.0142 H   0  0  0  0  0  0  0  0  0  0  0  0
  -36.5451  -46.7120   13.0869 H   0  0  0  0  0  0  0  0  0  0  0  0
  -36.7522  -46.5677   11.3202 H   0  0  0  0  0  0  0  0  0  0  0  0
  -37.0031  -44.3787   14.5916 H   0  0  0  0  0  0  0  0  0  0  0  0
  -38.1982  -45.7053   14.7355 H   0  0  0  0  0  0  0  0  0  0  0  0
  -39.9976  -44.0031   14.1102 H   0  0  0  0  0  0  0  0  0  0  0  0
  -38.7481  -42.7344   14.2726 H   0  0  0  0  0  0  0  0  0  0  0  0
  -39.7634  -44.6053   16.4508 H   0  0  0  0  0  0  0  0  0  0  0  0
  -40.0823  -42.8544   16.2954 H   0  0  0  0  0  0  0  0  0  0  0  0
  -38.3423  -43.3008   17.9686 H   0  0  0  0  0  0  0  0  0  0  0  0
  -37.6794  -42.3903   16.5806 H   0  0  0  0  0  0  0  0  0  0  0  0
  -37.3600  -44.1413   16.7409 H   0  0  0  0  0  0  0  0  0  0  0  0
  -34.5016  -47.2429   12.4116 H   0  0  0  0  0  0  0  0  0  0  0  0
  -33.3385  -45.9455   12.8123 H   0  0  0  0  0  0  0  0  0  0  0  0
  -34.1292  -45.0957    9.0025 H   0  0  0  0  0  0  0  0  0  0  0  0
  -35.4303  -46.1969    9.5609 H   0  0  0  0  0  0  0  0  0  0  0  0
  -32.3258  -47.8182   10.7334 H   0  0  0  0  0  0  0  0  0  0  0  0
  -33.0631  -47.4329    9.1514 H   0  0  0  0  0  0  0  0  0  0  0  0
  -35.2197  -51.6150   11.5491 H   0  0  0  0  0  0  0  0  0  0  0  0
  -38.4670  -52.3614    9.3293 H   0  0  0  0  0  0  0  0  0  0  0  0
  -37.2042  -52.5199   10.5373 H   0  0  0  0  0  0  0  0  0  0  0  0
  -32.8060  -45.6765   10.7279 H   0  0  0  0  0  0  0  0  0  0  0  0
  1 21  1  0  0  0  0
  1 23  2  0  0  0  0
  1 24  1  0  0  0  0
  2  3  1  0  0  0  0
  2 18  1  0  0  0  0
  2 19  2  0  0  0  0
  3 21  1  0  0  0  0
  3 22  2  0  0  0  0
  4 18  2  0  0  0  0
  4 22  1  0  0  0  0
  4 25  1  0  0  0  0
  5  6  1  0  0  0  0
  5 26  1  0  0  0  0
  6  7  1  0  0  0  0
  6 16  1  0  0  0  0
  6 27  1  6  0  0  0
  7  8  1  0  0  0  0
  7 14  1  0  0  0  0
  7 28  1  1  0  0  0
  8  9  1  0  0  0  0
  8 29  1  0  0  0  0
  8 30  1  0  0  0  0
  9 10  1  0  0  0  0
 10 11  1  0  0  0  0
 10 31  1  0  0  0  0
 10 32  1  0  0  0  0
 11 12  1  0  0  0  0
 11 33  1  0  0  0  0
 11 34  1  0  0  0  0
 12 13  1  0  0  0  0
 12 35  1  0  0  0  0
 12 36  1  0  0  0  0
 13 37  1  0  0  0  0
 13 38  1  0  0  0  0
 13 39  1  0  0  0  0
 14 15  1  0  0  0  0
 14 40  1  0  0  0  0
 14 41  1  0  0  0  0
 15 16  1  0  0  0  0
 15 17  1  0  0  0  0
 15 49  1  6  0  0  0
 16 42  1  0  0  0  0
 16 43  1  0  0  0  0
 17 22  1  0  0  0  0
 17 44  1  0  0  0  0
 17 45  1  0  0  0  0
 18 46  1  0  0  0  0
 19 20  1  0  0  0  0
 19 23  1  0  0  0  0
 20 47  1  0  0  0  0
 20 48  1  0  0  0  0
M  CHG  2  15   1  18   1
M  END
$$$$
