BNZ
 OpenBabel04111922153D

 12 12  0  0  0  0  0  0  0  0999 V2000
  -32.9720    6.1961    2.8801 C   0  0  0  0  0  0  0  0  0  0  0  0
  -32.9389    7.0553    3.9783 C   0  0  0  0  0  0  0  0  0  0  0  0
  -33.7170    6.7998    5.1089 C   0  0  0  0  0  0  0  0  0  0  0  0
  -34.5371    5.6784    5.1391 C   0  0  0  0  0  0  0  0  0  0  0  0
  -34.5575    4.8138    4.0464 C   0  0  0  0  0  0  0  0  0  0  0  0
  -33.7843    5.0706    2.9142 C   0  0  0  0  0  0  0  0  0  0  0  0
  -32.3611    6.4054    2.0033 H   0  0  0  0  0  0  0  0  0  0  0  0
  -32.3024    7.9358    3.9488 H   0  0  0  0  0  0  0  0  0  0  0  0
  -33.6788    7.4732    5.9608 H   0  0  0  0  0  0  0  0  0  0  0  0
  -35.1617    5.4753    6.0067 H   0  0  0  0  0  0  0  0  0  0  0  0
  -35.1819    3.9242    4.0759 H   0  0  0  0  0  0  0  0  0  0  0  0
  -33.8252    4.3910    2.0671 H   0  0  0  0  0  0  0  0  0  0  0  0
  1  2  2  0  0  0  0
  1  6  1  0  0  0  0
  1  7  1  0  0  0  0
  2  3  1  0  0  0  0
  2  8  1  0  0  0  0
  3  4  2  0  0  0  0
  3  9  1  0  0  0  0
  4  5  1  0  0  0  0
  4 10  1  0  0  0  0
  5  6  2  0  0  0  0
  5 11  1  0  0  0  0
  6 12  1  0  0  0  0
M  END
$$$$
