BTN
 OpenBabel04111919043D

 31 32  0  0  1  0  0  0  0  0999 V2000
   38.0160  -12.7353    1.2568 C   0  0  0  0  0  0  0  0  0  0  0  0
   38.2690  -12.6675    0.0212 O   0  0  0  0  0  0  0  0  0  0  0  0
   38.2251  -13.6829    2.0664 O   0  0  0  0  0  0  0  0  0  0  0  0
   37.3653  -11.4956    1.8837 C   0  0  0  0  0  0  0  0  0  0  0  0
   37.7389  -10.1698    1.2297 C   0  0  0  0  0  0  0  0  0  0  0  0
   39.2227   -9.8684    1.4219 C   0  0  0  0  0  0  0  0  0  0  0  0
   39.6199   -8.5525    0.7595 C   0  0  0  0  0  0  0  0  0  0  0  0
   41.1171   -8.3113    0.9065 C   0  0  2  0  0  0  0  0  0  0  0  0
   41.5895   -7.4951    2.4592 S   0  0  0  0  0  0  0  0  0  0  0  0
   43.2364   -7.1533    1.8137 C   0  0  0  0  0  0  0  0  0  0  0  0
   43.0356   -6.7924    0.3386 C   0  0  2  0  0  0  0  0  0  0  0  0
   42.8484   -5.3680    0.1346 N   0  0  0  0  0  0  0  0  0  0  0  0
   41.5807   -5.0722   -0.3201 C   0  0  0  0  0  0  0  0  0  0  0  0
   41.1455   -3.9498   -0.5132 O   0  0  0  0  0  0  0  0  0  0  0  0
   40.9104   -6.2521   -0.5265 N   0  0  0  0  0  0  0  0  0  0  0  0
   41.7157   -7.4107   -0.1801 C   0  0  2  0  0  0  0  0  0  0  0  0
   37.6252  -11.4557    2.9490 H   0  0  0  0  0  0  0  0  0  0  0  0
   36.2795  -11.6301    1.8229 H   0  0  0  0  0  0  0  0  0  0  0  0
   37.1457   -9.3652    1.6805 H   0  0  0  0  0  0  0  0  0  0  0  0
   37.4923  -10.1860    0.1612 H   0  0  0  0  0  0  0  0  0  0  0  0
   39.8212  -10.6758    0.9823 H   0  0  0  0  0  0  0  0  0  0  0  0
   39.4598   -9.8394    2.4908 H   0  0  0  0  0  0  0  0  0  0  0  0
   39.0371   -7.7219    1.1765 H   0  0  0  0  0  0  0  0  0  0  0  0
   39.3690   -8.6161   -0.3069 H   0  0  0  0  0  0  0  0  0  0  0  0
   41.6560   -9.2671    0.8948 H   0  0  0  0  0  0  0  0  0  0  0  0
   43.8141   -8.0795    1.8962 H   0  0  0  0  0  0  0  0  0  0  0  0
   43.7383   -6.3679    2.3867 H   0  0  0  0  0  0  0  0  0  0  0  0
   43.8991   -7.0990   -0.2612 H   0  0  0  0  0  0  0  0  0  0  0  0
   43.4879   -4.6311    0.3906 H   0  0  0  0  0  0  0  0  0  0  0  0
   39.9547   -6.2631   -0.8476 H   0  0  0  0  0  0  0  0  0  0  0  0
   41.8740   -7.9835   -1.1028 H   0  0  0  0  0  0  0  0  0  0  0  0
  1  2  2  0  0  0  0
  1  3  1  0  0  0  0
  1  4  1  0  0  0  0
  4  5  1  0  0  0  0
  4 17  1  0  0  0  0
  4 18  1  0  0  0  0
  5  6  1  0  0  0  0
  5 19  1  0  0  0  0
  5 20  1  0  0  0  0
  6  7  1  0  0  0  0
  6 21  1  0  0  0  0
  6 22  1  0  0  0  0
  7  8  1  0  0  0  0
  7 23  1  0  0  0  0
  7 24  1  0  0  0  0
  8  9  1  0  0  0  0
  8 16  1  0  0  0  0
  8 25  1  6  0  0  0
  9 10  1  0  0  0  0
 10 11  1  0  0  0  0
 10 26  1  0  0  0  0
 10 27  1  0  0  0  0
 11 12  1  0  0  0  0
 11 16  1  0  0  0  0
 11 28  1  6  0  0  0
 12 13  1  0  0  0  0
 12 29  1  0  0  0  0
 13 14  2  0  0  0  0
 13 15  1  0  0  0  0
 15 16  1  0  0  0  0
 15 30  1  0  0  0  0
 16 31  1  6  0  0  0
M  END
$$$$
