BTN
 OpenBabel04111918083D

 31 32  0  0  1  0  0  0  0  0999 V2000
  220.1706    8.1149    6.3050 C   0  0  0  0  0  0  0  0  0  0  0  0
  220.6111    7.1325    6.9630 O   0  0  0  0  0  0  0  0  0  0  0  0
  219.8667    8.1844    5.0821 O   0  0  0  0  0  0  0  0  0  0  0  0
  219.9609    9.4186    7.0886 C   0  0  0  0  0  0  0  0  0  0  0  0
  219.7563    9.2238    8.5873 C   0  0  0  0  0  0  0  0  0  0  0  0
  218.4983    8.3982    8.8608 C   0  0  0  0  0  0  0  0  0  0  0  0
  218.0117    8.5332   10.3032 C   0  0  0  0  0  0  0  0  0  0  0  0
  216.8071    7.6274   10.5445 C   0  0  2  0  0  0  0  0  0  0  0  0
  215.2370    8.5258   10.3560 S   0  0  0  0  0  0  0  0  0  0  0  0
  214.3188    7.1986   11.1494 C   0  0  0  0  0  0  0  0  0  0  0  0
  215.2366    6.6309   12.2334 C   0  0  2  0  0  0  0  0  0  0  0  0
  214.9760    7.2335   13.5230 N   0  0  0  0  0  0  0  0  0  0  0  0
  216.0182    8.0257   13.9372 C   0  0  0  0  0  0  0  0  0  0  0  0
  216.0183    8.7230   14.9395 O   0  0  0  0  0  0  0  0  0  0  0  0
  217.0503    7.8849   13.0455 N   0  0  0  0  0  0  0  0  0  0  0  0
  216.7121    7.0027   11.9446 C   0  0  2  0  0  0  0  0  0  0  0  0
  219.0967    9.9544    6.6753 H   0  0  0  0  0  0  0  0  0  0  0  0
  220.8385   10.0531    6.9209 H   0  0  0  0  0  0  0  0  0  0  0  0
  219.6765   10.2060    9.0681 H   0  0  0  0  0  0  0  0  0  0  0  0
  220.6302    8.7240    9.0229 H   0  0  0  0  0  0  0  0  0  0  0  0
  218.7138    7.3415    8.6602 H   0  0  0  0  0  0  0  0  0  0  0  0
  217.6975    8.6969    8.1744 H   0  0  0  0  0  0  0  0  0  0  0  0
  217.7628    9.5833   10.5031 H   0  0  0  0  0  0  0  0  0  0  0  0
  218.8321    8.2613   10.9755 H   0  0  0  0  0  0  0  0  0  0  0  0
  216.7867    6.8099    9.8079 H   0  0  0  0  0  0  0  0  0  0  0  0
  214.1207    6.4392   10.3873 H   0  0  0  0  0  0  0  0  0  0  0  0
  213.3707    7.5679   11.5475 H   0  0  0  0  0  0  0  0  0  0  0  0
  215.0910    5.5520   12.3443 H   0  0  0  0  0  0  0  0  0  0  0  0
  214.0916    7.2498   14.0143 H   0  0  0  0  0  0  0  0  0  0  0  0
  217.9312    8.3610   13.1848 H   0  0  0  0  0  0  0  0  0  0  0  0
  217.3686    6.1261   12.0180 H   0  0  0  0  0  0  0  0  0  0  0  0
  1  2  2  0  0  0  0
  1  3  1  0  0  0  0
  1  4  1  0  0  0  0
  4  5  1  0  0  0  0
  4 17  1  0  0  0  0
  4 18  1  0  0  0  0
  5  6  1  0  0  0  0
  5 19  1  0  0  0  0
  5 20  1  0  0  0  0
  6  7  1  0  0  0  0
  6 21  1  0  0  0  0
  6 22  1  0  0  0  0
  7  8  1  0  0  0  0
  7 23  1  0  0  0  0
  7 24  1  0  0  0  0
  8  9  1  0  0  0  0
  8 16  1  0  0  0  0
  8 25  1  6  0  0  0
  9 10  1  0  0  0  0
 10 11  1  0  0  0  0
 10 26  1  0  0  0  0
 10 27  1  0  0  0  0
 11 12  1  0  0  0  0
 11 16  1  0  0  0  0
 11 28  1  1  0  0  0
 12 13  1  0  0  0  0
 12 29  1  0  0  0  0
 13 14  2  0  0  0  0
 13 15  1  0  0  0  0
 15 16  1  0  0  0  0
 15 30  1  0  0  0  0
 16 31  1  1  0  0  0
M  END
$$$$
