BTX
 OpenBabel04111918373D

 64 68  0  0  1  0  0  0  0  0999 V2000
   53.2495   18.0065   17.5558 P   0  0  1  0  0  0  0  0  0  0  0  0
   52.9327   18.7371   16.3062 O   0  0  0  0  0  0  0  0  0  0  0  0
   54.2114   16.9173   17.7380 O   0  0  0  0  0  0  0  0  0  0  0  0
   54.0285   19.0184   18.6187 O   0  0  0  0  0  0  0  0  0  0  0  0
   53.7524   20.3215   18.9123 C   0  0  0  0  0  0  0  0  0  0  0  0
   54.9418   21.2441   18.7928 C   0  0  1  0  0  0  0  0  0  0  0  0
   54.2481   22.5118   18.9701 O   0  0  0  0  0  0  0  0  0  0  0  0
   56.0602   21.2219   19.8299 C   0  0  1  0  0  0  0  0  0  0  0  0
   57.3300   20.7617   19.3525 O   0  0  0  0  0  0  0  0  0  0  0  0
   56.2431   22.7126   20.0782 C   0  0  1  0  0  0  0  0  0  0  0  0
   56.8771   23.3365   18.9302 O   0  0  0  0  0  0  0  0  0  0  0  0
   54.8788   23.3103   19.9753 C   0  0  2  0  0  0  0  0  0  0  0  0
   54.0466   23.3265   21.1460 N   0  3  0  0  0  0  0  0  0  0  0  0
   54.1772   22.6245   22.3117 C   0  0  0  0  0  0  0  0  0  0  0  0
   53.2248   22.8889   23.1532 N   0  0  0  0  0  0  0  0  0  0  0  0
   52.3949   23.8056   22.5040 C   0  0  0  0  0  0  0  0  0  0  0  0
   51.2034   24.5085   22.8456 C   0  0  0  0  0  0  0  0  0  0  0  0
   50.5612   24.3677   24.0593 N   0  0  0  0  0  0  0  0  0  0  0  0
   50.6703   25.3959   21.9430 N   0  0  0  0  0  0  0  0  0  0  0  0
   51.2988   25.6026   20.7620 C   0  0  0  0  0  0  0  0  0  0  0  0
   52.4404   25.0080   20.3693 N   0  0  0  0  0  0  0  0  0  0  0  0
   52.9186   24.1006   21.2657 C   0  0  0  0  0  0  0  0  0  0  0  0
   50.5629   17.4595   18.0201 C   0  0  0  0  0  0  0  0  0  0  0  0
   51.8775   17.6589   18.4607 O   0  0  0  0  0  0  0  0  0  0  0  0
   49.7255   17.1421   19.2395 C   0  0  0  0  0  0  0  0  0  0  0  0
   49.5824   16.6191   20.4413 C   0  0  0  0  0  0  0  0  0  0  0  0
   48.3230   16.9460   21.1687 C   0  0  0  0  0  0  0  0  0  0  0  0
   48.6425   16.9822   22.6172 C   0  0  0  0  0  0  0  0  0  0  0  0
   47.4539   16.4701   23.3435 C   0  0  2  0  0  0  0  0  0  0  0  0
   47.2360   17.2918   24.9198 S   0  0  0  0  0  0  0  0  0  0  0  0
   46.1018   15.9744   25.2842 C   0  0  0  0  0  0  0  0  0  0  0  0
   46.8067   14.6835   24.8759 C   0  0  2  0  0  0  0  0  0  0  0  0
   47.7795   14.2050   25.8489 N   0  0  0  0  0  0  0  0  0  0  0  0
   49.0392   14.3018   25.3941 C   0  0  0  0  0  0  0  0  0  0  0  0
   50.1264   13.9404   26.0236 O   0  0  0  0  0  0  0  0  0  0  0  0
   49.0264   14.7572   24.1101 N   0  0  0  0  0  0  0  0  0  0  0  0
   47.6635   14.9977   23.6591 C   0  0  2  0  0  0  0  0  0  0  0  0
   53.3941   20.3459   19.9410 H   0  0  0  0  0  0  0  0  0  0  0  0
   52.9800   20.6962   18.2401 H   0  0  0  0  0  0  0  0  0  0  0  0
   55.4058   21.1541   17.8010 H   0  0  0  0  0  0  0  0  0  0  0  0
   55.7808   20.6430   20.7192 H   0  0  0  0  0  0  0  0  0  0  0  0
   57.5817   21.3274   18.6099 H   0  0  0  0  0  0  0  0  0  0  0  0
   56.8002   22.9244   20.9915 H   0  0  0  0  0  0  0  0  0  0  0  0
   57.7247   22.9309   18.7479 H   0  0  0  0  0  0  0  0  0  0  0  0
   54.9524   24.3443   19.5934 H   0  0  0  0  0  0  0  0  0  0  0  0
   55.0178   21.9124   22.5117 H   0  0  0  0  0  0  0  0  0  0  0  0
   49.7239   24.9036   24.2267 H   0  0  0  0  0  0  0  0  0  0  0  0
   50.9295   23.7255   24.7397 H   0  0  0  0  0  0  0  0  0  0  0  0
   50.8483   26.3127   20.0669 H   0  0  0  0  0  0  0  0  0  0  0  0
   50.3241   16.6902   17.3116 H   0  0  0  0  0  0  0  0  0  0  0  0
   50.0316   18.4058   17.7047 H   0  0  0  0  0  0  0  0  0  0  0  0
   49.0853   18.0353   19.2394 H   0  0  0  0  0  0  0  0  0  0  0  0
   50.2941   15.9699   20.8879 H   0  0  0  0  0  0  0  0  0  0  0  0
   47.5999   16.1499   20.9293 H   0  0  0  0  0  0  0  0  0  0  0  0
   47.8776   17.9075   20.8828 H   0  0  0  0  0  0  0  0  0  0  0  0
   48.9374   17.9656   22.9563 H   0  0  0  0  0  0  0  0  0  0  0  0
   49.5055   16.3577   22.7829 H   0  0  0  0  0  0  0  0  0  0  0  0
   46.5206   16.6095   22.7858 H   0  0  0  0  0  0  0  0  0  0  0  0
   45.2258   16.1208   24.6447 H   0  0  0  0  0  0  0  0  0  0  0  0
   45.8243   15.9924   26.3416 H   0  0  0  0  0  0  0  0  0  0  0  0
   46.0740   13.8923   24.7153 H   0  0  0  0  0  0  0  0  0  0  0  0
   47.5876   13.9204   26.7833 H   0  0  0  0  0  0  0  0  0  0  0  0
   49.8802   15.0351   23.6445 H   0  0  0  0  0  0  0  0  0  0  0  0
   47.4477   14.3466   22.7958 H   0  0  0  0  0  0  0  0  0  0  0  0
  1  2  2  6  0  0  0
  1  3  1  0  0  0  0
  1  4  1  0  0  0  0
  1 24  1  0  0  0  0
  4  5  1  0  0  0  0
  5  6  1  0  0  0  0
  5 38  1  0  0  0  0
  5 39  1  0  0  0  0
  6  7  1  0  0  0  0
  6  8  1  0  0  0  0
  6 40  1  6  0  0  0
  7 12  1  0  0  0  0
  8  9  1  0  0  0  0
  8 10  1  0  0  0  0
  8 41  1  1  0  0  0
  9 42  1  0  0  0  0
 10 11  1  0  0  0  0
 10 12  1  0  0  0  0
 10 43  1  1  0  0  0
 11 44  1  0  0  0  0
 12 13  1  0  0  0  0
 12 45  1  6  0  0  0
 13 14  2  0  0  0  0
 13 22  1  0  0  0  0
 14 15  1  0  0  0  0
 14 46  1  0  0  0  0
 15 16  1  0  0  0  0
 16 17  2  0  0  0  0
 16 22  1  0  0  0  0
 17 18  1  0  0  0  0
 17 19  1  0  0  0  0
 18 47  1  0  0  0  0
 18 48  1  0  0  0  0
 19 20  2  0  0  0  0
 20 21  1  0  0  0  0
 20 49  1  0  0  0  0
 21 22  2  0  0  0  0
 23 24  1  0  0  0  0
 23 25  1  0  0  0  0
 23 50  1  0  0  0  0
 23 51  1  0  0  0  0
 25 26  2  0  0  0  0
 25 52  1  0  0  0  0
 26 27  1  0  0  0  0
 26 53  1  0  0  0  0
 27 28  1  0  0  0  0
 27 54  1  0  0  0  0
 27 55  1  0  0  0  0
 28 29  1  0  0  0  0
 28 56  1  0  0  0  0
 28 57  1  0  0  0  0
 29 30  1  0  0  0  0
 29 37  1  0  0  0  0
 29 58  1  6  0  0  0
 30 31  1  0  0  0  0
 31 32  1  0  0  0  0
 31 59  1  0  0  0  0
 31 60  1  0  0  0  0
 32 33  1  0  0  0  0
 32 37  1  0  0  0  0
 32 61  1  6  0  0  0
 33 34  1  0  0  0  0
 33 62  1  0  0  0  0
 34 35  2  0  0  0  0
 34 36  1  0  0  0  0
 36 37  1  0  0  0  0
 36 63  1  0  0  0  0
 37 64  1  6  0  0  0
M  CHG  1  13   1
M  END
$$$$
