BZI
 OpenBabel04111918383D

 15 16  0  0  0  0  0  0  0  0999 V2000
   25.3959   12.5140   11.3798 N   0  0  0  0  0  0  0  0  0  0  0  0
   25.1251   12.5122   12.6667 C   0  0  0  0  0  0  0  0  0  0  0  0
   23.9547   13.1645   12.9476 N   0  3  0  0  0  0  0  0  0  0  0  0
   23.4410   13.6169   11.7461 C   0  0  0  0  0  0  0  0  0  0  0  0
   22.2907   14.3338   11.4209 C   0  0  0  0  0  0  0  0  0  0  0  0
   22.0806   14.6257   10.0650 C   0  0  0  0  0  0  0  0  0  0  0  0
   22.9806   14.2174    9.0839 C   0  0  0  0  0  0  0  0  0  0  0  0
   24.1308   13.5009    9.4347 C   0  0  0  0  0  0  0  0  0  0  0  0
   24.3601   13.1964   10.7905 C   0  0  0  0  0  0  0  0  0  0  0  0
   25.7426   12.0544   13.4296 H   0  0  0  0  0  0  0  0  0  0  0  0
   23.5353   13.2981   13.8575 H   0  0  0  0  0  0  0  0  0  0  0  0
   21.5845   14.6553   12.1719 H   0  0  0  0  0  0  0  0  0  0  0  0
   21.1940   15.1831    9.7766 H   0  0  0  0  0  0  0  0  0  0  0  0
   22.7913   14.4555    8.0392 H   0  0  0  0  0  0  0  0  0  0  0  0
   24.8286   13.1900    8.6645 H   0  0  0  0  0  0  0  0  0  0  0  0
  1  2  1  0  0  0  0
  1  9  1  0  0  0  0
  2  3  2  0  0  0  0
  2 10  1  0  0  0  0
  3  4  1  0  0  0  0
  3 11  1  0  0  0  0
  4  5  2  0  0  0  0
  4  9  1  0  0  0  0
  5  6  1  0  0  0  0
  5 12  1  0  0  0  0
  6  7  2  0  0  0  0
  6 13  1  0  0  0  0
  7  8  1  0  0  0  0
  7 14  1  0  0  0  0
  8  9  2  0  0  0  0
  8 15  1  0  0  0  0
M  CHG  1   3   1
M  END
$$$$
