C0R
 OpenBabel04111921233D

 53 56  0  0  1  0  0  0  0  0999 V2000
   21.9289    9.8384   -7.0798 C   0  0  0  0  0  0  0  0  0  0  0  0
   21.7354   10.8986   -8.1151 C   0  0  0  0  0  0  0  0  0  0  0  0
   22.1224   10.3424   -9.4340 C   0  0  0  0  0  0  0  0  0  0  0  0
   21.9310    8.9412   -9.8148 C   0  0  0  0  0  0  0  0  0  0  0  0
   21.7332    8.0413   -8.8263 C   0  0  0  0  0  0  0  0  0  0  0  0
   21.5884    6.6104   -9.1975 C   0  0  0  0  0  0  0  0  0  0  0  0
   21.7975    5.6701   -8.0566 C   0  0  0  0  0  0  0  0  0  0  0  0
   21.2293    6.1602   -6.7542 C   0  0  2  0  0  0  0  0  0  0  0  0
   21.6178    7.5374   -6.3497 C   0  0  1  0  0  0  0  0  0  0  0  0
   21.2750    8.5378   -7.4762 C   0  0  1  0  0  0  0  0  0  0  0  0
   21.0366    7.9333   -4.9170 C   0  0  0  0  0  0  0  0  0  0  0  0
   20.5437    6.7750   -3.9627 C   0  0  0  0  0  0  0  0  0  0  0  0
   20.4889    5.3527   -4.5692 C   0  0  1  0  0  0  0  0  0  0  0  0
   21.5899    5.2709   -5.6257 C   0  0  1  0  0  0  0  0  0  0  0  0
   21.8285    3.8216   -5.8902 C   0  0  0  0  0  0  0  0  0  0  0  0
   22.0630    3.4808   -4.4375 C   0  0  0  0  0  0  0  0  0  0  0  0
   20.8618    4.1163   -3.7499 C   0  0  2  0  0  0  0  0  0  0  0  0
   19.0894    5.2705   -5.1360 C   0  0  0  0  0  0  0  0  0  0  0  0
   19.8932    8.8215   -8.0139 C   0  0  0  0  0  0  0  0  0  0  0  0
   20.0223    2.8182   -3.6970 C   0  0  0  0  0  0  0  0  0  0  0  0
   18.9282    2.3864   -4.5809 C   0  0  0  0  0  0  0  0  0  0  0  0
   22.6445   11.1179  -10.3046 O   0  0  0  0  0  0  0  0  0  0  0  0
   20.8451    9.0644   -4.5864 O   0  0  0  0  0  0  0  0  0  0  0  0
   20.4566    1.8974   -2.8900 O   0  0  0  0  0  0  0  0  0  0  0  0
   18.8800    0.9510   -4.5821 O   0  0  0  0  0  0  0  0  0  0  0  0
   21.5130   10.2346   -6.1576 H   0  0  0  0  0  0  0  0  0  0  0  0
   22.9897    9.6220   -6.9448 H   0  0  0  0  0  0  0  0  0  0  0  0
   22.3455   11.7601   -7.8663 H   0  0  0  0  0  0  0  0  0  0  0  0
   20.6926   11.2341   -8.1634 H   0  0  0  0  0  0  0  0  0  0  0  0
   21.8460    8.6374  -10.8585 H   0  0  0  0  0  0  0  0  0  0  0  0
   22.3866    6.4402   -9.9145 H   0  0  0  0  0  0  0  0  0  0  0  0
   20.6277    6.3741   -9.6796 H   0  0  0  0  0  0  0  0  0  0  0  0
   22.8680    5.4808   -7.9459 H   0  0  0  0  0  0  0  0  0  0  0  0
   21.2997    4.7253   -8.3109 H   0  0  0  0  0  0  0  0  0  0  0  0
   20.1615    6.1634   -6.9064 H   0  0  0  0  0  0  0  0  0  0  0  0
   22.7261    7.5546   -6.2463 H   0  0  0  0  0  0  0  0  0  0  0  0
   19.5040    7.0967   -3.7781 H   0  0  0  0  0  0  0  0  0  0  0  0
   21.0630    6.7542   -2.9971 H   0  0  0  0  0  0  0  0  0  0  0  0
   22.5262    5.6392   -5.1658 H   0  0  0  0  0  0  0  0  0  0  0  0
   22.7136    3.6355   -6.5044 H   0  0  0  0  0  0  0  0  0  0  0  0
   20.9691    3.3056   -6.3392 H   0  0  0  0  0  0  0  0  0  0  0  0
   22.9772    3.9598   -4.0843 H   0  0  0  0  0  0  0  0  0  0  0  0
   22.1395    2.4055   -4.3240 H   0  0  0  0  0  0  0  0  0  0  0  0
   21.0585    4.3937   -2.6986 H   0  0  0  0  0  0  0  0  0  0  0  0
   18.8422    6.1765   -5.6843 H   0  0  0  0  0  0  0  0  0  0  0  0
   18.3562    5.1723   -4.3383 H   0  0  0  0  0  0  0  0  0  0  0  0
   19.0212    4.4588   -5.8430 H   0  0  0  0  0  0  0  0  0  0  0  0
   19.9981    9.6267   -8.7922 H   0  0  0  0  0  0  0  0  0  0  0  0
   19.1940    9.2485   -7.3194 H   0  0  0  0  0  0  0  0  0  0  0  0
   19.4918    8.0048   -8.5930 H   0  0  0  0  0  0  0  0  0  0  0  0
   19.0769    2.6789   -5.6213 H   0  0  0  0  0  0  0  0  0  0  0  0
   17.9908    2.7690   -4.1755 H   0  0  0  0  0  0  0  0  0  0  0  0
   18.8464    0.6768   -3.6474 H   0  0  0  0  0  0  0  0  0  0  0  0
  1  2  1  0  0  0  0
  1 10  1  0  0  0  0
  1 26  1  0  0  0  0
  1 27  1  0  0  0  0
  2  3  1  0  0  0  0
  2 28  1  0  0  0  0
  2 29  1  0  0  0  0
  3  4  1  0  0  0  0
  3 22  2  0  0  0  0
  4  5  2  0  0  0  0
  4 30  1  0  0  0  0
  5  6  1  0  0  0  0
  5 10  1  0  0  0  0
  6  7  1  0  0  0  0
  6 31  1  0  0  0  0
  6 32  1  0  0  0  0
  7  8  1  0  0  0  0
  7 33  1  0  0  0  0
  7 34  1  0  0  0  0
  8  9  1  0  0  0  0
  8 14  1  0  0  0  0
  8 35  1  6  0  0  0
  9 10  1  0  0  0  0
  9 11  1  0  0  0  0
  9 36  1  1  0  0  0
 10 19  1  6  0  0  0
 11 12  1  0  0  0  0
 11 23  2  0  0  0  0
 12 13  1  0  0  0  0
 12 37  1  0  0  0  0
 12 38  1  0  0  0  0
 13 14  1  0  0  0  0
 13 17  1  0  0  0  0
 13 18  1  6  0  0  0
 14 15  1  0  0  0  0
 14 39  1  1  0  0  0
 15 16  1  0  0  0  0
 15 40  1  0  0  0  0
 15 41  1  0  0  0  0
 16 17  1  0  0  0  0
 16 42  1  0  0  0  0
 16 43  1  0  0  0  0
 17 20  1  0  0  0  0
 17 44  1  1  0  0  0
 18 45  1  0  0  0  0
 18 46  1  0  0  0  0
 18 47  1  0  0  0  0
 19 48  1  0  0  0  0
 19 49  1  0  0  0  0
 19 50  1  0  0  0  0
 20 21  1  0  0  0  0
 20 24  2  0  0  0  0
 21 25  1  0  0  0  0
 21 51  1  0  0  0  0
 21 52  1  0  0  0  0
 25 53  1  0  0  0  0
M  END
$$$$
