C1I
 OpenBabel04111918233D

 72 78  0  0  1  0  0  0  0  0999 V2000
    2.2144   17.8425   -2.6957 C   0  0  0  0  0  0  0  0  0  0  0  0
    2.7985   16.4688   -2.5187 N   0  3  0  0  0  0  0  0  0  0  0  0
    2.2744   15.8411   -1.2711 C   0  0  0  0  0  0  0  0  0  0  0  0
    2.5590   15.5874   -3.7350 C   0  0  1  0  0  0  0  0  0  0  0  0
    1.0619   15.4187   -3.9037 C   0  0  0  0  0  0  0  0  0  0  0  0
    0.7006   14.6127   -5.1074 C   0  0  1  0  0  0  0  0  0  0  0  0
    0.7435   13.1092   -4.8946 C   0  0  0  0  0  0  0  0  0  0  0  0
   -0.3269   12.6150   -5.8426 C   0  0  0  0  0  0  0  0  0  0  0  0
   -1.0350   13.8786   -6.3599 C   0  0  1  0  0  0  0  0  0  0  0  0
   -0.6881   14.8766   -5.3781 O   0  0  0  0  0  0  0  0  0  0  0  0
   -0.3816   14.3321   -7.6473 C   0  0  0  0  0  0  0  0  0  0  0  0
    0.9652   14.8036   -7.5299 C   0  0  0  0  0  0  0  0  0  0  0  0
    1.5236   14.9673   -6.3302 C   0  0  0  0  0  0  0  0  0  0  0  0
    2.9487   15.4151   -6.1855 C   0  0  1  0  0  0  0  0  0  0  0  0
    3.2820   16.2054   -7.3188 O   0  0  0  0  0  0  0  0  0  0  0  0
    3.1694   16.2645   -4.9608 C   0  0  2  0  0  0  0  0  0  0  0  0
    4.5681   16.4590   -4.7139 O   0  0  0  0  0  0  0  0  0  0  0  0
   -1.0324   14.3105   -8.8651 C   0  0  0  0  0  0  0  0  0  0  0  0
   -2.4499   13.8493   -9.0087 C   0  0  0  0  0  0  0  0  0  0  0  0
   -2.9620   13.0770   -7.7937 C   0  0  2  0  0  0  0  0  0  0  0  0
   -2.4505   11.6324   -7.8680 C   0  0  0  0  0  0  0  0  0  0  0  0
   -4.4792   13.0769   -7.5659 C   0  0  2  0  0  0  0  0  0  0  0  0
   -4.5907   12.5456   -6.1226 C   0  0  0  0  0  0  0  0  0  0  0  0
   -3.2983   12.9606   -5.4341 C   0  0  0  0  0  0  0  0  0  0  0  0
   -2.5442   13.7732   -6.4876 C   0  0  1  0  0  0  0  0  0  0  0  0
   -5.2728   12.3439   -8.5840 C   0  0  0  0  0  0  0  0  0  0  0  0
   -5.9412   11.1627   -8.2745 C   0  0  0  0  0  0  0  0  0  0  0  0
   -6.6903   10.5191   -9.2572 C   0  0  0  0  0  0  0  0  0  0  0  0
   -7.3667    9.3556   -8.9939 C   0  0  0  0  0  0  0  0  0  0  0  0
   -8.1110    8.6851   -9.9041 N   0  0  0  0  0  0  0  0  0  0  0  0
   -8.1607    9.2503  -11.1541 C   0  0  0  0  0  0  0  0  0  0  0  0
   -7.5206   10.4130  -11.5145 C   0  0  0  0  0  0  0  0  0  0  0  0
   -6.7653   11.0661  -10.5467 C   0  0  0  0  0  0  0  0  0  0  0  0
   -6.0990   12.2373  -10.8497 C   0  0  0  0  0  0  0  0  0  0  0  0
   -5.3578   12.8721   -9.8674 C   0  0  0  0  0  0  0  0  0  0  0  0
    2.4277   18.4186   -1.8066 H   0  0  0  0  0  0  0  0  0  0  0  0
    1.1405   17.7399   -2.8237 H   0  0  0  0  0  0  0  0  0  0  0  0
    2.6659   18.3115   -3.5634 H   0  0  0  0  0  0  0  0  0  0  0  0
    2.7250   14.8548   -1.1737 H   0  0  0  0  0  0  0  0  0  0  0  0
    1.1907   15.7744   -1.3622 H   0  0  0  0  0  0  0  0  0  0  0  0
    2.5304   16.4932   -0.4408 H   0  0  0  0  0  0  0  0  0  0  0  0
    3.0549   14.6288   -3.5386 H   0  0  0  0  0  0  0  0  0  0  0  0
    0.5913   16.4004   -3.9971 H   0  0  0  0  0  0  0  0  0  0  0  0
    0.6403   14.9512   -3.0125 H   0  0  0  0  0  0  0  0  0  0  0  0
    0.4951   12.8380   -3.8562 H   0  0  0  0  0  0  0  0  0  0  0  0
    1.7147   12.6844   -5.1300 H   0  0  0  0  0  0  0  0  0  0  0  0
   -0.9879   11.9356   -5.3222 H   0  0  0  0  0  0  0  0  0  0  0  0
    0.1071   12.0432   -6.6613 H   0  0  0  0  0  0  0  0  0  0  0  0
    1.5282   15.0127   -8.4468 H   0  0  0  0  0  0  0  0  0  0  0  0
    3.6134   14.5493   -6.1468 H   0  0  0  0  0  0  0  0  0  0  0  0
    4.2100   16.5019   -7.2580 H   0  0  0  0  0  0  0  0  0  0  0  0
    2.7144   17.2486   -5.1260 H   0  0  0  0  0  0  0  0  0  0  0  0
    4.9518   16.8922   -5.5117 H   0  0  0  0  0  0  0  0  0  0  0  0
   -0.4992   14.6474   -9.7239 H   0  0  0  0  0  0  0  0  0  0  0  0
   -2.4946   13.2076   -9.9028 H   0  0  0  0  0  0  0  0  0  0  0  0
   -3.0730   14.7311   -9.1829 H   0  0  0  0  0  0  0  0  0  0  0  0
   -2.7963   11.0445   -7.0202 H   0  0  0  0  0  0  0  0  0  0  0  0
   -1.3671   11.6059   -7.8600 H   0  0  0  0  0  0  0  0  0  0  0  0
   -2.7772   11.1330   -8.7749 H   0  0  0  0  0  0  0  0  0  0  0  0
   -4.8400   14.1174   -7.5705 H   0  0  0  0  0  0  0  0  0  0  0  0
   -4.6611   11.4483   -6.0995 H   0  0  0  0  0  0  0  0  0  0  0  0
   -5.4674   12.9411   -5.6202 H   0  0  0  0  0  0  0  0  0  0  0  0
   -2.7630   12.0536   -5.1431 H   0  0  0  0  0  0  0  0  0  0  0  0
   -3.4796   13.5168   -4.5194 H   0  0  0  0  0  0  0  0  0  0  0  0
   -2.9706   14.7934   -6.4652 H   0  0  0  0  0  0  0  0  0  0  0  0
   -5.9060   10.7364   -7.2887 H   0  0  0  0  0  0  0  0  0  0  0  0
   -7.3438    8.8803   -8.0097 H   0  0  0  0  0  0  0  0  0  0  0  0
   -8.7556    8.7084  -11.8891 H   0  0  0  0  0  0  0  0  0  0  0  0
   -7.6131   10.7922  -12.5224 H   0  0  0  0  0  0  0  0  0  0  0  0
   -6.1411   12.6819  -11.8354 H   0  0  0  0  0  0  0  0  0  0  0  0
   -4.8490   13.7963  -10.1074 H   0  0  0  0  0  0  0  0  0  0  0  0
    3.8276   16.5732   -2.4394 H   0  0  0  0  0  0  0  0  0  0  0  0
  1  2  1  0  0  0  0
  1 36  1  0  0  0  0
  1 37  1  0  0  0  0
  1 38  1  0  0  0  0
  2  3  1  0  0  0  0
  2  4  1  0  0  0  0
  2 72  1  0  0  0  0
  3 39  1  0  0  0  0
  3 40  1  0  0  0  0
  3 41  1  0  0  0  0
  4  5  1  0  0  0  0
  4 16  1  0  0  0  0
  4 42  1  1  0  0  0
  5 43  1  0  0  0  0
  5 44  1  0  0  0  0
  6  5  1  1  0  0  0
  6  7  1  0  0  0  0
  6 10  1  0  0  0  0
  6 13  1  0  0  0  0
  7  8  1  0  0  0  0
  7 45  1  0  0  0  0
  7 46  1  0  0  0  0
  8 47  1  0  0  0  0
  8 48  1  0  0  0  0
  9  8  1  1  0  0  0
  9 10  1  0  0  0  0
  9 11  1  0  0  0  0
  9 25  1  0  0  0  0
 11 12  1  0  0  0  0
 11 18  2  0  0  0  0
 12 13  2  0  0  0  0
 12 49  1  0  0  0  0
 13 14  1  0  0  0  0
 14 15  1  0  0  0  0
 14 16  1  0  0  0  0
 14 50  1  1  0  0  0
 15 51  1  0  0  0  0
 16 17  1  0  0  0  0
 16 52  1  6  0  0  0
 17 53  1  0  0  0  0
 18 19  1  0  0  0  0
 18 54  1  0  0  0  0
 19 20  1  0  0  0  0
 19 55  1  0  0  0  0
 19 56  1  0  0  0  0
 20 21  1  6  0  0  0
 20 22  1  0  0  0  0
 20 25  1  0  0  0  0
 21 57  1  0  0  0  0
 21 58  1  0  0  0  0
 21 59  1  0  0  0  0
 22 23  1  0  0  0  0
 22 26  1  0  0  0  0
 22 60  1  1  0  0  0
 23 24  1  0  0  0  0
 23 61  1  0  0  0  0
 23 62  1  0  0  0  0
 24 25  1  0  0  0  0
 24 63  1  0  0  0  0
 24 64  1  0  0  0  0
 25 65  1  6  0  0  0
 26 27  2  0  0  0  0
 26 35  1  0  0  0  0
 27 28  1  0  0  0  0
 27 66  1  0  0  0  0
 28 29  2  0  0  0  0
 28 33  1  0  0  0  0
 29 30  1  0  0  0  0
 29 67  1  0  0  0  0
 30 31  2  0  0  0  0
 31 32  1  0  0  0  0
 31 68  1  0  0  0  0
 32 33  2  0  0  0  0
 32 69  1  0  0  0  0
 33 34  1  0  0  0  0
 34 35  2  0  0  0  0
 34 70  1  0  0  0  0
 35 71  1  0  0  0  0
M  CHG  1   2   1
M  END
$$$$
