C2E
 OpenBabel04111918513D

 68 74  0  0  1  0  0  0  0  0999 V2000
   20.2835   19.9326   21.1371 P   0  0  1  0  0  0  0  0  0  0  0  0
   20.1465   19.3602   19.7520 O   0  0  0  0  0  0  0  0  0  0  0  0
   21.3707   19.4730   22.0838 O   0  0  0  0  0  0  0  0  0  0  0  0
   20.3541   21.5463   21.0285 O   0  0  0  0  0  0  0  0  0  0  0  0
   20.5081   22.2760   22.2351 C   0  0  0  0  0  0  0  0  0  0  0  0
   20.4255   23.7756   21.9626 C   0  0  1  0  0  0  0  0  0  0  0  0
   21.6410   24.2166   21.2983 O   0  0  0  0  0  0  0  0  0  0  0  0
   19.2578   24.2122   21.0807 C   0  0  1  0  0  0  0  0  0  0  0  0
   18.0683   24.3151   21.8429 O   0  0  0  0  0  0  0  0  0  0  0  0
   19.7815   25.5543   20.5710 C   0  0  1  0  0  0  0  0  0  0  0  0
   19.6634   26.5830   21.5832 O   0  0  0  0  0  0  0  0  0  0  0  0
   21.2745   25.2609   20.3699 C   0  0  2  0  0  0  0  0  0  0  0  0
   21.6402   24.8879   19.0151 N   0  3  0  0  0  0  0  0  0  0  0  0
   21.5961   23.6341   18.4582 C   0  0  0  0  0  0  0  0  0  0  0  0
   21.9587   23.6454   17.1786 N   0  0  0  0  0  0  0  0  0  0  0  0
   22.2247   24.9580   16.9161 C   0  0  0  0  0  0  0  0  0  0  0  0
   22.6502   25.5968   15.6912 C   0  0  0  0  0  0  0  0  0  0  0  0
   22.8634   25.0485   14.6065 O   0  0  0  0  0  0  0  0  0  0  0  0
   22.8350   26.9635   15.8450 N   0  3  0  0  0  0  0  0  0  0  0  0
   22.6613   27.6474   17.0283 C   0  0  0  0  0  0  0  0  0  0  0  0
   22.9475   28.9751   16.9898 N   0  0  0  0  0  0  0  0  0  0  0  0
   22.2695   27.0884   18.1440 N   0  0  0  0  0  0  0  0  0  0  0  0
   22.0627   25.7533   18.0282 C   0  0  0  0  0  0  0  0  0  0  0  0
   16.6434   24.1128   21.0939 P   0  0  1  0  0  0  0  0  0  0  0  0
   15.5519   24.5940   22.0171 O   0  0  0  0  0  0  0  0  0  0  0  0
   16.7680   24.6268   19.6823 O   0  0  0  0  0  0  0  0  0  0  0  0
   16.5914   22.4962   21.0426 O   0  0  0  0  0  0  0  0  0  0  0  0
   16.3830   21.7701   22.2455 C   0  0  0  0  0  0  0  0  0  0  0  0
   16.4786   20.2690   21.9534 C   0  0  1  0  0  0  0  0  0  0  0  0
   15.3126   19.8286   21.2049 O   0  0  0  0  0  0  0  0  0  0  0  0
   17.6942   19.8845   21.1181 C   0  0  1  0  0  0  0  0  0  0  0  0
   18.8604   19.7820   21.9069 O   0  0  0  0  0  0  0  0  0  0  0  0
   17.2445   18.5618   20.5163 C   0  0  1  0  0  0  0  0  0  0  0  0
   17.3527   17.4692   21.4537 O   0  0  0  0  0  0  0  0  0  0  0  0
   15.7603   18.8306   20.2592 C   0  0  2  0  0  0  0  0  0  0  0  0
   15.4946   19.2635   18.9030 N   0  3  0  0  0  0  0  0  0  0  0  0
   15.6000   20.5353   18.4007 C   0  0  0  0  0  0  0  0  0  0  0  0
   15.4085   20.5713   17.0959 N   0  0  0  0  0  0  0  0  0  0  0  0
   15.1944   19.2675   16.7464 C   0  0  0  0  0  0  0  0  0  0  0  0
   14.9502   18.6730   15.4558 C   0  0  0  0  0  0  0  0  0  0  0  0
   14.8775   19.2618   14.3779 O   0  0  0  0  0  0  0  0  0  0  0  0
   14.7721   17.2996   15.5349 N   0  3  0  0  0  0  0  0  0  0  0  0
   14.8065   16.5691   16.7071 C   0  0  0  0  0  0  0  0  0  0  0  0
   14.5769   15.2428   16.6039 N   0  0  0  0  0  0  0  0  0  0  0  0
   15.0377   17.0920   17.8831 N   0  0  0  0  0  0  0  0  0  0  0  0
   15.2208   18.4364   17.8455 C   0  0  0  0  0  0  0  0  0  0  0  0
   21.4913   22.0428   22.6632 H   0  0  0  0  0  0  0  0  0  0  0  0
   19.7335   21.9754   22.9475 H   0  0  0  0  0  0  0  0  0  0  0  0
   20.3760   24.2889   22.9332 H   0  0  0  0  0  0  0  0  0  0  0  0
   19.1276   23.5265   20.2339 H   0  0  0  0  0  0  0  0  0  0  0  0
   19.2725   25.9110   19.6708 H   0  0  0  0  0  0  0  0  0  0  0  0
   19.9510   27.4124   21.1684 H   0  0  0  0  0  0  0  0  0  0  0  0
   21.8907   26.1292   20.6332 H   0  0  0  0  0  0  0  0  0  0  0  0
   21.2976   22.7555   19.0107 H   0  0  0  0  0  0  0  0  0  0  0  0
   23.1294   27.4381   15.0108 H   0  0  0  0  0  0  0  0  0  0  0  0
   22.7483   29.5085   17.8248 H   0  0  0  0  0  0  0  0  0  0  0  0
   23.1632   29.4703   16.1429 H   0  0  0  0  0  0  0  0  0  0  0  0
   15.3870   22.0048   22.6360 H   0  0  0  0  0  0  0  0  0  0  0  0
   17.1368   22.0584   22.9840 H   0  0  0  0  0  0  0  0  0  0  0  0
   16.4725   19.7253   22.9082 H   0  0  0  0  0  0  0  0  0  0  0  0
   17.8472   20.6087   20.3091 H   0  0  0  0  0  0  0  0  0  0  0  0
   17.8035   18.2883   19.6161 H   0  0  0  0  0  0  0  0  0  0  0  0
   17.2203   16.6617   20.9304 H   0  0  0  0  0  0  0  0  0  0  0  0
   15.1517   17.9351   20.4408 H   0  0  0  0  0  0  0  0  0  0  0  0
   15.8361   21.3927   19.0209 H   0  0  0  0  0  0  0  0  0  0  0  0
   14.5967   16.8550   14.6530 H   0  0  0  0  0  0  0  0  0  0  0  0
   14.6774   14.6977   17.4524 H   0  0  0  0  0  0  0  0  0  0  0  0
   14.4530   14.7563   15.7302 H   0  0  0  0  0  0  0  0  0  0  0  0
  1  2  2  6  0  0  0
  1  3  1  0  0  0  0
  1  4  1  0  0  0  0
  1 32  1  0  0  0  0
  4  5  1  0  0  0  0
  5  6  1  0  0  0  0
  5 47  1  0  0  0  0
  5 48  1  0  0  0  0
  6  7  1  0  0  0  0
  6  8  1  0  0  0  0
  6 49  1  1  0  0  0
  7 12  1  0  0  0  0
  8  9  1  0  0  0  0
  8 10  1  0  0  0  0
  8 50  1  6  0  0  0
  9 24  1  0  0  0  0
 10 11  1  0  0  0  0
 10 12  1  0  0  0  0
 10 51  1  6  0  0  0
 11 52  1  0  0  0  0
 12 13  1  0  0  0  0
 12 53  1  1  0  0  0
 13 14  2  0  0  0  0
 13 23  1  0  0  0  0
 14 15  1  0  0  0  0
 14 54  1  0  0  0  0
 15 16  1  0  0  0  0
 16 17  1  0  0  0  0
 16 23  2  0  0  0  0
 17 18  2  0  0  0  0
 17 19  1  0  0  0  0
 19 20  1  0  0  0  0
 19 55  1  0  0  0  0
 20 21  1  0  0  0  0
 20 22  2  0  0  0  0
 21 56  1  0  0  0  0
 21 57  1  0  0  0  0
 22 23  1  0  0  0  0
 24 25  2  1  0  0  0
 24 26  1  0  0  0  0
 24 27  1  0  0  0  0
 27 28  1  0  0  0  0
 28 29  1  0  0  0  0
 28 58  1  0  0  0  0
 28 59  1  0  0  0  0
 29 30  1  0  0  0  0
 29 31  1  0  0  0  0
 29 60  1  1  0  0  0
 30 35  1  0  0  0  0
 31 32  1  0  0  0  0
 31 33  1  0  0  0  0
 31 61  1  6  0  0  0
 33 34  1  0  0  0  0
 33 35  1  0  0  0  0
 33 62  1  6  0  0  0
 34 63  1  0  0  0  0
 35 36  1  0  0  0  0
 35 64  1  1  0  0  0
 36 37  2  0  0  0  0
 36 46  1  0  0  0  0
 37 38  1  0  0  0  0
 37 65  1  0  0  0  0
 38 39  1  0  0  0  0
 39 40  1  0  0  0  0
 39 46  2  0  0  0  0
 40 41  2  0  0  0  0
 40 42  1  0  0  0  0
 42 43  1  0  0  0  0
 42 66  1  0  0  0  0
 43 44  1  0  0  0  0
 43 45  2  0  0  0  0
 44 67  1  0  0  0  0
 44 68  1  0  0  0  0
 45 46  1  0  0  0  0
M  CHG  4  13   1  19   1  36   1  42   1
M  END
$$$$
