C2E
 OpenBabel04111918483D

 68 74  0  0  1  0  0  0  0  0999 V2000
   17.2373    3.3554   13.6947 P   0  0  2  0  0  0  0  0  0  0  0  0
   18.5956    2.7744   13.9497 O   0  0  0  0  0  0  0  0  0  0  0  0
   16.8003    4.6500   14.3368 O   0  0  0  0  0  0  0  0  0  0  0  0
   16.0907    2.2452   13.9659 O   0  0  0  0  0  0  0  0  0  0  0  0
   16.2384    0.9177   13.4954 C   0  0  0  0  0  0  0  0  0  0  0  0
   14.9307    0.1386   13.7041 C   0  0  1  0  0  0  0  0  0  0  0  0
   14.7367   -0.1102   15.1314 O   0  0  0  0  0  0  0  0  0  0  0  0
   13.6671    0.8468   13.1992 C   0  0  1  0  0  0  0  0  0  0  0  0
   13.3634    0.5605   11.8393 O   0  0  0  0  0  0  0  0  0  0  0  0
   12.6128    0.2452   14.1064 C   0  0  1  0  0  0  0  0  0  0  0  0
   12.2629   -1.0921   13.6703 O   0  0  0  0  0  0  0  0  0  0  0  0
   13.3319    0.1329   15.4419 C   0  0  2  0  0  0  0  0  0  0  0  0
   13.1680    1.3234   16.2777 N   0  3  0  0  0  0  0  0  0  0  0  0
   14.1510    2.2374   16.5813 C   0  0  0  0  0  0  0  0  0  0  0  0
   13.6882    3.2136   17.3520 N   0  0  0  0  0  0  0  0  0  0  0  0
   12.3222    2.9555   17.5030 C   0  0  0  0  0  0  0  0  0  0  0  0
   11.3112    3.6525   18.2767 C   0  0  0  0  0  0  0  0  0  0  0  0
   11.4651    4.6924   18.9306 O   0  0  0  0  0  0  0  0  0  0  0  0
   10.0623    2.9969   18.2148 N   0  3  0  0  0  0  0  0  0  0  0  0
    9.8343    1.8424   17.5198 C   0  0  0  0  0  0  0  0  0  0  0  0
    8.5669    1.3718   17.5872 N   0  0  0  0  0  0  0  0  0  0  0  0
   10.7636    1.1884   16.8511 N   0  0  0  0  0  0  0  0  0  0  0  0
   11.9956    1.7665   16.8863 C   0  0  0  0  0  0  0  0  0  0  0  0
   12.4889    1.6361   10.9857 P   0  0  1  0  0  0  0  0  0  0  0  0
   12.1900    1.0265    9.6404 O   0  0  0  0  0  0  0  0  0  0  0  0
   11.3855    2.1775   11.8535 O   0  0  0  0  0  0  0  0  0  0  0  0
   13.6009    2.7842   10.7909 O   0  0  0  0  0  0  0  0  0  0  0  0
   14.8020    2.5079   10.0988 C   0  0  0  0  0  0  0  0  0  0  0  0
   15.6709    3.7649   10.1480 C   0  0  1  0  0  0  0  0  0  0  0  0
   14.9682    4.8852    9.5406 O   0  0  0  0  0  0  0  0  0  0  0  0
   15.9765    4.1853   11.5789 C   0  0  1  0  0  0  0  0  0  0  0  0
   17.1119    3.5208   12.0845 O   0  0  0  0  0  0  0  0  0  0  0  0
   16.2034    5.6737   11.4427 C   0  0  1  0  0  0  0  0  0  0  0  0
   17.5245    5.9701   10.9344 O   0  0  0  0  0  0  0  0  0  0  0  0
   15.1642    6.0550   10.3957 C   0  0  2  0  0  0  0  0  0  0  0  0
   13.9082    6.5159   11.0039 N   0  3  0  0  0  0  0  0  0  0  0  0
   12.7325    5.8115   11.0968 C   0  0  0  0  0  0  0  0  0  0  0  0
   11.7852    6.5070   11.7189 N   0  0  0  0  0  0  0  0  0  0  0  0
   12.3828    7.6889   12.0742 C   0  0  0  0  0  0  0  0  0  0  0  0
   11.8676    8.8643   12.7775 C   0  0  0  0  0  0  0  0  0  0  0  0
   10.7013    9.0171   13.2011 O   0  0  0  0  0  0  0  0  0  0  0  0
   12.8097    9.8924   12.9262 N   0  3  0  0  0  0  0  0  0  0  0  0
   14.0979    9.7936   12.4509 C   0  0  0  0  0  0  0  0  0  0  0  0
   14.8856   10.8725   12.6564 N   0  0  0  0  0  0  0  0  0  0  0  0
   14.5754    8.7497   11.8063 N   0  0  0  0  0  0  0  0  0  0  0  0
   13.6911    7.7308   11.6418 C   0  0  0  0  0  0  0  0  0  0  0  0
   17.0484    0.4256   14.0473 H   0  0  0  0  0  0  0  0  0  0  0  0
   16.4825    0.9325   12.4316 H   0  0  0  0  0  0  0  0  0  0  0  0
   15.0418   -0.8376   13.2125 H   0  0  0  0  0  0  0  0  0  0  0  0
   13.7488    1.9266   13.3614 H   0  0  0  0  0  0  0  0  0  0  0  0
   11.7079    0.8521   14.1706 H   0  0  0  0  0  0  0  0  0  0  0  0
   11.9683   -0.9854   12.7446 H   0  0  0  0  0  0  0  0  0  0  0  0
   12.9741   -0.7375   16.0114 H   0  0  0  0  0  0  0  0  0  0  0  0
   15.1765    2.1523   16.2364 H   0  0  0  0  0  0  0  0  0  0  0  0
    9.3288    3.4632   18.7186 H   0  0  0  0  0  0  0  0  0  0  0  0
    8.3370    0.5317   17.0631 H   0  0  0  0  0  0  0  0  0  0  0  0
    7.8182    1.8426   18.0728 H   0  0  0  0  0  0  0  0  0  0  0  0
   14.5892    2.2349    9.0604 H   0  0  0  0  0  0  0  0  0  0  0  0
   15.3185    1.6817   10.5925 H   0  0  0  0  0  0  0  0  0  0  0  0
   16.5941    3.5754    9.5805 H   0  0  0  0  0  0  0  0  0  0  0  0
   15.1064    3.9977   12.2168 H   0  0  0  0  0  0  0  0  0  0  0  0
   16.0537    6.2120   12.3808 H   0  0  0  0  0  0  0  0  0  0  0  0
   18.1410    5.5664   11.5774 H   0  0  0  0  0  0  0  0  0  0  0  0
   15.5399    6.8519    9.7406 H   0  0  0  0  0  0  0  0  0  0  0  0
   12.5996    4.8134   10.6883 H   0  0  0  0  0  0  0  0  0  0  0  0
   12.4927   10.7065   13.4100 H   0  0  0  0  0  0  0  0  0  0  0  0
   15.8519   10.8168   12.3351 H   0  0  0  0  0  0  0  0  0  0  0  0
   14.5968   11.6988   13.1490 H   0  0  0  0  0  0  0  0  0  0  0  0
  1  2  2  1  0  0  0
  1  3  1  0  0  0  0
  1  4  1  0  0  0  0
  1 32  1  0  0  0  0
  4  5  1  0  0  0  0
  5  6  1  0  0  0  0
  5 47  1  0  0  0  0
  5 48  1  0  0  0  0
  6  7  1  0  0  0  0
  6  8  1  0  0  0  0
  6 49  1  6  0  0  0
  7 12  1  0  0  0  0
  8  9  1  0  0  0  0
  8 10  1  0  0  0  0
  8 50  1  1  0  0  0
  9 24  1  0  0  0  0
 10 11  1  0  0  0  0
 10 12  1  0  0  0  0
 10 51  1  1  0  0  0
 11 52  1  0  0  0  0
 12 13  1  0  0  0  0
 12 53  1  1  0  0  0
 13 14  2  0  0  0  0
 13 23  1  0  0  0  0
 14 15  1  0  0  0  0
 14 54  1  0  0  0  0
 15 16  1  0  0  0  0
 16 17  1  0  0  0  0
 16 23  2  0  0  0  0
 17 18  2  0  0  0  0
 17 19  1  0  0  0  0
 19 20  1  0  0  0  0
 19 55  1  0  0  0  0
 20 21  1  0  0  0  0
 20 22  2  0  0  0  0
 21 56  1  0  0  0  0
 21 57  1  0  0  0  0
 22 23  1  0  0  0  0
 24 25  2  6  0  0  0
 24 26  1  0  0  0  0
 24 27  1  0  0  0  0
 27 28  1  0  0  0  0
 28 29  1  0  0  0  0
 28 58  1  0  0  0  0
 28 59  1  0  0  0  0
 29 30  1  0  0  0  0
 29 31  1  0  0  0  0
 29 60  1  6  0  0  0
 30 35  1  0  0  0  0
 31 32  1  0  0  0  0
 31 33  1  0  0  0  0
 31 61  1  1  0  0  0
 33 34  1  0  0  0  0
 33 35  1  0  0  0  0
 33 62  1  1  0  0  0
 34 63  1  0  0  0  0
 35 36  1  0  0  0  0
 35 64  1  6  0  0  0
 36 37  2  0  0  0  0
 36 46  1  0  0  0  0
 37 38  1  0  0  0  0
 37 65  1  0  0  0  0
 38 39  1  0  0  0  0
 39 40  1  0  0  0  0
 39 46  2  0  0  0  0
 40 41  2  0  0  0  0
 40 42  1  0  0  0  0
 42 43  1  0  0  0  0
 42 66  1  0  0  0  0
 43 44  1  0  0  0  0
 43 45  2  0  0  0  0
 44 67  1  0  0  0  0
 44 68  1  0  0  0  0
 45 46  1  0  0  0  0
M  CHG  4  13   1  19   1  36   1  42   1
M  END
$$$$
