C56
 OpenBabel04111917463D

 52 53  0  0  1  0  0  0  0  0999 V2000
   29.8830   21.6206   10.1406 O   0  0  0  0  0  0  0  0  0  0  0  0
   30.6774   22.5354   10.3681 C   0  0  0  0  0  0  0  0  0  0  0  0
   31.9221   22.7015    9.5046 C   0  0  0  0  0  0  0  0  0  0  0  0
   32.9846   23.5631    9.7422 C   0  0  0  0  0  0  0  0  0  0  0  0
   32.8710   24.3286   10.8760 O   0  0  0  0  0  0  0  0  0  0  0  0
   33.9233   25.2156   11.2191 C   0  0  0  0  0  0  0  0  0  0  0  0
   34.1052   23.6338    8.8427 C   0  0  0  0  0  0  0  0  0  0  0  0
   34.2484   22.8558    7.6353 C   0  0  0  0  0  0  0  0  0  0  0  0
   35.4075   23.1022    6.8885 N   0  0  0  0  0  0  0  0  0  0  0  0
   36.3524   24.1596    7.2771 C   0  0  0  0  0  0  0  0  0  0  0  0
   35.7977   22.5625    5.5939 C   0  0  0  0  0  0  0  0  0  0  0  0
   33.1543   21.9702    7.4334 C   0  0  0  0  0  0  0  0  0  0  0  0
   32.9650   20.9796    6.3440 N   0  0  0  0  0  0  0  0  0  0  0  0
   33.9050   20.3217    5.9330 O   0  0  0  0  0  0  0  0  0  0  0  0
   31.7658   20.7551    6.0089 O   0  0  0  0  0  0  0  0  0  0  0  0
   32.0389   21.9044    8.3533 C   0  0  0  0  0  0  0  0  0  0  0  0
   30.4278   23.3434   11.4770 N   0  0  0  0  0  0  0  0  0  0  0  0
   29.2032   23.2444   12.3076 C   0  0  0  0  0  0  0  0  0  0  0  0
   29.2508   22.1897   13.4570 C   0  0  1  0  0  0  0  0  0  0  0  0
   27.9834   22.2315   14.3379 C   0  0  0  0  0  0  0  0  0  0  0  0
   27.4758   20.8159   14.5092 C   0  0  0  0  0  0  0  0  0  0  0  0
   28.1318   19.9877   13.4354 C   0  0  0  0  0  0  0  0  0  0  0  0
   29.2596   20.7780   12.8529 N   0  3  2  0  0  0  0  0  0  0  0  0
   30.5607   20.0058   12.8832 C   0  0  0  0  0  0  0  0  0  0  0  0
   30.6023   18.8860   11.8530 C   0  0  0  0  0  0  0  0  0  0  0  0
   33.6183   25.7176   12.1454 H   0  0  0  0  0  0  0  0  0  0  0  0
   34.0706   25.9772   10.4474 H   0  0  0  0  0  0  0  0  0  0  0  0
   34.8517   24.6696   11.4122 H   0  0  0  0  0  0  0  0  0  0  0  0
   34.8723   24.3378    9.1017 H   0  0  0  0  0  0  0  0  0  0  0  0
   37.1927   24.2118    6.5696 H   0  0  0  0  0  0  0  0  0  0  0  0
   36.7821   23.9627    8.2657 H   0  0  0  0  0  0  0  0  0  0  0  0
   35.8641   25.1418    7.2701 H   0  0  0  0  0  0  0  0  0  0  0  0
   35.1584   21.7894    5.2253 H   0  0  0  0  0  0  0  0  0  0  0  0
   36.8223   22.1571    5.6493 H   0  0  0  0  0  0  0  0  0  0  0  0
   35.8119   23.3621    4.8374 H   0  0  0  0  0  0  0  0  0  0  0  0
   31.2366   21.2072    8.1301 H   0  0  0  0  0  0  0  0  0  0  0  0
   31.0918   24.0982   11.6824 H   0  0  0  0  0  0  0  0  0  0  0  0
   28.3598   22.9924   11.6430 H   0  0  0  0  0  0  0  0  0  0  0  0
   28.9968   24.2287   12.7456 H   0  0  0  0  0  0  0  0  0  0  0  0
   30.1475   22.3153   14.0804 H   0  0  0  0  0  0  0  0  0  0  0  0
   27.1996   22.8469   13.8785 H   0  0  0  0  0  0  0  0  0  0  0  0
   28.1952   22.6651   15.3260 H   0  0  0  0  0  0  0  0  0  0  0  0
   26.3808   20.7613   14.4031 H   0  0  0  0  0  0  0  0  0  0  0  0
   27.7123   20.4176   15.5059 H   0  0  0  0  0  0  0  0  0  0  0  0
   27.4468   19.7534   12.6272 H   0  0  0  0  0  0  0  0  0  0  0  0
   28.5471   19.0705   13.8588 H   0  0  0  0  0  0  0  0  0  0  0  0
   30.6417   19.5672   13.8832 H   0  0  0  0  0  0  0  0  0  0  0  0
   31.3871   20.6901   12.7023 H   0  0  0  0  0  0  0  0  0  0  0  0
   31.5510   18.3421   11.9521 H   0  0  0  0  0  0  0  0  0  0  0  0
   30.5479   19.2792   10.8334 H   0  0  0  0  0  0  0  0  0  0  0  0
   29.7891   18.1678   11.9970 H   0  0  0  0  0  0  0  0  0  0  0  0
   29.0708   20.9342   11.8370 H   0  0  0  0  0  0  0  0  0  0  0  0
  1  2  2  0  0  0  0
  2  3  1  0  0  0  0
  2 17  1  0  0  0  0
  3  4  2  0  0  0  0
  3 16  1  0  0  0  0
  4  5  1  0  0  0  0
  4  7  1  0  0  0  0
  5  6  1  0  0  0  0
  6 26  1  0  0  0  0
  6 27  1  0  0  0  0
  6 28  1  0  0  0  0
  7  8  2  0  0  0  0
  7 29  1  0  0  0  0
  8  9  1  0  0  0  0
  8 12  1  0  0  0  0
  9 10  1  0  0  0  0
  9 11  1  0  0  0  0
 10 30  1  0  0  0  0
 10 31  1  0  0  0  0
 10 32  1  0  0  0  0
 11 33  1  0  0  0  0
 11 34  1  0  0  0  0
 11 35  1  0  0  0  0
 12 13  1  0  0  0  0
 12 16  2  0  0  0  0
 13 14  2  0  0  0  0
 13 15  2  0  0  0  0
 16 36  1  0  0  0  0
 17 18  1  0  0  0  0
 17 37  1  0  0  0  0
 18 19  1  0  0  0  0
 18 38  1  0  0  0  0
 18 39  1  0  0  0  0
 19 20  1  0  0  0  0
 19 23  1  0  0  0  0
 19 40  1  1  0  0  0
 20 21  1  0  0  0  0
 20 41  1  0  0  0  0
 20 42  1  0  0  0  0
 21 22  1  0  0  0  0
 21 43  1  0  0  0  0
 21 44  1  0  0  0  0
 22 23  1  0  0  0  0
 22 45  1  0  0  0  0
 22 46  1  0  0  0  0
 23 24  1  0  0  0  0
 23 52  1  6  0  0  0
 24 25  1  0  0  0  0
 24 47  1  0  0  0  0
 24 48  1  0  0  0  0
 25 49  1  0  0  0  0
 25 50  1  0  0  0  0
 25 51  1  0  0  0  0
M  CHG  1  23   1
M  END
$$$$
