C57
 OpenBabel04111917463D

 52 53  0  0  1  0  0  0  0  0999 V2000
   30.5406   21.0070   11.1727 O   0  0  0  0  0  0  0  0  0  0  0  0
   31.0129   22.1646   10.9913 C   0  0  0  0  0  0  0  0  0  0  0  0
   32.0035   22.3759    9.8747 C   0  0  0  0  0  0  0  0  0  0  0  0
   33.0635   23.2963    9.9693 C   0  0  0  0  0  0  0  0  0  0  0  0
   33.1659   24.0468   11.1186 O   0  0  0  0  0  0  0  0  0  0  0  0
   34.2189   25.0195   11.1331 C   0  0  0  0  0  0  0  0  0  0  0  0
   33.9911   23.4282    8.9076 C   0  0  0  0  0  0  0  0  0  0  0  0
   33.9458   22.6826    7.6962 C   0  0  0  0  0  0  0  0  0  0  0  0
   34.9365   22.9654    6.7512 N   0  0  0  0  0  0  0  0  0  0  0  0
   36.0730   23.8646    7.0751 C   0  0  0  0  0  0  0  0  0  0  0  0
   34.9401   22.4543    5.3796 C   0  0  0  0  0  0  0  0  0  0  0  0
   32.8481   21.7502    7.6333 C   0  0  0  0  0  0  0  0  0  0  0  0
   32.5884   20.8618    6.4775 N   0  0  0  0  0  0  0  0  0  0  0  0
   31.5834   21.0582    5.7932 O   0  0  0  0  0  0  0  0  0  0  0  0
   33.4145   19.9337    6.3010 O   0  0  0  0  0  0  0  0  0  0  0  0
   31.9071   21.5833    8.7016 C   0  0  0  0  0  0  0  0  0  0  0  0
   30.5211   23.2045   11.7559 N   0  0  0  0  0  0  0  0  0  0  0  0
   29.6261   23.0419   12.9168 C   0  0  0  0  0  0  0  0  0  0  0  0
   27.7310   20.9355   14.2637 C   0  0  0  0  0  0  0  0  0  0  0  0
   27.4711   22.3960   13.9999 C   0  0  0  0  0  0  0  0  0  0  0  0
   28.1333   22.6780   12.6659 C   0  0  2  0  0  0  0  0  0  0  0  0
   27.9939   21.3908   11.9118 N   0  3  2  0  0  0  0  0  0  0  0  0
   27.1316   21.2309   10.7053 C   0  0  0  0  0  0  0  0  0  0  0  0
   27.8339   20.2880   12.9125 C   0  0  0  0  0  0  0  0  0  0  0  0
   27.6266   21.9941    9.4968 C   0  0  0  0  0  0  0  0  0  0  0  0
   34.1914   25.5463   12.0905 H   0  0  0  0  0  0  0  0  0  0  0  0
   34.0696   25.7498   10.3250 H   0  0  0  0  0  0  0  0  0  0  0  0
   35.1982   24.5314   11.0309 H   0  0  0  0  0  0  0  0  0  0  0  0
   34.7835   24.1655    9.0184 H   0  0  0  0  0  0  0  0  0  0  0  0
   36.7703   23.9947    6.2324 H   0  0  0  0  0  0  0  0  0  0  0  0
   36.6529   23.4649    7.9225 H   0  0  0  0  0  0  0  0  0  0  0  0
   35.7111   24.8701    7.3453 H   0  0  0  0  0  0  0  0  0  0  0  0
   34.0900   21.8264    5.1951 H   0  0  0  0  0  0  0  0  0  0  0  0
   35.8393   21.8621    5.1622 H   0  0  0  0  0  0  0  0  0  0  0  0
   34.8781   23.2636    4.6396 H   0  0  0  0  0  0  0  0  0  0  0  0
   31.1042   20.8369    8.6028 H   0  0  0  0  0  0  0  0  0  0  0  0
   30.9176   24.1367   11.6253 H   0  0  0  0  0  0  0  0  0  0  0  0
   29.5936   23.9981   13.4529 H   0  0  0  0  0  0  0  0  0  0  0  0
   30.0582   22.2774   13.5721 H   0  0  0  0  0  0  0  0  0  0  0  0
   26.9107   20.4902   14.8276 H   0  0  0  0  0  0  0  0  0  0  0  0
   28.6677   20.8012   14.8139 H   0  0  0  0  0  0  0  0  0  0  0  0
   27.9036   23.0090   14.7969 H   0  0  0  0  0  0  0  0  0  0  0  0
   26.3973   22.5844   13.9321 H   0  0  0  0  0  0  0  0  0  0  0  0
   27.6299   23.4779   12.1379 H   0  0  0  0  0  0  0  0  0  0  0  0
   26.1173   21.5350   10.9545 H   0  0  0  0  0  0  0  0  0  0  0  0
   27.1670   20.1619   10.4729 H   0  0  0  0  0  0  0  0  0  0  0  0
   26.9397   19.7118   12.6792 H   0  0  0  0  0  0  0  0  0  0  0  0
   28.7342   19.6777   12.8329 H   0  0  0  0  0  0  0  0  0  0  0  0
   26.9635   21.7753    8.6478 H   0  0  0  0  0  0  0  0  0  0  0  0
   28.6409   21.6955    9.2140 H   0  0  0  0  0  0  0  0  0  0  0  0
   27.6057   23.0715    9.6766 H   0  0  0  0  0  0  0  0  0  0  0  0
   28.9317   21.2344   11.5528 H   0  0  0  0  0  0  0  0  0  0  0  0
  1  2  2  0  0  0  0
  2  3  1  0  0  0  0
  2 17  1  0  0  0  0
  3  4  2  0  0  0  0
  3 16  1  0  0  0  0
  4  5  1  0  0  0  0
  4  7  1  0  0  0  0
  5  6  1  0  0  0  0
  6 26  1  0  0  0  0
  6 27  1  0  0  0  0
  6 28  1  0  0  0  0
  7  8  2  0  0  0  0
  7 29  1  0  0  0  0
  8  9  1  0  0  0  0
  8 12  1  0  0  0  0
  9 10  1  0  0  0  0
  9 11  1  0  0  0  0
 10 30  1  0  0  0  0
 10 31  1  0  0  0  0
 10 32  1  0  0  0  0
 11 33  1  0  0  0  0
 11 34  1  0  0  0  0
 11 35  1  0  0  0  0
 12 13  1  0  0  0  0
 12 16  2  0  0  0  0
 13 14  2  0  0  0  0
 13 15  2  0  0  0  0
 16 36  1  0  0  0  0
 17 18  1  0  0  0  0
 17 37  1  0  0  0  0
 18 21  1  0  0  0  0
 18 38  1  0  0  0  0
 18 39  1  0  0  0  0
 19 20  1  0  0  0  0
 19 24  1  0  0  0  0
 19 40  1  0  0  0  0
 19 41  1  0  0  0  0
 20 21  1  0  0  0  0
 20 42  1  0  0  0  0
 20 43  1  0  0  0  0
 21 22  1  0  0  0  0
 21 44  1  6  0  0  0
 22 23  1  0  0  0  0
 22 24  1  0  0  0  0
 22 52  1  6  0  0  0
 23 25  1  0  0  0  0
 23 45  1  0  0  0  0
 23 46  1  0  0  0  0
 24 47  1  0  0  0  0
 24 48  1  0  0  0  0
 25 49  1  0  0  0  0
 25 50  1  0  0  0  0
 25 51  1  0  0  0  0
M  CHG  1  22   1
M  END
$$$$
