C5I
 OpenBabel04111919203D

 38 41  0  0  1  0  0  0  0  0999 V2000
   16.8896    2.7201    0.8059 C   0  0  0  0  0  0  0  0  0  0  0  0
   17.7228    1.6229    0.9941 C   0  0  0  0  0  0  0  0  0  0  0  0
   17.1112    0.5068    0.4462 N   0  3  0  0  0  0  0  0  0  0  0  0
   15.8799    0.8919   -0.0819 C   0  0  0  0  0  0  0  0  0  0  0  0
   15.7212    2.2522    0.1308 C   0  0  0  0  0  0  0  0  0  0  0  0
   14.5513    2.8512   -0.2932 C   0  0  0  0  0  0  0  0  0  0  0  0
   13.5602    2.1017   -0.9069 C   0  0  0  0  0  0  0  0  0  0  0  0
   13.7914    0.7357   -1.1021 C   0  0  0  0  0  0  0  0  0  0  0  0
   14.9539    0.1116   -0.6915 N   0  0  0  0  0  0  0  0  0  0  0  0
   12.4789    2.9043   -1.1969 N   0  0  0  0  0  0  0  0  0  0  0  0
   12.7536    4.1291   -0.7350 N   0  0  0  0  0  0  0  0  0  0  0  0
   14.0383    4.1055   -0.2304 N   0  3  0  0  0  0  0  0  0  0  0  0
   14.6117    5.2552    0.4615 C   0  0  2  0  0  0  0  0  0  0  0  0
   14.3975    5.0565    1.9823 C   0  0  0  0  0  0  0  0  0  0  0  0
   15.0020    6.1887    2.8105 C   0  0  0  0  0  0  0  0  0  0  0  0
   14.4074    7.5077    2.3344 C   0  0  0  0  0  0  0  0  0  0  0  0
   14.6461    7.6560    0.8995 N   0  0  0  0  0  0  0  0  0  0  0  0
   14.0608    6.6142    0.0200 C   0  0  0  0  0  0  0  0  0  0  0  0
   15.5368    8.5784    0.3595 C   0  0  0  0  0  0  0  0  0  0  0  0
   15.7573    8.6036   -0.8490 O   0  0  0  0  0  0  0  0  0  0  0  0
   16.1854    9.5735    1.2988 C   0  0  0  0  0  0  0  0  0  0  0  0
   17.2571   10.2902    0.6380 C   0  0  0  0  0  0  0  0  0  0  0  0
   18.1393   10.8832    0.1184 N   0  0  0  0  0  0  0  0  0  0  0  0
   17.1519    3.7156    1.1468 H   0  0  0  0  0  0  0  0  0  0  0  0
   18.6982    1.5941    1.4795 H   0  0  0  0  0  0  0  0  0  0  0  0
   17.5057   -0.4358    0.4407 H   0  0  0  0  0  0  0  0  0  0  0  0
   13.0523    0.0981   -1.5849 H   0  0  0  0  0  0  0  0  0  0  0  0
   15.7009    5.2642    0.2558 H   0  0  0  0  0  0  0  0  0  0  0  0
   14.8386    4.1034    2.2970 H   0  0  0  0  0  0  0  0  0  0  0  0
   13.3154    5.0151    2.1822 H   0  0  0  0  0  0  0  0  0  0  0  0
   16.0940    6.1937    2.6752 H   0  0  0  0  0  0  0  0  0  0  0  0
   14.7862    6.0295    3.8760 H   0  0  0  0  0  0  0  0  0  0  0  0
   14.8547    8.3420    2.8792 H   0  0  0  0  0  0  0  0  0  0  0  0
   13.3233    7.5268    2.5178 H   0  0  0  0  0  0  0  0  0  0  0  0
   12.9648    6.6371    0.1225 H   0  0  0  0  0  0  0  0  0  0  0  0
   14.3027    6.8096   -1.0387 H   0  0  0  0  0  0  0  0  0  0  0  0
   16.5981    9.0475    2.1650 H   0  0  0  0  0  0  0  0  0  0  0  0
   15.4234   10.2887    1.6277 H   0  0  0  0  0  0  0  0  0  0  0  0
  1  2  1  0  0  0  0
  1  5  2  0  0  0  0
  1 24  1  0  0  0  0
  2  3  2  0  0  0  0
  2 25  1  0  0  0  0
  3  4  1  0  0  0  0
  3 26  1  0  0  0  0
  4  5  1  0  0  0  0
  4  9  2  0  0  0  0
  5  6  1  0  0  0  0
  6  7  1  0  0  0  0
  6 12  2  0  0  0  0
  7  8  2  0  0  0  0
  7 10  1  0  0  0  0
  8  9  1  0  0  0  0
  8 27  1  0  0  0  0
 10 11  1  0  0  0  0
 11 12  1  0  0  0  0
 12 13  1  0  0  0  0
 13 14  1  0  0  0  0
 13 18  1  0  0  0  0
 13 28  1  6  0  0  0
 14 15  1  0  0  0  0
 14 29  1  0  0  0  0
 14 30  1  0  0  0  0
 15 16  1  0  0  0  0
 15 31  1  0  0  0  0
 15 32  1  0  0  0  0
 16 17  1  0  0  0  0
 16 33  1  0  0  0  0
 16 34  1  0  0  0  0
 17 18  1  0  0  0  0
 17 19  1  0  0  0  0
 18 35  1  0  0  0  0
 18 36  1  0  0  0  0
 19 20  2  0  0  0  0
 19 21  1  0  0  0  0
 21 22  1  0  0  0  0
 21 37  1  0  0  0  0
 21 38  1  0  0  0  0
 22 23  3  0  0  0  0
M  CHG  2   3   1  12   1
M  END
$$$$
