C5P
 OpenBabel04111919003D

 33 34  0  0  1  0  0  0  0  0999 V2000
   25.9015   34.2801   36.9671 O   0  0  0  0  0  0  0  0  0  0  0  0
   25.4896   34.5399   38.4072 P   0  0  0  0  0  0  0  0  0  0  0  0
   24.0314   34.3034   38.7090 O   0  0  0  0  0  0  0  0  0  0  0  0
   26.0756   35.8217   38.9927 O   0  0  0  0  0  0  0  0  0  0  0  0
   26.2349   33.3398   39.2517 O   0  0  0  0  0  0  0  0  0  0  0  0
   27.5815   33.5119   39.6690 C   0  0  0  0  0  0  0  0  0  0  0  0
   28.1441   32.1587   40.1817 C   0  0  1  0  0  0  0  0  0  0  0  0
   27.7723   31.0656   39.2916 O   0  0  0  0  0  0  0  0  0  0  0  0
   29.6832   32.1309   40.3256 C   0  0  1  0  0  0  0  0  0  0  0  0
   30.1791   32.0520   41.6725 O   0  0  0  0  0  0  0  0  0  0  0  0
   30.1228   30.9683   39.4109 C   0  0  1  0  0  0  0  0  0  0  0  0
   31.2232   30.1919   39.8884 O   0  0  0  0  0  0  0  0  0  0  0  0
   28.8459   30.1415   39.1538 C   0  0  2  0  0  0  0  0  0  0  0  0
   28.7810   29.4739   37.8096 N   0  3  0  0  0  0  0  0  0  0  0  0
   28.5066   28.0998   37.7100 C   0  0  0  0  0  0  0  0  0  0  0  0
   28.4264   27.5962   36.4238 N   0  3  0  0  0  0  0  0  0  0  0  0
   28.5597   28.2999   35.2795 C   0  0  0  0  0  0  0  0  0  0  0  0
   28.8233   29.7381   35.4214 C   0  0  0  0  0  0  0  0  0  0  0  0
   28.8762   30.2467   36.6556 C   0  0  0  0  0  0  0  0  0  0  0  0
   28.3848   27.3370   38.6650 O   0  0  0  0  0  0  0  0  0  0  0  0
   28.4397   27.6799   34.1356 N   0  0  0  0  0  0  0  0  0  0  0  0
   27.5928   34.2398   40.4912 H   0  0  0  0  0  0  0  0  0  0  0  0
   28.1883   33.9189   38.8515 H   0  0  0  0  0  0  0  0  0  0  0  0
   27.6708   31.9507   41.1516 H   0  0  0  0  0  0  0  0  0  0  0  0
   30.1251   33.0564   39.9432 H   0  0  0  0  0  0  0  0  0  0  0  0
   29.6409   31.4398   42.1971 H   0  0  0  0  0  0  0  0  0  0  0  0
   30.4580   31.4348   38.4792 H   0  0  0  0  0  0  0  0  0  0  0  0
   31.4499   29.5768   39.1683 H   0  0  0  0  0  0  0  0  0  0  0  0
   28.7399   29.3715   39.9290 H   0  0  0  0  0  0  0  0  0  0  0  0
   28.1970   26.6184   36.3219 H   0  0  0  0  0  0  0  0  0  0  0  0
   28.9199   30.3499   34.5344 H   0  0  0  0  0  0  0  0  0  0  0  0
   28.9992   31.3145   36.7888 H   0  0  0  0  0  0  0  0  0  0  0  0
   28.5273   28.3531   33.3617 H   0  0  0  0  0  0  0  0  0  0  0  0
  1  2  2  0  0  0  0
  2  3  1  0  0  0  0
  2  4  1  0  0  0  0
  2  5  1  0  0  0  0
  5  6  1  0  0  0  0
  6  7  1  0  0  0  0
  6 22  1  0  0  0  0
  6 23  1  0  0  0  0
  7  8  1  0  0  0  0
  7  9  1  0  0  0  0
  7 24  1  1  0  0  0
  8 13  1  0  0  0  0
  9 10  1  0  0  0  0
  9 11  1  0  0  0  0
  9 25  1  6  0  0  0
 10 26  1  0  0  0  0
 11 12  1  0  0  0  0
 11 13  1  0  0  0  0
 11 27  1  6  0  0  0
 12 28  1  0  0  0  0
 13 14  1  0  0  0  0
 13 29  1  1  0  0  0
 14 15  1  0  0  0  0
 14 19  1  0  0  0  0
 15 16  1  0  0  0  0
 15 20  2  0  0  0  0
 16 17  1  0  0  0  0
 16 30  1  0  0  0  0
 17 18  1  0  0  0  0
 17 21  2  0  0  0  0
 18 19  2  0  0  0  0
 18 31  1  0  0  0  0
 19 32  1  0  0  0  0
 21 33  1  0  0  0  0
M  CHG  2  14   1  16   1
M  END
$$$$
