C84
 OpenBabel04111922563D

 77 80  0  0  1  0  0  0  0  0999 V2000
   -9.5616  -27.3349   26.5752 O   0  0  0  0  0  0  0  0  0  0  0  0
  -10.6255  -27.8741   27.3094 C   0  0  1  0  0  0  0  0  0  0  0  0
  -11.8402  -27.2500   26.8330 O   0  0  0  0  0  0  0  0  0  0  0  0
  -10.7568  -29.3679   27.0600 C   0  0  0  0  0  0  0  0  0  0  0  0
  -12.2376  -29.5880   26.8880 C   0  0  2  0  0  0  0  0  0  0  0  0
  -12.5250  -30.7267   26.0976 O   0  0  0  0  0  0  0  0  0  0  0  0
  -12.7655  -28.2496   26.3732 C   0  0  2  0  0  0  0  0  0  0  0  0
  -13.0733  -28.0302   24.9734 N   0  3  0  0  0  0  0  0  0  0  0  0
  -12.4471  -28.4472   23.8262 C   0  0  0  0  0  0  0  0  0  0  0  0
  -13.0667  -28.0430   22.7333 N   0  0  0  0  0  0  0  0  0  0  0  0
  -14.1552  -27.3102   23.1782 C   0  0  0  0  0  0  0  0  0  0  0  0
  -14.1755  -27.2966   24.5671 C   0  0  0  0  0  0  0  0  0  0  0  0
  -15.0800  -26.6849   25.3569 N   0  0  0  0  0  0  0  0  0  0  0  0
  -16.0021  -26.0244   24.6238 C   0  0  0  0  0  0  0  0  0  0  0  0
  -16.0997  -25.9462   23.2853 N   0  0  0  0  0  0  0  0  0  0  0  0
  -15.1960  -26.5999   22.5294 C   0  0  0  0  0  0  0  0  0  0  0  0
  -15.2238  -26.4071   21.1286 N   0  0  0  0  0  0  0  0  0  0  0  0
   -2.7473  -24.0162   29.3503 C   0  0  0  0  0  0  0  0  0  0  0  0
   -4.2481  -23.8017   29.5611 C   0  0  0  0  0  0  0  0  0  0  0  0
   -4.5309  -23.1414   30.9077 C   0  0  0  0  0  0  0  0  0  0  0  0
   -4.9761  -23.2381   28.3056 C   0  0  2  0  0  0  0  0  0  0  0  0
   -4.9174  -21.7913   28.2549 O   0  0  0  0  0  0  0  0  0  0  0  0
   -6.4494  -23.6793   28.2130 C   0  0  1  0  0  0  0  0  0  0  0  0
   -7.1155  -22.8890   27.2006 O   0  0  0  0  0  0  0  0  0  0  0  0
   -6.6064  -25.2181   27.9133 C   0  0  0  0  0  0  0  0  0  0  0  0
   -5.6728  -25.9552   28.0719 O   0  0  0  0  0  0  0  0  0  0  0  0
   -7.8806  -25.6385   27.5394 N   0  0  0  0  0  0  0  0  0  0  0  0
   -8.0658  -27.3017   27.2335 P   0  0  1  0  0  0  0  0  0  0  0  0
   -8.1165  -27.9942   28.5647 O   0  0  0  0  0  0  0  0  0  0  0  0
   -7.1170  -27.6990   26.1356 O   0  0  0  0  0  0  0  0  0  0  0  0
  -16.6583  -26.2684   20.2071 P   0  0  1  0  0  0  0  0  0  0  0  0
  -17.5140  -27.4930   20.4200 O   0  0  0  0  0  0  0  0  0  0  0  0
  -17.2007  -24.8837   20.4296 O   0  0  0  0  0  0  0  0  0  0  0  0
  -16.1075  -26.2992   18.6600 O   0  0  0  0  0  0  0  0  0  0  0  0
  -15.8734  -27.5729   18.0599 C   0  0  2  0  0  0  0  0  0  0  0  0
  -14.3655  -27.7867   17.9201 C   0  0  1  0  0  0  0  0  0  0  0  0
  -13.8551  -28.1908   19.2114 O   0  0  0  0  0  0  0  0  0  0  0  0
  -14.0677  -28.9169   16.9445 C   0  0  2  0  0  0  0  0  0  0  0  0
  -12.6463  -29.1046   16.8289 O   0  0  0  0  0  0  0  0  0  0  0  0
  -14.7224  -28.7592   15.5628 C   0  0  1  0  0  0  0  0  0  0  0  0
  -15.0630  -30.1705   15.0244 C   0  0  0  0  0  0  0  0  0  0  0  0
  -14.5300  -30.3858   13.7039 O   0  0  0  0  0  0  0  0  0  0  0  0
  -15.8679  -27.9004   15.5518 O   0  0  0  0  0  0  0  0  0  0  0  0
  -16.6597  -27.8415   16.7413 C   0  0  2  0  0  0  0  0  0  0  0  0
  -17.7408  -26.9622   16.4570 O   0  0  0  0  0  0  0  0  0  0  0  0
  -10.5431  -27.6559   28.3830 H   0  0  0  0  0  0  0  0  0  0  0  0
  -10.3600  -29.9575   27.8970 H   0  0  0  0  0  0  0  0  0  0  0  0
  -10.2064  -29.6849   26.1694 H   0  0  0  0  0  0  0  0  0  0  0  0
  -12.6762  -29.7688   27.8863 H   0  0  0  0  0  0  0  0  0  0  0  0
  -12.0846  -30.5972   25.2395 H   0  0  0  0  0  0  0  0  0  0  0  0
  -13.7133  -28.0798   26.9015 H   0  0  0  0  0  0  0  0  0  0  0  0
  -11.5451  -29.0390   23.8071 H   0  0  0  0  0  0  0  0  0  0  0  0
  -16.7434  -25.4739   25.1849 H   0  0  0  0  0  0  0  0  0  0  0  0
  -14.4025  -26.7359   20.6216 H   0  0  0  0  0  0  0  0  0  0  0  0
   -2.2830  -24.3981   30.2671 H   0  0  0  0  0  0  0  0  0  0  0  0
   -2.2132  -23.1129   29.0420 H   0  0  0  0  0  0  0  0  0  0  0  0
   -2.6027  -24.7845   28.5822 H   0  0  0  0  0  0  0  0  0  0  0  0
   -4.6285  -24.8204   29.6997 H   0  0  0  0  0  0  0  0  0  0  0  0
   -5.5967  -22.9316   31.0283 H   0  0  0  0  0  0  0  0  0  0  0  0
   -3.9578  -22.2260   31.0830 H   0  0  0  0  0  0  0  0  0  0  0  0
   -4.2601  -23.8502   31.7027 H   0  0  0  0  0  0  0  0  0  0  0  0
   -4.4408  -23.5795   27.4078 H   0  0  0  0  0  0  0  0  0  0  0  0
   -5.3085  -21.5551   27.3942 H   0  0  0  0  0  0  0  0  0  0  0  0
   -6.9627  -23.4644   29.1669 H   0  0  0  0  0  0  0  0  0  0  0  0
   -7.2114  -21.9988   27.5705 H   0  0  0  0  0  0  0  0  0  0  0  0
   -8.6142  -24.9984   27.2502 H   0  0  0  0  0  0  0  0  0  0  0  0
  -16.2297  -28.3449   18.7477 H   0  0  0  0  0  0  0  0  0  0  0  0
  -13.8301  -26.8631   17.6678 H   0  0  0  0  0  0  0  0  0  0  0  0
  -12.9220  -28.4466   19.0984 H   0  0  0  0  0  0  0  0  0  0  0  0
  -14.4469  -29.8326   17.4152 H   0  0  0  0  0  0  0  0  0  0  0  0
  -12.4798  -29.7993   16.1650 H   0  0  0  0  0  0  0  0  0  0  0  0
  -14.0130  -28.2959   14.8613 H   0  0  0  0  0  0  0  0  0  0  0  0
  -16.1396  -30.3265   14.9759 H   0  0  0  0  0  0  0  0  0  0  0  0
  -14.6114  -30.9561   15.6398 H   0  0  0  0  0  0  0  0  0  0  0  0
  -14.8108  -31.2761   13.4413 H   0  0  0  0  0  0  0  0  0  0  0  0
  -17.1344  -28.8200   16.8620 H   0  0  0  0  0  0  0  0  0  0  0  0
  -17.3445  -26.0843   16.3261 H   0  0  0  0  0  0  0  0  0  0  0  0
  1  2  1  0  0  0  0
  2  3  1  0  0  0  0
  2  4  1  0  0  0  0
  2 46  1  1  0  0  0
  3  7  1  0  0  0  0
  4  5  1  0  0  0  0
  4 47  1  0  0  0  0
  4 48  1  0  0  0  0
  5  6  1  0  0  0  0
  5  7  1  0  0  0  0
  5 49  1  1  0  0  0
  6 50  1  0  0  0  0
  7  8  1  0  0  0  0
  7 51  1  1  0  0  0
  8  9  2  0  0  0  0
  8 12  1  0  0  0  0
  9 10  1  0  0  0  0
  9 52  1  0  0  0  0
 10 11  1  0  0  0  0
 11 12  2  0  0  0  0
 11 16  1  0  0  0  0
 12 13  1  0  0  0  0
 13 14  2  0  0  0  0
 14 15  1  0  0  0  0
 14 53  1  0  0  0  0
 15 16  2  0  0  0  0
 16 17  1  0  0  0  0
 17 54  1  0  0  0  0
 18 19  1  0  0  0  0
 18 55  1  0  0  0  0
 18 56  1  0  0  0  0
 18 57  1  0  0  0  0
 19 20  1  0  0  0  0
 19 21  1  0  0  0  0
 19 58  1  0  0  0  0
 20 59  1  0  0  0  0
 20 60  1  0  0  0  0
 20 61  1  0  0  0  0
 21 22  1  0  0  0  0
 21 23  1  0  0  0  0
 21 62  1  6  0  0  0
 22 63  1  0  0  0  0
 23 24  1  0  0  0  0
 23 25  1  0  0  0  0
 23 64  1  1  0  0  0
 24 65  1  0  0  0  0
 25 26  2  0  0  0  0
 25 27  1  0  0  0  0
 27 28  1  0  0  0  0
 27 66  1  0  0  0  0
 28  1  1  6  0  0  0
 28 29  2  0  0  0  0
 28 30  1  0  0  0  0
 31 17  1  1  0  0  0
 31 32  2  0  0  0  0
 31 33  1  0  0  0  0
 31 34  1  0  0  0  0
 34 35  1  0  0  0  0
 35 36  1  0  0  0  0
 35 44  1  0  0  0  0
 35 67  1  1  0  0  0
 36 37  1  0  0  0  0
 36 38  1  0  0  0  0
 36 68  1  6  0  0  0
 37 69  1  0  0  0  0
 38 39  1  0  0  0  0
 38 40  1  0  0  0  0
 38 70  1  1  0  0  0
 39 71  1  0  0  0  0
 40 41  1  0  0  0  0
 40 43  1  0  0  0  0
 40 72  1  6  0  0  0
 41 42  1  0  0  0  0
 41 73  1  0  0  0  0
 41 74  1  0  0  0  0
 42 75  1  0  0  0  0
 43 44  1  0  0  0  0
 44 45  1  0  0  0  0
 44 76  1  1  0  0  0
 45 77  1  0  0  0  0
M  CHG  1   8   1
M  END
$$$$
