CBP
 OpenBabel04111917363D

 48 50  0  0  0  0  0  0  0  0999 V2000
   -8.2000   26.4645   50.6385 C   0  0  0  0  0  0  0  0  0  0  0  0
   -9.4990   26.2835   50.1480 C   0  0  0  0  0  0  0  0  0  0  0  0
   -9.8676   26.8498   48.9269 C   0  0  0  0  0  0  0  0  0  0  0  0
   -8.9334   27.5958   48.2076 C   0  0  0  0  0  0  0  0  0  0  0  0
   -7.6462   27.7965   48.7013 C   0  0  0  0  0  0  0  0  0  0  0  0
   -7.2697   27.2078   49.9077 C   0  0  0  0  0  0  0  0  0  0  0  0
   -7.8636   25.7783   51.7788 O   0  0  0  0  0  0  0  0  0  0  0  0
   -7.2416   26.4122   52.8328 C   0  0  0  0  0  0  0  0  0  0  0  0
   -6.8470   25.5641   53.8762 C   0  0  0  0  0  0  0  0  0  0  0  0
   -6.3049   26.0740   55.0556 C   0  0  0  0  0  0  0  0  0  0  0  0
   -6.1381   27.4493   55.1866 C   0  0  0  0  0  0  0  0  0  0  0  0
   -6.5041   28.3046   54.1450 C   0  0  0  0  0  0  0  0  0  0  0  0
   -7.0409   27.7868   52.9668 C   0  0  0  0  0  0  0  0  0  0  0  0
   -5.6208   28.1626   56.7264 S   0  0  0  0  0  0  0  0  0  0  0  0
   -5.6467   27.1022   57.7264 O   0  0  0  0  0  0  0  0  0  0  0  0
   -6.4600   29.3320   56.9074 O   0  0  0  0  0  0  0  0  0  0  0  0
   -3.8895   28.7024   56.5605 C   0  0  0  0  0  0  0  0  0  0  0  0
   -3.6160   29.5875   57.8217 C   0  0  0  0  0  0  0  0  0  0  0  0
   -2.4056   30.5045   57.6972 C   0  0  0  0  0  0  0  0  0  0  0  0
   -2.4130   31.2202   56.4703 O   0  0  0  0  0  0  0  0  0  0  0  0
   -2.4276   30.3651   55.3328 C   0  0  0  0  0  0  0  0  0  0  0  0
   -3.7193   29.5737   55.3102 C   0  0  0  0  0  0  0  0  0  0  0  0
   -2.9368   27.4756   56.6021 C   0  0  0  0  0  0  0  0  0  0  0  0
   -2.8429   26.5730   55.3662 C   0  0  0  0  0  0  0  0  0  0  0  0
   -2.9214   25.2231   55.6423 N   0  0  0  0  0  0  0  0  0  0  0  0
   -2.5919   27.0049   54.2600 O   0  0  0  0  0  0  0  0  0  0  0  0
   -2.5928   24.3930   54.5478 O   0  0  0  0  0  0  0  0  0  0  0  0
   -9.3535   28.2550   46.6748 Cl  0  0  0  0  0  0  0  0  0  0  0  0
  -10.2179   25.6986   50.7164 H   0  0  0  0  0  0  0  0  0  0  0  0
  -10.8736   26.7045   48.5390 H   0  0  0  0  0  0  0  0  0  0  0  0
   -6.9311   28.3949   48.1450 H   0  0  0  0  0  0  0  0  0  0  0  0
   -6.2561   27.3382   50.2738 H   0  0  0  0  0  0  0  0  0  0  0  0
   -6.9749   24.4883   53.7634 H   0  0  0  0  0  0  0  0  0  0  0  0
   -6.0261   25.3945   55.8593 H   0  0  0  0  0  0  0  0  0  0  0  0
   -6.3786   29.3792   54.2455 H   0  0  0  0  0  0  0  0  0  0  0  0
   -7.2976   28.4843   52.1733 H   0  0  0  0  0  0  0  0  0  0  0  0
   -3.5018   28.9593   58.7127 H   0  0  0  0  0  0  0  0  0  0  0  0
   -4.4853   30.2307   58.0088 H   0  0  0  0  0  0  0  0  0  0  0  0
   -1.4762   29.9362   57.7853 H   0  0  0  0  0  0  0  0  0  0  0  0
   -2.4110   31.2398   58.5116 H   0  0  0  0  0  0  0  0  0  0  0  0
   -1.5548   29.7063   55.3428 H   0  0  0  0  0  0  0  0  0  0  0  0
   -2.3611   30.9913   54.4376 H   0  0  0  0  0  0  0  0  0  0  0  0
   -4.5507   30.2864   55.2532 H   0  0  0  0  0  0  0  0  0  0  0  0
   -3.7576   28.9685   54.4032 H   0  0  0  0  0  0  0  0  0  0  0  0
   -3.1821   26.8536   57.4664 H   0  0  0  0  0  0  0  0  0  0  0  0
   -1.9096   27.8245   56.7763 H   0  0  0  0  0  0  0  0  0  0  0  0
   -3.2751   24.8216   56.5075 H   0  0  0  0  0  0  0  0  0  0  0  0
   -2.7035   23.4836   54.8582 H   0  0  0  0  0  0  0  0  0  0  0  0
  1  7  1  0  0  0  0
  1  6  2  0  0  0  0
  1  2  1  0  0  0  0
  2  3  2  0  0  0  0
  2 29  1  0  0  0  0
  3  4  1  0  0  0  0
  3 30  1  0  0  0  0
  4  5  2  0  0  0  0
  4 28  1  0  0  0  0
  5  6  1  0  0  0  0
  5 31  1  0  0  0  0
  6 32  1  0  0  0  0
  7  8  1  0  0  0  0
  8 13  2  0  0  0  0
  8  9  1  0  0  0  0
  9 10  2  0  0  0  0
  9 33  1  0  0  0  0
 10 11  1  0  0  0  0
 10 34  1  0  0  0  0
 11 14  1  0  0  0  0
 11 12  2  0  0  0  0
 12 13  1  0  0  0  0
 12 35  1  0  0  0  0
 13 36  1  0  0  0  0
 14 17  1  0  0  0  0
 14 16  2  0  0  0  0
 14 15  2  0  0  0  0
 17 23  1  0  0  0  0
 17 22  1  0  0  0  0
 17 18  1  0  0  0  0
 18 19  1  0  0  0  0
 18 37  1  0  0  0  0
 18 38  1  0  0  0  0
 19 20  1  0  0  0  0
 19 39  1  0  0  0  0
 19 40  1  0  0  0  0
 20 21  1  0  0  0  0
 21 22  1  0  0  0  0
 21 41  1  0  0  0  0
 21 42  1  0  0  0  0
 22 43  1  0  0  0  0
 22 44  1  0  0  0  0
 23 24  1  0  0  0  0
 23 45  1  0  0  0  0
 23 46  1  0  0  0  0
 24 26  2  0  0  0  0
 24 25  1  0  0  0  0
 25 27  1  0  0  0  0
 25 47  1  0  0  0  0
 27 48  1  0  0  0  0
M  END
$$$$
