CBW
 OpenBabel04111921083D

 79 83  0  0  1  0  0  0  0  0999 V2000
   15.7682    3.0165   23.5267 C   0  0  0  0  0  0  0  0  0  0  0  0
   16.7366    2.6589   24.6476 C   0  0  0  0  0  0  0  0  0  0  0  0
   16.7417    1.1620   24.9189 C   0  0  1  0  0  0  0  0  0  0  0  0
   15.3480    0.6368   25.3348 C   0  0  0  0  0  0  0  0  0  0  0  0
   14.2813    1.7536   25.1327 C   0  0  2  0  0  0  0  0  0  0  0  0
   12.8593    1.3716   25.5139 C   0  0  0  0  0  0  0  0  0  0  0  0
   12.0686    2.6363   25.8162 C   0  0  0  0  0  0  0  0  0  0  0  0
   11.9967    3.6017   24.6175 C   0  0  2  0  0  0  0  0  0  0  0  0
   13.4081    3.8035   23.9914 C   0  0  1  0  0  0  0  0  0  0  0  0
   14.3140    2.5385   23.7887 C   0  0  1  0  0  0  0  0  0  0  0  0
   13.2998    4.7550   22.8002 C   0  0  0  0  0  0  0  0  0  0  0  0
   12.2862    5.8339   22.8574 C   0  0  0  0  0  0  0  0  0  0  0  0
   11.4025    5.9563   23.8687 C   0  0  0  0  0  0  0  0  0  0  0  0
   11.4429    5.0244   25.0685 C   0  0  1  0  0  0  0  0  0  0  0  0
   10.0816    4.8608   25.7652 C   0  0  0  0  0  0  0  0  0  0  0  0
    9.2328    6.1123   25.7772 C   0  0  0  0  0  0  0  0  0  0  0  0
    9.0028    6.6757   24.3679 C   0  0  2  0  0  0  0  0  0  0  0  0
   10.3582    7.0520   23.7335 C   0  0  1  0  0  0  0  0  0  0  0  0
   13.8946    1.7049   22.5755 C   0  0  0  0  0  0  0  0  0  0  0  0
   10.8834    8.4144   24.2302 C   0  0  0  0  0  0  0  0  0  0  0  0
    9.9082    9.5836   24.0060 C   0  0  2  0  0  0  0  0  0  0  0  0
    8.5185    9.0763   23.6111 C   0  0  0  0  0  0  0  0  0  0  0  0
    8.0772    7.9011   24.4741 C   0  0  0  0  0  0  0  0  0  0  0  0
   15.0533   -0.6855   24.6350 C   0  0  0  0  0  0  0  0  0  0  0  0
   15.4078    0.3175   26.8438 C   0  0  0  0  0  0  0  0  0  0  0  0
   11.0182    2.9867   23.6006 C   0  0  0  0  0  0  0  0  0  0  0  0
   12.3813    5.6849   26.0940 C   0  0  0  0  0  0  0  0  0  0  0  0
    8.2916    5.6189   23.5071 C   0  0  0  0  0  0  0  0  0  0  0  0
   10.3498   10.5193   22.8207 C   0  0  0  0  0  0  0  0  0  0  0  0
    9.8137   10.4212   25.2880 C   0  0  0  0  0  0  0  0  0  0  0  0
   17.2096    0.4696   23.7653 O   0  0  0  0  0  0  0  0  0  0  0  0
   14.0290    4.6949   21.8072 O   0  0  0  0  0  0  0  0  0  0  0  0
   11.3823   10.2112   22.2357 O   0  0  0  0  0  0  0  0  0  0  0  0
    9.5429   11.4831   22.5932 O   0  0  0  0  0  0  0  0  0  0  0  0
   16.1389    2.5806   22.5919 H   0  0  0  0  0  0  0  0  0  0  0  0
   15.7831    4.1038   23.4096 H   0  0  0  0  0  0  0  0  0  0  0  0
   16.4580    3.1949   25.5624 H   0  0  0  0  0  0  0  0  0  0  0  0
   17.7432    2.9757   24.3680 H   0  0  0  0  0  0  0  0  0  0  0  0
   17.4506    0.9673   25.7285 H   0  0  0  0  0  0  0  0  0  0  0  0
   14.5622    2.5084   25.8834 H   0  0  0  0  0  0  0  0  0  0  0  0
   12.8515    0.7409   26.4006 H   0  0  0  0  0  0  0  0  0  0  0  0
   12.3839    0.8117   24.7118 H   0  0  0  0  0  0  0  0  0  0  0  0
   12.5471    3.1406   26.6590 H   0  0  0  0  0  0  0  0  0  0  0  0
   11.0570    2.3589   26.1296 H   0  0  0  0  0  0  0  0  0  0  0  0
   13.9767    4.3644   24.7351 H   0  0  0  0  0  0  0  0  0  0  0  0
   12.2587    6.5258   22.0309 H   0  0  0  0  0  0  0  0  0  0  0  0
   10.2306    4.5243   26.7966 H   0  0  0  0  0  0  0  0  0  0  0  0
    9.5043    4.0827   25.2780 H   0  0  0  0  0  0  0  0  0  0  0  0
    9.7334    6.8675   26.3882 H   0  0  0  0  0  0  0  0  0  0  0  0
    8.2703    5.8796   26.2472 H   0  0  0  0  0  0  0  0  0  0  0  0
   10.1646    7.1776   22.6578 H   0  0  0  0  0  0  0  0  0  0  0  0
   14.5487    0.8493   22.4322 H   0  0  0  0  0  0  0  0  0  0  0  0
   13.9441    2.2789   21.6470 H   0  0  0  0  0  0  0  0  0  0  0  0
   12.8945    1.3130   22.6702 H   0  0  0  0  0  0  0  0  0  0  0  0
   11.8264    8.6207   23.7177 H   0  0  0  0  0  0  0  0  0  0  0  0
   11.1125    8.3423   25.2958 H   0  0  0  0  0  0  0  0  0  0  0  0
    8.5339    8.7614   22.5619 H   0  0  0  0  0  0  0  0  0  0  0  0
    7.7838    9.8809   23.7129 H   0  0  0  0  0  0  0  0  0  0  0  0
    8.0373    8.2318   25.5165 H   0  0  0  0  0  0  0  0  0  0  0  0
    7.0594    7.6249   24.1776 H   0  0  0  0  0  0  0  0  0  0  0  0
   15.8477   -1.4144   24.8443 H   0  0  0  0  0  0  0  0  0  0  0  0
   15.0239   -0.5538   23.5614 H   0  0  0  0  0  0  0  0  0  0  0  0
   14.1032   -1.1063   24.9602 H   0  0  0  0  0  0  0  0  0  0  0  0
   15.6085    1.2267   27.4201 H   0  0  0  0  0  0  0  0  0  0  0  0
   16.1982   -0.4116   27.0559 H   0  0  0  0  0  0  0  0  0  0  0  0
   14.4644   -0.1136   27.1924 H   0  0  0  0  0  0  0  0  0  0  0  0
   11.3320    2.0090   23.2797 H   0  0  0  0  0  0  0  0  0  0  0  0
   10.9034    3.6120   22.7181 H   0  0  0  0  0  0  0  0  0  0  0  0
   10.0305    2.8284   24.0309 H   0  0  0  0  0  0  0  0  0  0  0  0
   13.3768    5.8526   25.6806 H   0  0  0  0  0  0  0  0  0  0  0  0
   12.4851    5.0731   26.9927 H   0  0  0  0  0  0  0  0  0  0  0  0
   12.0003    6.6561   26.4004 H   0  0  0  0  0  0  0  0  0  0  0  0
    8.9011    4.7234   23.3997 H   0  0  0  0  0  0  0  0  0  0  0  0
    8.0964    6.0064   22.5040 H   0  0  0  0  0  0  0  0  0  0  0  0
    7.3366    5.3240   23.9609 H   0  0  0  0  0  0  0  0  0  0  0  0
   10.7995   10.8001   25.5806 H   0  0  0  0  0  0  0  0  0  0  0  0
    9.4286    9.8127   26.1151 H   0  0  0  0  0  0  0  0  0  0  0  0
    9.1403   11.2754   25.1579 H   0  0  0  0  0  0  0  0  0  0  0  0
   18.0701    0.8446   23.5158 H   0  0  0  0  0  0  0  0  0  0  0  0
  1  2  1  0  0  0  0
  1 10  1  0  0  0  0
  1 35  1  0  0  0  0
  1 36  1  0  0  0  0
  2  3  1  0  0  0  0
  2 37  1  0  0  0  0
  2 38  1  0  0  0  0
  3  4  1  0  0  0  0
  3 31  1  0  0  0  0
  3 39  1  1  0  0  0
  4  5  1  0  0  0  0
  4 24  1  0  0  0  0
  4 25  1  0  0  0  0
  5  6  1  0  0  0  0
  5 10  1  0  0  0  0
  5 40  1  1  0  0  0
  6  7  1  0  0  0  0
  6 41  1  0  0  0  0
  6 42  1  0  0  0  0
  7  8  1  0  0  0  0
  7 43  1  0  0  0  0
  7 44  1  0  0  0  0
  8  9  1  0  0  0  0
  8 14  1  0  0  0  0
  8 26  1  6  0  0  0
  9 10  1  0  0  0  0
  9 11  1  0  0  0  0
  9 45  1  1  0  0  0
 10 19  1  6  0  0  0
 11 12  1  0  0  0  0
 11 32  2  0  0  0  0
 12 13  2  0  0  0  0
 12 46  1  0  0  0  0
 13 14  1  0  0  0  0
 13 18  1  0  0  0  0
 14 15  1  0  0  0  0
 14 27  1  1  0  0  0
 15 16  1  0  0  0  0
 15 47  1  0  0  0  0
 15 48  1  0  0  0  0
 16 17  1  0  0  0  0
 16 49  1  0  0  0  0
 16 50  1  0  0  0  0
 17 18  1  0  0  0  0
 17 23  1  0  0  0  0
 17 28  1  6  0  0  0
 18 20  1  0  0  0  0
 18 51  1  6  0  0  0
 19 52  1  0  0  0  0
 19 53  1  0  0  0  0
 19 54  1  0  0  0  0
 20 21  1  0  0  0  0
 20 55  1  0  0  0  0
 20 56  1  0  0  0  0
 21 22  1  0  0  0  0
 21 29  1  6  0  0  0
 21 30  1  0  0  0  0
 22 23  1  0  0  0  0
 22 57  1  0  0  0  0
 22 58  1  0  0  0  0
 23 59  1  0  0  0  0
 23 60  1  0  0  0  0
 24 61  1  0  0  0  0
 24 62  1  0  0  0  0
 24 63  1  0  0  0  0
 25 64  1  0  0  0  0
 25 65  1  0  0  0  0
 25 66  1  0  0  0  0
 26 67  1  0  0  0  0
 26 68  1  0  0  0  0
 26 69  1  0  0  0  0
 27 70  1  0  0  0  0
 27 71  1  0  0  0  0
 27 72  1  0  0  0  0
 28 73  1  0  0  0  0
 28 74  1  0  0  0  0
 28 75  1  0  0  0  0
 29 33  2  0  0  0  0
 29 34  1  0  0  0  0
 30 76  1  0  0  0  0
 30 77  1  0  0  0  0
 30 78  1  0  0  0  0
 31 79  1  0  0  0  0
M  END
$$$$
