CFX
 OpenBabel04111919523D

 44 46  0  0  1  0  0  0  0  0999 V2000
  -12.9495    3.7145   -9.7831 C   0  0  0  0  0  0  0  0  0  0  0  0
  -11.8261    4.1445   -9.6559 O   0  0  0  0  0  0  0  0  0  0  0  0
  -14.1884    4.1365   -9.4649 N   0  0  0  0  0  0  0  0  0  0  0  0
  -14.9230    3.0552  -10.0784 C   0  0  2  0  0  0  0  0  0  0  0  0
  -16.1622    2.4521   -8.9034 S   0  0  0  0  0  0  0  0  0  0  0  0
  -16.9982    4.0773   -8.8638 C   0  0  0  0  0  0  0  0  0  0  0  0
  -16.0602    5.2126   -8.5049 C   0  0  0  0  0  0  0  0  0  0  0  0
  -14.7269    5.1748   -8.7590 C   0  0  0  0  0  0  0  0  0  0  0  0
  -16.7438    6.3698   -7.7954 C   0  0  0  0  0  0  0  0  0  0  0  0
  -13.7621    6.2510   -8.1535 C   0  0  0  0  0  0  0  0  0  0  0  0
  -13.9033    7.4199   -8.6206 O   0  0  0  0  0  0  0  0  0  0  0  0
  -13.0029    5.8109   -7.2407 O   0  0  0  0  0  0  0  0  0  0  0  0
  -13.5482    2.3098  -10.2463 C   0  0  1  0  0  0  0  0  0  0  0  0
  -13.2236    1.9685  -11.6281 O   0  0  0  0  0  0  0  0  0  0  0  0
  -11.8550    1.7250  -11.9079 C   0  0  0  0  0  0  0  0  0  0  0  0
  -13.1723    1.2481   -9.2665 N   0  0  0  0  0  0  0  0  0  0  0  0
  -13.6288   -0.0403   -9.3704 C   0  0  0  0  0  0  0  0  0  0  0  0
  -14.5187   -0.3849  -10.1438 O   0  0  0  0  0  0  0  0  0  0  0  0
  -12.9053   -1.0314   -8.4830 C   0  0  0  0  0  0  0  0  0  0  0  0
  -13.6930   -1.3742   -7.2565 C   0  0  0  0  0  0  0  0  0  0  0  0
  -13.0352   -2.5128   -6.1506 S   0  0  0  0  0  0  0  0  0  0  0  0
  -14.3945   -2.3980   -5.1222 C   0  0  0  0  0  0  0  0  0  0  0  0
  -15.3319   -1.5133   -5.6032 C   0  0  0  0  0  0  0  0  0  0  0  0
  -14.9244   -0.9186   -6.8302 C   0  0  0  0  0  0  0  0  0  0  0  0
  -17.8273    6.8067   -8.6340 O   0  0  0  0  0  0  0  0  0  0  0  0
  -18.3130    8.0471   -8.3940 C   0  0  0  0  0  0  0  0  0  0  0  0
  -17.9296    8.8564   -7.5706 O   0  0  0  0  0  0  0  0  0  0  0  0
  -19.4011    8.2472   -9.1788 N   0  0  0  0  0  0  0  0  0  0  0  0
  -15.3576    3.3349  -11.0469 H   0  0  0  0  0  0  0  0  0  0  0  0
  -17.7964    3.9844   -8.1207 H   0  0  0  0  0  0  0  0  0  0  0  0
  -17.4681    4.2650   -9.8354 H   0  0  0  0  0  0  0  0  0  0  0  0
  -16.0796    7.1981   -7.5448 H   0  0  0  0  0  0  0  0  0  0  0  0
  -17.1825    5.9994   -6.8603 H   0  0  0  0  0  0  0  0  0  0  0  0
  -11.7633    1.4808  -12.9683 H   0  0  0  0  0  0  0  0  0  0  0  0
  -11.4928    0.8763  -11.3223 H   0  0  0  0  0  0  0  0  0  0  0  0
  -11.2517    2.6113  -11.6986 H   0  0  0  0  0  0  0  0  0  0  0  0
  -12.4832    1.4885   -8.5612 H   0  0  0  0  0  0  0  0  0  0  0  0
  -11.9191   -0.6358   -8.2102 H   0  0  0  0  0  0  0  0  0  0  0  0
  -12.7316   -1.9285   -9.0903 H   0  0  0  0  0  0  0  0  0  0  0  0
  -14.4430   -2.9831   -4.2163 H   0  0  0  0  0  0  0  0  0  0  0  0
  -16.2674   -1.2972   -5.1022 H   0  0  0  0  0  0  0  0  0  0  0  0
  -15.5215   -0.1944   -7.3732 H   0  0  0  0  0  0  0  0  0  0  0  0
  -19.9357    9.0921   -9.0628 H   0  0  0  0  0  0  0  0  0  0  0  0
  -19.7290    7.4892   -9.7547 H   0  0  0  0  0  0  0  0  0  0  0  0
  1  2  2  0  0  0  0
  1  3  1  0  0  0  0
  1 13  1  0  0  0  0
  3  4  1  0  0  0  0
  3  8  1  0  0  0  0
  4  5  1  0  0  0  0
  4 13  1  0  0  0  0
  4 29  1  6  0  0  0
  5  6  1  0  0  0  0
  6  7  1  0  0  0  0
  6 30  1  0  0  0  0
  6 31  1  0  0  0  0
  7  8  2  0  0  0  0
  7  9  1  0  0  0  0
  8 10  1  0  0  0  0
  9 25  1  0  0  0  0
  9 32  1  0  0  0  0
  9 33  1  0  0  0  0
 10 11  2  0  0  0  0
 10 12  1  0  0  0  0
 13 14  1  6  0  0  0
 13 16  1  0  0  0  0
 14 15  1  0  0  0  0
 15 34  1  0  0  0  0
 15 35  1  0  0  0  0
 15 36  1  0  0  0  0
 16 17  1  0  0  0  0
 16 37  1  0  0  0  0
 17 18  2  0  0  0  0
 17 19  1  0  0  0  0
 19 20  1  0  0  0  0
 19 38  1  0  0  0  0
 19 39  1  0  0  0  0
 20 21  1  0  0  0  0
 20 24  2  0  0  0  0
 21 22  1  0  0  0  0
 22 23  2  0  0  0  0
 22 40  1  0  0  0  0
 23 24  1  0  0  0  0
 23 41  1  0  0  0  0
 24 42  1  0  0  0  0
 25 26  1  0  0  0  0
 26 27  2  0  0  0  0
 26 28  1  0  0  0  0
 28 43  1  0  0  0  0
 28 44  1  0  0  0  0
M  END
$$$$
