CIT
 OpenBabel04111920453D

 18 17  0  0  1  0  0  0  0  0999 V2000
   15.7253    3.4910    3.7055 C   0  0  0  0  0  0  0  0  0  0  0  0
   15.8657    4.1620    2.6399 O   0  0  0  0  0  0  0  0  0  0  0  0
   14.7617    3.5569    4.5358 O   0  0  0  0  0  0  0  0  0  0  0  0
   16.7867    2.4276    4.0094 C   0  0  0  0  0  0  0  0  0  0  0  0
   18.1830    2.4649    3.3113 C   0  0  1  0  0  0  0  0  0  0  0  0
   17.9428    2.6358    1.8865 O   0  0  0  0  0  0  0  0  0  0  0  0
   19.0286    3.6335    3.8315 C   0  0  0  0  0  0  0  0  0  0  0  0
   20.4654    3.8959    3.3490 C   0  0  0  0  0  0  0  0  0  0  0  0
   20.8342    5.1156    3.4597 O   0  0  0  0  0  0  0  0  0  0  0  0
   21.1755    2.9354    2.9501 O   0  0  0  0  0  0  0  0  0  0  0  0
   18.7959    1.0303    3.6689 C   0  0  0  0  0  0  0  0  0  0  0  0
   18.7818    0.1325    2.7633 O   0  0  0  0  0  0  0  0  0  0  0  0
   19.0872    0.8464    4.9019 O   0  0  0  0  0  0  0  0  0  0  0  0
   16.2934    1.4760    3.7599 H   0  0  0  0  0  0  0  0  0  0  0  0
   16.9301    2.4186    5.0989 H   0  0  0  0  0  0  0  0  0  0  0  0
   17.2992    3.3804    1.8510 H   0  0  0  0  0  0  0  0  0  0  0  0
   19.1111    3.5542    4.9237 H   0  0  0  0  0  0  0  0  0  0  0  0
   18.4737    4.5638    3.6367 H   0  0  0  0  0  0  0  0  0  0  0  0
  1  2  2  0  0  0  0
  1  3  1  0  0  0  0
  1  4  1  0  0  0  0
  4 14  1  0  0  0  0
  4 15  1  0  0  0  0
  5  4  1  1  0  0  0
  5  6  1  0  0  0  0
  5  7  1  0  0  0  0
  5 11  1  0  0  0  0
  6 16  1  0  0  0  0
  7  8  1  0  0  0  0
  7 17  1  0  0  0  0
  7 18  1  0  0  0  0
  8  9  2  0  0  0  0
  8 10  1  0  0  0  0
 11 12  2  0  0  0  0
 11 13  1  0  0  0  0
M  END
$$$$
