CIT
 OpenBabel04111917393D

 18 17  0  0  1  0  0  0  0  0999 V2000
  -11.1145    9.4922   36.9858 C   0  0  0  0  0  0  0  0  0  0  0  0
  -12.2846    9.1172   36.6845 O   0  0  0  0  0  0  0  0  0  0  0  0
  -10.1860    9.8261   36.1746 O   0  0  0  0  0  0  0  0  0  0  0  0
  -10.6767    9.3525   38.4585 C   0  0  0  0  0  0  0  0  0  0  0  0
  -11.8063    9.6337   39.4721 C   0  0  1  0  0  0  0  0  0  0  0  0
  -12.8570    8.6758   39.1683 O   0  0  0  0  0  0  0  0  0  0  0  0
  -11.3256    9.3505   40.9019 C   0  0  0  0  0  0  0  0  0  0  0  0
  -12.3070    9.5669   42.0677 C   0  0  0  0  0  0  0  0  0  0  0  0
  -13.5425    9.5639   41.9033 O   0  0  0  0  0  0  0  0  0  0  0  0
  -11.7022    9.6066   43.2025 O   0  0  0  0  0  0  0  0  0  0  0  0
  -12.2485   11.1566   39.3112 C   0  0  0  0  0  0  0  0  0  0  0  0
  -13.4886   11.4206   39.2837 O   0  0  0  0  0  0  0  0  0  0  0  0
  -11.2929   11.9969   39.2026 O   0  0  0  0  0  0  0  0  0  0  0  0
   -9.8137   10.0090   38.6377 H   0  0  0  0  0  0  0  0  0  0  0  0
  -10.3075    8.3222   38.5792 H   0  0  0  0  0  0  0  0  0  0  0  0
  -13.1726    8.9983   38.2921 H   0  0  0  0  0  0  0  0  0  0  0  0
  -10.4341    9.9536   41.1074 H   0  0  0  0  0  0  0  0  0  0  0  0
  -11.0149    8.2988   40.9682 H   0  0  0  0  0  0  0  0  0  0  0  0
  1  2  2  0  0  0  0
  1  3  1  0  0  0  0
  1  4  1  0  0  0  0
  4 14  1  0  0  0  0
  4 15  1  0  0  0  0
  5  4  1  6  0  0  0
  5  6  1  0  0  0  0
  5  7  1  0  0  0  0
  5 11  1  0  0  0  0
  6 16  1  0  0  0  0
  7  8  1  0  0  0  0
  7 17  1  0  0  0  0
  7 18  1  0  0  0  0
  8  9  2  0  0  0  0
  8 10  1  0  0  0  0
 11 12  2  0  0  0  0
 11 13  1  0  0  0  0
M  END
$$$$
