CJC
 OpenBabel04111919193D

 50 54  0  0  1  0  0  0  0  0999 V2000
    4.0739   -2.5823  -10.9629 O   0  0  0  0  0  0  0  0  0  0  0  0
    4.7755   -1.8907  -11.6327 C   0  0  0  0  0  0  0  0  0  0  0  0
    4.3481   -1.4923  -13.0138 C   0  0  0  0  0  0  0  0  0  0  0  0
    5.9902   -1.3880  -11.2038 N   0  3  0  0  0  0  0  0  0  0  0  0
    6.7489   -0.5890  -12.0212 C   0  0  0  0  0  0  0  0  0  0  0  0
    6.3011   -0.2517  -13.3015 C   0  0  0  0  0  0  0  0  0  0  0  0
    5.0500   -0.7328  -13.7862 N   0  0  0  0  0  0  0  0  0  0  0  0
    7.0103    0.5359  -14.1316 N   0  0  0  0  0  0  0  0  0  0  0  0
    8.1990    0.9925  -13.6626 C   0  0  0  0  0  0  0  0  0  0  0  0
    8.6946    0.7011  -12.3885 C   0  0  0  0  0  0  0  0  0  0  0  0
    7.9608   -0.1217  -11.5489 C   0  0  0  0  0  0  0  0  0  0  0  0
   10.2787    1.3423  -11.9886 S   0  0  0  0  0  0  0  0  0  0  0  0
   10.2445    1.8629  -10.3014 C   0  0  0  0  0  0  0  0  0  0  0  0
    9.0715    1.9397   -9.6436 N   0  0  0  0  0  0  0  0  0  0  0  0
    9.0586    2.3932   -8.3651 C   0  0  0  0  0  0  0  0  0  0  0  0
    7.8008    2.3584   -7.7752 N   0  0  0  0  0  0  0  0  0  0  0  0
    6.5693    2.1036   -8.5486 C   0  0  0  0  0  0  0  0  0  0  0  0
    5.7318    1.2170   -7.6163 C   0  0  0  0  0  0  0  0  0  0  0  0
    6.4469    1.1900   -6.2671 C   0  0  1  0  0  0  0  0  0  0  0  0
    7.0197   -0.1710   -6.0483 N   0  3  0  0  0  0  0  0  0  0  0  0
    7.5727    2.2220   -6.3549 C   0  0  0  0  0  0  0  0  0  0  0  0
   10.3589    2.7797   -7.7835 C   0  0  0  0  0  0  0  0  0  0  0  0
   11.4910    2.6422   -8.5903 C   0  0  0  0  0  0  0  0  0  0  0  0
   11.4723    2.1674   -9.8381 N   0  0  0  0  0  0  0  0  0  0  0  0
   12.6589    3.0706   -7.9281 N   0  3  0  0  0  0  0  0  0  0  0  0
   12.2993    3.4683   -6.6393 C   0  0  0  0  0  0  0  0  0  0  0  0
   10.9146    3.3246   -6.5515 C   0  0  0  0  0  0  0  0  0  0  0  0
   10.0204    3.8228   -5.1713 Cl  0  0  0  0  0  0  0  0  0  0  0  0
   13.2644    3.9910   -5.5798 C   0  0  0  0  0  0  0  0  0  0  0  0
   14.2339    5.0136   -6.1373 C   0  0  0  0  0  0  0  0  0  0  0  0
    3.3734   -1.8997  -13.3202 H   0  0  0  0  0  0  0  0  0  0  0  0
    6.2798   -1.6782  -10.2821 H   0  0  0  0  0  0  0  0  0  0  0  0
    8.7871    1.6320  -14.3314 H   0  0  0  0  0  0  0  0  0  0  0  0
    8.3329   -0.3687  -10.5584 H   0  0  0  0  0  0  0  0  0  0  0  0
    6.7544    1.5903   -9.5019 H   0  0  0  0  0  0  0  0  0  0  0  0
    6.0326    3.0411   -8.7806 H   0  0  0  0  0  0  0  0  0  0  0  0
    5.6368    0.2113   -8.0414 H   0  0  0  0  0  0  0  0  0  0  0  0
    4.7319    1.6405   -7.4841 H   0  0  0  0  0  0  0  0  0  0  0  0
    5.7645    1.3757   -5.4362 H   0  0  0  0  0  0  0  0  0  0  0  0
    7.5074   -0.2229   -5.1427 H   0  0  0  0  0  0  0  0  0  0  0  0
    6.2846   -0.8904   -6.0530 H   0  0  0  0  0  0  0  0  0  0  0  0
    7.2389    3.1658   -5.9074 H   0  0  0  0  0  0  0  0  0  0  0  0
    8.4681    1.8700   -5.8393 H   0  0  0  0  0  0  0  0  0  0  0  0
   13.6140    3.0868   -8.3330 H   0  0  0  0  0  0  0  0  0  0  0  0
   13.8272    3.1661   -5.1153 H   0  0  0  0  0  0  0  0  0  0  0  0
   12.6788    4.4690   -4.7742 H   0  0  0  0  0  0  0  0  0  0  0  0
   14.8936    5.4013   -5.3501 H   0  0  0  0  0  0  0  0  0  0  0  0
   13.6782    5.8486   -6.5760 H   0  0  0  0  0  0  0  0  0  0  0  0
   14.8484    4.5492   -6.9131 H   0  0  0  0  0  0  0  0  0  0  0  0
    7.7022   -0.3994   -6.7861 H   0  0  0  0  0  0  0  0  0  0  0  0
  1  2  2  0  0  0  0
  2  3  1  0  0  0  0
  2  4  1  0  0  0  0
  3  7  2  0  0  0  0
  3 31  1  0  0  0  0
  4  5  1  0  0  0  0
  4 32  1  0  0  0  0
  5  6  2  0  0  0  0
  5 11  1  0  0  0  0
  6  7  1  0  0  0  0
  6  8  1  0  0  0  0
  8  9  2  0  0  0  0
  9 10  1  0  0  0  0
  9 33  1  0  0  0  0
 10 11  2  0  0  0  0
 10 12  1  0  0  0  0
 11 34  1  0  0  0  0
 12 13  1  0  0  0  0
 13 14  1  0  0  0  0
 13 24  2  0  0  0  0
 14 15  1  0  0  0  0
 15 16  1  0  0  0  0
 15 22  2  0  0  0  0
 16 17  1  0  0  0  0
 16 21  1  0  0  0  0
 17 18  1  0  0  0  0
 17 35  1  0  0  0  0
 17 36  1  0  0  0  0
 18 19  1  0  0  0  0
 18 37  1  0  0  0  0
 18 38  1  0  0  0  0
 19 20  1  0  0  0  0
 19 21  1  0  0  0  0
 19 39  1  1  0  0  0
 20 40  1  0  0  0  0
 20 41  1  0  0  0  0
 20 50  1  0  0  0  0
 21 42  1  0  0  0  0
 21 43  1  0  0  0  0
 22 23  1  0  0  0  0
 22 27  1  0  0  0  0
 23 24  1  0  0  0  0
 23 25  2  0  0  0  0
 25 26  1  0  0  0  0
 25 44  1  0  0  0  0
 26 27  2  0  0  0  0
 26 29  1  0  0  0  0
 27 28  1  0  0  0  0
 29 30  1  0  0  0  0
 29 45  1  0  0  0  0
 29 46  1  0  0  0  0
 30 47  1  0  0  0  0
 30 48  1  0  0  0  0
 30 49  1  0  0  0  0
M  CHG  3   4   1  20   1  25   1
M  END
$$$$
