COI
 OpenBabel04111919133D

 18 17  0  0  0  0  0  0  0  0999 V2000
   -7.9692  -31.9481   13.3391 C   0  0  0  0  0  0  0  0  0  0  0  0
   -8.6225  -31.4472   12.3720 O   0  0  0  0  0  0  0  0  0  0  0  0
   -7.0378  -32.8205   13.2579 O   0  0  0  0  0  0  0  0  0  0  0  0
   -8.3485  -31.5504   14.7682 C   0  0  0  0  0  0  0  0  0  0  0  0
   -8.6745  -30.3663   14.9727 O   0  0  0  0  0  0  0  0  0  0  0  0
   -8.2428  -32.5919   15.8402 C   0  0  0  0  0  0  0  0  0  0  0  0
   -9.3509  -32.7080   16.8730 C   0  0  0  0  0  0  0  0  0  0  0  0
   -8.9822  -32.1255   18.2155 C   0  0  0  0  0  0  0  0  0  0  0  0
  -10.7106  -32.2573   16.4125 C   0  0  0  0  0  0  0  0  0  0  0  0
   -7.2937  -32.4304   16.3541 H   0  0  0  0  0  0  0  0  0  0  0  0
   -8.2188  -33.5607   15.3340 H   0  0  0  0  0  0  0  0  0  0  0  0
   -9.4553  -33.7714   17.0819 H   0  0  0  0  0  0  0  0  0  0  0  0
   -9.8288  -32.2419   18.9028 H   0  0  0  0  0  0  0  0  0  0  0  0
   -8.7213  -31.0716   18.1175 H   0  0  0  0  0  0  0  0  0  0  0  0
   -8.1276  -32.6894   18.6070 H   0  0  0  0  0  0  0  0  0  0  0  0
  -10.8999  -32.7038   15.4372 H   0  0  0  0  0  0  0  0  0  0  0  0
  -10.7602  -31.1692   16.3462 H   0  0  0  0  0  0  0  0  0  0  0  0
  -11.4659  -32.6117   17.1230 H   0  0  0  0  0  0  0  0  0  0  0  0
  1  2  2  0  0  0  0
  1  3  1  0  0  0  0
  1  4  1  0  0  0  0
  4  5  2  0  0  0  0
  4  6  1  0  0  0  0
  6  7  1  0  0  0  0
  6 10  1  0  0  0  0
  6 11  1  0  0  0  0
  7  8  1  0  0  0  0
  7  9  1  0  0  0  0
  7 12  1  0  0  0  0
  8 13  1  0  0  0  0
  8 14  1  0  0  0  0
  8 15  1  0  0  0  0
  9 16  1  0  0  0  0
  9 17  1  0  0  0  0
  9 18  1  0  0  0  0
M  END
$$$$
