CTN
 OpenBabel04111919423D

 30 31  0  0  1  0  0  0  0  0999 V2000
   -1.0792   12.4481   25.3194 O   0  0  0  0  0  0  0  0  0  0  0  0
   -0.5023   13.7286   25.6018 C   0  0  0  0  0  0  0  0  0  0  0  0
    0.0474   13.7331   27.0232 C   0  0  1  0  0  0  0  0  0  0  0  0
    1.1999   14.5763   27.2305 O   0  0  0  0  0  0  0  0  0  0  0  0
    1.3581   14.5985   28.6700 C   0  0  1  0  0  0  0  0  0  0  0  0
    2.0133   15.7894   29.2299 N   0  3  0  0  0  0  0  0  0  0  0  0
    2.5440   15.6341   30.5051 C   0  0  0  0  0  0  0  0  0  0  0  0
    3.0575   16.6479   31.2102 C   0  0  0  0  0  0  0  0  0  0  0  0
    3.0607   17.9682   30.6057 C   0  0  0  0  0  0  0  0  0  0  0  0
    2.5146   18.0788   29.3667 N   0  3  0  0  0  0  0  0  0  0  0  0
    1.9282   17.0465   28.6444 C   0  0  0  0  0  0  0  0  0  0  0  0
    1.3624   17.3000   27.5871 O   0  0  0  0  0  0  0  0  0  0  0  0
    3.5448   18.9909   31.2128 N   0  0  0  0  0  0  0  0  0  0  0  0
   -0.0301   14.3206   29.2848 C   0  0  2  0  0  0  0  0  0  0  0  0
   -0.0152   13.0520   29.9699 O   0  0  0  0  0  0  0  0  0  0  0  0
   -0.9384   14.2428   28.0694 C   0  0  2  0  0  0  0  0  0  0  0  0
   -2.0591   13.4083   28.3204 O   0  0  0  0  0  0  0  0  0  0  0  0
   -0.3566   11.7918   25.3324 H   0  0  0  0  0  0  0  0  0  0  0  0
   -1.2923   14.4745   25.4650 H   0  0  0  0  0  0  0  0  0  0  0  0
    0.2765   13.9235   24.8586 H   0  0  0  0  0  0  0  0  0  0  0  0
    0.3462   12.7034   27.2659 H   0  0  0  0  0  0  0  0  0  0  0  0
    2.0332   13.7570   28.8824 H   0  0  0  0  0  0  0  0  0  0  0  0
    2.5109   14.6358   30.9395 H   0  0  0  0  0  0  0  0  0  0  0  0
    3.4525   16.5292   32.2093 H   0  0  0  0  0  0  0  0  0  0  0  0
    2.4578   18.9741   28.9123 H   0  0  0  0  0  0  0  0  0  0  0  0
    3.4763   19.8389   30.6556 H   0  0  0  0  0  0  0  0  0  0  0  0
   -0.3590   15.0741   30.0090 H   0  0  0  0  0  0  0  0  0  0  0  0
   -0.9305   12.9102   30.2761 H   0  0  0  0  0  0  0  0  0  0  0  0
   -1.2885   15.2482   27.8083 H   0  0  0  0  0  0  0  0  0  0  0  0
   -1.7659   12.4820   28.2342 H   0  0  0  0  0  0  0  0  0  0  0  0
  1  2  1  0  0  0  0
  1 18  1  0  0  0  0
  2  3  1  0  0  0  0
  2 19  1  0  0  0  0
  2 20  1  0  0  0  0
  3  4  1  0  0  0  0
  3 16  1  0  0  0  0
  3 21  1  1  0  0  0
  4  5  1  0  0  0  0
  5  6  1  0  0  0  0
  5 14  1  0  0  0  0
  5 22  1  1  0  0  0
  6  7  1  0  0  0  0
  6 11  1  0  0  0  0
  7  8  2  0  0  0  0
  7 23  1  0  0  0  0
  8  9  1  0  0  0  0
  8 24  1  0  0  0  0
  9 10  1  0  0  0  0
  9 13  2  0  0  0  0
 10 11  1  0  0  0  0
 10 25  1  0  0  0  0
 11 12  2  0  0  0  0
 13 26  1  0  0  0  0
 14 15  1  0  0  0  0
 14 16  1  0  0  0  0
 14 27  1  1  0  0  0
 15 28  1  0  0  0  0
 16 17  1  0  0  0  0
 16 29  1  6  0  0  0
 17 30  1  0  0  0  0
M  CHG  2   6   1  10   1
M  END
$$$$
