CTP
 OpenBabel04111922223D

 41 42  0  0  1  0  0  0  0  0999 V2000
   14.1845   36.7858  -24.3960 N   0  3  0  0  0  0  0  0  0  0  0  0
   12.9154   37.3601  -24.4227 C   0  0  0  0  0  0  0  0  0  0  0  0
   11.8636   36.4919  -24.1125 N   0  3  0  0  0  0  0  0  0  0  0  0
   11.9295   35.1045  -24.1539 C   0  0  0  0  0  0  0  0  0  0  0  0
   13.3224   34.5877  -24.3244 C   0  0  0  0  0  0  0  0  0  0  0  0
   14.3431   35.4046  -24.3323 C   0  0  0  0  0  0  0  0  0  0  0  0
   12.7024   38.5146  -24.7996 O   0  0  0  0  0  0  0  0  0  0  0  0
   10.8714   34.4607  -24.0476 N   0  0  0  0  0  0  0  0  0  0  0  0
   15.3395   37.6818  -24.5302 C   0  0  1  0  0  0  0  0  0  0  0  0
   16.0124   38.0217  -23.1947 C   0  0  2  0  0  0  0  0  0  0  0  0
   15.5385   39.2606  -22.6345 O   0  0  0  0  0  0  0  0  0  0  0  0
   17.4946   38.0802  -23.5234 C   0  0  1  0  0  0  0  0  0  0  0  0
   17.6305   37.2018  -24.7672 C   0  0  2  0  0  0  0  0  0  0  0  0
   16.3195   37.1032  -25.4038 O   0  0  0  0  0  0  0  0  0  0  0  0
   17.8931   39.4316  -23.8317 O   0  0  0  0  0  0  0  0  0  0  0  0
   18.1330   35.7992  -24.4163 C   0  0  0  0  0  0  0  0  0  0  0  0
   17.5844   35.3918  -23.1666 O   0  0  0  0  0  0  0  0  0  0  0  0
   18.5798   35.0150  -21.8743 P   0  0  1  0  0  0  0  0  0  0  0  0
   19.2900   36.3040  -21.5030 O   0  0  0  0  0  0  0  0  0  0  0  0
   17.5727   34.3990  -20.9168 O   0  0  0  0  0  0  0  0  0  0  0  0
   19.5664   33.9753  -22.6366 O   0  0  0  0  0  0  0  0  0  0  0  0
   20.4994   32.9700  -21.7426 P   0  0  2  0  0  0  0  0  0  0  0  0
   20.2081   31.5918  -22.3392 O   0  0  0  0  0  0  0  0  0  0  0  0
   20.1258   33.1889  -20.2990 O   0  0  0  0  0  0  0  0  0  0  0  0
   22.0031   33.4737  -22.1264 O   0  0  0  0  0  0  0  0  0  0  0  0
   23.3060   33.5603  -21.0982 P   0  0  0  0  0  0  0  0  0  0  0  0
   24.1300   34.7530  -21.6075 O   0  0  0  0  0  0  0  0  0  0  0  0
   24.0987   32.2518  -21.2730 O   0  0  0  0  0  0  0  0  0  0  0  0
   22.8120   33.7806  -19.6867 O   0  0  0  0  0  0  0  0  0  0  0  0
   10.9586   36.9310  -23.9580 H   0  0  0  0  0  0  0  0  0  0  0  0
   13.4029   33.5195  -24.3711 H   0  0  0  0  0  0  0  0  0  0  0  0
   15.3642   35.0215  -24.3995 H   0  0  0  0  0  0  0  0  0  0  0  0
   11.0735   33.4156  -24.0660 H   0  0  0  0  0  0  0  0  0  0  0  0
   15.0094   38.6153  -25.0175 H   0  0  0  0  0  0  0  0  0  0  0  0
   15.8143   37.2259  -22.4756 H   0  0  0  0  0  0  0  0  0  0  0  0
   15.7630   39.9506  -23.2832 H   0  0  0  0  0  0  0  0  0  0  0  0
   18.0937   37.7099  -22.7065 H   0  0  0  0  0  0  0  0  0  0  0  0
   18.2977   37.6648  -25.5058 H   0  0  0  0  0  0  0  0  0  0  0  0
   17.8481   39.8882  -22.9693 H   0  0  0  0  0  0  0  0  0  0  0  0
   19.2230   35.7995  -24.3886 H   0  0  0  0  0  0  0  0  0  0  0  0
   17.7917   35.0947  -25.1905 H   0  0  0  0  0  0  0  0  0  0  0  0
  1  2  1  0  0  0  0
  1  6  1  0  0  0  0
  1  9  1  0  0  0  0
  2  3  1  0  0  0  0
  2  7  2  0  0  0  0
  3  4  1  0  0  0  0
  3 30  1  0  0  0  0
  4  5  1  0  0  0  0
  4  8  2  0  0  0  0
  5  6  2  0  0  0  0
  5 31  1  0  0  0  0
  6 32  1  0  0  0  0
  8 33  1  0  0  0  0
  9 10  1  0  0  0  0
  9 14  1  0  0  0  0
  9 34  1  6  0  0  0
 10 11  1  0  0  0  0
 10 12  1  0  0  0  0
 10 35  1  1  0  0  0
 11 36  1  0  0  0  0
 12 13  1  0  0  0  0
 12 15  1  0  0  0  0
 12 37  1  1  0  0  0
 13 14  1  0  0  0  0
 13 16  1  0  0  0  0
 13 38  1  6  0  0  0
 15 39  1  0  0  0  0
 16 17  1  0  0  0  0
 16 40  1  0  0  0  0
 16 41  1  0  0  0  0
 18 17  1  6  0  0  0
 18 19  2  0  0  0  0
 18 20  1  0  0  0  0
 18 21  1  0  0  0  0
 22 21  1  6  0  0  0
 22 23  2  0  0  0  0
 22 24  1  0  0  0  0
 22 25  1  0  0  0  0
 25 26  1  0  0  0  0
 26 27  2  0  0  0  0
 26 28  1  0  0  0  0
 26 29  1  0  0  0  0
M  CHG  2   1   1   3   1
M  END
$$$$
