CTS
 OpenBabel04111919303D

 29 30  0  0  1  0  0  0  0  0999 V2000
   21.0170  -20.3155   23.3609 C   0  0  0  0  0  0  0  0  0  0  0  0
   22.1444  -19.7713   24.2536 C   0  0  1  0  0  0  0  0  0  0  0  0
   21.6466  -18.8046   25.3514 C   0  0  2  0  0  0  0  0  0  0  0  0
   20.7055  -17.7109   24.8047 C   0  0  1  0  0  0  0  0  0  0  0  0
   19.5767  -18.3936   24.0339 C   0  0  1  0  0  0  0  0  0  0  0  0
   18.6110  -17.4863   23.2815 C   0  0  1  0  0  0  0  0  0  0  0  0
   22.8626  -20.8523   24.8572 O   0  0  0  0  0  0  0  0  0  0  0  0
   22.8015  -18.1854   25.9491 O   0  0  0  0  0  0  0  0  0  0  0  0
   20.1094  -16.9783   25.8760 O   0  0  0  0  0  0  0  0  0  0  0  0
   19.3577  -16.5742   22.4713 O   0  0  0  0  0  0  0  0  0  0  0  0
   20.1555  -19.2014   22.8911 N   0  3  2  0  0  0  0  0  0  0  0  0
   17.9130  -18.4811   22.3588 C   0  0  0  0  0  0  0  0  0  0  0  0
   18.9728  -19.5357   22.0143 C   0  0  0  0  0  0  0  0  0  0  0  0
   20.3889  -21.0286   23.9072 H   0  0  0  0  0  0  0  0  0  0  0  0
   21.4249  -20.8218   22.4799 H   0  0  0  0  0  0  0  0  0  0  0  0
   22.8711  -19.2422   23.6237 H   0  0  0  0  0  0  0  0  0  0  0  0
   21.1501  -19.3571   26.1590 H   0  0  0  0  0  0  0  0  0  0  0  0
   21.2745  -17.0069   24.1915 H   0  0  0  0  0  0  0  0  0  0  0  0
   19.0185  -19.0849   24.6817 H   0  0  0  0  0  0  0  0  0  0  0  0
   17.9149  -16.9419   23.9221 H   0  0  0  0  0  0  0  0  0  0  0  0
   22.3183  -21.2866   25.5389 H   0  0  0  0  0  0  0  0  0  0  0  0
   23.4082  -18.8861   26.2284 H   0  0  0  0  0  0  0  0  0  0  0  0
   19.9439  -16.0612   25.5955 H   0  0  0  0  0  0  0  0  0  0  0  0
   19.5371  -15.7666   22.9923 H   0  0  0  0  0  0  0  0  0  0  0  0
   17.5197  -18.0115   21.4523 H   0  0  0  0  0  0  0  0  0  0  0  0
   17.0806  -18.9675   22.8783 H   0  0  0  0  0  0  0  0  0  0  0  0
   18.6342  -20.5463   22.2590 H   0  0  0  0  0  0  0  0  0  0  0  0
   19.3101  -19.4853   20.9728 H   0  0  0  0  0  0  0  0  0  0  0  0
   20.7162  -18.5359   22.3256 H   0  0  0  0  0  0  0  0  0  0  0  0
  1  2  1  0  0  0  0
  1 11  1  0  0  0  0
  1 14  1  0  0  0  0
  1 15  1  0  0  0  0
  2  3  1  0  0  0  0
  2  7  1  0  0  0  0
  2 16  1  6  0  0  0
  3  4  1  0  0  0  0
  3  8  1  0  0  0  0
  3 17  1  1  0  0  0
  4  5  1  0  0  0  0
  4  9  1  0  0  0  0
  4 18  1  6  0  0  0
  5  6  1  0  0  0  0
  5 11  1  0  0  0  0
  5 19  1  1  0  0  0
  6 10  1  0  0  0  0
  6 12  1  0  0  0  0
  6 20  1  1  0  0  0
  7 21  1  0  0  0  0
  8 22  1  0  0  0  0
  9 23  1  0  0  0  0
 10 24  1  0  0  0  0
 11 13  1  0  0  0  0
 11 29  1  6  0  0  0
 12 13  1  0  0  0  0
 12 25  1  0  0  0  0
 12 26  1  0  0  0  0
 13 27  1  0  0  0  0
 13 28  1  0  0  0  0
M  CHG  1  11   1
M  END
$$$$
