CTT
 OpenBabel04111921283D

 87 90  0  0  1  0  0  0  0  0999 V2000
    2.0910   -0.8939   53.5478 O   0  0  0  0  0  0  0  0  0  0  0  0
    2.6955   -0.5541   52.3096 C   0  0  1  0  0  0  0  0  0  0  0  0
    2.6149   -1.6976   51.2804 C   0  0  2  0  0  0  0  0  0  0  0  0
    3.2205   -2.8950   51.7615 O   0  0  0  0  0  0  0  0  0  0  0  0
    3.2989   -1.2164   49.9915 C   0  0  1  0  0  0  0  0  0  0  0  0
    3.3783   -2.2951   49.0696 O   0  0  0  0  0  0  0  0  0  0  0  0
    2.0246    0.5997   51.8130 O   0  0  0  0  0  0  0  0  0  0  0  0
    2.5842    1.0934   50.5844 C   0  0  2  0  0  0  0  0  0  0  0  0
    1.8200    2.3631   50.2299 C   0  0  0  0  0  0  0  0  0  0  0  0
    0.4244    2.0827   50.0998 O   0  0  0  0  0  0  0  0  0  0  0  0
    2.5196    0.0206   49.4599 C   0  0  1  0  0  0  0  0  0  0  0  0
    3.1464    0.5033   48.2781 O   0  0  0  0  0  0  0  0  0  0  0  0
    2.2650    0.7580   47.1572 C   0  0  1  0  0  0  0  0  0  0  0  0
    3.0684    1.7119   46.2528 C   0  0  2  0  0  0  0  0  0  0  0  0
    3.1571    2.9998   46.8904 O   0  0  0  0  0  0  0  0  0  0  0  0
    2.4807    1.8687   44.8536 C   0  0  1  0  0  0  0  0  0  0  0  0
    3.4104    2.6346   44.0759 O   0  0  0  0  0  0  0  0  0  0  0  0
    1.9422   -0.4650   46.4925 O   0  0  0  0  0  0  0  0  0  0  0  0
    1.2819   -0.2585   45.2152 C   0  0  2  0  0  0  0  0  0  0  0  0
    0.8742   -1.6426   44.6963 C   0  0  0  0  0  0  0  0  0  0  0  0
    0.1021   -2.3330   45.6811 O   0  0  0  0  0  0  0  0  0  0  0  0
    2.2120    0.4906   44.2174 C   0  0  1  0  0  0  0  0  0  0  0  0
    1.5914    0.6517   42.9180 O   0  0  0  0  0  0  0  0  0  0  0  0
    2.4659    0.3742   41.7892 C   0  0  1  0  0  0  0  0  0  0  0  0
    1.6016    0.3033   40.5192 C   0  0  2  0  0  0  0  0  0  0  0  0
    0.6520   -0.7675   40.6460 O   0  0  0  0  0  0  0  0  0  0  0  0
    2.4705    0.0865   39.2579 C   0  0  1  0  0  0  0  0  0  0  0  0
    1.6525    0.2409   38.0626 O   0  0  0  0  0  0  0  0  0  0  0  0
    3.4179    1.4072   41.5740 O   0  0  0  0  0  0  0  0  0  0  0  0
    4.3800    1.0404   40.5357 C   0  0  2  0  0  0  0  0  0  0  0  0
    5.5206    2.0498   40.6364 C   0  0  0  0  0  0  0  0  0  0  0  0
    6.0458    1.9922   41.9618 O   0  0  0  0  0  0  0  0  0  0  0  0
    3.7165    1.0105   39.1357 C   0  0  1  0  0  0  0  0  0  0  0  0
    4.4989    0.4109   38.0742 O   0  0  0  0  0  0  0  0  0  0  0  0
    5.3417    1.1942   37.2063 C   0  0  1  0  0  0  0  0  0  0  0  0
    5.7120    0.3303   35.9343 C   0  0  2  0  0  0  0  0  0  0  0  0
    7.1481    0.1917   35.8076 O   0  0  0  0  0  0  0  0  0  0  0  0
    5.1536    0.8736   34.6121 C   0  0  1  0  0  0  0  0  0  0  0  0
    5.0590   -0.1601   33.6261 O   0  0  0  0  0  0  0  0  0  0  0  0
    3.7902    1.4801   34.9027 C   0  0  2  0  0  0  0  0  0  0  0  0
    3.1542    1.8333   33.6642 O   0  0  0  0  0  0  0  0  0  0  0  0
    4.8360    2.4969   36.9415 O   0  0  0  0  0  0  0  0  0  0  0  0
    4.0816    2.7267   35.7481 C   0  0  2  0  0  0  0  0  0  0  0  0
    2.8186    3.5279   36.0882 C   0  0  0  0  0  0  0  0  0  0  0  0
    1.8705    2.7687   36.8380 O   0  0  0  0  0  0  0  0  0  0  0  0
    1.2177   -1.2641   53.3408 H   0  0  0  0  0  0  0  0  0  0  0  0
    3.7416   -0.3176   52.5279 H   0  0  0  0  0  0  0  0  0  0  0  0
    1.5642   -1.9428   51.0680 H   0  0  0  0  0  0  0  0  0  0  0  0
    3.2296   -3.5204   51.0145 H   0  0  0  0  0  0  0  0  0  0  0  0
    4.3422   -0.9305   50.1942 H   0  0  0  0  0  0  0  0  0  0  0  0
    2.4894   -2.4451   48.6928 H   0  0  0  0  0  0  0  0  0  0  0  0
    3.6328    1.3809   50.7619 H   0  0  0  0  0  0  0  0  0  0  0  0
    2.1674    2.8030   49.2934 H   0  0  0  0  0  0  0  0  0  0  0  0
    1.9380    3.1149   51.0133 H   0  0  0  0  0  0  0  0  0  0  0  0
    0.1480    1.7551   50.9784 H   0  0  0  0  0  0  0  0  0  0  0  0
    1.4827   -0.2770   49.2596 H   0  0  0  0  0  0  0  0  0  0  0  0
    1.3495    1.2468   47.5117 H   0  0  0  0  0  0  0  0  0  0  0  0
    4.0998    1.3405   46.1590 H   0  0  0  0  0  0  0  0  0  0  0  0
    3.6994    2.8610   47.6864 H   0  0  0  0  0  0  0  0  0  0  0  0
    1.5572    2.4606   44.8873 H   0  0  0  0  0  0  0  0  0  0  0  0
    3.1224    2.5972   43.1465 H   0  0  0  0  0  0  0  0  0  0  0  0
    0.3561    0.3086   45.3961 H   0  0  0  0  0  0  0  0  0  0  0  0
    1.7525   -2.2604   44.4819 H   0  0  0  0  0  0  0  0  0  0  0  0
    0.2678   -1.5646   43.7902 H   0  0  0  0  0  0  0  0  0  0  0  0
    0.6581   -2.3590   46.4822 H   0  0  0  0  0  0  0  0  0  0  0  0
    3.1527   -0.0612   44.1201 H   0  0  0  0  0  0  0  0  0  0  0  0
    2.9566   -0.5897   41.9750 H   0  0  0  0  0  0  0  0  0  0  0  0
    1.0175    1.2257   40.4075 H   0  0  0  0  0  0  0  0  0  0  0  0
    0.1487   -0.5877   41.4617 H   0  0  0  0  0  0  0  0  0  0  0  0
    2.8066   -0.9584   39.2487 H   0  0  0  0  0  0  0  0  0  0  0  0
    1.2957    1.1382   38.1076 H   0  0  0  0  0  0  0  0  0  0  0  0
    4.7882    0.0520   40.7857 H   0  0  0  0  0  0  0  0  0  0  0  0
    5.1622    3.0666   40.4427 H   0  0  0  0  0  0  0  0  0  0  0  0
    6.3339    1.8046   39.9523 H   0  0  0  0  0  0  0  0  0  0  0  0
    6.6643    2.7339   42.0728 H   0  0  0  0  0  0  0  0  0  0  0  0
    3.3880    2.0138   38.8455 H   0  0  0  0  0  0  0  0  0  0  0  0
    6.2760    1.3514   37.7573 H   0  0  0  0  0  0  0  0  0  0  0  0
    5.3476   -0.6917   36.0788 H   0  0  0  0  0  0  0  0  0  0  0  0
    7.5120    1.0374   35.4996 H   0  0  0  0  0  0  0  0  0  0  0  0
    5.8276    1.6202   34.1730 H   0  0  0  0  0  0  0  0  0  0  0  0
    4.6762    0.2582   32.8275 H   0  0  0  0  0  0  0  0  0  0  0  0
    3.1596    0.7517   35.4206 H   0  0  0  0  0  0  0  0  0  0  0  0
    2.2372    2.1033   33.8621 H   0  0  0  0  0  0  0  0  0  0  0  0
    4.6958    3.4030   35.1393 H   0  0  0  0  0  0  0  0  0  0  0  0
    2.3267    3.8880   35.1785 H   0  0  0  0  0  0  0  0  0  0  0  0
    3.0904    4.4021   36.6899 H   0  0  0  0  0  0  0  0  0  0  0  0
    1.6169    1.9946   36.3046 H   0  0  0  0  0  0  0  0  0  0  0  0
  1  2  1  0  0  0  0
  1 46  1  0  0  0  0
  2  3  1  0  0  0  0
  2  7  1  0  0  0  0
  2 47  1  1  0  0  0
  3  4  1  0  0  0  0
  3  5  1  0  0  0  0
  3 48  1  6  0  0  0
  4 49  1  0  0  0  0
  5  6  1  0  0  0  0
  5 11  1  0  0  0  0
  5 50  1  1  0  0  0
  6 51  1  0  0  0  0
  7  8  1  0  0  0  0
  8  9  1  0  0  0  0
  8 11  1  0  0  0  0
  8 52  1  1  0  0  0
  9 10  1  0  0  0  0
  9 53  1  0  0  0  0
  9 54  1  0  0  0  0
 10 55  1  0  0  0  0
 11 12  1  0  0  0  0
 11 56  1  6  0  0  0
 12 13  1  0  0  0  0
 13 14  1  0  0  0  0
 13 18  1  0  0  0  0
 13 57  1  1  0  0  0
 14 15  1  0  0  0  0
 14 16  1  0  0  0  0
 14 58  1  6  0  0  0
 15 59  1  0  0  0  0
 16 17  1  0  0  0  0
 16 22  1  0  0  0  0
 16 60  1  1  0  0  0
 17 61  1  0  0  0  0
 18 19  1  0  0  0  0
 19 20  1  0  0  0  0
 19 22  1  0  0  0  0
 19 62  1  1  0  0  0
 20 21  1  0  0  0  0
 20 63  1  0  0  0  0
 20 64  1  0  0  0  0
 21 65  1  0  0  0  0
 22 23  1  0  0  0  0
 22 66  1  6  0  0  0
 23 24  1  0  0  0  0
 24 25  1  0  0  0  0
 24 29  1  0  0  0  0
 24 67  1  1  0  0  0
 25 26  1  0  0  0  0
 25 27  1  0  0  0  0
 25 68  1  6  0  0  0
 26 69  1  0  0  0  0
 27 28  1  0  0  0  0
 27 33  1  0  0  0  0
 27 70  1  1  0  0  0
 28 71  1  0  0  0  0
 29 30  1  0  0  0  0
 30 31  1  0  0  0  0
 30 33  1  0  0  0  0
 30 72  1  1  0  0  0
 31 32  1  0  0  0  0
 31 73  1  0  0  0  0
 31 74  1  0  0  0  0
 32 75  1  0  0  0  0
 33 34  1  0  0  0  0
 33 76  1  6  0  0  0
 34 35  1  0  0  0  0
 35 36  1  0  0  0  0
 35 42  1  0  0  0  0
 35 77  1  1  0  0  0
 36 37  1  0  0  0  0
 36 38  1  0  0  0  0
 36 78  1  1  0  0  0
 37 79  1  0  0  0  0
 38 39  1  0  0  0  0
 38 40  1  0  0  0  0
 38 80  1  6  0  0  0
 39 81  1  0  0  0  0
 40 41  1  0  0  0  0
 40 43  1  0  0  0  0
 40 82  1  1  0  0  0
 41 83  1  0  0  0  0
 42 43  1  0  0  0  0
 43 44  1  0  0  0  0
 43 84  1  6  0  0  0
 44 45  1  0  0  0  0
 44 85  1  0  0  0  0
 44 86  1  0  0  0  0
 45 87  1  0  0  0  0
M  END
$$$$
