CWK
 OpenBabel04111918243D

 45 47  0  0  1  0  0  0  0  0999 V2000
   -4.8844   11.1051    9.9602 Cl  0  0  0  0  0  0  0  0  0  0  0  0
   -2.3295    7.7401    9.9789 C   0  0  2  0  0  0  0  0  0  0  0  0
   -3.2777    8.7705   10.1441 O   0  0  0  0  0  0  0  0  0  0  0  0
   -1.0631    8.4329    9.4799 C   0  0  1  0  0  0  0  0  0  0  0  0
   -0.0391    7.4327    9.4224 O   0  0  0  0  0  0  0  0  0  0  0  0
   -1.3276    9.0396    8.0969 C   0  0  1  0  0  0  0  0  0  0  0  0
   -0.1042    9.5741    7.5694 O   0  0  0  0  0  0  0  0  0  0  0  0
   -1.8363    7.9610    7.1345 C   0  0  2  0  0  0  0  0  0  0  0  0
   -2.1771    8.5964    5.8951 O   0  0  0  0  0  0  0  0  0  0  0  0
   -3.0768    7.3200    7.7464 C   0  0  2  0  0  0  0  0  0  0  0  0
   -2.7804    6.7703    9.0398 O   0  0  0  0  0  0  0  0  0  0  0  0
   -3.6228    6.1678    6.8996 C   0  0  0  0  0  0  0  0  0  0  0  0
   -2.6387    5.1387    6.7684 O   0  0  0  0  0  0  0  0  0  0  0  0
   -4.5266    8.4802   10.5672 C   0  0  0  0  0  0  0  0  0  0  0  0
   -4.9804    7.2517   11.0277 C   0  0  0  0  0  0  0  0  0  0  0  0
   -6.3095    7.1363   11.4376 C   0  0  0  0  0  0  0  0  0  0  0  0
   -7.1870    8.2334   11.3816 C   0  0  0  0  0  0  0  0  0  0  0  0
   -6.6994    9.4394   10.9194 C   0  0  0  0  0  0  0  0  0  0  0  0
   -5.3886    9.5678   10.5346 C   0  0  0  0  0  0  0  0  0  0  0  0
   -8.5859    8.1767   11.7890 C   0  0  0  0  0  0  0  0  0  0  0  0
   -9.1754    7.0084   12.2485 C   0  0  0  0  0  0  0  0  0  0  0  0
  -10.5188    6.9970   12.6202 C   0  0  0  0  0  0  0  0  0  0  0  0
  -11.3027    8.1414   12.5485 C   0  0  0  0  0  0  0  0  0  0  0  0
  -10.7311    9.3149   12.0997 C   0  0  0  0  0  0  0  0  0  0  0  0
   -9.3971    9.3174   11.7334 C   0  0  0  0  0  0  0  0  0  0  0  0
  -12.6617    8.1012   12.9359 C   0  0  0  0  0  0  0  0  0  0  0  0
  -13.8004    8.0534   13.2649 N   0  0  0  0  0  0  0  0  0  0  0  0
   -2.0948    7.2516   10.9420 H   0  0  0  0  0  0  0  0  0  0  0  0
   -0.7450    9.2242   10.1802 H   0  0  0  0  0  0  0  0  0  0  0  0
    0.7609    7.8450    9.0713 H   0  0  0  0  0  0  0  0  0  0  0  0
   -2.0844    9.8460    8.1550 H   0  0  0  0  0  0  0  0  0  0  0  0
    0.2194   10.2572    8.1696 H   0  0  0  0  0  0  0  0  0  0  0  0
   -1.0473    7.2137    6.9766 H   0  0  0  0  0  0  0  0  0  0  0  0
   -2.4782    7.9147    5.2813 H   0  0  0  0  0  0  0  0  0  0  0  0
   -3.8550    8.0972    7.8144 H   0  0  0  0  0  0  0  0  0  0  0  0
   -3.8989    6.5115    5.8986 H   0  0  0  0  0  0  0  0  0  0  0  0
   -4.5029    5.7453    7.3949 H   0  0  0  0  0  0  0  0  0  0  0  0
   -3.0146    4.4103    6.2541 H   0  0  0  0  0  0  0  0  0  0  0  0
   -4.3172    6.3964   11.0876 H   0  0  0  0  0  0  0  0  0  0  0  0
   -6.6684    6.1802   11.8008 H   0  0  0  0  0  0  0  0  0  0  0  0
   -7.3375   10.3078   10.8118 H   0  0  0  0  0  0  0  0  0  0  0  0
   -8.6004    6.0973   12.3243 H   0  0  0  0  0  0  0  0  0  0  0  0
  -10.9580    6.0744   12.9731 H   0  0  0  0  0  0  0  0  0  0  0  0
  -11.3098   10.2279   12.0324 H   0  0  0  0  0  0  0  0  0  0  0  0
   -8.9946   10.2606   11.3969 H   0  0  0  0  0  0  0  0  0  0  0  0
  1 19  1  0  0  0  0
  2  3  1  0  0  0  0
  2  4  1  0  0  0  0
  2 11  1  0  0  0  0
  2 28  1  1  0  0  0
  3 14  1  0  0  0  0
  4  5  1  0  0  0  0
  4  6  1  0  0  0  0
  4 29  1  1  0  0  0
  5 30  1  0  0  0  0
  6  7  1  0  0  0  0
  6  8  1  0  0  0  0
  6 31  1  1  0  0  0
  7 32  1  0  0  0  0
  8  9  1  0  0  0  0
  8 10  1  0  0  0  0
  8 33  1  6  0  0  0
  9 34  1  0  0  0  0
 10 11  1  0  0  0  0
 10 12  1  0  0  0  0
 10 35  1  1  0  0  0
 12 13  1  0  0  0  0
 12 36  1  0  0  0  0
 12 37  1  0  0  0  0
 13 38  1  0  0  0  0
 14 15  2  0  0  0  0
 14 19  1  0  0  0  0
 15 16  1  0  0  0  0
 15 39  1  0  0  0  0
 16 17  2  0  0  0  0
 16 40  1  0  0  0  0
 17 18  1  0  0  0  0
 17 20  1  0  0  0  0
 18 19  2  0  0  0  0
 18 41  1  0  0  0  0
 20 21  2  0  0  0  0
 20 25  1  0  0  0  0
 21 22  1  0  0  0  0
 21 42  1  0  0  0  0
 22 23  2  0  0  0  0
 22 43  1  0  0  0  0
 23 24  1  0  0  0  0
 23 26  1  0  0  0  0
 24 25  2  0  0  0  0
 24 44  1  0  0  0  0
 25 45  1  0  0  0  0
 26 27  3  0  0  0  0
M  END
$$$$
