CYT
 OpenBabel04111923003D

 14 14  0  0  0  0  0  0  0  0999 V2000
  -17.2795   14.7466   -3.1676 N   0  0  0  0  0  0  0  0  0  0  0  0
  -17.3665   14.9784   -1.8838 C   0  0  0  0  0  0  0  0  0  0  0  0
  -14.9941   15.4390   -3.3080 N   0  0  0  0  0  0  0  0  0  0  0  0
  -16.1019   14.9599   -3.9224 C   0  0  0  0  0  0  0  0  0  0  0  0
  -16.1988   14.6936   -5.1079 O   0  0  0  0  0  0  0  0  0  0  0  0
  -18.4489   14.7882   -1.1528 N   0  0  0  0  0  0  0  0  0  0  0  0
  -16.1959   15.4850   -1.1702 C   0  0  0  0  0  0  0  0  0  0  0  0
  -15.0269   15.6801   -2.0509 C   0  0  0  0  0  0  0  0  0  0  0  0
  -18.0753   14.3952   -3.6823 H   0  0  0  0  0  0  0  0  0  0  0  0
  -18.4335   14.9900   -0.1480 H   0  0  0  0  0  0  0  0  0  0  0  0
  -15.9098   14.7575   -0.4078 H   0  0  0  0  0  0  0  0  0  0  0  0
  -16.4383   16.4538   -0.7316 H   0  0  0  0  0  0  0  0  0  0  0  0
  -14.1227   16.0658   -1.5460 H   0  0  0  0  0  0  0  0  0  0  0  0
  -19.3148   14.4482   -1.5271 H   0  0  0  0  0  0  0  0  0  0  0  0
  1  2  1  0  0  0  0
  1  4  1  0  0  0  0
  1  9  1  0  0  0  0
  2  6  2  0  0  0  0
  2  7  1  0  0  0  0
  3  4  1  0  0  0  0
  3  8  2  0  0  0  0
  4  5  2  0  0  0  0
  6 10  1  0  0  0  0
  6 14  1  0  0  0  0
  7  8  1  0  0  0  0
  7 11  1  0  0  0  0
  7 12  1  0  0  0  0
  8 13  1  0  0  0  0
M  END
$$$$
