D5X
 OpenBabel04111920033D

 23 22  0  0  1  0  0  0  0  0999 V2000
  -37.9267   23.9684   -4.5870 O   0  0  0  0  0  0  0  0  0  0  0  0
  -38.4734   22.5651   -4.4087 P   0  0  0  0  0  0  0  0  0  0  0  0
  -39.8987   22.3678   -4.8570 O   0  0  0  0  0  0  0  0  0  0  0  0
  -38.0918   21.8795   -3.0971 O   0  0  0  0  0  0  0  0  0  0  0  0
  -37.6181   21.6628   -5.4958 O   0  0  0  0  0  0  0  0  0  0  0  0
  -36.2113   21.8403   -5.5466 C   0  0  0  0  0  0  0  0  0  0  0  0
  -35.5314   20.6008   -4.9706 C   0  0  2  0  0  0  0  0  0  0  0  0
  -35.7265   20.5718   -3.5404 O   0  0  0  0  0  0  0  0  0  0  0  0
  -34.0132   20.5003   -5.3121 C   0  0  0  0  0  0  0  0  0  0  0  0
  -33.6902   20.3826   -6.7129 O   0  0  0  0  0  0  0  0  0  0  0  0
  -33.1521   21.5160   -4.7855 O   0  0  0  0  0  0  0  0  0  0  0  0
  -33.5080   19.2355   -4.6524 C   0  0  0  0  0  0  0  0  0  0  0  0
  -33.4814   18.1321   -5.2102 O   0  0  0  0  0  0  0  0  0  0  0  0
  -32.8242   19.4081   -3.3193 C   0  0  0  0  0  0  0  0  0  0  0  0
  -35.8978   22.7230   -4.9940 H   0  0  0  0  0  0  0  0  0  0  0  0
  -35.9707   21.9634   -6.5998 H   0  0  0  0  0  0  0  0  0  0  0  0
  -36.0298   19.6975   -5.3458 H   0  0  0  0  0  0  0  0  0  0  0  0
  -36.6790   20.8589   -3.3894 H   0  0  0  0  0  0  0  0  0  0  0  0
  -33.0364   19.6493   -6.7451 H   0  0  0  0  0  0  0  0  0  0  0  0
  -33.1379   22.2596   -5.4132 H   0  0  0  0  0  0  0  0  0  0  0  0
  -32.5286   18.4257   -2.9455 H   0  0  0  0  0  0  0  0  0  0  0  0
  -33.4929   19.8947   -2.6033 H   0  0  0  0  0  0  0  0  0  0  0  0
  -31.9213   20.0158   -3.4518 H   0  0  0  0  0  0  0  0  0  0  0  0
  1  2  2  0  0  0  0
  2  3  1  0  0  0  0
  2  4  1  0  0  0  0
  2  5  1  0  0  0  0
  5  6  1  0  0  0  0
  6  7  1  0  0  0  0
  6 15  1  0  0  0  0
  6 16  1  0  0  0  0
  7  8  1  0  0  0  0
  7  9  1  0  0  0  0
  7 17  1  6  0  0  0
  8 18  1  0  0  0  0
  9 10  1  0  0  0  0
  9 11  1  0  0  0  0
  9 12  1  0  0  0  0
 10 19  1  0  0  0  0
 11 20  1  0  0  0  0
 12 13  2  0  0  0  0
 12 14  1  0  0  0  0
 14 21  1  0  0  0  0
 14 22  1  0  0  0  0
 14 23  1  0  0  0  0
M  END
$$$$
