D7N
 OpenBabel04111923093D

 53 56  0  0  1  0  0  0  0  0999 V2000
   21.2475  -29.4363    7.6186 C   0  0  0  0  0  0  0  0  0  0  0  0
   20.0954  -30.0126    8.4967 C   0  0  0  0  0  0  0  0  0  0  0  0
   18.6808  -29.7331    7.9115 C   0  0  0  0  0  0  0  0  0  0  0  0
   17.6981  -30.1329    8.7478 F   0  0  0  0  0  0  0  0  0  0  0  0
   18.4708  -30.4475    6.7798 F   0  0  0  0  0  0  0  0  0  0  0  0
   18.5088  -28.2770    7.5101 C   0  0  0  0  0  0  0  0  0  0  0  0
   19.6443  -27.8203    6.5932 C   0  0  0  0  0  0  0  0  0  0  0  0
   20.9395  -27.9591    7.3752 C   0  0  0  0  0  0  0  0  0  0  0  0
   22.0579  -27.1674    6.7514 N   0  3  1  0  0  0  0  0  0  0  0  0
   22.2609  -27.2702    5.2516 C   0  0  0  0  0  0  0  0  0  0  0  0
   23.4817  -26.4579    4.8200 C   0  0  0  0  0  0  0  0  0  0  0  0
   21.8986  -25.7307    7.1852 C   0  0  0  0  0  0  0  0  0  0  0  0
   23.1676  -25.0125    6.8923 C   0  0  0  0  0  0  0  0  0  0  0  0
   23.4527  -25.0351    5.4102 C   0  0  1  0  0  0  0  0  0  0  0  0
   24.7188  -24.3620    5.1938 N   0  0  0  0  0  0  0  0  0  0  0  0
   25.9105  -24.3942    5.9876 C   0  0  0  0  0  0  0  0  0  0  0  0
   24.8999  -23.5962    4.0580 C   0  0  0  0  0  0  0  0  0  0  0  0
   24.0378  -23.4172    3.2652 O   0  0  0  0  0  0  0  0  0  0  0  0
   26.2428  -23.0319    4.0663 C   0  0  0  0  0  0  0  0  0  0  0  0
   26.8156  -23.4853    5.2384 C   0  0  0  0  0  0  0  0  0  0  0  0
   28.0848  -23.0987    5.5974 C   0  0  0  0  0  0  0  0  0  0  0  0
   28.7897  -22.2479    4.7748 C   0  0  0  0  0  0  0  0  0  0  0  0
   30.0235  -21.9057    5.1437 F   0  0  0  0  0  0  0  0  0  0  0  0
   28.2304  -21.7816    3.5943 C   0  0  0  0  0  0  0  0  0  0  0  0
   26.9313  -22.1746    3.2312 C   0  0  0  0  0  0  0  0  0  0  0  0
   26.4576  -21.6514    1.9512 C   0  0  0  0  0  0  0  0  0  0  0  0
   27.1693  -20.9527    1.2709 O   0  0  0  0  0  0  0  0  0  0  0  0
   25.2271  -22.0321    1.5457 N   0  0  0  0  0  0  0  0  0  0  0  0
   21.2859  -29.9892    6.6692 H   0  0  0  0  0  0  0  0  0  0  0  0
   22.2143  -29.5743    8.1279 H   0  0  0  0  0  0  0  0  0  0  0  0
   20.1689  -29.5462    9.4966 H   0  0  0  0  0  0  0  0  0  0  0  0
   20.2413  -31.0921    8.6259 H   0  0  0  0  0  0  0  0  0  0  0  0
   18.4900  -27.6547    8.4068 H   0  0  0  0  0  0  0  0  0  0  0  0
   17.5558  -28.1768    6.9847 H   0  0  0  0  0  0  0  0  0  0  0  0
   19.4715  -26.7842    6.2812 H   0  0  0  0  0  0  0  0  0  0  0  0
   19.6835  -28.4450    5.6863 H   0  0  0  0  0  0  0  0  0  0  0  0
   20.7996  -27.5006    8.3655 H   0  0  0  0  0  0  0  0  0  0  0  0
   21.3645  -26.8795    4.7666 H   0  0  0  0  0  0  0  0  0  0  0  0
   22.3878  -28.3286    5.0181 H   0  0  0  0  0  0  0  0  0  0  0  0
   23.5085  -26.4208    3.7136 H   0  0  0  0  0  0  0  0  0  0  0  0
   24.4048  -26.9713    5.1356 H   0  0  0  0  0  0  0  0  0  0  0  0
   21.7058  -25.7152    8.2609 H   0  0  0  0  0  0  0  0  0  0  0  0
   21.0647  -25.2940    6.6379 H   0  0  0  0  0  0  0  0  0  0  0  0
   23.9916  -25.4930    7.4285 H   0  0  0  0  0  0  0  0  0  0  0  0
   23.0627  -23.9828    7.2501 H   0  0  0  0  0  0  0  0  0  0  0  0
   22.6322  -24.4803    4.9003 H   0  0  0  0  0  0  0  0  0  0  0  0
   26.3372  -25.3910    5.9990 H   0  0  0  0  0  0  0  0  0  0  0  0
   25.7446  -23.9901    6.9818 H   0  0  0  0  0  0  0  0  0  0  0  0
   28.5053  -23.4755    6.5149 H   0  0  0  0  0  0  0  0  0  0  0  0
   28.7893  -21.1190    2.9367 H   0  0  0  0  0  0  0  0  0  0  0  0
   24.8637  -21.6908    0.6751 H   0  0  0  0  0  0  0  0  0  0  0  0
   24.6552  -22.6727    2.0859 H   0  0  0  0  0  0  0  0  0  0  0  0
   22.9300  -27.4966    7.1846 H   0  0  0  0  0  0  0  0  0  0  0  0
  1  2  1  0  0  0  0
  1  8  1  0  0  0  0
  1 29  1  0  0  0  0
  1 30  1  0  0  0  0
  2  3  1  0  0  0  0
  2 31  1  0  0  0  0
  2 32  1  0  0  0  0
  3  4  1  0  0  0  0
  3  5  1  0  0  0  0
  3  6  1  0  0  0  0
  6  7  1  0  0  0  0
  6 33  1  0  0  0  0
  6 34  1  0  0  0  0
  7  8  1  0  0  0  0
  7 35  1  0  0  0  0
  7 36  1  0  0  0  0
  8  9  1  0  0  0  0
  8 37  1  0  0  0  0
  9 10  1  0  0  0  0
  9 12  1  0  0  0  0
  9 53  1  1  0  0  0
 10 11  1  0  0  0  0
 10 38  1  0  0  0  0
 10 39  1  0  0  0  0
 11 14  1  0  0  0  0
 11 40  1  0  0  0  0
 11 41  1  0  0  0  0
 12 13  1  0  0  0  0
 12 42  1  0  0  0  0
 12 43  1  0  0  0  0
 13 14  1  0  0  0  0
 13 44  1  0  0  0  0
 13 45  1  0  0  0  0
 14 15  1  0  0  0  0
 14 46  1  6  0  0  0
 15 16  1  0  0  0  0
 15 17  1  0  0  0  0
 16 20  1  0  0  0  0
 16 47  1  0  0  0  0
 16 48  1  0  0  0  0
 17 18  2  0  0  0  0
 17 19  1  0  0  0  0
 19 20  2  0  0  0  0
 19 25  1  0  0  0  0
 20 21  1  0  0  0  0
 21 22  2  0  0  0  0
 21 49  1  0  0  0  0
 22 23  1  0  0  0  0
 22 24  1  0  0  0  0
 24 25  2  0  0  0  0
 24 50  1  0  0  0  0
 25 26  1  0  0  0  0
 26 27  2  0  0  0  0
 26 28  1  0  0  0  0
 28 51  1  0  0  0  0
 28 52  1  0  0  0  0
M  CHG  1   9   1
M  END
$$$$
