DAL
 OpenBabel04111920473D

 23 22  0  0  1  0  0  0  0  0999 V2000
  -45.9304    1.5874  -32.6906 N   0  3  0  0  0  0  0  0  0  0  0  0
  -46.0988    3.0529  -32.9597 C   0  0  2  0  0  0  0  0  0  0  0  0
  -45.4819    3.3791  -34.3094 C   0  0  0  0  0  0  0  0  0  0  0  0
  -45.4238    3.7865  -31.8070 C   0  0  0  0  0  0  0  0  0  0  0  0
  -44.4795    3.2237  -31.2358 O   0  0  0  0  0  0  0  0  0  0  0  0
  -46.0499    4.9271  -31.3990 N   0  0  0  0  0  0  0  0  0  0  0  0
  -45.3343    5.8509  -30.4986 C   0  0  2  0  0  0  0  0  0  0  0  0
  -46.2735    6.9988  -30.1582 C   0  0  0  0  0  0  0  0  0  0  0  0
  -44.0190    6.4675  -31.0884 C   0  0  0  0  0  0  0  0  0  0  0  0
  -44.0002    6.5049  -32.3596 O   0  0  0  0  0  0  0  0  0  0  0  0
  -43.1570    6.8153  -30.2414 O   0  0  0  0  0  0  0  0  0  0  0  0
  -46.2836    1.3893  -31.7421 H   0  0  0  0  0  0  0  0  0  0  0  0
  -46.3647    0.9718  -33.3786 H   0  0  0  0  0  0  0  0  0  0  0  0
  -47.1762    3.2479  -32.9566 H   0  0  0  0  0  0  0  0  0  0  0  0
  -45.5791    4.4465  -34.5389 H   0  0  0  0  0  0  0  0  0  0  0  0
  -45.9783    2.8176  -35.1098 H   0  0  0  0  0  0  0  0  0  0  0  0
  -44.4150    3.1352  -34.3376 H   0  0  0  0  0  0  0  0  0  0  0  0
  -46.6958    5.3882  -32.0294 H   0  0  0  0  0  0  0  0  0  0  0  0
  -45.0743    5.2873  -29.5976 H   0  0  0  0  0  0  0  0  0  0  0  0
  -45.8273    7.6970  -29.4459 H   0  0  0  0  0  0  0  0  0  0  0  0
  -47.1999    6.6030  -29.7257 H   0  0  0  0  0  0  0  0  0  0  0  0
  -46.5535    7.5616  -31.0579 H   0  0  0  0  0  0  0  0  0  0  0  0
  -44.9166    1.4106  -32.6220 H   0  0  0  0  0  0  0  0  0  0  0  0
  1  2  1  0  0  0  0
  1 12  1  0  0  0  0
  1 13  1  0  0  0  0
  1 23  1  0  0  0  0
  2  3  1  0  0  0  0
  2  4  1  0  0  0  0
  2 14  1  6  0  0  0
  3 15  1  0  0  0  0
  3 16  1  0  0  0  0
  3 17  1  0  0  0  0
  4  5  2  0  0  0  0
  4  6  1  0  0  0  0
  6  7  1  0  0  0  0
  6 18  1  0  0  0  0
  7  8  1  0  0  0  0
  7  9  1  0  0  0  0
  7 19  1  1  0  0  0
  8 20  1  0  0  0  0
  8 21  1  0  0  0  0
  8 22  1  0  0  0  0
  9 10  2  0  0  0  0
  9 11  1  0  0  0  0
M  CHG  1   1   1
M  END
$$$$
