DAT
 OpenBabel04111922123D

 38 40  0  0  1  0  0  0  0  0999 V2000
    5.5193  -54.1059    5.6789 P   0  0  0  0  0  0  0  0  0  0  0  0
    5.1005  -52.6371    5.5675 O   0  0  0  0  0  0  0  0  0  0  0  0
    6.3910  -54.3686    6.9276 O   0  0  0  0  0  0  0  0  0  0  0  0
    4.3326  -55.0364    5.5152 O   0  0  0  0  0  0  0  0  0  0  0  0
    7.0247  -55.7843    3.8416 P   0  0  1  0  0  0  0  0  0  0  0  0
    6.1566  -56.9700    4.1662 O   0  0  0  0  0  0  0  0  0  0  0  0
    7.4589  -55.6035    2.3908 O   0  0  0  0  0  0  0  0  0  0  0  0
    6.5102  -54.3609    4.4232 O   0  0  0  0  0  0  0  0  0  0  0  0
    8.4252  -55.9753    4.6575 O   0  0  0  0  0  0  0  0  0  0  0  0
    8.3981  -56.6216    5.9234 C   0  0  0  0  0  0  0  0  0  0  0  0
    9.5911  -56.1174    6.7620 C   0  0  1  0  0  0  0  0  0  0  0  0
   10.8967  -56.3309    6.1515 O   0  0  0  0  0  0  0  0  0  0  0  0
    9.4787  -54.6221    6.9967 C   0  0  1  0  0  0  0  0  0  0  0  0
    8.6914  -54.3689    8.1476 O   0  0  0  0  0  0  0  0  0  0  0  0
   10.9077  -54.1728    7.2088 C   0  0  0  0  0  0  0  0  0  0  0  0
   11.7503  -55.1967    6.4645 C   0  0  2  0  0  0  0  0  0  0  0  0
   12.2579  -54.6405    5.2177 N   0  3  0  0  0  0  0  0  0  0  0  0
   11.3474  -54.3431    4.2060 C   0  0  0  0  0  0  0  0  0  0  0  0
   11.9228  -53.7951    3.1635 N   0  0  0  0  0  0  0  0  0  0  0  0
   13.2613  -53.7199    3.4710 C   0  0  0  0  0  0  0  0  0  0  0  0
   14.3101  -53.2379    2.7056 C   0  0  0  0  0  0  0  0  0  0  0  0
   14.2445  -52.7276    1.4251 N   0  0  0  0  0  0  0  0  0  0  0  0
   15.5618  -53.2762    3.2654 N   0  0  0  0  0  0  0  0  0  0  0  0
   15.6535  -53.7456    4.5270 C   0  0  0  0  0  0  0  0  0  0  0  0
   14.7138  -54.2245    5.3570 N   0  0  0  0  0  0  0  0  0  0  0  0
   13.4981  -54.2029    4.7842 C   0  0  0  0  0  0  0  0  0  0  0  0
    8.4781  -57.7006    5.7576 H   0  0  0  0  0  0  0  0  0  0  0  0
    7.4571  -56.4414    6.4502 H   0  0  0  0  0  0  0  0  0  0  0  0
    9.6178  -56.6639    7.7162 H   0  0  0  0  0  0  0  0  0  0  0  0
    9.0571  -54.1031    6.1270 H   0  0  0  0  0  0  0  0  0  0  0  0
    7.7465  -54.5424    7.8202 H   0  0  0  0  0  0  0  0  0  0  0  0
   11.1816  -54.1594    8.2672 H   0  0  0  0  0  0  0  0  0  0  0  0
   11.0759  -53.1591    6.8229 H   0  0  0  0  0  0  0  0  0  0  0  0
   12.5592  -55.5514    7.1104 H   0  0  0  0  0  0  0  0  0  0  0  0
   10.3037  -54.5553    4.3576 H   0  0  0  0  0  0  0  0  0  0  0  0
   15.1192  -52.4892    0.9920 H   0  0  0  0  0  0  0  0  0  0  0  0
   13.3487  -52.7585    0.9417 H   0  0  0  0  0  0  0  0  0  0  0  0
   16.6842  -53.7095    4.8955 H   0  0  0  0  0  0  0  0  0  0  0  0
  1  2  2  0  0  0  0
  1  3  1  0  0  0  0
  1  4  1  0  0  0  0
  1  8  1  0  0  0  0
  5  6  2  1  0  0  0
  5  7  1  0  0  0  0
  5  8  1  0  0  0  0
  5  9  1  0  0  0  0
  9 10  1  0  0  0  0
 10 11  1  0  0  0  0
 10 27  1  0  0  0  0
 10 28  1  0  0  0  0
 11 12  1  0  0  0  0
 11 13  1  0  0  0  0
 11 29  1  1  0  0  0
 12 16  1  0  0  0  0
 13 14  1  0  0  0  0
 13 15  1  0  0  0  0
 13 30  1  6  0  0  0
 14 31  1  0  0  0  0
 15 16  1  0  0  0  0
 15 32  1  0  0  0  0
 15 33  1  0  0  0  0
 16 17  1  0  0  0  0
 16 34  1  1  0  0  0
 17 18  2  0  0  0  0
 17 26  1  0  0  0  0
 18 19  1  0  0  0  0
 18 35  1  0  0  0  0
 19 20  1  0  0  0  0
 20 21  2  0  0  0  0
 20 26  1  0  0  0  0
 21 22  1  0  0  0  0
 21 23  1  0  0  0  0
 22 36  1  0  0  0  0
 22 37  1  0  0  0  0
 23 24  2  0  0  0  0
 24 25  1  0  0  0  0
 24 38  1  0  0  0  0
 25 26  2  0  0  0  0
M  CHG  1  17   1
M  END
$$$$
