DF5
 OpenBabel04111922513D

 42 44  0  0  0  0  0  0  0  0999 V2000
   13.7375    2.6609   16.7988 O   0  0  0  0  0  0  0  0  0  0  0  0
   15.1752    2.6440   16.8913 S   0  0  0  0  0  0  0  0  0  0  0  0
   15.8671    2.6774   18.1699 O   0  0  0  0  0  0  0  0  0  0  0  0
   15.6960    1.3013   16.0554 N   0  0  0  0  0  0  0  0  0  0  0  0
   15.8202    3.9676   15.9028 C   0  0  0  0  0  0  0  0  0  0  0  0
   17.1352    4.0062   15.4360 C   0  0  0  0  0  0  0  0  0  0  0  0
   14.9258    4.9830   15.5738 C   0  0  0  0  0  0  0  0  0  0  0  0
   15.3468    6.0462   14.7697 C   0  0  0  0  0  0  0  0  0  0  0  0
   16.6511    6.1406   14.2774 C   0  0  0  0  0  0  0  0  0  0  0  0
   17.5507    5.0893   14.6103 C   0  0  0  0  0  0  0  0  0  0  0  0
   16.9620    7.3176   13.3880 C   0  0  0  0  0  0  0  0  0  0  0  0
   16.0085    7.8447   12.8141 O   0  0  0  0  0  0  0  0  0  0  0  0
   18.2595    7.8683   13.3062 N   0  0  0  0  0  0  0  0  0  0  0  0
   18.5447    8.7616   12.2088 C   0  0  0  0  0  0  0  0  0  0  0  0
   18.2963    8.3852   10.8727 C   0  0  0  0  0  0  0  0  0  0  0  0
   18.5626    9.2651    9.7988 C   0  0  0  0  0  0  0  0  0  0  0  0
   19.0881   10.5318   10.0495 C   0  0  0  0  0  0  0  0  0  0  0  0
   19.2943   11.4344    9.0386 O   0  0  0  0  0  0  0  0  0  0  0  0
   20.6705   11.5131    8.6480 C   0  0  0  0  0  0  0  0  0  0  0  0
   19.3035   10.9228   11.3643 C   0  0  0  0  0  0  0  0  0  0  0  0
   19.0683   10.0389   12.4386 C   0  0  0  0  0  0  0  0  0  0  0  0
   19.3321   10.5599   13.8099 C   0  0  0  0  0  0  0  0  0  0  0  0
   19.3500    9.5267   14.9094 C   0  0  0  0  0  0  0  0  0  0  0  0
   18.9433    8.1029   14.5682 C   0  0  0  0  0  0  0  0  0  0  0  0
   15.2412    1.1138   15.1806 H   0  0  0  0  0  0  0  0  0  0  0  0
   16.2184    0.5966   16.5629 H   0  0  0  0  0  0  0  0  0  0  0  0
   17.8416    3.2147   15.6841 H   0  0  0  0  0  0  0  0  0  0  0  0
   13.9065    4.9554   15.9457 H   0  0  0  0  0  0  0  0  0  0  0  0
   14.6137    6.8198   14.5315 H   0  0  0  0  0  0  0  0  0  0  0  0
   18.5637    5.1059   14.2294 H   0  0  0  0  0  0  0  0  0  0  0  0
   17.9116    7.3909   10.6505 H   0  0  0  0  0  0  0  0  0  0  0  0
   18.3547    8.9499    8.7783 H   0  0  0  0  0  0  0  0  0  0  0  0
   20.7719   12.2957    7.8842 H   0  0  0  0  0  0  0  0  0  0  0  0
   20.9901   10.5687    8.1979 H   0  0  0  0  0  0  0  0  0  0  0  0
   21.3349   11.7813    9.4782 H   0  0  0  0  0  0  0  0  0  0  0  0
   19.6640   11.9303   11.5625 H   0  0  0  0  0  0  0  0  0  0  0  0
   18.5867   11.3268   14.0594 H   0  0  0  0  0  0  0  0  0  0  0  0
   20.3108   11.0569   13.7972 H   0  0  0  0  0  0  0  0  0  0  0  0
   18.7096    9.8915   15.7222 H   0  0  0  0  0  0  0  0  0  0  0  0
   20.3634    9.4931   15.3289 H   0  0  0  0  0  0  0  0  0  0  0  0
   19.8312    7.4624   14.5919 H   0  0  0  0  0  0  0  0  0  0  0  0
   18.2879    7.7752   15.3821 H   0  0  0  0  0  0  0  0  0  0  0  0
  1  2  2  0  0  0  0
  2  3  2  0  0  0  0
  2  4  1  0  0  0  0
  2  5  1  0  0  0  0
  4 25  1  0  0  0  0
  4 26  1  0  0  0  0
  5  6  2  0  0  0  0
  5  7  1  0  0  0  0
  6 10  1  0  0  0  0
  6 27  1  0  0  0  0
  7  8  2  0  0  0  0
  7 28  1  0  0  0  0
  8  9  1  0  0  0  0
  8 29  1  0  0  0  0
  9 10  2  0  0  0  0
  9 11  1  0  0  0  0
 10 30  1  0  0  0  0
 11 12  2  0  0  0  0
 11 13  1  0  0  0  0
 13 14  1  0  0  0  0
 13 24  1  0  0  0  0
 14 15  2  0  0  0  0
 14 21  1  0  0  0  0
 15 16  1  0  0  0  0
 15 31  1  0  0  0  0
 16 17  2  0  0  0  0
 16 32  1  0  0  0  0
 17 18  1  0  0  0  0
 17 20  1  0  0  0  0
 18 19  1  0  0  0  0
 19 33  1  0  0  0  0
 19 34  1  0  0  0  0
 19 35  1  0  0  0  0
 20 21  2  0  0  0  0
 20 36  1  0  0  0  0
 21 22  1  0  0  0  0
 22 23  1  0  0  0  0
 22 37  1  0  0  0  0
 22 38  1  0  0  0  0
 23 24  1  0  0  0  0
 23 39  1  0  0  0  0
 23 40  1  0  0  0  0
 24 41  1  0  0  0  0
 24 42  1  0  0  0  0
M  END
$$$$
