DFL
 OpenBabel04111920023D

 28 30  0  0  0  0  0  0  0  0999 V2000
   -4.7024   34.8100  -15.4661 C   0  0  0  0  0  0  0  0  0  0  0  0
   -5.4208   35.5146  -16.4347 C   0  0  0  0  0  0  0  0  0  0  0  0
   -6.3164   36.5110  -16.0504 C   0  0  0  0  0  0  0  0  0  0  0  0
   -6.4754   36.8028  -14.6943 C   0  0  0  0  0  0  0  0  0  0  0  0
   -5.7481   36.1201  -13.7258 C   0  0  0  0  0  0  0  0  0  0  0  0
   -4.8658   35.1101  -14.1105 C   0  0  0  0  0  0  0  0  0  0  0  0
   -7.4129   37.8422  -14.2607 C   0  0  0  0  0  0  0  0  0  0  0  0
   -7.4147   38.1675  -12.8291 C   0  0  0  0  0  0  0  0  0  0  0  0
   -6.6553   37.4596  -11.9786 C   0  0  0  0  0  0  0  0  0  0  0  0
   -5.8498   36.3985  -12.3859 O   0  3  0  0  0  0  0  0  0  0  0  0
   -6.6073   37.7406  -10.5155 C   0  0  0  0  0  0  0  0  0  0  0  0
   -7.4032   38.7309   -9.9072 C   0  0  0  0  0  0  0  0  0  0  0  0
   -7.3457   38.9739   -8.5307 C   0  0  0  0  0  0  0  0  0  0  0  0
   -6.4899   38.2224   -7.7396 C   0  0  0  0  0  0  0  0  0  0  0  0
   -5.6907   37.2394   -8.3034 C   0  0  0  0  0  0  0  0  0  0  0  0
   -5.7465   37.0039   -9.6811 C   0  0  0  0  0  0  0  0  0  0  0  0
   -8.1565   38.4259  -15.0401 O   0  0  0  0  0  0  0  0  0  0  0  0
   -6.4063   38.4220   -6.3954 O   0  0  0  0  0  0  0  0  0  0  0  0
   -4.0097   34.0285  -15.7692 H   0  0  0  0  0  0  0  0  0  0  0  0
   -5.2848   35.2875  -17.4899 H   0  0  0  0  0  0  0  0  0  0  0  0
   -6.8804   37.0612  -16.7996 H   0  0  0  0  0  0  0  0  0  0  0  0
   -4.3029   34.5601  -13.3614 H   0  0  0  0  0  0  0  0  0  0  0  0
   -8.0563   38.9924  -12.5569 H   0  0  0  0  0  0  0  0  0  0  0  0
   -8.0930   39.3402  -10.4829 H   0  0  0  0  0  0  0  0  0  0  0  0
   -7.9760   39.7479   -8.1037 H   0  0  0  0  0  0  0  0  0  0  0  0
   -5.0245   36.6542   -7.6763 H   0  0  0  0  0  0  0  0  0  0  0  0
   -5.1008   36.2290  -10.0887 H   0  0  0  0  0  0  0  0  0  0  0  0
   -7.0173   39.1357   -6.1494 H   0  0  0  0  0  0  0  0  0  0  0  0
  1  2  2  0  0  0  0
  1  6  1  0  0  0  0
  1 19  1  0  0  0  0
  2  3  1  0  0  0  0
  2 20  1  0  0  0  0
  3  4  2  0  0  0  0
  3 21  1  0  0  0  0
  4  5  1  0  0  0  0
  4  7  1  0  0  0  0
  5  6  2  0  0  0  0
  5 10  1  0  0  0  0
  6 22  1  0  0  0  0
  7  8  1  0  0  0  0
  7 17  2  0  0  0  0
  8  9  2  0  0  0  0
  8 23  1  0  0  0  0
  9 10  1  0  0  0  0
  9 11  1  0  0  0  0
 11 12  2  0  0  0  0
 11 16  1  0  0  0  0
 12 13  1  0  0  0  0
 12 24  1  0  0  0  0
 13 14  2  0  0  0  0
 13 25  1  0  0  0  0
 14 15  1  0  0  0  0
 14 18  1  0  0  0  0
 15 16  2  0  0  0  0
 15 26  1  0  0  0  0
 16 27  1  0  0  0  0
 18 28  1  0  0  0  0
M  CHG  1  10   1
M  END
$$$$
