DGJ
 OpenBabel04111918253D

 25 25  0  0  1  0  0  0  0  0999 V2000
   40.0973  -46.8867    8.2856 C   0  0  0  0  0  0  0  0  0  0  0  0
   39.5652  -45.4381    8.2046 C   0  0  2  0  0  0  0  0  0  0  0  0
   38.7576  -45.1395    9.3467 O   0  0  0  0  0  0  0  0  0  0  0  0
   38.7433  -45.2012    6.9225 C   0  0  1  0  0  0  0  0  0  0  0  0
   38.3837  -43.8338    6.7715 O   0  0  0  0  0  0  0  0  0  0  0  0
   39.5316  -45.6528    5.6722 C   0  0  1  0  0  0  0  0  0  0  0  0
   40.8416  -45.0510    5.6720 O   0  0  0  0  0  0  0  0  0  0  0  0
   39.7444  -47.1505    5.8159 C   0  0  2  0  0  0  0  0  0  0  0  0
   40.6869  -47.3298    7.0033 N   0  3  0  0  0  0  0  0  0  0  0  0
   40.3798  -47.7990    4.5904 C   0  0  0  0  0  0  0  0  0  0  0  0
   40.6165  -49.1649    4.9168 O   0  0  0  0  0  0  0  0  0  0  0  0
   39.2804  -47.5862    8.5190 H   0  0  0  0  0  0  0  0  0  0  0  0
   40.8715  -46.9797    9.0543 H   0  0  0  0  0  0  0  0  0  0  0  0
   40.4071  -44.7353    8.2347 H   0  0  0  0  0  0  0  0  0  0  0  0
   38.0045  -45.7530    9.4117 H   0  0  0  0  0  0  0  0  0  0  0  0
   37.7980  -45.7558    6.9820 H   0  0  0  0  0  0  0  0  0  0  0  0
   37.9991  -43.5249    7.6211 H   0  0  0  0  0  0  0  0  0  0  0  0
   39.0025  -45.3769    4.7541 H   0  0  0  0  0  0  0  0  0  0  0  0
   41.1487  -44.9590    4.7477 H   0  0  0  0  0  0  0  0  0  0  0  0
   38.8258  -47.6949    6.0766 H   0  0  0  0  0  0  0  0  0  0  0  0
   41.5208  -46.7361    6.7958 H   0  0  0  0  0  0  0  0  0  0  0  0
   41.3387  -47.3353    4.3345 H   0  0  0  0  0  0  0  0  0  0  0  0
   39.7191  -47.7250    3.7208 H   0  0  0  0  0  0  0  0  0  0  0  0
   39.7706  -49.6505    4.8440 H   0  0  0  0  0  0  0  0  0  0  0  0
   41.0301  -48.3035    7.0144 H   0  0  0  0  0  0  0  0  0  0  0  0
  1  2  1  0  0  0  0
  1  9  1  0  0  0  0
  1 12  1  0  0  0  0
  1 13  1  0  0  0  0
  2  3  1  0  0  0  0
  2  4  1  0  0  0  0
  2 14  1  6  0  0  0
  3 15  1  0  0  0  0
  4  5  1  0  0  0  0
  4  6  1  0  0  0  0
  4 16  1  1  0  0  0
  5 17  1  0  0  0  0
  6  7  1  0  0  0  0
  6  8  1  0  0  0  0
  6 18  1  6  0  0  0
  7 19  1  0  0  0  0
  8  9  1  0  0  0  0
  8 10  1  0  0  0  0
  8 20  1  1  0  0  0
  9 21  1  0  0  0  0
  9 25  1  0  0  0  0
 10 11  1  0  0  0  0
 10 22  1  0  0  0  0
 10 23  1  0  0  0  0
 11 24  1  0  0  0  0
M  CHG  1   9   1
M  END
$$$$
