DGJ
 OpenBabel04111918373D

 25 25  0  0  1  0  0  0  0  0999 V2000
   58.9298   -5.6725   18.9533 C   0  0  0  0  0  0  0  0  0  0  0  0
   58.1216   -4.8910   17.9260 C   0  0  2  0  0  0  0  0  0  0  0  0
   57.0001   -4.2496   18.5480 O   0  0  0  0  0  0  0  0  0  0  0  0
   57.6917   -5.8705   16.8239 C   0  0  1  0  0  0  0  0  0  0  0  0
   56.8308   -5.2603   15.8826 O   0  0  0  0  0  0  0  0  0  0  0  0
   58.9463   -6.4012   16.1150 C   0  0  1  0  0  0  0  0  0  0  0  0
   59.6524   -5.2768   15.5840 O   0  0  0  0  0  0  0  0  0  0  0  0
   59.8490   -7.1323   17.1136 C   0  0  2  0  0  0  0  0  0  0  0  0
   60.1261   -6.2386   18.3156 N   0  3  0  0  0  0  0  0  0  0  0  0
   61.1850   -7.4971   16.4516 C   0  0  0  0  0  0  0  0  0  0  0  0
   62.0487   -8.1173   17.4042 O   0  0  0  0  0  0  0  0  0  0  0  0
   58.3526   -6.5165   19.3498 H   0  0  0  0  0  0  0  0  0  0  0  0
   59.2591   -5.0421   19.7771 H   0  0  0  0  0  0  0  0  0  0  0  0
   58.7341   -4.0850   17.4961 H   0  0  0  0  0  0  0  0  0  0  0  0
   56.4000   -4.9127   18.9081 H   0  0  0  0  0  0  0  0  0  0  0  0
   57.1267   -6.6988   17.2590 H   0  0  0  0  0  0  0  0  0  0  0  0
   56.0854   -4.8441   16.3678 H   0  0  0  0  0  0  0  0  0  0  0  0
   58.6473   -7.0788   15.3058 H   0  0  0  0  0  0  0  0  0  0  0  0
   60.3588   -5.5642   14.9771 H   0  0  0  0  0  0  0  0  0  0  0  0
   59.3527   -8.0227   17.5105 H   0  0  0  0  0  0  0  0  0  0  0  0
   60.7909   -5.4997   18.0498 H   0  0  0  0  0  0  0  0  0  0  0  0
   61.7002   -6.6041   16.0852 H   0  0  0  0  0  0  0  0  0  0  0  0
   60.9909   -8.1746   15.6127 H   0  0  0  0  0  0  0  0  0  0  0  0
   62.8569   -8.3784   16.9140 H   0  0  0  0  0  0  0  0  0  0  0  0
   60.6669   -6.8307   18.9775 H   0  0  0  0  0  0  0  0  0  0  0  0
  1  2  1  0  0  0  0
  1  9  1  0  0  0  0
  1 12  1  0  0  0  0
  1 13  1  0  0  0  0
  2  3  1  0  0  0  0
  2  4  1  0  0  0  0
  2 14  1  6  0  0  0
  3 15  1  0  0  0  0
  4  5  1  0  0  0  0
  4  6  1  0  0  0  0
  4 16  1  1  0  0  0
  5 17  1  0  0  0  0
  6  7  1  0  0  0  0
  6  8  1  0  0  0  0
  6 18  1  6  0  0  0
  7 19  1  0  0  0  0
  8  9  1  0  0  0  0
  8 10  1  0  0  0  0
  8 20  1  1  0  0  0
  9 21  1  0  0  0  0
  9 25  1  0  0  0  0
 10 11  1  0  0  0  0
 10 22  1  0  0  0  0
 10 23  1  0  0  0  0
 11 24  1  0  0  0  0
M  CHG  1   9   1
M  END
$$$$
