DHB
 OpenBabel04111918533D

 16 16  0  0  0  0  0  0  0  0999 V2000
   33.3421   39.6151   23.2693 C   0  0  0  0  0  0  0  0  0  0  0  0
   32.3364   40.3115   22.5704 C   0  0  0  0  0  0  0  0  0  0  0  0
   32.4968   41.6545   22.2539 C   0  0  0  0  0  0  0  0  0  0  0  0
   31.4925   42.2951   21.5801 O   0  0  0  0  0  0  0  0  0  0  0  0
   33.6579   42.3284   22.6221 C   0  0  0  0  0  0  0  0  0  0  0  0
   33.7783   43.6550   22.2959 O   0  0  0  0  0  0  0  0  0  0  0  0
   34.6720   41.6627   23.3085 C   0  0  0  0  0  0  0  0  0  0  0  0
   34.5123   40.3049   23.6292 C   0  0  0  0  0  0  0  0  0  0  0  0
   33.1423   38.1610   23.6279 C   0  0  0  0  0  0  0  0  0  0  0  0
   32.3705   37.4782   22.8884 O   0  0  0  0  0  0  0  0  0  0  0  0
   33.7680   37.7376   24.6540 O   0  0  0  0  0  0  0  0  0  0  0  0
   31.4261   39.7852   22.2947 H   0  0  0  0  0  0  0  0  0  0  0  0
   31.7990   43.2106   21.4581 H   0  0  0  0  0  0  0  0  0  0  0  0
   34.6429   43.9507   22.6281 H   0  0  0  0  0  0  0  0  0  0  0  0
   35.5819   42.1658   23.6024 H   0  0  0  0  0  0  0  0  0  0  0  0
   35.2905   39.7695   24.1730 H   0  0  0  0  0  0  0  0  0  0  0  0
  1  2  2  0  0  0  0
  1  8  1  0  0  0  0
  1  9  1  0  0  0  0
  2  3  1  0  0  0  0
  2 12  1  0  0  0  0
  3  4  1  0  0  0  0
  3  5  2  0  0  0  0
  4 13  1  0  0  0  0
  5  6  1  0  0  0  0
  5  7  1  0  0  0  0
  6 14  1  0  0  0  0
  7  8  2  0  0  0  0
  7 15  1  0  0  0  0
  8 16  1  0  0  0  0
  9 10  2  0  0  0  0
  9 11  1  0  0  0  0
M  END
$$$$
