DJN
 OpenBabel04111918373D

 31 31  0  0  1  0  0  0  0  0999 V2000
   58.0392   -1.8722   18.1596 O   0  0  0  0  0  0  0  0  0  0  0  0
   57.3071   -2.5199   18.8830 C   0  0  0  0  0  0  0  0  0  0  0  0
   56.3948   -1.8778   19.8848 C   0  0  0  0  0  0  0  0  0  0  0  0
   57.2752   -3.8843   18.8909 N   0  0  0  0  0  0  0  0  0  0  0  0
   58.2413   -4.6545   18.1490 C   0  0  2  0  0  0  0  0  0  0  0  0
   57.6327   -5.5912   17.0740 C   0  0  1  0  0  0  0  0  0  0  0  0
   56.7294   -4.8772   16.2390 O   0  0  0  0  0  0  0  0  0  0  0  0
   58.7887   -6.2068   16.2608 C   0  0  1  0  0  0  0  0  0  0  0  0
   59.5219   -5.1485   15.6307 O   0  0  0  0  0  0  0  0  0  0  0  0
   59.7227   -7.0091   17.1786 C   0  0  1  0  0  0  0  0  0  0  0  0
   60.9792   -7.4776   16.4382 C   0  0  0  0  0  0  0  0  0  0  0  0
   61.8581   -8.0906   17.3682 O   0  0  0  0  0  0  0  0  0  0  0  0
   60.1779   -6.2010   18.3770 N   0  3  0  0  0  0  0  0  0  0  0  0
   59.0645   -5.5244   19.0998 C   0  0  0  0  0  0  0  0  0  0  0  0
   55.8753   -2.6171   20.5008 H   0  0  0  0  0  0  0  0  0  0  0  0
   55.6543   -1.2633   19.3628 H   0  0  0  0  0  0  0  0  0  0  0  0
   57.0083   -1.2512   20.5426 H   0  0  0  0  0  0  0  0  0  0  0  0
   56.5763   -4.3664   19.4633 H   0  0  0  0  0  0  0  0  0  0  0  0
   58.9229   -3.9512   17.6440 H   0  0  0  0  0  0  0  0  0  0  0  0
   57.0495   -6.3829   17.5652 H   0  0  0  0  0  0  0  0  0  0  0  0
   56.3740   -5.4674   15.5524 H   0  0  0  0  0  0  0  0  0  0  0  0
   58.3823   -6.8574   15.4764 H   0  0  0  0  0  0  0  0  0  0  0  0
   60.1632   -5.4871   14.9826 H   0  0  0  0  0  0  0  0  0  0  0  0
   59.1895   -7.8611   17.6113 H   0  0  0  0  0  0  0  0  0  0  0  0
   61.5190   -6.6444   15.9784 H   0  0  0  0  0  0  0  0  0  0  0  0
   60.6919   -8.1897   15.6614 H   0  0  0  0  0  0  0  0  0  0  0  0
   62.6194   -8.4298   16.8541 H   0  0  0  0  0  0  0  0  0  0  0  0
   60.6909   -6.8362   19.0027 H   0  0  0  0  0  0  0  0  0  0  0  0
   58.4454   -6.3137   19.5404 H   0  0  0  0  0  0  0  0  0  0  0  0
   59.5039   -4.9357   19.9116 H   0  0  0  0  0  0  0  0  0  0  0  0
   60.8713   -5.4911   18.0919 H   0  0  0  0  0  0  0  0  0  0  0  0
  1  2  2  0  0  0  0
  2  3  1  0  0  0  0
  2  4  1  0  0  0  0
  3 15  1  0  0  0  0
  3 16  1  0  0  0  0
  3 17  1  0  0  0  0
  4  5  1  0  0  0  0
  4 18  1  0  0  0  0
  5  6  1  0  0  0  0
  5 14  1  0  0  0  0
  5 19  1  6  0  0  0
  6  7  1  0  0  0  0
  6  8  1  0  0  0  0
  6 20  1  1  0  0  0
  7 21  1  0  0  0  0
  8  9  1  0  0  0  0
  8 10  1  0  0  0  0
  8 22  1  6  0  0  0
  9 23  1  0  0  0  0
 10 11  1  0  0  0  0
 10 13  1  0  0  0  0
 10 24  1  1  0  0  0
 11 12  1  0  0  0  0
 11 25  1  0  0  0  0
 11 26  1  0  0  0  0
 12 27  1  0  0  0  0
 13 14  1  0  0  0  0
 13 28  1  0  0  0  0
 13 31  1  0  0  0  0
 14 29  1  0  0  0  0
 14 30  1  0  0  0  0
M  CHG  1  13   1
M  END
$$$$
