DKA
 OpenBabel04111921503D

 29 28  0  0  0  0  0  0  0  0999 V2000
    5.8072  -16.4710   -1.7149 C   0  0  0  0  0  0  0  0  0  0  0  0
    6.8995  -15.8480   -1.6869 O   0  0  0  0  0  0  0  0  0  0  0  0
    5.7077  -17.6185   -2.7369 C   0  0  0  0  0  0  0  0  0  0  0  0
    6.7493  -18.0425   -3.4764 C   0  0  0  0  0  0  0  0  0  0  0  0
    6.6154  -19.2023   -4.4150 C   0  0  0  0  0  0  0  0  0  0  0  0
    7.9396  -19.7324   -4.9705 C   0  0  0  0  0  0  0  0  0  0  0  0
    7.7449  -20.7879   -6.0709 C   0  0  0  0  0  0  0  0  0  0  0  0
    6.9040  -22.0020   -5.6722 C   0  0  0  0  0  0  0  0  0  0  0  0
    7.5345  -22.8150   -4.5449 C   0  0  0  0  0  0  0  0  0  0  0  0
    6.6647  -23.9969   -4.1243 C   0  0  0  0  0  0  0  0  0  0  0  0
    7.3141  -24.7984   -3.0067 C   0  0  0  0  0  0  0  0  0  0  0  0
    4.7588  -16.3145   -1.0234 O   0  0  0  0  0  0  0  0  0  0  0  0
    4.7401  -18.0997   -2.8366 H   0  0  0  0  0  0  0  0  0  0  0  0
    7.7084  -17.5379   -3.3782 H   0  0  0  0  0  0  0  0  0  0  0  0
    5.9692  -18.9040   -5.2477 H   0  0  0  0  0  0  0  0  0  0  0  0
    6.1198  -20.0114   -3.8663 H   0  0  0  0  0  0  0  0  0  0  0  0
    8.5401  -20.1605   -4.1595 H   0  0  0  0  0  0  0  0  0  0  0  0
    8.5238  -18.9074   -5.3955 H   0  0  0  0  0  0  0  0  0  0  0  0
    8.7297  -21.1294   -6.4091 H   0  0  0  0  0  0  0  0  0  0  0  0
    7.2574  -20.3102   -6.9325 H   0  0  0  0  0  0  0  0  0  0  0  0
    6.7903  -22.6447   -6.5544 H   0  0  0  0  0  0  0  0  0  0  0  0
    5.9008  -21.6744   -5.3771 H   0  0  0  0  0  0  0  0  0  0  0  0
    7.6899  -22.1679   -3.6766 H   0  0  0  0  0  0  0  0  0  0  0  0
    8.5120  -23.1809   -4.8804 H   0  0  0  0  0  0  0  0  0  0  0  0
    6.4921  -24.6574   -4.9802 H   0  0  0  0  0  0  0  0  0  0  0  0
    5.6906  -23.6338   -3.7771 H   0  0  0  0  0  0  0  0  0  0  0  0
    6.6710  -25.6371   -2.7213 H   0  0  0  0  0  0  0  0  0  0  0  0
    7.4752  -24.1759   -2.1206 H   0  0  0  0  0  0  0  0  0  0  0  0
    8.2796  -25.2027   -3.3266 H   0  0  0  0  0  0  0  0  0  0  0  0
  1  2  2  0  0  0  0
  1  3  1  0  0  0  0
  1 12  1  0  0  0  0
  3  4  2  0  0  0  0
  3 13  1  0  0  0  0
  4  5  1  0  0  0  0
  4 14  1  0  0  0  0
  5  6  1  0  0  0  0
  5 15  1  0  0  0  0
  5 16  1  0  0  0  0
  6  7  1  0  0  0  0
  6 17  1  0  0  0  0
  6 18  1  0  0  0  0
  7  8  1  0  0  0  0
  7 19  1  0  0  0  0
  7 20  1  0  0  0  0
  8  9  1  0  0  0  0
  8 21  1  0  0  0  0
  8 22  1  0  0  0  0
  9 10  1  0  0  0  0
  9 23  1  0  0  0  0
  9 24  1  0  0  0  0
 10 11  1  0  0  0  0
 10 25  1  0  0  0  0
 10 26  1  0  0  0  0
 11 27  1  0  0  0  0
 11 28  1  0  0  0  0
 11 29  1  0  0  0  0
M  END
$$$$
