DN3
 OpenBabel04111918303D

 42 44  0  0  0  0  0  0  0  0999 V2000
   -9.4376   55.7973   13.5401 O   0  0  0  0  0  0  0  0  0  0  0  0
   -8.9089   55.9501   12.4422 C   0  0  0  0  0  0  0  0  0  0  0  0
   -9.5671   56.9061   11.5018 C   0  0  0  0  0  0  0  0  0  0  0  0
   -9.2662   56.9971   10.1411 C   0  0  0  0  0  0  0  0  0  0  0  0
   -9.9521   57.9014    9.3282 C   0  0  0  0  0  0  0  0  0  0  0  0
  -10.9482   58.7189    9.8625 C   0  0  0  0  0  0  0  0  0  0  0  0
  -11.2620   58.6488   11.2252 C   0  0  0  0  0  0  0  0  0  0  0  0
  -12.3870   59.4587   11.8049 C   0  0  0  0  0  0  0  0  0  0  0  0
  -13.7332   58.9575   11.3317 N   0  3  0  0  0  0  0  0  0  0  0  0
  -14.0549   57.5890   11.8721 C   0  0  0  0  0  0  0  0  0  0  0  0
  -14.8303   59.9371   11.6094 C   0  0  0  0  0  0  0  0  0  0  0  0
  -10.5624   57.7434   12.0363 C   0  0  0  0  0  0  0  0  0  0  0  0
   -7.7426   55.3586   11.9952 N   0  0  0  0  0  0  0  0  0  0  0  0
   -6.9043   54.5269   12.7689 C   0  0  0  0  0  0  0  0  0  0  0  0
   -5.5680   54.4343   12.3659 C   0  0  0  0  0  0  0  0  0  0  0  0
   -4.6492   53.7129   13.1367 C   0  0  0  0  0  0  0  0  0  0  0  0
   -5.0763   53.0394   14.2841 C   0  0  0  0  0  0  0  0  0  0  0  0
   -6.4200   53.0821   14.6552 C   0  0  0  0  0  0  0  0  0  0  0  0
   -7.3276   53.8305   13.9039 C   0  0  0  0  0  0  0  0  0  0  0  0
   -3.1961   53.6859   12.7345 C   0  0  0  0  0  0  0  0  0  0  0  0
   -2.7360   54.1169   11.5327 N   0  0  0  0  0  0  0  0  0  0  0  0
   -1.4038   53.8893   11.5752 N   0  0  0  0  0  0  0  0  0  0  0  0
   -1.0710   53.4078   12.7920 N   0  0  0  0  0  0  0  0  0  0  0  0
   -2.1917   53.2449   13.5329 N   0  0  0  0  0  0  0  0  0  0  0  0
   -8.5164   56.3648    9.6727 H   0  0  0  0  0  0  0  0  0  0  0  0
   -9.7075   57.9598    8.2674 H   0  0  0  0  0  0  0  0  0  0  0  0
  -11.4705   59.4046    9.1955 H   0  0  0  0  0  0  0  0  0  0  0  0
  -12.2871   60.5032   11.4873 H   0  0  0  0  0  0  0  0  0  0  0  0
  -12.3942   59.4359   12.9000 H   0  0  0  0  0  0  0  0  0  0  0  0
  -15.0080   57.2732   11.4409 H   0  0  0  0  0  0  0  0  0  0  0  0
  -14.1163   57.6523   12.9614 H   0  0  0  0  0  0  0  0  0  0  0  0
  -13.2736   56.8920   11.5610 H   0  0  0  0  0  0  0  0  0  0  0  0
  -14.5676   60.8884   11.1399 H   0  0  0  0  0  0  0  0  0  0  0  0
  -14.9348   60.0478   12.6916 H   0  0  0  0  0  0  0  0  0  0  0  0
  -15.7499   59.5483   11.1637 H   0  0  0  0  0  0  0  0  0  0  0  0
  -10.7979   57.6686   13.0962 H   0  0  0  0  0  0  0  0  0  0  0  0
   -7.3252   55.6785   11.1454 H   0  0  0  0  0  0  0  0  0  0  0  0
   -5.2090   54.9747   11.4966 H   0  0  0  0  0  0  0  0  0  0  0  0
   -4.3654   52.4708   14.8807 H   0  0  0  0  0  0  0  0  0  0  0  0
   -6.7542   52.5405   15.5337 H   0  0  0  0  0  0  0  0  0  0  0  0
   -8.3694   53.8435   14.2194 H   0  0  0  0  0  0  0  0  0  0  0  0
  -13.6619   58.8592   10.3121 H   0  0  0  0  0  0  0  0  0  0  0  0
  1  2  2  0  0  0  0
  2  3  1  0  0  0  0
  2 13  1  0  0  0  0
  3  4  2  0  0  0  0
  3 12  1  0  0  0  0
  4  5  1  0  0  0  0
  4 25  1  0  0  0  0
  5  6  2  0  0  0  0
  5 26  1  0  0  0  0
  6  7  1  0  0  0  0
  6 27  1  0  0  0  0
  7  8  1  0  0  0  0
  7 12  2  0  0  0  0
  8  9  1  0  0  0  0
  8 28  1  0  0  0  0
  8 29  1  0  0  0  0
  9 10  1  0  0  0  0
  9 11  1  0  0  0  0
  9 42  1  0  0  0  0
 10 30  1  0  0  0  0
 10 31  1  0  0  0  0
 10 32  1  0  0  0  0
 11 33  1  0  0  0  0
 11 34  1  0  0  0  0
 11 35  1  0  0  0  0
 12 36  1  0  0  0  0
 13 14  1  0  0  0  0
 13 37  1  0  0  0  0
 14 15  2  0  0  0  0
 14 19  1  0  0  0  0
 15 16  1  0  0  0  0
 15 38  1  0  0  0  0
 16 17  2  0  0  0  0
 16 20  1  0  0  0  0
 17 18  1  0  0  0  0
 17 39  1  0  0  0  0
 18 19  2  0  0  0  0
 18 40  1  0  0  0  0
 19 41  1  0  0  0  0
 20 21  1  0  0  0  0
 20 24  2  0  0  0  0
 21 22  1  0  0  0  0
 22 23  2  0  0  0  0
 23 24  1  0  0  0  0
M  CHG  1   9   1
M  END
$$$$
