DSN
 OpenBabel04111922433D

 14 13  0  0  1  0  0  0  0  0999 V2000
    9.7247   61.3612   43.6790 N   0  3  0  0  0  0  0  0  0  0  0  0
    9.0455   60.1749   44.3644 C   0  0  1  0  0  0  0  0  0  0  0  0
    8.1912   60.6079   45.5650 C   0  0  0  0  0  0  0  0  0  0  0  0
    7.1043   59.9864   45.7706 O   0  0  0  0  0  0  0  0  0  0  0  0
    8.6822   61.6264   46.1178 O   0  0  0  0  0  0  0  0  0  0  0  0
    8.2596   59.4167   43.3059 C   0  0  0  0  0  0  0  0  0  0  0  0
    7.0398   60.0395   42.9244 O   0  0  0  0  0  0  0  0  0  0  0  0
   10.3316   61.0784   42.9098 H   0  0  0  0  0  0  0  0  0  0  0  0
    8.9957   62.0192   43.3871 H   0  0  0  0  0  0  0  0  0  0  0  0
    9.8796   59.5589   44.7167 H   0  0  0  0  0  0  0  0  0  0  0  0
    8.0506   58.4073   43.6700 H   0  0  0  0  0  0  0  0  0  0  0  0
    8.8383   59.3238   42.3801 H   0  0  0  0  0  0  0  0  0  0  0  0
    7.1737   60.9650   42.6942 H   0  0  0  0  0  0  0  0  0  0  0  0
   10.2399   61.8557   44.4264 H   0  0  0  0  0  0  0  0  0  0  0  0
  1  2  1  0  0  0  0
  1  8  1  0  0  0  0
  1  9  1  0  0  0  0
  1 14  1  0  0  0  0
  2  3  1  0  0  0  0
  2  6  1  0  0  0  0
  2 10  1  1  0  0  0
  3  4  2  0  0  0  0
  3  5  1  0  0  0  0
  6  7  1  0  0  0  0
  6 11  1  0  0  0  0
  6 12  1  0  0  0  0
  7 13  1  0  0  0  0
M  CHG  1   1   1
M  END
$$$$
