DTQ
 OpenBabel04111918113D

 37 39  0  0  0  0  0  0  0  0999 V2000
   64.9641   19.2206   25.5287 N   0  0  0  0  0  0  0  0  0  0  0  0
   66.2632   19.1522   25.2380 C   0  0  0  0  0  0  0  0  0  0  0  0
   66.9411   19.9829   24.4554 N   0  0  0  0  0  0  0  0  0  0  0  0
   66.2533   20.9810   23.9230 C   0  0  0  0  0  0  0  0  0  0  0  0
   64.8846   21.1638   24.1438 C   0  0  0  0  0  0  0  0  0  0  0  0
   64.2656   20.2213   24.9770 C   0  0  0  0  0  0  0  0  0  0  0  0
   66.9198   21.8929   23.1125 C   0  0  0  0  0  0  0  0  0  0  0  0
   66.2792   22.9933   22.5357 C   0  0  0  0  0  0  0  0  0  0  0  0
   64.9182   23.1842   22.7742 C   0  0  0  0  0  0  0  0  0  0  0  0
   64.2238   22.2523   23.5348 C   0  0  0  0  0  0  0  0  0  0  0  0
   62.8716   20.3140   25.2008 N   0  0  0  0  0  0  0  0  0  0  0  0
   62.0709   19.4970   26.0095 C   0  0  0  0  0  0  0  0  0  0  0  0
   61.0395   20.0842   26.7567 C   0  0  0  0  0  0  0  0  0  0  0  0
   60.2186   19.2910   27.5441 C   0  0  0  0  0  0  0  0  0  0  0  0
   60.4073   17.9209   27.6232 C   0  0  0  0  0  0  0  0  0  0  0  0
   61.4471   17.3250   26.9028 C   0  0  0  0  0  0  0  0  0  0  0  0
   62.2594   18.1187   26.0935 C   0  0  0  0  0  0  0  0  0  0  0  0
   59.2178   19.9114   28.2302 O   0  0  0  0  0  0  0  0  0  0  0  0
   66.9008   23.9247   21.7312 O   0  0  0  0  0  0  0  0  0  0  0  0
   68.3229   23.8292   21.6641 C   0  0  0  0  0  0  0  0  0  0  0  0
   64.2609   24.2520   22.2210 O   0  0  0  0  0  0  0  0  0  0  0  0
   63.5000   24.9891   23.1772 C   0  0  0  0  0  0  0  0  0  0  0  0
   66.8157   18.3185   25.6776 H   0  0  0  0  0  0  0  0  0  0  0  0
   67.9841   21.7073   22.9500 H   0  0  0  0  0  0  0  0  0  0  0  0
   63.1540   22.3701   23.6400 H   0  0  0  0  0  0  0  0  0  0  0  0
   62.4900   21.2393   25.0951 H   0  0  0  0  0  0  0  0  0  0  0  0
   60.8814   21.1569   26.7455 H   0  0  0  0  0  0  0  0  0  0  0  0
   59.7781   17.3020   28.2598 H   0  0  0  0  0  0  0  0  0  0  0  0
   61.6211   16.2568   26.9627 H   0  0  0  0  0  0  0  0  0  0  0  0
   63.0556   17.6425   25.5310 H   0  0  0  0  0  0  0  0  0  0  0  0
   58.4071   19.4007   28.0607 H   0  0  0  0  0  0  0  0  0  0  0  0
   68.6799   24.6316   21.0080 H   0  0  0  0  0  0  0  0  0  0  0  0
   68.6437   22.8816   21.2207 H   0  0  0  0  0  0  0  0  0  0  0  0
   68.7725   23.9787   22.6517 H   0  0  0  0  0  0  0  0  0  0  0  0
   63.0161   25.8234   22.6619 H   0  0  0  0  0  0  0  0  0  0  0  0
   64.1534   25.3924   23.9586 H   0  0  0  0  0  0  0  0  0  0  0  0
   62.6980   24.3959   23.6304 H   0  0  0  0  0  0  0  0  0  0  0  0
  1  2  2  0  0  0  0
  1  6  1  0  0  0  0
  2  3  1  0  0  0  0
  2 23  1  0  0  0  0
  3  4  2  0  0  0  0
  4  5  1  0  0  0  0
  4  7  1  0  0  0  0
  5  6  2  0  0  0  0
  5 10  1  0  0  0  0
  6 11  1  0  0  0  0
  7  8  2  0  0  0  0
  7 24  1  0  0  0  0
  8  9  1  0  0  0  0
  8 19  1  0  0  0  0
  9 10  2  0  0  0  0
  9 21  1  0  0  0  0
 10 25  1  0  0  0  0
 11 12  1  0  0  0  0
 11 26  1  0  0  0  0
 12 13  2  0  0  0  0
 12 17  1  0  0  0  0
 13 14  1  0  0  0  0
 13 27  1  0  0  0  0
 14 15  2  0  0  0  0
 14 18  1  0  0  0  0
 15 16  1  0  0  0  0
 15 28  1  0  0  0  0
 16 17  2  0  0  0  0
 16 29  1  0  0  0  0
 17 30  1  0  0  0  0
 18 31  1  0  0  0  0
 19 20  1  0  0  0  0
 20 32  1  0  0  0  0
 20 33  1  0  0  0  0
 20 34  1  0  0  0  0
 21 22  1  0  0  0  0
 22 35  1  0  0  0  0
 22 36  1  0  0  0  0
 22 37  1  0  0  0  0
M  END
$$$$
