DZX
 OpenBabel04111922083D

 28 29  0  0  1  0  0  0  0  0999 V2000
   80.6787   88.1673   16.8592 O   0  0  0  0  0  0  0  0  0  0  0  0
   80.0657   87.8337   18.0951 C   0  0  0  0  0  0  0  0  0  0  0  0
   79.0267   88.9213   18.4001 C   0  0  2  0  0  0  0  0  0  0  0  0
   78.8049   89.0949   19.9165 C   0  0  2  0  0  0  0  0  0  0  0  0
   78.8797   87.8103   20.5362 O   0  0  0  0  0  0  0  0  0  0  0  0
   77.4736   89.7805   20.2915 C   0  0  2  0  0  0  0  0  0  0  0  0
   77.1225   89.4465   21.6364 O   0  0  0  0  0  0  0  0  0  0  0  0
   76.3231   89.3932   19.3392 C   0  0  2  0  0  0  0  0  0  0  0  0
   76.0795   87.8855   19.2562 C   0  0  0  0  0  0  0  0  0  0  0  0
   76.9556   87.3932   18.1047 C   0  0  0  0  0  0  0  0  0  0  0  0
   77.7322   88.6175   17.6221 C   0  0  1  0  0  0  0  0  0  0  0  0
   76.7441   89.7158   17.9300 N   0  3  0  0  0  0  0  0  0  0  0  0
   81.3656   88.8324   17.0460 H   0  0  0  0  0  0  0  0  0  0  0  0
   80.8393   87.7399   18.8668 H   0  0  0  0  0  0  0  0  0  0  0  0
   79.6169   86.8423   17.9734 H   0  0  0  0  0  0  0  0  0  0  0  0
   79.4079   89.8839   18.0204 H   0  0  0  0  0  0  0  0  0  0  0  0
   79.6316   89.6849   20.3325 H   0  0  0  0  0  0  0  0  0  0  0  0
   78.6649   87.9130   21.4843 H   0  0  0  0  0  0  0  0  0  0  0  0
   77.5990   90.8724   20.2451 H   0  0  0  0  0  0  0  0  0  0  0  0
   77.8275   89.7447   22.2413 H   0  0  0  0  0  0  0  0  0  0  0  0
   75.4058   89.9433   19.5674 H   0  0  0  0  0  0  0  0  0  0  0  0
   75.0278   87.6761   19.0325 H   0  0  0  0  0  0  0  0  0  0  0  0
   76.3122   87.3699   20.1960 H   0  0  0  0  0  0  0  0  0  0  0  0
   76.3202   87.0154   17.2978 H   0  0  0  0  0  0  0  0  0  0  0  0
   77.5947   86.5661   18.4196 H   0  0  0  0  0  0  0  0  0  0  0  0
   77.8929   88.6249   16.5348 H   0  0  0  0  0  0  0  0  0  0  0  0
   75.9329   89.6481   17.3073 H   0  0  0  0  0  0  0  0  0  0  0  0
   77.1274   90.6772   17.8097 H   0  0  0  0  0  0  0  0  0  0  0  0
  1  2  1  0  0  0  0
  1 13  1  0  0  0  0
  2  3  1  0  0  0  0
  2 14  1  0  0  0  0
  2 15  1  0  0  0  0
  3  4  1  0  0  0  0
  3 11  1  0  0  0  0
  3 16  1  6  0  0  0
  4  5  1  0  0  0  0
  4  6  1  0  0  0  0
  4 17  1  1  0  0  0
  5 18  1  0  0  0  0
  6  7  1  0  0  0  0
  6  8  1  0  0  0  0
  6 19  1  6  0  0  0
  7 20  1  0  0  0  0
  8  9  1  0  0  0  0
  8 12  1  0  0  0  0
  8 21  1  1  0  0  0
  9 10  1  0  0  0  0
  9 22  1  0  0  0  0
  9 23  1  0  0  0  0
 10 11  1  0  0  0  0
 10 24  1  0  0  0  0
 10 25  1  0  0  0  0
 11 12  1  0  0  0  0
 11 26  1  6  0  0  0
 12 27  1  0  0  0  0
 12 28  1  0  0  0  0
M  CHG  1  12   1
M  END
$$$$
