E0G
 OpenBabel04111920373D

 60 63  0  0  1  0  0  0  0  0999 V2000
   17.0626    7.7450   14.3499 C   0  0  1  0  0  0  0  0  0  0  0  0
   18.0413    9.9949   15.0407 C   0  0  0  0  0  0  0  0  0  0  0  0
   18.7628   11.1603   14.6715 C   0  0  0  0  0  0  0  0  0  0  0  0
   20.3167   12.1357   13.0566 N   0  0  0  0  0  0  0  0  0  0  0  0
   18.6074   12.0514   16.9242 C   0  0  0  0  0  0  0  0  0  0  0  0
   18.5696   10.9241   12.3041 O   0  0  0  0  0  0  0  0  0  0  0  0
   17.7921    8.9855   14.1226 N   0  0  0  0  0  0  0  0  0  0  0  0
   17.3021   10.8529   18.5784 N   0  3  0  0  0  0  0  0  0  0  0  0
   17.8752   10.9280   17.2937 C   0  0  0  0  0  0  0  0  0  0  0  0
   17.6410    9.8855   16.3814 C   0  0  0  0  0  0  0  0  0  0  0  0
   17.3366    9.6997   19.2787 N   0  0  0  0  0  0  0  0  0  0  0  0
   16.8271    5.3892   13.4848 C   0  0  0  0  0  0  0  0  0  0  0  0
   15.3200    5.5615   13.3351 C   0  0  2  0  0  0  0  0  0  0  0  0
   14.7822    6.6138   14.3046 C   0  0  0  0  0  0  0  0  0  0  0  0
   15.5442    7.9413   14.2178 C   0  0  0  0  0  0  0  0  0  0  0  0
   16.6952    9.9592   20.4397 C   0  0  0  0  0  0  0  0  0  0  0  0
   16.1840   11.2784   20.4325 C   0  0  0  0  0  0  0  0  0  0  0  0
   16.5959   11.8335   19.2376 C   0  0  0  0  0  0  0  0  0  0  0  0
   15.0303   13.4692   20.9653 C   0  0  0  0  0  0  0  0  0  0  0  0
   13.6664   13.0064   18.8836 C   0  0  0  0  0  0  0  0  0  0  0  0
   19.0543   12.1657   15.6158 C   0  0  0  0  0  0  0  0  0  0  0  0
   17.0821    7.7134   21.1474 F   0  0  0  0  0  0  0  0  0  0  0  0
   14.9304   11.5192   22.3924 O   0  0  0  0  0  0  0  0  0  0  0  0
   17.1468    9.2694   22.6690 F   0  0  0  0  0  0  0  0  0  0  0  0
   15.2303    8.6571   21.7965 F   0  0  0  0  0  0  0  0  0  0  0  0
   14.7104    4.3012   13.5945 O   0  0  0  0  0  0  0  0  0  0  0  0
   19.1894   11.3849   13.2566 C   0  0  0  0  0  0  0  0  0  0  0  0
   17.5552    6.7148   13.3259 C   0  0  0  0  0  0  0  0  0  0  0  0
   16.2053   13.1724   18.7145 C   0  0  0  0  0  0  0  0  0  0  0  0
   14.9290   13.6986   19.4339 C   0  0  0  0  0  0  0  0  0  0  0  0
   15.3372   12.0188   21.3457 C   0  0  0  0  0  0  0  0  0  0  0  0
   14.7979   15.2062   19.1492 C   0  0  0  0  0  0  0  0  0  0  0  0
   16.5384    8.9095   21.5076 C   0  0  0  0  0  0  0  0  0  0  0  0
   17.2919    7.3502   15.3470 H   0  0  0  0  0  0  0  0  0  0  0  0
   20.6343   12.2538   12.1040 H   0  0  0  0  0  0  0  0  0  0  0  0
   20.9275   12.4351   13.8017 H   0  0  0  0  0  0  0  0  0  0  0  0
   18.8597   12.8256   17.6447 H   0  0  0  0  0  0  0  0  0  0  0  0
   18.0141    9.2228   13.1496 H   0  0  0  0  0  0  0  0  0  0  0  0
   17.0755    9.0208   16.7178 H   0  0  0  0  0  0  0  0  0  0  0  0
   17.1924    4.6682   12.7451 H   0  0  0  0  0  0  0  0  0  0  0  0
   17.0540    4.9539   14.4671 H   0  0  0  0  0  0  0  0  0  0  0  0
   15.0821    5.8469   12.3034 H   0  0  0  0  0  0  0  0  0  0  0  0
   14.8318    6.2248   15.3300 H   0  0  0  0  0  0  0  0  0  0  0  0
   13.7166    6.7812   14.1046 H   0  0  0  0  0  0  0  0  0  0  0  0
   15.3078    8.4300   13.2632 H   0  0  0  0  0  0  0  0  0  0  0  0
   15.1795    8.6108   15.0065 H   0  0  0  0  0  0  0  0  0  0  0  0
   14.0927   13.7671   21.4508 H   0  0  0  0  0  0  0  0  0  0  0  0
   15.8324   14.0927   21.3840 H   0  0  0  0  0  0  0  0  0  0  0  0
   13.5621   13.1796   17.8066 H   0  0  0  0  0  0  0  0  0  0  0  0
   12.7644   13.3950   19.3699 H   0  0  0  0  0  0  0  0  0  0  0  0
   13.6873   11.9243   19.0446 H   0  0  0  0  0  0  0  0  0  0  0  0
   19.6019   13.0593   15.3376 H   0  0  0  0  0  0  0  0  0  0  0  0
   13.7515    4.3960   13.4678 H   0  0  0  0  0  0  0  0  0  0  0  0
   18.6332    6.5585   13.4467 H   0  0  0  0  0  0  0  0  0  0  0  0
   17.4031    7.0930   12.3059 H   0  0  0  0  0  0  0  0  0  0  0  0
   16.0267   13.1402   17.6339 H   0  0  0  0  0  0  0  0  0  0  0  0
   17.0368   13.8624   18.8992 H   0  0  0  0  0  0  0  0  0  0  0  0
   13.9027   15.6241   19.6246 H   0  0  0  0  0  0  0  0  0  0  0  0
   14.7239   15.3962   18.0724 H   0  0  0  0  0  0  0  0  0  0  0  0
   15.6648   15.7579   19.5264 H   0  0  0  0  0  0  0  0  0  0  0  0
  1  7  1  0  0  0  0
  1 15  1  0  0  0  0
  1 28  1  0  0  0  0
  1 34  1  1  0  0  0
  2  3  2  0  0  0  0
  2  7  1  0  0  0  0
  2 10  1  0  0  0  0
  3 21  1  0  0  0  0
  3 27  1  0  0  0  0
  4 27  1  0  0  0  0
  4 35  1  0  0  0  0
  4 36  1  0  0  0  0
  5  9  1  0  0  0  0
  5 21  2  0  0  0  0
  5 37  1  0  0  0  0
  6 27  2  0  0  0  0
  7 38  1  0  0  0  0
  8  9  1  0  0  0  0
  8 11  1  0  0  0  0
  8 18  2  0  0  0  0
  9 10  2  0  0  0  0
 10 39  1  0  0  0  0
 11 16  1  0  0  0  0
 12 13  1  0  0  0  0
 12 28  1  0  0  0  0
 12 40  1  0  0  0  0
 12 41  1  0  0  0  0
 13 14  1  0  0  0  0
 13 26  1  0  0  0  0
 13 42  1  6  0  0  0
 14 15  1  0  0  0  0
 14 43  1  0  0  0  0
 14 44  1  0  0  0  0
 15 45  1  0  0  0  0
 15 46  1  0  0  0  0
 16 17  2  0  0  0  0
 16 33  1  0  0  0  0
 17 18  1  0  0  0  0
 17 31  1  0  0  0  0
 18 29  1  0  0  0  0
 19 30  1  0  0  0  0
 19 31  1  0  0  0  0
 19 47  1  0  0  0  0
 19 48  1  0  0  0  0
 20 30  1  0  0  0  0
 20 49  1  0  0  0  0
 20 50  1  0  0  0  0
 20 51  1  0  0  0  0
 21 52  1  0  0  0  0
 22 33  1  0  0  0  0
 23 31  2  0  0  0  0
 24 33  1  0  0  0  0
 25 33  1  0  0  0  0
 26 53  1  0  0  0  0
 28 54  1  0  0  0  0
 28 55  1  0  0  0  0
 29 30  1  0  0  0  0
 29 56  1  0  0  0  0
 29 57  1  0  0  0  0
 30 32  1  0  0  0  0
 32 58  1  0  0  0  0
 32 59  1  0  0  0  0
 32 60  1  0  0  0  0
M  CHG  1   8   1
M  END
$$$$
