E1E
 OpenBabel04111919513D

 37 38  0  0  0  0  0  0  0  0999 V2000
   11.0559   -4.4307    9.5718 C   0  0  0  0  0  0  0  0  0  0  0  0
   12.3579   -3.6464    7.6539 C   0  0  0  0  0  0  0  0  0  0  0  0
   12.9854   -4.9042    7.6093 C   0  0  0  0  0  0  0  0  0  0  0  0
   10.5337   -1.9241    8.7887 Cl  0  0  0  0  0  0  0  0  0  0  0  0
   11.3878   -3.4179    8.6435 C   0  0  0  0  0  0  0  0  0  0  0  0
   12.8668   -2.3139    6.5616 S   0  0  0  0  0  0  0  0  0  0  0  0
   13.5043   -1.3313    7.4275 O   0  0  0  0  0  0  0  0  0  0  0  0
   14.0984   -2.9564    5.5726 N   0  0  0  0  0  0  0  0  0  0  0  0
   11.7664   -1.9643    5.7025 O   0  0  0  0  0  0  0  0  0  0  0  0
   11.6849   -5.6772    9.5182 C   0  0  0  0  0  0  0  0  0  0  0  0
   12.6563   -5.9175    8.5353 C   0  0  0  0  0  0  0  0  0  0  0  0
   11.3054   -6.6805   10.5446 C   0  0  0  0  0  0  0  0  0  0  0  0
   11.0584   -6.2567   11.6860 O   0  0  0  0  0  0  0  0  0  0  0  0
   11.1432   -8.1146   10.1067 C   0  0  0  0  0  0  0  0  0  0  0  0
   10.7571   -9.1880   11.5135 S   0  0  0  0  0  0  0  0  0  0  0  0
    8.9812   -9.0884   11.5055 C   0  0  0  0  0  0  0  0  0  0  0  0
    8.2983   -8.4260   10.5413 N   0  0  0  0  0  0  0  0  0  0  0  0
    6.9472   -8.5070   10.5972 C   0  0  0  0  0  0  0  0  0  0  0  0
    6.1419   -7.7533    9.5519 C   0  0  0  0  0  0  0  0  0  0  0  0
    6.2715   -9.2418   11.5628 C   0  0  0  0  0  0  0  0  0  0  0  0
    7.0660   -9.9042   12.4875 C   0  0  0  0  0  0  0  0  0  0  0  0
    8.4031   -9.8371   12.4552 N   0  0  0  0  0  0  0  0  0  0  0  0
    6.4934  -10.7492   13.5846 C   0  0  0  0  0  0  0  0  0  0  0  0
   10.2885   -4.2640   10.3330 H   0  0  0  0  0  0  0  0  0  0  0  0
   13.7529   -5.1247    6.8841 H   0  0  0  0  0  0  0  0  0  0  0  0
   14.5927   -2.3491    4.9109 H   0  0  0  0  0  0  0  0  0  0  0  0
   14.5325   -3.8533    5.7391 H   0  0  0  0  0  0  0  0  0  0  0  0
   13.1882   -6.8638    8.4871 H   0  0  0  0  0  0  0  0  0  0  0  0
   12.0810   -8.4858    9.6502 H   0  0  0  0  0  0  0  0  0  0  0  0
   10.3526   -8.2244    9.3539 H   0  0  0  0  0  0  0  0  0  0  0  0
    5.0628   -7.8925    9.7017 H   0  0  0  0  0  0  0  0  0  0  0  0
    6.3829   -8.1068    8.5438 H   0  0  0  0  0  0  0  0  0  0  0  0
    6.3452   -6.6781    9.6023 H   0  0  0  0  0  0  0  0  0  0  0  0
    5.1921   -9.3017   11.5904 H   0  0  0  0  0  0  0  0  0  0  0  0
    7.2996  -11.1767   14.1925 H   0  0  0  0  0  0  0  0  0  0  0  0
    5.9115  -11.5812   13.1795 H   0  0  0  0  0  0  0  0  0  0  0  0
    5.8616  -10.1533   14.2478 H   0  0  0  0  0  0  0  0  0  0  0  0
  1  5  2  0  0  0  0
  1 10  1  0  0  0  0
  1 24  1  0  0  0  0
  2  3  2  0  0  0  0
  2  5  1  0  0  0  0
  2  6  1  0  0  0  0
  3 11  1  0  0  0  0
  3 25  1  0  0  0  0
  4  5  1  0  0  0  0
  6  7  2  0  0  0  0
  6  8  1  0  0  0  0
  6  9  2  0  0  0  0
  8 26  1  0  0  0  0
  8 27  1  0  0  0  0
 10 11  2  0  0  0  0
 10 12  1  0  0  0  0
 11 28  1  0  0  0  0
 12 13  2  0  0  0  0
 12 14  1  0  0  0  0
 14 15  1  0  0  0  0
 14 29  1  0  0  0  0
 14 30  1  0  0  0  0
 15 16  1  0  0  0  0
 16 17  2  0  0  0  0
 16 22  1  0  0  0  0
 17 18  1  0  0  0  0
 18 19  1  0  0  0  0
 18 20  2  0  0  0  0
 19 31  1  0  0  0  0
 19 32  1  0  0  0  0
 19 33  1  0  0  0  0
 20 21  1  0  0  0  0
 20 34  1  0  0  0  0
 21 22  2  0  0  0  0
 21 23  1  0  0  0  0
 23 35  1  0  0  0  0
 23 36  1  0  0  0  0
 23 37  1  0  0  0  0
M  END
$$$$
