E1E
 OpenBabel04111919513D

 37 38  0  0  0  0  0  0  0  0999 V2000
   -4.6263    4.4559   15.4005 C   0  0  0  0  0  0  0  0  0  0  0  0
   -4.9717    2.1045   15.8526 C   0  0  0  0  0  0  0  0  0  0  0  0
   -4.0012    1.8053   14.8829 C   0  0  0  0  0  0  0  0  0  0  0  0
   -6.5202    3.9300   17.2149 Cl  0  0  0  0  0  0  0  0  0  0  0  0
   -5.2976    3.4392   16.0962 C   0  0  0  0  0  0  0  0  0  0  0  0
   -5.7304    0.7970   16.7798 S   0  0  0  0  0  0  0  0  0  0  0  0
   -7.1456    0.7925   16.5020 O   0  0  0  0  0  0  0  0  0  0  0  0
   -5.1651   -0.6356   16.1188 N   0  0  0  0  0  0  0  0  0  0  0  0
   -5.1967    0.8561   18.1232 O   0  0  0  0  0  0  0  0  0  0  0  0
   -3.6162    4.1461   14.4675 C   0  0  0  0  0  0  0  0  0  0  0  0
   -3.3221    2.8228   14.1977 C   0  0  0  0  0  0  0  0  0  0  0  0
   -2.8057    5.2408   13.8794 C   0  0  0  0  0  0  0  0  0  0  0  0
   -2.6401    6.2467   14.5854 O   0  0  0  0  0  0  0  0  0  0  0  0
   -2.1724    5.0795   12.4976 C   0  0  0  0  0  0  0  0  0  0  0  0
   -2.1161    6.6697   11.6046 S   0  0  0  0  0  0  0  0  0  0  0  0
   -3.8587    7.0062   11.5245 C   0  0  0  0  0  0  0  0  0  0  0  0
   -4.6912    6.1421   12.1336 N   0  0  0  0  0  0  0  0  0  0  0  0
   -6.0075    6.3819   12.0619 C   0  0  0  0  0  0  0  0  0  0  0  0
   -6.8935    5.4190   12.7917 C   0  0  0  0  0  0  0  0  0  0  0  0
   -6.5090    7.4470   11.3449 C   0  0  0  0  0  0  0  0  0  0  0  0
   -5.5852    8.2713   10.7219 C   0  0  0  0  0  0  0  0  0  0  0  0
   -4.2560    8.0630   10.8061 N   0  0  0  0  0  0  0  0  0  0  0  0
   -6.0432    9.4414    9.9033 C   0  0  0  0  0  0  0  0  0  0  0  0
   -4.8683    5.5002   15.5892 H   0  0  0  0  0  0  0  0  0  0  0  0
   -3.7024    0.8036   14.6349 H   0  0  0  0  0  0  0  0  0  0  0  0
   -5.3809   -1.4785   16.6477 H   0  0  0  0  0  0  0  0  0  0  0  0
   -4.3531   -0.6728   15.5204 H   0  0  0  0  0  0  0  0  0  0  0  0
   -2.5393    2.5458   13.5031 H   0  0  0  0  0  0  0  0  0  0  0  0
   -2.7140    4.3598   11.8755 H   0  0  0  0  0  0  0  0  0  0  0  0
   -1.1490    4.7144   12.6233 H   0  0  0  0  0  0  0  0  0  0  0  0
   -7.9525    5.6501   12.6550 H   0  0  0  0  0  0  0  0  0  0  0  0
   -6.6845    5.4516   13.8641 H   0  0  0  0  0  0  0  0  0  0  0  0
   -6.7104    4.4000   12.4343 H   0  0  0  0  0  0  0  0  0  0  0  0
   -7.5728    7.6249   11.2663 H   0  0  0  0  0  0  0  0  0  0  0  0
   -5.1882    9.9842    9.4855 H   0  0  0  0  0  0  0  0  0  0  0  0
   -6.6175   10.1388   10.5207 H   0  0  0  0  0  0  0  0  0  0  0  0
   -6.6663    9.1025    9.0696 H   0  0  0  0  0  0  0  0  0  0  0  0
  1  5  2  0  0  0  0
  1 10  1  0  0  0  0
  1 24  1  0  0  0  0
  2  3  2  0  0  0  0
  2  5  1  0  0  0  0
  2  6  1  0  0  0  0
  3 11  1  0  0  0  0
  3 25  1  0  0  0  0
  4  5  1  0  0  0  0
  6  7  2  0  0  0  0
  6  8  1  0  0  0  0
  6  9  2  0  0  0  0
  8 26  1  0  0  0  0
  8 27  1  0  0  0  0
 10 11  2  0  0  0  0
 10 12  1  0  0  0  0
 11 28  1  0  0  0  0
 12 13  2  0  0  0  0
 12 14  1  0  0  0  0
 14 15  1  0  0  0  0
 14 29  1  0  0  0  0
 14 30  1  0  0  0  0
 15 16  1  0  0  0  0
 16 17  2  0  0  0  0
 16 22  1  0  0  0  0
 17 18  1  0  0  0  0
 18 19  1  0  0  0  0
 18 20  2  0  0  0  0
 19 31  1  0  0  0  0
 19 32  1  0  0  0  0
 19 33  1  0  0  0  0
 20 21  1  0  0  0  0
 20 34  1  0  0  0  0
 21 22  2  0  0  0  0
 21 23  1  0  0  0  0
 23 35  1  0  0  0  0
 23 36  1  0  0  0  0
 23 37  1  0  0  0  0
M  END
$$$$
