E1F
 OpenBabel04111919523D

 31 32  0  0  0  0  0  0  0  0999 V2000
   -4.5927   -5.1686   16.6997 O   0  0  0  0  0  0  0  0  0  0  0  0
  -12.8790    2.2371   20.6305 C   0  0  0  0  0  0  0  0  0  0  0  0
   -7.4343   -1.0795   18.4156 C   0  0  0  0  0  0  0  0  0  0  0  0
   -6.7298   -3.4107   18.3714 C   0  0  0  0  0  0  0  0  0  0  0  0
   -6.5592   -4.8849   19.2512 Cl  0  0  0  0  0  0  0  0  0  0  0  0
   -7.2472   -2.3044   19.0679 C   0  0  0  0  0  0  0  0  0  0  0  0
   -7.0919   -0.9638   17.0656 C   0  0  0  0  0  0  0  0  0  0  0  0
   -6.5900   -2.0567   16.3643 C   0  0  0  0  0  0  0  0  0  0  0  0
   -6.4025   -3.2848   17.0172 C   0  0  0  0  0  0  0  0  0  0  0  0
   -5.8093   -4.6756   16.0759 S   0  0  0  0  0  0  0  0  0  0  0  0
   -5.2980   -3.9496   14.6534 N   0  0  0  0  0  0  0  0  0  0  0  0
   -6.9430   -5.4942   15.7432 O   0  0  0  0  0  0  0  0  0  0  0  0
   -7.9221    0.1435   19.1122 C   0  0  0  0  0  0  0  0  0  0  0  0
   -7.4707    1.2252   18.7283 O   0  0  0  0  0  0  0  0  0  0  0  0
   -8.8353    0.0609   20.3215 C   0  0  0  0  0  0  0  0  0  0  0  0
  -10.4235   -0.7514   19.9880 S   0  0  0  0  0  0  0  0  0  0  0  0
  -11.3630    0.7416   19.8125 C   0  0  0  0  0  0  0  0  0  0  0  0
  -10.8404    1.6330   18.9601 N   0  0  0  0  0  0  0  0  0  0  0  0
  -11.3455    2.8734   19.0014 C   0  0  0  0  0  0  0  0  0  0  0  0
  -12.3900    3.2335   19.8165 C   0  0  0  0  0  0  0  0  0  0  0  0
  -12.3727    0.9869   20.6670 N   0  0  0  0  0  0  0  0  0  0  0  0
  -13.7052    2.4280   21.3090 H   0  0  0  0  0  0  0  0  0  0  0  0
   -7.4792   -2.4120   20.1239 H   0  0  0  0  0  0  0  0  0  0  0  0
   -7.2159   -0.0112   16.5457 H   0  0  0  0  0  0  0  0  0  0  0  0
   -6.3587   -1.9300   15.3128 H   0  0  0  0  0  0  0  0  0  0  0  0
   -6.0048   -3.9595   13.9231 H   0  0  0  0  0  0  0  0  0  0  0  0
   -4.3725   -4.2740   14.3852 H   0  0  0  0  0  0  0  0  0  0  0  0
   -9.0197    1.0917   20.6487 H   0  0  0  0  0  0  0  0  0  0  0  0
   -8.3241   -0.4248   21.1534 H   0  0  0  0  0  0  0  0  0  0  0  0
  -10.8529    3.5895   18.3486 H   0  0  0  0  0  0  0  0  0  0  0  0
  -12.7918    4.2360   19.8157 H   0  0  0  0  0  0  0  0  0  0  0  0
  1 10  2  0  0  0  0
  2 20  2  0  0  0  0
  2 21  1  0  0  0  0
  2 22  1  0  0  0  0
  3  6  2  0  0  0  0
  3  7  1  0  0  0  0
  3 13  1  0  0  0  0
  4  5  1  0  0  0  0
  4  6  1  0  0  0  0
  4  9  2  0  0  0  0
  6 23  1  0  0  0  0
  7  8  2  0  0  0  0
  7 24  1  0  0  0  0
  8  9  1  0  0  0  0
  8 25  1  0  0  0  0
  9 10  1  0  0  0  0
 10 11  1  0  0  0  0
 10 12  2  0  0  0  0
 11 26  1  0  0  0  0
 11 27  1  0  0  0  0
 13 14  2  0  0  0  0
 13 15  1  0  0  0  0
 15 16  1  0  0  0  0
 15 28  1  0  0  0  0
 15 29  1  0  0  0  0
 16 17  1  0  0  0  0
 17 18  1  0  0  0  0
 17 21  2  0  0  0  0
 18 19  2  0  0  0  0
 19 20  1  0  0  0  0
 19 30  1  0  0  0  0
 20 31  1  0  0  0  0
M  END
$$$$
