E1G
 OpenBabel04111919533D

 31 32  0  0  0  0  0  0  0  0999 V2000
   -5.4375   14.6869   -5.3422 O   0  0  0  0  0  0  0  0  0  0  0  0
   -4.5248   15.5575   -6.0631 S   0  0  0  0  0  0  0  0  0  0  0  0
   -4.5834   15.7199   -7.4912 O   0  0  0  0  0  0  0  0  0  0  0  0
   -2.9603   15.0029   -5.7486 N   0  0  0  0  0  0  0  0  0  0  0  0
   -4.5846   17.1747   -5.2863 C   0  0  0  0  0  0  0  0  0  0  0  0
   -3.8332   17.3207   -4.1131 C   0  0  0  0  0  0  0  0  0  0  0  0
   -3.8215   18.5450   -3.4233 C   0  0  0  0  0  0  0  0  0  0  0  0
   -4.5494   19.6203   -3.9175 C   0  0  0  0  0  0  0  0  0  0  0  0
   -5.3356   18.2552   -5.7867 C   0  0  0  0  0  0  0  0  0  0  0  0
   -5.3331   19.4844   -5.0731 C   0  0  0  0  0  0  0  0  0  0  0  0
   -6.0719   20.7105   -5.4644 C   0  0  0  0  0  0  0  0  0  0  0  0
   -5.4412   21.6695   -5.9053 O   0  0  0  0  0  0  0  0  0  0  0  0
   -7.5640   20.7227   -5.1954 C   0  0  0  0  0  0  0  0  0  0  0  0
   -8.1148   22.3501   -4.5841 S   0  0  0  0  0  0  0  0  0  0  0  0
   -7.4584   22.2360   -2.9363 C   0  0  0  0  0  0  0  0  0  0  0  0
   -8.3315   22.0268   -1.9468 N   0  0  0  0  0  0  0  0  0  0  0  0
   -7.8181   21.9090   -0.7033 C   0  0  0  0  0  0  0  0  0  0  0  0
   -6.4723   21.9752   -0.4286 C   0  0  0  0  0  0  0  0  0  0  0  0
   -5.6626   22.1789   -1.5137 C   0  0  0  0  0  0  0  0  0  0  0  0
   -6.1252   22.3072   -2.7725 N   0  0  0  0  0  0  0  0  0  0  0  0
   -2.6996   14.6884   -4.8169 H   0  0  0  0  0  0  0  0  0  0  0  0
   -2.4347   14.6458   -6.5469 H   0  0  0  0  0  0  0  0  0  0  0  0
   -3.2574   16.5096   -3.7067 H   0  0  0  0  0  0  0  0  0  0  0  0
   -3.2468   18.6460   -2.5238 H   0  0  0  0  0  0  0  0  0  0  0  0
   -4.5115   20.5628   -3.3905 H   0  0  0  0  0  0  0  0  0  0  0  0
   -5.9455   18.1607   -6.6826 H   0  0  0  0  0  0  0  0  0  0  0  0
   -7.8339   19.9743   -4.4489 H   0  0  0  0  0  0  0  0  0  0  0  0
   -8.0842   20.4824   -6.1317 H   0  0  0  0  0  0  0  0  0  0  0  0
   -8.5396   21.7523    0.0867 H   0  0  0  0  0  0  0  0  0  0  0  0
   -6.0821   21.8763    0.5742 H   0  0  0  0  0  0  0  0  0  0  0  0
   -4.5820   22.2277   -1.4028 H   0  0  0  0  0  0  0  0  0  0  0  0
  1  2  2  0  0  0  0
  2  3  2  0  0  0  0
  2  4  1  0  0  0  0
  2  5  1  0  0  0  0
  4 21  1  0  0  0  0
  4 22  1  0  0  0  0
  5  6  2  0  0  0  0
  5  9  1  0  0  0  0
  6  7  1  0  0  0  0
  6 23  1  0  0  0  0
  7  8  2  0  0  0  0
  7 24  1  0  0  0  0
  8 10  1  0  0  0  0
  8 25  1  0  0  0  0
  9 10  2  0  0  0  0
  9 26  1  0  0  0  0
 10 11  1  0  0  0  0
 11 12  2  0  0  0  0
 11 13  1  0  0  0  0
 13 14  1  0  0  0  0
 13 27  1  0  0  0  0
 13 28  1  0  0  0  0
 14 15  1  0  0  0  0
 15 16  2  0  0  0  0
 15 20  1  0  0  0  0
 16 17  1  0  0  0  0
 17 18  2  0  0  0  0
 17 29  1  0  0  0  0
 18 19  1  0  0  0  0
 18 30  1  0  0  0  0
 19 20  2  0  0  0  0
 19 31  1  0  0  0  0
M  END
$$$$
