EOI
 OpenBabel04111918203D

 39 40  0  0  1  0  0  0  0  0999 V2000
   49.3369  -53.0758   77.0239 C   0  0  0  0  0  0  0  0  0  0  0  0
   52.0494  -51.4210   76.8746 N   0  3  0  0  0  0  0  0  0  0  0  0
   49.2354  -50.6937   76.9545 O   0  0  0  0  0  0  0  0  0  0  0  0
   48.6460  -48.5943   75.2779 P   0  0  2  0  0  0  0  0  0  0  0  0
   47.4282  -47.0373   75.6298 S   0  0  0  0  0  0  0  0  0  0  0  0
   49.6269  -51.8350   76.1833 C   0  0  1  0  0  0  0  0  0  0  0  0
   53.2222  -50.1778   78.3492 N   0  0  0  0  0  0  0  0  0  0  0  0
   50.1256  -48.2685   75.5249 O   0  0  0  0  0  0  0  0  0  0  0  0
   48.3802  -49.9548   72.5047 P   0  0  2  0  0  0  0  0  0  0  0  0
   51.1178  -51.7442   75.8020 C   0  0  0  0  0  0  0  0  0  0  0  0
   53.1278  -53.5934   77.2735 N   0  0  0  0  0  0  0  0  0  0  0  0
   48.3672  -49.0915   73.8233 O   0  0  0  0  0  0  0  0  0  0  0  0
   46.0684  -51.8559   73.2672 P   0  0  0  0  0  0  0  0  0  0  0  0
   52.2660  -50.1946   77.4084 C   0  0  0  0  0  0  0  0  0  0  0  0
   54.7917  -53.4610   79.0506 N   0  0  0  0  0  0  0  0  0  0  0  0
   49.7718  -50.5355   72.2846 O   0  0  0  0  0  0  0  0  0  0  0  0
   53.6237  -51.4888   78.3992 C   0  0  0  0  0  0  0  0  0  0  0  0
   55.3341  -51.4796   80.1714 N   0  0  0  0  0  0  0  0  0  0  0  0
   47.8946  -49.0065   71.4099 O   0  0  0  0  0  0  0  0  0  0  0  0
   52.9392  -52.2804   77.4915 C   0  0  0  0  0  0  0  0  0  0  0  0
   47.3719  -51.1631   72.6697 O   0  0  0  0  0  0  0  0  0  0  0  0
   54.0642  -54.0931   78.1051 C   0  0  0  0  0  0  0  0  0  0  0  0
   45.7777  -53.0154   72.3031 O   0  0  0  0  0  0  0  0  0  0  0  0
   54.5798  -52.1324   79.2231 C   0  0  0  0  0  0  0  0  0  0  0  0
   44.9129  -50.8650   73.3248 O   0  0  0  0  0  0  0  0  0  0  0  0
   48.1218  -49.9835   76.3604 C   0  0  0  0  0  0  0  0  0  0  0  0
   46.4858  -52.3861   74.6446 O   0  0  0  0  0  0  0  0  0  0  0  0
   49.6417  -53.9911   76.5068 H   0  0  0  0  0  0  0  0  0  0  0  0
   48.2642  -53.1434   77.2402 H   0  0  0  0  0  0  0  0  0  0  0  0
   49.8522  -53.0254   77.9887 H   0  0  0  0  0  0  0  0  0  0  0  0
   49.0484  -51.9197   75.2556 H   0  0  0  0  0  0  0  0  0  0  0  0
   51.4399  -52.7020   75.3611 H   0  0  0  0  0  0  0  0  0  0  0  0
   51.2489  -50.9780   75.0307 H   0  0  0  0  0  0  0  0  0  0  0  0
   51.6942  -49.3135   77.0906 H   0  0  0  0  0  0  0  0  0  0  0  0
   55.1585  -50.4899   80.3020 H   0  0  0  0  0  0  0  0  0  0  0  0
   55.9600  -52.0204   80.7309 H   0  0  0  0  0  0  0  0  0  0  0  0
   54.2542  -55.1540   78.0049 H   0  0  0  0  0  0  0  0  0  0  0  0
   47.5747  -49.5504   77.2070 H   0  0  0  0  0  0  0  0  0  0  0  0
   47.4268  -50.6269   75.8333 H   0  0  0  0  0  0  0  0  0  0  0  0
  1  6  1  0  0  0  0
  1 28  1  0  0  0  0
  1 29  1  0  0  0  0
  1 30  1  0  0  0  0
  2 10  1  0  0  0  0
  2 14  2  0  0  0  0
  2 20  1  0  0  0  0
  3  6  1  0  0  0  0
  3 26  1  0  0  0  0
  4  5  1  1  0  0  0
  4  8  2  0  0  0  0
  4 12  1  0  0  0  0
  4 26  1  0  0  0  0
  6 10  1  0  0  0  0
  6 31  1  6  0  0  0
  7 14  1  0  0  0  0
  7 17  1  0  0  0  0
  9 12  1  1  0  0  0
  9 16  2  0  0  0  0
  9 19  1  0  0  0  0
  9 21  1  0  0  0  0
 10 32  1  0  0  0  0
 10 33  1  0  0  0  0
 11 20  2  0  0  0  0
 11 22  1  0  0  0  0
 13 21  1  0  0  0  0
 13 23  2  0  0  0  0
 13 25  1  0  0  0  0
 13 27  1  0  0  0  0
 14 34  1  0  0  0  0
 15 22  2  0  0  0  0
 15 24  1  0  0  0  0
 17 20  1  0  0  0  0
 17 24  2  0  0  0  0
 18 24  1  0  0  0  0
 18 35  1  0  0  0  0
 18 36  1  0  0  0  0
 22 37  1  0  0  0  0
 26 38  1  0  0  0  0
 26 39  1  0  0  0  0
M  CHG  1   2   1
M  END
$$$$
