EP4
 OpenBabel04111918453D

 40 42  0  0  1  0  0  0  0  0999 V2000
   45.8672   53.2995    9.2473 C   0  0  0  0  0  0  0  0  0  0  0  0
   44.6632   52.6303    9.8614 N   0  3  0  0  0  0  0  0  0  0  0  0
   43.4721   52.8202    8.9567 C   0  0  0  0  0  0  0  0  0  0  0  0
   44.9711   51.1749   10.1424 C   0  0  0  0  0  0  0  0  0  0  0  0
   44.0340   50.5137   11.1555 C   0  0  1  0  0  0  0  0  0  0  0  0
   44.4231   49.1341   11.2886 O   0  0  0  0  0  0  0  0  0  0  0  0
   44.0575   48.7401   12.6244 C   0  0  1  0  0  0  0  0  0  0  0  0
   44.7399   47.5281   12.9945 N   0  3  0  0  0  0  0  0  0  0  0  0
   44.1681   46.2868   13.0314 C   0  0  0  0  0  0  0  0  0  0  0  0
   42.9214   45.9254   12.6664 N   0  0  0  0  0  0  0  0  0  0  0  0
   42.7476   44.5936   12.8217 C   0  0  0  0  0  0  0  0  0  0  0  0
   43.6350   43.6736   13.2823 N   0  0  0  0  0  0  0  0  0  0  0  0
   44.8616   44.1061   13.6721 C   0  0  0  0  0  0  0  0  0  0  0  0
   45.7852   43.2327   14.1797 N   0  0  0  0  0  0  0  0  0  0  0  0
   45.1571   45.4628   13.5358 C   0  0  0  0  0  0  0  0  0  0  0  0
   46.3054   46.1774   13.8204 N   0  0  0  0  0  0  0  0  0  0  0  0
   46.0132   47.4134   13.4860 C   0  0  0  0  0  0  0  0  0  0  0  0
   44.3905   49.9461   13.4906 C   0  0  2  0  0  0  0  0  0  0  0  0
   43.6572   49.9607   14.7026 O   0  0  0  0  0  0  0  0  0  0  0  0
   44.0636   51.1207   12.5647 C   0  0  2  0  0  0  0  0  0  0  0  0
   42.7777   51.6843   12.8396 O   0  0  0  0  0  0  0  0  0  0  0  0
   45.6248   54.3525    9.0828 H   0  0  0  0  0  0  0  0  0  0  0  0
   46.0912   52.7944    8.3039 H   0  0  0  0  0  0  0  0  0  0  0  0
   46.7013   53.2088    9.9485 H   0  0  0  0  0  0  0  0  0  0  0  0
   42.5992   52.3621    9.4252 H   0  0  0  0  0  0  0  0  0  0  0  0
   43.6958   52.3527    7.9938 H   0  0  0  0  0  0  0  0  0  0  0  0
   43.3124   53.8951    8.8362 H   0  0  0  0  0  0  0  0  0  0  0  0
   45.9984   51.1157   10.5113 H   0  0  0  0  0  0  0  0  0  0  0  0
   44.9344   50.6414    9.1848 H   0  0  0  0  0  0  0  0  0  0  0  0
   43.0102   50.5248   10.7621 H   0  0  0  0  0  0  0  0  0  0  0  0
   42.9777   48.5473   12.6416 H   0  0  0  0  0  0  0  0  0  0  0  0
   41.7732   44.1970   12.5416 H   0  0  0  0  0  0  0  0  0  0  0  0
   46.7014   43.5997   14.4062 H   0  0  0  0  0  0  0  0  0  0  0  0
   45.5881   42.2446   14.2071 H   0  0  0  0  0  0  0  0  0  0  0  0
   46.6966   48.2452   13.6062 H   0  0  0  0  0  0  0  0  0  0  0  0
   45.4532   49.9990   13.7350 H   0  0  0  0  0  0  0  0  0  0  0  0
   42.7018   49.9277   14.5162 H   0  0  0  0  0  0  0  0  0  0  0  0
   44.7937   51.9152   12.6712 H   0  0  0  0  0  0  0  0  0  0  0  0
   42.1017   50.9835   12.8250 H   0  0  0  0  0  0  0  0  0  0  0  0
   44.4572   53.1239   10.7433 H   0  0  0  0  0  0  0  0  0  0  0  0
  1  2  1  0  0  0  0
  1 22  1  0  0  0  0
  1 23  1  0  0  0  0
  1 24  1  0  0  0  0
  2  3  1  0  0  0  0
  2  4  1  0  0  0  0
  2 40  1  0  0  0  0
  3 25  1  0  0  0  0
  3 26  1  0  0  0  0
  3 27  1  0  0  0  0
  4  5  1  0  0  0  0
  4 28  1  0  0  0  0
  4 29  1  0  0  0  0
  5  6  1  0  0  0  0
  5 20  1  0  0  0  0
  5 30  1  6  0  0  0
  6  7  1  0  0  0  0
  7  8  1  0  0  0  0
  7 18  1  0  0  0  0
  7 31  1  1  0  0  0
  8  9  1  0  0  0  0
  8 17  2  0  0  0  0
  9 10  2  0  0  0  0
  9 15  1  0  0  0  0
 10 11  1  0  0  0  0
 11 12  2  0  0  0  0
 11 32  1  0  0  0  0
 12 13  1  0  0  0  0
 13 14  1  0  0  0  0
 13 15  2  0  0  0  0
 14 33  1  0  0  0  0
 14 34  1  0  0  0  0
 15 16  1  0  0  0  0
 16 17  1  0  0  0  0
 17 35  1  0  0  0  0
 18 19  1  0  0  0  0
 18 20  1  0  0  0  0
 18 36  1  1  0  0  0
 19 37  1  0  0  0  0
 20 21  1  0  0  0  0
 20 38  1  1  0  0  0
 21 39  1  0  0  0  0
M  CHG  2   2   1   8   1
M  END
$$$$
