ES3
 OpenBabel04111919223D

  9  9  0  0  0  0  0  0  0  0999 V2000
    2.0591    7.3845    1.0546 Br  0  0  0  0  0  0  0  0  0  0  0  0
    3.4092    8.6502    0.9799 C   0  0  0  0  0  0  0  0  0  0  0  0
    3.5572    9.7885    1.7374 C   0  0  0  0  0  0  0  0  0  0  0  0
    4.6954   10.4624    1.3569 N   0  0  0  0  0  0  0  0  0  0  0  0
    5.2217    9.7442    0.3873 C   0  0  0  0  0  0  0  0  0  0  0  0
    4.4781    8.6298    0.1377 N   0  3  0  0  0  0  0  0  0  0  0  0
    2.9158   10.1627    2.5255 H   0  0  0  0  0  0  0  0  0  0  0  0
    6.1243    9.9783   -0.1604 H   0  0  0  0  0  0  0  0  0  0  0  0
    4.6690    7.9106   -0.5498 H   0  0  0  0  0  0  0  0  0  0  0  0
  1  2  1  0  0  0  0
  2  3  2  0  0  0  0
  2  6  1  0  0  0  0
  3  4  1  0  0  0  0
  3  7  1  0  0  0  0
  4  5  1  0  0  0  0
  5  6  2  0  0  0  0
  5  8  1  0  0  0  0
  6  9  1  0  0  0  0
M  CHG  1   6   1
M  END
$$$$
