ETS
 OpenBabel04111920173D

 36 37  0  0  1  0  0  0  0  0999 V2000
   15.1852    3.5556   15.6828 S   0  0  0  0  0  0  0  0  0  0  0  0
   16.1474    2.1445   15.9269 C   0  0  0  0  0  0  0  0  0  0  0  0
   17.3739    2.2523   15.3105 C   0  0  0  0  0  0  0  0  0  0  0  0
   17.5316    3.5265   14.6947 C   0  0  0  0  0  0  0  0  0  0  0  0
   18.7414    3.9203   13.9399 C   0  0  2  0  0  0  0  0  0  0  0  0
   18.8388    5.4041   13.6077 C   0  0  0  0  0  0  0  0  0  0  0  0
   17.5669    5.9730   12.9777 C   0  0  1  0  0  0  0  0  0  0  0  0
   16.2502    6.0036   14.2414 S   0  0  0  0  0  0  0  0  0  0  0  0
   16.4160    4.3186   14.8107 C   0  0  0  0  0  0  0  0  0  0  0  0
   15.4168    0.8309   16.8895 S   0  0  0  0  0  0  0  0  0  0  0  0
   16.0148    0.9527   18.1999 O   0  0  0  0  0  0  0  0  0  0  0  0
   14.0004    0.8884   16.6438 O   0  0  0  0  0  0  0  0  0  0  0  0
   16.0091   -0.5688   16.2004 N   0  0  0  0  0  0  0  0  0  0  0  0
   18.7046    3.1171   12.6734 N   0  3  0  0  0  0  0  0  0  0  0  0
   17.8601    7.3766   12.4987 C   0  0  0  0  0  0  0  0  0  0  0  0
   16.6742    6.7948   15.3506 O   0  0  0  0  0  0  0  0  0  0  0  0
   14.9619    6.1090   13.5802 O   0  0  0  0  0  0  0  0  0  0  0  0
   19.9771    3.1394   11.9230 C   0  0  0  0  0  0  0  0  0  0  0  0
   20.0240    2.0792   10.8562 C   0  0  0  0  0  0  0  0  0  0  0  0
   18.1453    1.4868   15.3010 H   0  0  0  0  0  0  0  0  0  0  0  0
   19.6246    3.6143   14.5129 H   0  0  0  0  0  0  0  0  0  0  0  0
   19.6870    5.5717   12.9387 H   0  0  0  0  0  0  0  0  0  0  0  0
   19.0533    5.9552   14.5292 H   0  0  0  0  0  0  0  0  0  0  0  0
   17.2432    5.3688   12.1250 H   0  0  0  0  0  0  0  0  0  0  0  0
   15.7881   -1.4426   16.6751 H   0  0  0  0  0  0  0  0  0  0  0  0
   16.7222   -0.5458   15.4853 H   0  0  0  0  0  0  0  0  0  0  0  0
   18.4620    2.1478   12.9216 H   0  0  0  0  0  0  0  0  0  0  0  0
   18.6555    7.3622   11.7446 H   0  0  0  0  0  0  0  0  0  0  0  0
   18.1923    7.9943   13.3371 H   0  0  0  0  0  0  0  0  0  0  0  0
   16.9651    7.8197   12.0606 H   0  0  0  0  0  0  0  0  0  0  0  0
   20.7749    2.9759   12.6494 H   0  0  0  0  0  0  0  0  0  0  0  0
   20.0465    4.1233   11.4591 H   0  0  0  0  0  0  0  0  0  0  0  0
   20.9894    2.1679   10.3470 H   0  0  0  0  0  0  0  0  0  0  0  0
   19.2328    2.2137   10.1132 H   0  0  0  0  0  0  0  0  0  0  0  0
   19.9542    1.0743   11.2814 H   0  0  0  0  0  0  0  0  0  0  0  0
   17.9306    3.4394   12.0775 H   0  0  0  0  0  0  0  0  0  0  0  0
  1  2  1  0  0  0  0
  1  9  1  0  0  0  0
  2  3  2  0  0  0  0
  2 10  1  0  0  0  0
  3  4  1  0  0  0  0
  3 20  1  0  0  0  0
  4  5  1  0  0  0  0
  4  9  2  0  0  0  0
  5  6  1  0  0  0  0
  5 14  1  0  0  0  0
  5 21  1  1  0  0  0
  6  7  1  0  0  0  0
  6 22  1  0  0  0  0
  6 23  1  0  0  0  0
  7  8  1  0  0  0  0
  7 15  1  0  0  0  0
  7 24  1  6  0  0  0
  8  9  1  0  0  0  0
  8 16  2  0  0  0  0
  8 17  2  0  0  0  0
 10 11  2  0  0  0  0
 10 12  2  0  0  0  0
 10 13  1  0  0  0  0
 13 25  1  0  0  0  0
 13 26  1  0  0  0  0
 14 18  1  0  0  0  0
 14 27  1  0  0  0  0
 14 36  1  0  0  0  0
 15 28  1  0  0  0  0
 15 29  1  0  0  0  0
 15 30  1  0  0  0  0
 18 19  1  0  0  0  0
 18 31  1  0  0  0  0
 18 32  1  0  0  0  0
 19 33  1  0  0  0  0
 19 34  1  0  0  0  0
 19 35  1  0  0  0  0
M  CHG  1  14   1
M  END
$$$$
