F1P
 OpenBabel04111918063D

 27 27  0  0  1  0  0  0  0  0999 V2000
   50.6626   31.4119   15.6013 C   0  0  0  0  0  0  0  0  0  0  0  0
   49.2585   31.2422   14.9492 C   0  0  1  0  0  0  0  0  0  0  0  0
   48.1831   31.7977   15.9463 C   0  0  2  0  0  0  0  0  0  0  0  0
   46.7971   31.5763   15.3469 C   0  0  1  0  0  0  0  0  0  0  0  0
   46.5802   30.0884   15.0743 C   0  0  1  0  0  0  0  0  0  0  0  0
   47.6775   29.6332   14.1216 C   0  0  0  0  0  0  0  0  0  0  0  0
   50.6830   30.6295   16.8049 O   0  0  0  0  0  0  0  0  0  0  0  0
   49.2153   31.9789   13.7094 O   0  0  0  0  0  0  0  0  0  0  0  0
   48.3651   33.2010   16.2270 O   0  0  0  0  0  0  0  0  0  0  0  0
   45.7469   32.0339   16.2231 O   0  0  0  0  0  0  0  0  0  0  0  0
   46.6231   29.2851   16.2590 O   0  0  0  0  0  0  0  0  0  0  0  0
   48.9919   29.8699   14.6038 O   0  0  0  0  0  0  0  0  0  0  0  0
   52.0019   30.7605   17.7752 P   0  0  0  0  0  0  0  0  0  0  0  0
   51.8290   29.6005   18.7225 O   0  0  0  0  0  0  0  0  0  0  0  0
   51.8179   32.1425   18.3939 O   0  0  0  0  0  0  0  0  0  0  0  0
   53.1696   30.6465   16.8096 O   0  0  0  0  0  0  0  0  0  0  0  0
   50.8609   32.4480   15.8389 H   0  0  0  0  0  0  0  0  0  0  0  0
   51.4428   31.0593   14.9292 H   0  0  0  0  0  0  0  0  0  0  0  0
   48.2468   31.2551   16.8853 H   0  0  0  0  0  0  0  0  0  0  0  0
   46.6828   32.1448   14.4176 H   0  0  0  0  0  0  0  0  0  0  0  0
   45.5810   29.9284   14.6556 H   0  0  0  0  0  0  0  0  0  0  0  0
   47.5677   30.1360   13.1447 H   0  0  0  0  0  0  0  0  0  0  0  0
   47.5737   28.5552   13.9245 H   0  0  0  0  0  0  0  0  0  0  0  0
   49.9745   31.6301   13.2119 H   0  0  0  0  0  0  0  0  0  0  0  0
   49.2421   33.2650   16.6616 H   0  0  0  0  0  0  0  0  0  0  0  0
   46.0054   32.9561   16.4339 H   0  0  0  0  0  0  0  0  0  0  0  0
   46.0412   29.7137   16.9245 H   0  0  0  0  0  0  0  0  0  0  0  0
  1  7  1  0  0  0  0
  1 17  1  0  0  0  0
  1 18  1  0  0  0  0
  2  1  1  1  0  0  0
  2  3  1  0  0  0  0
  2  8  1  0  0  0  0
  2 12  1  0  0  0  0
  3  4  1  0  0  0  0
  3  9  1  0  0  0  0
  3 19  1  1  0  0  0
  4  5  1  0  0  0  0
  4 10  1  0  0  0  0
  4 20  1  6  0  0  0
  5  6  1  0  0  0  0
  5 11  1  0  0  0  0
  5 21  1  6  0  0  0
  6 12  1  0  0  0  0
  6 22  1  0  0  0  0
  6 23  1  0  0  0  0
  7 13  1  0  0  0  0
  8 24  1  0  0  0  0
  9 25  1  0  0  0  0
 10 26  1  0  0  0  0
 11 27  1  0  0  0  0
 13 14  2  0  0  0  0
 13 15  1  0  0  0  0
 13 16  1  0  0  0  0
M  END
$$$$
