F47
 OpenBabel04111917443D

 36 39  0  0  0  0  0  0  0  0999 V2000
   18.8276   13.1158   46.6602 F   0  0  0  0  0  0  0  0  0  0  0  0
   18.2265   10.8436   39.2937 N   0  3  0  0  0  0  0  0  0  0  0  0
   17.6618   11.3055   37.2052 N   0  0  0  0  0  0  0  0  0  0  0  0
   18.2272   12.4811   42.6121 C   0  0  0  0  0  0  0  0  0  0  0  0
   17.6438   13.5961   43.2587 C   0  0  0  0  0  0  0  0  0  0  0  0
   17.8576   13.7931   44.6337 C   0  0  0  0  0  0  0  0  0  0  0  0
   18.0560   12.1668   41.1321 C   0  0  0  0  0  0  0  0  0  0  0  0
   17.4864   13.2158   40.2399 C   0  0  0  0  0  0  0  0  0  0  0  0
   17.7033   11.7883   38.4343 C   0  0  0  0  0  0  0  0  0  0  0  0
   20.5305    8.5196   39.4605 C   0  0  0  0  0  0  0  0  0  0  0  0
   22.9319    8.5470   38.9246 C   0  0  0  0  0  0  0  0  0  0  0  0
   17.3216   13.0193   38.9409 N   0  0  0  0  0  0  0  0  0  0  0  0
   22.2090    8.6335   41.2299 C   0  0  0  0  0  0  0  0  0  0  0  0
   21.5833    8.4994   38.5128 C   0  0  0  0  0  0  0  0  0  0  0  0
   23.2471    8.6189   40.2799 C   0  0  0  0  0  0  0  0  0  0  0  0
   24.5755    8.6520   40.6203 O   0  0  0  0  0  0  0  0  0  0  0  0
   20.8459    8.5802   40.8355 C   0  0  0  0  0  0  0  0  0  0  0  0
   19.0803    8.4590   39.0124 C   0  0  0  0  0  0  0  0  0  0  0  0
   18.5121    9.7443   38.4938 C   0  0  0  0  0  0  0  0  0  0  0  0
   18.4122   11.0050   40.6549 N   0  0  0  0  0  0  0  0  0  0  0  0
   18.1664   10.0133   37.2438 N   0  0  0  0  0  0  0  0  0  0  0  0
   19.0208   11.5786   43.3624 C   0  0  0  0  0  0  0  0  0  0  0  0
   19.2347   11.7809   44.7350 C   0  0  0  0  0  0  0  0  0  0  0  0
   18.6480   12.8882   45.3536 C   0  0  0  0  0  0  0  0  0  0  0  0
   17.0189   14.3200   42.7307 H   0  0  0  0  0  0  0  0  0  0  0  0
   17.4201   14.6427   45.1630 H   0  0  0  0  0  0  0  0  0  0  0  0
   17.1977   14.1825   40.6467 H   0  0  0  0  0  0  0  0  0  0  0  0
   23.7314    8.5366   38.1827 H   0  0  0  0  0  0  0  0  0  0  0  0
   22.4481    8.6785   42.2893 H   0  0  0  0  0  0  0  0  0  0  0  0
   21.3670    8.4467   37.4411 H   0  0  0  0  0  0  0  0  0  0  0  0
   24.7774    9.4644   41.1183 H   0  0  0  0  0  0  0  0  0  0  0  0
   20.0405    8.5902   41.5865 H   0  0  0  0  0  0  0  0  0  0  0  0
   18.4737    8.1257   39.8621 H   0  0  0  0  0  0  0  0  0  0  0  0
   19.0086    7.6926   38.2243 H   0  0  0  0  0  0  0  0  0  0  0  0
   19.4730   10.7196   42.8637 H   0  0  0  0  0  0  0  0  0  0  0  0
   19.8501   11.0802   45.3052 H   0  0  0  0  0  0  0  0  0  0  0  0
  1 24  1  0  0  0  0
  2  9  2  0  0  0  0
  2 19  1  0  0  0  0
  2 20  1  0  0  0  0
  3  9  1  0  0  0  0
  3 21  1  0  0  0  0
  4  5  2  0  0  0  0
  4  7  1  0  0  0  0
  4 22  1  0  0  0  0
  5  6  1  0  0  0  0
  5 25  1  0  0  0  0
  6 24  2  0  0  0  0
  6 26  1  0  0  0  0
  7  8  1  0  0  0  0
  7 20  2  0  0  0  0
  8 12  2  0  0  0  0
  8 27  1  0  0  0  0
  9 12  1  0  0  0  0
 10 14  2  0  0  0  0
 10 17  1  0  0  0  0
 10 18  1  0  0  0  0
 11 14  1  0  0  0  0
 11 15  2  0  0  0  0
 11 28  1  0  0  0  0
 13 15  1  0  0  0  0
 13 17  2  0  0  0  0
 13 29  1  0  0  0  0
 14 30  1  0  0  0  0
 15 16  1  0  0  0  0
 16 31  1  0  0  0  0
 17 32  1  0  0  0  0
 18 19  1  0  0  0  0
 18 33  1  0  0  0  0
 18 34  1  0  0  0  0
 19 21  2  0  0  0  0
 22 23  2  0  0  0  0
 22 35  1  0  0  0  0
 23 24  1  0  0  0  0
 23 36  1  0  0  0  0
M  CHG  1   2   1
M  END
$$$$
