F6P
 OpenBabel04111921373D

 27 27  0  0  1  0  0  0  0  0999 V2000
  -11.4884   21.8827   -9.6861 O   0  0  0  0  0  0  0  0  0  0  0  0
  -10.9213   23.1606   -9.4174 C   0  0  0  0  0  0  0  0  0  0  0  0
   -9.6718   23.1633   -8.5025 C   0  0  2  0  0  0  0  0  0  0  0  0
  -10.0241   22.7696   -7.1705 O   0  0  0  0  0  0  0  0  0  0  0  0
   -9.0317   24.5635   -8.4547 C   0  0  1  0  0  0  0  0  0  0  0  0
   -9.3740   25.3380   -7.2981 O   0  0  0  0  0  0  0  0  0  0  0  0
   -7.5382   24.2551   -8.4574 C   0  0  2  0  0  0  0  0  0  0  0  0
   -6.8051   25.3971   -8.9233 O   0  0  0  0  0  0  0  0  0  0  0  0
   -7.5133   23.0412   -9.3916 C   0  0  2  0  0  0  0  0  0  0  0  0
   -8.6762   22.2702   -8.9810 O   0  0  0  0  0  0  0  0  0  0  0  0
   -6.2283   22.2278   -9.3038 C   0  0  0  0  0  0  0  0  0  0  0  0
   -6.3462   21.1534  -10.2021 O   0  0  0  0  0  0  0  0  0  0  0  0
   -5.2228   19.9686  -10.0676 P   0  0  0  0  0  0  0  0  0  0  0  0
   -3.9253   20.6807  -10.4288 O   0  0  0  0  0  0  0  0  0  0  0  0
   -5.3095   19.5386   -8.6072 O   0  0  0  0  0  0  0  0  0  0  0  0
   -5.6620   18.9310  -11.0679 O   0  0  0  0  0  0  0  0  0  0  0  0
  -11.3143   21.2883   -8.9360 H   0  0  0  0  0  0  0  0  0  0  0  0
  -11.7191   23.7465   -8.9466 H   0  0  0  0  0  0  0  0  0  0  0  0
  -10.6770   23.6086  -10.3872 H   0  0  0  0  0  0  0  0  0  0  0  0
  -10.1712   21.8124   -7.2477 H   0  0  0  0  0  0  0  0  0  0  0  0
   -9.2862   25.1623   -9.3362 H   0  0  0  0  0  0  0  0  0  0  0  0
   -9.3457   24.6861   -6.5621 H   0  0  0  0  0  0  0  0  0  0  0  0
   -7.1926   23.9989   -7.4557 H   0  0  0  0  0  0  0  0  0  0  0  0
   -7.0788   26.1235   -8.3274 H   0  0  0  0  0  0  0  0  0  0  0  0
   -7.6819   23.3402  -10.4407 H   0  0  0  0  0  0  0  0  0  0  0  0
   -6.0798   21.8667   -8.2808 H   0  0  0  0  0  0  0  0  0  0  0  0
   -5.3775   22.8453   -9.5827 H   0  0  0  0  0  0  0  0  0  0  0  0
  1  2  1  0  0  0  0
  1 17  1  0  0  0  0
  2 18  1  0  0  0  0
  2 19  1  0  0  0  0
  3  2  1  6  0  0  0
  3  4  1  0  0  0  0
  3  5  1  0  0  0  0
  3 10  1  0  0  0  0
  4 20  1  0  0  0  0
  5  6  1  0  0  0  0
  5  7  1  0  0  0  0
  5 21  1  6  0  0  0
  6 22  1  0  0  0  0
  7  8  1  0  0  0  0
  7  9  1  0  0  0  0
  7 23  1  1  0  0  0
  8 24  1  0  0  0  0
  9 10  1  0  0  0  0
  9 11  1  0  0  0  0
  9 25  1  6  0  0  0
 11 12  1  0  0  0  0
 11 26  1  0  0  0  0
 11 27  1  0  0  0  0
 12 13  1  0  0  0  0
 13 14  2  0  0  0  0
 13 15  1  0  0  0  0
 13 16  1  0  0  0  0
M  END
$$$$
