FB2
 OpenBabel04111919413D

 17 17  0  0  0  0  0  0  0  0999 V2000
   16.5677    4.5692   14.2354 C   0  0  0  0  0  0  0  0  0  0  0  0
   17.4043    3.5215   14.6140 C   0  0  0  0  0  0  0  0  0  0  0  0
   16.8914    2.4146   15.2857 C   0  0  0  0  0  0  0  0  0  0  0  0
   15.5186    2.3508   15.5622 C   0  0  0  0  0  0  0  0  0  0  0  0
   14.6704    3.3922   15.1702 C   0  0  0  0  0  0  0  0  0  0  0  0
   15.2002    4.5052   14.5078 C   0  0  0  0  0  0  0  0  0  0  0  0
   14.9065    0.9420   16.4582 S   0  0  0  0  0  0  0  0  0  0  0  0
   13.4535    0.9916   16.4553 O   0  0  0  0  0  0  0  0  0  0  0  0
   15.6673    0.8228   17.6797 O   0  0  0  0  0  0  0  0  0  0  0  0
   15.3068   -0.3572   15.4891 N   0  0  0  0  0  0  0  0  0  0  0  0
   16.9845    5.4430   13.7342 H   0  0  0  0  0  0  0  0  0  0  0  0
   18.4688    3.5718   14.3961 H   0  0  0  0  0  0  0  0  0  0  0  0
   17.5505    1.6178   15.6094 H   0  0  0  0  0  0  0  0  0  0  0  0
   13.6015    3.3607   15.3844 H   0  0  0  0  0  0  0  0  0  0  0  0
   14.5547    5.3278   14.2068 H   0  0  0  0  0  0  0  0  0  0  0  0
   15.2758   -1.2691   15.9518 H   0  0  0  0  0  0  0  0  0  0  0  0
   15.9639   -0.2289   14.7201 H   0  0  0  0  0  0  0  0  0  0  0  0
  1  2  2  0  0  0  0
  1  6  1  0  0  0  0
  1 11  1  0  0  0  0
  2  3  1  0  0  0  0
  2 12  1  0  0  0  0
  3  4  2  0  0  0  0
  3 13  1  0  0  0  0
  4  5  1  0  0  0  0
  4  7  1  0  0  0  0
  5  6  2  0  0  0  0
  5 14  1  0  0  0  0
  6 15  1  0  0  0  0
  7  8  2  0  0  0  0
  7  9  2  0  0  0  0
  7 10  1  0  0  0  0
 10 16  1  0  0  0  0
 10 17  1  0  0  0  0
M  END
$$$$
