FB2
 OpenBabel04111922483D

 17 17  0  0  0  0  0  0  0  0999 V2000
   -1.1298    6.4594   84.3862 C   0  0  0  0  0  0  0  0  0  0  0  0
   -2.4775    6.4230   84.7442 C   0  0  0  0  0  0  0  0  0  0  0  0
   -2.9745    5.3380   85.4663 C   0  0  0  0  0  0  0  0  0  0  0  0
   -2.1157    4.2955   85.8360 C   0  0  0  0  0  0  0  0  0  0  0  0
   -0.7642    4.3302   85.4847 C   0  0  0  0  0  0  0  0  0  0  0  0
   -0.2768    5.4155   84.7490 C   0  0  0  0  0  0  0  0  0  0  0  0
   -2.7743    2.9489   86.7869 S   0  0  0  0  0  0  0  0  0  0  0  0
   -4.2177    2.9750   86.6915 O   0  0  0  0  0  0  0  0  0  0  0  0
   -2.0843    2.9315   88.0501 O   0  0  0  0  0  0  0  0  0  0  0  0
   -2.2808    1.5637   85.9641 N   0  0  0  0  0  0  0  0  0  0  0  0
   -0.7429    7.3117   83.8302 H   0  0  0  0  0  0  0  0  0  0  0  0
   -3.1382    7.2406   84.4671 H   0  0  0  0  0  0  0  0  0  0  0  0
   -4.0256    5.3201   85.7484 H   0  0  0  0  0  0  0  0  0  0  0  0
   -0.0808    3.5420   85.7903 H   0  0  0  0  0  0  0  0  0  0  0  0
    0.7747    5.4577   84.4699 H   0  0  0  0  0  0  0  0  0  0  0  0
   -2.0997    0.8120   86.6360 H   0  0  0  0  0  0  0  0  0  0  0  0
   -1.5060    1.7051   85.3233 H   0  0  0  0  0  0  0  0  0  0  0  0
  1  2  2  0  0  0  0
  1  6  1  0  0  0  0
  1 11  1  0  0  0  0
  2  3  1  0  0  0  0
  2 12  1  0  0  0  0
  3  4  2  0  0  0  0
  3 13  1  0  0  0  0
  4  5  1  0  0  0  0
  4  7  1  0  0  0  0
  5  6  2  0  0  0  0
  5 14  1  0  0  0  0
  6 15  1  0  0  0  0
  7  8  2  0  0  0  0
  7  9  2  0  0  0  0
  7 10  1  0  0  0  0
 10 16  1  0  0  0  0
 10 17  1  0  0  0  0
M  END
$$$$
