FB2
 OpenBabel04111919413D

 17 17  0  0  0  0  0  0  0  0999 V2000
   34.8390   -2.1190   10.8897 C   0  0  0  0  0  0  0  0  0  0  0  0
   34.2943   -3.0681   11.7490 C   0  0  0  0  0  0  0  0  0  0  0  0
   33.3885   -2.6736   12.7373 C   0  0  0  0  0  0  0  0  0  0  0  0
   33.0306   -1.3159   12.8621 C   0  0  0  0  0  0  0  0  0  0  0  0
   33.5709   -0.3705   11.9796 C   0  0  0  0  0  0  0  0  0  0  0  0
   34.4800   -0.7755   11.0002 C   0  0  0  0  0  0  0  0  0  0  0  0
   31.8293   -0.8210   14.0686 S   0  0  0  0  0  0  0  0  0  0  0  0
   31.0887    0.2991   13.5320 O   0  0  0  0  0  0  0  0  0  0  0  0
   32.4711   -0.7937   15.3555 O   0  0  0  0  0  0  0  0  0  0  0  0
   30.7741   -2.1135   14.0669 N   0  0  0  0  0  0  0  0  0  0  0  0
   35.5557   -2.4301   10.1305 H   0  0  0  0  0  0  0  0  0  0  0  0
   34.5658   -4.1112   11.6555 H   0  0  0  0  0  0  0  0  0  0  0  0
   32.9758   -3.4294   13.3950 H   0  0  0  0  0  0  0  0  0  0  0  0
   33.2895    0.6782   12.0595 H   0  0  0  0  0  0  0  0  0  0  0  0
   34.8996   -0.0435   10.3195 H   0  0  0  0  0  0  0  0  0  0  0  0
   30.0520   -2.1380   14.7828 H   0  0  0  0  0  0  0  0  0  0  0  0
   30.9435   -2.9089   13.4653 H   0  0  0  0  0  0  0  0  0  0  0  0
  1  2  2  0  0  0  0
  1  6  1  0  0  0  0
  1 11  1  0  0  0  0
  2  3  1  0  0  0  0
  2 12  1  0  0  0  0
  3  4  2  0  0  0  0
  3 13  1  0  0  0  0
  4  5  1  0  0  0  0
  4  7  1  0  0  0  0
  5  6  2  0  0  0  0
  5 14  1  0  0  0  0
  6 15  1  0  0  0  0
  7  8  2  0  0  0  0
  7  9  2  0  0  0  0
  7 10  1  0  0  0  0
 10 16  1  0  0  0  0
 10 17  1  0  0  0  0
M  END
$$$$
