FK9
 OpenBabel04111917483D

 43 43  0  0  1  0  0  0  0  0999 V2000
  -59.5316  -16.6001  -20.7778 O   0  0  0  0  0  0  0  0  0  0  0  0
  -60.8892  -16.8486  -20.4151 C   0  0  0  0  0  0  0  0  0  0  0  0
  -61.2796  -18.3082  -20.7096 C   0  0  1  0  0  0  0  0  0  0  0  0
  -61.2164  -18.5111  -22.1289 O   0  0  0  0  0  0  0  0  0  0  0  0
  -60.3805  -19.2778  -19.9225 C   0  0  1  0  0  0  0  0  0  0  0  0
  -60.6422  -19.1384  -18.5217 O   0  0  0  0  0  0  0  0  0  0  0  0
  -60.6706  -20.7244  -20.3494 C   0  0  2  0  0  0  0  0  0  0  0  0
  -59.6953  -21.6149  -19.7667 O   0  0  0  0  0  0  0  0  0  0  0  0
  -60.6092  -20.8815  -21.8691 C   0  0  2  0  0  0  0  0  0  0  0  0
  -59.2511  -20.7600  -22.3296 O   0  0  0  0  0  0  0  0  0  0  0  0
  -61.5197  -19.8506  -22.5429 C   0  0  1  0  0  0  0  0  0  0  0  0
  -62.8720  -20.1920  -22.2757 O   0  0  0  0  0  0  0  0  0  0  0  0
  -63.7796  -19.4958  -23.1289 C   0  0  0  0  0  0  0  0  0  0  0  0
  -65.1904  -19.7342  -22.6002 C   0  0  0  0  0  0  0  0  0  0  0  0
  -66.0921  -18.5234  -22.8338 C   0  0  0  0  0  0  0  0  0  0  0  0
  -68.4626  -17.1722  -22.2110 C   0  0  0  0  0  0  0  0  0  0  0  0
  -67.8582  -15.8376  -21.7813 C   0  0  0  0  0  0  0  0  0  0  0  0
  -68.7931  -14.6906  -22.1440 C   0  0  0  0  0  0  0  0  0  0  0  0
  -67.4889  -18.6068  -21.6649 S   0  0  0  0  0  0  0  0  0  0  0  0
  -59.4059  -15.6367  -20.7940 H   0  0  0  0  0  0  0  0  0  0  0  0
  -61.5263  -16.1605  -20.9803 H   0  0  0  0  0  0  0  0  0  0  0  0
  -60.9897  -16.6213  -19.3494 H   0  0  0  0  0  0  0  0  0  0  0  0
  -62.3234  -18.4277  -20.3887 H   0  0  0  0  0  0  0  0  0  0  0  0
  -59.3158  -19.0751  -20.0856 H   0  0  0  0  0  0  0  0  0  0  0  0
  -60.1492  -18.3558  -18.2176 H   0  0  0  0  0  0  0  0  0  0  0  0
  -61.6558  -21.0201  -19.9599 H   0  0  0  0  0  0  0  0  0  0  0  0
  -60.0960  -22.5023  -19.7689 H   0  0  0  0  0  0  0  0  0  0  0  0
  -60.9275  -21.8964  -22.1323 H   0  0  0  0  0  0  0  0  0  0  0  0
  -58.7010  -21.2163  -21.6666 H   0  0  0  0  0  0  0  0  0  0  0  0
  -61.3400  -19.8890  -23.6291 H   0  0  0  0  0  0  0  0  0  0  0  0
  -63.6819  -19.8862  -24.1480 H   0  0  0  0  0  0  0  0  0  0  0  0
  -63.5349  -18.4290  -23.1321 H   0  0  0  0  0  0  0  0  0  0  0  0
  -65.1354  -19.9878  -21.5340 H   0  0  0  0  0  0  0  0  0  0  0  0
  -65.6165  -20.6154  -23.0996 H   0  0  0  0  0  0  0  0  0  0  0  0
  -66.4629  -18.5225  -23.8641 H   0  0  0  0  0  0  0  0  0  0  0  0
  -65.5443  -17.5929  -22.6576 H   0  0  0  0  0  0  0  0  0  0  0  0
  -68.5925  -17.2163  -23.2959 H   0  0  0  0  0  0  0  0  0  0  0  0
  -69.4530  -17.2841  -21.7581 H   0  0  0  0  0  0  0  0  0  0  0  0
  -66.8916  -15.6722  -22.2697 H   0  0  0  0  0  0  0  0  0  0  0  0
  -67.6874  -15.8214  -20.6982 H   0  0  0  0  0  0  0  0  0  0  0  0
  -68.3612  -13.7329  -21.8379 H   0  0  0  0  0  0  0  0  0  0  0  0
  -69.7607  -14.8013  -21.6431 H   0  0  0  0  0  0  0  0  0  0  0  0
  -68.9694  -14.6559  -23.2240 H   0  0  0  0  0  0  0  0  0  0  0  0
  1  2  1  0  0  0  0
  1 20  1  0  0  0  0
  2  3  1  0  0  0  0
  2 21  1  0  0  0  0
  2 22  1  0  0  0  0
  3  4  1  0  0  0  0
  3  5  1  0  0  0  0
  3 23  1  1  0  0  0
  4 11  1  0  0  0  0
  5  6  1  0  0  0  0
  5  7  1  0  0  0  0
  5 24  1  6  0  0  0
  6 25  1  0  0  0  0
  7  8  1  0  0  0  0
  7  9  1  0  0  0  0
  7 26  1  1  0  0  0
  8 27  1  0  0  0  0
  9 10  1  0  0  0  0
  9 11  1  0  0  0  0
  9 28  1  6  0  0  0
 10 29  1  0  0  0  0
 11 12  1  0  0  0  0
 11 30  1  6  0  0  0
 12 13  1  0  0  0  0
 13 14  1  0  0  0  0
 13 31  1  0  0  0  0
 13 32  1  0  0  0  0
 14 15  1  0  0  0  0
 14 33  1  0  0  0  0
 14 34  1  0  0  0  0
 15 19  1  0  0  0  0
 15 35  1  0  0  0  0
 15 36  1  0  0  0  0
 16 17  1  0  0  0  0
 16 19  1  0  0  0  0
 16 37  1  0  0  0  0
 16 38  1  0  0  0  0
 17 18  1  0  0  0  0
 17 39  1  0  0  0  0
 17 40  1  0  0  0  0
 18 41  1  0  0  0  0
 18 42  1  0  0  0  0
 18 43  1  0  0  0  0
M  END
$$$$
