FSU
 OpenBabel04111923083D

 34 35  0  0  0  0  0  0  0  0999 V2000
    8.0340   14.6780   58.7208 C   0  0  0  0  0  0  0  0  0  0  0  0
    8.0322   13.7739   59.7682 N   0  0  0  0  0  0  0  0  0  0  0  0
    9.2871   15.4646   58.8088 C   0  0  0  0  0  0  0  0  0  0  0  0
    9.9585   14.9925   59.9512 C   0  0  0  0  0  0  0  0  0  0  0  0
    9.8381   16.4690   58.0186 C   0  0  0  0  0  0  0  0  0  0  0  0
    9.1934   13.8988   60.6151 C   0  0  0  0  0  0  0  0  0  0  0  0
    9.2813   17.0411   56.7636 C   0  0  0  0  0  0  0  0  0  0  0  0
    7.1629   14.8112   57.8814 O   0  0  0  0  0  0  0  0  0  0  0  0
    9.9286   17.8448   56.0916 O   0  0  0  0  0  0  0  0  0  0  0  0
    8.0396   16.6756   56.3496 N   0  0  0  0  0  0  0  0  0  0  0  0
    6.9684   12.8213   60.0513 C   0  0  0  0  0  0  0  0  0  0  0  0
   11.1801   15.5107   60.3476 C   0  0  0  0  0  0  0  0  0  0  0  0
   11.0821   16.9965   58.4360 C   0  0  0  0  0  0  0  0  0  0  0  0
    5.9598   13.3522   61.0704 C   0  0  0  0  0  0  0  0  0  0  0  0
   11.7423   16.5252   59.5827 C   0  0  0  0  0  0  0  0  0  0  0  0
    4.2065   11.8549   60.4024 O   0  0  0  0  0  0  0  0  0  0  0  0
    5.0068   12.2471   61.5131 C   0  0  0  0  0  0  0  0  0  0  0  0
    3.3981   10.7268   60.7044 C   0  0  0  0  0  0  0  0  0  0  0  0
    9.7514   12.9580   60.6045 H   0  0  0  0  0  0  0  0  0  0  0  0
    8.8890   14.1770   61.6275 H   0  0  0  0  0  0  0  0  0  0  0  0
    7.6912   17.0425   55.4761 H   0  0  0  0  0  0  0  0  0  0  0  0
    7.4693   15.9715   56.8162 H   0  0  0  0  0  0  0  0  0  0  0  0
    7.4365   11.8990   60.4146 H   0  0  0  0  0  0  0  0  0  0  0  0
    6.4544   12.5860   59.1128 H   0  0  0  0  0  0  0  0  0  0  0  0
   11.6895   15.1346   61.2297 H   0  0  0  0  0  0  0  0  0  0  0  0
   11.5570   17.7910   57.8581 H   0  0  0  0  0  0  0  0  0  0  0  0
    5.3943   14.1764   60.6183 H   0  0  0  0  0  0  0  0  0  0  0  0
    6.4787   13.7518   61.9486 H   0  0  0  0  0  0  0  0  0  0  0  0
   12.7017   16.9532   59.8660 H   0  0  0  0  0  0  0  0  0  0  0  0
    4.3583   12.6106   62.3184 H   0  0  0  0  0  0  0  0  0  0  0  0
    5.5759   11.3866   61.8853 H   0  0  0  0  0  0  0  0  0  0  0  0
    2.7982   10.4872   59.8226 H   0  0  0  0  0  0  0  0  0  0  0  0
    2.7268   10.9455   61.5400 H   0  0  0  0  0  0  0  0  0  0  0  0
    4.0293    9.8650   60.9412 H   0  0  0  0  0  0  0  0  0  0  0  0
  1  2  1  0  0  0  0
  1  3  1  0  0  0  0
  1  8  2  0  0  0  0
  2  6  1  0  0  0  0
  2 11  1  0  0  0  0
  3  4  2  0  0  0  0
  3  5  1  0  0  0  0
  4  6  1  0  0  0  0
  4 12  1  0  0  0  0
  5  7  1  0  0  0  0
  5 13  2  0  0  0  0
  6 19  1  0  0  0  0
  6 20  1  0  0  0  0
  7  9  2  0  0  0  0
  7 10  1  0  0  0  0
 10 21  1  0  0  0  0
 10 22  1  0  0  0  0
 11 14  1  0  0  0  0
 11 23  1  0  0  0  0
 11 24  1  0  0  0  0
 12 15  2  0  0  0  0
 12 25  1  0  0  0  0
 13 15  1  0  0  0  0
 13 26  1  0  0  0  0
 14 17  1  0  0  0  0
 14 27  1  0  0  0  0
 14 28  1  0  0  0  0
 15 29  1  0  0  0  0
 16 17  1  0  0  0  0
 16 18  1  0  0  0  0
 17 30  1  0  0  0  0
 17 31  1  0  0  0  0
 18 32  1  0  0  0  0
 18 33  1  0  0  0  0
 18 34  1  0  0  0  0
M  END
$$$$
