FSU
 OpenBabel04111923093D

 34 35  0  0  0  0  0  0  0  0999 V2000
   62.7064    6.7023    9.2732 C   0  0  0  0  0  0  0  0  0  0  0  0
   61.7927    6.2517   10.2106 N   0  0  0  0  0  0  0  0  0  0  0  0
   63.7208    5.6431    9.0870 C   0  0  0  0  0  0  0  0  0  0  0  0
   63.3299    4.5840    9.9184 C   0  0  0  0  0  0  0  0  0  0  0  0
   64.8525    5.5550    8.2914 C   0  0  0  0  0  0  0  0  0  0  0  0
   62.0920    4.9196   10.6787 C   0  0  0  0  0  0  0  0  0  0  0  0
   65.3854    6.5982    7.3655 C   0  0  0  0  0  0  0  0  0  0  0  0
   62.6958    7.7797    8.7132 O   0  0  0  0  0  0  0  0  0  0  0  0
   66.2652    6.3212    6.5580 O   0  0  0  0  0  0  0  0  0  0  0  0
   64.9041    7.8633    7.4405 N   0  0  0  0  0  0  0  0  0  0  0  0
   60.6829    7.0419   10.7291 C   0  0  0  0  0  0  0  0  0  0  0  0
   64.0511    3.4054    9.9774 C   0  0  0  0  0  0  0  0  0  0  0  0
   65.5825    4.3508    8.3571 C   0  0  0  0  0  0  0  0  0  0  0  0
   60.9471    7.6488   12.1116 C   0  0  0  0  0  0  0  0  0  0  0  0
   65.1882    3.2931    9.1860 C   0  0  0  0  0  0  0  0  0  0  0  0
   61.8992    9.7860   11.5801 O   0  0  0  0  0  0  0  0  0  0  0  0
   62.2059    8.5120   12.1414 C   0  0  0  0  0  0  0  0  0  0  0  0
   62.9826   10.3233   10.8338 C   0  0  0  0  0  0  0  0  0  0  0  0
   61.2701    4.2517   10.4086 H   0  0  0  0  0  0  0  0  0  0  0  0
   62.2754    4.9306   11.7563 H   0  0  0  0  0  0  0  0  0  0  0  0
   65.2072    8.5145    6.7260 H   0  0  0  0  0  0  0  0  0  0  0  0
   64.0721    8.1213    7.9634 H   0  0  0  0  0  0  0  0  0  0  0  0
   59.8068    6.3838   10.7760 H   0  0  0  0  0  0  0  0  0  0  0  0
   60.4586    7.8403   10.0154 H   0  0  0  0  0  0  0  0  0  0  0  0
   63.7339    2.5865   10.6146 H   0  0  0  0  0  0  0  0  0  0  0  0
   66.4888    4.2308    7.7562 H   0  0  0  0  0  0  0  0  0  0  0  0
   61.0372    6.8458   12.8520 H   0  0  0  0  0  0  0  0  0  0  0  0
   60.0772    8.2561   12.3912 H   0  0  0  0  0  0  0  0  0  0  0  0
   65.7770    2.3743    9.2027 H   0  0  0  0  0  0  0  0  0  0  0  0
   63.0346    8.0253   11.6180 H   0  0  0  0  0  0  0  0  0  0  0  0
   62.5267    8.6650   13.1774 H   0  0  0  0  0  0  0  0  0  0  0  0
   62.6937   11.3098   10.4636 H   0  0  0  0  0  0  0  0  0  0  0  0
   63.1981    9.6949    9.9702 H   0  0  0  0  0  0  0  0  0  0  0  0
   63.8798   10.4168   11.4520 H   0  0  0  0  0  0  0  0  0  0  0  0
  1  2  1  0  0  0  0
  1  3  1  0  0  0  0
  1  8  2  0  0  0  0
  2  6  1  0  0  0  0
  2 11  1  0  0  0  0
  3  4  2  0  0  0  0
  3  5  1  0  0  0  0
  4  6  1  0  0  0  0
  4 12  1  0  0  0  0
  5  7  1  0  0  0  0
  5 13  2  0  0  0  0
  6 19  1  0  0  0  0
  6 20  1  0  0  0  0
  7  9  2  0  0  0  0
  7 10  1  0  0  0  0
 10 21  1  0  0  0  0
 10 22  1  0  0  0  0
 11 14  1  0  0  0  0
 11 23  1  0  0  0  0
 11 24  1  0  0  0  0
 12 15  2  0  0  0  0
 12 25  1  0  0  0  0
 13 15  1  0  0  0  0
 13 26  1  0  0  0  0
 14 17  1  0  0  0  0
 14 27  1  0  0  0  0
 14 28  1  0  0  0  0
 15 29  1  0  0  0  0
 16 17  1  0  0  0  0
 16 18  1  0  0  0  0
 17 30  1  0  0  0  0
 17 31  1  0  0  0  0
 18 32  1  0  0  0  0
 18 33  1  0  0  0  0
 18 34  1  0  0  0  0
M  END
$$$$
