FYZ
 OpenBabel04111917483D

 49 51  0  0  1  0  0  0  0  0999 V2000
    3.3796  -13.8222  -10.5211 O   0  0  0  0  0  0  0  0  0  0  0  0
    3.9251  -14.3476  -11.7339 C   0  0  1  0  0  0  0  0  0  0  0  0
    3.2117  -15.6355  -12.1488 C   0  0  1  0  0  0  0  0  0  0  0  0
    3.2808  -16.6122  -11.0913 O   0  0  0  0  0  0  0  0  0  0  0  0
    1.7491  -15.3306  -12.4833 C   0  0  2  0  0  0  0  0  0  0  0  0
    1.1194  -16.5326  -12.9496 O   0  0  0  0  0  0  0  0  0  0  0  0
    1.6833  -14.2151  -13.5312 C   0  0  2  0  0  0  0  0  0  0  0  0
    2.3880  -13.0400  -13.1018 O   0  0  0  0  0  0  0  0  0  0  0  0
    0.2330  -13.8057  -13.8159 C   0  0  0  0  0  0  0  0  0  0  0  0
   -0.3982  -13.2942  -12.6406 O   0  0  0  0  0  0  0  0  0  0  0  0
    3.7664  -13.2813  -12.8163 C   0  0  2  0  0  0  0  0  0  0  0  0
    4.4592  -13.7235  -13.9852 O   0  0  0  0  0  0  0  0  0  0  0  0
    4.6653  -12.6208  -14.8522 C   0  0  0  0  0  0  0  0  0  0  0  0
    4.5905  -13.0421  -16.2558 C   0  0  0  0  0  0  0  0  0  0  0  0
    4.5358  -13.3521  -17.3846 C   0  0  0  0  0  0  0  0  0  0  0  0
    4.5131  -13.8016  -18.7115 C   0  0  0  0  0  0  0  0  0  0  0  0
    5.4440  -14.7659  -19.0584 C   0  0  0  0  0  0  0  0  0  0  0  0
    5.4305  -15.2454  -20.3416 C   0  0  0  0  0  0  0  0  0  0  0  0
    4.5055  -14.7787  -21.2856 C   0  0  0  0  0  0  0  0  0  0  0  0
    3.5928  -13.7846  -20.8868 C   0  0  0  0  0  0  0  0  0  0  0  0
    3.5801  -13.2895  -19.5975 C   0  0  0  0  0  0  0  0  0  0  0  0
    4.5601  -15.2955  -22.6589 C   0  0  0  0  0  0  0  0  0  0  0  0
    5.6590  -16.0716  -23.0712 C   0  0  0  0  0  0  0  0  0  0  0  0
    5.7530  -16.5592  -24.3645 C   0  0  0  0  0  0  0  0  0  0  0  0
    4.7394  -16.2636  -25.2683 C   0  0  0  0  0  0  0  0  0  0  0  0
    3.6420  -15.4899  -24.8976 C   0  0  0  0  0  0  0  0  0  0  0  0
    3.5589  -15.0065  -23.5960 C   0  0  0  0  0  0  0  0  0  0  0  0
    3.4718  -14.4937   -9.8286 H   0  0  0  0  0  0  0  0  0  0  0  0
    4.9912  -14.5643  -11.5981 H   0  0  0  0  0  0  0  0  0  0  0  0
    3.7057  -16.0566  -13.0339 H   0  0  0  0  0  0  0  0  0  0  0  0
    4.2114  -16.8274  -10.9220 H   0  0  0  0  0  0  0  0  0  0  0  0
    1.2399  -15.0077  -11.5732 H   0  0  0  0  0  0  0  0  0  0  0  0
    0.1925  -16.3261  -13.1442 H   0  0  0  0  0  0  0  0  0  0  0  0
    2.1198  -14.5674  -14.4751 H   0  0  0  0  0  0  0  0  0  0  0  0
   -0.3298  -14.6761  -14.1590 H   0  0  0  0  0  0  0  0  0  0  0  0
    0.2179  -13.0310  -14.5871 H   0  0  0  0  0  0  0  0  0  0  0  0
   -1.3088  -13.0431  -12.8637 H   0  0  0  0  0  0  0  0  0  0  0  0
    4.2066  -12.3338  -12.4492 H   0  0  0  0  0  0  0  0  0  0  0  0
    5.6571  -12.2126  -14.6775 H   0  0  0  0  0  0  0  0  0  0  0  0
    3.9063  -11.8656  -14.6954 H   0  0  0  0  0  0  0  0  0  0  0  0
    6.1611  -15.1330  -18.3310 H   0  0  0  0  0  0  0  0  0  0  0  0
    6.1616  -15.9919  -20.6173 H   0  0  0  0  0  0  0  0  0  0  0  0
    2.8913  -13.3773  -21.6061 H   0  0  0  0  0  0  0  0  0  0  0  0
    2.8675  -12.5298  -19.2849 H   0  0  0  0  0  0  0  0  0  0  0  0
    6.4623  -16.2870  -22.3734 H   0  0  0  0  0  0  0  0  0  0  0  0
    6.6031  -17.1624  -24.6659 H   0  0  0  0  0  0  0  0  0  0  0  0
    4.8046  -16.6401  -26.2850 H   0  0  0  0  0  0  0  0  0  0  0  0
    2.8600  -15.2694  -25.6183 H   0  0  0  0  0  0  0  0  0  0  0  0
    2.7114  -14.3943  -23.3073 H   0  0  0  0  0  0  0  0  0  0  0  0
  1  2  1  0  0  0  0
  1 28  1  0  0  0  0
  2  3  1  0  0  0  0
  2 11  1  0  0  0  0
  2 29  1  1  0  0  0
  3  4  1  0  0  0  0
  3  5  1  0  0  0  0
  3 30  1  6  0  0  0
  4 31  1  0  0  0  0
  5  6  1  0  0  0  0
  5  7  1  0  0  0  0
  5 32  1  1  0  0  0
  6 33  1  0  0  0  0
  7  8  1  0  0  0  0
  7  9  1  0  0  0  0
  7 34  1  6  0  0  0
  8 11  1  0  0  0  0
  9 10  1  0  0  0  0
  9 35  1  0  0  0  0
  9 36  1  0  0  0  0
 10 37  1  0  0  0  0
 11 12  1  0  0  0  0
 11 38  1  1  0  0  0
 12 13  1  0  0  0  0
 13 14  1  0  0  0  0
 13 39  1  0  0  0  0
 13 40  1  0  0  0  0
 14 15  3  0  0  0  0
 15 16  1  0  0  0  0
 16 17  2  0  0  0  0
 16 21  1  0  0  0  0
 17 18  1  0  0  0  0
 17 41  1  0  0  0  0
 18 19  2  0  0  0  0
 18 42  1  0  0  0  0
 19 20  1  0  0  0  0
 19 22  1  0  0  0  0
 20 21  2  0  0  0  0
 20 43  1  0  0  0  0
 21 44  1  0  0  0  0
 22 23  2  0  0  0  0
 22 27  1  0  0  0  0
 23 24  1  0  0  0  0
 23 45  1  0  0  0  0
 24 25  2  0  0  0  0
 24 46  1  0  0  0  0
 25 26  1  0  0  0  0
 25 47  1  0  0  0  0
 26 27  2  0  0  0  0
 26 48  1  0  0  0  0
 27 49  1  0  0  0  0
M  END
$$$$
