G08
 OpenBabel04111919233D

 77 80  0  0  1  0  0  0  0  0999 V2000
  -17.1365    0.6585   -2.6397 O   0  0  0  0  0  0  0  0  0  0  0  0
  -18.2729    0.9403   -2.9992 C   0  0  0  0  0  0  0  0  0  0  0  0
  -18.6648    1.0474   -4.2780 O   0  0  0  0  0  0  0  0  0  0  0  0
  -17.6368    0.9602   -5.2839 C   0  0  2  0  0  0  0  0  0  0  0  0
  -17.3277    2.3064   -5.9268 C   0  0  2  0  0  0  0  0  0  0  0  0
  -17.4428    3.5428   -5.0767 C   0  0  0  0  0  0  0  0  0  0  0  0
  -18.9235    3.8491   -5.1376 C   0  0  0  0  0  0  0  0  0  0  0  0
  -19.3396    3.4853   -6.4587 O   0  0  0  0  0  0  0  0  0  0  0  0
  -18.4537    2.4686   -6.9387 C   0  0  2  0  0  0  0  0  0  0  0  0
  -19.0972    1.1971   -7.0888 O   0  0  0  0  0  0  0  0  0  0  0  0
  -18.2395    0.2265   -6.4646 C   0  0  0  0  0  0  0  0  0  0  0  0
  -19.3221    1.2066   -2.1798 N   0  0  0  0  0  0  0  0  0  0  0  0
  -19.1674    1.2360   -0.7164 C   0  0  1  0  0  0  0  0  0  0  0  0
  -19.4196    2.6606   -0.1814 C   0  0  0  0  0  0  0  0  0  0  0  0
  -18.4605    3.6680   -0.7628 C   0  0  0  0  0  0  0  0  0  0  0  0
  -18.9074    4.6429   -1.6626 C   0  0  0  0  0  0  0  0  0  0  0  0
  -18.0011    5.5346   -2.2339 C   0  0  0  0  0  0  0  0  0  0  0  0
  -16.6447    5.4468   -1.9245 C   0  0  0  0  0  0  0  0  0  0  0  0
  -16.1946    4.4812   -1.0279 C   0  0  0  0  0  0  0  0  0  0  0  0
  -17.0992    3.6009   -0.4440 C   0  0  0  0  0  0  0  0  0  0  0  0
  -20.1241    0.1805   -0.1269 C   0  0  2  0  0  0  0  0  0  0  0  0
  -21.4961    0.5563   -0.3323 O   0  0  0  0  0  0  0  0  0  0  0  0
  -19.8763   -0.1713    1.3540 C   0  0  0  0  0  0  0  0  0  0  0  0
  -18.5576   -0.8347    1.5123 N   0  0  0  0  0  0  0  0  0  0  0  0
  -18.6001   -2.3011    1.7443 C   0  0  0  0  0  0  0  0  0  0  0  0
  -18.8818   -3.1098    0.4756 C   0  0  0  0  0  0  0  0  0  0  0  0
  -19.2559   -4.5350    0.8803 C   0  0  0  0  0  0  0  0  0  0  0  0
  -17.6462   -3.1614   -0.4223 C   0  0  0  0  0  0  0  0  0  0  0  0
  -17.3364    0.0044    2.3482 S   0  0  0  0  0  0  0  0  0  0  0  0
  -17.5955    1.4241    2.2551 O   0  0  0  0  0  0  0  0  0  0  0  0
  -16.0690   -0.5524    1.9259 O   0  0  0  0  0  0  0  0  0  0  0  0
  -17.5767   -0.4815    4.0466 C   0  0  0  0  0  0  0  0  0  0  0  0
  -16.7310   -1.4690    4.5614 C   0  0  0  0  0  0  0  0  0  0  0  0
  -16.8260   -1.8577    5.8926 C   0  0  0  0  0  0  0  0  0  0  0  0
  -18.5286    0.1326    4.8652 C   0  0  0  0  0  0  0  0  0  0  0  0
  -18.6181   -0.2623    6.2109 C   0  0  0  0  0  0  0  0  0  0  0  0
  -17.7573   -1.2484    6.7342 C   0  0  0  0  0  0  0  0  0  0  0  0
  -17.8655   -1.6608    8.1594 C   0  0  0  0  0  0  0  0  0  0  0  0
  -18.8508   -1.3663    8.8264 O   0  0  0  0  0  0  0  0  0  0  0  0
  -16.8329   -2.3651    8.7242 N   0  0  0  0  0  0  0  0  0  0  0  0
  -16.7374    0.4581   -4.9116 H   0  0  0  0  0  0  0  0  0  0  0  0
  -16.3588    2.2522   -6.4380 H   0  0  0  0  0  0  0  0  0  0  0  0
  -16.8901    4.3595   -5.5598 H   0  0  0  0  0  0  0  0  0  0  0  0
  -17.0445    3.4208   -4.0682 H   0  0  0  0  0  0  0  0  0  0  0  0
  -19.1515    4.9009   -4.9470 H   0  0  0  0  0  0  0  0  0  0  0  0
  -19.5057    3.2566   -4.4278 H   0  0  0  0  0  0  0  0  0  0  0  0
  -18.0769    2.7745   -7.9192 H   0  0  0  0  0  0  0  0  0  0  0  0
  -18.8225   -0.6520   -6.1765 H   0  0  0  0  0  0  0  0  0  0  0  0
  -17.4762   -0.0626   -7.1961 H   0  0  0  0  0  0  0  0  0  0  0  0
  -20.2258    1.3658   -2.5912 H   0  0  0  0  0  0  0  0  0  0  0  0
  -18.1372    0.9425   -0.4855 H   0  0  0  0  0  0  0  0  0  0  0  0
  -19.3357    2.6896    0.9095 H   0  0  0  0  0  0  0  0  0  0  0  0
  -20.4410    2.9855   -0.4105 H   0  0  0  0  0  0  0  0  0  0  0  0
  -19.9567    4.6967   -1.9444 H   0  0  0  0  0  0  0  0  0  0  0  0
  -18.3483    6.2812   -2.9427 H   0  0  0  0  0  0  0  0  0  0  0  0
  -15.9349    6.1227   -2.3911 H   0  0  0  0  0  0  0  0  0  0  0  0
  -15.1388    4.4023   -0.7855 H   0  0  0  0  0  0  0  0  0  0  0  0
  -16.7320    2.8415    0.2434 H   0  0  0  0  0  0  0  0  0  0  0  0
  -19.9927   -0.7295   -0.7194 H   0  0  0  0  0  0  0  0  0  0  0  0
  -21.6374    1.4491    0.0220 H   0  0  0  0  0  0  0  0  0  0  0  0
  -20.6801   -0.8308    1.7015 H   0  0  0  0  0  0  0  0  0  0  0  0
  -19.9666    0.7208    1.9809 H   0  0  0  0  0  0  0  0  0  0  0  0
  -19.3522   -2.5080    2.5147 H   0  0  0  0  0  0  0  0  0  0  0  0
  -17.6412   -2.6479    2.1431 H   0  0  0  0  0  0  0  0  0  0  0  0
  -19.7218   -2.6910   -0.0855 H   0  0  0  0  0  0  0  0  0  0  0  0
  -19.4896   -5.1414    0.0002 H   0  0  0  0  0  0  0  0  0  0  0  0
  -20.1314   -4.5358    1.5377 H   0  0  0  0  0  0  0  0  0  0  0  0
  -18.4275   -5.0116    1.4154 H   0  0  0  0  0  0  0  0  0  0  0  0
  -17.3558   -2.1644   -0.7656 H   0  0  0  0  0  0  0  0  0  0  0  0
  -17.8324   -3.7876   -1.3011 H   0  0  0  0  0  0  0  0  0  0  0  0
  -16.7978   -3.5964    0.1190 H   0  0  0  0  0  0  0  0  0  0  0  0
  -15.9901   -1.9513    3.9255 H   0  0  0  0  0  0  0  0  0  0  0  0
  -16.1742   -2.6494    6.2418 H   0  0  0  0  0  0  0  0  0  0  0  0
  -19.1874    0.9055    4.4749 H   0  0  0  0  0  0  0  0  0  0  0  0
  -19.3618    0.2087    6.8584 H   0  0  0  0  0  0  0  0  0  0  0  0
  -16.9217   -2.5936    9.7074 H   0  0  0  0  0  0  0  0  0  0  0  0
  -15.9265   -2.5081    8.3020 H   0  0  0  0  0  0  0  0  0  0  0  0
  1  2  2  0  0  0  0
  2  3  1  0  0  0  0
  2 12  1  0  0  0  0
  3  4  1  0  0  0  0
  4  5  1  0  0  0  0
  4 11  1  0  0  0  0
  4 41  1  1  0  0  0
  5  6  1  0  0  0  0
  5  9  1  0  0  0  0
  5 42  1  6  0  0  0
  6  7  1  0  0  0  0
  6 43  1  0  0  0  0
  6 44  1  0  0  0  0
  7  8  1  0  0  0  0
  7 45  1  0  0  0  0
  7 46  1  0  0  0  0
  8  9  1  0  0  0  0
  9 10  1  0  0  0  0
  9 47  1  6  0  0  0
 10 11  1  0  0  0  0
 11 48  1  0  0  0  0
 11 49  1  0  0  0  0
 12 13  1  0  0  0  0
 12 50  1  0  0  0  0
 13 14  1  0  0  0  0
 13 21  1  0  0  0  0
 13 51  1  1  0  0  0
 14 15  1  0  0  0  0
 14 52  1  0  0  0  0
 14 53  1  0  0  0  0
 15 16  2  0  0  0  0
 15 20  1  0  0  0  0
 16 17  1  0  0  0  0
 16 54  1  0  0  0  0
 17 18  2  0  0  0  0
 17 55  1  0  0  0  0
 18 19  1  0  0  0  0
 18 56  1  0  0  0  0
 19 20  2  0  0  0  0
 19 57  1  0  0  0  0
 20 58  1  0  0  0  0
 21 22  1  0  0  0  0
 21 23  1  0  0  0  0
 21 59  1  6  0  0  0
 22 60  1  0  0  0  0
 23 24  1  0  0  0  0
 23 61  1  0  0  0  0
 23 62  1  0  0  0  0
 24 25  1  0  0  0  0
 24 29  1  0  0  0  0
 25 26  1  0  0  0  0
 25 63  1  0  0  0  0
 25 64  1  0  0  0  0
 26 27  1  0  0  0  0
 26 28  1  0  0  0  0
 26 65  1  0  0  0  0
 27 66  1  0  0  0  0
 27 67  1  0  0  0  0
 27 68  1  0  0  0  0
 28 69  1  0  0  0  0
 28 70  1  0  0  0  0
 28 71  1  0  0  0  0
 29 30  2  0  0  0  0
 29 31  2  0  0  0  0
 29 32  1  0  0  0  0
 32 33  2  0  0  0  0
 32 35  1  0  0  0  0
 33 34  1  0  0  0  0
 33 72  1  0  0  0  0
 34 37  2  0  0  0  0
 34 73  1  0  0  0  0
 35 36  2  0  0  0  0
 35 74  1  0  0  0  0
 36 37  1  0  0  0  0
 36 75  1  0  0  0  0
 37 38  1  0  0  0  0
 38 39  2  0  0  0  0
 38 40  1  0  0  0  0
 40 76  1  0  0  0  0
 40 77  1  0  0  0  0
M  END
$$$$
