G39
 OpenBabel04111919113D

 46 46  0  0  1  0  0  0  0  0999 V2000
   11.4219   24.2918   17.5783 C   0  0  0  0  0  0  0  0  0  0  0  0
   11.5661   23.0671   17.7983 O   0  0  0  0  0  0  0  0  0  0  0  0
   10.8471   25.1883   18.2944 O   0  0  0  0  0  0  0  0  0  0  0  0
   11.8974   24.8560   16.2519 C   0  0  1  0  0  0  0  0  0  0  0  0
   12.1104   26.3442   15.9631 C   0  0  0  0  0  0  0  0  0  0  0  0
   13.4459   26.6472   15.3189 C   0  0  1  0  0  0  0  0  0  0  0  0
   13.6069   25.7565   14.1029 C   0  0  1  0  0  0  0  0  0  0  0  0
   14.6484   26.2962   13.2311 N   0  0  0  0  0  0  0  0  0  0  0  0
   14.3877   26.3261   11.8822 C   0  0  0  0  0  0  0  0  0  0  0  0
   13.3465   26.0766   11.3649 O   0  0  0  0  0  0  0  0  0  0  0  0
   15.5578   26.9002   11.1366 C   0  0  0  0  0  0  0  0  0  0  0  0
   13.8089   24.3255   14.5625 C   0  0  1  0  0  0  0  0  0  0  0  0
   12.6264   23.8612   15.3803 C   0  0  0  0  0  0  0  0  0  0  0  0
   13.8089   23.4949   13.4067 O   0  0  0  0  0  0  0  0  0  0  0  0
   14.9009   22.5894   13.3897 C   0  0  0  0  0  0  0  0  0  0  0  0
   14.7029   21.5637   14.4972 C   0  0  0  0  0  0  0  0  0  0  0  0
   14.9277   21.9172   12.0254 C   0  0  0  0  0  0  0  0  0  0  0  0
   14.9076   22.9203   10.8958 C   0  0  0  0  0  0  0  0  0  0  0  0
   15.8075   20.5480   14.5786 C   0  0  0  0  0  0  0  0  0  0  0  0
   13.5164   28.0530   14.7977 N   0  3  0  0  0  0  0  0  0  0  0  0
   10.9182   24.7602   15.7742 H   0  0  0  0  0  0  0  0  0  0  0  0
   11.9608   26.9416   16.8612 H   0  0  0  0  0  0  0  0  0  0  0  0
   11.3096   26.6284   15.2578 H   0  0  0  0  0  0  0  0  0  0  0  0
   14.2764   26.5442   16.0229 H   0  0  0  0  0  0  0  0  0  0  0  0
   12.6736   25.7812   13.5260 H   0  0  0  0  0  0  0  0  0  0  0  0
   15.5742   26.5090   13.5774 H   0  0  0  0  0  0  0  0  0  0  0  0
   15.2717   26.9794   10.0883 H   0  0  0  0  0  0  0  0  0  0  0  0
   16.3959   26.2136   11.2627 H   0  0  0  0  0  0  0  0  0  0  0  0
   15.8081   27.8931   11.5293 H   0  0  0  0  0  0  0  0  0  0  0  0
   14.7431   24.2421   15.1351 H   0  0  0  0  0  0  0  0  0  0  0  0
   11.8663   23.5223   14.6716 H   0  0  0  0  0  0  0  0  0  0  0  0
   12.9171   22.9965   15.9727 H   0  0  0  0  0  0  0  0  0  0  0  0
   15.8146   23.1788   13.5257 H   0  0  0  0  0  0  0  0  0  0  0  0
   13.7443   21.0561   14.3413 H   0  0  0  0  0  0  0  0  0  0  0  0
   14.6481   22.0621   15.4653 H   0  0  0  0  0  0  0  0  0  0  0  0
   14.0540   21.2634   11.9225 H   0  0  0  0  0  0  0  0  0  0  0  0
   15.8308   21.3087   11.9306 H   0  0  0  0  0  0  0  0  0  0  0  0
   14.9249   22.4013    9.9351 H   0  0  0  0  0  0  0  0  0  0  0  0
   15.7778   23.5798   10.9594 H   0  0  0  0  0  0  0  0  0  0  0  0
   13.9977   23.5270   10.9383 H   0  0  0  0  0  0  0  0  0  0  0  0
   15.5915   19.8507   15.3899 H   0  0  0  0  0  0  0  0  0  0  0  0
   16.7601   21.0476   14.7748 H   0  0  0  0  0  0  0  0  0  0  0  0
   15.8753   19.9828   13.6482 H   0  0  0  0  0  0  0  0  0  0  0  0
   14.4271   28.2120   14.3648 H   0  0  0  0  0  0  0  0  0  0  0  0
   12.8278   28.1726   14.0433 H   0  0  0  0  0  0  0  0  0  0  0  0
   13.3566   28.7437   15.5372 H   0  0  0  0  0  0  0  0  0  0  0  0
  1  2  2  0  0  0  0
  1  3  1  0  0  0  0
  1  4  1  0  0  0  0
  4  5  1  0  0  0  0
  4 13  1  0  0  0  0
  4 21  1  6  0  0  0
  5  6  1  0  0  0  0
  5 22  1  0  0  0  0
  5 23  1  0  0  0  0
  6  7  1  0  0  0  0
  6 20  1  0  0  0  0
  6 24  1  1  0  0  0
  7  8  1  0  0  0  0
  7 12  1  0  0  0  0
  7 25  1  6  0  0  0
  8  9  1  0  0  0  0
  8 26  1  0  0  0  0
  9 10  2  0  0  0  0
  9 11  1  0  0  0  0
 11 27  1  0  0  0  0
 11 28  1  0  0  0  0
 11 29  1  0  0  0  0
 12 13  1  0  0  0  0
 12 14  1  0  0  0  0
 12 30  1  1  0  0  0
 13 31  1  0  0  0  0
 13 32  1  0  0  0  0
 14 15  1  0  0  0  0
 15 16  1  0  0  0  0
 15 17  1  0  0  0  0
 15 33  1  0  0  0  0
 16 19  1  0  0  0  0
 16 34  1  0  0  0  0
 16 35  1  0  0  0  0
 17 18  1  0  0  0  0
 17 36  1  0  0  0  0
 17 37  1  0  0  0  0
 18 38  1  0  0  0  0
 18 39  1  0  0  0  0
 18 40  1  0  0  0  0
 19 41  1  0  0  0  0
 19 42  1  0  0  0  0
 19 43  1  0  0  0  0
 20 44  1  0  0  0  0
 20 45  1  0  0  0  0
 20 46  1  0  0  0  0
M  CHG  1  20   1
M  END
$$$$
