G39
 OpenBabel04111918213D

 44 44  0  0  1  0  0  0  0  0999 V2000
  -22.8165   90.8557   11.1589 C   0  0  0  0  0  0  0  0  0  0  0  0
  -24.0675   90.6229   11.2714 O   0  0  0  0  0  0  0  0  0  0  0  0
  -22.1575   91.2235   10.1698 O   0  0  0  0  0  0  0  0  0  0  0  0
  -21.9908   90.5696   12.4455 C   0  0  0  0  0  0  0  0  0  0  0  0
  -22.6685   90.0059   13.6553 C   0  0  0  0  0  0  0  0  0  0  0  0
  -21.6568   89.2520   14.5047 C   0  0  1  0  0  0  0  0  0  0  0  0
  -20.4085   90.0924   14.8041 C   0  0  1  0  0  0  0  0  0  0  0  0
  -19.5136   89.3277   15.7054 N   0  0  0  0  0  0  0  0  0  0  0  0
  -18.9993   89.8096   16.8683 C   0  0  0  0  0  0  0  0  0  0  0  0
  -19.3309   90.8863   17.3616 O   0  0  0  0  0  0  0  0  0  0  0  0
  -18.0805   88.8703   17.5734 C   0  0  0  0  0  0  0  0  0  0  0  0
  -19.6985   90.3974   13.4820 C   0  0  1  0  0  0  0  0  0  0  0  0
  -20.6664   90.7871   12.4098 C   0  0  0  0  0  0  0  0  0  0  0  0
  -18.7728   91.4358   13.7354 O   0  0  0  0  0  0  0  0  0  0  0  0
  -17.4258   91.1504   13.3534 C   0  0  0  0  0  0  0  0  0  0  0  0
  -17.1867   91.4509   11.8724 C   0  0  0  0  0  0  0  0  0  0  0  0
  -16.4803   91.9874   14.2223 C   0  0  0  0  0  0  0  0  0  0  0  0
  -17.1084   93.2776   14.7054 C   0  0  0  0  0  0  0  0  0  0  0  0
  -17.8293   92.7513   11.4479 C   0  0  0  0  0  0  0  0  0  0  0  0
  -22.2948   88.8633   15.7940 N   0  3  0  0  0  0  0  0  0  0  0  0
  -23.4745   89.3220   13.3724 H   0  0  0  0  0  0  0  0  0  0  0  0
  -23.0980   90.8262   14.2429 H   0  0  0  0  0  0  0  0  0  0  0  0
  -21.3650   88.3089   14.0223 H   0  0  0  0  0  0  0  0  0  0  0  0
  -20.7093   91.0246   15.3070 H   0  0  0  0  0  0  0  0  0  0  0  0
  -19.1303   88.4643   15.3389 H   0  0  0  0  0  0  0  0  0  0  0  0
  -17.7784   89.3204   18.5219 H   0  0  0  0  0  0  0  0  0  0  0  0
  -17.1967   88.6989   16.9535 H   0  0  0  0  0  0  0  0  0  0  0  0
  -18.5910   87.9211   17.7723 H   0  0  0  0  0  0  0  0  0  0  0  0
  -19.1726   89.4915   13.1652 H   0  0  0  0  0  0  0  0  0  0  0  0
  -20.2613   91.2550   11.5176 H   0  0  0  0  0  0  0  0  0  0  0  0
  -17.1995   90.0918   13.5363 H   0  0  0  0  0  0  0  0  0  0  0  0
  -17.6053   90.6380   11.2698 H   0  0  0  0  0  0  0  0  0  0  0  0
  -16.1093   91.5001   11.6672 H   0  0  0  0  0  0  0  0  0  0  0  0
  -15.5642   92.2211   13.6639 H   0  0  0  0  0  0  0  0  0  0  0  0
  -16.1934   91.3969   15.1016 H   0  0  0  0  0  0  0  0  0  0  0  0
  -16.4018   93.8389   15.3185 H   0  0  0  0  0  0  0  0  0  0  0  0
  -18.0044   93.0704   15.2951 H   0  0  0  0  0  0  0  0  0  0  0  0
  -17.3948   93.9070   13.8653 H   0  0  0  0  0  0  0  0  0  0  0  0
  -17.6552   92.9422   10.3899 H   0  0  0  0  0  0  0  0  0  0  0  0
  -17.4143   93.5857   12.0071 H   0  0  0  0  0  0  0  0  0  0  0  0
  -18.9027   92.7291   11.6268 H   0  0  0  0  0  0  0  0  0  0  0  0
  -21.6245   88.3644   16.3878 H   0  0  0  0  0  0  0  0  0  0  0  0
  -22.5928   89.7111   16.2953 H   0  0  0  0  0  0  0  0  0  0  0  0
  -23.1148   88.2741   15.6176 H   0  0  0  0  0  0  0  0  0  0  0  0
  1  2  2  0  0  0  0
  1  3  1  0  0  0  0
  1  4  1  0  0  0  0
  4  5  1  0  0  0  0
  4 13  2  0  0  0  0
  5  6  1  0  0  0  0
  5 21  1  0  0  0  0
  5 22  1  0  0  0  0
  6  7  1  0  0  0  0
  6 20  1  0  0  0  0
  6 23  1  6  0  0  0
  7  8  1  0  0  0  0
  7 12  1  0  0  0  0
  7 24  1  1  0  0  0
  8  9  1  0  0  0  0
  8 25  1  0  0  0  0
  9 10  2  0  0  0  0
  9 11  1  0  0  0  0
 11 26  1  0  0  0  0
 11 27  1  0  0  0  0
 11 28  1  0  0  0  0
 12 13  1  0  0  0  0
 12 14  1  0  0  0  0
 12 29  1  6  0  0  0
 13 30  1  0  0  0  0
 14 15  1  0  0  0  0
 15 16  1  0  0  0  0
 15 17  1  0  0  0  0
 15 31  1  0  0  0  0
 16 19  1  0  0  0  0
 16 32  1  0  0  0  0
 16 33  1  0  0  0  0
 17 18  1  0  0  0  0
 17 34  1  0  0  0  0
 17 35  1  0  0  0  0
 18 36  1  0  0  0  0
 18 37  1  0  0  0  0
 18 38  1  0  0  0  0
 19 39  1  0  0  0  0
 19 40  1  0  0  0  0
 19 41  1  0  0  0  0
 20 42  1  0  0  0  0
 20 43  1  0  0  0  0
 20 44  1  0  0  0  0
M  CHG  1  20   1
M  END
$$$$
