G3R
 OpenBabel04111918263D

 47 51  0  0  0  0  0  0  0  0999 V2000
    4.7206    6.4680   32.0478 O   0  0  0  0  0  0  0  0  0  0  0  0
    5.0809    6.3141   30.6802 C   0  0  0  0  0  0  0  0  0  0  0  0
    4.4641    7.4386   29.8623 C   0  0  0  0  0  0  0  0  0  0  0  0
    3.0138    7.3224   29.7392 N   0  0  0  0  0  0  0  0  0  0  0  0
    2.3273    8.0834   28.8108 C   0  0  0  0  0  0  0  0  0  0  0  0
    0.9767    8.3932   29.0098 C   0  0  0  0  0  0  0  0  0  0  0  0
    0.2784    9.2067   28.1142 C   0  0  0  0  0  0  0  0  0  0  0  0
    2.9689    8.6233   27.6940 C   0  0  0  0  0  0  0  0  0  0  0  0
    2.3034    9.4018   26.7618 C   0  0  0  0  0  0  0  0  0  0  0  0
    0.9446    9.7033   26.9909 C   0  0  0  0  0  0  0  0  0  0  0  0
    2.9793    9.8209   25.6930 N   0  0  0  0  0  0  0  0  0  0  0  0
    2.3969   10.5771   24.7547 C   0  0  0  0  0  0  0  0  0  0  0  0
    0.9953   10.9453   24.9472 N   0  3  0  0  0  0  0  0  0  0  0  0
    0.2306   11.6944   24.1374 N   0  0  0  0  0  0  0  0  0  0  0  0
    0.3419   10.4958   26.0306 C   0  0  0  0  0  0  0  0  0  0  0  0
   -0.8910   10.9639   25.9177 N   0  3  0  0  0  0  0  0  0  0  0  0
   -0.8930   11.7021   24.7633 C   0  0  0  0  0  0  0  0  0  0  0  0
   -1.9817   12.3139   24.2856 N   0  0  0  0  0  0  0  0  0  0  0  0
    3.1444   11.1047   23.5900 C   0  0  0  0  0  0  0  0  0  0  0  0
    4.0348   12.2583   23.9662 C   0  0  0  0  0  0  0  0  0  0  0  0
    3.4863   13.4331   24.5097 C   0  0  0  0  0  0  0  0  0  0  0  0
    4.3409   14.4718   24.8277 C   0  0  0  0  0  0  0  0  0  0  0  0
    3.9731   15.6732   25.3628 O   0  0  0  0  0  0  0  0  0  0  0  0
    5.2564   16.3159   25.5562 C   0  0  0  0  0  0  0  0  0  0  0  0
    6.3374   15.5262   24.9998 O   0  0  0  0  0  0  0  0  0  0  0  0
    5.6957   14.3812   24.6203 C   0  0  0  0  0  0  0  0  0  0  0  0
    6.2719   13.2330   24.0881 C   0  0  0  0  0  0  0  0  0  0  0  0
    5.4257   12.1623   23.7652 C   0  0  0  0  0  0  0  0  0  0  0  0
    5.0409    7.3425   32.3433 H   0  0  0  0  0  0  0  0  0  0  0  0
    4.7298    5.3393   30.3265 H   0  0  0  0  0  0  0  0  0  0  0  0
    6.1750    6.3413   30.5937 H   0  0  0  0  0  0  0  0  0  0  0  0
    4.9381    7.4073   28.8791 H   0  0  0  0  0  0  0  0  0  0  0  0
    4.6990    8.3954   30.3421 H   0  0  0  0  0  0  0  0  0  0  0  0
    2.5185    6.6724   30.3468 H   0  0  0  0  0  0  0  0  0  0  0  0
    0.4567    7.9912   29.8775 H   0  0  0  0  0  0  0  0  0  0  0  0
   -0.7664    9.4399   28.2922 H   0  0  0  0  0  0  0  0  0  0  0  0
    4.0182    8.3925   27.5081 H   0  0  0  0  0  0  0  0  0  0  0  0
   -1.9629   12.8396   23.4198 H   0  0  0  0  0  0  0  0  0  0  0  0
   -2.8764   12.3293   24.7614 H   0  0  0  0  0  0  0  0  0  0  0  0
    2.4501   11.4243   22.8030 H   0  0  0  0  0  0  0  0  0  0  0  0
    3.7283   10.2700   23.1951 H   0  0  0  0  0  0  0  0  0  0  0  0
    2.4180   13.5229   24.6787 H   0  0  0  0  0  0  0  0  0  0  0  0
    5.4267   16.4762   26.6362 H   0  0  0  0  0  0  0  0  0  0  0  0
    5.2433   17.3209   25.0995 H   0  0  0  0  0  0  0  0  0  0  0  0
    7.3447   13.1484   23.9226 H   0  0  0  0  0  0  0  0  0  0  0  0
    5.8459   11.2429   23.3538 H   0  0  0  0  0  0  0  0  0  0  0  0
   -1.6739   10.8283   26.5516 H   0  0  0  0  0  0  0  0  0  0  0  0
  1  2  1  0  0  0  0
  1 29  1  0  0  0  0
  2  3  1  0  0  0  0
  2 30  1  0  0  0  0
  2 31  1  0  0  0  0
  3  4  1  0  0  0  0
  3 32  1  0  0  0  0
  3 33  1  0  0  0  0
  4  5  1  0  0  0  0
  4 34  1  0  0  0  0
  5  6  2  0  0  0  0
  5  8  1  0  0  0  0
  6  7  1  0  0  0  0
  6 35  1  0  0  0  0
  7 10  2  0  0  0  0
  7 36  1  0  0  0  0
  8  9  2  0  0  0  0
  8 37  1  0  0  0  0
  9 10  1  0  0  0  0
  9 11  1  0  0  0  0
 10 15  1  0  0  0  0
 11 12  2  0  0  0  0
 12 13  1  0  0  0  0
 12 19  1  0  0  0  0
 13 14  1  0  0  0  0
 13 15  2  0  0  0  0
 14 17  1  0  0  0  0
 15 16  1  0  0  0  0
 16 17  2  0  0  0  0
 16 47  1  0  0  0  0
 17 18  1  0  0  0  0
 18 38  1  0  0  0  0
 18 39  1  0  0  0  0
 19 20  1  0  0  0  0
 19 40  1  0  0  0  0
 19 41  1  0  0  0  0
 20 21  2  0  0  0  0
 20 28  1  0  0  0  0
 21 22  1  0  0  0  0
 21 42  1  0  0  0  0
 22 23  1  0  0  0  0
 22 26  2  0  0  0  0
 23 24  1  0  0  0  0
 24 25  1  0  0  0  0
 24 43  1  0  0  0  0
 24 44  1  0  0  0  0
 25 26  1  0  0  0  0
 26 27  1  0  0  0  0
 27 28  2  0  0  0  0
 27 45  1  0  0  0  0
 28 46  1  0  0  0  0
M  CHG  2  13   1  16   1
M  END
$$$$
