G52
 OpenBabel04111919143D

 82 86  0  0  1  0  0  0  0  0999 V2000
   17.3384  -25.0332  -20.1831 C   0  0  0  0  0  0  0  0  0  0  0  0
   16.6624  -24.1071  -20.9642 C   0  0  0  0  0  0  0  0  0  0  0  0
   15.6112  -23.3787  -20.4204 C   0  0  0  0  0  0  0  0  0  0  0  0
   15.2236  -23.5855  -19.1009 C   0  0  0  0  0  0  0  0  0  0  0  0
   15.8524  -24.5638  -18.3381 C   0  0  0  0  0  0  0  0  0  0  0  0
   16.9114  -25.2820  -18.8757 C   0  0  0  0  0  0  0  0  0  0  0  0
   13.8248  -22.6889  -18.4593 S   0  0  0  0  0  0  0  0  0  0  0  0
   12.9646  -22.3488  -19.5680 O   0  0  0  0  0  0  0  0  0  0  0  0
   13.3249  -23.3824  -17.2908 O   0  0  0  0  0  0  0  0  0  0  0  0
   14.5006  -21.2596  -17.9139 N   0  0  0  0  0  0  0  0  0  0  0  0
   15.5732  -21.3746  -16.9229 C   0  0  0  0  0  0  0  0  0  0  0  0
   15.4149  -20.3784  -15.7860 C   0  0  0  0  0  0  0  0  0  0  0  0
   14.0819  -20.5646  -15.0815 C   0  0  0  0  0  0  0  0  0  0  0  0
   16.5140  -20.6008  -14.7606 C   0  0  0  0  0  0  0  0  0  0  0  0
   14.6311  -20.1771  -18.8776 C   0  0  0  0  0  0  0  0  0  0  0  0
   13.7562  -18.9986  -18.4602 C   0  0  1  0  0  0  0  0  0  0  0  0
   14.2620  -17.8294  -19.1214 O   0  0  0  0  0  0  0  0  0  0  0  0
   12.2533  -19.2319  -18.7355 C   0  0  1  0  0  0  0  0  0  0  0  0
   11.4550  -18.1813  -18.1132 N   0  0  0  0  0  0  0  0  0  0  0  0
   10.6613  -18.3426  -17.0217 C   0  0  0  0  0  0  0  0  0  0  0  0
   10.5205  -19.3312  -16.3796 O   0  0  0  0  0  0  0  0  0  0  0  0
   10.0356  -17.1501  -16.7968 O   0  0  0  0  0  0  0  0  0  0  0  0
    9.0355  -17.1736  -15.7546 C   0  0  1  0  0  0  0  0  0  0  0  0
    9.2821  -15.9622  -14.8834 C   0  0  0  0  0  0  0  0  0  0  0  0
    8.6546  -14.8501  -15.5555 O   0  0  0  0  0  0  0  0  0  0  0  0
    7.6840  -15.3620  -16.4801 C   0  0  1  0  0  0  0  0  0  0  0  0
    8.0291  -15.0570  -17.8378 O   0  0  0  0  0  0  0  0  0  0  0  0
    7.9000  -16.2391  -18.6460 C   0  0  1  0  0  0  0  0  0  0  0  0
    7.4422  -17.3729  -17.7469 C   0  0  1  0  0  0  0  0  0  0  0  0
    7.6596  -16.8715  -16.3406 C   0  0  1  0  0  0  0  0  0  0  0  0
   11.8935  -19.2573  -20.2219 C   0  0  0  0  0  0  0  0  0  0  0  0
    9.5659  -18.6417  -20.9684 C   0  0  0  0  0  0  0  0  0  0  0  0
    8.2118  -18.9529  -21.0885 C   0  0  0  0  0  0  0  0  0  0  0  0
    7.7080  -20.1628  -20.6138 C   0  0  0  0  0  0  0  0  0  0  0  0
    8.5815  -21.1126  -20.1117 C   0  0  0  0  0  0  0  0  0  0  0  0
    9.9338  -20.8137  -20.0110 C   0  0  0  0  0  0  0  0  0  0  0  0
   10.4366  -19.5744  -20.4168 C   0  0  0  0  0  0  0  0  0  0  0  0
   18.3997  -25.6568  -20.7796 O   0  0  0  0  0  0  0  0  0  0  0  0
   19.0818  -26.5286  -19.8883 C   0  0  0  0  0  0  0  0  0  0  0  0
    6.8567  -16.0566  -19.6182 O   0  0  0  0  0  0  0  0  0  0  0  0
    5.6492  -16.3161  -18.9008 C   0  0  0  0  0  0  0  0  0  0  0  0
    5.9785  -17.5627  -18.1160 C   0  0  0  0  0  0  0  0  0  0  0  0
   16.9446  -23.9517  -21.9984 H   0  0  0  0  0  0  0  0  0  0  0  0
   15.0746  -22.6655  -21.0261 H   0  0  0  0  0  0  0  0  0  0  0  0
   15.5088  -24.7758  -17.3330 H   0  0  0  0  0  0  0  0  0  0  0  0
   17.3866  -26.0419  -18.2643 H   0  0  0  0  0  0  0  0  0  0  0  0
   16.5279  -21.2152  -17.4298 H   0  0  0  0  0  0  0  0  0  0  0  0
   15.5548  -22.3869  -16.5137 H   0  0  0  0  0  0  0  0  0  0  0  0
   15.4820  -19.3570  -16.1742 H   0  0  0  0  0  0  0  0  0  0  0  0
   13.9949  -19.8471  -14.2609 H   0  0  0  0  0  0  0  0  0  0  0  0
   14.0179  -21.5796  -14.6752 H   0  0  0  0  0  0  0  0  0  0  0  0
   13.2570  -20.4089  -15.7775 H   0  0  0  0  0  0  0  0  0  0  0  0
   17.4959  -20.4765  -15.2223 H   0  0  0  0  0  0  0  0  0  0  0  0
   16.4447  -21.6153  -14.3464 H   0  0  0  0  0  0  0  0  0  0  0  0
   16.4142  -19.8851  -13.9375 H   0  0  0  0  0  0  0  0  0  0  0  0
   14.3325  -20.5187  -19.8670 H   0  0  0  0  0  0  0  0  0  0  0  0
   15.6726  -19.8603  -18.9474 H   0  0  0  0  0  0  0  0  0  0  0  0
   13.8643  -18.8265  -17.3878 H   0  0  0  0  0  0  0  0  0  0  0  0
   14.2305  -17.9920  -20.0789 H   0  0  0  0  0  0  0  0  0  0  0  0
   11.9981  -20.1885  -18.2816 H   0  0  0  0  0  0  0  0  0  0  0  0
   11.4566  -17.2816  -18.5500 H   0  0  0  0  0  0  0  0  0  0  0  0
    9.0632  -18.1148  -15.1939 H   0  0  0  0  0  0  0  0  0  0  0  0
   10.3494  -15.7540  -14.7549 H   0  0  0  0  0  0  0  0  0  0  0  0
    8.8155  -16.0791  -13.8986 H   0  0  0  0  0  0  0  0  0  0  0  0
    6.7045  -14.9142  -16.2534 H   0  0  0  0  0  0  0  0  0  0  0  0
    8.8515  -16.4496  -19.1466 H   0  0  0  0  0  0  0  0  0  0  0  0
    7.9974  -18.2942  -17.9145 H   0  0  0  0  0  0  0  0  0  0  0  0
    6.8706  -17.2017  -15.6491 H   0  0  0  0  0  0  0  0  0  0  0  0
   12.4846  -20.0132  -20.7358 H   0  0  0  0  0  0  0  0  0  0  0  0
   12.1064  -18.2812  -20.6721 H   0  0  0  0  0  0  0  0  0  0  0  0
    9.9293  -17.6678  -21.2917 H   0  0  0  0  0  0  0  0  0  0  0  0
    7.5468  -18.2420  -21.5589 H   0  0  0  0  0  0  0  0  0  0  0  0
    6.6423  -20.3624  -20.6399 H   0  0  0  0  0  0  0  0  0  0  0  0
    8.2287  -22.0898  -19.8029 H   0  0  0  0  0  0  0  0  0  0  0  0
   10.6069  -21.5544  -19.5883 H   0  0  0  0  0  0  0  0  0  0  0  0
   19.9102  -26.9962  -20.4135 H   0  0  0  0  0  0  0  0  0  0  0  0
   18.3990  -27.3123  -19.5410 H   0  0  0  0  0  0  0  0  0  0  0  0
   19.4722  -25.9589  -19.0364 H   0  0  0  0  0  0  0  0  0  0  0  0
    4.8002  -16.4479  -19.5723 H   0  0  0  0  0  0  0  0  0  0  0  0
    5.4418  -15.4703  -18.2297 H   0  0  0  0  0  0  0  0  0  0  0  0
    5.3347  -17.6786  -17.2452 H   0  0  0  0  0  0  0  0  0  0  0  0
    5.8660  -18.4471  -18.7590 H   0  0  0  0  0  0  0  0  0  0  0  0
  1  2  2  0  0  0  0
  1  6  1  0  0  0  0
  1 38  1  0  0  0  0
  2  3  1  0  0  0  0
  2 43  1  0  0  0  0
  3  4  2  0  0  0  0
  3 44  1  0  0  0  0
  4  5  1  0  0  0  0
  4  7  1  0  0  0  0
  5  6  2  0  0  0  0
  5 45  1  0  0  0  0
  6 46  1  0  0  0  0
  7  8  2  0  0  0  0
  7  9  2  0  0  0  0
  7 10  1  0  0  0  0
 10 11  1  0  0  0  0
 10 15  1  0  0  0  0
 11 12  1  0  0  0  0
 11 47  1  0  0  0  0
 11 48  1  0  0  0  0
 12 13  1  0  0  0  0
 12 14  1  0  0  0  0
 12 49  1  0  0  0  0
 13 50  1  0  0  0  0
 13 51  1  0  0  0  0
 13 52  1  0  0  0  0
 14 53  1  0  0  0  0
 14 54  1  0  0  0  0
 14 55  1  0  0  0  0
 15 16  1  0  0  0  0
 15 56  1  0  0  0  0
 15 57  1  0  0  0  0
 16 17  1  0  0  0  0
 16 18  1  0  0  0  0
 16 58  1  1  0  0  0
 17 59  1  0  0  0  0
 18 19  1  0  0  0  0
 18 31  1  0  0  0  0
 18 60  1  1  0  0  0
 19 20  1  0  0  0  0
 19 61  1  0  0  0  0
 20 21  2  0  0  0  0
 20 22  1  0  0  0  0
 22 23  1  0  0  0  0
 23 24  1  0  0  0  0
 23 30  1  0  0  0  0
 23 62  1  1  0  0  0
 24 25  1  0  0  0  0
 24 63  1  0  0  0  0
 24 64  1  0  0  0  0
 25 26  1  0  0  0  0
 26 27  1  0  0  0  0
 26 30  1  0  0  0  0
 26 65  1  1  0  0  0
 27 28  1  0  0  0  0
 28 29  1  0  0  0  0
 28 40  1  0  0  0  0
 28 66  1  6  0  0  0
 29 30  1  0  0  0  0
 29 42  1  0  0  0  0
 29 67  1  6  0  0  0
 30 68  1  1  0  0  0
 31 37  1  0  0  0  0
 31 69  1  0  0  0  0
 31 70  1  0  0  0  0
 32 33  2  0  0  0  0
 32 37  1  0  0  0  0
 32 71  1  0  0  0  0
 33 34  1  0  0  0  0
 33 72  1  0  0  0  0
 34 35  2  0  0  0  0
 34 73  1  0  0  0  0
 35 36  1  0  0  0  0
 35 74  1  0  0  0  0
 36 37  2  0  0  0  0
 36 75  1  0  0  0  0
 38 39  1  0  0  0  0
 39 76  1  0  0  0  0
 39 77  1  0  0  0  0
 39 78  1  0  0  0  0
 40 41  1  0  0  0  0
 41 42  1  0  0  0  0
 41 79  1  0  0  0  0
 41 80  1  0  0  0  0
 42 81  1  0  0  0  0
 42 82  1  0  0  0  0
M  END
$$$$
