G52
 OpenBabel04111919153D

 82 86  0  0  1  0  0  0  0  0999 V2000
  -17.1637  -25.0108   20.0693 C   0  0  0  0  0  0  0  0  0  0  0  0
  -16.4384  -24.1390   20.8824 C   0  0  0  0  0  0  0  0  0  0  0  0
  -15.3534  -23.4162   20.3836 C   0  0  0  0  0  0  0  0  0  0  0  0
  -14.9803  -23.5784   19.0581 C   0  0  0  0  0  0  0  0  0  0  0  0
  -15.6618  -24.4995   18.2552 C   0  0  0  0  0  0  0  0  0  0  0  0
  -16.7457  -25.2227   18.7600 C   0  0  0  0  0  0  0  0  0  0  0  0
  -13.5678  -22.6861   18.4071 S   0  0  0  0  0  0  0  0  0  0  0  0
  -12.7285  -22.2989   19.5154 O   0  0  0  0  0  0  0  0  0  0  0  0
  -13.0307  -23.4209   17.2858 O   0  0  0  0  0  0  0  0  0  0  0  0
  -14.2523  -21.2630   17.7987 N   0  0  0  0  0  0  0  0  0  0  0  0
  -15.3613  -21.4149   16.8411 C   0  0  0  0  0  0  0  0  0  0  0  0
  -15.2981  -20.4425   15.6646 C   0  0  0  0  0  0  0  0  0  0  0  0
  -13.9693  -20.5071   14.9240 C   0  0  0  0  0  0  0  0  0  0  0  0
  -16.3939  -20.7997   14.6636 C   0  0  0  0  0  0  0  0  0  0  0  0
  -14.4343  -20.1939   18.7830 C   0  0  0  0  0  0  0  0  0  0  0  0
  -13.5901  -18.9957   18.3701 C   0  0  1  0  0  0  0  0  0  0  0  0
  -14.0644  -17.8092   19.0185 O   0  0  0  0  0  0  0  0  0  0  0  0
  -12.0847  -19.2384   18.6028 C   0  0  1  0  0  0  0  0  0  0  0  0
  -11.3218  -18.1638   17.9610 N   0  0  0  0  0  0  0  0  0  0  0  0
  -10.5214  -18.3011   16.8700 C   0  0  0  0  0  0  0  0  0  0  0  0
  -10.3538  -19.2857   16.2272 O   0  0  0  0  0  0  0  0  0  0  0  0
   -9.9029  -17.1046   16.6334 O   0  0  0  0  0  0  0  0  0  0  0  0
   -8.9236  -17.1330   15.5649 C   0  0  1  0  0  0  0  0  0  0  0  0
   -9.1684  -15.9090   14.7111 C   0  0  0  0  0  0  0  0  0  0  0  0
   -8.4956  -14.8171   15.3623 O   0  0  0  0  0  0  0  0  0  0  0  0
   -7.4763  -15.3552   16.2115 C   0  0  1  0  0  0  0  0  0  0  0  0
   -7.7402  -14.9911   17.5687 O   0  0  0  0  0  0  0  0  0  0  0  0
   -7.7194  -16.1617   18.3946 C   0  0  1  0  0  0  0  0  0  0  0  0
   -7.2837  -17.3283   17.5298 C   0  0  1  0  0  0  0  0  0  0  0  0
   -7.5295  -16.8699   16.1146 C   0  0  1  0  0  0  0  0  0  0  0  0
  -11.7492  -19.2707   20.0991 C   0  0  0  0  0  0  0  0  0  0  0  0
   -9.4462  -18.5297   20.7456 C   0  0  0  0  0  0  0  0  0  0  0  0
   -8.0806  -18.7627   20.8171 C   0  0  0  0  0  0  0  0  0  0  0  0
   -7.5652  -20.0031   20.4451 C   0  0  0  0  0  0  0  0  0  0  0  0
   -8.4187  -21.0542   20.1229 C   0  0  0  0  0  0  0  0  0  0  0  0
   -9.7792  -20.8156   20.0209 C   0  0  0  0  0  0  0  0  0  0  0  0
  -10.2951  -19.5471   20.3080 C   0  0  0  0  0  0  0  0  0  0  0  0
  -18.2295  -25.6305   20.6633 O   0  0  0  0  0  0  0  0  0  0  0  0
  -19.0460  -26.3772   19.7666 C   0  0  0  0  0  0  0  0  0  0  0  0
   -6.7043  -16.0119   19.3989 O   0  0  0  0  0  0  0  0  0  0  0  0
   -5.4795  -16.2429   18.7001 C   0  0  0  0  0  0  0  0  0  0  0  0
   -5.7983  -17.4475   17.8422 C   0  0  0  0  0  0  0  0  0  0  0  0
  -16.6983  -24.0501   21.9295 H   0  0  0  0  0  0  0  0  0  0  0  0
  -14.8152  -22.7303   21.0283 H   0  0  0  0  0  0  0  0  0  0  0  0
  -15.3625  -24.6470   17.2256 H   0  0  0  0  0  0  0  0  0  0  0  0
  -17.2191  -25.9702   18.1333 H   0  0  0  0  0  0  0  0  0  0  0  0
  -16.2958  -21.2625   17.3926 H   0  0  0  0  0  0  0  0  0  0  0  0
  -15.3491  -22.4335   16.4550 H   0  0  0  0  0  0  0  0  0  0  0  0
  -15.4572  -19.4227   16.0344 H   0  0  0  0  0  0  0  0  0  0  0  0
  -13.9743  -19.8004   14.0858 H   0  0  0  0  0  0  0  0  0  0  0  0
  -13.8069  -21.5146   14.5257 H   0  0  0  0  0  0  0  0  0  0  0  0
  -13.1381  -20.2537   15.5838 H   0  0  0  0  0  0  0  0  0  0  0  0
  -17.3795  -20.7749   15.1368 H   0  0  0  0  0  0  0  0  0  0  0  0
  -16.2283  -21.8089   14.2614 H   0  0  0  0  0  0  0  0  0  0  0  0
  -16.3891  -20.0958   13.8241 H   0  0  0  0  0  0  0  0  0  0  0  0
  -14.1355  -20.5427   19.7698 H   0  0  0  0  0  0  0  0  0  0  0  0
  -15.4846  -19.9191   18.8560 H   0  0  0  0  0  0  0  0  0  0  0  0
  -13.7285  -18.8315   17.3020 H   0  0  0  0  0  0  0  0  0  0  0  0
  -14.0100  -17.9280   19.9815 H   0  0  0  0  0  0  0  0  0  0  0  0
  -11.8182  -20.1955   18.1490 H   0  0  0  0  0  0  0  0  0  0  0  0
  -11.3858  -17.2595   18.3748 H   0  0  0  0  0  0  0  0  0  0  0  0
   -8.9777  -18.0600   14.9800 H   0  0  0  0  0  0  0  0  0  0  0  0
  -10.2326  -15.6737   14.6212 H   0  0  0  0  0  0  0  0  0  0  0  0
   -8.7333  -16.0175   13.7122 H   0  0  0  0  0  0  0  0  0  0  0  0
   -6.4941  -14.9514   15.9081 H   0  0  0  0  0  0  0  0  0  0  0  0
   -8.6975  -16.2999   18.8652 H   0  0  0  0  0  0  0  0  0  0  0  0
   -7.8258  -18.2530   17.7494 H   0  0  0  0  0  0  0  0  0  0  0  0
   -6.7727  -17.2552   15.4168 H   0  0  0  0  0  0  0  0  0  0  0  0
  -12.3257  -20.0442   20.6090 H   0  0  0  0  0  0  0  0  0  0  0  0
  -12.0010  -18.3096   20.5623 H   0  0  0  0  0  0  0  0  0  0  0  0
   -9.8449  -17.5540   21.0133 H   0  0  0  0  0  0  0  0  0  0  0  0
   -7.4106  -17.9792   21.1616 H   0  0  0  0  0  0  0  0  0  0  0  0
   -6.4945  -20.1498   20.4069 H   0  0  0  0  0  0  0  0  0  0  0  0
   -8.0242  -22.0514   19.9528 H   0  0  0  0  0  0  0  0  0  0  0  0
  -10.4441  -21.6163   19.7060 H   0  0  0  0  0  0  0  0  0  0  0  0
  -19.8475  -26.8522   20.3367 H   0  0  0  0  0  0  0  0  0  0  0  0
  -18.4606  -27.1628   19.2802 H   0  0  0  0  0  0  0  0  0  0  0  0
  -19.4872  -25.7106   19.0183 H   0  0  0  0  0  0  0  0  0  0  0  0
   -4.6508  -16.4148   19.3906 H   0  0  0  0  0  0  0  0  0  0  0  0
   -5.2437  -15.3593   18.0874 H   0  0  0  0  0  0  0  0  0  0  0  0
   -5.1853  -17.4553   16.9428 H   0  0  0  0  0  0  0  0  0  0  0  0
   -5.6037  -18.3600   18.4153 H   0  0  0  0  0  0  0  0  0  0  0  0
  1  2  2  0  0  0  0
  1  6  1  0  0  0  0
  1 38  1  0  0  0  0
  2  3  1  0  0  0  0
  2 43  1  0  0  0  0
  3  4  2  0  0  0  0
  3 44  1  0  0  0  0
  4  5  1  0  0  0  0
  4  7  1  0  0  0  0
  5  6  2  0  0  0  0
  5 45  1  0  0  0  0
  6 46  1  0  0  0  0
  7  8  2  0  0  0  0
  7  9  2  0  0  0  0
  7 10  1  0  0  0  0
 10 11  1  0  0  0  0
 10 15  1  0  0  0  0
 11 12  1  0  0  0  0
 11 47  1  0  0  0  0
 11 48  1  0  0  0  0
 12 13  1  0  0  0  0
 12 14  1  0  0  0  0
 12 49  1  0  0  0  0
 13 50  1  0  0  0  0
 13 51  1  0  0  0  0
 13 52  1  0  0  0  0
 14 53  1  0  0  0  0
 14 54  1  0  0  0  0
 14 55  1  0  0  0  0
 15 16  1  0  0  0  0
 15 56  1  0  0  0  0
 15 57  1  0  0  0  0
 16 17  1  0  0  0  0
 16 18  1  0  0  0  0
 16 58  1  6  0  0  0
 17 59  1  0  0  0  0
 18 19  1  0  0  0  0
 18 31  1  0  0  0  0
 18 60  1  6  0  0  0
 19 20  1  0  0  0  0
 19 61  1  0  0  0  0
 20 21  2  0  0  0  0
 20 22  1  0  0  0  0
 22 23  1  0  0  0  0
 23 24  1  0  0  0  0
 23 30  1  0  0  0  0
 23 62  1  6  0  0  0
 24 25  1  0  0  0  0
 24 63  1  0  0  0  0
 24 64  1  0  0  0  0
 25 26  1  0  0  0  0
 26 27  1  0  0  0  0
 26 30  1  0  0  0  0
 26 65  1  6  0  0  0
 27 28  1  0  0  0  0
 28 29  1  0  0  0  0
 28 40  1  0  0  0  0
 28 66  1  1  0  0  0
 29 30  1  0  0  0  0
 29 42  1  0  0  0  0
 29 67  1  1  0  0  0
 30 68  1  6  0  0  0
 31 37  1  0  0  0  0
 31 69  1  0  0  0  0
 31 70  1  0  0  0  0
 32 33  2  0  0  0  0
 32 37  1  0  0  0  0
 32 71  1  0  0  0  0
 33 34  1  0  0  0  0
 33 72  1  0  0  0  0
 34 35  2  0  0  0  0
 34 73  1  0  0  0  0
 35 36  1  0  0  0  0
 35 74  1  0  0  0  0
 36 37  2  0  0  0  0
 36 75  1  0  0  0  0
 38 39  1  0  0  0  0
 39 76  1  0  0  0  0
 39 77  1  0  0  0  0
 39 78  1  0  0  0  0
 40 41  1  0  0  0  0
 41 42  1  0  0  0  0
 41 79  1  0  0  0  0
 41 80  1  0  0  0  0
 42 81  1  0  0  0  0
 42 82  1  0  0  0  0
M  END
$$$$
