G61
 OpenBabel04111922583D

 91 93  0  0  1  0  0  0  0  0999 V2000
   10.8966   17.7684   20.8145 O   0  0  0  0  0  0  0  0  0  0  0  0
   10.1763   17.1385   19.7499 C   0  0  0  0  0  0  0  0  0  0  0  0
   12.0176   18.4024   20.3387 C   0  0  0  0  0  0  0  0  0  0  0  0
   12.5287   18.1458   19.0643 C   0  0  0  0  0  0  0  0  0  0  0  0
   13.6806   18.7694   18.6158 C   0  0  0  0  0  0  0  0  0  0  0  0
   14.2650   19.7640   19.3911 C   0  0  0  0  0  0  0  0  0  0  0  0
   13.7655   20.0340   20.6627 C   0  0  0  0  0  0  0  0  0  0  0  0
   12.6708   19.3172   21.1622 C   0  0  0  0  0  0  0  0  0  0  0  0
   15.6490   20.6684   18.7514 S   0  0  0  0  0  0  0  0  0  0  0  0
   16.5186   21.0508   19.8680 O   0  0  0  0  0  0  0  0  0  0  0  0
   16.1969   19.9671   17.6273 O   0  0  0  0  0  0  0  0  0  0  0  0
   14.9866   22.0708   18.1506 N   0  0  0  0  0  0  0  0  0  0  0  0
   13.8901   21.9935   17.1783 C   0  0  0  0  0  0  0  0  0  0  0  0
   14.1095   22.9516   16.0070 C   0  0  0  0  0  0  0  0  0  0  0  0
   15.5386   22.8362   15.4891 C   0  0  0  0  0  0  0  0  0  0  0  0
   13.1485   22.6262   14.8740 C   0  0  0  0  0  0  0  0  0  0  0  0
   14.9618   23.2145   19.0413 C   0  0  0  0  0  0  0  0  0  0  0  0
   15.8524   24.3192   18.4953 C   0  0  1  0  0  0  0  0  0  0  0  0
   15.3470   25.5727   18.9556 O   0  0  0  0  0  0  0  0  0  0  0  0
   17.3388   24.1086   18.8566 C   0  0  1  0  0  0  0  0  0  0  0  0
   18.1661   25.1577   18.2562 N   0  0  0  0  0  0  0  0  0  0  0  0
   18.6291   25.0188   16.9751 C   0  0  0  0  0  0  0  0  0  0  0  0
   18.4780   24.0299   16.3453 O   0  0  0  0  0  0  0  0  0  0  0  0
   19.2327   26.1893   16.5557 O   0  0  0  0  0  0  0  0  0  0  0  0
   19.7286   26.2235   15.1746 C   0  0  0  0  0  0  0  0  0  0  0  0
   20.2121   27.6476   14.8649 C   0  0  0  0  0  0  0  0  0  0  0  0
   20.9019   25.2685   15.0276 C   0  0  0  0  0  0  0  0  0  0  0  0
   18.6459   25.9070   14.1436 C   0  0  0  0  0  0  0  0  0  0  0  0
   17.5512   24.0958   20.3748 C   0  0  0  0  0  0  0  0  0  0  0  0
   19.8468   23.0688   20.4072 C   0  0  0  0  0  0  0  0  0  0  0  0
   21.2195   23.1640   20.6721 C   0  0  0  0  0  0  0  0  0  0  0  0
   21.7415   24.2787   21.3248 C   0  0  0  0  0  0  0  0  0  0  0  0
   20.8918   25.2996   21.6990 C   0  0  0  0  0  0  0  0  0  0  0  0
   19.5366   25.2310   21.3848 C   0  0  0  0  0  0  0  0  0  0  0  0
   18.9999   24.1175   20.7410 C   0  0  0  0  0  0  0  0  0  0  0  0
   22.0990   22.0632   20.3820 C   0  0  0  0  0  0  0  0  0  0  0  0
   23.3874   22.2998   19.9080 C   0  0  0  0  0  0  0  0  0  0  0  0
   24.2474   21.2514   19.6894 C   0  0  0  0  0  0  0  0  0  0  0  0
   23.8132   19.9586   19.9484 C   0  0  0  0  0  0  0  0  0  0  0  0
   22.5247   19.7058   20.4272 C   0  0  0  0  0  0  0  0  0  0  0  0
   21.6729   20.7619   20.6492 C   0  0  0  0  0  0  0  0  0  0  0  0
   25.5184   21.4244   19.2213 O   0  0  0  0  0  0  0  0  0  0  0  0
   25.7928   22.7850   18.8626 C   0  0  0  0  0  0  0  0  0  0  0  0
   22.0386   18.4514   20.6988 O   0  0  0  0  0  0  0  0  0  0  0  0
   22.9787   17.4290   20.3941 C   0  0  0  0  0  0  0  0  0  0  0  0
    9.3067   16.6207   20.1443 H   0  0  0  0  0  0  0  0  0  0  0  0
   10.7984   16.3806   19.2558 H   0  0  0  0  0  0  0  0  0  0  0  0
    9.8543   17.8983   19.0243 H   0  0  0  0  0  0  0  0  0  0  0  0
   12.0470   17.4407   18.4031 H   0  0  0  0  0  0  0  0  0  0  0  0
   14.0845   18.4931   17.6523 H   0  0  0  0  0  0  0  0  0  0  0  0
   14.2230   20.8149   21.2652 H   0  0  0  0  0  0  0  0  0  0  0  0
   12.3394   19.4804   22.1839 H   0  0  0  0  0  0  0  0  0  0  0  0
   12.9613   22.2387   17.7062 H   0  0  0  0  0  0  0  0  0  0  0  0
   13.8144   20.9694   16.8072 H   0  0  0  0  0  0  0  0  0  0  0  0
   13.9220   23.9805   16.3417 H   0  0  0  0  0  0  0  0  0  0  0  0
   15.7131   23.5292   14.6666 H   0  0  0  0  0  0  0  0  0  0  0  0
   15.7544   21.8174   15.1722 H   0  0  0  0  0  0  0  0  0  0  0  0
   16.2644   23.0621   16.2647 H   0  0  0  0  0  0  0  0  0  0  0  0
   12.1118   22.7040   15.2145 H   0  0  0  0  0  0  0  0  0  0  0  0
   13.3216   21.6061   14.5117 H   0  0  0  0  0  0  0  0  0  0  0  0
   13.2955   23.3181   14.0376 H   0  0  0  0  0  0  0  0  0  0  0  0
   15.3130   22.9129   20.0219 H   0  0  0  0  0  0  0  0  0  0  0  0
   13.9399   23.5554   19.1889 H   0  0  0  0  0  0  0  0  0  0  0  0
   15.7682   24.3753   17.4133 H   0  0  0  0  0  0  0  0  0  0  0  0
   15.3901   25.5562   19.9222 H   0  0  0  0  0  0  0  0  0  0  0  0
   17.6441   23.1346   18.4550 H   0  0  0  0  0  0  0  0  0  0  0  0
   18.4234   25.9582   18.7955 H   0  0  0  0  0  0  0  0  0  0  0  0
   20.5683   27.7168   13.8272 H   0  0  0  0  0  0  0  0  0  0  0  0
   21.0326   27.9347   15.5299 H   0  0  0  0  0  0  0  0  0  0  0  0
   19.4014   28.3762   14.9950 H   0  0  0  0  0  0  0  0  0  0  0  0
   21.2921   25.2977   14.0080 H   0  0  0  0  0  0  0  0  0  0  0  0
   20.5943   24.2459   15.2552 H   0  0  0  0  0  0  0  0  0  0  0  0
   21.6957   25.5453   15.7274 H   0  0  0  0  0  0  0  0  0  0  0  0
   19.0571   25.9867   13.1322 H   0  0  0  0  0  0  0  0  0  0  0  0
   17.8085   26.6046   14.2431 H   0  0  0  0  0  0  0  0  0  0  0  0
   18.2652   24.8949   14.2735 H   0  0  0  0  0  0  0  0  0  0  0  0
   17.0950   23.2083   20.8149 H   0  0  0  0  0  0  0  0  0  0  0  0
   17.0563   24.9672   20.8163 H   0  0  0  0  0  0  0  0  0  0  0  0
   19.4385   22.1490   19.9838 H   0  0  0  0  0  0  0  0  0  0  0  0
   22.7958   24.3072   21.5872 H   0  0  0  0  0  0  0  0  0  0  0  0
   21.2907   26.1474   22.2338 H   0  0  0  0  0  0  0  0  0  0  0  0
   18.8901   26.0519   21.6618 H   0  0  0  0  0  0  0  0  0  0  0  0
   23.6896   23.3258   19.7225 H   0  0  0  0  0  0  0  0  0  0  0  0
   24.4914   19.1377   19.7672 H   0  0  0  0  0  0  0  0  0  0  0  0
   20.6694   20.6065   21.0309 H   0  0  0  0  0  0  0  0  0  0  0  0
   26.8150   22.8609   18.5010 H   0  0  0  0  0  0  0  0  0  0  0  0
   25.6920   23.4418   19.7388 H   0  0  0  0  0  0  0  0  0  0  0  0
   25.1092   23.1119   18.0660 H   0  0  0  0  0  0  0  0  0  0  0  0
   22.5469   16.4577   20.6260 H   0  0  0  0  0  0  0  0  0  0  0  0
   23.8858   17.5577   20.9992 H   0  0  0  0  0  0  0  0  0  0  0  0
   23.2311   17.4539   19.3259 H   0  0  0  0  0  0  0  0  0  0  0  0
  1  2  1  0  0  0  0
  1  3  1  0  0  0  0
  2 46  1  0  0  0  0
  2 47  1  0  0  0  0
  2 48  1  0  0  0  0
  3  4  2  0  0  0  0
  3  8  1  0  0  0  0
  4  5  1  0  0  0  0
  4 49  1  0  0  0  0
  5  6  2  0  0  0  0
  5 50  1  0  0  0  0
  6  7  1  0  0  0  0
  6  9  1  0  0  0  0
  7  8  2  0  0  0  0
  7 51  1  0  0  0  0
  8 52  1  0  0  0  0
  9 10  2  0  0  0  0
  9 11  2  0  0  0  0
  9 12  1  0  0  0  0
 12 13  1  0  0  0  0
 12 17  1  0  0  0  0
 13 14  1  0  0  0  0
 13 53  1  0  0  0  0
 13 54  1  0  0  0  0
 14 15  1  0  0  0  0
 14 16  1  0  0  0  0
 14 55  1  0  0  0  0
 15 56  1  0  0  0  0
 15 57  1  0  0  0  0
 15 58  1  0  0  0  0
 16 59  1  0  0  0  0
 16 60  1  0  0  0  0
 16 61  1  0  0  0  0
 17 18  1  0  0  0  0
 17 62  1  0  0  0  0
 17 63  1  0  0  0  0
 18 19  1  0  0  0  0
 18 20  1  0  0  0  0
 18 64  1  6  0  0  0
 19 65  1  0  0  0  0
 20 21  1  0  0  0  0
 20 29  1  0  0  0  0
 20 66  1  6  0  0  0
 21 22  1  0  0  0  0
 21 67  1  0  0  0  0
 22 23  2  0  0  0  0
 22 24  1  0  0  0  0
 24 25  1  0  0  0  0
 25 26  1  0  0  0  0
 25 27  1  0  0  0  0
 25 28  1  0  0  0  0
 26 68  1  0  0  0  0
 26 69  1  0  0  0  0
 26 70  1  0  0  0  0
 27 71  1  0  0  0  0
 27 72  1  0  0  0  0
 27 73  1  0  0  0  0
 28 74  1  0  0  0  0
 28 75  1  0  0  0  0
 28 76  1  0  0  0  0
 29 35  1  0  0  0  0
 29 77  1  0  0  0  0
 29 78  1  0  0  0  0
 30 31  2  0  0  0  0
 30 35  1  0  0  0  0
 30 79  1  0  0  0  0
 31 32  1  0  0  0  0
 31 36  1  0  0  0  0
 32 33  2  0  0  0  0
 32 80  1  0  0  0  0
 33 34  1  0  0  0  0
 33 81  1  0  0  0  0
 34 35  2  0  0  0  0
 34 82  1  0  0  0  0
 36 37  2  0  0  0  0
 36 41  1  0  0  0  0
 37 38  1  0  0  0  0
 37 83  1  0  0  0  0
 38 39  2  0  0  0  0
 38 42  1  0  0  0  0
 39 40  1  0  0  0  0
 39 84  1  0  0  0  0
 40 41  2  0  0  0  0
 40 44  1  0  0  0  0
 41 85  1  0  0  0  0
 42 43  1  0  0  0  0
 43 86  1  0  0  0  0
 43 87  1  0  0  0  0
 43 88  1  0  0  0  0
 44 45  1  0  0  0  0
 45 89  1  0  0  0  0
 45 90  1  0  0  0  0
 45 91  1  0  0  0  0
M  END
$$$$
