G64
 OpenBabel04111922573D

 95 98  0  0  1  0  0  0  0  0999 V2000
   20.9165   27.7699   14.8473 C   0  0  0  0  0  0  0  0  0  0  0  0
   21.5387   28.9643   14.6019 O   0  0  0  0  0  0  0  0  0  0  0  0
   22.9116   29.0090   14.9744 C   0  0  0  0  0  0  0  0  0  0  0  0
   21.5323   26.6432   15.3967 C   0  0  0  0  0  0  0  0  0  0  0  0
   20.7821   25.5039   15.6738 C   0  0  0  0  0  0  0  0  0  0  0  0
   19.4094   25.4980   15.4177 C   0  0  0  0  0  0  0  0  0  0  0  0
   18.7986   26.5886   14.7995 C   0  0  0  0  0  0  0  0  0  0  0  0
   19.5633   27.7179   14.5033 C   0  0  0  0  0  0  0  0  0  0  0  0
   18.4704   24.0331   15.7799 S   0  0  0  0  0  0  0  0  0  0  0  0
   17.3918   23.9719   14.8233 O   0  0  0  0  0  0  0  0  0  0  0  0
   19.4289   22.9415   15.9206 O   0  0  0  0  0  0  0  0  0  0  0  0
   17.8099   24.3434   17.3153 N   0  0  0  0  0  0  0  0  0  0  0  0
   18.7627   24.6720   18.4014 C   0  0  0  0  0  0  0  0  0  0  0  0
   18.4182   23.9944   19.7286 C   0  0  0  0  0  0  0  0  0  0  0  0
   18.4273   22.4771   19.5845 C   0  0  0  0  0  0  0  0  0  0  0  0
   19.4285   24.4330   20.7900 C   0  0  0  0  0  0  0  0  0  0  0  0
   16.5040   25.0299   17.3867 C   0  0  0  0  0  0  0  0  0  0  0  0
   15.4042   24.0768   17.8866 C   0  0  1  0  0  0  0  0  0  0  0  0
   14.2339   24.8302   18.2475 O   0  0  0  0  0  0  0  0  0  0  0  0
   15.0438   22.9560   16.8907 C   0  0  1  0  0  0  0  0  0  0  0  0
   14.1981   21.9766   17.5689 N   0  0  0  0  0  0  0  0  0  0  0  0
   14.6709   20.7619   18.0092 C   0  0  0  0  0  0  0  0  0  0  0  0
   15.8467   20.4402   18.0483 O   0  0  0  0  0  0  0  0  0  0  0  0
   14.2957   23.4484   15.6371 C   0  0  0  0  0  0  0  0  0  0  0  0
   12.6639   21.7888   14.6586 C   0  0  0  0  0  0  0  0  0  0  0  0
   12.4068   20.6338   13.9254 C   0  0  0  0  0  0  0  0  0  0  0  0
   13.4194   19.9694   13.2448 C   0  0  0  0  0  0  0  0  0  0  0  0
   14.7067   20.4834   13.2773 C   0  0  0  0  0  0  0  0  0  0  0  0
   14.9782   21.6372   14.0115 C   0  0  0  0  0  0  0  0  0  0  0  0
   13.9639   22.2917   14.7223 C   0  0  0  0  0  0  0  0  0  0  0  0
   13.6268   19.8509   18.5007 C   0  0  0  0  0  0  0  0  0  0  0  0
   13.8325   19.1806   19.7067 C   0  0  0  0  0  0  0  0  0  0  0  0
   12.8527   18.3109   20.2062 C   0  0  0  0  0  0  0  0  0  0  0  0
   11.6715   18.1056   19.4606 C   0  0  0  0  0  0  0  0  0  0  0  0
   11.4996   18.7312   18.2163 C   0  0  0  0  0  0  0  0  0  0  0  0
   12.4591   19.6350   17.7618 C   0  0  0  0  0  0  0  0  0  0  0  0
   13.0866   17.6189   21.5176 C   0  0  0  0  0  0  0  0  0  0  0  0
   10.2459   18.5794   17.4470 C   0  0  0  0  0  0  0  0  0  0  0  0
    9.2225   19.0069   17.9712 O   0  0  0  0  0  0  0  0  0  0  0  0
   10.2712   18.0437   16.1452 N   0  0  0  0  0  0  0  0  0  0  0  0
   11.4406   17.3335   15.6376 C   0  0  0  0  0  0  0  0  0  0  0  0
    9.0432   18.0658   15.3220 C   0  0  0  0  0  0  0  0  0  0  0  0
    9.2829   18.4889   13.8952 C   0  0  0  0  0  0  0  0  0  0  0  0
    9.7203   17.5855   12.9378 N   0  0  0  0  0  0  0  0  0  0  0  0
    9.8106   18.2861   11.8226 C   0  0  0  0  0  0  0  0  0  0  0  0
    9.4397   19.5995   11.9632 O   0  0  0  0  0  0  0  0  0  0  0  0
    9.0837   19.7162   13.2870 C   0  0  0  0  0  0  0  0  0  0  0  0
    8.6094   21.0333   13.7616 C   0  0  0  0  0  0  0  0  0  0  0  0
   10.3026   17.8294   10.4979 C   0  0  0  0  0  0  0  0  0  0  0  0
   23.3107   29.9945   14.7248 H   0  0  0  0  0  0  0  0  0  0  0  0
   23.4793   28.2627   14.4091 H   0  0  0  0  0  0  0  0  0  0  0  0
   23.0274   28.8566   16.0542 H   0  0  0  0  0  0  0  0  0  0  0  0
   22.5963   26.6127   15.6062 H   0  0  0  0  0  0  0  0  0  0  0  0
   21.2762   24.6270   16.0889 H   0  0  0  0  0  0  0  0  0  0  0  0
   17.7451   26.5670   14.5380 H   0  0  0  0  0  0  0  0  0  0  0  0
   19.1079   28.5594   13.9867 H   0  0  0  0  0  0  0  0  0  0  0  0
   18.7814   25.7589   18.5413 H   0  0  0  0  0  0  0  0  0  0  0  0
   19.7711   24.3586   18.1143 H   0  0  0  0  0  0  0  0  0  0  0  0
   17.4240   24.3085   20.0644 H   0  0  0  0  0  0  0  0  0  0  0  0
   18.1981   21.9963   20.5398 H   0  0  0  0  0  0  0  0  0  0  0  0
   19.4024   22.1198   19.2378 H   0  0  0  0  0  0  0  0  0  0  0  0
   17.6756   22.1572   18.8592 H   0  0  0  0  0  0  0  0  0  0  0  0
   19.4259   25.5235   20.8936 H   0  0  0  0  0  0  0  0  0  0  0  0
   20.4454   24.1228   20.5237 H   0  0  0  0  0  0  0  0  0  0  0  0
   19.1847   24.0012   21.7655 H   0  0  0  0  0  0  0  0  0  0  0  0
   16.2198   25.4465   16.4175 H   0  0  0  0  0  0  0  0  0  0  0  0
   16.5609   25.8917   18.0611 H   0  0  0  0  0  0  0  0  0  0  0  0
   15.7446   23.6012   18.8126 H   0  0  0  0  0  0  0  0  0  0  0  0
   13.9187   25.3013   17.4587 H   0  0  0  0  0  0  0  0  0  0  0  0
   15.9662   22.4502   16.5837 H   0  0  0  0  0  0  0  0  0  0  0  0
   13.2306   22.2172   17.7347 H   0  0  0  0  0  0  0  0  0  0  0  0
   14.8859   24.1852   15.0878 H   0  0  0  0  0  0  0  0  0  0  0  0
   13.3648   23.9533   15.9268 H   0  0  0  0  0  0  0  0  0  0  0  0
   11.8536   22.2596   15.2094 H   0  0  0  0  0  0  0  0  0  0  0  0
   11.4098   20.2307   13.8960 H   0  0  0  0  0  0  0  0  0  0  0  0
   13.1977   19.0586   12.6957 H   0  0  0  0  0  0  0  0  0  0  0  0
   15.5072   19.9859   12.7394 H   0  0  0  0  0  0  0  0  0  0  0  0
   16.0002   22.0051   14.0479 H   0  0  0  0  0  0  0  0  0  0  0  0
   14.7499   19.3613   20.2675 H   0  0  0  0  0  0  0  0  0  0  0  0
   10.8841   17.4698   19.8584 H   0  0  0  0  0  0  0  0  0  0  0  0
   12.2927   20.1734   16.8368 H   0  0  0  0  0  0  0  0  0  0  0  0
   14.0594   17.9024   21.9367 H   0  0  0  0  0  0  0  0  0  0  0  0
   13.0921   16.5339   21.3801 H   0  0  0  0  0  0  0  0  0  0  0  0
   12.3185   17.8941   22.2455 H   0  0  0  0  0  0  0  0  0  0  0  0
   11.2396   16.8855   14.6665 H   0  0  0  0  0  0  0  0  0  0  0  0
   11.7473   16.5414   16.3291 H   0  0  0  0  0  0  0  0  0  0  0  0
   12.2535   18.0532   15.5373 H   0  0  0  0  0  0  0  0  0  0  0  0
    8.3145   18.7459   15.7759 H   0  0  0  0  0  0  0  0  0  0  0  0
    8.5967   17.0650   15.3269 H   0  0  0  0  0  0  0  0  0  0  0  0
    8.7348   21.8097   13.0002 H   0  0  0  0  0  0  0  0  0  0  0  0
    9.1447   21.3592   14.6615 H   0  0  0  0  0  0  0  0  0  0  0  0
    7.5473   20.9652   14.0109 H   0  0  0  0  0  0  0  0  0  0  0  0
   10.5146   16.7534   10.5233 H   0  0  0  0  0  0  0  0  0  0  0  0
   11.2356   18.3365   10.2336 H   0  0  0  0  0  0  0  0  0  0  0  0
    9.5764   18.0000    9.6968 H   0  0  0  0  0  0  0  0  0  0  0  0
  1  2  1  0  0  0  0
  1  4  2  0  0  0  0
  1  8  1  0  0  0  0
  2  3  1  0  0  0  0
  3 50  1  0  0  0  0
  3 51  1  0  0  0  0
  3 52  1  0  0  0  0
  4  5  1  0  0  0  0
  4 53  1  0  0  0  0
  5  6  2  0  0  0  0
  5 54  1  0  0  0  0
  6  7  1  0  0  0  0
  6  9  1  0  0  0  0
  7  8  2  0  0  0  0
  7 55  1  0  0  0  0
  8 56  1  0  0  0  0
  9 10  2  0  0  0  0
  9 11  2  0  0  0  0
  9 12  1  0  0  0  0
 12 13  1  0  0  0  0
 12 17  1  0  0  0  0
 13 14  1  0  0  0  0
 13 57  1  0  0  0  0
 13 58  1  0  0  0  0
 14 15  1  0  0  0  0
 14 16  1  0  0  0  0
 14 59  1  0  0  0  0
 15 60  1  0  0  0  0
 15 61  1  0  0  0  0
 15 62  1  0  0  0  0
 16 63  1  0  0  0  0
 16 64  1  0  0  0  0
 16 65  1  0  0  0  0
 17 18  1  0  0  0  0
 17 66  1  0  0  0  0
 17 67  1  0  0  0  0
 18 19  1  0  0  0  0
 18 20  1  0  0  0  0
 18 68  1  1  0  0  0
 19 69  1  0  0  0  0
 20 21  1  0  0  0  0
 20 24  1  0  0  0  0
 20 70  1  6  0  0  0
 21 22  1  0  0  0  0
 21 71  1  0  0  0  0
 22 23  2  0  0  0  0
 22 31  1  0  0  0  0
 24 30  1  0  0  0  0
 24 72  1  0  0  0  0
 24 73  1  0  0  0  0
 25 26  2  0  0  0  0
 25 30  1  0  0  0  0
 25 74  1  0  0  0  0
 26 27  1  0  0  0  0
 26 75  1  0  0  0  0
 27 28  2  0  0  0  0
 27 76  1  0  0  0  0
 28 29  1  0  0  0  0
 28 77  1  0  0  0  0
 29 30  2  0  0  0  0
 29 78  1  0  0  0  0
 31 32  2  0  0  0  0
 31 36  1  0  0  0  0
 32 33  1  0  0  0  0
 32 79  1  0  0  0  0
 33 34  2  0  0  0  0
 33 37  1  0  0  0  0
 34 35  1  0  0  0  0
 34 80  1  0  0  0  0
 35 36  2  0  0  0  0
 35 38  1  0  0  0  0
 36 81  1  0  0  0  0
 37 82  1  0  0  0  0
 37 83  1  0  0  0  0
 37 84  1  0  0  0  0
 38 39  2  0  0  0  0
 38 40  1  0  0  0  0
 40 41  1  0  0  0  0
 40 42  1  0  0  0  0
 41 85  1  0  0  0  0
 41 86  1  0  0  0  0
 41 87  1  0  0  0  0
 42 43  1  0  0  0  0
 42 88  1  0  0  0  0
 42 89  1  0  0  0  0
 43 44  1  0  0  0  0
 43 47  2  0  0  0  0
 44 45  2  0  0  0  0
 45 46  1  0  0  0  0
 45 49  1  0  0  0  0
 46 47  1  0  0  0  0
 47 48  1  0  0  0  0
 48 90  1  0  0  0  0
 48 91  1  0  0  0  0
 48 92  1  0  0  0  0
 49 93  1  0  0  0  0
 49 94  1  0  0  0  0
 49 95  1  0  0  0  0
M  END
$$$$
