G6P
 OpenBabel04111921373D

 27 27  0  0  1  0  0  0  0  0999 V2000
   10.9524   25.0380   49.2457 C   0  0  2  0  0  0  0  0  0  0  0  0
   10.6463   23.9656   48.2240 C   0  0  1  0  0  0  0  0  0  0  0  0
   11.7203   22.8975   48.3520 C   0  0  2  0  0  0  0  0  0  0  0  0
   13.1323   23.4837   48.2130 C   0  0  1  0  0  0  0  0  0  0  0  0
   13.2833   24.5781   49.2613 C   0  0  1  0  0  0  0  0  0  0  0  0
   14.5785   25.3562   49.1139 C   0  0  0  0  0  0  0  0  0  0  0  0
    9.9720   26.0540   49.2296 O   0  0  0  0  0  0  0  0  0  0  0  0
    9.3612   23.3815   48.4604 O   0  0  0  0  0  0  0  0  0  0  0  0
   11.4805   21.9438   47.3093 O   0  0  0  0  0  0  0  0  0  0  0  0
   14.0787   22.4371   48.4011 O   0  0  0  0  0  0  0  0  0  0  0  0
   12.2376   25.5504   49.0518 O   0  0  0  0  0  0  0  0  0  0  0  0
   14.5528   26.3717   50.1017 O   0  0  0  0  0  0  0  0  0  0  0  0
   15.6311   27.6112   50.1073 P   0  0  0  0  0  0  0  0  0  0  0  0
   15.0977   28.5298   51.1442 O   0  0  0  0  0  0  0  0  0  0  0  0
   16.9801   26.9540   50.4191 O   0  0  0  0  0  0  0  0  0  0  0  0
   15.5826   28.1647   48.6729 O   0  0  0  0  0  0  0  0  0  0  0  0
   10.8906   24.5621   50.2043 H   0  0  0  0  0  0  0  0  0  0  0  0
   10.6765   24.3742   47.2077 H   0  0  0  0  0  0  0  0  0  0  0  0
   11.6562   22.3792   49.3217 H   0  0  0  0  0  0  0  0  0  0  0  0
   13.2658   23.9054   47.2072 H   0  0  0  0  0  0  0  0  0  0  0  0
   13.2205   24.1298   50.2706 H   0  0  0  0  0  0  0  0  0  0  0  0
   14.6095   25.7958   48.1111 H   0  0  0  0  0  0  0  0  0  0  0  0
   15.4217   24.6893   49.2770 H   0  0  0  0  0  0  0  0  0  0  0  0
   10.1247   26.5921   48.4379 H   0  0  0  0  0  0  0  0  0  0  0  0
    8.7125   24.1065   48.4149 H   0  0  0  0  0  0  0  0  0  0  0  0
   11.4981   22.4593   46.4830 H   0  0  0  0  0  0  0  0  0  0  0  0
   13.9020   21.7827   47.7062 H   0  0  0  0  0  0  0  0  0  0  0  0
  1  2  1  0  0  0  0
  1  7  1  0  0  0  0
  1 11  1  0  0  0  0
  1 17  1  1  0  0  0
  2  3  1  0  0  0  0
  2  8  1  0  0  0  0
  2 18  1  6  0  0  0
  3  4  1  0  0  0  0
  3  9  1  0  0  0  0
  3 19  1  1  0  0  0
  4  5  1  0  0  0  0
  4 10  1  0  0  0  0
  4 20  1  6  0  0  0
  5  6  1  0  0  0  0
  5 11  1  0  0  0  0
  5 21  1  1  0  0  0
  6 12  1  0  0  0  0
  6 22  1  0  0  0  0
  6 23  1  0  0  0  0
  7 24  1  0  0  0  0
  8 25  1  0  0  0  0
  9 26  1  0  0  0  0
 10 27  1  0  0  0  0
 12 13  1  0  0  0  0
 13 14  2  0  0  0  0
 13 15  1  0  0  0  0
 13 16  1  0  0  0  0
M  END
$$$$
