G8M
 OpenBabel04111919013D

 22 22  0  0  1  0  0  0  0  0999 V2000
    1.9655   27.3487   13.9096 C   0  0  0  0  0  0  0  0  0  0  0  0
    2.9124   26.5394   13.6227 O   0  0  0  0  0  0  0  0  0  0  0  0
    0.8294   27.3140   13.3828 O   0  0  0  0  0  0  0  0  0  0  0  0
    2.2610   28.4948   14.8854 C   0  0  2  0  0  0  0  0  0  0  0  0
    1.5485   31.0158   12.5572 C   0  0  0  0  0  0  0  0  0  0  0  0
    1.8716   32.0778   11.9297 O   0  0  0  0  0  0  0  0  0  0  0  0
    0.4654   30.6709   13.0238 O   0  0  0  0  0  0  0  0  0  0  0  0
    2.7653   30.0383   12.7705 C   0  0  1  0  0  0  0  0  0  0  0  0
    4.0101   30.6334   12.1324 N   0  3  0  0  0  0  0  0  0  0  0  0
    3.0137   29.7225   14.2527 C   0  0  2  0  0  0  0  0  0  0  0  0
    4.3357   29.0332   14.7249 C   0  0  0  0  0  0  0  0  0  0  0  0
    3.5149   28.2643   15.7817 C   0  0  0  0  0  0  0  0  0  0  0  0
    1.3648   28.7750   15.4598 H   0  0  0  0  0  0  0  0  0  0  0  0
    2.5852   29.1124   12.2230 H   0  0  0  0  0  0  0  0  0  0  0  0
    4.8029   30.0238   12.2530 H   0  0  0  0  0  0  0  0  0  0  0  0
    3.7928   30.7842   11.1406 H   0  0  0  0  0  0  0  0  0  0  0  0
    2.8460   30.6472   14.8232 H   0  0  0  0  0  0  0  0  0  0  0  0
    5.0867   29.7121   15.1396 H   0  0  0  0  0  0  0  0  0  0  0  0
    4.8079   28.3849   13.9767 H   0  0  0  0  0  0  0  0  0  0  0  0
    3.7952   27.2129   15.9156 H   0  0  0  0  0  0  0  0  0  0  0  0
    3.4817   28.7477   16.7667 H   0  0  0  0  0  0  0  0  0  0  0  0
    4.1542   31.5610   12.5416 H   0  0  0  0  0  0  0  0  0  0  0  0
  1  2  2  0  0  0  0
  1  3  1  0  0  0  0
  1  4  1  0  0  0  0
  4 10  1  0  0  0  0
  4 12  1  0  0  0  0
  4 13  1  1  0  0  0
  5  6  2  0  0  0  0
  5  7  1  0  0  0  0
  5  8  1  0  0  0  0
  8  9  1  0  0  0  0
  8 10  1  0  0  0  0
  8 14  1  6  0  0  0
  9 15  1  0  0  0  0
  9 16  1  0  0  0  0
  9 22  1  0  0  0  0
 10 11  1  0  0  0  0
 10 17  1  1  0  0  0
 11 12  1  0  0  0  0
 11 18  1  0  0  0  0
 11 19  1  0  0  0  0
 12 20  1  0  0  0  0
 12 21  1  0  0  0  0
M  CHG  1   9   1
M  END
$$$$
