G8S
 OpenBabel04111918153D

 84 88  0  0  1  0  0  0  0  0999 V2000
   25.0440  -10.6927   13.9548 Cl  0  0  0  0  0  0  0  0  0  0  0  0
   16.7431   -6.8867    7.9484 C   0  0  0  0  0  0  0  0  0  0  0  0
   16.4306   -9.2301    8.7203 C   0  0  0  0  0  0  0  0  0  0  0  0
   21.2685  -15.0465   10.4922 C   0  0  0  0  0  0  0  0  0  0  0  0
   24.7739  -12.5493   12.0184 C   0  0  0  0  0  0  0  0  0  0  0  0
   22.7547  -11.4008   12.7097 C   0  0  0  0  0  0  0  0  0  0  0  0
   15.8103   -5.9169    1.2171 C   0  0  0  0  0  0  0  0  0  0  0  0
   17.5591   -7.6273    0.9832 C   0  0  0  0  0  0  0  0  0  0  0  0
   19.3151   -8.8096    4.7660 C   0  0  0  0  0  0  0  0  0  0  0  0
   21.3243   -8.3189    3.5197 C   0  0  0  0  0  0  0  0  0  0  0  0
   14.9389   -6.9123    1.5549 C   0  0  0  0  0  0  0  0  0  0  0  0
   16.7378   -8.6045    1.4219 C   0  0  0  0  0  0  0  0  0  0  0  0
   19.7645  -10.0990    5.0058 C   0  0  0  0  0  0  0  0  0  0  0  0
   21.7840   -9.6072    3.7568 C   0  0  0  0  0  0  0  0  0  0  0  0
   24.0278  -13.2965   11.1047 C   0  0  0  0  0  0  0  0  0  0  0  0
   22.0122  -12.1459   11.7999 C   0  0  0  0  0  0  0  0  0  0  0  0
   15.8316   -7.4820    5.4387 C   0  0  0  0  0  0  0  0  0  0  0  0
   15.5363   -9.9048    5.9846 C   0  0  0  0  0  0  0  0  0  0  0  0
   20.8803  -13.9730    7.7935 C   0  0  0  0  0  0  0  0  0  0  0  0
   22.5075  -12.1153    8.3455 C   0  0  0  0  0  0  0  0  0  0  0  0
   15.3768   -7.8193    4.2559 C   0  0  0  0  0  0  0  0  0  0  0  0
   15.1160  -10.1143    4.7238 C   0  0  0  0  0  0  0  0  0  0  0  0
   20.8310  -13.4687    6.5650 C   0  0  0  0  0  0  0  0  0  0  0  0
   22.3824  -11.7169    7.1019 C   0  0  0  0  0  0  0  0  0  0  0  0
   18.8243   -4.9467    1.8617 C   0  0  0  0  0  0  0  0  0  0  0  0
   19.7741   -6.0638    2.3194 C   0  0  0  0  0  0  0  0  0  0  0  0
   18.0997   -5.2592    0.5438 C   0  0  0  0  0  0  0  0  0  0  0  0
   19.5681   -6.5197    3.7609 C   0  0  0  0  0  0  0  0  0  0  0  0
   14.5861   -9.2519    2.3888 C   0  0  0  0  0  0  0  0  0  0  0  0
   21.5188  -11.8969    4.7216 C   0  0  0  0  0  0  0  0  0  0  0  0
   24.1287  -11.6108   12.8205 C   0  0  0  0  0  0  0  0  0  0  0  0
   17.1056   -6.3033    0.8962 C   0  0  0  0  0  0  0  0  0  0  0  0
   20.0805   -7.9113    4.0119 C   0  0  0  0  0  0  0  0  0  0  0  0
   15.4155   -8.2456    1.6554 C   0  0  0  0  0  0  0  0  0  0  0  0
   21.0123  -10.4928    4.5260 C   0  0  0  0  0  0  0  0  0  0  0  0
   15.9336   -8.5485    6.4625 C   0  0  0  0  0  0  0  0  0  0  0  0
   22.6385  -13.1091   11.0082 C   0  0  0  0  0  0  0  0  0  0  0  0
   21.9277  -13.4334    8.6995 C   0  0  1  0  0  0  0  0  0  0  0  0
   16.3287   -8.2807    7.6031 N   0  0  0  0  0  0  0  0  0  0  0  0
   21.8185  -13.7626   10.1074 N   0  0  0  0  0  0  0  0  0  0  0  0
   14.9843   -9.0772    3.8321 N   0  3  0  0  0  0  0  0  0  0  0  0
   21.5475  -12.3564    6.1223 N   0  0  0  0  0  0  0  0  0  0  0  0
   17.0778   -6.7723    9.0266 H   0  0  0  0  0  0  0  0  0  0  0  0
   15.9080   -6.2049    7.8087 H   0  0  0  0  0  0  0  0  0  0  0  0
   17.5709   -6.5740    7.3171 H   0  0  0  0  0  0  0  0  0  0  0  0
   16.1126  -10.2088    8.3925 H   0  0  0  0  0  0  0  0  0  0  0  0
   15.7367   -8.9410    9.5081 H   0  0  0  0  0  0  0  0  0  0  0  0
   17.5247   -9.2447    9.0121 H   0  0  0  0  0  0  0  0  0  0  0  0
   21.4659  -15.2640   11.5418 H   0  0  0  0  0  0  0  0  0  0  0  0
   21.6427  -15.8775    9.8809 H   0  0  0  0  0  0  0  0  0  0  0  0
   20.1877  -14.9722   10.3510 H   0  0  0  0  0  0  0  0  0  0  0  0
   25.8450  -12.7103   12.1048 H   0  0  0  0  0  0  0  0  0  0  0  0
   22.2464  -10.6725   13.3288 H   0  0  0  0  0  0  0  0  0  0  0  0
   15.4996   -4.8784    1.2007 H   0  0  0  0  0  0  0  0  0  0  0  0
   18.5750   -7.8900    0.7233 H   0  0  0  0  0  0  0  0  0  0  0  0
   18.3598   -8.5021    5.1534 H   0  0  0  0  0  0  0  0  0  0  0  0
   21.9400   -7.6360    2.9422 H   0  0  0  0  0  0  0  0  0  0  0  0
   13.9528   -6.6554    1.9501 H   0  0  0  0  0  0  0  0  0  0  0  0
   17.1061   -9.6076    1.5926 H   0  0  0  0  0  0  0  0  0  0  0  0
   19.1596  -10.7960    5.5725 H   0  0  0  0  0  0  0  0  0  0  0  0
   22.7376   -9.9207    3.3452 H   0  0  0  0  0  0  0  0  0  0  0  0
   24.5256  -14.0221   10.4646 H   0  0  0  0  0  0  0  0  0  0  0  0
   20.9390  -12.0018   11.6935 H   0  0  0  0  0  0  0  0  0  0  0  0
   16.1284   -6.4663    5.6832 H   0  0  0  0  0  0  0  0  0  0  0  0
   15.5886  -10.7252    6.6714 H   0  0  0  0  0  0  0  0  0  0  0  0
   20.3644  -14.8741    8.0846 H   0  0  0  0  0  0  0  0  0  0  0  0
   23.1821  -11.6499    9.0445 H   0  0  0  0  0  0  0  0  0  0  0  0
   15.3699   -6.9758    3.6191 H   0  0  0  0  0  0  0  0  0  0  0  0
   14.8460  -11.1168    4.3996 H   0  0  0  0  0  0  0  0  0  0  0  0
   20.2376  -13.9849    5.7932 H   0  0  0  0  0  0  0  0  0  0  0  0
   22.9894  -10.8617    6.7331 H   0  0  0  0  0  0  0  0  0  0  0  0
   19.3956   -4.0324    1.7183 H   0  0  0  0  0  0  0  0  0  0  0  0
   18.0802   -4.7644    2.6482 H   0  0  0  0  0  0  0  0  0  0  0  0
   20.8061   -5.7425    2.1691 H   0  0  0  0  0  0  0  0  0  0  0  0
   19.6993   -6.9311    1.6828 H   0  0  0  0  0  0  0  0  0  0  0  0
   18.7526   -5.6618   -0.2407 H   0  0  0  0  0  0  0  0  0  0  0  0
   17.5553   -4.3998    0.1282 H   0  0  0  0  0  0  0  0  0  0  0  0
   18.5043   -6.5198    4.0188 H   0  0  0  0  0  0  0  0  0  0  0  0
   20.0998   -5.8550    4.4454 H   0  0  0  0  0  0  0  0  0  0  0  0
   14.8026  -10.2388    1.9511 H   0  0  0  0  0  0  0  0  0  0  0  0
   13.5290   -9.0170    2.2132 H   0  0  0  0  0  0  0  0  0  0  0  0
   22.5215  -11.9390    4.2814 H   0  0  0  0  0  0  0  0  0  0  0  0
   20.8483  -12.5389    4.1382 H   0  0  0  0  0  0  0  0  0  0  0  0
   22.7305  -14.0663    8.4292 H   0  0  0  0  0  0  0  0  0  0  0  0
  1 31  1  0  0  0  0
  2 39  1  0  0  0  0
  2 43  1  0  0  0  0
  2 44  1  0  0  0  0
  2 45  1  0  0  0  0
  3 39  1  0  0  0  0
  3 46  1  0  0  0  0
  3 47  1  0  0  0  0
  3 48  1  0  0  0  0
  4 40  1  0  0  0  0
  4 49  1  0  0  0  0
  4 50  1  0  0  0  0
  4 51  1  0  0  0  0
  5 15  2  0  0  0  0
  5 31  1  0  0  0  0
  5 52  1  0  0  0  0
  6 16  1  0  0  0  0
  6 31  2  0  0  0  0
  6 53  1  0  0  0  0
  7 11  2  0  0  0  0
  7 32  1  0  0  0  0
  7 54  1  0  0  0  0
  8 12  1  0  0  0  0
  8 32  2  0  0  0  0
  8 55  1  0  0  0  0
  9 13  2  0  0  0  0
  9 33  1  0  0  0  0
  9 56  1  0  0  0  0
 10 14  1  0  0  0  0
 10 33  2  0  0  0  0
 10 57  1  0  0  0  0
 11 34  1  0  0  0  0
 11 58  1  0  0  0  0
 12 34  2  0  0  0  0
 12 59  1  0  0  0  0
 13 35  1  0  0  0  0
 13 60  1  0  0  0  0
 14 35  2  0  0  0  0
 14 61  1  0  0  0  0
 15 37  1  0  0  0  0
 15 62  1  0  0  0  0
 16 37  2  0  0  0  0
 16 63  1  0  0  0  0
 17 21  1  0  0  0  0
 17 36  1  0  0  0  0
 17 64  1  0  0  0  0
 18 22  1  0  0  0  0
 18 36  1  0  0  0  0
 18 65  1  0  0  0  0
 19 23  2  0  0  0  0
 19 38  1  0  0  0  0
 19 66  1  0  0  0  0
 20 24  2  0  0  0  0
 20 38  1  0  0  0  0
 20 67  1  0  0  0  0
 21 41  1  0  0  0  0
 21 68  1  0  0  0  0
 22 41  1  0  0  0  0
 22 69  1  0  0  0  0
 23 42  1  0  0  0  0
 23 70  1  0  0  0  0
 24 42  1  0  0  0  0
 24 71  1  0  0  0  0
 25 26  1  0  0  0  0
 25 27  1  0  0  0  0
 25 72  1  0  0  0  0
 25 73  1  0  0  0  0
 26 28  1  0  0  0  0
 26 74  1  0  0  0  0
 26 75  1  0  0  0  0
 27 32  1  0  0  0  0
 27 76  1  0  0  0  0
 27 77  1  0  0  0  0
 28 33  1  0  0  0  0
 28 78  1  0  0  0  0
 28 79  1  0  0  0  0
 29 34  1  0  0  0  0
 29 41  1  0  0  0  0
 29 80  1  0  0  0  0
 29 81  1  0  0  0  0
 30 35  1  0  0  0  0
 30 42  1  0  0  0  0
 30 82  1  0  0  0  0
 30 83  1  0  0  0  0
 36 39  2  0  0  0  0
 37 40  1  0  0  0  0
 38 40  1  0  0  0  0
 38 84  1  6  0  0  0
M  CHG  1  41   1
M  END
$$$$
