G9L
 OpenBabel04111918593D

 51 54  0  0  0  0  0  0  0  0999 V2000
  -32.2502  -75.7581   -2.1520 N   0  3  0  0  0  0  0  0  0  0  0  0
  -35.8832  -73.9462    0.5519 N   0  0  0  0  0  0  0  0  0  0  0  0
  -36.6325  -72.9831    4.6001 N   0  0  0  0  0  0  0  0  0  0  0  0
  -35.1929  -72.9879   -1.4059 O   0  0  0  0  0  0  0  0  0  0  0  0
  -36.7397  -73.4163    6.8279 O   0  0  0  0  0  0  0  0  0  0  0  0
  -35.6735  -78.4811    6.9796 F   0  0  0  0  0  0  0  0  0  0  0  0
  -35.5763  -77.9557    4.6884 C   0  0  0  0  0  0  0  0  0  0  0  0
  -35.6942  -76.9834    3.6817 C   0  0  0  0  0  0  0  0  0  0  0  0
  -36.0775  -76.2579    6.3163 C   0  0  0  0  0  0  0  0  0  0  0  0
  -30.2905  -77.4591   -3.0919 C   0  0  0  0  0  0  0  0  0  0  0  0
  -30.5156  -76.1015   -3.8065 C   0  0  0  0  0  0  0  0  0  0  0  0
  -31.2673  -77.8815   -1.9552 C   0  0  0  0  0  0  0  0  0  0  0  0
  -34.2653  -75.1210   -0.9329 C   0  0  0  0  0  0  0  0  0  0  0  0
  -36.5909  -72.2760    2.2436 C   0  0  0  0  0  0  0  0  0  0  0  0
  -30.9912  -75.1568   -2.7857 C   0  0  0  0  0  0  0  0  0  0  0  0
  -32.5711  -77.2783   -2.3099 C   0  0  0  0  0  0  0  0  0  0  0  0
  -33.3788  -74.8002   -2.1309 C   0  0  0  0  0  0  0  0  0  0  0  0
  -36.7856  -72.8378    0.8574 C   0  0  0  0  0  0  0  0  0  0  0  0
  -35.9121  -75.0574    1.5234 C   0  0  0  0  0  0  0  0  0  0  0  0
  -35.1628  -73.9432   -0.6039 C   0  0  0  0  0  0  0  0  0  0  0  0
  -35.7730  -77.5615    6.0185 C   0  0  0  0  0  0  0  0  0  0  0  0
  -36.4522  -73.3649    3.3199 C   0  0  0  0  0  0  0  0  0  0  0  0
  -36.1214  -74.6590    2.9514 C   0  0  0  0  0  0  0  0  0  0  0  0
  -36.5273  -73.9206    5.5551 C   0  0  0  0  0  0  0  0  0  0  0  0
  -36.0066  -75.6700    3.9819 C   0  0  0  0  0  0  0  0  0  0  0  0
  -36.2011  -75.2431    5.3339 C   0  0  0  0  0  0  0  0  0  0  0  0
  -36.6435  -74.1154    7.4932 H   0  0  0  0  0  0  0  0  0  0  0  0
  -35.3294  -78.9924    4.4670 H   0  0  0  0  0  0  0  0  0  0  0  0
  -35.5606  -77.3213    2.6591 H   0  0  0  0  0  0  0  0  0  0  0  0
  -36.2361  -76.0255    7.3965 H   0  0  0  0  0  0  0  0  0  0  0  0
  -29.3048  -77.4530   -2.6347 H   0  0  0  0  0  0  0  0  0  0  0  0
  -30.3546  -78.1991   -3.8823 H   0  0  0  0  0  0  0  0  0  0  0  0
  -31.2921  -76.0571   -4.5784 H   0  0  0  0  0  0  0  0  0  0  0  0
  -29.5856  -75.6528   -4.1782 H   0  0  0  0  0  0  0  0  0  0  0  0
  -31.0463  -77.5073   -0.9473 H   0  0  0  0  0  0  0  0  0  0  0  0
  -31.4283  -78.9590   -1.8963 H   0  0  0  0  0  0  0  0  0  0  0  0
  -33.6267  -75.3445   -0.0704 H   0  0  0  0  0  0  0  0  0  0  0  0
  -34.8909  -75.9946   -1.1532 H   0  0  0  0  0  0  0  0  0  0  0  0
  -37.4358  -71.6431    2.5028 H   0  0  0  0  0  0  0  0  0  0  0  0
  -35.6782  -71.6813    2.2772 H   0  0  0  0  0  0  0  0  0  0  0  0
  -30.1839  -75.1007   -2.0386 H   0  0  0  0  0  0  0  0  0  0  0  0
  -31.1689  -74.1979   -3.2913 H   0  0  0  0  0  0  0  0  0  0  0  0
  -32.8160  -77.6727   -3.3016 H   0  0  0  0  0  0  0  0  0  0  0  0
  -33.2569  -77.6094   -1.5149 H   0  0  0  0  0  0  0  0  0  0  0  0
  -33.8819  -74.8249   -3.1028 H   0  0  0  0  0  0  0  0  0  0  0  0
  -32.8911  -73.8308   -1.9919 H   0  0  0  0  0  0  0  0  0  0  0  0
  -37.8228  -73.1682    0.7153 H   0  0  0  0  0  0  0  0  0  0  0  0
  -36.6082  -72.0214    0.1503 H   0  0  0  0  0  0  0  0  0  0  0  0
  -34.9541  -75.5599    1.4534 H   0  0  0  0  0  0  0  0  0  0  0  0
  -36.7088  -75.7487    1.2115 H   0  0  0  0  0  0  0  0  0  0  0  0
  -31.9267  -75.7370   -1.1979 H   0  0  0  0  0  0  0  0  0  0  0  0
  1 15  1  0  0  0  0
  1 16  1  0  0  0  0
  1 17  1  0  0  0  0
  1 51  1  0  0  0  0
  2 18  1  0  0  0  0
  2 19  1  0  0  0  0
  2 20  1  0  0  0  0
  3 22  2  0  0  0  0
  3 24  1  0  0  0  0
  4 20  2  0  0  0  0
  5 24  1  0  0  0  0
  5 27  1  0  0  0  0
  6 21  1  0  0  0  0
  7  8  2  0  0  0  0
  7 21  1  0  0  0  0
  7 28  1  0  0  0  0
  8 25  1  0  0  0  0
  8 29  1  0  0  0  0
  9 21  2  0  0  0  0
  9 26  1  0  0  0  0
  9 30  1  0  0  0  0
 10 11  1  0  0  0  0
 10 12  1  0  0  0  0
 10 31  1  0  0  0  0
 10 32  1  0  0  0  0
 11 15  1  0  0  0  0
 11 33  1  0  0  0  0
 11 34  1  0  0  0  0
 12 16  1  0  0  0  0
 12 35  1  0  0  0  0
 12 36  1  0  0  0  0
 13 17  1  0  0  0  0
 13 20  1  0  0  0  0
 13 37  1  0  0  0  0
 13 38  1  0  0  0  0
 14 18  1  0  0  0  0
 14 22  1  0  0  0  0
 14 39  1  0  0  0  0
 14 40  1  0  0  0  0
 15 41  1  0  0  0  0
 15 42  1  0  0  0  0
 16 43  1  0  0  0  0
 16 44  1  0  0  0  0
 17 45  1  0  0  0  0
 17 46  1  0  0  0  0
 18 47  1  0  0  0  0
 18 48  1  0  0  0  0
 19 23  1  0  0  0  0
 19 49  1  0  0  0  0
 19 50  1  0  0  0  0
 22 23  1  0  0  0  0
 23 25  2  0  0  0  0
 24 26  2  0  0  0  0
 25 26  1  0  0  0  0
M  CHG  1   1   1
M  END
$$$$
