GA3
 OpenBabel04111921073D

 46 50  0  0  1  0  0  0  0  0999 V2000
    8.4027    0.3005   20.7166 O   0  0  0  0  0  0  0  0  0  0  0  0
    9.1397    0.5715   19.7316 C   0  0  0  0  0  0  0  0  0  0  0  0
    8.8178    0.8842   18.5467 O   0  0  0  0  0  0  0  0  0  0  0  0
   10.6474    0.6060   20.0065 C   0  0  1  0  0  0  0  0  0  0  0  0
   11.5692    0.2577   18.8212 C   0  0  1  0  0  0  0  0  0  0  0  0
   11.0627    2.0521   20.3802 C   0  0  1  0  0  0  0  0  0  0  0  0
   10.1924    3.2108   19.8484 C   0  0  0  0  0  0  0  0  0  0  0  0
   10.5848    4.3288   20.7971 C   0  0  0  0  0  0  0  0  0  0  0  0
   10.4325    5.6376   20.5608 C   0  0  0  0  0  0  0  0  0  0  0  0
   11.3578    3.7705   21.9746 C   0  0  2  0  0  0  0  0  0  0  0  0
   11.0086    2.2896   21.8971 C   0  0  0  0  0  0  0  0  0  0  0  0
   11.0737    4.4049   23.2087 O   0  0  0  0  0  0  0  0  0  0  0  0
   12.8610    3.9384   21.7227 C   0  0  0  0  0  0  0  0  0  0  0  0
   13.4376    2.6982   21.0359 C   0  0  0  0  0  0  0  0  0  0  0  0
   12.5301    2.2575   19.8752 C   0  0  1  0  0  0  0  0  0  0  0  0
   12.8845    0.9087   19.2515 C   0  0  1  0  0  0  0  0  0  0  0  0
   13.3830   -0.0285   20.2354 O   0  0  0  0  0  0  0  0  0  0  0  0
   13.9132    0.9312   18.1661 C   0  0  0  0  0  0  0  0  0  0  0  0
   14.0017   -0.1514   17.3732 C   0  0  0  0  0  0  0  0  0  0  0  0
   13.0247   -1.3079   17.4673 C   0  0  2  0  0  0  0  0  0  0  0  0
   12.3013   -1.3092   16.2331 O   0  0  0  0  0  0  0  0  0  0  0  0
   12.0633   -1.1929   18.6826 C   0  0  2  0  0  0  0  0  0  0  0  0
   10.9940   -2.2757   18.6939 C   0  0  0  0  0  0  0  0  0  0  0  0
   12.9362   -1.2757   19.9081 C   0  0  0  0  0  0  0  0  0  0  0  0
   13.2489   -2.3049   20.5495 O   0  0  0  0  0  0  0  0  0  0  0  0
   10.8729   -0.0724   20.8440 H   0  0  0  0  0  0  0  0  0  0  0  0
   11.1577    0.6324   17.8755 H   0  0  0  0  0  0  0  0  0  0  0  0
    9.1256    2.9976   19.9317 H   0  0  0  0  0  0  0  0  0  0  0  0
   10.4294    3.4583   18.8010 H   0  0  0  0  0  0  0  0  0  0  0  0
    9.8964    5.9918   19.6917 H   0  0  0  0  0  0  0  0  0  0  0  0
   10.8838    6.3444   21.2496 H   0  0  0  0  0  0  0  0  0  0  0  0
   11.7399    1.6645   22.4187 H   0  0  0  0  0  0  0  0  0  0  0  0
   10.0309    2.0467   22.3081 H   0  0  0  0  0  0  0  0  0  0  0  0
   10.1336    4.3097   23.4146 H   0  0  0  0  0  0  0  0  0  0  0  0
   13.3723    4.1106   22.6772 H   0  0  0  0  0  0  0  0  0  0  0  0
   13.0425    4.8155   21.0857 H   0  0  0  0  0  0  0  0  0  0  0  0
   13.5037    1.8878   21.7763 H   0  0  0  0  0  0  0  0  0  0  0  0
   14.4467    2.8960   20.6878 H   0  0  0  0  0  0  0  0  0  0  0  0
   12.5647    3.0624   19.1204 H   0  0  0  0  0  0  0  0  0  0  0  0
   14.5928    1.7659   18.0363 H   0  0  0  0  0  0  0  0  0  0  0  0
   14.8001   -0.2114   16.6529 H   0  0  0  0  0  0  0  0  0  0  0  0
   13.5811   -2.2491   17.5338 H   0  0  0  0  0  0  0  0  0  0  0  0
   12.9342   -1.4077   15.5052 H   0  0  0  0  0  0  0  0  0  0  0  0
   10.3533   -2.1793   19.5782 H   0  0  0  0  0  0  0  0  0  0  0  0
   11.4540   -3.2767   18.7290 H   0  0  0  0  0  0  0  0  0  0  0  0
   10.3680   -2.2202   17.7995 H   0  0  0  0  0  0  0  0  0  0  0  0
  1  2  2  0  0  0  0
  2  3  1  0  0  0  0
  2  4  1  0  0  0  0
  4  5  1  0  0  0  0
  4  6  1  0  0  0  0
  4 26  1  1  0  0  0
  5 16  1  0  0  0  0
  5 22  1  0  0  0  0
  5 27  1  6  0  0  0
  6  7  1  6  0  0  0
  6 11  1  0  0  0  0
  6 15  1  0  0  0  0
  7  8  1  0  0  0  0
  7 28  1  0  0  0  0
  7 29  1  0  0  0  0
  8  9  2  0  0  0  0
  8 10  1  0  0  0  0
  9 30  1  0  0  0  0
  9 31  1  0  0  0  0
 10 11  1  0  0  0  0
 10 12  1  1  0  0  0
 10 13  1  0  0  0  0
 11 32  1  0  0  0  0
 11 33  1  0  0  0  0
 12 34  1  0  0  0  0
 13 14  1  0  0  0  0
 13 35  1  0  0  0  0
 13 36  1  0  0  0  0
 14 15  1  0  0  0  0
 14 37  1  0  0  0  0
 14 38  1  0  0  0  0
 15 16  1  0  0  0  0
 15 39  1  6  0  0  0
 16 17  1  1  0  0  0
 16 18  1  0  0  0  0
 17 24  1  0  0  0  0
 18 19  2  0  0  0  0
 18 40  1  0  0  0  0
 19 20  1  0  0  0  0
 19 41  1  0  0  0  0
 20 21  1  0  0  0  0
 20 22  1  0  0  0  0
 20 42  1  1  0  0  0
 21 43  1  0  0  0  0
 22 23  1  6  0  0  0
 22 24  1  0  0  0  0
 23 44  1  0  0  0  0
 23 45  1  0  0  0  0
 23 46  1  0  0  0  0
 24 25  2  0  0  0  0
M  END
$$$$
