GDP
 OpenBabel04111919263D

 40 42  0  0  1  0  0  0  0  0999 V2000
  -25.7139   -3.6783   42.2231 P   0  0  0  0  0  0  0  0  0  0  0  0
  -26.1719   -4.4916   41.0246 O   0  0  0  0  0  0  0  0  0  0  0  0
  -24.7346   -4.4298   43.1319 O   0  0  0  0  0  0  0  0  0  0  0  0
  -26.8686   -3.0691   43.0454 O   0  0  0  0  0  0  0  0  0  0  0  0
  -24.8729   -2.4083   41.6923 O   0  0  0  0  0  0  0  0  0  0  0  0
  -24.7475   -1.7857   40.2136 P   0  0  1  0  0  0  0  0  0  0  0  0
  -23.9181   -2.6275   39.2579 O   0  0  0  0  0  0  0  0  0  0  0  0
  -25.9948   -1.0623   39.7291 O   0  0  0  0  0  0  0  0  0  0  0  0
  -23.6922   -0.5393   40.5101 O   0  0  0  0  0  0  0  0  0  0  0  0
  -23.8751    0.2753   41.6463 C   0  0  0  0  0  0  0  0  0  0  0  0
  -22.8499    1.4218   41.6327 C   0  0  1  0  0  0  0  0  0  0  0  0
  -21.5382    0.9431   42.0182 O   0  0  0  0  0  0  0  0  0  0  0  0
  -22.6881    2.1496   40.2891 C   0  0  1  0  0  0  0  0  0  0  0  0
  -22.5880    3.5797   40.5201 O   0  0  0  0  0  0  0  0  0  0  0  0
  -21.3362    1.7003   39.7580 C   0  0  1  0  0  0  0  0  0  0  0  0
  -20.6851    2.7286   38.9820 O   0  0  0  0  0  0  0  0  0  0  0  0
  -20.6020    1.4211   41.0599 C   0  0  2  0  0  0  0  0  0  0  0  0
  -19.5025    0.4873   41.0000 N   0  3  0  0  0  0  0  0  0  0  0  0
  -19.3019   -0.5257   40.0805 C   0  0  0  0  0  0  0  0  0  0  0  0
  -18.1902   -1.1938   40.3453 N   0  0  0  0  0  0  0  0  0  0  0  0
  -17.7193   -0.6721   41.5147 C   0  0  0  0  0  0  0  0  0  0  0  0
  -16.5801   -1.0392   42.3380 C   0  0  0  0  0  0  0  0  0  0  0  0
  -15.7967   -1.9641   42.0941 O   0  0  0  0  0  0  0  0  0  0  0  0
  -16.3876   -0.2163   43.4368 N   0  3  0  0  0  0  0  0  0  0  0  0
  -17.1668    0.8718   43.7737 C   0  0  0  0  0  0  0  0  0  0  0  0
  -16.8397    1.5211   44.8272 N   0  0  0  0  0  0  0  0  0  0  0  0
  -18.2327    1.1863   42.9595 N   0  3  0  0  0  0  0  0  0  0  0  0
  -18.4822    0.4136   41.8885 C   0  0  0  0  0  0  0  0  0  0  0  0
  -23.7135   -0.3272   42.5443 H   0  0  0  0  0  0  0  0  0  0  0  0
  -24.8844    0.7004   41.6627 H   0  0  0  0  0  0  0  0  0  0  0  0
  -23.1159    2.1390   42.4162 H   0  0  0  0  0  0  0  0  0  0  0  0
  -23.5055    1.9724   39.5846 H   0  0  0  0  0  0  0  0  0  0  0  0
  -22.5744    3.9683   39.6255 H   0  0  0  0  0  0  0  0  0  0  0  0
  -21.4477    0.8121   39.1347 H   0  0  0  0  0  0  0  0  0  0  0  0
  -20.5407    3.4812   39.5837 H   0  0  0  0  0  0  0  0  0  0  0  0
  -20.1882    2.3596   41.4542 H   0  0  0  0  0  0  0  0  0  0  0  0
  -19.9846   -0.7362   39.2723 H   0  0  0  0  0  0  0  0  0  0  0  0
  -15.6100   -0.4300   44.0453 H   0  0  0  0  0  0  0  0  0  0  0  0
  -17.5118    2.2767   44.9631 H   0  0  0  0  0  0  0  0  0  0  0  0
  -18.8718    1.9140   43.2593 H   0  0  0  0  0  0  0  0  0  0  0  0
  1  2  2  0  0  0  0
  1  3  1  0  0  0  0
  1  4  1  0  0  0  0
  1  5  1  0  0  0  0
  6  5  1  1  0  0  0
  6  7  2  0  0  0  0
  6  8  1  0  0  0  0
  6  9  1  0  0  0  0
  9 10  1  0  0  0  0
 10 11  1  0  0  0  0
 10 29  1  0  0  0  0
 10 30  1  0  0  0  0
 11 12  1  0  0  0  0
 11 13  1  0  0  0  0
 11 31  1  1  0  0  0
 12 17  1  0  0  0  0
 13 14  1  0  0  0  0
 13 15  1  0  0  0  0
 13 32  1  6  0  0  0
 14 33  1  0  0  0  0
 15 16  1  0  0  0  0
 15 17  1  0  0  0  0
 15 34  1  6  0  0  0
 16 35  1  0  0  0  0
 17 18  1  0  0  0  0
 17 36  1  1  0  0  0
 18 19  2  0  0  0  0
 18 28  1  0  0  0  0
 19 20  1  0  0  0  0
 19 37  1  0  0  0  0
 20 21  2  0  0  0  0
 21 22  1  0  0  0  0
 21 28  1  0  0  0  0
 22 23  2  0  0  0  0
 22 24  1  0  0  0  0
 24 25  1  0  0  0  0
 24 38  1  0  0  0  0
 25 26  2  0  0  0  0
 25 27  1  0  0  0  0
 26 39  1  0  0  0  0
 27 28  2  0  0  0  0
 27 40  1  0  0  0  0
M  CHG  3  18   1  24   1  27   1
M  END
$$$$
