GDP
 OpenBabel04111921403D

 40 42  0  0  1  0  0  0  0  0999 V2000
   -6.9130   30.1190   -4.8576 P   0  0  0  0  0  0  0  0  0  0  0  0
   -5.4934   29.7348   -5.2785 O   0  0  0  0  0  0  0  0  0  0  0  0
   -7.6049   30.9590   -5.9370 O   0  0  0  0  0  0  0  0  0  0  0  0
   -7.7600   28.9499   -4.3819 O   0  0  0  0  0  0  0  0  0  0  0  0
   -6.7234   31.1366   -3.6080 O   0  0  0  0  0  0  0  0  0  0  0  0
   -6.8165   30.9384   -2.0207 P   0  0  1  0  0  0  0  0  0  0  0  0
   -8.2285   31.0087   -1.4633 O   0  0  0  0  0  0  0  0  0  0  0  0
   -5.8024   29.9838   -1.4094 O   0  0  0  0  0  0  0  0  0  0  0  0
   -6.2347   32.4138   -1.5592 O   0  0  0  0  0  0  0  0  0  0  0  0
   -4.8785   32.7002   -1.8274 C   0  0  0  0  0  0  0  0  0  0  0  0
   -4.3770   33.7244   -0.8007 C   0  0  1  0  0  0  0  0  0  0  0  0
   -5.0964   34.9880   -0.9292 O   0  0  0  0  0  0  0  0  0  0  0  0
   -4.5536   33.2491    0.6500 C   0  0  1  0  0  0  0  0  0  0  0  0
   -3.4720   33.7483    1.4797 O   0  0  0  0  0  0  0  0  0  0  0  0
   -5.8293   33.9329    1.1094 C   0  0  1  0  0  0  0  0  0  0  0  0
   -5.8470   34.1556    2.5343 O   0  0  0  0  0  0  0  0  0  0  0  0
   -5.7564   35.2353    0.3177 C   0  0  2  0  0  0  0  0  0  0  0  0
   -7.0380   35.8809    0.1048 N   0  3  0  0  0  0  0  0  0  0  0  0
   -8.1901   35.2833   -0.3534 C   0  0  0  0  0  0  0  0  0  0  0  0
   -9.2287   36.1073   -0.3180 N   0  0  0  0  0  0  0  0  0  0  0  0
   -8.7226   37.2933    0.1435 C   0  0  0  0  0  0  0  0  0  0  0  0
   -9.3840   38.5685    0.3575 C   0  0  0  0  0  0  0  0  0  0  0  0
  -10.5719   38.8111    0.1609 O   0  0  0  0  0  0  0  0  0  0  0  0
   -8.5326   39.5621    0.8574 N   0  3  0  0  0  0  0  0  0  0  0  0
   -7.1954   39.3855    1.1512 C   0  0  0  0  0  0  0  0  0  0  0  0
   -6.5709   40.4112    1.6082 N   0  0  0  0  0  0  0  0  0  0  0  0
   -6.6243   38.1551    0.9359 N   0  3  0  0  0  0  0  0  0  0  0  0
   -7.3848   37.1610    0.4351 C   0  0  0  0  0  0  0  0  0  0  0  0
   -4.8043   33.1071   -2.8384 H   0  0  0  0  0  0  0  0  0  0  0  0
   -4.2528   31.8032   -1.7579 H   0  0  0  0  0  0  0  0  0  0  0  0
   -3.3254   33.9514   -1.0069 H   0  0  0  0  0  0  0  0  0  0  0  0
   -4.5802   32.1608    0.7567 H   0  0  0  0  0  0  0  0  0  0  0  0
   -3.5501   33.2256    2.3005 H   0  0  0  0  0  0  0  0  0  0  0  0
   -6.7019   33.3357    0.8432 H   0  0  0  0  0  0  0  0  0  0  0  0
   -5.0724   34.7044    2.7434 H   0  0  0  0  0  0  0  0  0  0  0  0
   -5.1258   35.9558    0.8555 H   0  0  0  0  0  0  0  0  0  0  0  0
   -8.2197   34.2462   -0.6835 H   0  0  0  0  0  0  0  0  0  0  0  0
   -8.9335   40.4569    1.0209 H   0  0  0  0  0  0  0  0  0  0  0  0
   -5.5951   40.1472    1.7704 H   0  0  0  0  0  0  0  0  0  0  0  0
   -5.6316   38.0504    1.0903 H   0  0  0  0  0  0  0  0  0  0  0  0
  1  2  2  0  0  0  0
  1  3  1  0  0  0  0
  1  4  1  0  0  0  0
  1  5  1  0  0  0  0
  6  5  1  6  0  0  0
  6  7  2  0  0  0  0
  6  8  1  0  0  0  0
  6  9  1  0  0  0  0
  9 10  1  0  0  0  0
 10 11  1  0  0  0  0
 10 29  1  0  0  0  0
 10 30  1  0  0  0  0
 11 12  1  0  0  0  0
 11 13  1  0  0  0  0
 11 31  1  6  0  0  0
 12 17  1  0  0  0  0
 13 14  1  0  0  0  0
 13 15  1  0  0  0  0
 13 32  1  1  0  0  0
 14 33  1  0  0  0  0
 15 16  1  0  0  0  0
 15 17  1  0  0  0  0
 15 34  1  6  0  0  0
 16 35  1  0  0  0  0
 17 18  1  0  0  0  0
 17 36  1  1  0  0  0
 18 19  2  0  0  0  0
 18 28  1  0  0  0  0
 19 20  1  0  0  0  0
 19 37  1  0  0  0  0
 20 21  2  0  0  0  0
 21 22  1  0  0  0  0
 21 28  1  0  0  0  0
 22 23  2  0  0  0  0
 22 24  1  0  0  0  0
 24 25  1  0  0  0  0
 24 38  1  0  0  0  0
 25 26  2  0  0  0  0
 25 27  1  0  0  0  0
 26 39  1  0  0  0  0
 27 28  2  0  0  0  0
 27 40  1  0  0  0  0
M  CHG  3  18   1  24   1  27   1
M  END
$$$$
