GDP
 OpenBabel04111918293D

 40 42  0  0  1  0  0  0  0  0999 V2000
  -14.1013   -8.5529  -33.7978 P   0  0  0  0  0  0  0  0  0  0  0  0
  -14.3855   -7.0751  -34.0592 O   0  0  0  0  0  0  0  0  0  0  0  0
  -12.8399   -9.0165  -34.5404 O   0  0  0  0  0  0  0  0  0  0  0  0
  -14.1041   -8.9452  -32.3268 O   0  0  0  0  0  0  0  0  0  0  0  0
  -15.3107   -9.3548  -34.5128 O   0  0  0  0  0  0  0  0  0  0  0  0
  -16.6158   -9.9791  -33.8103 P   0  0  1  0  0  0  0  0  0  0  0  0
  -16.3788  -11.3422  -33.1759 O   0  0  0  0  0  0  0  0  0  0  0  0
  -17.5336   -8.9634  -33.1473 O   0  0  0  0  0  0  0  0  0  0  0  0
  -17.4514  -10.4256  -35.1553 O   0  0  0  0  0  0  0  0  0  0  0  0
  -17.8223   -9.4610  -36.1153 C   0  0  0  0  0  0  0  0  0  0  0  0
  -18.9655  -10.0543  -36.9562 C   0  0  1  0  0  0  0  0  0  0  0  0
  -18.4973  -11.1521  -37.8059 O   0  0  0  0  0  0  0  0  0  0  0  0
  -20.1025  -10.6091  -36.0917 C   0  0  1  0  0  0  0  0  0  0  0  0
  -21.3776  -10.3265  -36.7205 O   0  0  0  0  0  0  0  0  0  0  0  0
  -19.9055  -12.1135  -36.1221 C   0  0  1  0  0  0  0  0  0  0  0  0
  -21.1512  -12.8241  -35.9771 O   0  0  0  0  0  0  0  0  0  0  0  0
  -19.2726  -12.3204  -37.4927 C   0  0  2  0  0  0  0  0  0  0  0  0
  -18.4654  -13.5341  -37.5823 N   0  3  0  0  0  0  0  0  0  0  0  0
  -17.4799  -13.8971  -36.6878 C   0  0  0  0  0  0  0  0  0  0  0  0
  -16.9985  -15.1054  -36.9429 N   0  0  0  0  0  0  0  0  0  0  0  0
  -17.6766  -15.5339  -38.0498 C   0  0  0  0  0  0  0  0  0  0  0  0
  -17.5513  -16.7854  -38.7970 C   0  0  0  0  0  0  0  0  0  0  0  0
  -16.7620  -17.6926  -38.5529 O   0  0  0  0  0  0  0  0  0  0  0  0
  -18.4475  -16.8964  -39.8736 N   0  3  0  0  0  0  0  0  0  0  0  0
  -19.3635  -15.9372  -40.2317 C   0  0  0  0  0  0  0  0  0  0  0  0
  -20.1057  -16.1935  -41.2693 N   0  0  0  0  0  0  0  0  0  0  0  0
  -19.4513  -14.7812  -39.4971 N   0  3  0  0  0  0  0  0  0  0  0  0
  -18.5984  -14.6055  -38.4513 C   0  0  0  0  0  0  0  0  0  0  0  0
  -16.9657   -9.2471  -36.7603 H   0  0  0  0  0  0  0  0  0  0  0  0
  -18.1645   -8.5329  -35.6429 H   0  0  0  0  0  0  0  0  0  0  0  0
  -19.3486   -9.2818  -37.6354 H   0  0  0  0  0  0  0  0  0  0  0  0
  -20.1151  -10.2004  -35.0757 H   0  0  0  0  0  0  0  0  0  0  0  0
  -22.0361  -10.6313  -36.0693 H   0  0  0  0  0  0  0  0  0  0  0  0
  -19.2330  -12.4257  -35.3205 H   0  0  0  0  0  0  0  0  0  0  0  0
  -21.7216  -12.5377  -36.7100 H   0  0  0  0  0  0  0  0  0  0  0  0
  -20.0526  -12.3952  -38.2691 H   0  0  0  0  0  0  0  0  0  0  0  0
  -17.1697  -13.2514  -35.8624 H   0  0  0  0  0  0  0  0  0  0  0  0
  -18.3928  -17.7283  -40.4364 H   0  0  0  0  0  0  0  0  0  0  0  0
  -20.7171  -15.3875  -41.4230 H   0  0  0  0  0  0  0  0  0  0  0  0
  -20.0851  -14.0667  -39.7789 H   0  0  0  0  0  0  0  0  0  0  0  0
  1  2  2  0  0  0  0
  1  3  1  0  0  0  0
  1  4  1  0  0  0  0
  1  5  1  0  0  0  0
  6  5  1  6  0  0  0
  6  7  2  0  0  0  0
  6  8  1  0  0  0  0
  6  9  1  0  0  0  0
  9 10  1  0  0  0  0
 10 11  1  0  0  0  0
 10 29  1  0  0  0  0
 10 30  1  0  0  0  0
 11 12  1  0  0  0  0
 11 13  1  0  0  0  0
 11 31  1  6  0  0  0
 12 17  1  0  0  0  0
 13 14  1  0  0  0  0
 13 15  1  0  0  0  0
 13 32  1  1  0  0  0
 14 33  1  0  0  0  0
 15 16  1  0  0  0  0
 15 17  1  0  0  0  0
 15 34  1  1  0  0  0
 16 35  1  0  0  0  0
 17 18  1  0  0  0  0
 17 36  1  6  0  0  0
 18 19  2  0  0  0  0
 18 28  1  0  0  0  0
 19 20  1  0  0  0  0
 19 37  1  0  0  0  0
 20 21  2  0  0  0  0
 21 22  1  0  0  0  0
 21 28  1  0  0  0  0
 22 23  2  0  0  0  0
 22 24  1  0  0  0  0
 24 25  1  0  0  0  0
 24 38  1  0  0  0  0
 25 26  2  0  0  0  0
 25 27  1  0  0  0  0
 26 39  1  0  0  0  0
 27 28  2  0  0  0  0
 27 40  1  0  0  0  0
M  CHG  3  18   1  24   1  27   1
M  END
$$$$
