GDP
 OpenBabel04111921393D

 40 42  0  0  1  0  0  0  0  0999 V2000
  -29.7289  -17.5331   18.7271 P   0  0  0  0  0  0  0  0  0  0  0  0
  -30.9441  -16.6966   19.1278 O   0  0  0  0  0  0  0  0  0  0  0  0
  -29.3999  -17.3682   17.2397 O   0  0  0  0  0  0  0  0  0  0  0  0
  -28.5114  -17.3629   19.6227 O   0  0  0  0  0  0  0  0  0  0  0  0
  -30.2189  -19.0713   18.8680 O   0  0  0  0  0  0  0  0  0  0  0  0
  -30.0964  -20.0477   20.1324 P   0  0  1  0  0  0  0  0  0  0  0  0
  -28.8182  -20.8726   20.1346 O   0  0  0  0  0  0  0  0  0  0  0  0
  -30.6869  -19.5335   21.4323 O   0  0  0  0  0  0  0  0  0  0  0  0
  -31.1899  -21.1859   19.6593 O   0  0  0  0  0  0  0  0  0  0  0  0
  -32.5424  -20.8198   19.4958 C   0  0  0  0  0  0  0  0  0  0  0  0
  -33.3719  -22.1107   19.5226 C   0  0  1  0  0  0  0  0  0  0  0  0
  -33.0507  -22.9695   18.3820 O   0  0  0  0  0  0  0  0  0  0  0  0
  -33.1260  -22.9497   20.7895 C   0  0  1  0  0  0  0  0  0  0  0  0
  -34.3428  -23.6373   21.1822 O   0  0  0  0  0  0  0  0  0  0  0  0
  -32.1013  -23.9845   20.3471 C   0  0  1  0  0  0  0  0  0  0  0  0
  -32.1610  -25.2141   21.0900 O   0  0  0  0  0  0  0  0  0  0  0  0
  -32.4921  -24.1925   18.8866 C   0  0  2  0  0  0  0  0  0  0  0  0
  -31.4289  -24.7013   18.0400 N   0  3  0  0  0  0  0  0  0  0  0  0
  -30.1548  -24.2204   17.9656 C   0  0  0  0  0  0  0  0  0  0  0  0
  -29.3803  -24.9820   17.1998 N   0  0  0  0  0  0  0  0  0  0  0  0
  -30.2017  -25.9802   16.7454 C   0  0  0  0  0  0  0  0  0  0  0  0
  -29.9283  -27.0867   15.8459 C   0  0  0  0  0  0  0  0  0  0  0  0
  -28.8376  -27.3359   15.3008 O   0  0  0  0  0  0  0  0  0  0  0  0
  -31.0288  -27.9130   15.6226 N   0  3  0  0  0  0  0  0  0  0  0  0
  -32.2784  -27.7424   16.1603 C   0  0  0  0  0  0  0  0  0  0  0  0
  -33.1820  -28.5989   15.8595 N   0  0  0  0  0  0  0  0  0  0  0  0
  -32.4772  -26.6837   17.0147 N   0  3  0  0  0  0  0  0  0  0  0  0
  -31.4580  -25.8304   17.2709 C   0  0  0  0  0  0  0  0  0  0  0  0
  -32.6665  -20.3211   18.5310 H   0  0  0  0  0  0  0  0  0  0  0  0
  -32.8885  -20.1535   20.2957 H   0  0  0  0  0  0  0  0  0  0  0  0
  -34.4367  -21.8681   19.4202 H   0  0  0  0  0  0  0  0  0  0  0  0
  -32.7920  -22.3545   21.6441 H   0  0  0  0  0  0  0  0  0  0  0  0
  -34.6849  -24.0997   20.4031 H   0  0  0  0  0  0  0  0  0  0  0  0
  -31.0885  -23.5837   20.4340 H   0  0  0  0  0  0  0  0  0  0  0  0
  -33.0876  -25.5010   21.1149 H   0  0  0  0  0  0  0  0  0  0  0  0
  -33.3209  -24.9210   18.8379 H   0  0  0  0  0  0  0  0  0  0  0  0
  -29.8334  -23.3179   18.5050 H   0  0  0  0  0  0  0  0  0  0  0  0
  -30.9029  -28.6863   14.9819 H   0  0  0  0  0  0  0  0  0  0  0  0
  -34.0507  -28.3468   16.3352 H   0  0  0  0  0  0  0  0  0  0  0  0
  -33.3995  -26.5442   17.3976 H   0  0  0  0  0  0  0  0  0  0  0  0
  1  2  2  0  0  0  0
  1  3  1  0  0  0  0
  1  4  1  0  0  0  0
  1  5  1  0  0  0  0
  6  5  1  6  0  0  0
  6  7  2  0  0  0  0
  6  8  1  0  0  0  0
  6  9  1  0  0  0  0
  9 10  1  0  0  0  0
 10 11  1  0  0  0  0
 10 29  1  0  0  0  0
 10 30  1  0  0  0  0
 11 12  1  0  0  0  0
 11 13  1  0  0  0  0
 11 31  1  6  0  0  0
 12 17  1  0  0  0  0
 13 14  1  0  0  0  0
 13 15  1  0  0  0  0
 13 32  1  1  0  0  0
 14 33  1  0  0  0  0
 15 16  1  0  0  0  0
 15 17  1  0  0  0  0
 15 34  1  1  0  0  0
 16 35  1  0  0  0  0
 17 18  1  0  0  0  0
 17 36  1  6  0  0  0
 18 19  2  0  0  0  0
 18 28  1  0  0  0  0
 19 20  1  0  0  0  0
 19 37  1  0  0  0  0
 20 21  2  0  0  0  0
 21 22  1  0  0  0  0
 21 28  1  0  0  0  0
 22 23  2  0  0  0  0
 22 24  1  0  0  0  0
 24 25  1  0  0  0  0
 24 38  1  0  0  0  0
 25 26  2  0  0  0  0
 25 27  1  0  0  0  0
 26 39  1  0  0  0  0
 27 28  2  0  0  0  0
 27 40  1  0  0  0  0
M  CHG  3  18   1  24   1  27   1
M  END
$$$$
