GDP
 OpenBabel04111920393D

 40 42  0  0  1  0  0  0  0  0999 V2000
   -0.8637  -37.2945   16.1678 P   0  0  0  0  0  0  0  0  0  0  0  0
   -1.4233  -36.8116   14.8366 O   0  0  0  0  0  0  0  0  0  0  0  0
   -0.8129  -36.1929   17.2295 O   0  0  0  0  0  0  0  0  0  0  0  0
    0.4704  -38.0346   16.0651 O   0  0  0  0  0  0  0  0  0  0  0  0
   -1.9068  -38.3833   16.7602 O   0  0  0  0  0  0  0  0  0  0  0  0
   -2.9380  -39.3454   16.0003 P   0  0  1  0  0  0  0  0  0  0  0  0
   -4.2974  -38.7122   15.7520 O   0  0  0  0  0  0  0  0  0  0  0  0
   -2.3301  -40.2981   14.9841 O   0  0  0  0  0  0  0  0  0  0  0  0
   -3.2987  -40.3651   17.2543 O   0  0  0  0  0  0  0  0  0  0  0  0
   -2.2087  -40.9213   17.9585 C   0  0  0  0  0  0  0  0  0  0  0  0
   -2.6443  -42.2268   18.6320 C   0  0  1  0  0  0  0  0  0  0  0  0
   -3.4400  -41.9443   19.8153 O   0  0  0  0  0  0  0  0  0  0  0  0
   -3.4700  -43.1473   17.7282 C   0  0  1  0  0  0  0  0  0  0  0  0
   -3.0903  -44.5309   17.9452 O   0  0  0  0  0  0  0  0  0  0  0  0
   -4.9098  -42.9840   18.1968 C   0  0  1  0  0  0  0  0  0  0  0  0
   -5.6094  -44.2558   18.1940 O   0  0  0  0  0  0  0  0  0  0  0  0
   -4.7577  -42.4559   19.6113 C   0  0  2  0  0  0  0  0  0  0  0  0
   -5.7401  -41.4493   20.0292 N   0  3  0  0  0  0  0  0  0  0  0  0
   -5.9840  -40.2475   19.4022 C   0  0  0  0  0  0  0  0  0  0  0  0
   -6.9364  -39.5604   20.0041 N   0  0  0  0  0  0  0  0  0  0  0  0
   -7.2966  -40.3236   21.0799 C   0  0  0  0  0  0  0  0  0  0  0  0
   -8.2852  -40.0552   22.1240 C   0  0  0  0  0  0  0  0  0  0  0  0
   -8.9936  -39.0543   22.2156 O   0  0  0  0  0  0  0  0  0  0  0  0
   -8.3904  -41.0862   23.0671 N   0  3  0  0  0  0  0  0  0  0  0  0
   -7.6610  -42.2500   23.0412 C   0  0  0  0  0  0  0  0  0  0  0  0
   -7.8952  -43.0871   23.9953 N   0  0  0  0  0  0  0  0  0  0  0  0
   -6.7542  -42.4551   22.0309 N   0  3  0  0  0  0  0  0  0  0  0  0
   -6.5798  -41.4971   21.0928 C   0  0  0  0  0  0  0  0  0  0  0  0
   -1.9039  -40.1987   18.7201 H   0  0  0  0  0  0  0  0  0  0  0  0
   -1.3657  -41.1231   17.2886 H   0  0  0  0  0  0  0  0  0  0  0  0
   -1.7481  -42.7426   18.9956 H   0  0  0  0  0  0  0  0  0  0  0  0
   -3.3448  -42.9315   16.6617 H   0  0  0  0  0  0  0  0  0  0  0  0
   -3.5152  -45.0072   17.2058 H   0  0  0  0  0  0  0  0  0  0  0  0
   -5.4635  -42.2984   17.5535 H   0  0  0  0  0  0  0  0  0  0  0  0
   -5.0447  -44.8662   18.7063 H   0  0  0  0  0  0  0  0  0  0  0  0
   -4.8677  -43.2800   20.3267 H   0  0  0  0  0  0  0  0  0  0  0  0
   -5.4348  -39.9163   18.5145 H   0  0  0  0  0  0  0  0  0  0  0  0
   -9.0333  -40.9439   23.8175 H   0  0  0  0  0  0  0  0  0  0  0  0
   -7.2952  -43.9018   23.8578 H   0  0  0  0  0  0  0  0  0  0  0  0
   -6.1984  -43.3014   22.0432 H   0  0  0  0  0  0  0  0  0  0  0  0
  1  2  2  0  0  0  0
  1  3  1  0  0  0  0
  1  4  1  0  0  0  0
  1  5  1  0  0  0  0
  6  5  1  1  0  0  0
  6  7  2  0  0  0  0
  6  8  1  0  0  0  0
  6  9  1  0  0  0  0
  9 10  1  0  0  0  0
 10 11  1  0  0  0  0
 10 29  1  0  0  0  0
 10 30  1  0  0  0  0
 11 12  1  0  0  0  0
 11 13  1  0  0  0  0
 11 31  1  1  0  0  0
 12 17  1  0  0  0  0
 13 14  1  0  0  0  0
 13 15  1  0  0  0  0
 13 32  1  6  0  0  0
 14 33  1  0  0  0  0
 15 16  1  0  0  0  0
 15 17  1  0  0  0  0
 15 34  1  6  0  0  0
 16 35  1  0  0  0  0
 17 18  1  0  0  0  0
 17 36  1  1  0  0  0
 18 19  2  0  0  0  0
 18 28  1  0  0  0  0
 19 20  1  0  0  0  0
 19 37  1  0  0  0  0
 20 21  2  0  0  0  0
 21 22  1  0  0  0  0
 21 28  1  0  0  0  0
 22 23  2  0  0  0  0
 22 24  1  0  0  0  0
 24 25  1  0  0  0  0
 24 38  1  0  0  0  0
 25 26  2  0  0  0  0
 25 27  1  0  0  0  0
 26 39  1  0  0  0  0
 27 28  2  0  0  0  0
 27 40  1  0  0  0  0
M  CHG  3  18   1  24   1  27   1
M  END
$$$$
