GDP
 OpenBabel04111919433D

 40 42  0  0  1  0  0  0  0  0999 V2000
  -37.1553    0.9560   43.9031 P   0  0  0  0  0  0  0  0  0  0  0  0
  -38.4369    1.6328   44.3638 O   0  0  0  0  0  0  0  0  0  0  0  0
  -37.3726   -0.2938   43.0484 O   0  0  0  0  0  0  0  0  0  0  0  0
  -36.1820    1.9288   43.2256 O   0  0  0  0  0  0  0  0  0  0  0  0
  -36.3620    0.4418   45.2213 O   0  0  0  0  0  0  0  0  0  0  0  0
  -36.8627   -0.0468   46.6626 P   0  0  2  0  0  0  0  0  0  0  0  0
  -37.8033   -1.2408   46.6732 O   0  0  0  0  0  0  0  0  0  0  0  0
  -37.0524    1.0805   47.6653 O   0  0  0  0  0  0  0  0  0  0  0  0
  -35.4478   -0.7004   47.2128 O   0  0  0  0  0  0  0  0  0  0  0  0
  -34.9198   -1.8269   46.5459 C   0  0  0  0  0  0  0  0  0  0  0  0
  -33.9806   -2.5822   47.5033 C   0  0  1  0  0  0  0  0  0  0  0  0
  -32.8136   -1.7735   47.8383 O   0  0  0  0  0  0  0  0  0  0  0  0
  -34.6641   -2.9536   48.8283 C   0  0  1  0  0  0  0  0  0  0  0  0
  -34.1302   -4.1958   49.3538 O   0  0  0  0  0  0  0  0  0  0  0  0
  -34.2603   -1.8290   49.7679 C   0  0  1  0  0  0  0  0  0  0  0  0
  -34.2478   -2.2387   51.1497 O   0  0  0  0  0  0  0  0  0  0  0  0
  -32.8687   -1.4810   49.2413 C   0  0  2  0  0  0  0  0  0  0  0  0
  -32.4372   -0.1193   49.4932 N   0  3  0  0  0  0  0  0  0  0  0  0
  -33.1676    1.0303   49.3038 C   0  0  0  0  0  0  0  0  0  0  0  0
  -32.5346    2.1059   49.7552 N   0  0  0  0  0  0  0  0  0  0  0  0
  -31.3307    1.6444   50.2108 C   0  0  0  0  0  0  0  0  0  0  0  0
  -30.2090    2.3706   50.7926 C   0  0  0  0  0  0  0  0  0  0  0  0
  -30.1563    3.5803   50.9969 O   0  0  0  0  0  0  0  0  0  0  0  0
  -29.1405    1.5302   51.1406 N   0  3  0  0  0  0  0  0  0  0  0  0
  -29.1182    0.1731   51.0077 C   0  0  0  0  0  0  0  0  0  0  0  0
  -28.0521   -0.4430   51.4076 N   0  0  0  0  0  0  0  0  0  0  0  0
  -30.2058   -0.4649   50.4622 N   0  3  0  0  0  0  0  0  0  0  0  0
  -31.2640    0.2790   50.0707 C   0  0  0  0  0  0  0  0  0  0  0  0
  -34.3654   -1.4786   45.6716 H   0  0  0  0  0  0  0  0  0  0  0  0
  -35.7133   -2.5108   46.2239 H   0  0  0  0  0  0  0  0  0  0  0  0
  -33.5925   -3.4743   46.9980 H   0  0  0  0  0  0  0  0  0  0  0  0
  -35.7479   -3.0732   48.7367 H   0  0  0  0  0  0  0  0  0  0  0  0
  -34.7909   -4.4734   50.0171 H   0  0  0  0  0  0  0  0  0  0  0  0
  -34.9532   -0.9933   49.6693 H   0  0  0  0  0  0  0  0  0  0  0  0
  -33.6110   -2.9685   51.2247 H   0  0  0  0  0  0  0  0  0  0  0  0
  -32.1284   -2.1395   49.7173 H   0  0  0  0  0  0  0  0  0  0  0  0
  -34.1582    1.0296   48.8538 H   0  0  0  0  0  0  0  0  0  0  0  0
  -28.3371    1.9801   51.5532 H   0  0  0  0  0  0  0  0  0  0  0  0
  -28.1831   -1.4448   51.2377 H   0  0  0  0  0  0  0  0  0  0  0  0
  -30.1610   -1.4574   50.2932 H   0  0  0  0  0  0  0  0  0  0  0  0
  1  2  2  0  0  0  0
  1  3  1  0  0  0  0
  1  4  1  0  0  0  0
  1  5  1  0  0  0  0
  6  5  1  6  0  0  0
  6  7  2  0  0  0  0
  6  8  1  0  0  0  0
  6  9  1  0  0  0  0
  9 10  1  0  0  0  0
 10 11  1  0  0  0  0
 10 29  1  0  0  0  0
 10 30  1  0  0  0  0
 11 12  1  0  0  0  0
 11 13  1  0  0  0  0
 11 31  1  6  0  0  0
 12 17  1  0  0  0  0
 13 14  1  0  0  0  0
 13 15  1  0  0  0  0
 13 32  1  6  0  0  0
 14 33  1  0  0  0  0
 15 16  1  0  0  0  0
 15 17  1  0  0  0  0
 15 34  1  6  0  0  0
 16 35  1  0  0  0  0
 17 18  1  0  0  0  0
 17 36  1  1  0  0  0
 18 19  2  0  0  0  0
 18 28  1  0  0  0  0
 19 20  1  0  0  0  0
 19 37  1  0  0  0  0
 20 21  2  0  0  0  0
 21 22  1  0  0  0  0
 21 28  1  0  0  0  0
 22 23  2  0  0  0  0
 22 24  1  0  0  0  0
 24 25  1  0  0  0  0
 24 38  1  0  0  0  0
 25 26  2  0  0  0  0
 25 27  1  0  0  0  0
 26 39  1  0  0  0  0
 27 28  2  0  0  0  0
 27 40  1  0  0  0  0
M  CHG  3  18   1  24   1  27   1
M  END
$$$$
