GDP
 OpenBabel04111920563D

 40 42  0  0  1  0  0  0  0  0999 V2000
  -12.4318  -24.6081   -1.9393 P   0  0  0  0  0  0  0  0  0  0  0  0
  -12.6581  -26.0018   -1.3719 O   0  0  0  0  0  0  0  0  0  0  0  0
  -13.5021  -23.6249   -1.4475 O   0  0  0  0  0  0  0  0  0  0  0  0
  -12.2590  -24.5408   -3.4562 O   0  0  0  0  0  0  0  0  0  0  0  0
  -11.0379  -24.0572   -1.3131 O   0  0  0  0  0  0  0  0  0  0  0  0
   -9.5778  -24.7372   -1.3395 P   0  0  2  0  0  0  0  0  0  0  0  0
   -9.5487  -26.2323   -1.1187 O   0  0  0  0  0  0  0  0  0  0  0  0
   -8.6037  -23.9244   -0.4794 O   0  0  0  0  0  0  0  0  0  0  0  0
   -9.0845  -24.4636   -2.8703 O   0  0  0  0  0  0  0  0  0  0  0  0
   -8.7769  -23.1459   -3.2748 C   0  0  0  0  0  0  0  0  0  0  0  0
   -7.6613  -23.2374   -4.3237 C   0  0  1  0  0  0  0  0  0  0  0  0
   -7.7796  -22.1544   -5.2834 O   0  0  0  0  0  0  0  0  0  0  0  0
   -6.2673  -23.1478   -3.6888 C   0  0  1  0  0  0  0  0  0  0  0  0
   -5.3864  -24.1568   -4.2195 O   0  0  0  0  0  0  0  0  0  0  0  0
   -5.7109  -21.8060   -4.1416 C   0  0  1  0  0  0  0  0  0  0  0  0
   -4.3033  -21.8803   -4.4468 O   0  0  0  0  0  0  0  0  0  0  0  0
   -6.5345  -21.4752   -5.3791 C   0  0  2  0  0  0  0  0  0  0  0  0
   -6.7966  -20.0596   -5.5810 N   0  3  0  0  0  0  0  0  0  0  0  0
   -7.0629  -19.1229   -4.6014 C   0  0  0  0  0  0  0  0  0  0  0  0
   -7.2277  -17.9083   -5.0931 N   0  0  0  0  0  0  0  0  0  0  0  0
   -7.1179  -18.0686   -6.4467 C   0  0  0  0  0  0  0  0  0  0  0  0
   -7.2464  -17.0767   -7.5256 C   0  0  0  0  0  0  0  0  0  0  0  0
   -7.4799  -15.8841   -7.3648 O   0  0  0  0  0  0  0  0  0  0  0  0
   -7.0521  -17.6175   -8.7901 N   0  3  0  0  0  0  0  0  0  0  0  0
   -6.7651  -18.9441   -9.0676 C   0  0  0  0  0  0  0  0  0  0  0  0
   -6.6379  -19.2540  -10.2949 N   0  0  0  0  0  0  0  0  0  0  0  0
   -6.6238  -19.8250   -8.0059 N   0  3  0  0  0  0  0  0  0  0  0  0
   -6.8226  -19.3734   -6.7705 C   0  0  0  0  0  0  0  0  0  0  0  0
   -8.4344  -22.5411   -2.4289 H   0  0  0  0  0  0  0  0  0  0  0  0
   -9.6593  -22.6533   -3.6932 H   0  0  0  0  0  0  0  0  0  0  0  0
   -7.7489  -24.1775   -4.8847 H   0  0  0  0  0  0  0  0  0  0  0  0
   -6.2890  -23.2269   -2.5948 H   0  0  0  0  0  0  0  0  0  0  0  0
   -4.5997  -24.1218   -3.6444 H   0  0  0  0  0  0  0  0  0  0  0  0
   -5.8352  -21.0652   -3.3509 H   0  0  0  0  0  0  0  0  0  0  0  0
   -4.2205  -22.6159   -5.0873 H   0  0  0  0  0  0  0  0  0  0  0  0
   -6.0193  -21.8372   -6.2795 H   0  0  0  0  0  0  0  0  0  0  0  0
   -7.1196  -19.3743   -3.5480 H   0  0  0  0  0  0  0  0  0  0  0  0
   -7.1490  -16.9942   -9.5746 H   0  0  0  0  0  0  0  0  0  0  0  0
   -6.4325  -20.2609  -10.3417 H   0  0  0  0  0  0  0  0  0  0  0  0
   -6.5019  -20.8083   -8.2246 H   0  0  0  0  0  0  0  0  0  0  0  0
  1  2  2  0  0  0  0
  1  3  1  0  0  0  0
  1  4  1  0  0  0  0
  1  5  1  0  0  0  0
  6  5  1  1  0  0  0
  6  7  2  0  0  0  0
  6  8  1  0  0  0  0
  6  9  1  0  0  0  0
  9 10  1  0  0  0  0
 10 11  1  0  0  0  0
 10 29  1  0  0  0  0
 10 30  1  0  0  0  0
 11 12  1  0  0  0  0
 11 13  1  0  0  0  0
 11 31  1  6  0  0  0
 12 17  1  0  0  0  0
 13 14  1  0  0  0  0
 13 15  1  0  0  0  0
 13 32  1  1  0  0  0
 14 33  1  0  0  0  0
 15 16  1  0  0  0  0
 15 17  1  0  0  0  0
 15 34  1  1  0  0  0
 16 35  1  0  0  0  0
 17 18  1  0  0  0  0
 17 36  1  6  0  0  0
 18 19  2  0  0  0  0
 18 28  1  0  0  0  0
 19 20  1  0  0  0  0
 19 37  1  0  0  0  0
 20 21  2  0  0  0  0
 21 22  1  0  0  0  0
 21 28  1  0  0  0  0
 22 23  2  0  0  0  0
 22 24  1  0  0  0  0
 24 25  1  0  0  0  0
 24 38  1  0  0  0  0
 25 26  2  0  0  0  0
 25 27  1  0  0  0  0
 26 39  1  0  0  0  0
 27 28  2  0  0  0  0
 27 40  1  0  0  0  0
M  CHG  3  18   1  24   1  27   1
M  END
$$$$
