GDP
 OpenBabel04111921393D

 40 42  0  0  1  0  0  0  0  0999 V2000
  -30.1238  -17.3521   18.8207 P   0  0  0  0  0  0  0  0  0  0  0  0
  -31.3941  -16.5688   19.1542 O   0  0  0  0  0  0  0  0  0  0  0  0
  -29.8197  -17.3046   17.3195 O   0  0  0  0  0  0  0  0  0  0  0  0
  -28.9156  -16.9923   19.6748 O   0  0  0  0  0  0  0  0  0  0  0  0
  -30.4814  -18.9021   19.1105 O   0  0  0  0  0  0  0  0  0  0  0  0
  -30.4765  -19.8434   20.4020 P   0  0  1  0  0  0  0  0  0  0  0  0
  -29.1889  -20.6301   20.5969 O   0  0  0  0  0  0  0  0  0  0  0  0
  -31.2323  -19.3448   21.6239 O   0  0  0  0  0  0  0  0  0  0  0  0
  -31.4780  -21.0236   19.8230 O   0  0  0  0  0  0  0  0  0  0  0  0
  -32.8309  -20.6581   19.6329 C   0  0  0  0  0  0  0  0  0  0  0  0
  -33.6878  -21.9249   19.6132 C   0  0  1  0  0  0  0  0  0  0  0  0
  -33.3408  -22.7872   18.4882 O   0  0  0  0  0  0  0  0  0  0  0  0
  -33.5169  -22.7596   20.8872 C   0  0  1  0  0  0  0  0  0  0  0  0
  -34.7741  -23.3994   21.2169 O   0  0  0  0  0  0  0  0  0  0  0  0
  -32.5075  -23.8218   20.4859 C   0  0  1  0  0  0  0  0  0  0  0  0
  -32.6506  -25.0042   21.2945 O   0  0  0  0  0  0  0  0  0  0  0  0
  -32.8834  -24.0394   19.0227 C   0  0  2  0  0  0  0  0  0  0  0  0
  -31.8263  -24.5873   18.1892 N   0  3  0  0  0  0  0  0  0  0  0  0
  -30.5372  -24.1077   18.0833 C   0  0  0  0  0  0  0  0  0  0  0  0
  -29.7721  -24.8904   17.3390 N   0  0  0  0  0  0  0  0  0  0  0  0
  -30.6005  -25.8881   16.9064 C   0  0  0  0  0  0  0  0  0  0  0  0
  -30.3183  -27.0298   16.0413 C   0  0  0  0  0  0  0  0  0  0  0  0
  -29.2259  -27.3081   15.5488 O   0  0  0  0  0  0  0  0  0  0  0  0
  -31.4292  -27.8424   15.8191 N   0  3  0  0  0  0  0  0  0  0  0  0
  -32.6798  -27.6536   16.3680 C   0  0  0  0  0  0  0  0  0  0  0  0
  -33.5662  -28.5464   16.0593 N   0  0  0  0  0  0  0  0  0  0  0  0
  -32.8900  -26.5741   17.1841 N   0  3  0  0  0  0  0  0  0  0  0  0
  -31.8634  -25.7240   17.4252 C   0  0  0  0  0  0  0  0  0  0  0  0
  -32.9248  -20.1096   18.6930 H   0  0  0  0  0  0  0  0  0  0  0  0
  -33.1856  -20.0232   20.4527 H   0  0  0  0  0  0  0  0  0  0  0  0
  -34.7370  -21.6420   19.4759 H   0  0  0  0  0  0  0  0  0  0  0  0
  -33.2110  -22.1893   21.7691 H   0  0  0  0  0  0  0  0  0  0  0  0
  -34.5741  -23.9590   21.9884 H   0  0  0  0  0  0  0  0  0  0  0  0
  -31.4818  -23.4573   20.5904 H   0  0  0  0  0  0  0  0  0  0  0  0
  -32.2056  -24.7828   22.1340 H   0  0  0  0  0  0  0  0  0  0  0  0
  -33.7290  -24.7358   18.9580 H   0  0  0  0  0  0  0  0  0  0  0  0
  -30.2103  -23.1952   18.5827 H   0  0  0  0  0  0  0  0  0  0  0  0
  -31.2918  -28.6495   15.2359 H   0  0  0  0  0  0  0  0  0  0  0  0
  -34.4385  -28.2988   16.5259 H   0  0  0  0  0  0  0  0  0  0  0  0
  -33.8117  -26.4149   17.5607 H   0  0  0  0  0  0  0  0  0  0  0  0
  1  2  2  0  0  0  0
  1  3  1  0  0  0  0
  1  4  1  0  0  0  0
  1  5  1  0  0  0  0
  6  5  1  6  0  0  0
  6  7  2  0  0  0  0
  6  8  1  0  0  0  0
  6  9  1  0  0  0  0
  9 10  1  0  0  0  0
 10 11  1  0  0  0  0
 10 29  1  0  0  0  0
 10 30  1  0  0  0  0
 11 12  1  0  0  0  0
 11 13  1  0  0  0  0
 11 31  1  6  0  0  0
 12 17  1  0  0  0  0
 13 14  1  0  0  0  0
 13 15  1  0  0  0  0
 13 32  1  1  0  0  0
 14 33  1  0  0  0  0
 15 16  1  0  0  0  0
 15 17  1  0  0  0  0
 15 34  1  1  0  0  0
 16 35  1  0  0  0  0
 17 18  1  0  0  0  0
 17 36  1  6  0  0  0
 18 19  2  0  0  0  0
 18 28  1  0  0  0  0
 19 20  1  0  0  0  0
 19 37  1  0  0  0  0
 20 21  2  0  0  0  0
 21 22  1  0  0  0  0
 21 28  1  0  0  0  0
 22 23  2  0  0  0  0
 22 24  1  0  0  0  0
 24 25  1  0  0  0  0
 24 38  1  0  0  0  0
 25 26  2  0  0  0  0
 25 27  1  0  0  0  0
 26 39  1  0  0  0  0
 27 28  2  0  0  0  0
 27 40  1  0  0  0  0
M  CHG  3  18   1  24   1  27   1
M  END
$$$$
