GDP
 OpenBabel04111920063D

 40 42  0  0  1  0  0  0  0  0999 V2000
   -7.0736   36.2932   30.1840 P   0  0  0  0  0  0  0  0  0  0  0  0
   -6.3542   36.6793   31.4693 O   0  0  0  0  0  0  0  0  0  0  0  0
   -6.3609   35.2040   29.3786 O   0  0  0  0  0  0  0  0  0  0  0  0
   -8.5489   35.9489   30.4036 O   0  0  0  0  0  0  0  0  0  0  0  0
   -7.0959   37.5955   29.2124 O   0  0  0  0  0  0  0  0  0  0  0  0
   -6.2230   38.9404   29.1879 P   0  0  2  0  0  0  0  0  0  0  0  0
   -4.7472   38.7605   28.8754 O   0  0  0  0  0  0  0  0  0  0  0  0
   -6.6720   39.9936   30.1866 O   0  0  0  0  0  0  0  0  0  0  0  0
   -6.7976   39.5965   27.7887 O   0  0  0  0  0  0  0  0  0  0  0  0
   -6.5840   38.9078   26.5769 C   0  0  0  0  0  0  0  0  0  0  0  0
   -6.4569   39.9202   25.4263 C   0  0  1  0  0  0  0  0  0  0  0  0
   -7.7268   40.5993   25.1984 O   0  0  0  0  0  0  0  0  0  0  0  0
   -5.4098   41.0188   25.6501 C   0  0  1  0  0  0  0  0  0  0  0  0
   -4.8742   41.4488   24.3661 O   0  0  0  0  0  0  0  0  0  0  0  0
   -6.2073   42.1857   26.2102 C   0  0  1  0  0  0  0  0  0  0  0  0
   -5.5991   43.4575   25.8969 O   0  0  0  0  0  0  0  0  0  0  0  0
   -7.5428   41.9895   25.4989 C   0  0  2  0  0  0  0  0  0  0  0  0
   -8.6978   42.4996   26.2068 N   0  3  0  0  0  0  0  0  0  0  0  0
   -9.0926   42.1699   27.4875 C   0  0  0  0  0  0  0  0  0  0  0  0
  -10.1614   42.8367   27.8653 N   0  0  0  0  0  0  0  0  0  0  0  0
  -10.5065   43.6080   26.7903 C   0  0  0  0  0  0  0  0  0  0  0  0
  -11.6315   44.5119   26.6088 C   0  0  0  0  0  0  0  0  0  0  0  0
  -12.5085   44.7570   27.4425 O   0  0  0  0  0  0  0  0  0  0  0  0
  -11.6498   45.1205   25.3573 N   0  3  0  0  0  0  0  0  0  0  0  0
  -10.7167   44.9270   24.3574 C   0  0  0  0  0  0  0  0  0  0  0  0
  -10.9019   45.5937   23.2767 N   0  0  0  0  0  0  0  0  0  0  0  0
   -9.6911   44.0543   24.5740 N   0  3  0  0  0  0  0  0  0  0  0  0
   -9.6041   43.4171   25.7676 C   0  0  0  0  0  0  0  0  0  0  0  0
   -7.4493   38.2645   26.4027 H   0  0  0  0  0  0  0  0  0  0  0  0
   -5.6811   38.2876   26.6148 H   0  0  0  0  0  0  0  0  0  0  0  0
   -6.2444   39.3717   24.5007 H   0  0  0  0  0  0  0  0  0  0  0  0
   -4.5683   40.7137   26.2787 H   0  0  0  0  0  0  0  0  0  0  0  0
   -4.1003   41.9935   24.6019 H   0  0  0  0  0  0  0  0  0  0  0  0
   -6.3017   42.1117   27.2977 H   0  0  0  0  0  0  0  0  0  0  0  0
   -5.5447   43.5121   24.9290 H   0  0  0  0  0  0  0  0  0  0  0  0
   -7.5139   42.5057   24.5279 H   0  0  0  0  0  0  0  0  0  0  0  0
   -8.5472   41.4399   28.0899 H   0  0  0  0  0  0  0  0  0  0  0  0
  -12.4117   45.7492   25.1650 H   0  0  0  0  0  0  0  0  0  0  0  0
  -10.1575   45.3519   22.6189 H   0  0  0  0  0  0  0  0  0  0  0  0
   -9.0373   43.8712   23.8227 H   0  0  0  0  0  0  0  0  0  0  0  0
  1  2  2  0  0  0  0
  1  3  1  0  0  0  0
  1  4  1  0  0  0  0
  1  5  1  0  0  0  0
  6  5  1  1  0  0  0
  6  7  2  0  0  0  0
  6  8  1  0  0  0  0
  6  9  1  0  0  0  0
  9 10  1  0  0  0  0
 10 11  1  0  0  0  0
 10 29  1  0  0  0  0
 10 30  1  0  0  0  0
 11 12  1  0  0  0  0
 11 13  1  0  0  0  0
 11 31  1  6  0  0  0
 12 17  1  0  0  0  0
 13 14  1  0  0  0  0
 13 15  1  0  0  0  0
 13 32  1  1  0  0  0
 14 33  1  0  0  0  0
 15 16  1  0  0  0  0
 15 17  1  0  0  0  0
 15 34  1  1  0  0  0
 16 35  1  0  0  0  0
 17 18  1  0  0  0  0
 17 36  1  6  0  0  0
 18 19  2  0  0  0  0
 18 28  1  0  0  0  0
 19 20  1  0  0  0  0
 19 37  1  0  0  0  0
 20 21  2  0  0  0  0
 21 22  1  0  0  0  0
 21 28  1  0  0  0  0
 22 23  2  0  0  0  0
 22 24  1  0  0  0  0
 24 25  1  0  0  0  0
 24 38  1  0  0  0  0
 25 26  2  0  0  0  0
 25 27  1  0  0  0  0
 26 39  1  0  0  0  0
 27 28  2  0  0  0  0
 27 40  1  0  0  0  0
M  CHG  3  18   1  24   1  27   1
M  END
$$$$
