GDP
 OpenBabel04111921133D

 40 42  0  0  1  0  0  0  0  0999 V2000
   28.2703    2.7496    5.0052 P   0  0  0  0  0  0  0  0  0  0  0  0
   28.7213    3.7998    6.0105 O   0  0  0  0  0  0  0  0  0  0  0  0
   29.1618    1.5029    5.0429 O   0  0  0  0  0  0  0  0  0  0  0  0
   28.0892    3.2706    3.5800 O   0  0  0  0  0  0  0  0  0  0  0  0
   26.8269    2.2013    5.4831 O   0  0  0  0  0  0  0  0  0  0  0  0
   25.3591    2.7312    5.7892 P   0  0  2  0  0  0  0  0  0  0  0  0
   25.2503    4.0226    6.5719 O   0  0  0  0  0  0  0  0  0  0  0  0
   24.4942    1.5679    6.2931 O   0  0  0  0  0  0  0  0  0  0  0  0
   24.7426    3.0434    4.3121 O   0  0  0  0  0  0  0  0  0  0  0  0
   24.6681    1.9937    3.3760 C   0  0  0  0  0  0  0  0  0  0  0  0
   23.6393    2.4168    2.3270 C   0  0  1  0  0  0  0  0  0  0  0  0
   23.7529    1.5854    1.1428 O   0  0  0  0  0  0  0  0  0  0  0  0
   22.1831    2.2854    2.8155 C   0  0  1  0  0  0  0  0  0  0  0  0
   21.3593    3.2799    2.1612 O   0  0  0  0  0  0  0  0  0  0  0  0
   21.7723    0.9135    2.2819 C   0  0  1  0  0  0  0  0  0  0  0  0
   20.3521    0.7704    2.1296 O   0  0  0  0  0  0  0  0  0  0  0  0
   22.4941    0.9395    0.9380 C   0  0  2  0  0  0  0  0  0  0  0  0
   22.7378   -0.3154    0.2803 N   0  3  0  0  0  0  0  0  0  0  0  0
   23.0986   -1.5224    0.8180 C   0  0  0  0  0  0  0  0  0  0  0  0
   23.2875   -2.4567   -0.1096 N   0  0  0  0  0  0  0  0  0  0  0  0
   23.1206   -1.8026   -1.3026 C   0  0  0  0  0  0  0  0  0  0  0  0
   23.2773   -2.2682   -2.6834 C   0  0  0  0  0  0  0  0  0  0  0  0
   23.5856   -3.4089   -3.0141 O   0  0  0  0  0  0  0  0  0  0  0  0
   23.0234   -1.2763   -3.6327 N   0  3  0  0  0  0  0  0  0  0  0  0
   22.6457    0.0147   -3.3651 C   0  0  0  0  0  0  0  0  0  0  0  0
   22.4456    0.7822   -4.3818 N   0  0  0  0  0  0  0  0  0  0  0  0
   22.5021    0.4019   -2.0534 N   0  3  0  0  0  0  0  0  0  0  0  0
   22.7601   -0.4943   -1.0777 C   0  0  0  0  0  0  0  0  0  0  0  0
   24.3669    1.0477    3.8438 H   0  0  0  0  0  0  0  0  0  0  0  0
   25.6467    1.8355    2.9160 H   0  0  0  0  0  0  0  0  0  0  0  0
   23.8339    3.4491    2.0170 H   0  0  0  0  0  0  0  0  0  0  0  0
   22.0490    2.3951    3.8957 H   0  0  0  0  0  0  0  0  0  0  0  0
   20.4998    3.2610    2.6123 H   0  0  0  0  0  0  0  0  0  0  0  0
   22.1369    0.1136    2.9342 H   0  0  0  0  0  0  0  0  0  0  0  0
   19.9680    0.8688    3.0175 H   0  0  0  0  0  0  0  0  0  0  0  0
   21.9069    1.5559    0.2421 H   0  0  0  0  0  0  0  0  0  0  0  0
   23.2302   -1.6664    1.8752 H   0  0  0  0  0  0  0  0  0  0  0  0
   23.1401   -1.5302   -4.5995 H   0  0  0  0  0  0  0  0  0  0  0  0
   22.1849    1.7100   -4.0423 H   0  0  0  0  0  0  0  0  0  0  0  0
   22.3137    1.3750   -1.8512 H   0  0  0  0  0  0  0  0  0  0  0  0
  1  2  2  0  0  0  0
  1  3  1  0  0  0  0
  1  4  1  0  0  0  0
  1  5  1  0  0  0  0
  6  5  1  6  0  0  0
  6  7  2  0  0  0  0
  6  8  1  0  0  0  0
  6  9  1  0  0  0  0
  9 10  1  0  0  0  0
 10 11  1  0  0  0  0
 10 29  1  0  0  0  0
 10 30  1  0  0  0  0
 11 12  1  0  0  0  0
 11 13  1  0  0  0  0
 11 31  1  6  0  0  0
 12 17  1  0  0  0  0
 13 14  1  0  0  0  0
 13 15  1  0  0  0  0
 13 32  1  1  0  0  0
 14 33  1  0  0  0  0
 15 16  1  0  0  0  0
 15 17  1  0  0  0  0
 15 34  1  1  0  0  0
 16 35  1  0  0  0  0
 17 18  1  0  0  0  0
 17 36  1  6  0  0  0
 18 19  2  0  0  0  0
 18 28  1  0  0  0  0
 19 20  1  0  0  0  0
 19 37  1  0  0  0  0
 20 21  2  0  0  0  0
 21 22  1  0  0  0  0
 21 28  1  0  0  0  0
 22 23  2  0  0  0  0
 22 24  1  0  0  0  0
 24 25  1  0  0  0  0
 24 38  1  0  0  0  0
 25 26  2  0  0  0  0
 25 27  1  0  0  0  0
 26 39  1  0  0  0  0
 27 28  2  0  0  0  0
 27 40  1  0  0  0  0
M  CHG  3  18   1  24   1  27   1
M  END
$$$$
