GDS
 OpenBabel04111922533D

 70 69  0  0  1  0  0  0  0  0999 V2000
   25.0740   -4.1322   12.9521 N   0  3  0  0  0  0  0  0  0  0  0  0
   23.8548   -3.4135   12.4492 C   0  0  2  0  0  0  0  0  0  0  0  0
   22.5944   -3.6963   13.3289 C   0  0  0  0  0  0  0  0  0  0  0  0
   21.7057   -2.8109   13.3420 O   0  0  0  0  0  0  0  0  0  0  0  0
   22.6699   -4.7990   13.9551 O   0  0  0  0  0  0  0  0  0  0  0  0
   23.5898   -3.8824   11.0134 C   0  0  0  0  0  0  0  0  0  0  0  0
   22.5637   -2.9842   10.3204 C   0  0  0  0  0  0  0  0  0  0  0  0
   23.1555   -1.6174   10.0738 C   0  0  0  0  0  0  0  0  0  0  0  0
   24.3637   -1.4403    9.9461 O   0  0  0  0  0  0  0  0  0  0  0  0
   22.2309   -0.6259    9.9086 N   0  0  0  0  0  0  0  0  0  0  0  0
   22.6520    0.7593    9.7173 C   0  0  2  0  0  0  0  0  0  0  0  0
   22.0480    1.6343   10.8081 C   0  0  0  0  0  0  0  0  0  0  0  0
   20.9503    1.3878   11.3055 O   0  0  0  0  0  0  0  0  0  0  0  0
   22.1712    1.2866    8.3721 C   0  0  0  0  0  0  0  0  0  0  0  0
   23.0097    0.4764    6.9530 S   0  0  0  0  0  0  0  0  0  0  0  0
   22.7943    2.7563   11.0854 N   0  0  0  0  0  0  0  0  0  0  0  0
   22.3313    3.8258   11.9624 C   0  0  0  0  0  0  0  0  0  0  0  0
   22.7002    5.2466   11.4746 C   0  0  0  0  0  0  0  0  0  0  0  0
   22.8041    6.1202   12.3903 O   0  0  0  0  0  0  0  0  0  0  0  0
   22.9359    5.3609   10.2384 O   0  0  0  0  0  0  0  0  0  0  0  0
   27.0744   -1.4676    9.2247 N   0  0  0  0  0  0  0  0  0  0  0  0
   27.9731   -2.5741    9.5857 C   0  0  0  0  0  0  0  0  0  0  0  0
   27.6465   -3.3425   10.8835 C   0  0  0  0  0  0  0  0  0  0  0  0
   26.8980   -2.7948   11.7462 O   0  0  0  0  0  0  0  0  0  0  0  0
   28.0767   -4.5453   10.9409 O   0  0  0  0  0  0  0  0  0  0  0  0
   27.5536   -0.2338    8.8468 C   0  0  0  0  0  0  0  0  0  0  0  0
   28.7438   -0.0142    8.6054 O   0  0  0  0  0  0  0  0  0  0  0  0
   26.4790    0.8377    8.5541 C   0  0  1  0  0  0  0  0  0  0  0  0
   27.0433    2.1556    8.8637 N   0  0  0  0  0  0  0  0  0  0  0  0
   26.0774    0.6901    7.0947 C   0  0  0  0  0  0  0  0  0  0  0  0
   24.6304    1.6974    6.6017 S   0  0  0  0  0  0  0  0  0  0  0  0
   27.4969    6.0382   11.9114 C   0  0  1  0  0  0  0  0  0  0  0  0
   27.8807    7.0944   10.8338 C   0  0  0  0  0  0  0  0  0  0  0  0
   27.0595    8.0526   10.7774 O   0  0  0  0  0  0  0  0  0  0  0  0
   29.0167    6.9441   10.3160 O   0  0  0  0  0  0  0  0  0  0  0  0
   26.7617    6.6637   13.0783 N   0  3  0  0  0  0  0  0  0  0  0  0
   26.6031    4.9663   11.3116 C   0  0  0  0  0  0  0  0  0  0  0  0
   27.3507    4.1317   10.2632 C   0  0  0  0  0  0  0  0  0  0  0  0
   26.5770    2.8703    9.9380 C   0  0  0  0  0  0  0  0  0  0  0  0
   25.6206    2.4996   10.6083 O   0  0  0  0  0  0  0  0  0  0  0  0
   25.9204   -3.8624   12.3959 H   0  0  0  0  0  0  0  0  0  0  0  0
   25.2541   -3.8174   13.9040 H   0  0  0  0  0  0  0  0  0  0  0  0
   24.1142   -2.3507   12.4954 H   0  0  0  0  0  0  0  0  0  0  0  0
   23.2269   -4.9179   11.0008 H   0  0  0  0  0  0  0  0  0  0  0  0
   24.5240   -3.8813   10.4345 H   0  0  0  0  0  0  0  0  0  0  0  0
   21.6424   -2.9052   10.9017 H   0  0  0  0  0  0  0  0  0  0  0  0
   22.2938   -3.4028    9.3448 H   0  0  0  0  0  0  0  0  0  0  0  0
   21.2627   -0.7789   10.1726 H   0  0  0  0  0  0  0  0  0  0  0  0
   23.7344    0.8306    9.8000 H   0  0  0  0  0  0  0  0  0  0  0  0
   22.2781    2.3729    8.2880 H   0  0  0  0  0  0  0  0  0  0  0  0
   21.0992    1.0728    8.2672 H   0  0  0  0  0  0  0  0  0  0  0  0
   23.6666    2.9411   10.5956 H   0  0  0  0  0  0  0  0  0  0  0  0
   22.7988    3.6441   12.9370 H   0  0  0  0  0  0  0  0  0  0  0  0
   21.2466    3.7529   12.0781 H   0  0  0  0  0  0  0  0  0  0  0  0
   26.1027   -1.5527    9.5573 H   0  0  0  0  0  0  0  0  0  0  0  0
   29.0011   -2.2022    9.6473 H   0  0  0  0  0  0  0  0  0  0  0  0
   27.9252   -3.2794    8.7482 H   0  0  0  0  0  0  0  0  0  0  0  0
   25.6378    0.6301    9.2192 H   0  0  0  0  0  0  0  0  0  0  0  0
   27.9449    2.3825    8.4619 H   0  0  0  0  0  0  0  0  0  0  0  0
   25.8956   -0.3559    6.8239 H   0  0  0  0  0  0  0  0  0  0  0  0
   26.9080    1.0269    6.4602 H   0  0  0  0  0  0  0  0  0  0  0  0
   28.4001    5.5979   12.3450 H   0  0  0  0  0  0  0  0  0  0  0  0
   26.4596    5.9990   13.7901 H   0  0  0  0  0  0  0  0  0  0  0  0
   27.3432    7.4166   13.4543 H   0  0  0  0  0  0  0  0  0  0  0  0
   25.7170    5.4142   10.8442 H   0  0  0  0  0  0  0  0  0  0  0  0
   26.2314    4.3192   12.1179 H   0  0  0  0  0  0  0  0  0  0  0  0
   28.3370    3.8459   10.6492 H   0  0  0  0  0  0  0  0  0  0  0  0
   27.4920    4.7142    9.3464 H   0  0  0  0  0  0  0  0  0  0  0  0
   24.8961   -5.1369   12.9900 H   0  0  0  0  0  0  0  0  0  0  0  0
   25.9335    7.1361   12.6673 H   0  0  0  0  0  0  0  0  0  0  0  0
  1  2  1  0  0  0  0
  1 41  1  0  0  0  0
  1 42  1  0  0  0  0
  1 69  1  0  0  0  0
  2  3  1  0  0  0  0
  2  6  1  0  0  0  0
  2 43  1  6  0  0  0
  3  4  2  0  0  0  0
  3  5  1  0  0  0  0
  6  7  1  0  0  0  0
  6 44  1  0  0  0  0
  6 45  1  0  0  0  0
  7  8  1  0  0  0  0
  7 46  1  0  0  0  0
  7 47  1  0  0  0  0
  8  9  2  0  0  0  0
  8 10  1  0  0  0  0
 10 11  1  0  0  0  0
 10 48  1  0  0  0  0
 11 12  1  0  0  0  0
 11 14  1  0  0  0  0
 11 49  1  1  0  0  0
 12 13  2  0  0  0  0
 12 16  1  0  0  0  0
 14 15  1  0  0  0  0
 14 50  1  0  0  0  0
 14 51  1  0  0  0  0
 15 31  1  0  0  0  0
 16 17  1  0  0  0  0
 16 52  1  0  0  0  0
 17 18  1  0  0  0  0
 17 53  1  0  0  0  0
 17 54  1  0  0  0  0
 18 19  2  0  0  0  0
 18 20  1  0  0  0  0
 21 22  1  0  0  0  0
 21 26  1  0  0  0  0
 21 55  1  0  0  0  0
 22 23  1  0  0  0  0
 22 56  1  0  0  0  0
 22 57  1  0  0  0  0
 23 24  2  0  0  0  0
 23 25  1  0  0  0  0
 26 27  2  0  0  0  0
 26 28  1  0  0  0  0
 28 29  1  0  0  0  0
 28 30  1  0  0  0  0
 28 58  1  1  0  0  0
 29 39  1  0  0  0  0
 29 59  1  0  0  0  0
 30 31  1  0  0  0  0
 30 60  1  0  0  0  0
 30 61  1  0  0  0  0
 32 33  1  0  0  0  0
 32 36  1  0  0  0  0
 32 37  1  0  0  0  0
 32 62  1  1  0  0  0
 33 34  2  0  0  0  0
 33 35  1  0  0  0  0
 36 63  1  0  0  0  0
 36 64  1  0  0  0  0
 36 70  1  0  0  0  0
 37 38  1  0  0  0  0
 37 65  1  0  0  0  0
 37 66  1  0  0  0  0
 38 39  1  0  0  0  0
 38 67  1  0  0  0  0
 38 68  1  0  0  0  0
 39 40  2  0  0  0  0
M  CHG  2   1   1  36   1
M  END
$$$$
