GDS
 OpenBabel04111918493D

 70 69  0  0  1  0  0  0  0  0999 V2000
    6.1631   19.7060    3.8128 N   0  3  0  0  0  0  0  0  0  0  0  0
    5.3025   20.2527    4.9358 C   0  0  2  0  0  0  0  0  0  0  0  0
    6.1268   21.0278    6.0100 C   0  0  0  0  0  0  0  0  0  0  0  0
    7.3119   20.6061    6.1288 O   0  0  0  0  0  0  0  0  0  0  0  0
    5.5613   22.0505    6.4820 O   0  0  0  0  0  0  0  0  0  0  0  0
    4.5225   19.1033    5.5607 C   0  0  0  0  0  0  0  0  0  0  0  0
    3.5808   19.5858    6.6732 C   0  0  0  0  0  0  0  0  0  0  0  0
    2.7121   18.4609    7.1762 C   0  0  0  0  0  0  0  0  0  0  0  0
    2.7772   17.3202    6.7440 O   0  0  0  0  0  0  0  0  0  0  0  0
    1.8522   18.8360    8.1884 N   0  0  0  0  0  0  0  0  0  0  0  0
    0.8829   17.8978    8.7454 C   0  0  2  0  0  0  0  0  0  0  0  0
   -0.5247   18.4157    8.5022 C   0  0  0  0  0  0  0  0  0  0  0  0
   -0.7893   19.6211    8.6211 O   0  0  0  0  0  0  0  0  0  0  0  0
    1.0358   17.7788   10.2579 C   0  0  0  0  0  0  0  0  0  0  0  0
    2.5582   16.8978   10.7645 S   0  0  0  0  0  0  0  0  0  0  0  0
   -1.4690   17.4378    8.3032 N   0  0  0  0  0  0  0  0  0  0  0  0
   -2.8570   17.7744    7.9810 C   0  0  0  0  0  0  0  0  0  0  0  0
   -3.4537   17.1020    6.7424 C   0  0  0  0  0  0  0  0  0  0  0  0
   -4.7113   17.1309    6.6442 O   0  0  0  0  0  0  0  0  0  0  0  0
   -2.6820   16.4824    5.9351 O   0  0  0  0  0  0  0  0  0  0  0  0
    3.9561   14.7485    6.3353 N   0  0  0  0  0  0  0  0  0  0  0  0
    5.0297   14.5404    5.3569 C   0  0  0  0  0  0  0  0  0  0  0  0
    6.2183   15.5274    5.5028 C   0  0  0  0  0  0  0  0  0  0  0  0
    6.4834   15.8993    6.6765 O   0  0  0  0  0  0  0  0  0  0  0  0
    6.7509   15.9157    4.4102 O   0  0  0  0  0  0  0  0  0  0  0  0
    3.2239   13.7288    6.8935 C   0  0  0  0  0  0  0  0  0  0  0  0
    3.3827   12.5371    6.6135 O   0  0  0  0  0  0  0  0  0  0  0  0
    2.2350   14.1607    7.9901 C   0  0  1  0  0  0  0  0  0  0  0  0
    1.0907   13.2326    8.0512 N   0  0  0  0  0  0  0  0  0  0  0  0
    2.9832   14.1875    9.3214 C   0  0  0  0  0  0  0  0  0  0  0  0
    2.0083   14.9101   10.7100 S   0  0  0  0  0  0  0  0  0  0  0  0
   -2.1769   13.2734    5.5429 C   0  0  1  0  0  0  0  0  0  0  0  0
   -1.9821   11.9157    4.7978 C   0  0  0  0  0  0  0  0  0  0  0  0
   -3.0012   11.5953    4.0970 O   0  0  0  0  0  0  0  0  0  0  0  0
   -0.8866   11.3288    4.9575 O   0  0  0  0  0  0  0  0  0  0  0  0
   -3.2978   14.0917    4.9554 N   0  3  0  0  0  0  0  0  0  0  0  0
   -2.4955   12.9851    7.0176 C   0  0  0  0  0  0  0  0  0  0  0  0
   -1.2450   12.5705    7.8096 C   0  0  0  0  0  0  0  0  0  0  0  0
   -0.1882   13.6606    7.8096 C   0  0  0  0  0  0  0  0  0  0  0  0
   -0.4823   14.8480    7.6894 O   0  0  0  0  0  0  0  0  0  0  0  0
    5.6468   19.1841    3.1038 H   0  0  0  0  0  0  0  0  0  0  0  0
    6.7040   20.4784    3.4153 H   0  0  0  0  0  0  0  0  0  0  0  0
    4.6143   20.9504    4.4450 H   0  0  0  0  0  0  0  0  0  0  0  0
    5.2075   18.3508    5.9701 H   0  0  0  0  0  0  0  0  0  0  0  0
    3.9332   18.5958    4.7838 H   0  0  0  0  0  0  0  0  0  0  0  0
    2.9402   20.3897    6.2963 H   0  0  0  0  0  0  0  0  0  0  0  0
    4.1635   19.9704    7.5194 H   0  0  0  0  0  0  0  0  0  0  0  0
    1.7807   19.8158    8.4562 H   0  0  0  0  0  0  0  0  0  0  0  0
    0.9867   16.9258    8.2677 H   0  0  0  0  0  0  0  0  0  0  0  0
    0.1711   17.2859   10.7155 H   0  0  0  0  0  0  0  0  0  0  0  0
    1.0690   18.7884   10.6965 H   0  0  0  0  0  0  0  0  0  0  0  0
   -1.1735   16.4976    8.0473 H   0  0  0  0  0  0  0  0  0  0  0  0
   -2.9551   18.8612    7.8929 H   0  0  0  0  0  0  0  0  0  0  0  0
   -3.4376   17.4696    8.8665 H   0  0  0  0  0  0  0  0  0  0  0  0
    3.8307   15.7161    6.6501 H   0  0  0  0  0  0  0  0  0  0  0  0
    4.5756   14.6595    4.3686 H   0  0  0  0  0  0  0  0  0  0  0  0
    5.3970   13.5102    5.4312 H   0  0  0  0  0  0  0  0  0  0  0  0
    1.8774   15.1563    7.7361 H   0  0  0  0  0  0  0  0  0  0  0  0
    1.3042   12.2410    8.0425 H   0  0  0  0  0  0  0  0  0  0  0  0
    3.9493   14.6964    9.2473 H   0  0  0  0  0  0  0  0  0  0  0  0
    3.2045   13.1534    9.6205 H   0  0  0  0  0  0  0  0  0  0  0  0
   -1.2898   13.8998    5.4221 H   0  0  0  0  0  0  0  0  0  0  0  0
   -3.3718   15.0327    5.4090 H   0  0  0  0  0  0  0  0  0  0  0  0
   -3.0602   14.2640    3.9773 H   0  0  0  0  0  0  0  0  0  0  0  0
   -3.2401   12.1804    7.0938 H   0  0  0  0  0  0  0  0  0  0  0  0
   -2.9480   13.8651    7.4947 H   0  0  0  0  0  0  0  0  0  0  0  0
   -0.8325   11.6355    7.4230 H   0  0  0  0  0  0  0  0  0  0  0  0
   -1.5243   12.3903    8.8548 H   0  0  0  0  0  0  0  0  0  0  0  0
    6.8608   19.0763    4.2508 H   0  0  0  0  0  0  0  0  0  0  0  0
   -4.1581   13.5417    4.9471 H   0  0  0  0  0  0  0  0  0  0  0  0
  1  2  1  0  0  0  0
  1 41  1  0  0  0  0
  1 42  1  0  0  0  0
  1 69  1  0  0  0  0
  2  3  1  0  0  0  0
  2  6  1  0  0  0  0
  2 43  1  6  0  0  0
  3  4  2  0  0  0  0
  3  5  1  0  0  0  0
  6  7  1  0  0  0  0
  6 44  1  0  0  0  0
  6 45  1  0  0  0  0
  7  8  1  0  0  0  0
  7 46  1  0  0  0  0
  7 47  1  0  0  0  0
  8  9  2  0  0  0  0
  8 10  1  0  0  0  0
 10 11  1  0  0  0  0
 10 48  1  0  0  0  0
 11 12  1  0  0  0  0
 11 14  1  0  0  0  0
 11 49  1  6  0  0  0
 12 13  2  0  0  0  0
 12 16  1  0  0  0  0
 14 15  1  0  0  0  0
 14 50  1  0  0  0  0
 14 51  1  0  0  0  0
 15 31  1  0  0  0  0
 16 17  1  0  0  0  0
 16 52  1  0  0  0  0
 17 18  1  0  0  0  0
 17 53  1  0  0  0  0
 17 54  1  0  0  0  0
 18 19  2  0  0  0  0
 18 20  1  0  0  0  0
 21 22  1  0  0  0  0
 21 26  1  0  0  0  0
 21 55  1  0  0  0  0
 22 23  1  0  0  0  0
 22 56  1  0  0  0  0
 22 57  1  0  0  0  0
 23 24  2  0  0  0  0
 23 25  1  0  0  0  0
 26 27  2  0  0  0  0
 26 28  1  0  0  0  0
 28 29  1  0  0  0  0
 28 30  1  0  0  0  0
 28 58  1  6  0  0  0
 29 39  1  0  0  0  0
 29 59  1  0  0  0  0
 30 31  1  0  0  0  0
 30 60  1  0  0  0  0
 30 61  1  0  0  0  0
 32 33  1  0  0  0  0
 32 36  1  0  0  0  0
 32 37  1  0  0  0  0
 32 62  1  6  0  0  0
 33 34  2  0  0  0  0
 33 35  1  0  0  0  0
 36 63  1  0  0  0  0
 36 64  1  0  0  0  0
 36 70  1  0  0  0  0
 37 38  1  0  0  0  0
 37 65  1  0  0  0  0
 37 66  1  0  0  0  0
 38 39  1  0  0  0  0
 38 67  1  0  0  0  0
 38 68  1  0  0  0  0
 39 40  2  0  0  0  0
M  CHG  2   1   1  36   1
M  END
$$$$
