GIF
 OpenBabel04111918243D

 24 24  0  0  1  0  0  0  0  0999 V2000
   97.8073   12.9174    8.1830 C   0  0  0  0  0  0  0  0  0  0  0  0
   98.1535   11.4665    8.2637 N   0  3  0  0  0  0  0  0  0  0  0  0
   99.0800    9.2695    4.8095 O   0  0  0  0  0  0  0  0  0  0  0  0
   97.1178   13.2591    6.8521 C   0  0  2  0  0  0  0  0  0  0  0  0
   99.2621   13.3786    5.7180 O   0  0  0  0  0  0  0  0  0  0  0  0
   97.9783   12.7578    5.6688 C   0  0  1  0  0  0  0  0  0  0  0  0
   96.9117   14.6615    6.7358 O   0  0  0  0  0  0  0  0  0  0  0  0
   98.1806   11.2397    5.8023 C   0  0  2  0  0  0  0  0  0  0  0  0
   98.9269   10.9422    7.0977 C   0  0  0  0  0  0  0  0  0  0  0  0
   98.9337   10.6702    4.5948 C   0  0  0  0  0  0  0  0  0  0  0  0
   98.7249   13.4954    8.3356 H   0  0  0  0  0  0  0  0  0  0  0  0
   97.1388   13.1340    9.0259 H   0  0  0  0  0  0  0  0  0  0  0  0
   98.7157   11.3186    9.1098 H   0  0  0  0  0  0  0  0  0  0  0  0
   98.2683    8.8195    4.5134 H   0  0  0  0  0  0  0  0  0  0  0  0
   96.1327   12.7771    6.8128 H   0  0  0  0  0  0  0  0  0  0  0  0
   99.6656   13.3383    4.8245 H   0  0  0  0  0  0  0  0  0  0  0  0
   97.4926   13.0339    4.7220 H   0  0  0  0  0  0  0  0  0  0  0  0
   96.3355   14.9821    7.4538 H   0  0  0  0  0  0  0  0  0  0  0  0
   97.1897   10.7547    5.8423 H   0  0  0  0  0  0  0  0  0  0  0  0
   99.0330    9.8614    7.2654 H   0  0  0  0  0  0  0  0  0  0  0  0
   99.9198   11.3927    7.1312 H   0  0  0  0  0  0  0  0  0  0  0  0
   98.3944   10.8354    3.6564 H   0  0  0  0  0  0  0  0  0  0  0  0
   99.9337   11.1002    4.5038 H   0  0  0  0  0  0  0  0  0  0  0  0
   97.3014   10.9119    8.3963 H   0  0  0  0  0  0  0  0  0  0  0  0
  1  2  1  0  0  0  0
  1  4  1  0  0  0  0
  1 11  1  0  0  0  0
  1 12  1  0  0  0  0
  2  9  1  0  0  0  0
  2 13  1  0  0  0  0
  2 24  1  0  0  0  0
  3 10  1  0  0  0  0
  3 14  1  0  0  0  0
  4  6  1  0  0  0  0
  4  7  1  0  0  0  0
  4 15  1  6  0  0  0
  5  6  1  0  0  0  0
  5 16  1  0  0  0  0
  6  8  1  0  0  0  0
  6 17  1  6  0  0  0
  7 18  1  0  0  0  0
  8  9  1  0  0  0  0
  8 10  1  0  0  0  0
  8 19  1  1  0  0  0
  9 20  1  0  0  0  0
  9 21  1  0  0  0  0
 10 22  1  0  0  0  0
 10 23  1  0  0  0  0
M  CHG  1   2   1
M  END
$$$$
