GLN
 OpenBabel04111919003D

 20 19  0  0  1  0  0  0  0  0999 V2000
   27.6924   21.6634   28.4633 N   0  3  0  0  0  0  0  0  0  0  0  0
   27.2765   20.7880   27.3119 C   0  0  2  0  0  0  0  0  0  0  0  0
   25.8561   21.1284   26.8051 C   0  0  0  0  0  0  0  0  0  0  0  0
   25.2281   21.8993   27.5899 O   0  0  0  0  0  0  0  0  0  0  0  0
   27.3600   19.3164   27.7089 C   0  0  0  0  0  0  0  0  0  0  0  0
   26.3589   18.8606   28.7597 C   0  0  0  0  0  0  0  0  0  0  0  0
   26.5166   17.3714   29.0507 C   0  0  0  0  0  0  0  0  0  0  0  0
   27.0641   16.5859   28.3156 O   0  0  0  0  0  0  0  0  0  0  0  0
   25.9836   16.9809   30.2471 N   0  0  0  0  0  0  0  0  0  0  0  0
   25.5396   20.6273   25.7145 O   0  0  0  0  0  0  0  0  0  0  0  0
   28.6270   21.4433   28.7898 H   0  0  0  0  0  0  0  0  0  0  0  0
   27.6314   22.6412   28.1547 H   0  0  0  0  0  0  0  0  0  0  0  0
   28.0056   20.9740   26.5127 H   0  0  0  0  0  0  0  0  0  0  0  0
   28.3709   19.1040   28.0815 H   0  0  0  0  0  0  0  0  0  0  0  0
   27.1966   18.7202   26.8020 H   0  0  0  0  0  0  0  0  0  0  0  0
   25.3398   19.0279   28.3997 H   0  0  0  0  0  0  0  0  0  0  0  0
   26.5162   19.4252   29.6849 H   0  0  0  0  0  0  0  0  0  0  0  0
   26.0424   16.0030   30.5142 H   0  0  0  0  0  0  0  0  0  0  0  0
   25.5209   17.6360   30.8564 H   0  0  0  0  0  0  0  0  0  0  0  0
   26.9946   21.5645   29.2088 H   0  0  0  0  0  0  0  0  0  0  0  0
  1  2  1  0  0  0  0
  1 11  1  0  0  0  0
  1 12  1  0  0  0  0
  1 20  1  0  0  0  0
  2  3  1  0  0  0  0
  2  5  1  0  0  0  0
  2 13  1  6  0  0  0
  3  4  2  0  0  0  0
  3 10  1  0  0  0  0
  5  6  1  0  0  0  0
  5 14  1  0  0  0  0
  5 15  1  0  0  0  0
  6  7  1  0  0  0  0
  6 16  1  0  0  0  0
  6 17  1  0  0  0  0
  7  8  2  0  0  0  0
  7  9  1  0  0  0  0
  9 18  1  0  0  0  0
  9 19  1  0  0  0  0
M  CHG  1   1   1
M  END
$$$$
