GLN
 OpenBabel04111923013D

 20 19  0  0  1  0  0  0  0  0999 V2000
    3.8790    5.6009   13.2976 N   0  3  0  0  0  0  0  0  0  0  0  0
    4.4935    6.2134   12.0493 C   0  0  2  0  0  0  0  0  0  0  0  0
    5.8178    6.9636   12.3622 C   0  0  0  0  0  0  0  0  0  0  0  0
    6.5184    7.2949   11.3825 O   0  0  0  0  0  0  0  0  0  0  0  0
    3.4506    7.1306   11.4068 C   0  0  0  0  0  0  0  0  0  0  0  0
    3.2184    8.4330   12.1819 C   0  0  0  0  0  0  0  0  0  0  0  0
    2.3202    9.3911   11.4346 C   0  0  0  0  0  0  0  0  0  0  0  0
    2.1410    9.3743   10.2212 O   0  0  0  0  0  0  0  0  0  0  0  0
    1.7079   10.3164   12.2224 N   0  0  0  0  0  0  0  0  0  0  0  0
    5.9706    7.0928   13.6175 O   0  0  0  0  0  0  0  0  0  0  0  0
    2.9994    5.1100   13.1351 H   0  0  0  0  0  0  0  0  0  0  0  0
    4.5961    4.9840   13.7038 H   0  0  0  0  0  0  0  0  0  0  0  0
    4.7047    5.3631   11.3962 H   0  0  0  0  0  0  0  0  0  0  0  0
    2.4980    6.5959   11.3163 H   0  0  0  0  0  0  0  0  0  0  0  0
    3.7692    7.3582   10.3821 H   0  0  0  0  0  0  0  0  0  0  0  0
    4.1617    8.9574   12.3523 H   0  0  0  0  0  0  0  0  0  0  0  0
    2.7671    8.2123   13.1559 H   0  0  0  0  0  0  0  0  0  0  0  0
    1.1614   11.0341   11.7673 H   0  0  0  0  0  0  0  0  0  0  0  0
    1.9074   10.4225   13.2114 H   0  0  0  0  0  0  0  0  0  0  0  0
    3.8114    6.3508   13.9938 H   0  0  0  0  0  0  0  0  0  0  0  0
  1  2  1  0  0  0  0
  1 11  1  0  0  0  0
  1 12  1  0  0  0  0
  1 20  1  0  0  0  0
  2  3  1  0  0  0  0
  2  5  1  0  0  0  0
  2 13  1  6  0  0  0
  3  4  2  0  0  0  0
  3 10  1  0  0  0  0
  5  6  1  0  0  0  0
  5 14  1  0  0  0  0
  5 15  1  0  0  0  0
  6  7  1  0  0  0  0
  6 16  1  0  0  0  0
  6 17  1  0  0  0  0
  7  8  2  0  0  0  0
  7  9  1  0  0  0  0
  9 18  1  0  0  0  0
  9 19  1  0  0  0  0
M  CHG  1   1   1
M  END
$$$$
