GNP
 OpenBabel04111919423D

 45 47  0  0  1  0  0  0  0  0999 V2000
   57.5290    4.3207   41.8119 P   0  0  0  0  0  0  0  0  0  0  0  0
   57.4030    2.9331   41.1657 O   0  0  0  0  0  0  0  0  0  0  0  0
   57.7792    5.3855   40.7555 O   0  0  0  0  0  0  0  0  0  0  0  0
   56.3605    4.5976   42.7382 O   0  0  0  0  0  0  0  0  0  0  0  0
   58.9501    4.1518   42.7818 N   0  0  0  0  0  0  0  0  0  0  0  0
   59.5985    5.4479   43.6909 P   0  0  1  0  0  0  0  0  0  0  0  0
   60.5787    6.2000   42.8005 O   0  0  0  0  0  0  0  0  0  0  0  0
   58.5854    6.2256   44.4849 O   0  0  0  0  0  0  0  0  0  0  0  0
   60.5951    4.7513   44.7872 O   0  0  0  0  0  0  0  0  0  0  0  0
   60.2845    4.5771   46.3566 P   0  0  1  0  0  0  0  0  0  0  0  0
   60.2983    5.8413   47.1973 O   0  0  0  0  0  0  0  0  0  0  0  0
   59.3130    3.4459   46.6317 O   0  0  0  0  0  0  0  0  0  0  0  0
   61.7258    3.9012   46.8102 O   0  0  0  0  0  0  0  0  0  0  0  0
   62.1391    2.7240   46.1503 C   0  0  0  0  0  0  0  0  0  0  0  0
   63.1433    1.9911   47.0393 C   0  0  1  0  0  0  0  0  0  0  0  0
   64.3675    2.7738   47.1584 O   0  0  0  0  0  0  0  0  0  0  0  0
   62.6130    1.7662   48.4658 C   0  0  1  0  0  0  0  0  0  0  0  0
   63.1711    0.5431   49.0072 O   0  0  0  0  0  0  0  0  0  0  0  0
   63.1709    2.9376   49.2524 C   0  0  1  0  0  0  0  0  0  0  0  0
   63.4060    2.6701   50.6474 O   0  0  0  0  0  0  0  0  0  0  0  0
   64.4776    3.1747   48.5289 C   0  0  2  0  0  0  0  0  0  0  0  0
   64.9703    4.5332   48.6709 N   0  3  0  0  0  0  0  0  0  0  0  0
   64.2940    5.7205   48.5012 C   0  0  0  0  0  0  0  0  0  0  0  0
   65.0375    6.7719   48.8370 N   0  0  0  0  0  0  0  0  0  0  0  0
   66.2346    6.2472   49.2587 C   0  0  0  0  0  0  0  0  0  0  0  0
   67.4774    6.8775   49.7169 C   0  0  0  0  0  0  0  0  0  0  0  0
   67.6872    8.0808   49.8155 O   0  0  0  0  0  0  0  0  0  0  0  0
   68.4881    5.9360   50.0563 N   0  3  0  0  0  0  0  0  0  0  0  0
   68.3447    4.5723   49.9754 C   0  0  0  0  0  0  0  0  0  0  0  0
   69.3449    3.8553   50.3279 N   0  0  0  0  0  0  0  0  0  0  0  0
   67.1763    4.0546   49.5373 N   0  3  0  0  0  0  0  0  0  0  0  0
   66.1807    4.8788   49.1829 C   0  0  0  0  0  0  0  0  0  0  0  0
   59.3474    3.2565   42.7818 H   0  0  0  0  0  0  0  0  0  0  0  0
   62.6205    2.9967   45.2076 H   0  0  0  0  0  0  0  0  0  0  0  0
   61.2921    2.0603   45.9524 H   0  0  0  0  0  0  0  0  0  0  0  0
   63.4163    1.0343   46.5718 H   0  0  0  0  0  0  0  0  0  0  0  0
   61.5207    1.7178   48.5062 H   0  0  0  0  0  0  0  0  0  0  0  0
   62.8247   -0.1685   48.4365 H   0  0  0  0  0  0  0  0  0  0  0  0
   62.5105    3.8002   49.1752 H   0  0  0  0  0  0  0  0  0  0  0  0
   64.0099    1.9089   50.6854 H   0  0  0  0  0  0  0  0  0  0  0  0
   65.2394    2.5006   48.9526 H   0  0  0  0  0  0  0  0  0  0  0  0
   63.2610    5.7589   48.1528 H   0  0  0  0  0  0  0  0  0  0  0  0
   69.3637    6.3267   50.3676 H   0  0  0  0  0  0  0  0  0  0  0  0
   69.0709    2.8916   50.1893 H   0  0  0  0  0  0  0  0  0  0  0  0
   67.0952    3.0517   49.4619 H   0  0  0  0  0  0  0  0  0  0  0  0
  1  2  2  0  0  0  0
  1  3  1  0  0  0  0
  1  4  1  0  0  0  0
  1  5  1  0  0  0  0
  5 33  1  0  0  0  0
  6  5  1  6  0  0  0
  6  7  2  0  0  0  0
  6  8  1  0  0  0  0
  6  9  1  0  0  0  0
 10  9  1  6  0  0  0
 10 11  2  0  0  0  0
 10 12  1  0  0  0  0
 10 13  1  0  0  0  0
 13 14  1  0  0  0  0
 14 15  1  0  0  0  0
 14 34  1  0  0  0  0
 14 35  1  0  0  0  0
 15 16  1  0  0  0  0
 15 17  1  0  0  0  0
 15 36  1  6  0  0  0
 16 21  1  0  0  0  0
 17 18  1  0  0  0  0
 17 19  1  0  0  0  0
 17 37  1  1  0  0  0
 18 38  1  0  0  0  0
 19 20  1  0  0  0  0
 19 21  1  0  0  0  0
 19 39  1  6  0  0  0
 20 40  1  0  0  0  0
 21 22  1  0  0  0  0
 21 41  1  1  0  0  0
 22 23  2  0  0  0  0
 22 32  1  0  0  0  0
 23 24  1  0  0  0  0
 23 42  1  0  0  0  0
 24 25  2  0  0  0  0
 25 26  1  0  0  0  0
 25 32  1  0  0  0  0
 26 27  2  0  0  0  0
 26 28  1  0  0  0  0
 28 29  1  0  0  0  0
 28 43  1  0  0  0  0
 29 30  2  0  0  0  0
 29 31  1  0  0  0  0
 30 44  1  0  0  0  0
 31 32  2  0  0  0  0
 31 45  1  0  0  0  0
M  CHG  3  22   1  28   1  31   1
M  END
$$$$
