GQG
 OpenBabel04111918163D

 43 45  0  0  1  0  0  0  0  0999 V2000
  -20.6706   14.3772    9.3343 C   0  0  0  0  0  0  0  0  0  0  0  0
  -20.7739   12.8927    9.2767 N   0  0  0  0  0  0  0  0  0  0  0  0
  -22.1415   12.3556    8.9553 C   0  0  0  0  0  0  0  0  0  0  0  0
  -19.7507   12.1248    9.4621 C   0  0  0  0  0  0  0  0  0  0  0  0
  -19.8571   10.6373    9.4652 C   0  0  0  0  0  0  0  0  0  0  0  0
  -18.7537    9.9230    9.6405 C   0  0  0  0  0  0  0  0  0  0  0  0
  -18.3630   12.6787    9.6729 C   0  0  0  0  0  0  0  0  0  0  0  0
  -17.3456   11.8188    9.8212 C   0  0  0  0  0  0  0  0  0  0  0  0
  -17.4885   10.4470    9.8353 N   0  3  0  0  0  0  0  0  0  0  0  0
  -16.3231    9.5471    9.9114 C   0  0  0  0  0  0  0  0  0  0  0  0
  -16.2664    8.7420    8.6435 C   0  0  2  0  0  0  0  0  0  0  0  0
  -15.7967    9.3356    7.4698 C   0  0  0  0  0  0  0  0  0  0  0  0
  -15.8758    8.6374    6.2779 C   0  0  0  0  0  0  0  0  0  0  0  0
  -16.8268    7.4594    8.6204 C   0  0  0  0  0  0  0  0  0  0  0  0
  -16.9125    6.7707    7.4264 C   0  0  0  0  0  0  0  0  0  0  0  0
  -16.4338    7.3502    6.2442 C   0  0  1  0  0  0  0  0  0  0  0  0
  -16.5255    6.6212    4.9846 C   0  0  0  0  0  0  0  0  0  0  0  0
  -17.6770    5.8854    4.6667 C   0  0  0  0  0  0  0  0  0  0  0  0
  -17.7575    5.1834    3.4794 C   0  0  0  0  0  0  0  0  0  0  0  0
  -15.4518    6.6338    4.0822 C   0  0  0  0  0  0  0  0  0  0  0  0
  -15.5276    5.9461    2.8845 C   0  0  0  0  0  0  0  0  0  0  0  0
  -16.6847    5.2154    2.5882 C   0  0  0  0  0  0  0  0  0  0  0  0
  -21.6545   14.8252    9.1939 H   0  0  0  0  0  0  0  0  0  0  0  0
  -19.9980   14.7025    8.5350 H   0  0  0  0  0  0  0  0  0  0  0  0
  -20.2753   14.6618   10.3155 H   0  0  0  0  0  0  0  0  0  0  0  0
  -22.1718   11.2683    8.9448 H   0  0  0  0  0  0  0  0  0  0  0  0
  -22.4045   12.6993    7.9533 H   0  0  0  0  0  0  0  0  0  0  0  0
  -22.8394   12.6991    9.7202 H   0  0  0  0  0  0  0  0  0  0  0  0
  -20.7746   10.0877    9.3106 H   0  0  0  0  0  0  0  0  0  0  0  0
  -18.8253    8.8403    9.5897 H   0  0  0  0  0  0  0  0  0  0  0  0
  -18.1701   13.7437    9.6675 H   0  0  0  0  0  0  0  0  0  0  0  0
  -16.3238   12.1810    9.9267 H   0  0  0  0  0  0  0  0  0  0  0  0
  -16.4216    8.8799   10.7742 H   0  0  0  0  0  0  0  0  0  0  0  0
  -15.3772   10.0901   10.0301 H   0  0  0  0  0  0  0  0  0  0  0  0
  -15.4047   10.3493    7.4735 H   0  0  0  0  0  0  0  0  0  0  0  0
  -15.5166    9.1107    5.3657 H   0  0  0  0  0  0  0  0  0  0  0  0
  -17.2477    7.0136    9.5190 H   0  0  0  0  0  0  0  0  0  0  0  0
  -17.3557    5.7769    7.4229 H   0  0  0  0  0  0  0  0  0  0  0  0
  -18.5205    5.8676    5.3533 H   0  0  0  0  0  0  0  0  0  0  0  0
  -18.6522    4.6114    3.2469 H   0  0  0  0  0  0  0  0  0  0  0  0
  -14.5402    7.1806    4.3160 H   0  0  0  0  0  0  0  0  0  0  0  0
  -14.7013    5.9597    2.1933 H   0  0  0  0  0  0  0  0  0  0  0  0
  -16.7339    4.6695    1.6547 H   0  0  0  0  0  0  0  0  0  0  0  0
  1  2  1  0  0  0  0
  1 23  1  0  0  0  0
  1 24  1  0  0  0  0
  1 25  1  0  0  0  0
  2  3  1  0  0  0  0
  2  4  2  0  0  0  0
  3 26  1  0  0  0  0
  3 27  1  0  0  0  0
  3 28  1  0  0  0  0
  4  5  1  0  0  0  0
  4  7  1  0  0  0  0
  5  6  1  0  0  0  0
  5 29  1  0  0  0  0
  6  9  1  0  0  0  0
  6 30  1  0  0  0  0
  7  8  1  0  0  0  0
  7 31  1  0  0  0  0
  8  9  1  0  0  0  0
  8 32  1  0  0  0  0
  9 10  1  0  0  0  0
 10 33  1  0  0  0  0
 10 34  1  0  0  0  0
 11 10  1  6  0  0  0
 11 12  1  0  0  0  0
 11 14  1  0  0  0  0
 12 13  1  0  0  0  0
 12 35  1  0  0  0  0
 13 16  1  0  0  0  0
 13 36  1  0  0  0  0
 14 15  1  0  0  0  0
 14 37  1  0  0  0  0
 15 16  1  0  0  0  0
 15 38  1  0  0  0  0
 16 17  1  6  0  0  0
 17 18  1  0  0  0  0
 17 20  1  0  0  0  0
 18 19  1  0  0  0  0
 18 39  1  0  0  0  0
 19 22  1  0  0  0  0
 19 40  1  0  0  0  0
 20 21  1  0  0  0  0
 20 41  1  0  0  0  0
 21 22  1  0  0  0  0
 21 42  1  0  0  0  0
 22 43  1  0  0  0  0
M  CHG  1   9   1
M  END
$$$$
