GS9
 OpenBabel04111917373D

 40 42  0  0  1  0  0  0  0  0999 V2000
   13.5222   15.0337   67.1905 C   0  0  1  0  0  0  0  0  0  0  0  0
   13.9364   15.2089   65.8359 O   0  0  0  0  0  0  0  0  0  0  0  0
   13.1188   16.6708   67.9023 S   0  0  0  0  0  0  0  0  0  0  0  0
   12.3239   14.0914   67.2821 C   0  0  2  0  0  0  0  0  0  0  0  0
   11.9244   13.8627   68.6462 O   0  0  0  0  0  0  0  0  0  0  0  0
   12.7789   12.7431   66.7112 C   0  0  1  0  0  0  0  0  0  0  0  0
   11.7162   11.7860   66.8130 O   0  0  0  0  0  0  0  0  0  0  0  0
   13.2592   12.9033   65.2599 C   0  0  1  0  0  0  0  0  0  0  0  0
   12.1344   13.2481   64.4406 O   0  0  0  0  0  0  0  0  0  0  0  0
   14.3415   14.0006   65.1737 C   0  0  1  0  0  0  0  0  0  0  0  0
   14.8108   18.3783   69.1891 C   0  0  0  0  0  0  0  0  0  0  0  0
   15.7585   15.3093   63.7131 O   0  0  0  0  0  0  0  0  0  0  0  0
   14.6359   14.4264   63.7296 C   0  0  0  0  0  0  0  0  0  0  0  0
   16.0463   18.8838   69.5811 C   0  0  0  0  0  0  0  0  0  0  0  0
   14.7409   17.2664   68.3478 C   0  0  0  0  0  0  0  0  0  0  0  0
   15.9320   16.6757   67.9078 C   0  0  0  0  0  0  0  0  0  0  0  0
   17.1800   17.1542   68.3150 C   0  0  0  0  0  0  0  0  0  0  0  0
   17.2401   18.2741   69.1583 C   0  0  0  0  0  0  0  0  0  0  0  0
   18.4941   18.7635   69.5495 C   0  0  0  0  0  0  0  0  0  0  0  0
   19.6645   18.1322   69.1094 C   0  0  0  0  0  0  0  0  0  0  0  0
   19.6014   17.0122   68.2872 C   0  0  0  0  0  0  0  0  0  0  0  0
   18.3579   16.5216   67.8848 C   0  0  0  0  0  0  0  0  0  0  0  0
   14.3347   14.5915   67.7837 H   0  0  0  0  0  0  0  0  0  0  0  0
   11.4670   14.4833   66.7242 H   0  0  0  0  0  0  0  0  0  0  0  0
   10.9769   13.6353   68.6173 H   0  0  0  0  0  0  0  0  0  0  0  0
   13.5976   12.3454   67.3252 H   0  0  0  0  0  0  0  0  0  0  0  0
   11.4588   11.7687   67.7522 H   0  0  0  0  0  0  0  0  0  0  0  0
   13.6488   11.9433   64.8976 H   0  0  0  0  0  0  0  0  0  0  0  0
   12.3790   13.1065   63.5100 H   0  0  0  0  0  0  0  0  0  0  0  0
   15.2689   13.6601   65.6515 H   0  0  0  0  0  0  0  0  0  0  0  0
   13.9026   18.8617   69.5450 H   0  0  0  0  0  0  0  0  0  0  0  0
   15.5128   16.0547   64.2966 H   0  0  0  0  0  0  0  0  0  0  0  0
   13.7928   14.9791   63.2987 H   0  0  0  0  0  0  0  0  0  0  0  0
   14.8638   13.5708   63.0880 H   0  0  0  0  0  0  0  0  0  0  0  0
   16.0774   19.7562   70.2361 H   0  0  0  0  0  0  0  0  0  0  0  0
   15.9280   15.8330   67.2308 H   0  0  0  0  0  0  0  0  0  0  0  0
   18.5709   19.6290   70.1907 H   0  0  0  0  0  0  0  0  0  0  0  0
   20.6339   18.5240   69.4161 H   0  0  0  0  0  0  0  0  0  0  0  0
   20.5052   16.5214   67.9524 H   0  0  0  0  0  0  0  0  0  0  0  0
   18.3157   15.6459   67.2370 H   0  0  0  0  0  0  0  0  0  0  0  0
  1  2  1  0  0  0  0
  1  3  1  0  0  0  0
  1  4  1  0  0  0  0
  1 23  1  1  0  0  0
  2 10  1  0  0  0  0
  3 15  1  0  0  0  0
  4  5  1  0  0  0  0
  4  6  1  0  0  0  0
  4 24  1  6  0  0  0
  5 25  1  0  0  0  0
  6  7  1  0  0  0  0
  6  8  1  0  0  0  0
  6 26  1  1  0  0  0
  7 27  1  0  0  0  0
  8  9  1  0  0  0  0
  8 10  1  0  0  0  0
  8 28  1  6  0  0  0
  9 29  1  0  0  0  0
 10 13  1  0  0  0  0
 10 30  1  1  0  0  0
 11 14  2  0  0  0  0
 11 15  1  0  0  0  0
 11 31  1  0  0  0  0
 12 13  1  0  0  0  0
 12 32  1  0  0  0  0
 13 33  1  0  0  0  0
 13 34  1  0  0  0  0
 14 18  1  0  0  0  0
 14 35  1  0  0  0  0
 15 16  2  0  0  0  0
 16 17  1  0  0  0  0
 16 36  1  0  0  0  0
 17 18  2  0  0  0  0
 17 22  1  0  0  0  0
 18 19  1  0  0  0  0
 19 20  2  0  0  0  0
 19 37  1  0  0  0  0
 20 21  1  0  0  0  0
 20 38  1  0  0  0  0
 21 22  2  0  0  0  0
 21 39  1  0  0  0  0
 22 40  1  0  0  0  0
M  END
$$$$
