GSH
 OpenBabel04111922473D

 36 35  0  0  1  0  0  0  0  0999 V2000
  -23.7653   25.6334  -21.1655 N   0  3  0  0  0  0  0  0  0  0  0  0
  -24.2436   24.8516  -19.9831 C   0  0  2  0  0  0  0  0  0  0  0  0
  -24.3328   23.3218  -20.2566 C   0  0  0  0  0  0  0  0  0  0  0  0
  -24.2458   23.0614  -21.4940 O   0  0  0  0  0  0  0  0  0  0  0  0
  -24.3987   22.5850  -19.2448 O   0  0  0  0  0  0  0  0  0  0  0  0
  -25.6106   25.3731  -19.6041 C   0  0  0  0  0  0  0  0  0  0  0  0
  -25.7205   25.1767  -18.1013 C   0  0  0  0  0  0  0  0  0  0  0  0
  -26.9831   25.7280  -17.5875 C   0  0  0  0  0  0  0  0  0  0  0  0
  -27.9021   26.0717  -18.3241 O   0  0  0  0  0  0  0  0  0  0  0  0
  -27.0275   25.8161  -16.2222 N   0  0  0  0  0  0  0  0  0  0  0  0
  -28.2391   26.2595  -15.5826 C   0  0  2  0  0  0  0  0  0  0  0  0
  -28.3454   27.7996  -15.3657 C   0  0  0  0  0  0  0  0  0  0  0  0
  -29.1972   28.1621  -14.5333 O   0  0  0  0  0  0  0  0  0  0  0  0
  -28.4614   25.4571  -14.2670 C   0  0  0  0  0  0  0  0  0  0  0  0
  -28.8702   23.6957  -14.6872 S   0  0  0  0  0  0  0  0  0  0  0  0
  -27.6416   28.7700  -16.0738 N   0  0  0  0  0  0  0  0  0  0  0  0
  -27.9667   30.1948  -15.7656 C   0  0  0  0  0  0  0  0  0  0  0  0
  -27.4564   31.4125  -16.5659 C   0  0  0  0  0  0  0  0  0  0  0  0
  -26.5057   31.2202  -17.3797 O   0  0  0  0  0  0  0  0  0  0  0  0
  -28.0347   32.5242  -16.2930 O   0  0  0  0  0  0  0  0  0  0  0  0
  -23.7300   26.6353  -20.9802 H   0  0  0  0  0  0  0  0  0  0  0  0
  -22.8537   25.2404  -21.4234 H   0  0  0  0  0  0  0  0  0  0  0  0
  -23.5161   25.0642  -19.1953 H   0  0  0  0  0  0  0  0  0  0  0  0
  -26.4059   24.8340  -20.1402 H   0  0  0  0  0  0  0  0  0  0  0  0
  -25.7372   26.4362  -19.8592 H   0  0  0  0  0  0  0  0  0  0  0  0
  -24.8926   25.6929  -17.5976 H   0  0  0  0  0  0  0  0  0  0  0  0
  -25.6827   24.1081  -17.8717 H   0  0  0  0  0  0  0  0  0  0  0  0
  -26.2664   25.4849  -15.6413 H   0  0  0  0  0  0  0  0  0  0  0  0
  -29.0934   26.0017  -16.2291 H   0  0  0  0  0  0  0  0  0  0  0  0
  -29.2753   25.8625  -13.6566 H   0  0  0  0  0  0  0  0  0  0  0  0
  -27.5497   25.4494  -13.6539 H   0  0  0  0  0  0  0  0  0  0  0  0
  -29.0066   23.1776  -13.4590 H   0  0  0  0  0  0  0  0  0  0  0  0
  -26.9035   28.5931  -16.7548 H   0  0  0  0  0  0  0  0  0  0  0  0
  -27.6507   30.3431  -14.7259 H   0  0  0  0  0  0  0  0  0  0  0  0
  -29.0600   30.2452  -15.7980 H   0  0  0  0  0  0  0  0  0  0  0  0
  -24.3964   25.3898  -21.9419 H   0  0  0  0  0  0  0  0  0  0  0  0
  1  2  1  0  0  0  0
  1 21  1  0  0  0  0
  1 22  1  0  0  0  0
  1 36  1  0  0  0  0
  2  3  1  0  0  0  0
  2  6  1  0  0  0  0
  2 23  1  1  0  0  0
  3  4  2  0  0  0  0
  3  5  1  0  0  0  0
  6  7  1  0  0  0  0
  6 24  1  0  0  0  0
  6 25  1  0  0  0  0
  7  8  1  0  0  0  0
  7 26  1  0  0  0  0
  7 27  1  0  0  0  0
  8  9  2  0  0  0  0
  8 10  1  0  0  0  0
 10 11  1  0  0  0  0
 10 28  1  0  0  0  0
 11 12  1  0  0  0  0
 11 14  1  0  0  0  0
 11 29  1  6  0  0  0
 12 13  2  0  0  0  0
 12 16  1  0  0  0  0
 14 15  1  0  0  0  0
 14 30  1  0  0  0  0
 14 31  1  0  0  0  0
 15 32  1  0  0  0  0
 16 17  1  0  0  0  0
 16 33  1  0  0  0  0
 17 18  1  0  0  0  0
 17 34  1  0  0  0  0
 17 35  1  0  0  0  0
 18 19  2  0  0  0  0
 18 20  1  0  0  0  0
M  CHG  1   1   1
M  END
$$$$
