GSY
 OpenBabel04111917403D

 23 24  0  0  0  0  0  0  0  0999 V2000
    1.8595    2.2753   12.4026 O   0  0  0  0  0  0  0  0  0  0  0  0
    1.2594    1.0883   11.8964 C   0  0  0  0  0  0  0  0  0  0  0  0
    0.4381    0.3879   12.9773 C   0  0  0  0  0  0  0  0  0  0  0  0
    1.2404   -0.6037   13.6786 N   0  3  0  0  0  0  0  0  0  0  0  0
    1.6765   -1.7733   13.1072 C   0  0  0  0  0  0  0  0  0  0  0  0
    1.5031   -2.3472   11.8167 C   0  0  0  0  0  0  0  0  0  0  0  0
    0.8409   -1.8658   10.8931 O   0  0  0  0  0  0  0  0  0  0  0  0
    2.1742   -3.5428   11.6745 N   0  3  0  0  0  0  0  0  0  0  0  0
    2.9203   -4.1282   12.6706 C   0  0  0  0  0  0  0  0  0  0  0  0
    3.4395   -5.2701   12.3821 N   0  0  0  0  0  0  0  0  0  0  0  0
    3.0721   -3.5143   13.8791 N   0  3  0  0  0  0  0  0  0  0  0  0
    2.4455   -2.3501   14.0720 C   0  0  0  0  0  0  0  0  0  0  0  0
    2.4887   -1.6339   15.2120 N   0  0  0  0  0  0  0  0  0  0  0  0
    1.7435   -0.5668   14.9704 C   0  0  0  0  0  0  0  0  0  0  0  0
    1.4586    0.6591   16.1029 S   0  0  0  0  0  0  0  0  0  0  0  0
    2.5195    2.5700   11.7582 H   0  0  0  0  0  0  0  0  0  0  0  0
    2.0518    0.4486   11.4906 H   0  0  0  0  0  0  0  0  0  0  0  0
    0.6102    1.3886   11.0695 H   0  0  0  0  0  0  0  0  0  0  0  0
   -0.3971   -0.1649   12.5293 H   0  0  0  0  0  0  0  0  0  0  0  0
    0.0141    1.1021   13.6858 H   0  0  0  0  0  0  0  0  0  0  0  0
    2.0990   -4.0277   10.7958 H   0  0  0  0  0  0  0  0  0  0  0  0
    3.9463   -5.5925   13.2100 H   0  0  0  0  0  0  0  0  0  0  0  0
    3.6145   -3.9075   14.6312 H   0  0  0  0  0  0  0  0  0  0  0  0
  1  2  1  0  0  0  0
  1 16  1  0  0  0  0
  2  3  1  0  0  0  0
  2 17  1  0  0  0  0
  2 18  1  0  0  0  0
  3  4  1  0  0  0  0
  3 19  1  0  0  0  0
  3 20  1  0  0  0  0
  4  5  2  0  0  0  0
  4 14  1  0  0  0  0
  5  6  1  0  0  0  0
  5 12  1  0  0  0  0
  6  7  2  0  0  0  0
  6  8  1  0  0  0  0
  8  9  1  0  0  0  0
  8 21  1  0  0  0  0
  9 10  2  0  0  0  0
  9 11  1  0  0  0  0
 10 22  1  0  0  0  0
 11 12  2  0  0  0  0
 11 23  1  0  0  0  0
 12 13  1  0  0  0  0
 13 14  2  0  0  0  0
 14 15  1  0  0  0  0
M  CHG  3   4   1   8   1  11   1
M  END
$$$$
