GTP
 OpenBabel04111920343D

 44 46  0  0  1  0  0  0  0  0999 V2000
  -11.2344   12.5047   12.6872 P   0  0  0  0  0  0  0  0  0  0  0  0
   -9.7862   12.0566   12.5308 O   0  0  0  0  0  0  0  0  0  0  0  0
  -11.7977   12.2467   14.0871 O   0  0  0  0  0  0  0  0  0  0  0  0
  -12.1458   11.8779   11.6181 O   0  0  0  0  0  0  0  0  0  0  0  0
  -11.3202   14.1044   12.4163 O   0  0  0  0  0  0  0  0  0  0  0  0
  -10.3551   15.3136   12.8605 P   0  0  1  0  0  0  0  0  0  0  0  0
  -10.6514   15.7695   14.2934 O   0  0  0  0  0  0  0  0  0  0  0  0
   -8.9042   15.1365   12.4595 O   0  0  0  0  0  0  0  0  0  0  0  0
  -10.9514   16.5226   11.9404 O   0  0  0  0  0  0  0  0  0  0  0  0
  -10.5837   16.8308   10.4112 P   0  0  1  0  0  0  0  0  0  0  0  0
   -9.2778   17.5842   10.2165 O   0  0  0  0  0  0  0  0  0  0  0  0
  -11.0132   15.7674    9.4270 O   0  0  0  0  0  0  0  0  0  0  0  0
  -11.6579   18.0559   10.1374 O   0  0  0  0  0  0  0  0  0  0  0  0
  -13.0349   17.7630   10.0224 C   0  0  0  0  0  0  0  0  0  0  0  0
  -13.7030   18.8792    9.2113 C   0  0  1  0  0  0  0  0  0  0  0  0
  -13.7508   20.0950   10.0100 O   0  0  0  0  0  0  0  0  0  0  0  0
  -12.9905   19.2232    7.8978 C   0  0  1  0  0  0  0  0  0  0  0  0
  -13.9823   19.5646    6.8982 O   0  0  0  0  0  0  0  0  0  0  0  0
  -12.1881   20.4646    8.2354 C   0  0  1  0  0  0  0  0  0  0  0  0
  -11.9350   21.2848    7.0810 O   0  0  0  0  0  0  0  0  0  0  0  0
  -13.0819   21.1181    9.2762 C   0  0  2  0  0  0  0  0  0  0  0  0
  -12.3425   21.9543   10.2058 N   0  3  0  0  0  0  0  0  0  0  0  0
  -11.2610   21.5833   10.9665 C   0  0  0  0  0  0  0  0  0  0  0  0
  -10.7410   22.6174   11.6111 N   0  0  0  0  0  0  0  0  0  0  0  0
  -11.5443   23.6779   11.2749 C   0  0  0  0  0  0  0  0  0  0  0  0
  -11.4787   25.0732   11.6755 C   0  0  0  0  0  0  0  0  0  0  0  0
  -10.6572   25.5566   12.4502 O   0  0  0  0  0  0  0  0  0  0  0  0
  -12.4568   25.8785   11.0760 N   0  3  0  0  0  0  0  0  0  0  0  0
  -13.4485   25.4415   10.2151 C   0  0  0  0  0  0  0  0  0  0  0  0
  -14.2846   26.2943    9.7828 N   0  0  0  0  0  0  0  0  0  0  0  0
  -13.4534   24.1101    9.8852 N   0  3  0  0  0  0  0  0  0  0  0  0
  -12.5248   23.2726   10.3991 C   0  0  0  0  0  0  0  0  0  0  0  0
  -13.4743   17.7429   11.0234 H   0  0  0  0  0  0  0  0  0  0  0  0
  -13.2098   16.8049    9.5242 H   0  0  0  0  0  0  0  0  0  0  0  0
  -14.7492   18.6269    9.0122 H   0  0  0  0  0  0  0  0  0  0  0  0
  -12.3680   18.4198    7.4951 H   0  0  0  0  0  0  0  0  0  0  0  0
  -13.4782   19.7982    6.1001 H   0  0  0  0  0  0  0  0  0  0  0  0
  -11.2288   20.1909    8.6780 H   0  0  0  0  0  0  0  0  0  0  0  0
  -11.2889   20.7756    6.5557 H   0  0  0  0  0  0  0  0  0  0  0  0
  -13.8693   21.7296    8.8120 H   0  0  0  0  0  0  0  0  0  0  0  0
  -10.8853   20.5566   11.0017 H   0  0  0  0  0  0  0  0  0  0  0  0
  -12.4447   26.8558   11.3276 H   0  0  0  0  0  0  0  0  0  0  0  0
  -14.9586   25.8056    9.1628 H   0  0  0  0  0  0  0  0  0  0  0  0
  -14.1873   23.7639    9.2714 H   0  0  0  0  0  0  0  0  0  0  0  0
  1  2  2  0  0  0  0
  1  3  1  0  0  0  0
  1  4  1  0  0  0  0
  1  5  1  0  0  0  0
  6  5  1  6  0  0  0
  6  7  2  0  0  0  0
  6  8  1  0  0  0  0
  6  9  1  0  0  0  0
 10  9  1  1  0  0  0
 10 11  2  0  0  0  0
 10 12  1  0  0  0  0
 10 13  1  0  0  0  0
 13 14  1  0  0  0  0
 14 15  1  0  0  0  0
 14 33  1  0  0  0  0
 14 34  1  0  0  0  0
 15 16  1  0  0  0  0
 15 17  1  0  0  0  0
 15 35  1  6  0  0  0
 16 21  1  0  0  0  0
 17 18  1  0  0  0  0
 17 19  1  0  0  0  0
 17 36  1  6  0  0  0
 18 37  1  0  0  0  0
 19 20  1  0  0  0  0
 19 21  1  0  0  0  0
 19 38  1  1  0  0  0
 20 39  1  0  0  0  0
 21 22  1  0  0  0  0
 21 40  1  6  0  0  0
 22 23  2  0  0  0  0
 22 32  1  0  0  0  0
 23 24  1  0  0  0  0
 23 41  1  0  0  0  0
 24 25  2  0  0  0  0
 25 26  1  0  0  0  0
 25 32  1  0  0  0  0
 26 27  2  0  0  0  0
 26 28  1  0  0  0  0
 28 29  1  0  0  0  0
 28 42  1  0  0  0  0
 29 30  2  0  0  0  0
 29 31  1  0  0  0  0
 30 43  1  0  0  0  0
 31 32  2  0  0  0  0
 31 44  1  0  0  0  0
M  CHG  3  22   1  28   1  31   1
M  END
$$$$
