GZ3
 OpenBabel04111922103D

 16 15  0  0  1  0  0  0  0  0999 V2000
   -5.2371  -84.7960    0.3990 C   0  0  0  0  0  0  0  0  0  0  0  0
   -4.6545  -85.5632   -0.4196 O   0  0  0  0  0  0  0  0  0  0  0  0
   -4.6809  -83.9060    1.1215 O   0  0  0  0  0  0  0  0  0  0  0  0
   -6.7800  -84.8814    0.4722 C   0  0  2  0  0  0  0  0  0  0  0  0
   -7.3504  -83.9934    1.5746 C   0  0  0  0  0  0  0  0  0  0  0  0
   -7.2500  -86.3464    0.5064 C   0  0  0  0  0  0  0  0  0  0  0  0
   -9.0616  -86.7767    0.8374 P   0  0  0  0  0  0  0  0  0  0  0  0
   -9.1183  -88.2799    0.5611 O   0  0  0  0  0  0  0  0  0  0  0  0
   -9.2781  -86.4322    2.3114 O   0  0  0  0  0  0  0  0  0  0  0  0
   -9.8419  -85.9199   -0.1499 O   0  0  0  0  0  0  0  0  0  0  0  0
   -7.1416  -84.4573   -0.4767 H   0  0  0  0  0  0  0  0  0  0  0  0
   -8.4161  -84.1695    1.7504 H   0  0  0  0  0  0  0  0  0  0  0  0
   -7.2581  -82.9390    1.2887 H   0  0  0  0  0  0  0  0  0  0  0  0
   -6.8219  -84.1182    2.5254 H   0  0  0  0  0  0  0  0  0  0  0  0
   -6.6545  -86.9328    1.2167 H   0  0  0  0  0  0  0  0  0  0  0  0
   -7.0712  -86.7807   -0.4888 H   0  0  0  0  0  0  0  0  0  0  0  0
  1  2  2  0  0  0  0
  1  3  1  0  0  0  0
  1  4  1  0  0  0  0
  4  5  1  0  0  0  0
  4  6  1  0  0  0  0
  4 11  1  6  0  0  0
  5 12  1  0  0  0  0
  5 13  1  0  0  0  0
  5 14  1  0  0  0  0
  6  7  1  0  0  0  0
  6 15  1  0  0  0  0
  6 16  1  0  0  0  0
  7  8  2  0  0  0  0
  7  9  1  0  0  0  0
  7 10  1  0  0  0  0
M  END
$$$$
