H05
 OpenBabel04111918253D

 31 33  0  0  0  0  0  0  0  0999 V2000
    6.2634   11.9172   24.0543 C   0  0  0  0  0  0  0  0  0  0  0  0
    5.3237   11.0795   23.5914 N   0  3  0  0  0  0  0  0  0  0  0  0
    7.4454   11.3557   23.7817 N   0  3  0  0  0  0  0  0  0  0  0  0
    5.8772    9.9739   23.0116 N   0  0  0  0  0  0  0  0  0  0  0  0
    3.9371   11.4213   23.7444 C   0  0  0  0  0  0  0  0  0  0  0  0
    3.6500   12.5987   24.3740 N   0  0  0  0  0  0  0  0  0  0  0  0
    7.1275   10.1890   23.1522 C   0  0  0  0  0  0  0  0  0  0  0  0
    5.9770   13.1253   24.6886 C   0  0  0  0  0  0  0  0  0  0  0  0
    4.6109   13.4293   24.8274 C   0  0  0  0  0  0  0  0  0  0  0  0
    8.0959    9.3529   22.7196 N   0  0  0  0  0  0  0  0  0  0  0  0
    6.9830   13.9786   25.1566 C   0  0  0  0  0  0  0  0  0  0  0  0
    2.8695   10.4910   23.2703 C   0  0  0  0  0  0  0  0  0  0  0  0
    4.2894   14.6366   25.4622 C   0  0  0  0  0  0  0  0  0  0  0  0
    2.7756    9.2503   24.1548 C   0  0  0  0  0  0  0  0  0  0  0  0
    6.6301   15.1705   25.7855 C   0  0  0  0  0  0  0  0  0  0  0  0
    5.2871   15.5026   25.9389 C   0  0  0  0  0  0  0  0  0  0  0  0
    2.2956    9.5744   25.5583 C   0  0  0  0  0  0  0  0  0  0  0  0
    9.0818    9.5408   22.8381 H   0  0  0  0  0  0  0  0  0  0  0  0
    7.8665    8.4790   22.2441 H   0  0  0  0  0  0  0  0  0  0  0  0
    8.0307   13.7305   25.0385 H   0  0  0  0  0  0  0  0  0  0  0  0
    3.0971   10.1794   22.2409 H   0  0  0  0  0  0  0  0  0  0  0  0
    1.9183   11.0255   23.2695 H   0  0  0  0  0  0  0  0  0  0  0  0
    3.2409   14.9241   25.5979 H   0  0  0  0  0  0  0  0  0  0  0  0
    3.7582    8.7701   24.2263 H   0  0  0  0  0  0  0  0  0  0  0  0
    2.0727    8.5415   23.7020 H   0  0  0  0  0  0  0  0  0  0  0  0
    7.3996   15.8444   26.1586 H   0  0  0  0  0  0  0  0  0  0  0  0
    5.0151   16.4371   26.4299 H   0  0  0  0  0  0  0  0  0  0  0  0
    2.2399    8.6569   26.1550 H   0  0  0  0  0  0  0  0  0  0  0  0
    1.3020   10.0334   25.5188 H   0  0  0  0  0  0  0  0  0  0  0  0
    2.9898   10.2673   26.0451 H   0  0  0  0  0  0  0  0  0  0  0  0
    8.3631   11.7139   23.9918 H   0  0  0  0  0  0  0  0  0  0  0  0
  1  2  2  0  0  0  0
  1  3  1  0  0  0  0
  1  8  1  0  0  0  0
  2  4  1  0  0  0  0
  2  5  1  0  0  0  0
  3  7  2  0  0  0  0
  3 31  1  0  0  0  0
  4  7  1  0  0  0  0
  5  6  2  0  0  0  0
  5 12  1  0  0  0  0
  6  9  1  0  0  0  0
  7 10  1  0  0  0  0
  8  9  2  0  0  0  0
  8 11  1  0  0  0  0
  9 13  1  0  0  0  0
 10 18  1  0  0  0  0
 10 19  1  0  0  0  0
 11 15  2  0  0  0  0
 11 20  1  0  0  0  0
 12 14  1  0  0  0  0
 12 21  1  0  0  0  0
 12 22  1  0  0  0  0
 13 16  2  0  0  0  0
 13 23  1  0  0  0  0
 14 17  1  0  0  0  0
 14 24  1  0  0  0  0
 14 25  1  0  0  0  0
 15 16  1  0  0  0  0
 15 26  1  0  0  0  0
 16 27  1  0  0  0  0
 17 28  1  0  0  0  0
 17 29  1  0  0  0  0
 17 30  1  0  0  0  0
M  CHG  2   2   1   3   1
M  END
$$$$
