HAR
 OpenBabel04111921123D

 28 27  0  0  1  0  0  0  0  0999 V2000
  -44.4839  -17.2455   51.0194 N   0  3  0  0  0  0  0  0  0  0  0  0
  -43.4970  -18.2814   51.4936 C   0  0  2  0  0  0  0  0  0  0  0  0
  -42.2213  -17.6114   52.0848 C   0  0  0  0  0  0  0  0  0  0  0  0
  -42.3394  -16.3500   52.0627 O   0  0  0  0  0  0  0  0  0  0  0  0
  -43.2052  -19.2532   50.3561 C   0  0  0  0  0  0  0  0  0  0  0  0
  -42.0129  -18.9141   49.4473 C   0  0  0  0  0  0  0  0  0  0  0  0
  -41.6637  -20.1550   48.6417 C   0  0  0  0  0  0  0  0  0  0  0  0
  -40.4156  -19.9984   47.8913 N   0  0  0  0  0  0  0  0  0  0  0  0
  -40.3093  -20.0525   46.5551 C   0  0  0  0  0  0  0  0  0  0  0  0
  -41.4085  -20.1555   45.7510 N   0  3  0  0  0  0  0  0  0  0  0  0
  -39.0859  -20.0204   45.9963 N   0  0  0  0  0  0  0  0  0  0  0  0
  -41.3744  -20.2400   44.3515 O   0  0  0  0  0  0  0  0  0  0  0  0
  -41.2733  -18.3729   52.3780 O   0  0  0  0  0  0  0  0  0  0  0  0
  -45.3959  -17.5539   50.6932 H   0  0  0  0  0  0  0  0  0  0  0  0
  -44.5880  -16.6104   51.8381 H   0  0  0  0  0  0  0  0  0  0  0  0
  -44.0186  -18.8054   52.3038 H   0  0  0  0  0  0  0  0  0  0  0  0
  -44.0954  -19.3820   49.7246 H   0  0  0  0  0  0  0  0  0  0  0  0
  -43.0205  -20.2327   50.8098 H   0  0  0  0  0  0  0  0  0  0  0  0
  -41.1187  -18.6217   50.0032 H   0  0  0  0  0  0  0  0  0  0  0  0
  -42.2510  -18.0748   48.7831 H   0  0  0  0  0  0  0  0  0  0  0  0
  -42.5019  -20.3918   47.9862 H   0  0  0  0  0  0  0  0  0  0  0  0
  -41.5276  -21.0249   49.2929 H   0  0  0  0  0  0  0  0  0  0  0  0
  -39.5613  -19.9243   48.4363 H   0  0  0  0  0  0  0  0  0  0  0  0
  -42.3113  -20.3258   46.1812 H   0  0  0  0  0  0  0  0  0  0  0  0
  -38.9810  -20.1750   45.0005 H   0  0  0  0  0  0  0  0  0  0  0  0
  -40.9414  -19.4093   44.0629 H   0  0  0  0  0  0  0  0  0  0  0  0
  -43.9942  -16.6063   50.3761 H   0  0  0  0  0  0  0  0  0  0  0  0
  -38.2448  -19.9838   46.5549 H   0  0  0  0  0  0  0  0  0  0  0  0
  1  2  1  0  0  0  0
  1 14  1  0  0  0  0
  1 15  1  0  0  0  0
  1 27  1  0  0  0  0
  2  3  1  0  0  0  0
  2  5  1  0  0  0  0
  2 16  1  1  0  0  0
  3  4  2  0  0  0  0
  3 13  1  0  0  0  0
  5  6  1  0  0  0  0
  5 17  1  0  0  0  0
  5 18  1  0  0  0  0
  6  7  1  0  0  0  0
  6 19  1  0  0  0  0
  6 20  1  0  0  0  0
  7  8  1  0  0  0  0
  7 21  1  0  0  0  0
  7 22  1  0  0  0  0
  8  9  1  0  0  0  0
  8 23  1  0  0  0  0
  9 10  1  0  0  0  0
  9 11  2  0  0  0  0
 10 12  1  0  0  0  0
 10 24  1  0  0  0  0
 11 25  1  0  0  0  0
 11 28  1  0  0  0  0
 12 26  1  0  0  0  0
M  CHG  2   1   1  10   1
M  END
$$$$
