HC4
 OpenBabel04111921223D

 19 19  0  0  0  0  0  0  0  0999 V2000
    5.2993  -21.0875   -6.5893 C   0  0  0  0  0  0  0  0  0  0  0  0
    5.9870  -21.6374   -5.6863 O   0  0  0  0  0  0  0  0  0  0  0  0
    5.4671  -21.0672   -7.8450 O   0  0  0  0  0  0  0  0  0  0  0  0
    4.0918  -20.2960   -6.1208 C   0  0  0  0  0  0  0  0  0  0  0  0
    3.2732  -20.7116   -5.1498 C   0  0  0  0  0  0  0  0  0  0  0  0
    2.1183  -19.8943   -4.7568 C   0  0  0  0  0  0  0  0  0  0  0  0
    1.7526  -19.8152   -3.4066 C   0  0  0  0  0  0  0  0  0  0  0  0
    0.6982  -18.9926   -3.0188 C   0  0  0  0  0  0  0  0  0  0  0  0
   -0.0202  -18.2925   -3.9834 C   0  0  0  0  0  0  0  0  0  0  0  0
    0.2909  -18.3856   -5.3265 C   0  0  0  0  0  0  0  0  0  0  0  0
    1.3791  -19.1741   -5.7111 C   0  0  0  0  0  0  0  0  0  0  0  0
   -1.0457  -17.5043   -3.5519 O   0  0  0  0  0  0  0  0  0  0  0  0
    3.9204  -19.3583   -6.6414 H   0  0  0  0  0  0  0  0  0  0  0  0
    3.4639  -21.6401   -4.6262 H   0  0  0  0  0  0  0  0  0  0  0  0
    2.3115  -20.3714   -2.6596 H   0  0  0  0  0  0  0  0  0  0  0  0
    0.4488  -18.8801   -1.9699 H   0  0  0  0  0  0  0  0  0  0  0  0
   -0.2802  -17.8591   -6.0901 H   0  0  0  0  0  0  0  0  0  0  0  0
    1.6580  -19.2190   -6.7610 H   0  0  0  0  0  0  0  0  0  0  0  0
   -0.8437  -16.6041   -3.8576 H   0  0  0  0  0  0  0  0  0  0  0  0
  1  2  2  0  0  0  0
  1  3  1  0  0  0  0
  1  4  1  0  0  0  0
  4  5  2  0  0  0  0
  4 13  1  0  0  0  0
  5  6  1  0  0  0  0
  5 14  1  0  0  0  0
  6  7  2  0  0  0  0
  6 11  1  0  0  0  0
  7  8  1  0  0  0  0
  7 15  1  0  0  0  0
  8  9  2  0  0  0  0
  8 16  1  0  0  0  0
  9 10  1  0  0  0  0
  9 12  1  0  0  0  0
 10 11  2  0  0  0  0
 10 17  1  0  0  0  0
 11 18  1  0  0  0  0
 12 19  1  0  0  0  0
M  END
$$$$
