HCE
 OpenBabel04111922213D

 50 52  0  0  1  0  0  0  0  0999 V2000
  -39.7809  -43.6071   17.4288 C   0  0  0  0  0  0  0  0  0  0  0  0
  -39.9819  -42.2160   17.2487 O   0  0  0  0  0  0  0  0  0  0  0  0
  -38.5837  -44.0517   16.6061 C   0  0  0  0  0  0  0  0  0  0  0  0
  -38.8322  -43.9507   15.0964 C   0  0  0  0  0  0  0  0  0  0  0  0
  -37.7025  -44.6671   14.3708 C   0  0  0  0  0  0  0  0  0  0  0  0
  -38.0029  -44.7942   12.5815 S   0  0  0  0  0  0  0  0  0  0  0  0
  -36.6472  -45.9328   12.1756 C   0  0  0  0  0  0  0  0  0  0  0  0
  -35.2912  -45.2135   12.1188 C   0  0  1  0  0  0  0  0  0  0  0  0
  -34.1639  -46.2505   12.0910 C   0  0  0  0  0  0  0  0  0  0  0  0
  -35.0950  -44.4169   10.8247 C   0  0  1  0  0  0  0  0  0  0  0  0
  -34.0054  -43.5035   11.0007 O   0  0  0  0  0  0  0  0  0  0  0  0
  -34.6438  -45.4825    9.8343 C   0  0  0  0  0  0  0  0  0  0  0  0
  -33.6592  -46.2699   10.6680 N   0  3  2  0  0  0  0  0  0  0  0  0
  -33.2429  -47.5812   10.0807 C   0  0  0  0  0  0  0  0  0  0  0  0
  -34.1838  -48.7223   10.2508 C   0  0  0  0  0  0  0  0  0  0  0  0
  -34.0492  -49.7480   11.1773 C   0  0  0  0  0  0  0  0  0  0  0  0
  -35.0933  -50.6299   10.9960 N   0  3  0  0  0  0  0  0  0  0  0  0
  -35.9095  -50.1892    9.9901 C   0  0  0  0  0  0  0  0  0  0  0  0
  -35.3603  -49.0118    9.5018 C   0  0  0  0  0  0  0  0  0  0  0  0
  -35.9247  -48.3100    8.4949 N   0  0  0  0  0  0  0  0  0  0  0  0
  -37.0524  -48.8804    8.0272 C   0  0  0  0  0  0  0  0  0  0  0  0
  -37.6447  -50.0123    8.4490 N   0  0  0  0  0  0  0  0  0  0  0  0
  -37.0786  -50.7020    9.4517 C   0  0  0  0  0  0  0  0  0  0  0  0
  -37.6964  -51.8440    9.8955 N   0  0  0  0  0  0  0  0  0  0  0  0
  -40.6860  -44.1438   17.1270 H   0  0  0  0  0  0  0  0  0  0  0  0
  -39.5931  -43.8010   18.4882 H   0  0  0  0  0  0  0  0  0  0  0  0
  -40.7323  -41.9623   17.8147 H   0  0  0  0  0  0  0  0  0  0  0  0
  -38.3436  -45.0876   16.8726 H   0  0  0  0  0  0  0  0  0  0  0  0
  -37.7118  -43.4348   16.8573 H   0  0  0  0  0  0  0  0  0  0  0  0
  -38.8742  -42.8974   14.7904 H   0  0  0  0  0  0  0  0  0  0  0  0
  -39.7982  -44.4064   14.8476 H   0  0  0  0  0  0  0  0  0  0  0  0
  -37.6034  -45.6833   14.7678 H   0  0  0  0  0  0  0  0  0  0  0  0
  -36.7601  -44.1388   14.5415 H   0  0  0  0  0  0  0  0  0  0  0  0
  -36.8872  -46.4062   11.2190 H   0  0  0  0  0  0  0  0  0  0  0  0
  -36.6356  -46.7344   12.9225 H   0  0  0  0  0  0  0  0  0  0  0  0
  -35.1476  -44.5808   13.0056 H   0  0  0  0  0  0  0  0  0  0  0  0
  -34.5017  -47.2479   12.3832 H   0  0  0  0  0  0  0  0  0  0  0  0
  -33.3209  -45.9643   12.7295 H   0  0  0  0  0  0  0  0  0  0  0  0
  -35.9792  -43.8658   10.4939 H   0  0  0  0  0  0  0  0  0  0  0  0
  -34.0176  -42.8749   10.2511 H   0  0  0  0  0  0  0  0  0  0  0  0
  -34.0981  -45.0824    8.9742 H   0  0  0  0  0  0  0  0  0  0  0  0
  -35.4579  -46.1346    9.5285 H   0  0  0  0  0  0  0  0  0  0  0  0
  -32.2891  -47.8203   10.5644 H   0  0  0  0  0  0  0  0  0  0  0  0
  -33.0311  -47.4005    9.0231 H   0  0  0  0  0  0  0  0  0  0  0  0
  -33.3049  -49.9464   11.9288 H   0  0  0  0  0  0  0  0  0  0  0  0
  -35.2379  -51.4835   11.5203 H   0  0  0  0  0  0  0  0  0  0  0  0
  -37.5567  -48.3638    7.2147 H   0  0  0  0  0  0  0  0  0  0  0  0
  -38.4680  -52.1642    9.3233 H   0  0  0  0  0  0  0  0  0  0  0  0
  -37.2565  -52.5013   10.5143 H   0  0  0  0  0  0  0  0  0  0  0  0
  -32.8209  -45.6689   10.6887 H   0  0  0  0  0  0  0  0  0  0  0  0
  1  2  1  0  0  0  0
  1  3  1  0  0  0  0
  1 25  1  0  0  0  0
  1 26  1  0  0  0  0
  2 27  1  0  0  0  0
  3  4  1  0  0  0  0
  3 28  1  0  0  0  0
  3 29  1  0  0  0  0
  4  5  1  0  0  0  0
  4 30  1  0  0  0  0
  4 31  1  0  0  0  0
  5  6  1  0  0  0  0
  5 32  1  0  0  0  0
  5 33  1  0  0  0  0
  6  7  1  0  0  0  0
  7  8  1  0  0  0  0
  7 34  1  0  0  0  0
  7 35  1  0  0  0  0
  8  9  1  0  0  0  0
  8 10  1  0  0  0  0
  8 36  1  1  0  0  0
  9 13  1  0  0  0  0
  9 37  1  0  0  0  0
  9 38  1  0  0  0  0
 10 11  1  0  0  0  0
 10 12  1  0  0  0  0
 10 39  1  6  0  0  0
 11 40  1  0  0  0  0
 12 13  1  0  0  0  0
 12 41  1  0  0  0  0
 12 42  1  0  0  0  0
 13 14  1  0  0  0  0
 13 50  1  1  0  0  0
 14 15  1  0  0  0  0
 14 43  1  0  0  0  0
 14 44  1  0  0  0  0
 15 16  1  0  0  0  0
 15 19  2  0  0  0  0
 16 17  2  0  0  0  0
 16 45  1  0  0  0  0
 17 18  1  0  0  0  0
 17 46  1  0  0  0  0
 18 19  1  0  0  0  0
 18 23  2  0  0  0  0
 19 20  1  0  0  0  0
 20 21  1  0  0  0  0
 21 22  2  0  0  0  0
 21 47  1  0  0  0  0
 22 23  1  0  0  0  0
 23 24  1  0  0  0  0
 24 48  1  0  0  0  0
 24 49  1  0  0  0  0
M  CHG  2  13   1  17   1
M  END
$$$$
