HCE
 OpenBabel04111918513D

 51 53  0  0  1  0  0  0  0  0999 V2000
   -1.6248   -6.7478   16.1555 O   0  0  0  0  0  0  0  0  0  0  0  0
   -2.8548   -6.7871   16.4561 C   0  0  0  0  0  0  0  0  0  0  0  0
   -3.8267   -7.4459   16.0237 O   0  0  0  0  0  0  0  0  0  0  0  0
   -3.1341   -5.9378   17.7150 C   0  0  1  0  0  0  0  0  0  0  0  0
   -1.8959   -5.8104   18.5815 N   0  3  0  0  0  0  0  0  0  0  0  0
   -3.5740   -4.5478   17.2695 C   0  0  0  0  0  0  0  0  0  0  0  0
   -4.2603   -3.8367   18.4259 C   0  0  0  0  0  0  0  0  0  0  0  0
   -4.8946   -2.2336   17.8618 S   0  0  0  0  0  0  0  0  0  0  0  0
   -4.8550   -1.3332   19.4307 C   0  0  0  0  0  0  0  0  0  0  0  0
   -6.0431   -1.6835   20.3321 C   0  0  1  0  0  0  0  0  0  0  0  0
   -5.8679   -0.9775   21.6819 C   0  0  0  0  0  0  0  0  0  0  0  0
   -7.3879   -1.1605   19.8088 C   0  0  1  0  0  0  0  0  0  0  0  0
   -8.4293   -1.8835   20.4812 O   0  0  0  0  0  0  0  0  0  0  0  0
   -7.4263    0.2770   20.3141 C   0  0  0  0  0  0  0  0  0  0  0  0
   -6.9407    0.0743   21.7328 N   0  3  2  0  0  0  0  0  0  0  0  0
   -6.6435    1.2946   22.5392 C   0  0  0  0  0  0  0  0  0  0  0  0
   -5.4211    2.0444   22.1764 C   0  0  0  0  0  0  0  0  0  0  0  0
   -4.2231    2.0591   22.8774 C   0  0  0  0  0  0  0  0  0  0  0  0
   -3.3566    2.9005   22.2348 N   0  3  0  0  0  0  0  0  0  0  0  0
   -3.9563    3.4312   21.1222 C   0  0  0  0  0  0  0  0  0  0  0  0
   -5.2488    2.9212   21.0625 C   0  0  0  0  0  0  0  0  0  0  0  0
   -6.1164    3.2393   20.0851 N   0  0  0  0  0  0  0  0  0  0  0  0
   -5.5995    4.1057   19.1908 C   0  0  0  0  0  0  0  0  0  0  0  0
   -4.3621    4.6501   19.1778 N   0  0  0  0  0  0  0  0  0  0  0  0
   -3.5131    4.3111   20.1642 C   0  0  0  0  0  0  0  0  0  0  0  0
   -2.2448    4.8327   20.1661 N   0  0  0  0  0  0  0  0  0  0  0  0
   -3.8884   -6.4292   18.3361 H   0  0  0  0  0  0  0  0  0  0  0  0
   -1.9740   -5.2423   19.4167 H   0  0  0  0  0  0  0  0  0  0  0  0
   -1.5930   -6.7682   18.8027 H   0  0  0  0  0  0  0  0  0  0  0  0
   -4.2607   -4.6274   16.4171 H   0  0  0  0  0  0  0  0  0  0  0  0
   -2.7099   -3.9625   16.9217 H   0  0  0  0  0  0  0  0  0  0  0  0
   -3.5415   -3.6780   19.2364 H   0  0  0  0  0  0  0  0  0  0  0  0
   -5.0826   -4.4440   18.8182 H   0  0  0  0  0  0  0  0  0  0  0  0
   -4.8435   -0.2657   19.1922 H   0  0  0  0  0  0  0  0  0  0  0  0
   -3.9057   -1.5478   19.9350 H   0  0  0  0  0  0  0  0  0  0  0  0
   -6.0768   -2.7658   20.5094 H   0  0  0  0  0  0  0  0  0  0  0  0
   -4.8867   -0.5047   21.7788 H   0  0  0  0  0  0  0  0  0  0  0  0
   -6.0299   -1.6463   22.5334 H   0  0  0  0  0  0  0  0  0  0  0  0
   -7.5236   -1.2484   18.7278 H   0  0  0  0  0  0  0  0  0  0  0  0
   -9.2742   -1.6828   20.0299 H   0  0  0  0  0  0  0  0  0  0  0  0
   -8.4344    0.6984   20.3619 H   0  0  0  0  0  0  0  0  0  0  0  0
   -6.7346    0.9160   19.7707 H   0  0  0  0  0  0  0  0  0  0  0  0
   -6.5430    0.9270   23.5706 H   0  0  0  0  0  0  0  0  0  0  0  0
   -7.5326    1.9307   22.5083 H   0  0  0  0  0  0  0  0  0  0  0  0
   -3.9181    1.5615   23.7911 H   0  0  0  0  0  0  0  0  0  0  0  0
   -2.4123    3.1168   22.5271 H   0  0  0  0  0  0  0  0  0  0  0  0
   -6.2498    4.4055   18.3740 H   0  0  0  0  0  0  0  0  0  0  0  0
   -2.0478    5.5487   19.4764 H   0  0  0  0  0  0  0  0  0  0  0  0
   -1.6073    4.7070   20.9305 H   0  0  0  0  0  0  0  0  0  0  0  0
   -1.1475   -5.4902   17.9372 H   0  0  0  0  0  0  0  0  0  0  0  0
   -7.7422   -0.3889   22.1882 H   0  0  0  0  0  0  0  0  0  0  0  0
  1  2  2  0  0  0  0
  2  3  1  0  0  0  0
  2  4  1  0  0  0  0
  4  5  1  0  0  0  0
  4  6  1  0  0  0  0
  4 27  1  1  0  0  0
  5 28  1  0  0  0  0
  5 29  1  0  0  0  0
  5 50  1  0  0  0  0
  6  7  1  0  0  0  0
  6 30  1  0  0  0  0
  6 31  1  0  0  0  0
  7  8  1  0  0  0  0
  7 32  1  0  0  0  0
  7 33  1  0  0  0  0
  8  9  1  0  0  0  0
  9 10  1  0  0  0  0
  9 34  1  0  0  0  0
  9 35  1  0  0  0  0
 10 11  1  0  0  0  0
 10 12  1  0  0  0  0
 10 36  1  1  0  0  0
 11 15  1  0  0  0  0
 11 37  1  0  0  0  0
 11 38  1  0  0  0  0
 12 13  1  0  0  0  0
 12 14  1  0  0  0  0
 12 39  1  6  0  0  0
 13 40  1  0  0  0  0
 14 15  1  0  0  0  0
 14 41  1  0  0  0  0
 14 42  1  0  0  0  0
 15 16  1  0  0  0  0
 15 51  1  1  0  0  0
 16 17  1  0  0  0  0
 16 43  1  0  0  0  0
 16 44  1  0  0  0  0
 17 18  1  0  0  0  0
 17 21  2  0  0  0  0
 18 19  2  0  0  0  0
 18 45  1  0  0  0  0
 19 20  1  0  0  0  0
 19 46  1  0  0  0  0
 20 21  1  0  0  0  0
 20 25  2  0  0  0  0
 21 22  1  0  0  0  0
 22 23  1  0  0  0  0
 23 24  2  0  0  0  0
 23 47  1  0  0  0  0
 24 25  1  0  0  0  0
 25 26  1  0  0  0  0
 26 48  1  0  0  0  0
 26 49  1  0  0  0  0
M  CHG  3   5   1  15   1  19   1
M  END
$$$$
