HCS
 OpenBabel04111920183D

 17 16  0  0  1  0  0  0  0  0999 V2000
   79.8214    6.5136  -38.6054 N   0  3  0  0  0  0  0  0  0  0  0  0
   79.0962    5.4235  -37.8318 C   0  0  1  0  0  0  0  0  0  0  0  0
   79.6452    5.4749  -36.3872 C   0  0  0  0  0  0  0  0  0  0  0  0
   78.9753    4.4167  -35.5127 C   0  0  0  0  0  0  0  0  0  0  0  0
   80.0945    4.1771  -34.0738 S   0  0  0  0  0  0  0  0  0  0  0  0
   77.5268    5.5928  -37.9490 C   0  0  0  0  0  0  0  0  0  0  0  0
   76.8608    4.5758  -37.6151 O   0  0  0  0  0  0  0  0  0  0  0  0
   77.1973    6.7080  -38.4228 O   0  0  0  0  0  0  0  0  0  0  0  0
   79.4419    6.5178  -39.5678 H   0  0  0  0  0  0  0  0  0  0  0  0
   79.5320    7.4137  -38.1994 H   0  0  0  0  0  0  0  0  0  0  0  0
   79.4139    4.5016  -38.3107 H   0  0  0  0  0  0  0  0  0  0  0  0
   79.4779    6.4593  -35.9463 H   0  0  0  0  0  0  0  0  0  0  0  0
   80.7325    5.3159  -36.3925 H   0  0  0  0  0  0  0  0  0  0  0  0
   78.8580    3.4841  -36.0744 H   0  0  0  0  0  0  0  0  0  0  0  0
   77.9900    4.7688  -35.1879 H   0  0  0  0  0  0  0  0  0  0  0  0
   79.4370    3.2396  -33.3739 H   0  0  0  0  0  0  0  0  0  0  0  0
   80.8316    6.3901  -38.5979 H   0  0  0  0  0  0  0  0  0  0  0  0
  1  2  1  0  0  0  0
  1  9  1  0  0  0  0
  1 10  1  0  0  0  0
  1 17  1  0  0  0  0
  2  3  1  0  0  0  0
  2  6  1  0  0  0  0
  2 11  1  6  0  0  0
  3  4  1  0  0  0  0
  3 12  1  0  0  0  0
  3 13  1  0  0  0  0
  4  5  1  0  0  0  0
  4 14  1  0  0  0  0
  4 15  1  0  0  0  0
  5 16  1  0  0  0  0
  6  7  2  0  0  0  0
  6  8  1  0  0  0  0
M  CHG  1   1   1
M  END
$$$$
