HIC
 OpenBabel04111922383D

 23 23  0  0  1  0  0  0  0  0999 V2000
   -3.1253    2.6549    7.1174 N   0  3  0  0  0  0  0  0  0  0  0  0
   -3.4159    4.1239    7.3552 C   0  0  2  0  0  0  0  0  0  0  0  0
   -3.7682    4.8596    6.0339 C   0  0  0  0  0  0  0  0  0  0  0  0
   -3.4802    4.1685    5.0063 O   0  0  0  0  0  0  0  0  0  0  0  0
   -2.2101    4.7844    8.0292 C   0  0  0  0  0  0  0  0  0  0  0  0
   -1.7571    4.0708    9.2687 C   0  0  0  0  0  0  0  0  0  0  0  0
   -0.4324    3.9151    9.5881 N   0  0  0  0  0  0  0  0  0  0  0  0
   -2.5460    3.4371   10.2106 C   0  0  0  0  0  0  0  0  0  0  0  0
   -0.3938    3.2189   10.7008 C   0  0  0  0  0  0  0  0  0  0  0  0
   -1.6715    2.8930   11.1193 N   0  3  0  0  0  0  0  0  0  0  0  0
   -2.0615    2.1211   12.2826 C   0  0  0  0  0  0  0  0  0  0  0  0
   -4.3385    5.9472    6.1736 O   0  0  0  0  0  0  0  0  0  0  0  0
   -2.8694    2.1837    7.9720 H   0  0  0  0  0  0  0  0  0  0  0  0
   -3.9501    2.2395    6.6734 H   0  0  0  0  0  0  0  0  0  0  0  0
   -4.2724    4.1542    8.0398 H   0  0  0  0  0  0  0  0  0  0  0  0
   -2.4795    5.8102    8.3065 H   0  0  0  0  0  0  0  0  0  0  0  0
   -1.3718    4.8239    7.3251 H   0  0  0  0  0  0  0  0  0  0  0  0
   -3.6238    3.3658   10.2583 H   0  0  0  0  0  0  0  0  0  0  0  0
    0.5160    2.9292   11.2176 H   0  0  0  0  0  0  0  0  0  0  0  0
   -3.1550    2.0445   12.3282 H   0  0  0  0  0  0  0  0  0  0  0  0
   -1.6995    2.6159   13.1867 H   0  0  0  0  0  0  0  0  0  0  0  0
   -1.6377    1.1158   12.2106 H   0  0  0  0  0  0  0  0  0  0  0  0
   -2.3684    2.6055    6.4216 H   0  0  0  0  0  0  0  0  0  0  0  0
  1  2  1  0  0  0  0
  1 13  1  0  0  0  0
  1 14  1  0  0  0  0
  1 23  1  0  0  0  0
  2  3  1  0  0  0  0
  2  5  1  0  0  0  0
  2 15  1  1  0  0  0
  3  4  2  0  0  0  0
  3 12  1  0  0  0  0
  5  6  1  0  0  0  0
  5 16  1  0  0  0  0
  5 17  1  0  0  0  0
  6  7  1  0  0  0  0
  6  8  2  0  0  0  0
  7  9  1  0  0  0  0
  8 10  1  0  0  0  0
  8 18  1  0  0  0  0
  9 10  2  0  0  0  0
  9 19  1  0  0  0  0
 10 11  1  0  0  0  0
 11 20  1  0  0  0  0
 11 21  1  0  0  0  0
 11 22  1  0  0  0  0
M  CHG  2   1   1  10   1
M  END
$$$$
