HNV
 OpenBabel04111917473D

 43 44  0  0  1  0  0  0  0  0999 V2000
  -13.9801    3.3523   -9.3008 O   0  0  0  0  0  0  0  0  0  0  0  0
  -14.5144    3.3115  -10.6218 C   0  0  0  0  0  0  0  0  0  0  0  0
  -14.3613    1.9118  -11.2364 C   0  0  1  0  0  0  0  0  0  0  0  0
  -12.9613    1.6421  -11.3773 O   0  0  0  0  0  0  0  0  0  0  0  0
  -15.0649    0.8304  -10.4023 C   0  0  1  0  0  0  0  0  0  0  0  0
  -16.4811    1.0775  -10.3941 O   0  0  0  0  0  0  0  0  0  0  0  0
  -14.7986   -0.5525  -11.0211 C   0  0  2  0  0  0  0  0  0  0  0  0
  -15.2739   -1.5942  -10.1448 O   0  0  0  0  0  0  0  0  0  0  0  0
  -13.3043   -0.7851  -11.2630 C   0  0  2  0  0  0  0  0  0  0  0  0
  -12.6258   -0.9913  -10.0120 O   0  0  0  0  0  0  0  0  0  0  0  0
  -12.6862    0.3984  -12.0221 C   0  0  1  0  0  0  0  0  0  0  0  0
  -13.1514    0.4104  -13.3716 O   0  0  0  0  0  0  0  0  0  0  0  0
  -12.4226    1.3716  -14.1339 C   0  0  0  0  0  0  0  0  0  0  0  0
  -13.0464    1.5164  -15.4394 C   0  0  0  0  0  0  0  0  0  0  0  0
  -13.5215    1.6892  -16.5236 C   0  0  0  0  0  0  0  0  0  0  0  0
  -14.0558    1.9138  -17.8354 C   0  0  0  0  0  0  0  0  0  0  0  0
  -15.3527    1.4978  -18.1484 C   0  0  0  0  0  0  0  0  0  0  0  0
  -15.8568    1.7111  -19.4339 C   0  0  0  0  0  0  0  0  0  0  0  0
  -15.0892    2.3327  -20.4066 C   0  0  0  0  0  0  0  0  0  0  0  0
  -15.4769    2.5750  -21.6889 O   0  0  0  0  0  0  0  0  0  0  0  0
  -16.8288    2.2984  -22.0139 C   0  0  0  0  0  0  0  0  0  0  0  0
  -13.7893    2.7464  -20.0911 C   0  0  0  0  0  0  0  0  0  0  0  0
  -13.2762    2.5412  -18.8051 C   0  0  0  0  0  0  0  0  0  0  0  0
  -13.9396    4.2864   -9.0339 H   0  0  0  0  0  0  0  0  0  0  0  0
  -13.9784    4.0472  -11.2315 H   0  0  0  0  0  0  0  0  0  0  0  0
  -15.5667    3.6067  -10.5633 H   0  0  0  0  0  0  0  0  0  0  0  0
  -14.8207    1.9616  -12.2338 H   0  0  0  0  0  0  0  0  0  0  0  0
  -14.7173    0.8279   -9.3623 H   0  0  0  0  0  0  0  0  0  0  0  0
  -16.6352    1.7920   -9.7503 H   0  0  0  0  0  0  0  0  0  0  0  0
  -15.3599   -0.6368  -11.9608 H   0  0  0  0  0  0  0  0  0  0  0  0
  -15.2685   -2.4211  -10.6593 H   0  0  0  0  0  0  0  0  0  0  0  0
  -13.1771   -1.7132  -11.8333 H   0  0  0  0  0  0  0  0  0  0  0  0
  -13.2205   -1.5448   -9.4679 H   0  0  0  0  0  0  0  0  0  0  0  0
  -11.5958    0.2711  -12.0184 H   0  0  0  0  0  0  0  0  0  0  0  0
  -11.3891    1.0384  -14.2442 H   0  0  0  0  0  0  0  0  0  0  0  0
  -12.4322    2.3458  -13.6360 H   0  0  0  0  0  0  0  0  0  0  0  0
  -15.9659    1.0063  -17.3986 H   0  0  0  0  0  0  0  0  0  0  0  0
  -16.8684    1.3679  -19.6361 H   0  0  0  0  0  0  0  0  0  0  0  0
  -16.9896    2.5508  -23.0669 H   0  0  0  0  0  0  0  0  0  0  0  0
  -17.5096    2.9137  -21.4154 H   0  0  0  0  0  0  0  0  0  0  0  0
  -17.0509    1.2331  -21.8945 H   0  0  0  0  0  0  0  0  0  0  0  0
  -13.1733    3.2325  -20.8435 H   0  0  0  0  0  0  0  0  0  0  0  0
  -12.2694    2.8727  -18.5725 H   0  0  0  0  0  0  0  0  0  0  0  0
  1  2  1  0  0  0  0
  1 24  1  0  0  0  0
  2  3  1  0  0  0  0
  2 25  1  0  0  0  0
  2 26  1  0  0  0  0
  3  4  1  0  0  0  0
  3  5  1  0  0  0  0
  3 27  1  6  0  0  0
  4 11  1  0  0  0  0
  5  6  1  0  0  0  0
  5  7  1  0  0  0  0
  5 28  1  1  0  0  0
  6 29  1  0  0  0  0
  7  8  1  0  0  0  0
  7  9  1  0  0  0  0
  7 30  1  6  0  0  0
  8 31  1  0  0  0  0
  9 10  1  0  0  0  0
  9 11  1  0  0  0  0
  9 32  1  6  0  0  0
 10 33  1  0  0  0  0
 11 12  1  0  0  0  0
 11 34  1  6  0  0  0
 12 13  1  0  0  0  0
 13 14  1  0  0  0  0
 13 35  1  0  0  0  0
 13 36  1  0  0  0  0
 14 15  3  0  0  0  0
 15 16  1  0  0  0  0
 16 17  2  0  0  0  0
 16 23  1  0  0  0  0
 17 18  1  0  0  0  0
 17 37  1  0  0  0  0
 18 19  2  0  0  0  0
 18 38  1  0  0  0  0
 19 20  1  0  0  0  0
 19 22  1  0  0  0  0
 20 21  1  0  0  0  0
 21 39  1  0  0  0  0
 21 40  1  0  0  0  0
 21 41  1  0  0  0  0
 22 23  2  0  0  0  0
 22 42  1  0  0  0  0
 23 43  1  0  0  0  0
M  END
$$$$
