HNW
 OpenBabel04111917473D

 40 41  0  0  1  0  0  0  0  0999 V2000
   15.6312    2.4475    9.7192 O   0  0  0  0  0  0  0  0  0  0  0  0
   16.3823    2.3880   10.9206 C   0  0  0  0  0  0  0  0  0  0  0  0
   16.6408    0.9729   11.3783 C   0  0  1  0  0  0  0  0  0  0  0  0
   15.3749    0.3657   11.6389 O   0  0  0  0  0  0  0  0  0  0  0  0
   17.4835    0.2286   10.3566 C   0  0  1  0  0  0  0  0  0  0  0  0
   18.7944    0.7985   10.3129 O   0  0  0  0  0  0  0  0  0  0  0  0
   17.6119   -1.1978   10.7913 C   0  0  2  0  0  0  0  0  0  0  0  0
   18.2988   -1.9660    9.8001 O   0  0  0  0  0  0  0  0  0  0  0  0
   16.2531   -1.8005   11.0457 C   0  0  2  0  0  0  0  0  0  0  0  0
   15.5258   -1.8520    9.8326 O   0  0  0  0  0  0  0  0  0  0  0  0
   14.6850    2.2697   21.4935 O   0  0  0  0  0  0  0  0  0  0  0  0
   14.0118    2.6615   20.2963 C   0  0  0  0  0  0  0  0  0  0  0  0
   14.4422    1.9234   19.0631 C   0  0  0  0  0  0  0  0  0  0  0  0
   14.7262    1.3988   18.0274 C   0  0  0  0  0  0  0  0  0  0  0  0
   15.0892    0.7477   16.7800 C   0  0  0  0  0  0  0  0  0  0  0  0
   16.3394    0.1557   16.6383 C   0  0  0  0  0  0  0  0  0  0  0  0
   16.6690   -0.4664   15.4296 C   0  0  0  0  0  0  0  0  0  0  0  0
   15.7821   -0.4820   14.3800 C   0  0  0  0  0  0  0  0  0  0  0  0
   16.2311   -1.1182   13.2686 O   0  0  0  0  0  0  0  0  0  0  0  0
   15.4851   -0.9880   12.0705 C   0  0  1  0  0  0  0  0  0  0  0  0
   14.5391    0.1060   14.5158 C   0  0  0  0  0  0  0  0  0  0  0  0
   14.2028    0.7265   15.7240 C   0  0  0  0  0  0  0  0  0  0  0  0
   15.5033    3.3847    9.5139 H   0  0  0  0  0  0  0  0  0  0  0  0
   15.8235    2.8888   11.7049 H   0  0  0  0  0  0  0  0  0  0  0  0
   17.3370    2.8784   10.7490 H   0  0  0  0  0  0  0  0  0  0  0  0
   17.2191    1.0680   12.3090 H   0  0  0  0  0  0  0  0  0  0  0  0
   17.0300    0.2334    9.3657 H   0  0  0  0  0  0  0  0  0  0  0  0
   18.6945    1.7084   10.0129 H   0  0  0  0  0  0  0  0  0  0  0  0
   18.1726   -1.2000   11.7210 H   0  0  0  0  0  0  0  0  0  0  0  0
   18.3466   -2.8768   10.1155 H   0  0  0  0  0  0  0  0  0  0  0  0
   16.4154   -2.8135   11.3986 H   0  0  0  0  0  0  0  0  0  0  0  0
   16.0555   -2.3760    9.2105 H   0  0  0  0  0  0  0  0  0  0  0  0
   15.6296    2.4466   21.3732 H   0  0  0  0  0  0  0  0  0  0  0  0
   14.1897    3.7349   20.1699 H   0  0  0  0  0  0  0  0  0  0  0  0
   12.9465    2.4892   20.4828 H   0  0  0  0  0  0  0  0  0  0  0  0
   17.0413    0.1834   17.4536 H   0  0  0  0  0  0  0  0  0  0  0  0
   17.6320   -0.9476   15.3060 H   0  0  0  0  0  0  0  0  0  0  0  0
   14.4745   -1.4021   12.2127 H   0  0  0  0  0  0  0  0  0  0  0  0
   13.8336    0.0884   13.7065 H   0  0  0  0  0  0  0  0  0  0  0  0
   13.2396    1.2021   15.8394 H   0  0  0  0  0  0  0  0  0  0  0  0
  1  2  1  0  0  0  0
  1 23  1  0  0  0  0
  2  3  1  0  0  0  0
  2 24  1  0  0  0  0
  2 25  1  0  0  0  0
  3  4  1  0  0  0  0
  3  5  1  0  0  0  0
  3 26  1  1  0  0  0
  4 20  1  0  0  0  0
  5  6  1  0  0  0  0
  5  7  1  0  0  0  0
  5 27  1  6  0  0  0
  6 28  1  0  0  0  0
  7  8  1  0  0  0  0
  7  9  1  0  0  0  0
  7 29  1  1  0  0  0
  8 30  1  0  0  0  0
  9 10  1  0  0  0  0
  9 20  1  0  0  0  0
  9 31  1  1  0  0  0
 10 32  1  0  0  0  0
 11 12  1  0  0  0  0
 11 33  1  0  0  0  0
 12 13  1  0  0  0  0
 12 34  1  0  0  0  0
 12 35  1  0  0  0  0
 13 14  3  0  0  0  0
 14 15  1  0  0  0  0
 15 16  2  0  0  0  0
 15 22  1  0  0  0  0
 16 17  1  0  0  0  0
 16 36  1  0  0  0  0
 17 18  2  0  0  0  0
 17 37  1  0  0  0  0
 18 19  1  0  0  0  0
 18 21  1  0  0  0  0
 19 20  1  0  0  0  0
 20 38  1  1  0  0  0
 21 22  2  0  0  0  0
 21 39  1  0  0  0  0
 22 40  1  0  0  0  0
M  END
$$$$
