HQT
 OpenBabel04111921193D

 20 21  0  0  1  0  0  0  0  0999 V2000
   15.2503    0.0785   17.1620 S   0  0  0  0  0  0  0  0  0  0  0  0
   15.3115    1.1189   15.6661 C   0  0  1  0  0  0  0  0  0  0  0  0
   15.2762    2.6279   15.9440 C   0  0  0  0  0  0  0  0  0  0  0  0
   14.6246    3.1571   17.0732 C   0  0  0  0  0  0  0  0  0  0  0  0
   14.3948    4.5240   17.1766 C   0  0  0  0  0  0  0  0  0  0  0  0
   14.8042    5.3802   16.1662 C   0  0  0  0  0  0  0  0  0  0  0  0
   15.4672    4.8771   15.0403 C   0  0  0  0  0  0  0  0  0  0  0  0
   15.7196    3.5053   14.9290 C   0  0  0  0  0  0  0  0  0  0  0  0
   16.3969    2.9695   13.7346 C   0  0  0  0  0  0  0  0  0  0  0  0
   16.6773    1.6474   13.6926 C   0  0  0  0  0  0  0  0  0  0  0  0
   16.3804    0.7624   14.7074 N   0  3  0  0  0  0  0  0  0  0  0  0
   16.4639   -0.5966   14.3640 O   0  0  0  0  0  0  0  0  0  0  0  0
   14.3945   -0.7676   16.5779 H   0  0  0  0  0  0  0  0  0  0  0  0
   14.3491    0.9332   15.1655 H   0  0  0  0  0  0  0  0  0  0  0  0
   14.2533    2.5049   17.8613 H   0  0  0  0  0  0  0  0  0  0  0  0
   13.8680    4.9011   18.0567 H   0  0  0  0  0  0  0  0  0  0  0  0
   14.5995    6.4403   16.2420 H   0  0  0  0  0  0  0  0  0  0  0  0
   15.7638    5.5582   14.2465 H   0  0  0  0  0  0  0  0  0  0  0  0
   16.6670    3.6237   12.9232 H   0  0  0  0  0  0  0  0  0  0  0  0
   17.1577    1.2132   12.8186 H   0  0  0  0  0  0  0  0  0  0  0  0
  1  2  1  0  0  0  0
  1 13  1  0  0  0  0
  2  3  1  0  0  0  0
  2 11  1  0  0  0  0
  2 14  1  6  0  0  0
  3  4  2  0  0  0  0
  3  8  1  0  0  0  0
  4  5  1  0  0  0  0
  4 15  1  0  0  0  0
  5  6  2  0  0  0  0
  5 16  1  0  0  0  0
  6  7  1  0  0  0  0
  6 17  1  0  0  0  0
  7  8  2  0  0  0  0
  7 18  1  0  0  0  0
  8  9  1  0  0  0  0
  9 10  2  0  0  0  0
  9 19  1  0  0  0  0
 10 11  1  0  0  0  0
 10 20  1  0  0  0  0
 11 12  1  0  0  0  0
M  CHG  1  11   1
M  END
$$$$
