I29
 OpenBabel04111919363D

 73 76  0  0  1  0  0  0  0  0999 V2000
  -13.0006   -8.5754    2.6819 N   0  0  0  0  0  0  0  0  0  0  0  0
  -12.0455   -9.1869    1.6523 C   0  0  2  0  0  0  0  0  0  0  0  0
  -10.9955   -8.1895    1.1523 C   0  0  0  0  0  0  0  0  0  0  0  0
  -12.8774   -9.7687    0.4874 C   0  0  0  0  0  0  0  0  0  0  0  0
  -11.3648  -10.3287    2.5530 C   0  0  2  0  0  0  0  0  0  0  0  0
  -10.0801   -9.8460    3.2332 C   0  0  0  0  0  0  0  0  0  0  0  0
  -11.1426  -11.6605    1.8559 C   0  0  0  0  0  0  0  0  0  0  0  0
  -12.3665  -10.4989    3.6407 N   0  0  0  0  0  0  0  0  0  0  0  0
  -13.2789   -9.5360    3.5649 C   0  0  0  0  0  0  0  0  0  0  0  0
  -14.5646   -9.6975    4.2920 C   0  0  0  0  0  0  0  0  0  0  0  0
  -14.2502  -10.0440    0.6274 C   0  0  0  0  0  0  0  0  0  0  0  0
  -14.9732  -10.6971   -0.3658 C   0  0  0  0  0  0  0  0  0  0  0  0
  -14.3314  -11.0950   -1.5293 C   0  0  0  0  0  0  0  0  0  0  0  0
  -15.1979  -12.0015   -2.6983 Cl  0  0  0  0  0  0  0  0  0  0  0  0
  -12.9923  -10.7848   -1.7317 C   0  0  0  0  0  0  0  0  0  0  0  0
  -12.2705  -10.1254   -0.7320 C   0  0  0  0  0  0  0  0  0  0  0  0
   -9.9024  -11.9162    1.2280 C   0  0  0  0  0  0  0  0  0  0  0  0
   -9.6914  -13.0907    0.5229 C   0  0  0  0  0  0  0  0  0  0  0  0
  -10.7090  -14.0185    0.4044 C   0  0  0  0  0  0  0  0  0  0  0  0
  -10.4647  -15.4450   -0.5137 Cl  0  0  0  0  0  0  0  0  0  0  0  0
  -11.9481  -13.7970    1.0181 C   0  0  0  0  0  0  0  0  0  0  0  0
  -12.1559  -12.6233    1.7460 C   0  0  0  0  0  0  0  0  0  0  0  0
  -13.6838   -7.3703    2.3885 C   0  0  0  0  0  0  0  0  0  0  0  0
  -13.7126   -6.9390    1.2550 O   0  0  0  0  0  0  0  0  0  0  0  0
  -14.4005   -6.8408    3.4404 N   0  0  0  0  0  0  0  0  0  0  0  0
  -15.6565   -6.1730    3.1070 C   0  0  0  0  0  0  0  0  0  0  0  0
  -16.5541   -6.1881    4.3395 C   0  0  0  0  0  0  0  0  0  0  0  0
  -15.9216   -5.3208    5.4188 N   0  3  2  0  0  0  0  0  0  0  0  0
  -14.4115   -5.5184    5.6105 C   0  0  0  0  0  0  0  0  0  0  0  0
  -13.8680   -6.6924    4.7994 C   0  0  0  0  0  0  0  0  0  0  0  0
  -16.2441   -4.3886    7.7109 C   0  0  0  0  0  0  0  0  0  0  0  0
  -17.2657   -4.2265    8.8346 C   0  0  0  0  0  0  0  0  0  0  0  0
  -16.5585   -4.7099   10.3831 S   0  0  0  0  0  0  0  0  0  0  0  0
  -17.9030   -4.5116   11.5584 C   0  0  0  0  0  0  0  0  0  0  0  0
  -15.5200   -3.7501   10.6903 O   0  0  0  0  0  0  0  0  0  0  0  0
  -16.2633   -6.1081   10.2427 O   0  0  0  0  0  0  0  0  0  0  0  0
  -16.7201   -5.4222    6.6985 C   0  0  0  0  0  0  0  0  0  0  0  0
  -10.2952   -8.6732    0.4669 H   0  0  0  0  0  0  0  0  0  0  0  0
  -10.4063   -7.7606    1.9647 H   0  0  0  0  0  0  0  0  0  0  0  0
  -11.4401   -7.3454    0.6230 H   0  0  0  0  0  0  0  0  0  0  0  0
   -9.6357  -10.6213    3.8612 H   0  0  0  0  0  0  0  0  0  0  0  0
  -10.2647   -8.9630    3.8491 H   0  0  0  0  0  0  0  0  0  0  0  0
   -9.3230   -9.5707    2.4890 H   0  0  0  0  0  0  0  0  0  0  0  0
  -14.5704  -10.6057    4.9108 H   0  0  0  0  0  0  0  0  0  0  0  0
  -15.3846   -9.7324    3.5970 H   0  0  0  0  0  0  0  0  0  0  0  0
  -14.8406   -8.9457    4.9877 H   0  0  0  0  0  0  0  0  0  0  0  0
  -14.8052   -9.7714    1.5146 H   0  0  0  0  0  0  0  0  0  0  0  0
  -16.0315  -10.8957   -0.2197 H   0  0  0  0  0  0  0  0  0  0  0  0
  -12.4968  -11.0642   -2.6596 H   0  0  0  0  0  0  0  0  0  0  0  0
  -11.2168   -9.9463   -0.9305 H   0  0  0  0  0  0  0  0  0  0  0  0
   -9.0806  -11.2098    1.2605 H   0  0  0  0  0  0  0  0  0  0  0  0
   -8.7155  -13.2729    0.0530 H   0  0  0  0  0  0  0  0  0  0  0  0
  -12.7440  -14.5277    0.9217 H   0  0  0  0  0  0  0  0  0  0  0  0
  -13.1460  -12.4635    2.1722 H   0  0  0  0  0  0  0  0  0  0  0  0
  -16.1412   -6.7119    2.2864 H   0  0  0  0  0  0  0  0  0  0  0  0
  -15.4628   -5.1477    2.7766 H   0  0  0  0  0  0  0  0  0  0  0  0
  -16.6375   -7.2017    4.7466 H   0  0  0  0  0  0  0  0  0  0  0  0
  -17.5558   -5.7898    4.1287 H   0  0  0  0  0  0  0  0  0  0  0  0
  -14.2327   -5.7420    6.6697 H   0  0  0  0  0  0  0  0  0  0  0  0
  -13.9245   -4.5897    5.3295 H   0  0  0  0  0  0  0  0  0  0  0  0
  -12.7734   -6.7730    4.8054 H   0  0  0  0  0  0  0  0  0  0  0  0
  -14.1913   -7.4979    5.4384 H   0  0  0  0  0  0  0  0  0  0  0  0
  -15.2688   -4.6946    8.1077 H   0  0  0  0  0  0  0  0  0  0  0  0
  -16.0812   -3.4247    7.2087 H   0  0  0  0  0  0  0  0  0  0  0  0
  -18.1474   -4.8551    8.6628 H   0  0  0  0  0  0  0  0  0  0  0  0
  -17.5731   -3.1827    8.9028 H   0  0  0  0  0  0  0  0  0  0  0  0
  -17.5314   -4.7897   12.5459 H   0  0  0  0  0  0  0  0  0  0  0  0
  -18.7224   -5.1697   11.2574 H   0  0  0  0  0  0  0  0  0  0  0  0
  -18.2144   -3.4686   11.5476 H   0  0  0  0  0  0  0  0  0  0  0  0
  -16.6165   -6.4461    7.0731 H   0  0  0  0  0  0  0  0  0  0  0  0
  -17.7652   -5.2400    6.4192 H   0  0  0  0  0  0  0  0  0  0  0  0
  -12.4438  -11.2919    4.2609 H   0  0  0  0  0  0  0  0  0  0  0  0
  -16.0216   -4.3487    5.0869 H   0  0  0  0  0  0  0  0  0  0  0  0
  1  2  1  0  0  0  0
  1  9  1  0  0  0  0
  1 23  1  0  0  0  0
  2  3  1  6  0  0  0
  2  4  1  0  0  0  0
  2  5  1  0  0  0  0
  3 38  1  0  0  0  0
  3 39  1  0  0  0  0
  3 40  1  0  0  0  0
  4 11  2  0  0  0  0
  4 16  1  0  0  0  0
  5  6  1  1  0  0  0
  5  7  1  0  0  0  0
  5  8  1  0  0  0  0
  6 41  1  0  0  0  0
  6 42  1  0  0  0  0
  6 43  1  0  0  0  0
  7 17  2  0  0  0  0
  7 22  1  0  0  0  0
  8  9  2  0  0  0  0
  8 72  1  0  0  0  0
  9 10  1  0  0  0  0
 10 44  1  0  0  0  0
 10 45  1  0  0  0  0
 10 46  1  0  0  0  0
 11 12  1  0  0  0  0
 11 47  1  0  0  0  0
 12 13  2  0  0  0  0
 12 48  1  0  0  0  0
 13 14  1  0  0  0  0
 13 15  1  0  0  0  0
 15 16  2  0  0  0  0
 15 49  1  0  0  0  0
 16 50  1  0  0  0  0
 17 18  1  0  0  0  0
 17 51  1  0  0  0  0
 18 19  2  0  0  0  0
 18 52  1  0  0  0  0
 19 20  1  0  0  0  0
 19 21  1  0  0  0  0
 21 22  2  0  0  0  0
 21 53  1  0  0  0  0
 22 54  1  0  0  0  0
 23 24  2  0  0  0  0
 23 25  1  0  0  0  0
 25 26  1  0  0  0  0
 25 30  1  0  0  0  0
 26 27  1  0  0  0  0
 26 55  1  0  0  0  0
 26 56  1  0  0  0  0
 27 28  1  0  0  0  0
 27 57  1  0  0  0  0
 27 58  1  0  0  0  0
 28 29  1  0  0  0  0
 28 37  1  0  0  0  0
 28 73  1  6  0  0  0
 29 30  1  0  0  0  0
 29 59  1  0  0  0  0
 29 60  1  0  0  0  0
 30 61  1  0  0  0  0
 30 62  1  0  0  0  0
 31 32  1  0  0  0  0
 31 37  1  0  0  0  0
 31 63  1  0  0  0  0
 31 64  1  0  0  0  0
 32 33  1  0  0  0  0
 32 65  1  0  0  0  0
 32 66  1  0  0  0  0
 33 34  1  0  0  0  0
 33 35  2  0  0  0  0
 33 36  2  0  0  0  0
 34 67  1  0  0  0  0
 34 68  1  0  0  0  0
 34 69  1  0  0  0  0
 37 70  1  0  0  0  0
 37 71  1  0  0  0  0
M  CHG  1  28   1
M  END
$$$$
