I2E
 OpenBabel04111917423D

 23 24  0  0  0  0  0  0  0  0999 V2000
   16.6540  -20.8912   11.5786 C   0  0  0  0  0  0  0  0  0  0  0  0
   15.5795  -21.3089   10.8235 C   0  0  0  0  0  0  0  0  0  0  0  0
   15.2350  -22.6536   10.8937 C   0  0  0  0  0  0  0  0  0  0  0  0
   17.3776  -21.7508   12.3793 C   0  0  0  0  0  0  0  0  0  0  0  0
   17.0537  -23.0733   12.4850 C   0  0  0  0  0  0  0  0  0  0  0  0
   15.9491  -23.5202   11.7439 C   0  0  0  0  0  0  0  0  0  0  0  0
   15.5347  -24.9537   11.8692 C   0  0  0  0  0  0  0  0  0  0  0  0
   16.2226  -25.8230   10.8293 C   0  0  0  0  0  0  0  0  0  0  0  0
   17.2841  -26.7085   11.4904 C   0  0  0  0  0  0  0  0  0  0  0  0
   17.7303  -27.6041   10.7372 O   0  0  0  0  0  0  0  0  0  0  0  0
   18.3835  -19.8725   12.3294 C   0  0  0  0  0  0  0  0  0  0  0  0
   17.6041  -26.4416   12.6861 O   0  0  0  0  0  0  0  0  0  0  0  0
   17.1527  -19.6242   11.6192 O   0  0  0  0  0  0  0  0  0  0  0  0
   18.4069  -21.1313   13.0150 O   0  0  0  0  0  0  0  0  0  0  0  0
   15.0326  -20.6258   10.1862 H   0  0  0  0  0  0  0  0  0  0  0  0
   14.4161  -23.0471   10.2963 H   0  0  0  0  0  0  0  0  0  0  0  0
   17.6206  -23.7579   13.1122 H   0  0  0  0  0  0  0  0  0  0  0  0
   14.4458  -25.0272   11.7847 H   0  0  0  0  0  0  0  0  0  0  0  0
   15.7417  -25.2574   12.9003 H   0  0  0  0  0  0  0  0  0  0  0  0
   16.6931  -25.2322   10.0199 H   0  0  0  0  0  0  0  0  0  0  0  0
   15.4729  -26.4529   10.3397 H   0  0  0  0  0  0  0  0  0  0  0  0
   18.5500  -19.0686   13.0513 H   0  0  0  0  0  0  0  0  0  0  0  0
   19.2027  -19.8718   11.5956 H   0  0  0  0  0  0  0  0  0  0  0  0
  1  2  2  0  0  0  0
  1  4  1  0  0  0  0
  1 13  1  0  0  0  0
  2  3  1  0  0  0  0
  2 15  1  0  0  0  0
  3  6  2  0  0  0  0
  3 16  1  0  0  0  0
  4  5  2  0  0  0  0
  4 14  1  0  0  0  0
  5  6  1  0  0  0  0
  5 17  1  0  0  0  0
  6  7  1  0  0  0  0
  7  8  1  0  0  0  0
  7 18  1  0  0  0  0
  7 19  1  0  0  0  0
  8  9  1  0  0  0  0
  8 20  1  0  0  0  0
  8 21  1  0  0  0  0
  9 10  2  0  0  0  0
  9 12  1  0  0  0  0
 11 13  1  0  0  0  0
 11 14  1  0  0  0  0
 11 22  1  0  0  0  0
 11 23  1  0  0  0  0
M  END
$$$$
