I2E
 OpenBabel04111918433D

 23 24  0  0  0  0  0  0  0  0999 V2000
   13.9751    9.9589   -3.9935 C   0  0  0  0  0  0  0  0  0  0  0  0
   15.3190   10.2493   -3.9307 C   0  0  0  0  0  0  0  0  0  0  0  0
   15.8541   10.5754   -2.6836 C   0  0  0  0  0  0  0  0  0  0  0  0
   13.1801    9.9715   -2.8702 C   0  0  0  0  0  0  0  0  0  0  0  0
   13.6879   10.2687   -1.6227 C   0  0  0  0  0  0  0  0  0  0  0  0
   15.0543   10.5713   -1.5188 C   0  0  0  0  0  0  0  0  0  0  0  0
   15.6519   10.9391   -0.1745 C   0  0  0  0  0  0  0  0  0  0  0  0
   17.0107   10.2974    0.0970 C   0  0  0  0  0  0  0  0  0  0  0  0
   18.2203   11.1352   -0.3260 C   0  0  0  0  0  0  0  0  0  0  0  0
   18.0526   12.3805   -0.4037 O   0  0  0  0  0  0  0  0  0  0  0  0
   11.9409    9.5762   -4.5904 C   0  0  0  0  0  0  0  0  0  0  0  0
   19.2649   10.4552   -0.5545 O   0  0  0  0  0  0  0  0  0  0  0  0
   13.2786    9.6443   -5.1192 O   0  0  0  0  0  0  0  0  0  0  0  0
   11.8821    9.6695   -3.1530 O   0  0  0  0  0  0  0  0  0  0  0  0
   15.9487   10.2393   -4.8122 H   0  0  0  0  0  0  0  0  0  0  0  0
   16.9101   10.8395   -2.6188 H   0  0  0  0  0  0  0  0  0  0  0  0
   13.0451   10.2766   -0.7501 H   0  0  0  0  0  0  0  0  0  0  0  0
   14.9614   10.6008    0.6088 H   0  0  0  0  0  0  0  0  0  0  0  0
   15.6845   12.0319   -0.1046 H   0  0  0  0  0  0  0  0  0  0  0  0
   17.0725    9.3098   -0.3808 H   0  0  0  0  0  0  0  0  0  0  0  0
   17.1184   10.1299    1.1745 H   0  0  0  0  0  0  0  0  0  0  0  0
   11.4809    8.6324   -4.9042 H   0  0  0  0  0  0  0  0  0  0  0  0
   11.3567   10.3987   -5.0166 H   0  0  0  0  0  0  0  0  0  0  0  0
  1  2  2  0  0  0  0
  1  4  1  0  0  0  0
  1 13  1  0  0  0  0
  2  3  1  0  0  0  0
  2 15  1  0  0  0  0
  3  6  2  0  0  0  0
  3 16  1  0  0  0  0
  4  5  2  0  0  0  0
  4 14  1  0  0  0  0
  5  6  1  0  0  0  0
  5 17  1  0  0  0  0
  6  7  1  0  0  0  0
  7  8  1  0  0  0  0
  7 18  1  0  0  0  0
  7 19  1  0  0  0  0
  8  9  1  0  0  0  0
  8 20  1  0  0  0  0
  8 21  1  0  0  0  0
  9 10  2  0  0  0  0
  9 12  1  0  0  0  0
 11 13  1  0  0  0  0
 11 14  1  0  0  0  0
 11 22  1  0  0  0  0
 11 23  1  0  0  0  0
M  END
$$$$
