I31
 OpenBabel04111919363D

 67 70  0  0  1  0  0  0  0  0999 V2000
   -3.5876    5.0328   -0.0716 N   0  0  0  0  0  0  0  0  0  0  0  0
   -3.6584    3.9095   -1.0301 C   0  0  2  0  0  0  0  0  0  0  0  0
   -3.4104    4.4254   -2.4350 C   0  0  0  0  0  0  0  0  0  0  0  0
   -5.0181    3.2279   -0.9148 C   0  0  0  0  0  0  0  0  0  0  0  0
   -2.4671    3.0148   -0.4822 C   0  0  2  0  0  0  0  0  0  0  0  0
   -1.1356    3.4361   -1.1254 C   0  0  0  0  0  0  0  0  0  0  0  0
   -2.6592    1.5205   -0.5314 C   0  0  0  0  0  0  0  0  0  0  0  0
   -2.3806    3.4801    0.9307 N   0  0  0  0  0  0  0  0  0  0  0  0
   -2.9388    4.6640    1.0180 C   0  0  0  0  0  0  0  0  0  0  0  0
   -2.8274    5.4798    2.2168 C   0  0  0  0  0  0  0  0  0  0  0  0
   -5.8375    3.4109    0.2102 C   0  0  0  0  0  0  0  0  0  0  0  0
   -7.0117    2.6827    0.3659 C   0  0  0  0  0  0  0  0  0  0  0  0
   -7.3789    1.7522   -0.6002 C   0  0  0  0  0  0  0  0  0  0  0  0
   -8.8014    0.8169   -0.3793 Cl  0  0  0  0  0  0  0  0  0  0  0  0
   -6.6024    1.5715   -1.7397 C   0  0  0  0  0  0  0  0  0  0  0  0
   -5.4291    2.3032   -1.8944 C   0  0  0  0  0  0  0  0  0  0  0  0
   -2.0993    0.7856   -1.5768 C   0  0  0  0  0  0  0  0  0  0  0  0
   -2.3012   -0.5897   -1.6631 C   0  0  0  0  0  0  0  0  0  0  0  0
   -3.0656   -1.2215   -0.7187 C   0  0  0  0  0  0  0  0  0  0  0  0
   -3.3290   -2.9220   -0.8336 Cl  0  0  0  0  0  0  0  0  0  0  0  0
   -3.6519   -0.5212    0.3305 C   0  0  0  0  0  0  0  0  0  0  0  0
   -3.4384    0.8621    0.4397 C   0  0  0  0  0  0  0  0  0  0  0  0
   -1.6664    5.3977    3.0016 C   0  0  0  0  0  0  0  0  0  0  0  0
   -1.4965    6.2145    4.1092 C   0  0  0  0  0  0  0  0  0  0  0  0
   -2.4788    7.1250    4.4800 C   0  0  0  0  0  0  0  0  0  0  0  0
   -2.2772    7.9995    5.7094 C   0  0  0  0  0  0  0  0  0  0  0  0
   -2.1361    7.0979    6.9435 C   0  0  0  0  0  0  0  0  0  0  0  0
   -3.4604    8.9520    5.9311 C   0  0  0  0  0  0  0  0  0  0  0  0
   -3.6444    7.1966    3.7090 C   0  0  0  0  0  0  0  0  0  0  0  0
   -3.8341    6.3869    2.5892 C   0  0  0  0  0  0  0  0  0  0  0  0
   -4.9696    6.4320    1.8099 O   0  0  0  0  0  0  0  0  0  0  0  0
   -6.0001    7.3042    2.2915 C   0  0  0  0  0  0  0  0  0  0  0  0
   -7.1811    7.2396    1.3503 C   0  0  0  0  0  0  0  0  0  0  0  0
   -0.9997    8.8358    5.5519 C   0  0  0  0  0  0  0  0  0  0  0  0
   -4.0919    5.9174   -0.1072 H   0  0  0  0  0  0  0  0  0  0  0  0
   -3.3711    3.5943   -3.1461 H   0  0  0  0  0  0  0  0  0  0  0  0
   -2.4609    4.9587   -2.5116 H   0  0  0  0  0  0  0  0  0  0  0  0
   -4.1846    5.1262   -2.7458 H   0  0  0  0  0  0  0  0  0  0  0  0
   -0.3051    2.8472   -0.7388 H   0  0  0  0  0  0  0  0  0  0  0  0
   -0.9174    4.4973   -0.9547 H   0  0  0  0  0  0  0  0  0  0  0  0
   -1.1764    3.2830   -2.2078 H   0  0  0  0  0  0  0  0  0  0  0  0
   -5.5675    4.1083    0.9946 H   0  0  0  0  0  0  0  0  0  0  0  0
   -7.6292    2.8449    1.2445 H   0  0  0  0  0  0  0  0  0  0  0  0
   -6.8979    0.8599   -2.5058 H   0  0  0  0  0  0  0  0  0  0  0  0
   -4.8229    2.1058   -2.7778 H   0  0  0  0  0  0  0  0  0  0  0  0
   -1.4943    1.2548   -2.3502 H   0  0  0  0  0  0  0  0  0  0  0  0
   -1.8176   -1.1486   -2.4795 H   0  0  0  0  0  0  0  0  0  0  0  0
   -4.2824   -1.0149    1.0685 H   0  0  0  0  0  0  0  0  0  0  0  0
   -3.9215    1.4062    1.2397 H   0  0  0  0  0  0  0  0  0  0  0  0
   -0.8561    4.7190    2.7471 H   0  0  0  0  0  0  0  0  0  0  0  0
   -0.5811    6.1407    4.6861 H   0  0  0  0  0  0  0  0  0  0  0  0
   -1.9803    7.6936    7.8489 H   0  0  0  0  0  0  0  0  0  0  0  0
   -1.2810    6.4192    6.8497 H   0  0  0  0  0  0  0  0  0  0  0  0
   -3.0323    6.4835    7.0826 H   0  0  0  0  0  0  0  0  0  0  0  0
   -3.5852    9.6150    5.0658 H   0  0  0  0  0  0  0  0  0  0  0  0
   -3.3194    9.5749    6.8158 H   0  0  0  0  0  0  0  0  0  0  0  0
   -4.3895    8.3846    6.0677 H   0  0  0  0  0  0  0  0  0  0  0  0
   -4.4223    7.9025    3.9861 H   0  0  0  0  0  0  0  0  0  0  0  0
   -5.6290    8.3360    2.3132 H   0  0  0  0  0  0  0  0  0  0  0  0
   -6.3226    6.9913    3.2933 H   0  0  0  0  0  0  0  0  0  0  0  0
   -7.9738    7.9079    1.6950 H   0  0  0  0  0  0  0  0  0  0  0  0
   -7.5729    6.2208    1.2952 H   0  0  0  0  0  0  0  0  0  0  0  0
   -6.8812    7.5349    0.3415 H   0  0  0  0  0  0  0  0  0  0  0  0
   -0.1157    8.2029    5.4194 H   0  0  0  0  0  0  0  0  0  0  0  0
   -0.8234    9.4527    6.4398 H   0  0  0  0  0  0  0  0  0  0  0  0
   -1.0685    9.4952    4.6801 H   0  0  0  0  0  0  0  0  0  0  0  0
   -1.9306    3.0068    1.6998 H   0  0  0  0  0  0  0  0  0  0  0  0
  1  2  1  0  0  0  0
  1  9  1  0  0  0  0
  1 35  1  0  0  0  0
  2  3  1  6  0  0  0
  2  4  1  0  0  0  0
  2  5  1  0  0  0  0
  3 36  1  0  0  0  0
  3 37  1  0  0  0  0
  3 38  1  0  0  0  0
  4 11  2  0  0  0  0
  4 16  1  0  0  0  0
  5  6  1  6  0  0  0
  5  7  1  0  0  0  0
  5  8  1  0  0  0  0
  6 39  1  0  0  0  0
  6 40  1  0  0  0  0
  6 41  1  0  0  0  0
  7 17  2  0  0  0  0
  7 22  1  0  0  0  0
  8  9  2  0  0  0  0
  8 67  1  0  0  0  0
  9 10  1  0  0  0  0
 10 23  2  0  0  0  0
 10 30  1  0  0  0  0
 11 12  1  0  0  0  0
 11 42  1  0  0  0  0
 12 13  2  0  0  0  0
 12 43  1  0  0  0  0
 13 14  1  0  0  0  0
 13 15  1  0  0  0  0
 15 16  2  0  0  0  0
 15 44  1  0  0  0  0
 16 45  1  0  0  0  0
 17 18  1  0  0  0  0
 17 46  1  0  0  0  0
 18 19  2  0  0  0  0
 18 47  1  0  0  0  0
 19 20  1  0  0  0  0
 19 21  1  0  0  0  0
 21 22  2  0  0  0  0
 21 48  1  0  0  0  0
 22 49  1  0  0  0  0
 23 24  1  0  0  0  0
 23 50  1  0  0  0  0
 24 25  2  0  0  0  0
 24 51  1  0  0  0  0
 25 26  1  0  0  0  0
 25 29  1  0  0  0  0
 26 27  1  0  0  0  0
 26 28  1  0  0  0  0
 26 34  1  0  0  0  0
 27 52  1  0  0  0  0
 27 53  1  0  0  0  0
 27 54  1  0  0  0  0
 28 55  1  0  0  0  0
 28 56  1  0  0  0  0
 28 57  1  0  0  0  0
 29 30  2  0  0  0  0
 29 58  1  0  0  0  0
 30 31  1  0  0  0  0
 31 32  1  0  0  0  0
 32 33  1  0  0  0  0
 32 59  1  0  0  0  0
 32 60  1  0  0  0  0
 33 61  1  0  0  0  0
 33 62  1  0  0  0  0
 33 63  1  0  0  0  0
 34 64  1  0  0  0  0
 34 65  1  0  0  0  0
 34 66  1  0  0  0  0
M  END
$$$$
