I3P
 OpenBabel04111920393D

 33 33  0  0  1  0  0  0  0  0999 V2000
   14.4882    1.6160   38.9951 C   0  0  2  0  0  0  0  0  0  0  0  0
   13.4665    1.0192   38.0009 C   0  0  1  0  0  0  0  0  0  0  0  0
   12.1176    0.6445   38.6866 C   0  0  1  0  0  0  0  0  0  0  0  0
   11.5257    1.7755   39.6242 C   0  0  2  0  0  0  0  0  0  0  0  0
   12.6606    2.2850   40.5271 C   0  0  1  0  0  0  0  0  0  0  0  0
   13.8206    2.8156   39.6829 C   0  0  1  0  0  0  0  0  0  0  0  0
   15.7224    1.9923   38.3468 O   0  0  0  0  0  0  0  0  0  0  0  0
   13.2009    1.9456   36.9088 O   0  0  0  0  0  0  0  0  0  0  0  0
   11.2038    0.2933   37.5972 O   0  0  0  0  0  0  0  0  0  0  0  0
   10.4582    1.2311   40.4076 O   0  0  0  0  0  0  0  0  0  0  0  0
   12.2126    3.3389   41.3874 O   0  0  0  0  0  0  0  0  0  0  0  0
   14.7443    3.5702   40.4575 O   0  0  0  0  0  0  0  0  0  0  0  0
   17.0877    1.7698   39.1904 P   0  0  0  0  0  0  0  0  0  0  0  0
   17.3698    0.2731   39.0252 O   0  0  0  0  0  0  0  0  0  0  0  0
   16.9602    2.1851   40.6236 O   0  0  0  0  0  0  0  0  0  0  0  0
   18.1466    2.5985   38.4085 O   0  0  0  0  0  0  0  0  0  0  0  0
    9.1784    2.1594   40.7827 P   0  0  0  0  0  0  0  0  0  0  0  0
    8.5816    2.4729   39.4056 O   0  0  0  0  0  0  0  0  0  0  0  0
    9.5002    3.3988   41.5416 O   0  0  0  0  0  0  0  0  0  0  0  0
    8.2316    1.1752   41.5245 O   0  0  0  0  0  0  0  0  0  0  0  0
   12.7703    3.3836   42.9076 P   0  0  0  0  0  0  0  0  0  0  0  0
   13.7350    4.5665   42.8550 O   0  0  0  0  0  0  0  0  0  0  0  0
   13.4055    2.0412   43.2376 O   0  0  0  0  0  0  0  0  0  0  0  0
   11.6129    3.7118   43.8737 O   0  0  0  0  0  0  0  0  0  0  0  0
   14.7242    0.8425   39.7308 H   0  0  0  0  0  0  0  0  0  0  0  0
   13.8879    0.1195   37.5397 H   0  0  0  0  0  0  0  0  0  0  0  0
   12.2704   -0.2704   39.2704 H   0  0  0  0  0  0  0  0  0  0  0  0
   11.1404    2.5617   38.9782 H   0  0  0  0  0  0  0  0  0  0  0  0
   13.0049    1.4442   41.1230 H   0  0  0  0  0  0  0  0  0  0  0  0
   13.4754    3.5455   38.9408 H   0  0  0  0  0  0  0  0  0  0  0  0
   12.6055    1.4795   36.3039 H   0  0  0  0  0  0  0  0  0  0  0  0
   10.9293    1.1646   37.2530 H   0  0  0  0  0  0  0  0  0  0  0  0
   14.2428    4.1059   41.1193 H   0  0  0  0  0  0  0  0  0  0  0  0
  1  2  1  0  0  0  0
  1  6  1  0  0  0  0
  1  7  1  0  0  0  0
  1 25  1  1  0  0  0
  2  3  1  0  0  0  0
  2  8  1  0  0  0  0
  2 26  1  6  0  0  0
  3  4  1  0  0  0  0
  3  9  1  0  0  0  0
  3 27  1  1  0  0  0
  4  5  1  0  0  0  0
  4 10  1  0  0  0  0
  4 28  1  6  0  0  0
  5  6  1  0  0  0  0
  5 11  1  0  0  0  0
  5 29  1  1  0  0  0
  6 12  1  0  0  0  0
  6 30  1  6  0  0  0
  7 13  1  0  0  0  0
  8 31  1  0  0  0  0
  9 32  1  0  0  0  0
 10 17  1  0  0  0  0
 11 21  1  0  0  0  0
 12 33  1  0  0  0  0
 13 14  2  0  0  0  0
 13 15  1  0  0  0  0
 13 16  1  0  0  0  0
 17 18  2  0  0  0  0
 17 19  1  0  0  0  0
 17 20  1  0  0  0  0
 21 22  2  0  0  0  0
 21 23  1  0  0  0  0
 21 24  1  0  0  0  0
M  END
$$$$
