IFM
 OpenBabel04111921413D

 24 24  0  0  1  0  0  0  0  0999 V2000
   10.0087   10.6908   10.2867 O   0  0  0  0  0  0  0  0  0  0  0  0
    9.0784   11.2720   11.2036 C   0  0  1  0  0  0  0  0  0  0  0  0
    8.9294   10.3076   12.4036 C   0  0  2  0  0  0  0  0  0  0  0  0
    8.2210    9.1459   11.9639 O   0  0  0  0  0  0  0  0  0  0  0  0
    8.1403   10.9335   13.5513 C   0  0  0  0  0  0  0  0  0  0  0  0
    8.5476   12.3219   13.8576 N   0  3  0  0  0  0  0  0  0  0  0  0
    8.6896   13.2487   12.6922 C   0  0  0  0  0  0  0  0  0  0  0  0
    9.6317   12.6322   11.6559 C   0  0  2  0  0  0  0  0  0  0  0  0
    9.8224   13.6082   10.4929 C   0  0  0  0  0  0  0  0  0  0  0  0
    8.7049   13.5728    9.6202 O   0  0  0  0  0  0  0  0  0  0  0  0
   10.0184   11.1854    9.4454 H   0  0  0  0  0  0  0  0  0  0  0  0
    8.1116   11.3612   10.6933 H   0  0  0  0  0  0  0  0  0  0  0  0
    9.9232    9.9913   12.7392 H   0  0  0  0  0  0  0  0  0  0  0  0
    8.2286    8.4688   12.6685 H   0  0  0  0  0  0  0  0  0  0  0  0
    8.2912   10.3529   14.4691 H   0  0  0  0  0  0  0  0  0  0  0  0
    7.0632   10.9426   13.3460 H   0  0  0  0  0  0  0  0  0  0  0  0
    7.8446   12.7387   14.5078 H   0  0  0  0  0  0  0  0  0  0  0  0
    9.1157   14.1742   13.0954 H   0  0  0  0  0  0  0  0  0  0  0  0
    7.6957   13.4493   12.3020 H   0  0  0  0  0  0  0  0  0  0  0  0
   10.6154   12.4890   12.1163 H   0  0  0  0  0  0  0  0  0  0  0  0
   10.7413   13.3892    9.9326 H   0  0  0  0  0  0  0  0  0  0  0  0
    9.9137   14.6372   10.8607 H   0  0  0  0  0  0  0  0  0  0  0  0
    8.7511   12.7752    9.0556 H   0  0  0  0  0  0  0  0  0  0  0  0
    9.4253   12.3182   14.3971 H   0  0  0  0  0  0  0  0  0  0  0  0
  1  2  1  0  0  0  0
  1 11  1  0  0  0  0
  2  3  1  0  0  0  0
  2  8  1  0  0  0  0
  2 12  1  6  0  0  0
  3  4  1  0  0  0  0
  3  5  1  0  0  0  0
  3 13  1  1  0  0  0
  4 14  1  0  0  0  0
  5  6  1  0  0  0  0
  5 15  1  0  0  0  0
  5 16  1  0  0  0  0
  6  7  1  0  0  0  0
  6 17  1  0  0  0  0
  6 24  1  0  0  0  0
  7  8  1  0  0  0  0
  7 18  1  0  0  0  0
  7 19  1  0  0  0  0
  8  9  1  0  0  0  0
  8 20  1  1  0  0  0
  9 10  1  0  0  0  0
  9 21  1  0  0  0  0
  9 22  1  0  0  0  0
 10 23  1  0  0  0  0
M  CHG  1   6   1
M  END
$$$$
