IK9
 OpenBabel04111918263D

 47 51  0  0  0  0  0  0  0  0999 V2000
    3.9180   16.7450   26.2430 F   0  0  0  0  0  0  0  0  0  0  0  0
    4.4584   15.6528   25.6887 C   0  0  0  0  0  0  0  0  0  0  0  0
    3.6670   14.6181   25.2232 C   0  0  0  0  0  0  0  0  0  0  0  0
    4.2411   13.4853   24.6522 C   0  0  0  0  0  0  0  0  0  0  0  0
    5.6536   13.4033   24.5718 C   0  0  0  0  0  0  0  0  0  0  0  0
    6.4708   14.4469   25.0340 C   0  0  0  0  0  0  0  0  0  0  0  0
    7.8310   14.4277   24.8890 N   0  0  0  0  0  0  0  0  0  0  0  0
    8.7014   15.4260   25.4716 C   0  0  0  0  0  0  0  0  0  0  0  0
    8.8353   15.1808   26.9731 C   0  0  0  0  0  0  0  0  0  0  0  0
    9.8667   15.9769   27.5196 O   0  0  0  0  0  0  0  0  0  0  0  0
    5.8324   15.5657   25.5837 C   0  0  0  0  0  0  0  0  0  0  0  0
    6.1407   12.2264   23.9869 C   0  0  0  0  0  0  0  0  0  0  0  0
    7.3811   11.7804   23.7455 N   0  3  0  0  0  0  0  0  0  0  0  0
    7.2419   10.5541   23.1560 C   0  0  0  0  0  0  0  0  0  0  0  0
    8.3106    9.8445   22.7717 N   0  0  0  0  0  0  0  0  0  0  0  0
    6.0282   10.2059   23.0113 N   0  0  0  0  0  0  0  0  0  0  0  0
    5.3522   11.2657   23.5239 N   0  3  0  0  0  0  0  0  0  0  0  0
    3.9080   11.4195   23.6063 C   0  0  0  0  0  0  0  0  0  0  0  0
    3.4200   12.5300   24.2052 N   0  0  0  0  0  0  0  0  0  0  0  0
    3.0328   10.2699   23.2748 C   0  0  0  0  0  0  0  0  0  0  0  0
    3.1192    9.2605   24.4000 C   0  0  0  0  0  0  0  0  0  0  0  0
    3.6444    7.9731   24.1571 C   0  0  0  0  0  0  0  0  0  0  0  0
    3.7862    7.0463   25.1938 C   0  0  0  0  0  0  0  0  0  0  0  0
    3.4029    7.4226   26.4704 C   0  0  0  0  0  0  0  0  0  0  0  0
    2.9093    8.6845   26.7252 C   0  0  0  0  0  0  0  0  0  0  0  0
    2.7577    9.6189   25.7166 C   0  0  0  0  0  0  0  0  0  0  0  0
    3.4491    6.6508   27.5934 O   0  0  0  0  0  0  0  0  0  0  0  0
    2.8559    7.5310   28.5743 C   0  0  0  0  0  0  0  0  0  0  0  0
    2.6008    8.8540   28.0466 O   0  0  0  0  0  0  0  0  0  0  0  0
    2.5867   14.7186   25.3030 H   0  0  0  0  0  0  0  0  0  0  0  0
    8.3507   13.6264   24.5987 H   0  0  0  0  0  0  0  0  0  0  0  0
    8.3285   16.4291   25.2454 H   0  0  0  0  0  0  0  0  0  0  0  0
    9.6764   15.3667   24.9767 H   0  0  0  0  0  0  0  0  0  0  0  0
    9.0600   14.1256   27.1557 H   0  0  0  0  0  0  0  0  0  0  0  0
    7.8922   15.4179   27.4768 H   0  0  0  0  0  0  0  0  0  0  0  0
    9.8965   15.7891   28.4753 H   0  0  0  0  0  0  0  0  0  0  0  0
    6.3991   16.4116   25.9540 H   0  0  0  0  0  0  0  0  0  0  0  0
    9.2734   10.1112   22.8614 H   0  0  0  0  0  0  0  0  0  0  0  0
    8.1975    8.9271   22.3425 H   0  0  0  0  0  0  0  0  0  0  0  0
    3.3779    9.8351   22.3210 H   0  0  0  0  0  0  0  0  0  0  0  0
    2.0116   10.6145   23.1115 H   0  0  0  0  0  0  0  0  0  0  0  0
    3.9577    7.7016   23.1464 H   0  0  0  0  0  0  0  0  0  0  0  0
    4.1767    6.0526   24.9838 H   0  0  0  0  0  0  0  0  0  0  0  0
    2.3861   10.6190   25.9375 H   0  0  0  0  0  0  0  0  0  0  0  0
    3.5198    7.6066   29.4462 H   0  0  0  0  0  0  0  0  0  0  0  0
    1.9137    7.0941   28.9344 H   0  0  0  0  0  0  0  0  0  0  0  0
    8.2750   12.1784   23.9023 H   0  0  0  0  0  0  0  0  0  0  0  0
  1  2  1  0  0  0  0
  2  3  2  0  0  0  0
  2 11  1  0  0  0  0
  3  4  1  0  0  0  0
  3 30  1  0  0  0  0
  4  5  2  0  0  0  0
  4 19  1  0  0  0  0
  5  6  1  0  0  0  0
  5 12  1  0  0  0  0
  6  7  1  0  0  0  0
  6 11  2  0  0  0  0
  7  8  1  0  0  0  0
  7 31  1  0  0  0  0
  8  9  1  0  0  0  0
  8 32  1  0  0  0  0
  8 33  1  0  0  0  0
  9 10  1  0  0  0  0
  9 34  1  0  0  0  0
  9 35  1  0  0  0  0
 10 36  1  0  0  0  0
 11 37  1  0  0  0  0
 12 13  1  0  0  0  0
 12 17  2  0  0  0  0
 13 14  2  0  0  0  0
 13 47  1  0  0  0  0
 14 15  1  0  0  0  0
 14 16  1  0  0  0  0
 15 38  1  0  0  0  0
 15 39  1  0  0  0  0
 16 17  1  0  0  0  0
 17 18  1  0  0  0  0
 18 19  2  0  0  0  0
 18 20  1  0  0  0  0
 20 21  1  0  0  0  0
 20 40  1  0  0  0  0
 20 41  1  0  0  0  0
 21 22  2  0  0  0  0
 21 26  1  0  0  0  0
 22 23  1  0  0  0  0
 22 42  1  0  0  0  0
 23 24  2  0  0  0  0
 23 43  1  0  0  0  0
 24 25  1  0  0  0  0
 24 27  1  0  0  0  0
 25 26  2  0  0  0  0
 25 29  1  0  0  0  0
 26 44  1  0  0  0  0
 27 28  1  0  0  0  0
 28 29  1  0  0  0  0
 28 45  1  0  0  0  0
 28 46  1  0  0  0  0
M  CHG  2  13   1  17   1
M  END
$$$$
