IKM
 OpenBabel04111919333D

 33 35  0  0  1  0  0  0  0  0999 V2000
   -5.7619   28.3805   -1.6454 C   0  0  0  0  0  0  0  0  0  0  0  0
   -4.3395   28.3064    0.4008 C   0  0  0  0  0  0  0  0  0  0  0  0
   -4.6113   27.8695   -0.8394 C   0  0  0  0  0  0  0  0  0  0  0  0
   -6.1268   30.1225    0.1363 C   0  0  2  0  0  0  0  0  0  0  0  0
   -5.1337   29.3923    1.0564 C   0  0  1  0  0  0  0  0  0  0  0  0
   -5.9328   28.8040    2.0794 O   0  0  0  0  0  0  0  0  0  0  0  0
   -6.2595   31.9680    2.7517 N   0  0  0  0  0  0  0  0  0  0  0  0
   -6.4993   30.7020    3.4571 C   0  0  2  0  0  0  0  0  0  0  0  0
   -7.0239   29.7319    2.3689 C   0  0  1  0  0  0  0  0  0  0  0  0
   -7.1898   30.6070    1.1006 C   0  0  1  0  0  0  0  0  0  0  0  0
   -6.8093   31.9969    1.5059 C   0  0  0  0  0  0  0  0  0  0  0  0
   -6.8529   32.9658    0.7663 O   0  0  0  0  0  0  0  0  0  0  0  0
   -8.2766   28.9275    2.7365 C   0  0  0  0  0  0  0  0  0  0  0  0
   -7.3251   30.8401    4.7621 C   0  0  0  0  0  0  0  0  0  0  0  0
   -7.1154   29.9484    5.6295 O   0  0  0  0  0  0  0  0  0  0  0  0
   -8.8884   28.0207    1.6656 C   0  0  0  0  0  0  0  0  0  0  0  0
   -9.9143   27.3735    1.9976 O   0  0  0  0  0  0  0  0  0  0  0  0
   -8.3337   28.0485    0.5198 O   0  0  0  0  0  0  0  0  0  0  0  0
   -8.0266   31.8927    4.8307 O   0  0  0  0  0  0  0  0  0  0  0  0
   -6.7197   29.1662   -0.8560 N   0  3  0  0  0  0  0  0  0  0  0  0
   -6.3216   27.5484   -2.0877 H   0  0  0  0  0  0  0  0  0  0  0  0
   -5.3956   29.0243   -2.4514 H   0  0  0  0  0  0  0  0  0  0  0  0
   -3.5381   27.8623    0.9846 H   0  0  0  0  0  0  0  0  0  0  0  0
   -4.0066   27.0769   -1.2698 H   0  0  0  0  0  0  0  0  0  0  0  0
   -5.6396   30.9049   -0.4565 H   0  0  0  0  0  0  0  0  0  0  0  0
   -4.4447   30.1100    1.5162 H   0  0  0  0  0  0  0  0  0  0  0  0
   -6.2344   32.8279    3.2925 H   0  0  0  0  0  0  0  0  0  0  0  0
   -5.4973   30.3961    3.7869 H   0  0  0  0  0  0  0  0  0  0  0  0
   -8.2096   30.6450    0.7038 H   0  0  0  0  0  0  0  0  0  0  0  0
   -9.0748   29.6170    3.0430 H   0  0  0  0  0  0  0  0  0  0  0  0
   -8.0503   28.2803    3.5935 H   0  0  0  0  0  0  0  0  0  0  0  0
   -7.4573   29.5974   -1.4186 H   0  0  0  0  0  0  0  0  0  0  0  0
   -7.2984   28.4842   -0.2770 H   0  0  0  0  0  0  0  0  0  0  0  0
  1  3  1  0  0  0  0
  1 20  1  0  0  0  0
  1 21  1  0  0  0  0
  1 22  1  0  0  0  0
  2  3  2  0  0  0  0
  2  5  1  0  0  0  0
  2 23  1  0  0  0  0
  3 24  1  0  0  0  0
  4  5  1  0  0  0  0
  4 10  1  0  0  0  0
  4 20  1  0  0  0  0
  4 25  1  6  0  0  0
  5  6  1  0  0  0  0
  5 26  1  1  0  0  0
  6  9  1  0  0  0  0
  7  8  1  0  0  0  0
  7 11  1  0  0  0  0
  7 27  1  0  0  0  0
  8  9  1  0  0  0  0
  8 14  1  0  0  0  0
  8 28  1  1  0  0  0
  9 10  1  0  0  0  0
  9 13  1  1  0  0  0
 10 11  1  0  0  0  0
 10 29  1  6  0  0  0
 11 12  2  0  0  0  0
 13 16  1  0  0  0  0
 13 30  1  0  0  0  0
 13 31  1  0  0  0  0
 14 15  2  0  0  0  0
 14 19  1  0  0  0  0
 16 17  2  0  0  0  0
 16 18  1  0  0  0  0
 20 32  1  0  0  0  0
 20 33  1  0  0  0  0
M  CHG  1  20   1
M  END
$$$$
