IM5
 OpenBabel04111918433D

 38 40  0  0  1  0  0  0  0  0999 V2000
   21.3069  -28.0914  -19.7318 N   0  3  0  0  0  0  0  0  0  0  0  0
   20.1072  -27.4252  -19.6661 C   0  0  0  0  0  0  0  0  0  0  0  0
   19.5935  -27.0745  -20.7920 N   0  0  0  0  0  0  0  0  0  0  0  0
   19.5102  -27.1709  -18.4605 N   0  3  0  0  0  0  0  0  0  0  0  0
   20.1343  -27.5769  -17.3381 C   0  0  0  0  0  0  0  0  0  0  0  0
   21.3245  -28.2576  -17.4011 C   0  0  0  0  0  0  0  0  0  0  0  0
   21.9990  -28.5621  -18.6280 C   0  0  0  0  0  0  0  0  0  0  0  0
   23.0558  -29.1617  -18.7184 O   0  0  0  0  0  0  0  0  0  0  0  0
   21.7095  -28.5421  -16.1168 N   0  3  0  0  0  0  0  0  0  0  0  0
   20.7674  -28.0487  -15.2549 C   0  0  0  0  0  0  0  0  0  0  0  0
   19.7583  -27.4322  -15.9890 C   0  0  0  0  0  0  0  0  0  0  0  0
   17.3215  -27.5957  -15.3633 N   0  3  1  0  0  0  0  0  0  0  0  0
   18.5569  -26.7560  -15.4391 C   0  0  0  0  0  0  0  0  0  0  0  0
   16.7159  -27.9658  -16.6894 C   0  0  0  0  0  0  0  0  0  0  0  0
   15.6491  -28.9779  -16.2990 C   0  0  2  0  0  0  0  0  0  0  0  0
   14.4924  -28.2802  -15.8522 O   0  0  0  0  0  0  0  0  0  0  0  0
   16.2528  -29.7314  -15.1182 C   0  0  1  0  0  0  0  0  0  0  0  0
   16.6986  -31.1125  -15.5689 C   0  0  0  0  0  0  0  0  0  0  0  0
   17.5418  -31.6765  -14.5884 O   0  0  0  0  0  0  0  0  0  0  0  0
   17.4511  -28.9044  -14.6372 C   0  0  0  0  0  0  0  0  0  0  0  0
   21.7170  -28.2419  -20.6415 H   0  0  0  0  0  0  0  0  0  0  0  0
   18.7085  -26.5810  -20.6617 H   0  0  0  0  0  0  0  0  0  0  0  0
   18.6457  -26.6548  -18.4812 H   0  0  0  0  0  0  0  0  0  0  0  0
   22.5658  -29.0269  -15.8579 H   0  0  0  0  0  0  0  0  0  0  0  0
   20.8800  -28.1642  -14.1795 H   0  0  0  0  0  0  0  0  0  0  0  0
   18.3025  -25.8868  -16.0549 H   0  0  0  0  0  0  0  0  0  0  0  0
   18.7579  -26.4041  -14.4226 H   0  0  0  0  0  0  0  0  0  0  0  0
   17.4879  -28.4365  -17.3002 H   0  0  0  0  0  0  0  0  0  0  0  0
   16.3241  -27.0556  -17.1502 H   0  0  0  0  0  0  0  0  0  0  0  0
   15.3816  -29.6128  -17.1502 H   0  0  0  0  0  0  0  0  0  0  0  0
   13.7891  -28.9412  -15.6900 H   0  0  0  0  0  0  0  0  0  0  0  0
   15.5384  -29.8298  -14.2908 H   0  0  0  0  0  0  0  0  0  0  0  0
   17.2598  -31.0452  -16.5089 H   0  0  0  0  0  0  0  0  0  0  0  0
   15.8330  -31.7601  -15.7426 H   0  0  0  0  0  0  0  0  0  0  0  0
   17.0256  -31.8344  -13.7755 H   0  0  0  0  0  0  0  0  0  0  0  0
   17.4426  -28.7067  -13.5605 H   0  0  0  0  0  0  0  0  0  0  0  0
   18.4001  -29.3669  -14.9185 H   0  0  0  0  0  0  0  0  0  0  0  0
   16.6061  -27.0444  -14.8655 H   0  0  0  0  0  0  0  0  0  0  0  0
  1  2  1  0  0  0  0
  1  7  1  0  0  0  0
  1 21  1  0  0  0  0
  2  3  2  0  0  0  0
  2  4  1  0  0  0  0
  3 22  1  0  0  0  0
  4  5  2  0  0  0  0
  4 23  1  0  0  0  0
  5  6  1  0  0  0  0
  5 11  1  0  0  0  0
  6  7  1  0  0  0  0
  6  9  2  0  0  0  0
  7  8  2  0  0  0  0
  9 10  1  0  0  0  0
  9 24  1  0  0  0  0
 10 11  2  0  0  0  0
 10 25  1  0  0  0  0
 11 13  1  0  0  0  0
 12 13  1  0  0  0  0
 12 14  1  0  0  0  0
 12 20  1  0  0  0  0
 12 38  1  1  0  0  0
 13 26  1  0  0  0  0
 13 27  1  0  0  0  0
 14 15  1  0  0  0  0
 14 28  1  0  0  0  0
 14 29  1  0  0  0  0
 15 16  1  0  0  0  0
 15 17  1  0  0  0  0
 15 30  1  6  0  0  0
 16 31  1  0  0  0  0
 17 18  1  0  0  0  0
 17 20  1  0  0  0  0
 17 32  1  1  0  0  0
 18 19  1  0  0  0  0
 18 33  1  0  0  0  0
 18 34  1  0  0  0  0
 19 35  1  0  0  0  0
 20 36  1  0  0  0  0
 20 37  1  0  0  0  0
M  CHG  4   1   1   4   1   9   1  12   1
M  END
$$$$
