IPH
 OpenBabel04111919223D

 13 13  0  0  0  0  0  0  0  0999 V2000
    4.2265   10.9478    1.0688 C   0  0  0  0  0  0  0  0  0  0  0  0
    3.9858    9.7844    0.3452 C   0  0  0  0  0  0  0  0  0  0  0  0
    2.8328    9.0339    0.6091 C   0  0  0  0  0  0  0  0  0  0  0  0
    1.9602    9.4426    1.6148 C   0  0  0  0  0  0  0  0  0  0  0  0
    2.2223   10.5977    2.3534 C   0  0  0  0  0  0  0  0  0  0  0  0
    3.3590   11.3617    2.0724 C   0  0  0  0  0  0  0  0  0  0  0  0
    5.3301   11.6779    0.7405 O   0  0  0  0  0  0  0  0  0  0  0  0
    4.6779    9.4682   -0.4244 H   0  0  0  0  0  0  0  0  0  0  0  0
    2.6328    8.1383    0.0376 H   0  0  0  0  0  0  0  0  0  0  0  0
    1.0693    8.8545    1.8271 H   0  0  0  0  0  0  0  0  0  0  0  0
    1.5454   10.9001    3.1490 H   0  0  0  0  0  0  0  0  0  0  0  0
    3.5674   12.2517    2.6523 H   0  0  0  0  0  0  0  0  0  0  0  0
    5.0189   12.5839    0.5776 H   0  0  0  0  0  0  0  0  0  0  0  0
  1  2  2  0  0  0  0
  1  6  1  0  0  0  0
  1  7  1  0  0  0  0
  2  3  1  0  0  0  0
  2  8  1  0  0  0  0
  3  4  2  0  0  0  0
  3  9  1  0  0  0  0
  4  5  1  0  0  0  0
  4 10  1  0  0  0  0
  5  6  2  0  0  0  0
  5 11  1  0  0  0  0
  6 12  1  0  0  0  0
  7 13  1  0  0  0  0
M  END
$$$$
