IZN
 OpenBabel04111917433D

 42 45  0  0  1  0  0  0  0  0999 V2000
   -5.2131  -34.1944  -25.6727 N   0  3  2  0  0  0  0  0  0  0  0  0
   -5.8290  -35.5567  -25.6810 C   0  0  0  0  0  0  0  0  0  0  0  0
   -5.2198  -36.4145  -26.7824 C   0  0  0  0  0  0  0  0  0  0  0  0
   -4.5563  -31.0429  -26.7921 C   0  0  0  0  0  0  0  0  0  0  0  0
   -5.4117  -33.4176  -26.9728 C   0  0  1  0  0  0  0  0  0  0  0  0
   -6.8368  -32.8151  -27.0114 C   0  0  0  0  0  0  0  0  0  0  0  0
   -6.9005  -31.4451  -27.7265 C   0  0  2  0  0  0  0  0  0  0  0  0
   -5.8887  -30.4525  -27.1244 C   0  0  0  0  0  0  0  0  0  0  0  0
   -4.3493  -32.3643  -26.7674 C   0  0  0  0  0  0  0  0  0  0  0  0
   -3.1221  -33.0533  -26.2665 C   0  0  0  0  0  0  0  0  0  0  0  0
   -3.7100  -34.1277  -25.3499 C   0  0  0  0  0  0  0  0  0  0  0  0
   -5.0982  -34.3205  -28.1761 C   0  0  0  0  0  0  0  0  0  0  0  0
   -4.9812  -35.6628  -28.0721 C   0  0  0  0  0  0  0  0  0  0  0  0
   -4.5814  -36.5325  -29.2282 C   0  0  0  0  0  0  0  0  0  0  0  0
   -4.0769  -34.5023  -30.5059 C   0  0  0  0  0  0  0  0  0  0  0  0
   -4.8260  -33.6618  -29.4980 C   0  0  0  0  0  0  0  0  0  0  0  0
   -3.4756  -33.9734  -31.4381 O   0  0  0  0  0  0  0  0  0  0  0  0
   -4.1409  -35.8381  -30.4056 O   0  0  0  0  0  0  0  0  0  0  0  0
   -8.2442  -30.9667  -27.5894 O   0  0  0  0  0  0  0  0  0  0  0  0
   -8.4504  -29.6487  -28.0990 C   0  0  0  0  0  0  0  0  0  0  0  0
   -6.9046  -35.4167  -25.8379 H   0  0  0  0  0  0  0  0  0  0  0  0
   -5.6800  -35.9936  -24.6883 H   0  0  0  0  0  0  0  0  0  0  0  0
   -5.8831  -37.2715  -26.9629 H   0  0  0  0  0  0  0  0  0  0  0  0
   -4.2670  -36.8290  -26.4407 H   0  0  0  0  0  0  0  0  0  0  0  0
   -3.7636  -30.3451  -26.5221 H   0  0  0  0  0  0  0  0  0  0  0  0
   -7.2388  -32.6830  -25.9970 H   0  0  0  0  0  0  0  0  0  0  0  0
   -7.5380  -33.5069  -27.4961 H   0  0  0  0  0  0  0  0  0  0  0  0
   -6.6964  -31.5839  -28.7936 H   0  0  0  0  0  0  0  0  0  0  0  0
   -5.7357  -29.6280  -27.8306 H   0  0  0  0  0  0  0  0  0  0  0  0
   -6.3058  -30.0073  -26.2123 H   0  0  0  0  0  0  0  0  0  0  0  0
   -2.4215  -32.3989  -25.7434 H   0  0  0  0  0  0  0  0  0  0  0  0
   -2.5934  -33.5145  -27.1086 H   0  0  0  0  0  0  0  0  0  0  0  0
   -3.2469  -35.1013  -25.5260 H   0  0  0  0  0  0  0  0  0  0  0  0
   -3.6267  -33.8664  -24.2902 H   0  0  0  0  0  0  0  0  0  0  0  0
   -5.4081  -37.1852  -29.5068 H   0  0  0  0  0  0  0  0  0  0  0  0
   -3.7442  -37.1759  -28.9253 H   0  0  0  0  0  0  0  0  0  0  0  0
   -4.2052  -32.7734  -29.3467 H   0  0  0  0  0  0  0  0  0  0  0  0
   -5.7695  -33.3539  -29.9590 H   0  0  0  0  0  0  0  0  0  0  0  0
   -9.5144  -29.4042  -28.0174 H   0  0  0  0  0  0  0  0  0  0  0  0
   -8.1463  -29.5825  -29.1508 H   0  0  0  0  0  0  0  0  0  0  0  0
   -7.9056  -28.9143  -27.5035 H   0  0  0  0  0  0  0  0  0  0  0  0
   -5.6758  -33.6461  -24.9387 H   0  0  0  0  0  0  0  0  0  0  0  0
  1  2  1  0  0  0  0
  1  5  1  0  0  0  0
  1 11  1  0  0  0  0
  1 42  1  1  0  0  0
  2  3  1  0  0  0  0
  2 21  1  0  0  0  0
  2 22  1  0  0  0  0
  3 13  1  0  0  0  0
  3 23  1  0  0  0  0
  3 24  1  0  0  0  0
  4  8  1  0  0  0  0
  4  9  2  0  0  0  0
  4 25  1  0  0  0  0
  5  6  1  6  0  0  0
  5  9  1  0  0  0  0
  5 12  1  0  0  0  0
  6  7  1  0  0  0  0
  6 26  1  0  0  0  0
  6 27  1  0  0  0  0
  7  8  1  0  0  0  0
  7 19  1  0  0  0  0
  7 28  1  6  0  0  0
  8 29  1  0  0  0  0
  8 30  1  0  0  0  0
  9 10  1  0  0  0  0
 10 11  1  0  0  0  0
 10 31  1  0  0  0  0
 10 32  1  0  0  0  0
 11 33  1  0  0  0  0
 11 34  1  0  0  0  0
 12 13  2  0  0  0  0
 12 16  1  0  0  0  0
 13 14  1  0  0  0  0
 14 18  1  0  0  0  0
 14 35  1  0  0  0  0
 14 36  1  0  0  0  0
 15 16  1  0  0  0  0
 15 17  2  0  0  0  0
 15 18  1  0  0  0  0
 16 37  1  0  0  0  0
 16 38  1  0  0  0  0
 19 20  1  0  0  0  0
 20 39  1  0  0  0  0
 20 40  1  0  0  0  0
 20 41  1  0  0  0  0
M  CHG  1   1   1
M  END
$$$$
