J1D
 OpenBabel04111921093D

 74 78  0  0  1  0  0  0  0  0999 V2000
   -2.0919   31.4971  -13.0292 C   0  0  1  0  0  0  0  0  0  0  0  0
   -1.9789   30.3242  -13.8343 O   0  0  0  0  0  0  0  0  0  0  0  0
   -3.4591   31.4214  -12.3667 C   0  0  1  0  0  0  0  0  0  0  0  0
   -3.9902   32.7111  -12.0695 O   0  0  0  0  0  0  0  0  0  0  0  0
   -4.3072   30.6862  -13.4044 C   0  0  1  0  0  0  0  0  0  0  0  0
   -5.1047   31.5947  -14.1712 O   0  0  0  0  0  0  0  0  0  0  0  0
   -3.2863   30.0100  -14.3252 C   0  0  2  0  0  0  0  0  0  0  0  0
   -3.4061   28.5741  -14.3987 N   0  3  0  0  0  0  0  0  0  0  0  0
   -3.5548   27.8386  -15.5457 C   0  0  0  0  0  0  0  0  0  0  0  0
   -3.6764   26.5526  -15.2904 N   0  0  0  0  0  0  0  0  0  0  0  0
   -3.5903   26.4576  -13.9131 C   0  0  0  0  0  0  0  0  0  0  0  0
   -3.6624   25.3732  -13.0418 C   0  0  0  0  0  0  0  0  0  0  0  0
   -3.8351   24.0848  -13.4985 N   0  0  0  0  0  0  0  0  0  0  0  0
   -3.5650   25.5938  -11.7119 N   0  0  0  0  0  0  0  0  0  0  0  0
   -3.4088   26.8693  -11.2933 C   0  0  0  0  0  0  0  0  0  0  0  0
   -3.3301   27.9977  -12.0291 N   0  0  0  0  0  0  0  0  0  0  0  0
   -3.4241   27.7082  -13.3417 C   0  0  0  0  0  0  0  0  0  0  0  0
   -0.9694   31.5062  -12.0207 C   0  0  0  0  0  0  0  0  0  0  0  0
    0.5963   31.5418  -12.8803 S   0  0  0  0  0  0  0  0  0  0  0  0
    1.7354   32.1264  -11.6628 C   0  0  0  0  0  0  0  0  0  0  0  0
    2.2473   29.9388  -10.7430 N   0  0  0  0  0  0  0  0  0  0  0  0
    1.7382   31.2514  -10.4317 C   0  0  0  0  0  0  0  0  0  0  0  0
    3.4162   29.4520  -10.2058 C   0  0  0  0  0  0  0  0  0  0  0  0
    3.7990   28.1027  -10.8300 C   0  0  0  0  0  0  0  0  0  0  0  0
    5.0307   27.5851  -10.3162 N   0  0  0  0  0  0  0  0  0  0  0  0
    6.1935   28.2776  -10.5114 C   0  0  0  0  0  0  0  0  0  0  0  0
    6.2832   29.3227  -11.1345 O   0  0  0  0  0  0  0  0  0  0  0  0
   10.6539   25.3662   -8.6065 N   0  0  0  0  0  0  0  0  0  0  0  0
   10.4350   24.3988   -7.7749 C   0  0  0  0  0  0  0  0  0  0  0  0
   11.4281   23.5724   -7.3789 N   0  0  0  0  0  0  0  0  0  0  0  0
    9.2081   24.1380   -7.2622 N   0  3  0  0  0  0  0  0  0  0  0  0
    8.1034   24.8552   -7.5987 C   0  0  0  0  0  0  0  0  0  0  0  0
    7.0006   24.5752   -7.1246 O   0  0  0  0  0  0  0  0  0  0  0  0
    7.2021   26.6500   -9.0258 N   0  0  0  0  0  0  0  0  0  0  0  0
    7.4107   27.5824   -9.9111 C   0  0  0  0  0  0  0  0  0  0  0  0
    8.7787   28.0448  -10.4313 C   0  0  0  0  0  0  0  0  0  0  0  0
    9.0277   29.4546   -9.8993 C   0  0  0  0  0  0  0  0  0  0  0  0
    8.8212   27.9770  -11.9588 C   0  0  0  0  0  0  0  0  0  0  0  0
    9.8186   27.1566   -9.9174 N   0  0  0  0  0  0  0  0  0  0  0  0
    9.5902   26.1413   -9.0034 C   0  0  0  0  0  0  0  0  0  0  0  0
    8.3135   25.9608   -8.5790 C   0  0  0  0  0  0  0  0  0  0  0  0
    4.0350   30.0304   -9.3192 O   0  0  0  0  0  0  0  0  0  0  0  0
    0.5539   32.5589  -13.9210 O   0  0  0  0  0  0  0  0  0  0  0  0
    0.9728   30.1749  -13.1907 O   0  0  0  0  0  0  0  0  0  0  0  0
   -2.0265   32.3853  -13.6686 H   0  0  0  0  0  0  0  0  0  0  0  0
   -3.4165   30.8474  -11.4319 H   0  0  0  0  0  0  0  0  0  0  0  0
   -3.3243   33.2138  -11.5676 H   0  0  0  0  0  0  0  0  0  0  0  0
   -4.9995   29.9843  -12.9297 H   0  0  0  0  0  0  0  0  0  0  0  0
   -5.5358   32.1774  -13.5159 H   0  0  0  0  0  0  0  0  0  0  0  0
   -3.3529   30.4123  -15.3431 H   0  0  0  0  0  0  0  0  0  0  0  0
   -3.5733   28.2777  -16.5361 H   0  0  0  0  0  0  0  0  0  0  0  0
   -3.8732   23.3354  -12.8311 H   0  0  0  0  0  0  0  0  0  0  0  0
   -3.9122   23.9317  -14.4862 H   0  0  0  0  0  0  0  0  0  0  0  0
   -3.3397   27.0006  -10.2182 H   0  0  0  0  0  0  0  0  0  0  0  0
   -0.9708   30.5843  -11.4282 H   0  0  0  0  0  0  0  0  0  0  0  0
   -1.0419   32.3650  -11.3456 H   0  0  0  0  0  0  0  0  0  0  0  0
    1.4602   33.1539  -11.4149 H   0  0  0  0  0  0  0  0  0  0  0  0
    2.7158   32.1143  -12.1501 H   0  0  0  0  0  0  0  0  0  0  0  0
    1.8656   29.4541  -11.5590 H   0  0  0  0  0  0  0  0  0  0  0  0
    0.7369   31.1060  -10.0183 H   0  0  0  0  0  0  0  0  0  0  0  0
    2.3484   31.7318   -9.6628 H   0  0  0  0  0  0  0  0  0  0  0  0
    3.8850   28.2167  -11.9191 H   0  0  0  0  0  0  0  0  0  0  0  0
    3.0133   27.3854  -10.5931 H   0  0  0  0  0  0  0  0  0  0  0  0
    5.0790   26.7116   -9.7982 H   0  0  0  0  0  0  0  0  0  0  0  0
   12.3631   23.7535   -7.7198 H   0  0  0  0  0  0  0  0  0  0  0  0
   11.2974   22.8376   -6.7021 H   0  0  0  0  0  0  0  0  0  0  0  0
    9.0586   23.3809   -6.6189 H   0  0  0  0  0  0  0  0  0  0  0  0
    9.9992   29.8408  -10.2220 H   0  0  0  0  0  0  0  0  0  0  0  0
    8.9995   29.4641   -8.8026 H   0  0  0  0  0  0  0  0  0  0  0  0
    8.2684   30.1657  -10.2361 H   0  0  0  0  0  0  0  0  0  0  0  0
    8.6415   26.9522  -12.3064 H   0  0  0  0  0  0  0  0  0  0  0  0
    9.7950   28.2986  -12.3418 H   0  0  0  0  0  0  0  0  0  0  0  0
    8.0679   28.6099  -12.4350 H   0  0  0  0  0  0  0  0  0  0  0  0
   10.7833   27.2717  -10.2119 H   0  0  0  0  0  0  0  0  0  0  0  0
  1  2  1  0  0  0  0
  1  3  1  0  0  0  0
  1 18  1  0  0  0  0
  1 45  1  6  0  0  0
  2  7  1  0  0  0  0
  3  4  1  0  0  0  0
  3  5  1  0  0  0  0
  3 46  1  1  0  0  0
  4 47  1  0  0  0  0
  5  6  1  0  0  0  0
  5  7  1  0  0  0  0
  5 48  1  1  0  0  0
  6 49  1  0  0  0  0
  7  8  1  0  0  0  0
  7 50  1  6  0  0  0
  8  9  2  0  0  0  0
  8 17  1  0  0  0  0
  9 10  1  0  0  0  0
  9 51  1  0  0  0  0
 10 11  1  0  0  0  0
 11 12  2  0  0  0  0
 11 17  1  0  0  0  0
 12 13  1  0  0  0  0
 12 14  1  0  0  0  0
 13 52  1  0  0  0  0
 13 53  1  0  0  0  0
 14 15  2  0  0  0  0
 15 16  1  0  0  0  0
 15 54  1  0  0  0  0
 16 17  2  0  0  0  0
 18 19  1  0  0  0  0
 18 55  1  0  0  0  0
 18 56  1  0  0  0  0
 19 20  1  0  0  0  0
 19 43  2  0  0  0  0
 19 44  2  0  0  0  0
 20 22  1  0  0  0  0
 20 57  1  0  0  0  0
 20 58  1  0  0  0  0
 21 22  1  0  0  0  0
 21 23  1  0  0  0  0
 21 59  1  0  0  0  0
 22 60  1  0  0  0  0
 22 61  1  0  0  0  0
 23 24  1  0  0  0  0
 23 42  2  0  0  0  0
 24 25  1  0  0  0  0
 24 62  1  0  0  0  0
 24 63  1  0  0  0  0
 25 26  1  0  0  0  0
 25 64  1  0  0  0  0
 26 27  2  0  0  0  0
 26 35  1  0  0  0  0
 28 29  2  0  0  0  0
 28 40  1  0  0  0  0
 29 30  1  0  0  0  0
 29 31  1  0  0  0  0
 30 65  1  0  0  0  0
 30 66  1  0  0  0  0
 31 32  1  0  0  0  0
 31 67  1  0  0  0  0
 32 33  2  0  0  0  0
 32 41  1  0  0  0  0
 34 35  2  0  0  0  0
 34 41  1  0  0  0  0
 35 36  1  0  0  0  0
 36 37  1  0  0  0  0
 36 38  1  0  0  0  0
 36 39  1  0  0  0  0
 37 68  1  0  0  0  0
 37 69  1  0  0  0  0
 37 70  1  0  0  0  0
 38 71  1  0  0  0  0
 38 72  1  0  0  0  0
 38 73  1  0  0  0  0
 39 40  1  0  0  0  0
 39 74  1  0  0  0  0
 40 41  2  0  0  0  0
M  CHG  2   8   1  31   1
M  END
$$$$
