J31
 OpenBabel04111920373D

 77 77  0  0  1  0  0  0  0  0999 V2000
  -26.5384   -9.8979  -42.8582 O   0  0  0  0  0  0  0  0  0  0  0  0
  -26.3627  -10.7278  -41.9921 C   0  0  0  0  0  0  0  0  0  0  0  0
  -25.4633  -11.7611  -42.1195 N   0  0  0  0  0  0  0  0  0  0  0  0
  -24.6913  -11.9302  -43.3521 C   0  0  0  0  0  0  0  0  0  0  0  0
  -25.4548  -12.6781  -44.4350 C   0  0  0  0  0  0  0  0  0  0  0  0
  -25.5387  -14.0362  -44.0132 O   0  0  0  0  0  0  0  0  0  0  0  0
  -26.2960  -14.9135  -44.7403 C   0  0  0  0  0  0  0  0  0  0  0  0
  -27.0136  -14.5627  -45.8904 C   0  0  0  0  0  0  0  0  0  0  0  0
  -27.7468  -15.5288  -46.5722 C   0  0  0  0  0  0  0  0  0  0  0  0
  -27.7651  -16.8443  -46.1271 C   0  0  0  0  0  0  0  0  0  0  0  0
  -27.0509  -17.2007  -44.9748 C   0  0  0  0  0  0  0  0  0  0  0  0
  -26.3111  -16.2376  -44.2747 C   0  0  0  0  0  0  0  0  0  0  0  0
  -25.4993  -16.6323  -43.0792 C   0  0  0  0  0  0  0  0  0  0  0  0
  -24.3431  -17.3124  -43.3860 N   0  0  0  0  0  0  0  0  0  0  0  0
  -23.3769  -17.7585  -42.3869 C   0  0  0  0  0  0  0  0  0  0  0  0
  -23.1256  -19.2619  -42.4847 C   0  0  0  0  0  0  0  0  0  0  0  0
  -22.3600  -19.6481  -43.7586 C   0  0  0  0  0  0  0  0  0  0  0  0
  -20.8645  -19.4087  -43.5976 C   0  0  0  0  0  0  0  0  0  0  0  0
  -19.9734  -20.0723  -44.6564 C   0  0  2  0  0  0  0  0  0  0  0  0
  -18.5840  -19.8543  -44.2612 N   0  0  0  0  0  0  0  0  0  0  0  0
  -17.9238  -20.6829  -43.4256 C   0  0  0  0  0  0  0  0  0  0  0  0
  -18.3967  -21.7336  -42.9908 O   0  0  0  0  0  0  0  0  0  0  0  0
  -16.6518  -20.2679  -43.1479 N   0  0  0  0  0  0  0  0  0  0  0  0
  -16.0706  -20.7401  -41.8905 C   0  0  2  0  0  0  0  0  0  0  0  0
  -17.0485  -20.6140  -40.6526 C   0  0  0  0  0  0  0  0  0  0  0  0
  -16.8298  -21.4754  -39.7151 O   0  0  0  0  0  0  0  0  0  0  0  0
  -17.9228  -19.6980  -40.6757 O   0  0  0  0  0  0  0  0  0  0  0  0
  -14.7761  -20.0093  -41.5201 C   0  0  0  0  0  0  0  0  0  0  0  0
  -14.9954  -18.5056  -41.3564 C   0  0  0  0  0  0  0  0  0  0  0  0
  -13.8243  -17.7420  -40.7462 C   0  0  0  0  0  0  0  0  0  0  0  0
  -13.7749  -16.5094  -41.0445 O   0  0  0  0  0  0  0  0  0  0  0  0
  -13.0087  -18.3964  -40.0355 O   0  0  0  0  0  0  0  0  0  0  0  0
  -20.1836  -19.4461  -46.0669 C   0  0  0  0  0  0  0  0  0  0  0  0
  -19.6095  -18.3326  -46.2544 O   0  0  0  0  0  0  0  0  0  0  0  0
  -20.8718  -20.1261  -46.8955 O   0  0  0  0  0  0  0  0  0  0  0  0
  -25.8596  -16.3575  -41.9395 O   0  0  0  0  0  0  0  0  0  0  0  0
  -27.0610  -10.6717  -40.6726 C   0  0  0  0  0  0  0  0  0  0  0  0
  -28.4814  -10.1240  -40.8302 C   0  0  0  0  0  0  0  0  0  0  0  0
  -29.0272   -9.8048  -39.5354 O   0  0  0  0  0  0  0  0  0  0  0  0
  -30.4590   -9.7805  -39.5200 C   0  0  0  0  0  0  0  0  0  0  0  0
  -30.9941   -8.7433  -38.5235 C   0  0  0  0  0  0  0  0  0  0  0  0
  -30.1621   -7.5938  -38.4156 O   0  0  0  0  0  0  0  0  0  0  0  0
  -25.4148  -12.5013  -41.4357 H   0  0  0  0  0  0  0  0  0  0  0  0
  -23.7838  -12.4809  -43.0777 H   0  0  0  0  0  0  0  0  0  0  0  0
  -24.4155  -10.9390  -43.7178 H   0  0  0  0  0  0  0  0  0  0  0  0
  -24.8956  -12.6157  -45.3769 H   0  0  0  0  0  0  0  0  0  0  0  0
  -26.4530  -12.2397  -44.5578 H   0  0  0  0  0  0  0  0  0  0  0  0
  -27.0095  -13.5469  -46.2708 H   0  0  0  0  0  0  0  0  0  0  0  0
  -28.3036  -15.2565  -47.4854 H   0  0  0  0  0  0  0  0  0  0  0  0
  -28.3279  -17.6010  -46.6758 H   0  0  0  0  0  0  0  0  0  0  0  0
  -27.0719  -18.2387  -44.6318 H   0  0  0  0  0  0  0  0  0  0  0  0
  -24.0877  -17.4107  -44.3618 H   0  0  0  0  0  0  0  0  0  0  0  0
  -23.7483  -17.5233  -41.3826 H   0  0  0  0  0  0  0  0  0  0  0  0
  -22.4434  -17.2082  -42.5386 H   0  0  0  0  0  0  0  0  0  0  0  0
  -24.0846  -19.7914  -42.4645 H   0  0  0  0  0  0  0  0  0  0  0  0
  -22.5593  -19.5826  -41.5997 H   0  0  0  0  0  0  0  0  0  0  0  0
  -22.7249  -19.0640  -44.6090 H   0  0  0  0  0  0  0  0  0  0  0  0
  -22.5388  -20.7063  -43.9728 H   0  0  0  0  0  0  0  0  0  0  0  0
  -20.5643  -19.7683  -42.6035 H   0  0  0  0  0  0  0  0  0  0  0  0
  -20.6811  -18.3258  -43.6126 H   0  0  0  0  0  0  0  0  0  0  0  0
  -20.1719  -21.1527  -44.6801 H   0  0  0  0  0  0  0  0  0  0  0  0
  -18.2377  -18.9290  -44.4757 H   0  0  0  0  0  0  0  0  0  0  0  0
  -16.2000  -19.5618  -43.7035 H   0  0  0  0  0  0  0  0  0  0  0  0
  -15.8533  -21.8029  -42.0551 H   0  0  0  0  0  0  0  0  0  0  0  0
  -14.0152  -20.1791  -42.2936 H   0  0  0  0  0  0  0  0  0  0  0  0
  -14.3754  -20.4340  -40.5913 H   0  0  0  0  0  0  0  0  0  0  0  0
  -15.8573  -18.3305  -40.7038 H   0  0  0  0  0  0  0  0  0  0  0  0
  -15.2496  -18.0712  -42.3309 H   0  0  0  0  0  0  0  0  0  0  0  0
  -26.4863  -10.0095  -39.9993 H   0  0  0  0  0  0  0  0  0  0  0  0
  -27.1004  -11.6565  -40.1906 H   0  0  0  0  0  0  0  0  0  0  0  0
  -29.0951  -10.8741  -41.3447 H   0  0  0  0  0  0  0  0  0  0  0  0
  -28.4719   -9.2133  -41.4421 H   0  0  0  0  0  0  0  0  0  0  0  0
  -30.8195  -10.7713  -39.2115 H   0  0  0  0  0  0  0  0  0  0  0  0
  -30.8671   -9.5651  -40.5135 H   0  0  0  0  0  0  0  0  0  0  0  0
  -31.1027   -9.1809  -37.5257 H   0  0  0  0  0  0  0  0  0  0  0  0
  -31.9876   -8.4082  -38.8412 H   0  0  0  0  0  0  0  0  0  0  0  0
  -29.2840   -7.9256  -38.1444 H   0  0  0  0  0  0  0  0  0  0  0  0
  1  2  2  0  0  0  0
  2  3  1  0  0  0  0
  2 37  1  0  0  0  0
  3  4  1  0  0  0  0
  3 43  1  0  0  0  0
  4  5  1  0  0  0  0
  4 44  1  0  0  0  0
  4 45  1  0  0  0  0
  5  6  1  0  0  0  0
  5 46  1  0  0  0  0
  5 47  1  0  0  0  0
  6  7  1  0  0  0  0
  7  8  2  0  0  0  0
  7 12  1  0  0  0  0
  8  9  1  0  0  0  0
  8 48  1  0  0  0  0
  9 10  2  0  0  0  0
  9 49  1  0  0  0  0
 10 11  1  0  0  0  0
 10 50  1  0  0  0  0
 11 12  2  0  0  0  0
 11 51  1  0  0  0  0
 12 13  1  0  0  0  0
 13 14  1  0  0  0  0
 13 36  2  0  0  0  0
 14 15  1  0  0  0  0
 14 52  1  0  0  0  0
 15 16  1  0  0  0  0
 15 53  1  0  0  0  0
 15 54  1  0  0  0  0
 16 17  1  0  0  0  0
 16 55  1  0  0  0  0
 16 56  1  0  0  0  0
 17 18  1  0  0  0  0
 17 57  1  0  0  0  0
 17 58  1  0  0  0  0
 18 19  1  0  0  0  0
 18 59  1  0  0  0  0
 18 60  1  0  0  0  0
 19 20  1  0  0  0  0
 19 33  1  0  0  0  0
 19 61  1  6  0  0  0
 20 21  1  0  0  0  0
 20 62  1  0  0  0  0
 21 22  2  0  0  0  0
 21 23  1  0  0  0  0
 23 24  1  0  0  0  0
 23 63  1  0  0  0  0
 24 25  1  0  0  0  0
 24 28  1  0  0  0  0
 24 64  1  6  0  0  0
 25 26  2  0  0  0  0
 25 27  1  0  0  0  0
 28 29  1  0  0  0  0
 28 65  1  0  0  0  0
 28 66  1  0  0  0  0
 29 30  1  0  0  0  0
 29 67  1  0  0  0  0
 29 68  1  0  0  0  0
 30 31  2  0  0  0  0
 30 32  1  0  0  0  0
 33 34  2  0  0  0  0
 33 35  1  0  0  0  0
 37 38  1  0  0  0  0
 37 69  1  0  0  0  0
 37 70  1  0  0  0  0
 38 39  1  0  0  0  0
 38 71  1  0  0  0  0
 38 72  1  0  0  0  0
 39 40  1  0  0  0  0
 40 41  1  0  0  0  0
 40 73  1  0  0  0  0
 40 74  1  0  0  0  0
 41 42  1  0  0  0  0
 41 75  1  0  0  0  0
 41 76  1  0  0  0  0
 42 77  1  0  0  0  0
M  END
$$$$
