J73
 OpenBabel04111917483D

 50 52  0  0  1  0  0  0  0  0999 V2000
  -72.4925  -13.4574  -20.1392 O   0  0  0  0  0  0  0  0  0  0  0  0
  -71.5522  -14.4964  -19.9234 C   0  0  0  0  0  0  0  0  0  0  0  0
  -70.4584  -14.5728  -20.9246 C   0  0  0  0  0  0  0  0  0  0  0  0
  -69.9576  -13.5093  -21.6331 N   0  0  0  0  0  0  0  0  0  0  0  0
  -68.9505  -13.9574  -22.3876 N   0  0  0  0  0  0  0  0  0  0  0  0
  -69.7469  -15.6941  -21.2426 C   0  0  0  0  0  0  0  0  0  0  0  0
  -68.8279  -15.2743  -22.1562 N   0  3  0  0  0  0  0  0  0  0  0  0
  -67.7334  -16.0029  -22.7514 C   0  0  0  0  0  0  0  0  0  0  0  0
  -67.7211  -17.5137  -22.4859 C   0  0  0  0  0  0  0  0  0  0  0  0
  -66.3530  -18.1453  -22.5204 C   0  0  0  0  0  0  0  0  0  0  0  0
  -65.2634  -17.5637  -23.1753 C   0  0  0  0  0  0  0  0  0  0  0  0
  -63.9974  -18.1482  -23.1306 C   0  0  0  0  0  0  0  0  0  0  0  0
  -63.8331  -19.3382  -22.4472 C   0  0  0  0  0  0  0  0  0  0  0  0
  -64.9190  -19.9595  -21.8301 C   0  0  0  0  0  0  0  0  0  0  0  0
  -66.1744  -19.3705  -21.8563 C   0  0  0  0  0  0  0  0  0  0  0  0
  -62.6863  -20.0211  -22.2836 O   0  0  0  0  0  0  0  0  0  0  0  0
  -61.3972  -19.4702  -22.5621 C   0  0  2  0  0  0  0  0  0  0  0  0
  -60.4852  -20.5143  -21.9026 C   0  0  1  0  0  0  0  0  0  0  0  0
  -59.1245  -20.4178  -22.3230 O   0  0  0  0  0  0  0  0  0  0  0  0
  -60.6061  -20.3739  -20.3799 C   0  0  1  0  0  0  0  0  0  0  0  0
  -59.7749  -21.3720  -19.7716 O   0  0  0  0  0  0  0  0  0  0  0  0
  -60.2142  -18.9562  -19.9498 C   0  0  2  0  0  0  0  0  0  0  0  0
  -60.3914  -18.8171  -18.5310 O   0  0  0  0  0  0  0  0  0  0  0  0
  -61.1305  -17.9563  -20.6767 C   0  0  2  0  0  0  0  0  0  0  0  0
  -61.1483  -18.1393  -22.0979 O   0  0  0  0  0  0  0  0  0  0  0  0
  -60.7103  -16.5041  -20.3718 C   0  0  0  0  0  0  0  0  0  0  0  0
  -59.3449  -16.2812  -20.7207 O   0  0  0  0  0  0  0  0  0  0  0  0
  -73.1682  -13.5597  -19.4493 H   0  0  0  0  0  0  0  0  0  0  0  0
  -72.1020  -15.4449  -19.9503 H   0  0  0  0  0  0  0  0  0  0  0  0
  -71.1222  -14.3855  -18.9232 H   0  0  0  0  0  0  0  0  0  0  0  0
  -69.8159  -16.7036  -20.8752 H   0  0  0  0  0  0  0  0  0  0  0  0
  -66.8260  -15.5216  -22.3642 H   0  0  0  0  0  0  0  0  0  0  0  0
  -67.7786  -15.8252  -23.8333 H   0  0  0  0  0  0  0  0  0  0  0  0
  -68.3598  -18.0228  -23.2174 H   0  0  0  0  0  0  0  0  0  0  0  0
  -68.1330  -17.7348  -21.4954 H   0  0  0  0  0  0  0  0  0  0  0  0
  -65.3656  -16.6265  -23.7175 H   0  0  0  0  0  0  0  0  0  0  0  0
  -63.1670  -17.6502  -23.6204 H   0  0  0  0  0  0  0  0  0  0  0  0
  -64.7765  -20.9024  -21.3094 H   0  0  0  0  0  0  0  0  0  0  0  0
  -66.9966  -19.8654  -21.3455 H   0  0  0  0  0  0  0  0  0  0  0  0
  -61.2287  -19.4661  -23.6460 H   0  0  0  0  0  0  0  0  0  0  0  0
  -60.8174  -21.5231  -22.1810 H   0  0  0  0  0  0  0  0  0  0  0  0
  -58.6334  -21.0405  -21.7515 H   0  0  0  0  0  0  0  0  0  0  0  0
  -61.6341  -20.5654  -20.0385 H   0  0  0  0  0  0  0  0  0  0  0  0
  -60.2729  -22.2076  -19.8273 H   0  0  0  0  0  0  0  0  0  0  0  0
  -59.1540  -18.7927  -20.1766 H   0  0  0  0  0  0  0  0  0  0  0  0
  -59.8832  -18.0300  -18.2651 H   0  0  0  0  0  0  0  0  0  0  0  0
  -62.1578  -18.0653  -20.3073 H   0  0  0  0  0  0  0  0  0  0  0  0
  -60.8132  -16.2846  -19.3036 H   0  0  0  0  0  0  0  0  0  0  0  0
  -61.3281  -15.7973  -20.9344 H   0  0  0  0  0  0  0  0  0  0  0  0
  -59.1652  -15.3324  -20.6069 H   0  0  0  0  0  0  0  0  0  0  0  0
  1  2  1  0  0  0  0
  1 28  1  0  0  0  0
  2  3  1  0  0  0  0
  2 29  1  0  0  0  0
  2 30  1  0  0  0  0
  3  4  1  0  0  0  0
  3  6  2  0  0  0  0
  4  5  1  0  0  0  0
  5  7  2  0  0  0  0
  6  7  1  0  0  0  0
  6 31  1  0  0  0  0
  7  8  1  0  0  0  0
  8  9  1  0  0  0  0
  8 32  1  0  0  0  0
  8 33  1  0  0  0  0
  9 10  1  0  0  0  0
  9 34  1  0  0  0  0
  9 35  1  0  0  0  0
 10 11  2  0  0  0  0
 10 15  1  0  0  0  0
 11 12  1  0  0  0  0
 11 36  1  0  0  0  0
 12 13  2  0  0  0  0
 12 37  1  0  0  0  0
 13 14  1  0  0  0  0
 13 16  1  0  0  0  0
 14 15  2  0  0  0  0
 14 38  1  0  0  0  0
 15 39  1  0  0  0  0
 16 17  1  0  0  0  0
 17 18  1  0  0  0  0
 17 25  1  0  0  0  0
 17 40  1  6  0  0  0
 18 19  1  0  0  0  0
 18 20  1  0  0  0  0
 18 41  1  6  0  0  0
 19 42  1  0  0  0  0
 20 21  1  0  0  0  0
 20 22  1  0  0  0  0
 20 43  1  1  0  0  0
 21 44  1  0  0  0  0
 22 23  1  0  0  0  0
 22 24  1  0  0  0  0
 22 45  1  6  0  0  0
 23 46  1  0  0  0  0
 24 25  1  0  0  0  0
 24 26  1  0  0  0  0
 24 47  1  1  0  0  0
 26 27  1  0  0  0  0
 26 48  1  0  0  0  0
 26 49  1  0  0  0  0
 27 50  1  0  0  0  0
M  CHG  1   7   1
M  END
$$$$
