J96
 OpenBabel04111920363D

 42 41  0  0  1  0  0  0  0  0999 V2000
  -25.3100  -16.7702  -40.9115 O   0  0  0  0  0  0  0  0  0  0  0  0
  -25.3708  -16.5125  -42.0895 C   0  0  0  0  0  0  0  0  0  0  0  0
  -24.5392  -16.9768  -43.0914 N   0  0  0  0  0  0  0  0  0  0  0  0
  -23.2195  -17.4922  -42.8008 C   0  0  0  0  0  0  0  0  0  0  0  0
  -23.1796  -18.9555  -42.3678 C   0  0  0  0  0  0  0  0  0  0  0  0
  -22.3409  -19.8332  -43.3189 C   0  0  0  0  0  0  0  0  0  0  0  0
  -20.8449  -19.4979  -43.1843 C   0  0  0  0  0  0  0  0  0  0  0  0
  -19.8911  -20.0977  -44.2417 C   0  0  2  0  0  0  0  0  0  0  0  0
  -18.4925  -19.8623  -43.8377 N   0  0  0  0  0  0  0  0  0  0  0  0
  -17.8572  -20.6518  -42.9297 C   0  0  0  0  0  0  0  0  0  0  0  0
  -18.3548  -21.6809  -42.4790 O   0  0  0  0  0  0  0  0  0  0  0  0
  -16.6085  -20.2059  -42.6106 N   0  0  0  0  0  0  0  0  0  0  0  0
  -16.0431  -20.6384  -41.3248 C   0  0  2  0  0  0  0  0  0  0  0  0
  -17.0150  -20.4917  -40.0774 C   0  0  0  0  0  0  0  0  0  0  0  0
  -17.8610  -19.5437  -40.1136 O   0  0  0  0  0  0  0  0  0  0  0  0
  -16.8296  -21.3442  -39.1546 O   0  0  0  0  0  0  0  0  0  0  0  0
  -14.7266  -19.9272  -40.9707 C   0  0  0  0  0  0  0  0  0  0  0  0
  -14.8864  -18.4085  -40.8992 C   0  0  0  0  0  0  0  0  0  0  0  0
  -13.7622  -17.6224  -40.2278 C   0  0  0  0  0  0  0  0  0  0  0  0
  -13.7270  -16.3904  -40.5270 O   0  0  0  0  0  0  0  0  0  0  0  0
  -12.9700  -18.2601  -39.4765 O   0  0  0  0  0  0  0  0  0  0  0  0
  -20.1460  -19.4445  -45.6312 C   0  0  0  0  0  0  0  0  0  0  0  0
  -19.6161  -18.3016  -45.8001 O   0  0  0  0  0  0  0  0  0  0  0  0
  -20.8340  -20.1208  -46.4525 O   0  0  0  0  0  0  0  0  0  0  0  0
  -26.1448  -15.8344  -42.5022 H   0  0  0  0  0  0  0  0  0  0  0  0
  -24.7853  -16.8464  -44.0587 H   0  0  0  0  0  0  0  0  0  0  0  0
  -22.7909  -16.8654  -41.9976 H   0  0  0  0  0  0  0  0  0  0  0  0
  -22.6099  -17.3056  -43.7003 H   0  0  0  0  0  0  0  0  0  0  0  0
  -24.1936  -19.3575  -42.2751 H   0  0  0  0  0  0  0  0  0  0  0  0
  -22.7295  -19.0064  -41.3663 H   0  0  0  0  0  0  0  0  0  0  0  0
  -22.6957  -19.7027  -44.3467 H   0  0  0  0  0  0  0  0  0  0  0  0
  -22.5051  -20.8873  -43.0539 H   0  0  0  0  0  0  0  0  0  0  0  0
  -20.5354  -19.8238  -42.1815 H   0  0  0  0  0  0  0  0  0  0  0  0
  -20.7212  -18.4098  -43.1947 H   0  0  0  0  0  0  0  0  0  0  0  0
  -20.0380  -21.1835  -44.2940 H   0  0  0  0  0  0  0  0  0  0  0  0
  -18.1584  -18.9223  -44.0091 H   0  0  0  0  0  0  0  0  0  0  0  0
  -16.1541  -19.5044  -43.1695 H   0  0  0  0  0  0  0  0  0  0  0  0
  -15.8309  -21.7073  -41.4526 H   0  0  0  0  0  0  0  0  0  0  0  0
  -13.9517  -20.1696  -41.7118 H   0  0  0  0  0  0  0  0  0  0  0  0
  -14.3602  -20.3191  -40.0135 H   0  0  0  0  0  0  0  0  0  0  0  0
  -15.7945  -18.1615  -40.3392 H   0  0  0  0  0  0  0  0  0  0  0  0
  -15.0354  -18.0197  -41.9141 H   0  0  0  0  0  0  0  0  0  0  0  0
  1  2  2  0  0  0  0
  2  3  1  0  0  0  0
  2 25  1  0  0  0  0
  3  4  1  0  0  0  0
  3 26  1  0  0  0  0
  4  5  1  0  0  0  0
  4 27  1  0  0  0  0
  4 28  1  0  0  0  0
  5  6  1  0  0  0  0
  5 29  1  0  0  0  0
  5 30  1  0  0  0  0
  6  7  1  0  0  0  0
  6 31  1  0  0  0  0
  6 32  1  0  0  0  0
  7  8  1  0  0  0  0
  7 33  1  0  0  0  0
  7 34  1  0  0  0  0
  8  9  1  0  0  0  0
  8 22  1  0  0  0  0
  8 35  1  6  0  0  0
  9 10  1  0  0  0  0
  9 36  1  0  0  0  0
 10 11  2  0  0  0  0
 10 12  1  0  0  0  0
 12 13  1  0  0  0  0
 12 37  1  0  0  0  0
 13 14  1  0  0  0  0
 13 17  1  0  0  0  0
 13 38  1  6  0  0  0
 14 15  2  0  0  0  0
 14 16  1  0  0  0  0
 17 18  1  0  0  0  0
 17 39  1  0  0  0  0
 17 40  1  0  0  0  0
 18 19  1  0  0  0  0
 18 41  1  0  0  0  0
 18 42  1  0  0  0  0
 19 20  2  0  0  0  0
 19 21  1  0  0  0  0
 22 23  2  0  0  0  0
 22 24  1  0  0  0  0
M  END
$$$$
