JAK
 OpenBabel04111918493D

 37 40  0  0  0  0  0  0  0  0999 V2000
   17.0078    6.3102   12.4671 C   0  0  0  0  0  0  0  0  0  0  0  0
   16.6312    7.7446   12.3168 C   0  0  0  0  0  0  0  0  0  0  0  0
   17.3611    8.7480   12.7571 N   0  0  0  0  0  0  0  0  0  0  0  0
   16.6442    9.8799   12.4770 C   0  0  0  0  0  0  0  0  0  0  0  0
   16.9196   11.2282   12.7549 C   0  0  0  0  0  0  0  0  0  0  0  0
   16.0654   12.2341   12.4233 N   0  0  0  0  0  0  0  0  0  0  0  0
   14.9485   11.8428   11.7934 C   0  0  0  0  0  0  0  0  0  0  0  0
   14.6030   10.5498   11.4679 C   0  0  0  0  0  0  0  0  0  0  0  0
   15.4651    9.5437   11.8234 C   0  0  0  0  0  0  0  0  0  0  0  0
   15.4535    8.1979   11.7232 N   0  3  0  0  0  0  0  0  0  0  0  0
   14.4550    7.2775   11.2124 C   0  0  0  0  0  0  0  0  0  0  0  0
   14.2638    7.3269    9.7011 C   0  0  0  0  0  0  0  0  0  0  0  0
   13.4275    6.1352    9.2749 C   0  0  0  0  0  0  0  0  0  0  0  0
   12.1372    6.1117   10.0308 N   0  3  0  0  0  0  0  0  0  0  0  0
   12.2023    6.2050   11.5232 C   0  0  0  0  0  0  0  0  0  0  0  0
   13.1400    7.3048   11.9873 C   0  0  0  0  0  0  0  0  0  0  0  0
   13.3559   10.5736   10.7917 C   0  0  0  0  0  0  0  0  0  0  0  0
   12.9558   11.9027   10.7552 C   0  0  0  0  0  0  0  0  0  0  0  0
   13.9365   12.6652   11.3738 N   0  3  0  0  0  0  0  0  0  0  0  0
   17.9641    6.2094   12.9887 H   0  0  0  0  0  0  0  0  0  0  0  0
   17.1033    5.8336   11.4870 H   0  0  0  0  0  0  0  0  0  0  0  0
   16.2527    5.7770   13.0519 H   0  0  0  0  0  0  0  0  0  0  0  0
   17.8295   11.5198   13.2677 H   0  0  0  0  0  0  0  0  0  0  0  0
   14.8556    6.2740   11.3998 H   0  0  0  0  0  0  0  0  0  0  0  0
   15.2351    7.2951    9.1920 H   0  0  0  0  0  0  0  0  0  0  0  0
   13.7815    8.2510    9.3806 H   0  0  0  0  0  0  0  0  0  0  0  0
   13.9397    5.1884    9.4776 H   0  0  0  0  0  0  0  0  0  0  0  0
   13.1755    6.1849    8.2123 H   0  0  0  0  0  0  0  0  0  0  0  0
   11.5112    6.8438    9.6640 H   0  0  0  0  0  0  0  0  0  0  0  0
   12.5241    5.2267   11.8911 H   0  0  0  0  0  0  0  0  0  0  0  0
   11.1827    6.3975   11.8699 H   0  0  0  0  0  0  0  0  0  0  0  0
   12.6407    8.2700   11.8967 H   0  0  0  0  0  0  0  0  0  0  0  0
   13.3391    7.1748   13.0592 H   0  0  0  0  0  0  0  0  0  0  0  0
   12.7657    9.7832   10.3707 H   0  0  0  0  0  0  0  0  0  0  0  0
   12.0795   12.3845   10.3550 H   0  0  0  0  0  0  0  0  0  0  0  0
   13.9350   13.6677   11.5033 H   0  0  0  0  0  0  0  0  0  0  0  0
   11.6620    5.2271    9.8005 H   0  0  0  0  0  0  0  0  0  0  0  0
  1  2  1  0  0  0  0
  1 20  1  0  0  0  0
  1 21  1  0  0  0  0
  1 22  1  0  0  0  0
  2  3  1  0  0  0  0
  2 10  2  0  0  0  0
  3  4  1  0  0  0  0
  4  5  2  0  0  0  0
  4  9  1  0  0  0  0
  5  6  1  0  0  0  0
  5 23  1  0  0  0  0
  6  7  1  0  0  0  0
  7  8  1  0  0  0  0
  7 19  2  0  0  0  0
  8  9  2  0  0  0  0
  8 17  1  0  0  0  0
  9 10  1  0  0  0  0
 10 11  1  0  0  0  0
 11 12  1  0  0  0  0
 11 16  1  0  0  0  0
 11 24  1  0  0  0  0
 12 13  1  0  0  0  0
 12 25  1  0  0  0  0
 12 26  1  0  0  0  0
 13 14  1  0  0  0  0
 13 27  1  0  0  0  0
 13 28  1  0  0  0  0
 14 15  1  0  0  0  0
 14 29  1  0  0  0  0
 14 37  1  0  0  0  0
 15 16  1  0  0  0  0
 15 30  1  0  0  0  0
 15 31  1  0  0  0  0
 16 32  1  0  0  0  0
 16 33  1  0  0  0  0
 17 18  2  0  0  0  0
 17 34  1  0  0  0  0
 18 19  1  0  0  0  0
 18 35  1  0  0  0  0
 19 36  1  0  0  0  0
M  CHG  3  10   1  14   1  19   1
M  END
$$$$
