JD1
 OpenBabel04111921093D

 42 43  0  0  0  0  0  0  0  0999 V2000
   17.7453   33.4294   -9.1669 O   0  0  0  0  0  0  0  0  0  0  0  0
   16.3602   33.6334   -9.7905 P   0  0  0  0  0  0  0  0  0  0  0  0
   16.2136   34.8694  -10.6906 O   0  0  0  0  0  0  0  0  0  0  0  0
   15.9001   32.3699  -10.5609 O   0  0  0  0  0  0  0  0  0  0  0  0
   14.9870   33.8238   -8.2691 C   0  0  0  0  0  0  0  0  0  0  0  0
   15.0612   35.4675   -6.9667 P   0  0  0  0  0  0  0  0  0  0  0  0
   16.4310   35.4093   -6.2720 O   0  0  0  0  0  0  0  0  0  0  0  0
   14.7525   36.7193   -7.7929 O   0  0  0  0  0  0  0  0  0  0  0  0
   13.9355   35.1638   -5.9629 O   0  0  0  0  0  0  0  0  0  0  0  0
   15.0399   32.6503   -7.2948 N   0  0  0  0  0  0  0  0  0  0  0  0
   14.8696   31.3775   -7.7531 C   0  0  0  0  0  0  0  0  0  0  0  0
   15.5966   30.3229   -7.2027 C   0  0  0  0  0  0  0  0  0  0  0  0
   13.9061   31.0162   -8.7029 C   0  0  0  0  0  0  0  0  0  0  0  0
   13.6012   29.7470   -9.0893 N   0  0  0  0  0  0  0  0  0  0  0  0
   14.3848   28.7965   -8.5392 C   0  0  0  0  0  0  0  0  0  0  0  0
   15.3974   28.9962   -7.5880 C   0  0  0  0  0  0  0  0  0  0  0  0
   16.1822   27.8701   -7.0383 C   0  0  0  0  0  0  0  0  0  0  0  0
   16.7827   27.9195   -5.7740 C   0  0  0  0  0  0  0  0  0  0  0  0
   17.4747   26.8263   -5.2380 C   0  0  0  0  0  0  0  0  0  0  0  0
   16.3546   26.6699   -7.7646 C   0  0  0  0  0  0  0  0  0  0  0  0
   17.0242   25.5811   -7.2313 C   0  0  0  0  0  0  0  0  0  0  0  0
   17.5954   25.6394   -5.9614 C   0  0  0  0  0  0  0  0  0  0  0  0
   18.2565   24.5079   -5.5665 O   0  0  0  0  0  0  0  0  0  0  0  0
   19.1282   24.5976   -4.4463 C   0  0  0  0  0  0  0  0  0  0  0  0
   19.5718   23.1741   -4.1016 C   0  0  0  0  0  0  0  0  0  0  0  0
   20.3758   25.4144   -4.7945 C   0  0  0  0  0  0  0  0  0  0  0  0
   14.0030   33.9109   -8.7456 H   0  0  0  0  0  0  0  0  0  0  0  0
   15.7489   32.9241   -6.6138 H   0  0  0  0  0  0  0  0  0  0  0  0
   16.3754   30.5990   -6.4776 H   0  0  0  0  0  0  0  0  0  0  0  0
   13.3516   31.7985   -9.2159 H   0  0  0  0  0  0  0  0  0  0  0  0
   14.1535   27.8099   -8.9182 H   0  0  0  0  0  0  0  0  0  0  0  0
   16.7265   28.8299   -5.1830 H   0  0  0  0  0  0  0  0  0  0  0  0
   17.9017   26.9493   -4.2506 H   0  0  0  0  0  0  0  0  0  0  0  0
   15.9350   26.5775   -8.7628 H   0  0  0  0  0  0  0  0  0  0  0  0
   17.1239   24.6795   -7.8206 H   0  0  0  0  0  0  0  0  0  0  0  0
   18.5980   25.0030   -3.5763 H   0  0  0  0  0  0  0  0  0  0  0  0
   20.2063   23.1672   -3.2101 H   0  0  0  0  0  0  0  0  0  0  0  0
   20.1350   22.7333   -4.9298 H   0  0  0  0  0  0  0  0  0  0  0  0
   18.7034   22.5221   -3.9263 H   0  0  0  0  0  0  0  0  0  0  0  0
   21.0527   25.4661   -3.9401 H   0  0  0  0  0  0  0  0  0  0  0  0
   20.1300   26.4367   -5.0965 H   0  0  0  0  0  0  0  0  0  0  0  0
   20.8975   24.9604   -5.6416 H   0  0  0  0  0  0  0  0  0  0  0  0
  1  2  2  0  0  0  0
  2  3  1  0  0  0  0
  2  4  1  0  0  0  0
  2  5  1  0  0  0  0
  5  6  1  0  0  0  0
  5 10  1  0  0  0  0
  5 27  1  0  0  0  0
  6  7  2  0  0  0  0
  6  8  1  0  0  0  0
  6  9  1  0  0  0  0
 10 11  1  0  0  0  0
 10 28  1  0  0  0  0
 11 12  2  0  0  0  0
 11 13  1  0  0  0  0
 12 16  1  0  0  0  0
 12 29  1  0  0  0  0
 13 14  2  0  0  0  0
 13 30  1  0  0  0  0
 14 15  1  0  0  0  0
 15 16  2  0  0  0  0
 15 31  1  0  0  0  0
 16 17  1  0  0  0  0
 17 18  2  0  0  0  0
 17 20  1  0  0  0  0
 18 19  1  0  0  0  0
 18 32  1  0  0  0  0
 19 22  2  0  0  0  0
 19 33  1  0  0  0  0
 20 21  2  0  0  0  0
 20 34  1  0  0  0  0
 21 22  1  0  0  0  0
 21 35  1  0  0  0  0
 22 23  1  0  0  0  0
 23 24  1  0  0  0  0
 24 25  1  0  0  0  0
 24 26  1  0  0  0  0
 24 36  1  0  0  0  0
 25 37  1  0  0  0  0
 25 38  1  0  0  0  0
 25 39  1  0  0  0  0
 26 40  1  0  0  0  0
 26 41  1  0  0  0  0
 26 42  1  0  0  0  0
M  END
$$$$
