JFK
 OpenBabel04111919373D

 66 70  0  0  1  0  0  0  0  0999 V2000
   11.4134  -14.2338  -17.9341 C   0  0  0  0  0  0  0  0  0  0  0  0
    8.8811  -13.9753  -18.0570 N   0  0  0  0  0  0  0  0  0  0  0  0
   12.4806  -13.9549  -17.3631 O   0  0  0  0  0  0  0  0  0  0  0  0
   10.1427  -13.6761  -17.3398 C   0  0  1  0  0  0  0  0  0  0  0  0
   10.0382  -14.1424  -15.8810 C   0  0  0  0  0  0  0  0  0  0  0  0
   19.1174  -13.1094  -17.6589 C   0  0  0  0  0  0  0  0  0  0  0  0
   15.9155   -9.6059  -20.4069 C   0  0  0  0  0  0  0  0  0  0  0  0
    6.1474  -11.6372  -25.6202 O   0  0  0  0  0  0  0  0  0  0  0  0
    8.4003  -11.4585  -17.9217 O   0  0  0  0  0  0  0  0  0  0  0  0
    6.6300  -13.1317  -17.2617 O   0  0  0  0  0  0  0  0  0  0  0  0
   15.6176  -14.4423  -19.4295 C   0  0  0  0  0  0  0  0  0  0  0  0
   16.8143  -14.0118  -18.8680 C   0  0  0  0  0  0  0  0  0  0  0  0
    6.0478  -13.5867  -20.0797 C   0  0  0  0  0  0  0  0  0  0  0  0
    5.5019  -13.6116  -21.3624 C   0  0  0  0  0  0  0  0  0  0  0  0
   15.1507  -12.2142  -20.1569 C   0  0  0  0  0  0  0  0  0  0  0  0
    7.7565  -11.9784  -20.7764 C   0  0  0  0  0  0  0  0  0  0  0  0
    9.7162  -15.6310  -15.8245 C   0  0  0  0  0  0  0  0  0  0  0  0
   13.2210  -15.2255  -20.7173 C   0  0  0  0  0  0  0  0  0  0  0  0
    8.3806  -15.8726  -16.5183 C   0  0  0  0  0  0  0  0  0  0  0  0
    9.2728  -16.3165  -18.8486 C   0  0  0  0  0  0  0  0  0  0  0  0
   12.6717  -15.7192  -19.3798 C   0  0  0  0  0  0  0  0  0  0  0  0
   10.2016  -15.5206  -19.7483 C   0  0  0  0  0  0  0  0  0  0  0  0
    5.6392  -12.7201  -23.6372 N   0  3  0  0  0  0  0  0  0  0  0  0
   18.3746  -12.1842  -18.4393 O   0  0  0  0  0  0  0  0  0  0  0  0
   16.7852  -10.4601  -19.6781 O   0  0  0  0  0  0  0  0  0  0  0  0
   13.5767  -13.8441  -20.6633 O   0  0  0  0  0  0  0  0  0  0  0  0
    7.6709  -11.1161  -23.4929 S   0  0  0  0  0  0  0  0  0  0  0  0
   14.7761  -13.5476  -20.0770 C   0  0  0  0  0  0  0  0  0  0  0  0
    7.1746  -12.7878  -19.7910 C   0  0  0  0  0  0  0  0  0  0  0  0
   17.2004  -12.6737  -18.9532 C   0  0  0  0  0  0  0  0  0  0  0  0
   16.3605  -11.7657  -19.6098 C   0  0  0  0  0  0  0  0  0  0  0  0
    6.3632  -11.8602  -24.4274 C   0  0  0  0  0  0  0  0  0  0  0  0
    6.0854  -12.8124  -22.3154 C   0  0  0  0  0  0  0  0  0  0  0  0
    7.1942  -12.0205  -22.0441 C   0  0  0  0  0  0  0  0  0  0  0  0
    8.4107  -15.3913  -17.9726 C   0  0  2  0  0  0  0  0  0  0  0  0
   11.3967  -15.1120  -19.0110 N   0  0  0  0  0  0  0  0  0  0  0  0
    7.7370  -12.7307  -18.0950 S   0  0  0  0  0  0  0  0  0  0  0  0
   10.3320  -12.5994  -17.3437 H   0  0  0  0  0  0  0  0  0  0  0  0
    9.2529  -13.5750  -15.3669 H   0  0  0  0  0  0  0  0  0  0  0  0
   10.9729  -13.9565  -15.3394 H   0  0  0  0  0  0  0  0  0  0  0  0
   20.0200  -12.6158  -17.2941 H   0  0  0  0  0  0  0  0  0  0  0  0
   19.4299  -13.9635  -18.2698 H   0  0  0  0  0  0  0  0  0  0  0  0
   18.5295  -13.4349  -16.7931 H   0  0  0  0  0  0  0  0  0  0  0  0
   16.3299   -8.5973  -20.4145 H   0  0  0  0  0  0  0  0  0  0  0  0
   14.9329   -9.5619  -19.9231 H   0  0  0  0  0  0  0  0  0  0  0  0
   15.8334   -9.9487  -21.4451 H   0  0  0  0  0  0  0  0  0  0  0  0
   15.3791  -15.4914  -19.3199 H   0  0  0  0  0  0  0  0  0  0  0  0
   17.4196  -14.7609  -18.3720 H   0  0  0  0  0  0  0  0  0  0  0  0
    5.5825  -14.1729  -19.2914 H   0  0  0  0  0  0  0  0  0  0  0  0
    4.6293  -14.2231  -21.5761 H   0  0  0  0  0  0  0  0  0  0  0  0
   14.4686  -11.5432  -20.6658 H   0  0  0  0  0  0  0  0  0  0  0  0
    8.6044  -11.3258  -20.5802 H   0  0  0  0  0  0  0  0  0  0  0  0
    9.6810  -15.9777  -14.7887 H   0  0  0  0  0  0  0  0  0  0  0  0
   10.5119  -16.2034  -16.3169 H   0  0  0  0  0  0  0  0  0  0  0  0
   12.4666  -15.3343  -21.5020 H   0  0  0  0  0  0  0  0  0  0  0  0
   14.0772  -15.8293  -21.0369 H   0  0  0  0  0  0  0  0  0  0  0  0
    7.5976  -15.3343  -15.9714 H   0  0  0  0  0  0  0  0  0  0  0  0
    8.1277  -16.9375  -16.4761 H   0  0  0  0  0  0  0  0  0  0  0  0
    9.8574  -17.0245  -18.2457 H   0  0  0  0  0  0  0  0  0  0  0  0
    8.6076  -16.9487  -19.4517 H   0  0  0  0  0  0  0  0  0  0  0  0
   13.3934  -15.4977  -18.5931 H   0  0  0  0  0  0  0  0  0  0  0  0
   12.5576  -16.8069  -19.3761 H   0  0  0  0  0  0  0  0  0  0  0  0
    9.7041  -14.6316  -20.1495 H   0  0  0  0  0  0  0  0  0  0  0  0
   10.4888  -16.1215  -20.6166 H   0  0  0  0  0  0  0  0  0  0  0  0
    4.8562  -13.2235  -24.0192 H   0  0  0  0  0  0  0  0  0  0  0  0
    7.3914  -15.4498  -18.3669 H   0  0  0  0  0  0  0  0  0  0  0  0
  1  3  2  0  0  0  0
  1  4  1  0  0  0  0
  1 36  1  0  0  0  0
  2  4  1  0  0  0  0
  2 35  1  0  0  0  0
  2 37  1  0  0  0  0
  4  5  1  0  0  0  0
  4 38  1  1  0  0  0
  5 17  1  0  0  0  0
  5 39  1  0  0  0  0
  5 40  1  0  0  0  0
  6 24  1  0  0  0  0
  6 41  1  0  0  0  0
  6 42  1  0  0  0  0
  6 43  1  0  0  0  0
  7 25  1  0  0  0  0
  7 44  1  0  0  0  0
  7 45  1  0  0  0  0
  7 46  1  0  0  0  0
  8 32  2  0  0  0  0
  9 37  2  0  0  0  0
 10 37  2  0  0  0  0
 11 12  2  0  0  0  0
 11 28  1  0  0  0  0
 11 47  1  0  0  0  0
 12 30  1  0  0  0  0
 12 48  1  0  0  0  0
 13 14  2  0  0  0  0
 13 29  1  0  0  0  0
 13 49  1  0  0  0  0
 14 33  1  0  0  0  0
 14 50  1  0  0  0  0
 15 28  2  0  0  0  0
 15 31  1  0  0  0  0
 15 51  1  0  0  0  0
 16 29  2  0  0  0  0
 16 34  1  0  0  0  0
 16 52  1  0  0  0  0
 17 19  1  0  0  0  0
 17 53  1  0  0  0  0
 17 54  1  0  0  0  0
 18 21  1  0  0  0  0
 18 26  1  0  0  0  0
 18 55  1  0  0  0  0
 18 56  1  0  0  0  0
 19 35  1  0  0  0  0
 19 57  1  0  0  0  0
 19 58  1  0  0  0  0
 20 22  1  0  0  0  0
 20 35  1  0  0  0  0
 20 59  1  0  0  0  0
 20 60  1  0  0  0  0
 21 36  1  0  0  0  0
 21 61  1  0  0  0  0
 21 62  1  0  0  0  0
 22 36  1  0  0  0  0
 22 63  1  0  0  0  0
 22 64  1  0  0  0  0
 23 32  1  0  0  0  0
 23 33  1  0  0  0  0
 23 65  1  0  0  0  0
 24 30  1  0  0  0  0
 25 31  1  0  0  0  0
 26 28  1  0  0  0  0
 27 32  1  0  0  0  0
 27 34  1  0  0  0  0
 29 37  1  0  0  0  0
 30 31  2  0  0  0  0
 33 34  2  0  0  0  0
 35 66  1  6  0  0  0
M  CHG  1  23   1
M  END
$$$$
