JPZ
 OpenBabel04111920103D

 17 18  0  0  0  0  0  0  0  0999 V2000
    4.7107   11.7275   46.6306 C   0  0  0  0  0  0  0  0  0  0  0  0
    4.0421   12.8422   47.1394 C   0  0  0  0  0  0  0  0  0  0  0  0
    4.8502   11.5703   45.2527 C   0  0  0  0  0  0  0  0  0  0  0  0
    3.5114   13.8023   46.2714 C   0  0  0  0  0  0  0  0  0  0  0  0
    3.2381   14.4828   42.7746 C   0  0  0  0  0  0  0  0  0  0  0  0
    4.3156   12.5368   44.3953 C   0  0  0  0  0  0  0  0  0  0  0  0
    3.6433   13.6600   44.8886 C   0  0  0  0  0  0  0  0  0  0  0  0
    4.4405   12.4083   42.9330 C   0  0  0  0  0  0  0  0  0  0  0  0
    3.0984   14.6457   44.0451 N   0  0  0  0  0  0  0  0  0  0  0  0
    3.8762   13.4215   42.2011 N   0  3  0  0  0  0  0  0  0  0  0  0
    5.0090   11.4614   42.4032 O   0  0  0  0  0  0  0  0  0  0  0  0
    5.1224   10.9827   47.3075 H   0  0  0  0  0  0  0  0  0  0  0  0
    3.9317   12.9658   48.2142 H   0  0  0  0  0  0  0  0  0  0  0  0
    5.3696   10.7044   44.8494 H   0  0  0  0  0  0  0  0  0  0  0  0
    2.9913   14.6682   46.6732 H   0  0  0  0  0  0  0  0  0  0  0  0
    2.8396   15.2108   42.0507 H   0  0  0  0  0  0  0  0  0  0  0  0
    3.9554   13.3446   41.1976 H   0  0  0  0  0  0  0  0  0  0  0  0
  1  2  2  0  0  0  0
  1  3  1  0  0  0  0
  1 12  1  0  0  0  0
  2  4  1  0  0  0  0
  2 13  1  0  0  0  0
  3  6  2  0  0  0  0
  3 14  1  0  0  0  0
  4  7  2  0  0  0  0
  4 15  1  0  0  0  0
  5  9  2  0  0  0  0
  5 10  1  0  0  0  0
  5 16  1  0  0  0  0
  6  7  1  0  0  0  0
  6  8  1  0  0  0  0
  7  9  1  0  0  0  0
  8 10  1  0  0  0  0
  8 11  2  0  0  0  0
 10 17  1  0  0  0  0
M  CHG  1  10   1
M  END
$$$$
