JQ1
 OpenBabel04111918543D

 56 59  0  0  1  0  0  0  0  0999 V2000
   10.1390   -6.3149  -28.3476 C   0  0  0  0  0  0  0  0  0  0  0  0
    5.4145   -3.5551  -30.6864 C   0  0  0  0  0  0  0  0  0  0  0  0
    5.9322   -1.2237  -28.5923 C   0  0  0  0  0  0  0  0  0  0  0  0
    8.4022    2.2024  -29.8112 C   0  0  0  0  0  0  0  0  0  0  0  0
    9.2882    2.8855  -27.5651 C   0  0  0  0  0  0  0  0  0  0  0  0
   10.4857    3.5449  -29.6557 C   0  0  0  0  0  0  0  0  0  0  0  0
   12.0341    1.9755  -27.7510 O   0  0  0  0  0  0  0  0  0  0  0  0
    4.9157   -0.1744  -22.6464 Cl  0  0  0  0  0  0  0  0  0  0  0  0
    7.0479    0.3955  -24.2820 C   0  0  0  0  0  0  0  0  0  0  0  0
    5.8440   -1.6645  -24.6245 C   0  0  0  0  0  0  0  0  0  0  0  0
    7.8710    0.0617  -25.3760 C   0  0  0  0  0  0  0  0  0  0  0  0
    6.6773   -1.9989  -25.6825 C   0  0  0  0  0  0  0  0  0  0  0  0
   11.9447   -0.4264  -28.0363 C   0  0  0  0  0  0  0  0  0  0  0  0
    9.7657   -1.0588  -27.1662 N   0  0  0  0  0  0  0  0  0  0  0  0
   12.0426   -4.7862  -27.8685 N   0  0  0  0  0  0  0  0  0  0  0  0
   12.2427   -3.4170  -27.8078 N   0  0  0  0  0  0  0  0  0  0  0  0
   10.2992    1.1339  -28.9641 O   0  0  0  0  0  0  0  0  0  0  0  0
    8.0156   -4.3717  -29.9219 S   0  0  0  0  0  0  0  0  0  0  0  0
   11.4307    0.9923  -28.2361 C   0  0  0  0  0  0  0  0  0  0  0  0
    8.5886   -1.5288  -27.1868 C   0  0  0  0  0  0  0  0  0  0  0  0
    6.0184   -0.4718  -23.9295 C   0  0  0  0  0  0  0  0  0  0  0  0
   10.7960   -5.0005  -28.1903 C   0  0  0  0  0  0  0  0  0  0  0  0
    7.6780   -1.1248  -26.0866 C   0  0  0  0  0  0  0  0  0  0  0  0
    6.6468   -3.3397  -29.8390 C   0  0  0  0  0  0  0  0  0  0  0  0
    6.8669   -2.3301  -28.9128 C   0  0  0  0  0  0  0  0  0  0  0  0
   11.1114   -2.8346  -28.0911 C   0  0  0  0  0  0  0  0  0  0  0  0
    8.1271   -2.4342  -28.2505 C   0  0  0  0  0  0  0  0  0  0  0  0
    8.8293   -3.5062  -28.7112 C   0  0  0  0  0  0  0  0  0  0  0  0
   10.7713   -1.3837  -28.2072 C   0  0  2  0  0  0  0  0  0  0  0  0
   10.1410   -3.7959  -28.3546 N   0  3  0  0  0  0  0  0  0  0  0  0
    9.6565    2.4423  -28.9824 C   0  0  0  0  0  0  0  0  0  0  0  0
   10.8722   -7.1023  -28.1717 H   0  0  0  0  0  0  0  0  0  0  0  0
    9.7584   -6.4246  -29.3636 H   0  0  0  0  0  0  0  0  0  0  0  0
    9.3142   -6.4284  -27.6395 H   0  0  0  0  0  0  0  0  0  0  0  0
    4.6425   -2.7941  -30.4852 H   0  0  0  0  0  0  0  0  0  0  0  0
    4.9510   -4.5288  -30.4834 H   0  0  0  0  0  0  0  0  0  0  0  0
    5.6429   -3.4945  -31.7572 H   0  0  0  0  0  0  0  0  0  0  0  0
    5.0378   -1.2795  -29.1838 H   0  0  0  0  0  0  0  0  0  0  0  0
    6.4247   -0.2630  -28.7429 H   0  0  0  0  0  0  0  0  0  0  0  0
    5.6238   -1.2879  -27.5550 H   0  0  0  0  0  0  0  0  0  0  0  0
    7.8160    3.1162  -29.9273 H   0  0  0  0  0  0  0  0  0  0  0  0
    7.7846    1.4354  -29.3335 H   0  0  0  0  0  0  0  0  0  0  0  0
    8.6851    1.8287  -30.8044 H   0  0  0  0  0  0  0  0  0  0  0  0
   10.1888    3.0753  -26.9701 H   0  0  0  0  0  0  0  0  0  0  0  0
    8.7241    2.1010  -27.0684 H   0  0  0  0  0  0  0  0  0  0  0  0
    8.6932    3.8014  -27.5698 H   0  0  0  0  0  0  0  0  0  0  0  0
   10.7513    3.2590  -30.6777 H   0  0  0  0  0  0  0  0  0  0  0  0
   11.4139    3.7344  -29.1076 H   0  0  0  0  0  0  0  0  0  0  0  0
    9.9287    4.4934  -29.6918 H   0  0  0  0  0  0  0  0  0  0  0  0
    7.2337    1.3096  -23.7231 H   0  0  0  0  0  0  0  0  0  0  0  0
    5.0704   -2.3501  -24.3261 H   0  0  0  0  0  0  0  0  0  0  0  0
    8.6802    0.7190  -25.6590 H   0  0  0  0  0  0  0  0  0  0  0  0
    6.4939   -2.9309  -26.2146 H   0  0  0  0  0  0  0  0  0  0  0  0
   12.3836   -0.5084  -27.0233 H   0  0  0  0  0  0  0  0  0  0  0  0
   12.7521   -0.6358  -28.7546 H   0  0  0  0  0  0  0  0  0  0  0  0
   10.3571   -1.1768  -29.1983 H   0  0  0  0  0  0  0  0  0  0  0  0
  1 22  1  0  0  0  0
  1 32  1  0  0  0  0
  1 33  1  0  0  0  0
  1 34  1  0  0  0  0
  2 24  1  0  0  0  0
  2 35  1  0  0  0  0
  2 36  1  0  0  0  0
  2 37  1  0  0  0  0
  3 25  1  0  0  0  0
  3 38  1  0  0  0  0
  3 39  1  0  0  0  0
  3 40  1  0  0  0  0
  4 31  1  0  0  0  0
  4 41  1  0  0  0  0
  4 42  1  0  0  0  0
  4 43  1  0  0  0  0
  5 31  1  0  0  0  0
  5 44  1  0  0  0  0
  5 45  1  0  0  0  0
  5 46  1  0  0  0  0
  6 31  1  0  0  0  0
  6 47  1  0  0  0  0
  6 48  1  0  0  0  0
  6 49  1  0  0  0  0
  7 19  2  0  0  0  0
  8 21  1  0  0  0  0
  9 11  2  0  0  0  0
  9 21  1  0  0  0  0
  9 50  1  0  0  0  0
 10 12  1  0  0  0  0
 10 21  2  0  0  0  0
 10 51  1  0  0  0  0
 11 23  1  0  0  0  0
 11 52  1  0  0  0  0
 12 23  2  0  0  0  0
 12 53  1  0  0  0  0
 13 19  1  0  0  0  0
 13 29  1  0  0  0  0
 13 54  1  0  0  0  0
 13 55  1  0  0  0  0
 14 20  2  0  0  0  0
 14 29  1  0  0  0  0
 15 16  1  0  0  0  0
 15 22  1  0  0  0  0
 16 26  2  0  0  0  0
 17 19  1  0  0  0  0
 17 31  1  0  0  0  0
 18 24  1  0  0  0  0
 18 28  1  0  0  0  0
 20 23  1  0  0  0  0
 20 27  1  0  0  0  0
 22 30  2  0  0  0  0
 24 25  2  0  0  0  0
 25 27  1  0  0  0  0
 26 29  1  0  0  0  0
 26 30  1  0  0  0  0
 27 28  2  0  0  0  0
 28 30  1  0  0  0  0
 29 56  1  6  0  0  0
M  CHG  1  30   1
M  END
$$$$
