K1T
 OpenBabel04111918193D

 54 55  0  0  1  0  0  0  0  0999 V2000
   68.8952   48.4981   -0.0158 C   0  0  0  0  0  0  0  0  0  0  0  0
   69.3600   49.2145    1.2373 C   0  0  0  0  0  0  0  0  0  0  0  0
   69.8268   48.1970    2.2612 C   0  0  0  0  0  0  0  0  0  0  0  0
   70.5187   50.1597    0.9441 C   0  0  0  0  0  0  0  0  0  0  0  0
   70.2560   51.1859   -0.1572 C   0  0  1  0  0  0  0  0  0  0  0  0
   69.0505   52.0523    0.2095 C   0  0  0  0  0  0  0  0  0  0  0  0
   68.6195   53.0098   -0.8604 C   0  0  0  0  0  0  0  0  0  0  0  0
   68.3931   54.3800   -0.6141 C   0  0  0  0  0  0  0  0  0  0  0  0
   67.9430   55.1371   -1.6766 C   0  0  0  0  0  0  0  0  0  0  0  0
   67.7323   54.5990   -2.9228 C   0  0  0  0  0  0  0  0  0  0  0  0
   67.9501   53.2760   -3.1897 C   0  0  0  0  0  0  0  0  0  0  0  0
   68.3828   52.4801   -2.1502 C   0  0  0  0  0  0  0  0  0  0  0  0
   67.2788   55.5206   -3.8143 O   0  0  0  0  0  0  0  0  0  0  0  0
   66.9940   56.6001   -2.9128 C   0  0  0  0  0  0  0  0  0  0  0  0
   67.6618   56.4660   -1.6540 O   0  0  0  0  0  0  0  0  0  0  0  0
   68.5904   55.0686    0.6994 C   0  0  0  0  0  0  0  0  0  0  0  0
   67.6553   55.7762    1.1439 O   0  0  0  0  0  0  0  0  0  0  0  0
   69.7233   54.8270    1.2886 O   0  0  0  0  0  0  0  0  0  0  0  0
   71.4882   52.0575   -0.3146 C   0  0  0  0  0  0  0  0  0  0  0  0
   71.7493   52.8554    0.8643 N   0  0  0  0  0  0  0  0  0  0  0  0
   72.8710   52.6989    1.6000 C   0  0  0  0  0  0  0  0  0  0  0  0
   73.6441   51.7340    1.5120 O   0  0  0  0  0  0  0  0  0  0  0  0
   73.1228   53.7817    2.5788 C   0  0  0  0  0  0  0  0  0  0  0  0
   72.7544   53.3278    3.9684 C   0  0  0  0  0  0  0  0  0  0  0  0
   73.1818   54.4079    4.9239 C   0  0  0  0  0  0  0  0  0  0  0  0
   72.7404   54.0432    6.2848 N   0  3  0  0  0  0  0  0  0  0  0  0
   68.0680   47.8260    0.2205 H   0  0  0  0  0  0  0  0  0  0  0  0
   69.7166   47.9161   -0.4453 H   0  0  0  0  0  0  0  0  0  0  0  0
   68.5462   49.2148   -0.7620 H   0  0  0  0  0  0  0  0  0  0  0  0
   68.5192   49.7756    1.6604 H   0  0  0  0  0  0  0  0  0  0  0  0
   70.1669   48.7045    3.1680 H   0  0  0  0  0  0  0  0  0  0  0  0
   70.6597   47.6110    1.8567 H   0  0  0  0  0  0  0  0  0  0  0  0
   69.0120   47.5173    2.5177 H   0  0  0  0  0  0  0  0  0  0  0  0
   71.3967   49.5666    0.6601 H   0  0  0  0  0  0  0  0  0  0  0  0
   70.7542   50.6955    1.8706 H   0  0  0  0  0  0  0  0  0  0  0  0
   70.0868   50.6588   -1.1027 H   0  0  0  0  0  0  0  0  0  0  0  0
   69.2881   52.5928    1.1194 H   0  0  0  0  0  0  0  0  0  0  0  0
   68.2026   51.4083    0.4311 H   0  0  0  0  0  0  0  0  0  0  0  0
   67.7764   52.8561   -4.1731 H   0  0  0  0  0  0  0  0  0  0  0  0
   68.5488   51.4196   -2.3206 H   0  0  0  0  0  0  0  0  0  0  0  0
   65.9119   56.6278   -2.7307 H   0  0  0  0  0  0  0  0  0  0  0  0
   67.3080   57.5427   -3.3704 H   0  0  0  0  0  0  0  0  0  0  0  0
   71.3660   52.7336   -1.1619 H   0  0  0  0  0  0  0  0  0  0  0  0
   72.3619   51.4215   -0.5045 H   0  0  0  0  0  0  0  0  0  0  0  0
   71.0407   53.5690    1.1380 H   0  0  0  0  0  0  0  0  0  0  0  0
   72.5378   54.6689    2.3066 H   0  0  0  0  0  0  0  0  0  0  0  0
   74.1851   54.0536    2.5357 H   0  0  0  0  0  0  0  0  0  0  0  0
   73.2643   52.3850    4.2072 H   0  0  0  0  0  0  0  0  0  0  0  0
   71.6734   53.1596    4.0328 H   0  0  0  0  0  0  0  0  0  0  0  0
   72.7248   55.3675    4.6718 H   0  0  0  0  0  0  0  0  0  0  0  0
   74.2711   54.5057    4.9479 H   0  0  0  0  0  0  0  0  0  0  0  0
   73.0101   54.7617    6.9668 H   0  0  0  0  0  0  0  0  0  0  0  0
   71.7114   53.9499    6.3157 H   0  0  0  0  0  0  0  0  0  0  0  0
   73.1479   53.1462    6.5777 H   0  0  0  0  0  0  0  0  0  0  0  0
  1  2  1  0  0  0  0
  1 27  1  0  0  0  0
  1 28  1  0  0  0  0
  1 29  1  0  0  0  0
  2  3  1  0  0  0  0
  2  4  1  0  0  0  0
  2 30  1  0  0  0  0
  3 31  1  0  0  0  0
  3 32  1  0  0  0  0
  3 33  1  0  0  0  0
  4  5  1  0  0  0  0
  4 34  1  0  0  0  0
  4 35  1  0  0  0  0
  5  6  1  0  0  0  0
  5 19  1  0  0  0  0
  5 36  1  6  0  0  0
  6  7  1  0  0  0  0
  6 37  1  0  0  0  0
  6 38  1  0  0  0  0
  7  8  2  0  0  0  0
  7 12  1  0  0  0  0
  8  9  1  0  0  0  0
  8 16  1  0  0  0  0
  9 10  2  0  0  0  0
  9 15  1  0  0  0  0
 10 11  1  0  0  0  0
 10 13  1  0  0  0  0
 11 12  2  0  0  0  0
 11 39  1  0  0  0  0
 12 40  1  0  0  0  0
 13 14  1  0  0  0  0
 14 15  1  0  0  0  0
 14 41  1  0  0  0  0
 14 42  1  0  0  0  0
 16 17  2  0  0  0  0
 16 18  1  0  0  0  0
 19 20  1  0  0  0  0
 19 43  1  0  0  0  0
 19 44  1  0  0  0  0
 20 21  1  0  0  0  0
 20 45  1  0  0  0  0
 21 22  2  0  0  0  0
 21 23  1  0  0  0  0
 23 24  1  0  0  0  0
 23 46  1  0  0  0  0
 23 47  1  0  0  0  0
 24 25  1  0  0  0  0
 24 48  1  0  0  0  0
 24 49  1  0  0  0  0
 25 26  1  0  0  0  0
 25 50  1  0  0  0  0
 25 51  1  0  0  0  0
 26 52  1  0  0  0  0
 26 53  1  0  0  0  0
 26 54  1  0  0  0  0
M  CHG  1  26   1
M  END
$$$$
