K9S
 OpenBabel04111917383D

 21 22  0  0  0  0  0  0  0  0999 V2000
    1.2784  -15.3780   15.7667 C   0  0  0  0  0  0  0  0  0  0  0  0
    1.9581  -16.1970   18.4560 N   0  3  0  0  0  0  0  0  0  0  0  0
    1.1171  -14.6341   14.2381 S   0  0  0  0  0  0  0  0  0  0  0  0
    1.7974  -13.1494   14.7916 C   0  0  0  0  0  0  0  0  0  0  0  0
    2.1347  -13.2358   16.1486 C   0  0  0  0  0  0  0  0  0  0  0  0
    1.8439  -14.5240   16.6914 C   0  0  0  0  0  0  0  0  0  0  0  0
    2.0223  -11.9406   14.0776 C   0  0  0  0  0  0  0  0  0  0  0  0
    2.5810  -10.8515   14.7313 C   0  0  0  0  0  0  0  0  0  0  0  0
    2.1415  -14.7798   18.1124 C   0  0  0  0  0  0  0  0  0  0  0  0
    2.9146  -10.9355   16.0771 C   0  0  0  0  0  0  0  0  0  0  0  0
    2.7088  -12.1203   16.7790 C   0  0  0  0  0  0  0  0  0  0  0  0
    0.9477  -16.4015   15.9315 H   0  0  0  0  0  0  0  0  0  0  0  0
    2.1575  -16.3590   19.4431 H   0  0  0  0  0  0  0  0  0  0  0  0
    0.9870  -16.4707   18.2566 H   0  0  0  0  0  0  0  0  0  0  0  0
    1.7679  -11.8707   13.0161 H   0  0  0  0  0  0  0  0  0  0  0  0
    2.7640   -9.9277   14.2063 H   0  0  0  0  0  0  0  0  0  0  0  0
    3.1761  -14.5286   18.3529 H   0  0  0  0  0  0  0  0  0  0  0  0
    1.4689  -14.1997   18.7489 H   0  0  0  0  0  0  0  0  0  0  0  0
    3.3365  -10.0674   16.5781 H   0  0  0  0  0  0  0  0  0  0  0  0
    2.9784  -12.1866   17.8388 H   0  0  0  0  0  0  0  0  0  0  0  0
    2.5873  -16.7692   17.8777 H   0  0  0  0  0  0  0  0  0  0  0  0
  1  3  1  0  0  0  0
  1  6  2  0  0  0  0
  1 12  1  0  0  0  0
  2  9  1  0  0  0  0
  2 13  1  0  0  0  0
  2 14  1  0  0  0  0
  2 21  1  0  0  0  0
  3  4  1  0  0  0  0
  4  5  2  0  0  0  0
  4  7  1  0  0  0  0
  5  6  1  0  0  0  0
  5 11  1  0  0  0  0
  6  9  1  0  0  0  0
  7  8  2  0  0  0  0
  7 15  1  0  0  0  0
  8 10  1  0  0  0  0
  8 16  1  0  0  0  0
  9 17  1  0  0  0  0
  9 18  1  0  0  0  0
 10 11  2  0  0  0  0
 10 19  1  0  0  0  0
 11 20  1  0  0  0  0
M  CHG  1   2   1
M  END
$$$$
