K9Y
 OpenBabel04111919473D

 63 67  0  0  0  0  0  0  0  0999 V2000
  -28.9704  -30.9056    9.2123 C   0  0  0  0  0  0  0  0  0  0  0  0
  -28.3654  -30.7133    8.0253 N   0  0  0  0  0  0  0  0  0  0  0  0
  -27.9938  -31.8884    7.4746 C   0  0  0  0  0  0  0  0  0  0  0  0
  -28.1565  -33.1490    8.0315 C   0  0  0  0  0  0  0  0  0  0  0  0
  -28.8015  -33.2198    9.2776 C   0  0  0  0  0  0  0  0  0  0  0  0
  -29.2137  -32.0679    9.8566 N   0  0  0  0  0  0  0  0  0  0  0  0
  -27.6050  -34.1355    7.2347 N   0  0  0  0  0  0  0  0  0  0  0  0
  -27.2708  -32.1110    6.3272 N   0  3  0  0  0  0  0  0  0  0  0  0
  -27.0621  -33.4728    6.2305 C   0  0  0  0  0  0  0  0  0  0  0  0
  -26.5420  -29.0269    4.3684 C   0  0  0  0  0  0  0  0  0  0  0  0
  -25.1638  -29.1912    4.1863 C   0  0  0  0  0  0  0  0  0  0  0  0
  -24.5347  -30.3359    4.6628 C   0  0  0  0  0  0  0  0  0  0  0  0
  -25.2567  -31.3138    5.3300 C   0  0  0  0  0  0  0  0  0  0  0  0
  -26.6199  -31.1312    5.5419 C   0  0  0  0  0  0  0  0  0  0  0  0
  -27.2765  -29.9924    5.0721 C   0  0  0  0  0  0  0  0  0  0  0  0
  -20.7407  -25.7334    1.9380 N   0  3  0  0  0  0  0  0  0  0  0  0
  -21.3113  -26.9179    2.3623 C   0  0  0  0  0  0  0  0  0  0  0  0
  -20.2985  -27.8484    2.3933 C   0  0  0  0  0  0  0  0  0  0  0  0
  -19.1375  -27.1710    1.9840 C   0  0  0  0  0  0  0  0  0  0  0  0
  -19.4149  -25.8963    1.6618 N   0  0  0  0  0  0  0  0  0  0  0  0
  -17.7693  -27.8041    1.7700 C   0  0  0  0  0  0  0  0  0  0  0  0
  -21.4028  -24.4920    1.7105 C   0  0  0  0  0  0  0  0  0  0  0  0
  -21.0283  -23.7476    0.5873 C   0  0  0  0  0  0  0  0  0  0  0  0
  -21.6706  -22.5415    0.3066 C   0  0  0  0  0  0  0  0  0  0  0  0
  -22.6956  -22.0659    1.1271 C   0  0  0  0  0  0  0  0  0  0  0  0
  -23.0771  -22.8143    2.2531 C   0  0  0  0  0  0  0  0  0  0  0  0
  -22.4246  -24.0221    2.5491 C   0  0  0  0  0  0  0  0  0  0  0  0
  -23.3761  -20.7704    0.7967 C   0  0  0  0  0  0  0  0  0  0  0  0
  -22.6631  -27.1160    2.5755 N   0  0  0  0  0  0  0  0  0  0  0  0
  -23.0787  -28.1090    3.4342 C   0  0  0  0  0  0  0  0  0  0  0  0
  -22.3013  -28.8003    4.0912 O   0  0  0  0  0  0  0  0  0  0  0  0
  -24.4548  -28.2028    3.4811 N   0  0  0  0  0  0  0  0  0  0  0  0
  -17.8491  -28.8137    0.6141 C   0  0  0  0  0  0  0  0  0  0  0  0
  -16.7231  -26.7500    1.3888 C   0  0  0  0  0  0  0  0  0  0  0  0
  -17.2640  -28.5712    3.0084 C   0  0  0  0  0  0  0  0  0  0  0  0
  -29.0172  -34.4091    9.9390 N   0  0  0  0  0  0  0  0  0  0  0  0
  -29.3211  -30.0076    9.7164 H   0  0  0  0  0  0  0  0  0  0  0  0
  -26.5219  -33.9228    5.4148 H   0  0  0  0  0  0  0  0  0  0  0  0
  -27.0512  -28.1461    3.9957 H   0  0  0  0  0  0  0  0  0  0  0  0
  -23.4786  -30.5220    4.5250 H   0  0  0  0  0  0  0  0  0  0  0  0
  -24.7190  -32.1620    5.7388 H   0  0  0  0  0  0  0  0  0  0  0  0
  -28.3461  -29.8498    5.2122 H   0  0  0  0  0  0  0  0  0  0  0  0
  -20.3981  -28.9052    2.5877 H   0  0  0  0  0  0  0  0  0  0  0  0
  -20.2782  -24.1287   -0.1000 H   0  0  0  0  0  0  0  0  0  0  0  0
  -21.3623  -21.9744   -0.5700 H   0  0  0  0  0  0  0  0  0  0  0  0
  -23.8634  -22.4472    2.9089 H   0  0  0  0  0  0  0  0  0  0  0  0
  -22.6902  -24.5445    3.4679 H   0  0  0  0  0  0  0  0  0  0  0  0
  -22.9483  -20.3296   -0.1103 H   0  0  0  0  0  0  0  0  0  0  0  0
  -23.2526  -20.0496    1.6099 H   0  0  0  0  0  0  0  0  0  0  0  0
  -24.4412  -20.9409    0.6139 H   0  0  0  0  0  0  0  0  0  0  0  0
  -23.3278  -26.4730    2.1687 H   0  0  0  0  0  0  0  0  0  0  0  0
  -24.9971  -27.5182    2.9797 H   0  0  0  0  0  0  0  0  0  0  0  0
  -16.8802  -29.2987    0.4472 H   0  0  0  0  0  0  0  0  0  0  0  0
  -18.1440  -28.3111   -0.3132 H   0  0  0  0  0  0  0  0  0  0  0  0
  -18.5841  -29.6008    0.8230 H   0  0  0  0  0  0  0  0  0  0  0  0
  -16.6104  -26.0037    2.1856 H   0  0  0  0  0  0  0  0  0  0  0  0
  -17.0336  -26.2240    0.4741 H   0  0  0  0  0  0  0  0  0  0  0  0
  -15.7510  -27.2010    1.2002 H   0  0  0  0  0  0  0  0  0  0  0  0
  -17.9665  -29.3569    3.3157 H   0  0  0  0  0  0  0  0  0  0  0  0
  -17.1082  -27.9059    3.8639 H   0  0  0  0  0  0  0  0  0  0  0  0
  -16.3071  -29.0684    2.7984 H   0  0  0  0  0  0  0  0  0  0  0  0
  -29.4751  -34.3913   10.8353 H   0  0  0  0  0  0  0  0  0  0  0  0
  -28.6259  -35.2597    9.5549 H   0  0  0  0  0  0  0  0  0  0  0  0
  1  2  2  0  0  0  0
  1  6  1  0  0  0  0
  1 37  1  0  0  0  0
  2  3  1  0  0  0  0
  3  4  2  0  0  0  0
  3  8  1  0  0  0  0
  4  5  1  0  0  0  0
  4  7  1  0  0  0  0
  5  6  2  0  0  0  0
  5 36  1  0  0  0  0
  7  9  1  0  0  0  0
  8  9  2  0  0  0  0
  8 14  1  0  0  0  0
  9 38  1  0  0  0  0
 10 11  2  0  0  0  0
 10 15  1  0  0  0  0
 10 39  1  0  0  0  0
 11 12  1  0  0  0  0
 11 32  1  0  0  0  0
 12 13  2  0  0  0  0
 12 40  1  0  0  0  0
 13 14  1  0  0  0  0
 13 41  1  0  0  0  0
 14 15  2  0  0  0  0
 15 42  1  0  0  0  0
 16 17  2  0  0  0  0
 16 20  1  0  0  0  0
 16 22  1  0  0  0  0
 17 18  1  0  0  0  0
 17 29  1  0  0  0  0
 18 19  2  0  0  0  0
 18 43  1  0  0  0  0
 19 20  1  0  0  0  0
 19 21  1  0  0  0  0
 21 33  1  0  0  0  0
 21 34  1  0  0  0  0
 21 35  1  0  0  0  0
 22 23  2  0  0  0  0
 22 27  1  0  0  0  0
 23 24  1  0  0  0  0
 23 44  1  0  0  0  0
 24 25  2  0  0  0  0
 24 45  1  0  0  0  0
 25 26  1  0  0  0  0
 25 28  1  0  0  0  0
 26 27  2  0  0  0  0
 26 46  1  0  0  0  0
 27 47  1  0  0  0  0
 28 48  1  0  0  0  0
 28 49  1  0  0  0  0
 28 50  1  0  0  0  0
 29 30  1  0  0  0  0
 29 51  1  0  0  0  0
 30 31  2  0  0  0  0
 30 32  1  0  0  0  0
 32 52  1  0  0  0  0
 33 53  1  0  0  0  0
 33 54  1  0  0  0  0
 33 55  1  0  0  0  0
 34 56  1  0  0  0  0
 34 57  1  0  0  0  0
 34 58  1  0  0  0  0
 35 59  1  0  0  0  0
 35 60  1  0  0  0  0
 35 61  1  0  0  0  0
 36 62  1  0  0  0  0
 36 63  1  0  0  0  0
M  CHG  2   8   1  16   1
M  END
$$$$
