KAI
 OpenBabel04111918503D

 29 29  0  0  1  0  0  0  0  0999 V2000
    2.7128   23.7811   13.8379 N   0  3  0  0  0  0  0  0  0  0  0  0
    2.5940   22.4972   14.5807 C   0  0  0  0  0  0  0  0  0  0  0  0
    1.4119   20.8835   16.8189 C   0  0  0  0  0  0  0  0  0  0  0  0
    2.4209   22.3172   18.5412 C   0  0  0  0  0  0  0  0  0  0  0  0
    3.0273   24.8955   14.8785 C   0  0  1  0  0  0  0  0  0  0  0  0
    2.4379   24.3133   16.1636 C   0  0  1  0  0  0  0  0  0  0  0  0
    0.9025   24.4729   16.2384 C   0  0  0  0  0  0  0  0  0  0  0  0
    2.8536   22.8242   16.0620 C   0  0  1  0  0  0  0  0  0  0  0  0
    0.3669   25.8523   16.6026 C   0  0  0  0  0  0  0  0  0  0  0  0
    2.1997   21.9349   17.0969 C   0  0  0  0  0  0  0  0  0  0  0  0
    4.5829   25.1520   14.9044 C   0  0  0  0  0  0  0  0  0  0  0  0
    5.1308   24.5510   13.9087 O   0  0  0  0  0  0  0  0  0  0  0  0
   -0.8791   25.9745   16.4316 O   0  0  0  0  0  0  0  0  0  0  0  0
    1.2146   26.6862   17.0074 O   0  0  0  0  0  0  0  0  0  0  0  0
    5.0829   25.7906   15.8405 O   0  0  0  0  0  0  0  0  0  0  0  0
    3.5822   23.8014   13.2576 H   0  0  0  0  0  0  0  0  0  0  0  0
    3.3240   21.7906   14.1705 H   0  0  0  0  0  0  0  0  0  0  0  0
    1.5845   22.1351   14.3769 H   0  0  0  0  0  0  0  0  0  0  0  0
    0.9145   20.3197   17.6080 H   0  0  0  0  0  0  0  0  0  0  0  0
    1.1816   20.5466   15.8021 H   0  0  0  0  0  0  0  0  0  0  0  0
    1.8420   21.6939   19.2255 H   0  0  0  0  0  0  0  0  0  0  0  0
    2.1183   23.3523   18.7292 H   0  0  0  0  0  0  0  0  0  0  0  0
    3.4768   22.2131   18.8042 H   0  0  0  0  0  0  0  0  0  0  0  0
    2.5269   25.7986   14.5091 H   0  0  0  0  0  0  0  0  0  0  0  0
    2.9054   24.7766   17.0350 H   0  0  0  0  0  0  0  0  0  0  0  0
    0.5004   23.8261   17.0256 H   0  0  0  0  0  0  0  0  0  0  0  0
    0.4220   24.1563   15.3040 H   0  0  0  0  0  0  0  0  0  0  0  0
    3.9430   22.7574   16.2241 H   0  0  0  0  0  0  0  0  0  0  0  0
    1.8928   24.0376   13.2909 H   0  0  0  0  0  0  0  0  0  0  0  0
  1  2  1  0  0  0  0
  1  5  1  0  0  0  0
  1 16  1  0  0  0  0
  1 29  1  0  0  0  0
  2  8  1  0  0  0  0
  2 17  1  0  0  0  0
  2 18  1  0  0  0  0
  3 10  2  0  0  0  0
  3 19  1  0  0  0  0
  3 20  1  0  0  0  0
  4 10  1  0  0  0  0
  4 21  1  0  0  0  0
  4 22  1  0  0  0  0
  4 23  1  0  0  0  0
  5  6  1  0  0  0  0
  5 11  1  0  0  0  0
  5 24  1  6  0  0  0
  6  7  1  0  0  0  0
  6  8  1  0  0  0  0
  6 25  1  1  0  0  0
  7  9  1  0  0  0  0
  7 26  1  0  0  0  0
  7 27  1  0  0  0  0
  8 10  1  0  0  0  0
  8 28  1  1  0  0  0
  9 13  2  0  0  0  0
  9 14  1  0  0  0  0
 11 12  2  0  0  0  0
 11 15  1  0  0  0  0
M  CHG  1   1   1
M  END
$$$$
