KAI
 OpenBabel04111918403D

 29 29  0  0  1  0  0  0  0  0999 V2000
   -0.9658   33.9333  105.1045 N   0  3  0  0  0  0  0  0  0  0  0  0
   -0.2796   33.4815  103.8731 C   0  0  0  0  0  0  0  0  0  0  0  0
   -0.8909   34.9189  100.2733 C   0  0  0  0  0  0  0  0  0  0  0  0
    1.0923   33.8714  101.3286 C   0  0  0  0  0  0  0  0  0  0  0  0
   -2.0441   35.0040  104.6850 C   0  0  1  0  0  0  0  0  0  0  0  0
   -1.5404   35.4595  103.3124 C   0  0  1  0  0  0  0  0  0  0  0  0
   -0.4527   36.5472  103.4093 C   0  0  0  0  0  0  0  0  0  0  0  0
   -1.0085   34.1442  102.7042 C   0  0  1  0  0  0  0  0  0  0  0  0
   -0.9325   37.9800  103.7012 C   0  0  0  0  0  0  0  0  0  0  0  0
   -0.1806   34.2771  101.4369 C   0  0  0  0  0  0  0  0  0  0  0  0
   -3.4922   34.3860  104.6933 C   0  0  0  0  0  0  0  0  0  0  0  0
   -3.4905   33.2239  105.2485 O   0  0  0  0  0  0  0  0  0  0  0  0
    0.0029   38.7612  104.0709 O   0  0  0  0  0  0  0  0  0  0  0  0
   -2.1550   38.2012  103.5736 O   0  0  0  0  0  0  0  0  0  0  0  0
   -4.4050   35.0251  104.1574 O   0  0  0  0  0  0  0  0  0  0  0  0
   -1.5157   33.1610  105.5332 H   0  0  0  0  0  0  0  0  0  0  0  0
   -0.3152   32.3887  103.8206 H   0  0  0  0  0  0  0  0  0  0  0  0
    0.7607   33.8082  103.9663 H   0  0  0  0  0  0  0  0  0  0  0  0
   -0.2298   34.9821   99.4023 H   0  0  0  0  0  0  0  0  0  0  0  0
   -1.2131   35.9330  100.5292 H   0  0  0  0  0  0  0  0  0  0  0  0
   -1.7716   34.3308   99.9965 H   0  0  0  0  0  0  0  0  0  0  0  0
    1.6188   33.4151  102.1586 H   0  0  0  0  0  0  0  0  0  0  0  0
    1.6472   34.0044  100.4070 H   0  0  0  0  0  0  0  0  0  0  0  0
   -2.0045   35.8161  105.4231 H   0  0  0  0  0  0  0  0  0  0  0  0
   -2.3702   35.8413  102.7153 H   0  0  0  0  0  0  0  0  0  0  0  0
    0.0877   36.5984  102.4552 H   0  0  0  0  0  0  0  0  0  0  0  0
    0.2717   36.2742  104.1864 H   0  0  0  0  0  0  0  0  0  0  0  0
   -1.8636   33.5056  102.4505 H   0  0  0  0  0  0  0  0  0  0  0  0
   -0.3435   34.3366  105.7936 H   0  0  0  0  0  0  0  0  0  0  0  0
  1  2  1  0  0  0  0
  1  5  1  0  0  0  0
  1 16  1  0  0  0  0
  1 29  1  0  0  0  0
  2  8  1  0  0  0  0
  2 17  1  0  0  0  0
  2 18  1  0  0  0  0
  3 10  1  0  0  0  0
  3 19  1  0  0  0  0
  3 20  1  0  0  0  0
  3 21  1  0  0  0  0
  4 10  2  0  0  0  0
  4 22  1  0  0  0  0
  4 23  1  0  0  0  0
  5  6  1  0  0  0  0
  5 11  1  0  0  0  0
  5 24  1  1  0  0  0
  6  7  1  0  0  0  0
  6  8  1  0  0  0  0
  6 25  1  6  0  0  0
  7  9  1  0  0  0  0
  7 26  1  0  0  0  0
  7 27  1  0  0  0  0
  8 10  1  0  0  0  0
  8 28  1  6  0  0  0
  9 13  2  0  0  0  0
  9 14  1  0  0  0  0
 11 12  2  0  0  0  0
 11 15  1  0  0  0  0
M  CHG  1   1   1
M  END
$$$$
