KAO
 OpenBabel04111919473D

 59 62  0  0  0  0  0  0  0  0999 V2000
    4.6667  -13.0690   15.8734 N   0  3  0  0  0  0  0  0  0  0  0  0
    3.8067  -11.9811   15.7991 C   0  0  0  0  0  0  0  0  0  0  0  0
    3.0724  -12.1744   14.6517 C   0  0  0  0  0  0  0  0  0  0  0  0
    3.5267  -13.3894   14.0968 C   0  0  0  0  0  0  0  0  0  0  0  0
    4.5578  -13.8783   14.7946 N   0  0  0  0  0  0  0  0  0  0  0  0
    3.8275  -10.9024   16.6759 N   0  0  0  0  0  0  0  0  0  0  0  0
    2.7859   -9.9928   16.7182 C   0  0  0  0  0  0  0  0  0  0  0  0
    3.0317  -14.0796   12.8407 C   0  0  0  0  0  0  0  0  0  0  0  0
    1.4915  -14.0280   12.7673 C   0  0  0  0  0  0  0  0  0  0  0  0
    3.6105  -13.3755   11.6019 C   0  0  0  0  0  0  0  0  0  0  0  0
    3.4580  -15.5622   12.8109 C   0  0  0  0  0  0  0  0  0  0  0  0
    5.5812  -13.3983   16.8975 C   0  0  0  0  0  0  0  0  0  0  0  0
    6.8589  -13.8371   16.5375 C   0  0  0  0  0  0  0  0  0  0  0  0
    7.7787  -14.1743   17.5287 C   0  0  0  0  0  0  0  0  0  0  0  0
    7.4143  -14.1221   18.8796 C   0  0  0  0  0  0  0  0  0  0  0  0
    6.1193  -13.7091   19.2283 C   0  0  0  0  0  0  0  0  0  0  0  0
    5.2035  -13.3311   18.2424 C   0  0  0  0  0  0  0  0  0  0  0  0
    8.3891  -14.5277   19.9460 C   0  0  0  0  0  0  0  0  0  0  0  0
    1.7018  -10.1519   16.1655 O   0  0  0  0  0  0  0  0  0  0  0  0
    3.1040   -8.8875   17.4924 N   0  0  0  0  0  0  0  0  0  0  0  0
    2.2032   -7.8298   17.6892 C   0  0  0  0  0  0  0  0  0  0  0  0
    2.0263   -7.3010   18.9617 C   0  0  0  0  0  0  0  0  0  0  0  0
    1.1165   -6.2556   19.1601 C   0  0  0  0  0  0  0  0  0  0  0  0
    0.3892   -5.6889   18.0965 C   0  0  0  0  0  0  0  0  0  0  0  0
    0.6229   -6.2229   16.8147 C   0  0  0  0  0  0  0  0  0  0  0  0
    1.5042   -7.2857   16.6145 C   0  0  0  0  0  0  0  0  0  0  0  0
   -0.6001   -4.6061   18.3126 C   0  0  0  0  0  0  0  0  0  0  0  0
   -1.2098   -4.3829   19.5585 C   0  0  0  0  0  0  0  0  0  0  0  0
   -2.1689   -3.3738   19.7144 C   0  0  0  0  0  0  0  0  0  0  0  0
   -2.5321   -2.6252   18.6140 C   0  0  0  0  0  0  0  0  0  0  0  0
   -1.9674   -2.7772   17.3953 N   0  0  0  0  0  0  0  0  0  0  0  0
   -1.0223   -3.7595   17.2841 C   0  0  0  0  0  0  0  0  0  0  0  0
    2.3277  -11.5063   14.2392 H   0  0  0  0  0  0  0  0  0  0  0  0
    4.5731  -10.8379   17.3494 H   0  0  0  0  0  0  0  0  0  0  0  0
    1.1201  -14.5219   11.8626 H   0  0  0  0  0  0  0  0  0  0  0  0
    1.1215  -12.9963   12.7489 H   0  0  0  0  0  0  0  0  0  0  0  0
    1.0373  -14.5239   13.6334 H   0  0  0  0  0  0  0  0  0  0  0  0
    4.7064  -13.3999   11.6096 H   0  0  0  0  0  0  0  0  0  0  0  0
    3.3056  -12.3232   11.5626 H   0  0  0  0  0  0  0  0  0  0  0  0
    3.2695  -13.8561   10.6782 H   0  0  0  0  0  0  0  0  0  0  0  0
    3.0618  -16.1042   13.6782 H   0  0  0  0  0  0  0  0  0  0  0  0
    4.5497  -15.6648   12.8284 H   0  0  0  0  0  0  0  0  0  0  0  0
    3.0966  -16.0640   11.9070 H   0  0  0  0  0  0  0  0  0  0  0  0
    7.1534  -13.8850   15.4904 H   0  0  0  0  0  0  0  0  0  0  0  0
    8.7787  -14.4870   17.2363 H   0  0  0  0  0  0  0  0  0  0  0  0
    5.8132  -13.7035   20.2726 H   0  0  0  0  0  0  0  0  0  0  0  0
    4.1880  -13.0698   18.5316 H   0  0  0  0  0  0  0  0  0  0  0  0
    9.3567  -14.8089   19.5166 H   0  0  0  0  0  0  0  0  0  0  0  0
    8.0057  -15.3901   20.5004 H   0  0  0  0  0  0  0  0  0  0  0  0
    8.5588  -13.6971   20.6381 H   0  0  0  0  0  0  0  0  0  0  0  0
    3.8821   -8.9606   18.1314 H   0  0  0  0  0  0  0  0  0  0  0  0
    2.5311   -7.7284   19.8232 H   0  0  0  0  0  0  0  0  0  0  0  0
    0.9830   -5.8971   20.1783 H   0  0  0  0  0  0  0  0  0  0  0  0
    0.1099   -5.8420   15.9349 H   0  0  0  0  0  0  0  0  0  0  0  0
    1.6578   -7.6613   15.6060 H   0  0  0  0  0  0  0  0  0  0  0  0
   -0.9753   -4.9995   20.4193 H   0  0  0  0  0  0  0  0  0  0  0  0
   -2.6460   -3.2217   20.6822 H   0  0  0  0  0  0  0  0  0  0  0  0
   -3.2734   -1.8375   18.6918 H   0  0  0  0  0  0  0  0  0  0  0  0
   -0.6231   -3.8337   16.2801 H   0  0  0  0  0  0  0  0  0  0  0  0
  1  2  2  0  0  0  0
  1  5  1  0  0  0  0
  1 12  1  0  0  0  0
  2  3  1  0  0  0  0
  2  6  1  0  0  0  0
  3  4  2  0  0  0  0
  3 33  1  0  0  0  0
  4  5  1  0  0  0  0
  4  8  1  0  0  0  0
  6  7  1  0  0  0  0
  6 34  1  0  0  0  0
  7 19  2  0  0  0  0
  7 20  1  0  0  0  0
  8  9  1  0  0  0  0
  8 10  1  0  0  0  0
  8 11  1  0  0  0  0
  9 35  1  0  0  0  0
  9 36  1  0  0  0  0
  9 37  1  0  0  0  0
 10 38  1  0  0  0  0
 10 39  1  0  0  0  0
 10 40  1  0  0  0  0
 11 41  1  0  0  0  0
 11 42  1  0  0  0  0
 11 43  1  0  0  0  0
 12 13  2  0  0  0  0
 12 17  1  0  0  0  0
 13 14  1  0  0  0  0
 13 44  1  0  0  0  0
 14 15  2  0  0  0  0
 14 45  1  0  0  0  0
 15 16  1  0  0  0  0
 15 18  1  0  0  0  0
 16 17  2  0  0  0  0
 16 46  1  0  0  0  0
 17 47  1  0  0  0  0
 18 48  1  0  0  0  0
 18 49  1  0  0  0  0
 18 50  1  0  0  0  0
 20 21  1  0  0  0  0
 20 51  1  0  0  0  0
 21 22  2  0  0  0  0
 21 26  1  0  0  0  0
 22 23  1  0  0  0  0
 22 52  1  0  0  0  0
 23 24  2  0  0  0  0
 23 53  1  0  0  0  0
 24 25  1  0  0  0  0
 24 27  1  0  0  0  0
 25 26  2  0  0  0  0
 25 54  1  0  0  0  0
 26 55  1  0  0  0  0
 27 28  2  0  0  0  0
 27 32  1  0  0  0  0
 28 29  1  0  0  0  0
 28 56  1  0  0  0  0
 29 30  2  0  0  0  0
 29 57  1  0  0  0  0
 30 31  1  0  0  0  0
 30 58  1  0  0  0  0
 31 32  2  0  0  0  0
 32 59  1  0  0  0  0
M  CHG  1   1   1
M  END
$$$$
