KFQ
 OpenBabel04111919493D

 20 22  0  0  0  0  0  0  0  0999 V2000
   26.2912   35.7921   49.8556 O   0  0  0  0  0  0  0  0  0  0  0  0
   26.5230   35.3410   48.7332 C   0  0  0  0  0  0  0  0  0  0  0  0
   26.6279   33.9541   48.3769 C   0  0  0  0  0  0  0  0  0  0  0  0
   26.4931   32.9411   49.1996 N   0  0  0  0  0  0  0  0  0  0  0  0
   26.6650   31.8006   48.4560 N   0  0  0  0  0  0  0  0  0  0  0  0
   26.9004   32.1266   47.1951 C   0  0  0  0  0  0  0  0  0  0  0  0
   27.1574   30.9669   45.9771 S   0  0  0  0  0  0  0  0  0  0  0  0
   26.8891   33.5171   47.0958 N   0  3  0  0  0  0  0  0  0  0  0  0
   27.0766   34.4494   46.0377 C   0  0  0  0  0  0  0  0  0  0  0  0
   27.3471   34.0891   44.7169 C   0  0  0  0  0  0  0  0  0  0  0  0
   27.5218   35.0710   43.7381 C   0  0  0  0  0  0  0  0  0  0  0  0
   27.4256   36.4192   44.0708 C   0  0  0  0  0  0  0  0  0  0  0  0
   27.1519   36.7937   45.3863 C   0  0  0  0  0  0  0  0  0  0  0  0
   26.9788   35.8136   46.3685 C   0  0  0  0  0  0  0  0  0  0  0  0
   26.7071   36.2213   47.6838 N   0  3  0  0  0  0  0  0  0  0  0  0
   27.4307   33.0543   44.4050 H   0  0  0  0  0  0  0  0  0  0  0  0
   27.7332   34.7675   42.7146 H   0  0  0  0  0  0  0  0  0  0  0  0
   27.5635   37.1746   43.3029 H   0  0  0  0  0  0  0  0  0  0  0  0
   27.0771   37.8481   45.6305 H   0  0  0  0  0  0  0  0  0  0  0  0
   26.6353   37.2009   47.9198 H   0  0  0  0  0  0  0  0  0  0  0  0
  1  2  2  0  0  0  0
  2  3  1  0  0  0  0
  2 15  1  0  0  0  0
  3  4  1  0  0  0  0
  3  8  2  0  0  0  0
  4  5  1  0  0  0  0
  5  6  2  0  0  0  0
  6  7  1  0  0  0  0
  6  8  1  0  0  0  0
  8  9  1  0  0  0  0
  9 10  2  0  0  0  0
  9 14  1  0  0  0  0
 10 11  1  0  0  0  0
 10 16  1  0  0  0  0
 11 12  2  0  0  0  0
 11 17  1  0  0  0  0
 12 13  1  0  0  0  0
 12 18  1  0  0  0  0
 13 14  2  0  0  0  0
 13 19  1  0  0  0  0
 14 15  1  0  0  0  0
 15 20  1  0  0  0  0
M  CHG  2   8   1  15   1
M  END
$$$$
