KGM
 OpenBabel04111922323D

 45 45  0  0  1  0  0  0  0  0999 V2000
  -22.2929   -4.4236  -10.6964 O   0  0  0  0  0  0  0  0  0  0  0  0
  -22.5492   -4.9034  -12.0147 C   0  0  0  0  0  0  0  0  0  0  0  0
  -21.3393   -5.6794  -12.5461 C   0  0  1  0  0  0  0  0  0  0  0  0
  -20.9596   -5.5361  -18.9762 C   0  0  0  0  0  0  0  0  0  0  0  0
  -20.2550   -4.7562  -12.7051 O   0  0  0  0  0  0  0  0  0  0  0  0
  -20.9818   -6.8448  -11.6102 C   0  0  1  0  0  0  0  0  0  0  0  0
  -22.0426   -7.8134  -11.6328 O   0  0  0  0  0  0  0  0  0  0  0  0
  -19.6804   -7.5117  -12.0712 C   0  0  2  0  0  0  0  0  0  0  0  0
  -19.2289   -8.4672  -11.0922 O   0  0  0  0  0  0  0  0  0  0  0  0
  -18.5647   -6.4782  -12.2695 C   0  0  2  0  0  0  0  0  0  0  0  0
  -18.1300   -5.9522  -11.0082 O   0  0  0  0  0  0  0  0  0  0  0  0
  -19.0545   -5.3572  -13.1938 C   0  0  1  0  0  0  0  0  0  0  0  0
  -19.2443   -5.9233  -14.4875 O   0  0  0  0  0  0  0  0  0  0  0  0
  -19.5558   -4.9405  -15.4623 C   0  0  0  0  0  0  0  0  0  0  0  0
  -20.0554   -5.6984  -16.6731 C   0  0  0  0  0  0  0  0  0  0  0  0
  -20.6539   -4.7596  -17.7059 C   0  0  0  0  0  0  0  0  0  0  0  0
  -22.1103   -4.5190  -22.4921 C   0  0  0  0  0  0  0  0  0  0  0  0
  -21.6786   -5.4223  -21.3440 C   0  0  0  0  0  0  0  0  0  0  0  0
  -21.3819   -4.6060  -20.0968 C   0  0  0  0  0  0  0  0  0  0  0  0
  -22.9835   -3.7810  -10.4798 H   0  0  0  0  0  0  0  0  0  0  0  0
  -22.7688   -4.0449  -12.6639 H   0  0  0  0  0  0  0  0  0  0  0  0
  -23.4395   -5.5377  -11.9643 H   0  0  0  0  0  0  0  0  0  0  0  0
  -21.6225   -6.0662  -13.5337 H   0  0  0  0  0  0  0  0  0  0  0  0
  -21.7508   -6.2705  -18.7767 H   0  0  0  0  0  0  0  0  0  0  0  0
  -20.0707   -6.0994  -19.2890 H   0  0  0  0  0  0  0  0  0  0  0  0
  -20.8544   -6.5111  -10.5732 H   0  0  0  0  0  0  0  0  0  0  0  0
  -22.7766   -7.4344  -11.1037 H   0  0  0  0  0  0  0  0  0  0  0  0
  -19.8713   -8.0652  -13.0005 H   0  0  0  0  0  0  0  0  0  0  0  0
  -18.5754   -9.0357  -11.5379 H   0  0  0  0  0  0  0  0  0  0  0  0
  -17.6971   -6.9782  -12.7111 H   0  0  0  0  0  0  0  0  0  0  0  0
  -18.0972   -6.7145  -10.3987 H   0  0  0  0  0  0  0  0  0  0  0  0
  -18.2909   -4.5740  -13.2436 H   0  0  0  0  0  0  0  0  0  0  0  0
  -18.6550   -4.3655  -15.7047 H   0  0  0  0  0  0  0  0  0  0  0  0
  -20.3312   -4.2557  -15.1005 H   0  0  0  0  0  0  0  0  0  0  0  0
  -20.8040   -6.4430  -16.3695 H   0  0  0  0  0  0  0  0  0  0  0  0
  -19.2236   -6.2714  -17.1022 H   0  0  0  0  0  0  0  0  0  0  0  0
  -21.5738   -4.3100  -17.3130 H   0  0  0  0  0  0  0  0  0  0  0  0
  -19.9562   -3.9407  -17.9192 H   0  0  0  0  0  0  0  0  0  0  0  0
  -22.3232   -5.1099  -23.3875 H   0  0  0  0  0  0  0  0  0  0  0  0
  -21.3249   -3.7960  -22.7396 H   0  0  0  0  0  0  0  0  0  0  0  0
  -23.0154   -3.9624  -22.2272 H   0  0  0  0  0  0  0  0  0  0  0  0
  -20.7840   -5.9822  -21.6536 H   0  0  0  0  0  0  0  0  0  0  0  0
  -22.4689   -6.1522  -21.1472 H   0  0  0  0  0  0  0  0  0  0  0  0
  -20.5805   -3.8849  -20.3072 H   0  0  0  0  0  0  0  0  0  0  0  0
  -22.2679   -4.0325  -19.8030 H   0  0  0  0  0  0  0  0  0  0  0  0
  1  2  1  0  0  0  0
  1 20  1  0  0  0  0
  2  3  1  0  0  0  0
  2 21  1  0  0  0  0
  2 22  1  0  0  0  0
  3  5  1  0  0  0  0
  3  6  1  0  0  0  0
  3 23  1  6  0  0  0
  4 16  1  0  0  0  0
  4 19  1  0  0  0  0
  4 24  1  0  0  0  0
  4 25  1  0  0  0  0
  5 12  1  0  0  0  0
  6  7  1  0  0  0  0
  6  8  1  0  0  0  0
  6 26  1  1  0  0  0
  7 27  1  0  0  0  0
  8  9  1  0  0  0  0
  8 10  1  0  0  0  0
  8 28  1  6  0  0  0
  9 29  1  0  0  0  0
 10 11  1  0  0  0  0
 10 12  1  0  0  0  0
 10 30  1  6  0  0  0
 11 31  1  0  0  0  0
 12 13  1  0  0  0  0
 12 32  1  6  0  0  0
 13 14  1  0  0  0  0
 14 15  1  0  0  0  0
 14 33  1  0  0  0  0
 14 34  1  0  0  0  0
 15 16  1  0  0  0  0
 15 35  1  0  0  0  0
 15 36  1  0  0  0  0
 16 37  1  0  0  0  0
 16 38  1  0  0  0  0
 17 18  1  0  0  0  0
 17 39  1  0  0  0  0
 17 40  1  0  0  0  0
 17 41  1  0  0  0  0
 18 19  1  0  0  0  0
 18 42  1  0  0  0  0
 18 43  1  0  0  0  0
 19 44  1  0  0  0  0
 19 45  1  0  0  0  0
M  END
$$$$
