KGM
 OpenBabel04111922333D

 45 45  0  0  1  0  0  0  0  0999 V2000
  -11.6726  -55.0842   -5.1906 O   0  0  0  0  0  0  0  0  0  0  0  0
  -11.8236  -56.3359   -5.8561 C   0  0  0  0  0  0  0  0  0  0  0  0
  -10.4681  -57.0453   -5.9878 C   0  0  1  0  0  0  0  0  0  0  0  0
  -11.0035  -60.5460  -10.5481 C   0  0  0  0  0  0  0  0  0  0  0  0
   -9.6745  -56.2935   -6.9134 O   0  0  0  0  0  0  0  0  0  0  0  0
   -9.7840  -57.2197   -4.6191 C   0  0  1  0  0  0  0  0  0  0  0  0
  -10.5257  -58.1835   -3.8490 O   0  0  0  0  0  0  0  0  0  0  0  0
   -8.3449  -57.7294   -4.7954 C   0  0  2  0  0  0  0  0  0  0  0  0
   -7.6372  -57.6854   -3.5424 O   0  0  0  0  0  0  0  0  0  0  0  0
   -7.5734  -56.8749   -5.8051 C   0  0  2  0  0  0  0  0  0  0  0  0
   -7.3314  -55.5616   -5.2841 O   0  0  0  0  0  0  0  0  0  0  0  0
   -8.3625  -56.8177   -7.1149 C   0  0  1  0  0  0  0  0  0  0  0  0
   -8.3859  -58.1330   -7.6702 O   0  0  0  0  0  0  0  0  0  0  0  0
   -9.1115  -58.1687   -8.8852 C   0  0  0  0  0  0  0  0  0  0  0  0
   -8.9297  -59.5481   -9.5084 C   0  0  0  0  0  0  0  0  0  0  0  0
   -9.7950  -59.6369  -10.7555 C   0  0  0  0  0  0  0  0  0  0  0  0
  -14.4514  -60.7019  -12.2051 C   0  0  0  0  0  0  0  0  0  0  0  0
  -13.0426  -61.1669  -11.8917 C   0  0  0  0  0  0  0  0  0  0  0  0
  -12.2131  -60.0231  -11.3231 C   0  0  0  0  0  0  0  0  0  0  0  0
  -12.5026  -54.5919   -5.2963 H   0  0  0  0  0  0  0  0  0  0  0  0
  -12.2525  -56.1507   -6.8470 H   0  0  0  0  0  0  0  0  0  0  0  0
  -12.5291  -56.9391   -5.2747 H   0  0  0  0  0  0  0  0  0  0  0  0
  -10.6702  -58.0355   -6.4189 H   0  0  0  0  0  0  0  0  0  0  0  0
  -11.2771  -60.6058   -9.4836 H   0  0  0  0  0  0  0  0  0  0  0  0
  -10.7346  -61.5591  -10.8581 H   0  0  0  0  0  0  0  0  0  0  0  0
   -9.7571  -56.2843   -4.0485 H   0  0  0  0  0  0  0  0  0  0  0  0
  -11.3503  -57.7450   -3.5749 H   0  0  0  0  0  0  0  0  0  0  0  0
   -8.3736  -58.7793   -5.1138 H   0  0  0  0  0  0  0  0  0  0  0  0
   -6.8303  -58.2171   -3.6613 H   0  0  0  0  0  0  0  0  0  0  0  0
   -6.5884  -57.3261   -5.9735 H   0  0  0  0  0  0  0  0  0  0  0  0
   -7.0809  -55.6827   -4.3491 H   0  0  0  0  0  0  0  0  0  0  0  0
   -7.8484  -56.1423   -7.8105 H   0  0  0  0  0  0  0  0  0  0  0  0
   -8.7450  -57.3931   -9.5669 H   0  0  0  0  0  0  0  0  0  0  0  0
  -10.1753  -57.9924   -8.6901 H   0  0  0  0  0  0  0  0  0  0  0  0
   -9.1595  -60.3276   -8.7758 H   0  0  0  0  0  0  0  0  0  0  0  0
   -7.8743  -59.6744   -9.7667 H   0  0  0  0  0  0  0  0  0  0  0  0
  -10.1103  -58.6338  -11.0696 H   0  0  0  0  0  0  0  0  0  0  0  0
   -9.1917  -60.0438  -11.5870 H   0  0  0  0  0  0  0  0  0  0  0  0
  -15.0324  -61.5189  -12.6417 H   0  0  0  0  0  0  0  0  0  0  0  0
  -14.4422  -59.8647  -12.9099 H   0  0  0  0  0  0  0  0  0  0  0  0
  -14.9565  -60.3747  -11.2901 H   0  0  0  0  0  0  0  0  0  0  0  0
  -12.5610  -61.5342  -12.8066 H   0  0  0  0  0  0  0  0  0  0  0  0
  -13.0859  -62.0055  -11.1880 H   0  0  0  0  0  0  0  0  0  0  0  0
  -11.9099  -59.3688  -12.1483 H   0  0  0  0  0  0  0  0  0  0  0  0
  -12.8173  -59.4071  -10.6436 H   0  0  0  0  0  0  0  0  0  0  0  0
  1  2  1  0  0  0  0
  1 20  1  0  0  0  0
  2  3  1  0  0  0  0
  2 21  1  0  0  0  0
  2 22  1  0  0  0  0
  3  5  1  0  0  0  0
  3  6  1  0  0  0  0
  3 23  1  6  0  0  0
  4 16  1  0  0  0  0
  4 19  1  0  0  0  0
  4 24  1  0  0  0  0
  4 25  1  0  0  0  0
  5 12  1  0  0  0  0
  6  7  1  0  0  0  0
  6  8  1  0  0  0  0
  6 26  1  1  0  0  0
  7 27  1  0  0  0  0
  8  9  1  0  0  0  0
  8 10  1  0  0  0  0
  8 28  1  6  0  0  0
  9 29  1  0  0  0  0
 10 11  1  0  0  0  0
 10 12  1  0  0  0  0
 10 30  1  6  0  0  0
 11 31  1  0  0  0  0
 12 13  1  0  0  0  0
 12 32  1  6  0  0  0
 13 14  1  0  0  0  0
 14 15  1  0  0  0  0
 14 33  1  0  0  0  0
 14 34  1  0  0  0  0
 15 16  1  0  0  0  0
 15 35  1  0  0  0  0
 15 36  1  0  0  0  0
 16 37  1  0  0  0  0
 16 38  1  0  0  0  0
 17 18  1  0  0  0  0
 17 39  1  0  0  0  0
 17 40  1  0  0  0  0
 17 41  1  0  0  0  0
 18 19  1  0  0  0  0
 18 42  1  0  0  0  0
 18 43  1  0  0  0  0
 19 44  1  0  0  0  0
 19 45  1  0  0  0  0
M  END
$$$$
