KK3
 OpenBabel04111921213D

 43 45  0  0  0  0  0  0  0  0999 V2000
  -46.8097  -46.9793   28.6199 C   0  0  0  0  0  0  0  0  0  0  0  0
  -45.3565  -47.1155   29.1092 C   0  0  0  0  0  0  0  0  0  0  0  0
  -45.2052  -46.8030   30.6134 C   0  0  0  0  0  0  0  0  0  0  0  0
  -44.8375  -45.3385   30.8496 C   0  0  0  0  0  0  0  0  0  0  0  0
  -46.4753  -47.1714   31.4017 C   0  0  0  0  0  0  0  0  0  0  0  0
  -47.2202  -48.3008   30.7018 C   0  0  0  0  0  0  0  0  0  0  0  0
  -47.7393  -47.7927   29.4347 N   0  0  0  0  0  0  0  0  0  0  0  0
  -49.0869  -47.4565   29.2739 C   0  0  0  0  0  0  0  0  0  0  0  0
  -49.9781  -47.3488   30.3356 C   0  0  0  0  0  0  0  0  0  0  0  0
  -49.5193  -47.2383   28.0174 N   0  0  0  0  0  0  0  0  0  0  0  0
  -50.8082  -46.9423   27.8276 C   0  0  0  0  0  0  0  0  0  0  0  0
  -51.2299  -46.7194   26.5470 N   0  0  0  0  0  0  0  0  0  0  0  0
  -51.7194  -46.8252   28.7923 N   0  0  0  0  0  0  0  0  0  0  0  0
  -51.2935  -47.0187   30.0507 C   0  0  0  0  0  0  0  0  0  0  0  0
  -52.3291  -46.8376   31.0840 C   0  0  0  0  0  0  0  0  0  0  0  0
  -53.1632  -47.8995   31.4721 C   0  0  0  0  0  0  0  0  0  0  0  0
  -54.2168  -47.7053   32.3842 C   0  0  0  0  0  0  0  0  0  0  0  0
  -54.4609  -46.4462   32.9420 C   0  0  0  0  0  0  0  0  0  0  0  0
  -55.6197  -46.2024   33.8899 C   0  0  0  0  0  0  0  0  0  0  0  0
  -55.2569  -45.4955   34.9983 F   0  0  0  0  0  0  0  0  0  0  0  0
  -56.1929  -47.3479   34.3559 F   0  0  0  0  0  0  0  0  0  0  0  0
  -56.6289  -45.4912   33.3129 F   0  0  0  0  0  0  0  0  0  0  0  0
  -53.6282  -45.3837   32.5678 C   0  0  0  0  0  0  0  0  0  0  0  0
  -52.5850  -45.5753   31.6561 C   0  0  0  0  0  0  0  0  0  0  0  0
  -46.8564  -47.2796   27.5663 H   0  0  0  0  0  0  0  0  0  0  0  0
  -47.0862  -45.9184   28.6815 H   0  0  0  0  0  0  0  0  0  0  0  0
  -44.6930  -46.4755   28.5143 H   0  0  0  0  0  0  0  0  0  0  0  0
  -45.0169  -48.1451   28.9302 H   0  0  0  0  0  0  0  0  0  0  0  0
  -44.3745  -47.4119   30.9961 H   0  0  0  0  0  0  0  0  0  0  0  0
  -44.7392  -45.1299   31.9203 H   0  0  0  0  0  0  0  0  0  0  0  0
  -45.5996  -44.6674   30.4402 H   0  0  0  0  0  0  0  0  0  0  0  0
  -43.8819  -45.0958   30.3729 H   0  0  0  0  0  0  0  0  0  0  0  0
  -47.1374  -46.2987   31.4800 H   0  0  0  0  0  0  0  0  0  0  0  0
  -46.2102  -47.4623   32.4230 H   0  0  0  0  0  0  0  0  0  0  0  0
  -47.9961  -48.7276   31.3436 H   0  0  0  0  0  0  0  0  0  0  0  0
  -46.5359  -49.1358   30.4993 H   0  0  0  0  0  0  0  0  0  0  0  0
  -49.6742  -47.4769   31.3633 H   0  0  0  0  0  0  0  0  0  0  0  0
  -50.5922  -46.9539   25.8060 H   0  0  0  0  0  0  0  0  0  0  0  0
  -52.2186  -46.6015   26.4098 H   0  0  0  0  0  0  0  0  0  0  0  0
  -53.0280  -48.8845   31.0264 H   0  0  0  0  0  0  0  0  0  0  0  0
  -54.8603  -48.5466   32.6393 H   0  0  0  0  0  0  0  0  0  0  0  0
  -53.8054  -44.3818   32.9693 H   0  0  0  0  0  0  0  0  0  0  0  0
  -51.9771  -44.7201   31.3576 H   0  0  0  0  0  0  0  0  0  0  0  0
  1  2  1  0  0  0  0
  1  7  1  0  0  0  0
  1 25  1  0  0  0  0
  1 26  1  0  0  0  0
  2  3  1  0  0  0  0
  2 27  1  0  0  0  0
  2 28  1  0  0  0  0
  3  4  1  0  0  0  0
  3  5  1  0  0  0  0
  3 29  1  0  0  0  0
  4 30  1  0  0  0  0
  4 31  1  0  0  0  0
  4 32  1  0  0  0  0
  5  6  1  0  0  0  0
  5 33  1  0  0  0  0
  5 34  1  0  0  0  0
  6  7  1  0  0  0  0
  6 35  1  0  0  0  0
  6 36  1  0  0  0  0
  7  8  1  0  0  0  0
  8  9  2  0  0  0  0
  8 10  1  0  0  0  0
  9 14  1  0  0  0  0
  9 37  1  0  0  0  0
 10 11  2  0  0  0  0
 11 12  1  0  0  0  0
 11 13  1  0  0  0  0
 12 38  1  0  0  0  0
 12 39  1  0  0  0  0
 13 14  2  0  0  0  0
 14 15  1  0  0  0  0
 15 16  2  0  0  0  0
 15 24  1  0  0  0  0
 16 17  1  0  0  0  0
 16 40  1  0  0  0  0
 17 18  2  0  0  0  0
 17 41  1  0  0  0  0
 18 19  1  0  0  0  0
 18 23  1  0  0  0  0
 19 20  1  0  0  0  0
 19 21  1  0  0  0  0
 19 22  1  0  0  0  0
 23 24  2  0  0  0  0
 23 42  1  0  0  0  0
 24 43  1  0  0  0  0
M  END
$$$$
