KKN
 OpenBabel04111919433D

 19 20  0  0  1  0  0  0  0  0999 V2000
   88.8339  -54.1220  -28.3867 O   0  0  0  0  0  0  0  0  0  0  0  0
   88.3602  -53.0274  -27.4891 C   0  0  0  0  0  0  0  0  0  0  0  0
   87.1356  -53.3849  -26.6771 C   0  0  0  0  0  0  0  0  0  0  0  0
   86.5948  -54.5683  -26.8019 C   0  0  0  0  0  0  0  0  0  0  0  0
   87.0640  -55.5892  -27.7198 C   0  0  0  0  0  0  0  0  0  0  0  0
   88.1693  -55.3205  -28.4537 C   0  0  0  0  0  0  0  0  0  0  0  0
   85.3091  -54.5770  -26.0417 C   0  0  2  0  0  0  0  0  0  0  0  0
   85.4058  -53.2738  -25.2633 C   0  0  0  0  0  0  0  0  0  0  0  0
   84.5738  -52.8782  -24.4638 O   0  0  0  0  0  0  0  0  0  0  0  0
   86.4728  -52.5130  -25.7705 O   0  0  0  0  0  0  0  0  0  0  0  0
   84.4216  -55.7514  -25.7067 C   0  0  0  0  0  0  0  0  0  0  0  0
   88.1763  -52.1531  -28.1205 H   0  0  0  0  0  0  0  0  0  0  0  0
   89.1872  -52.7857  -26.8161 H   0  0  0  0  0  0  0  0  0  0  0  0
   86.5372  -56.5308  -27.7774 H   0  0  0  0  0  0  0  0  0  0  0  0
   88.5956  -56.0231  -29.1239 H   0  0  0  0  0  0  0  0  0  0  0  0
   84.6472  -54.2042  -26.8234 H   0  0  0  0  0  0  0  0  0  0  0  0
   84.6673  -56.5992  -26.3547 H   0  0  0  0  0  0  0  0  0  0  0  0
   83.3859  -55.4512  -25.9730 H   0  0  0  0  0  0  0  0  0  0  0  0
   84.4118  -56.0623  -24.6631 H   0  0  0  0  0  0  0  0  0  0  0  0
  1  2  1  0  0  0  0
  1  6  1  0  0  0  0
  2  3  1  0  0  0  0
  2 12  1  0  0  0  0
  2 13  1  0  0  0  0
  3  4  2  0  0  0  0
  3 10  1  0  0  0  0
  4  5  1  0  0  0  0
  4  7  1  0  0  0  0
  5  6  2  0  0  0  0
  5 14  1  0  0  0  0
  6 15  1  0  0  0  0
  7  8  1  0  0  0  0
  7 11  1  0  0  0  0
  7 16  1  6  0  0  0
  8  9  2  0  0  0  0
  8 10  1  0  0  0  0
 11 17  1  0  0  0  0
 11 18  1  0  0  0  0
 11 19  1  0  0  0  0
M  END
$$$$
