L46
 OpenBabel04111920153D

 31 31  0  0  1  0  0  0  0  0999 V2000
   12.6976   38.5697   77.5352 C   0  0  2  0  0  0  0  0  0  0  0  0
   11.6506   37.6951   77.0533 C   0  0  1  0  0  0  0  0  0  0  0  0
   10.4650   38.0490   77.6988 C   0  0  2  0  0  0  0  0  0  0  0  0
   12.0880   39.4457   78.4269 C   0  0  1  0  0  0  0  0  0  0  0  0
   14.1322   38.6211   77.1859 C   0  0  0  0  0  0  0  0  0  0  0  0
    9.1293   37.4845   77.5286 C   0  0  0  0  0  0  0  0  0  0  0  0
   12.6621   40.5749   79.2084 C   0  0  0  0  0  0  0  0  0  0  0  0
   14.8446   37.3702   76.7373 C   0  0  0  0  0  0  0  0  0  0  0  0
   12.0219   37.1860   74.6150 C   0  0  0  0  0  0  0  0  0  0  0  0
   11.7888   36.6183   76.0091 C   0  0  0  0  0  0  0  0  0  0  0  0
   10.7581   39.1196   78.5136 N   0  3  0  0  0  0  0  0  0  0  0  0
    8.3171   37.5603   78.6463 N   0  0  0  0  0  0  0  0  0  0  0  0
   14.7764   39.6649   77.3040 O   0  0  0  0  0  0  0  0  0  0  0  0
    8.7374   36.9624   76.4963 O   0  0  0  0  0  0  0  0  0  0  0  0
    7.0055   36.9546   78.6342 C   0  0  0  0  0  0  0  0  0  0  0  0
   11.9126   41.0594   79.8410 H   0  0  0  0  0  0  0  0  0  0  0  0
   13.0737   41.3403   78.5369 H   0  0  0  0  0  0  0  0  0  0  0  0
   13.4700   40.2187   79.8568 H   0  0  0  0  0  0  0  0  0  0  0  0
   15.9018   37.5958   76.5660 H   0  0  0  0  0  0  0  0  0  0  0  0
   14.4561   36.9928   75.7944 H   0  0  0  0  0  0  0  0  0  0  0  0
   14.7722   36.6038   77.5129 H   0  0  0  0  0  0  0  0  0  0  0  0
   12.1385   36.3745   73.8906 H   0  0  0  0  0  0  0  0  0  0  0  0
   12.9208   37.8083   74.5619 H   0  0  0  0  0  0  0  0  0  0  0  0
   11.1834   37.8151   74.3014 H   0  0  0  0  0  0  0  0  0  0  0  0
   10.9052   35.9777   75.9843 H   0  0  0  0  0  0  0  0  0  0  0  0
   12.6067   35.9436   76.2915 H   0  0  0  0  0  0  0  0  0  0  0  0
   10.0720   39.6313   79.0519 H   0  0  0  0  0  0  0  0  0  0  0  0
    8.7236   37.8114   79.5342 H   0  0  0  0  0  0  0  0  0  0  0  0
    6.5628   37.0585   79.6270 H   0  0  0  0  0  0  0  0  0  0  0  0
    7.0860   35.8980   78.3713 H   0  0  0  0  0  0  0  0  0  0  0  0
    6.3839   37.4658   77.8952 H   0  0  0  0  0  0  0  0  0  0  0  0
  1  2  1  0  0  0  0
  1  4  1  0  0  0  0
  1  5  1  6  0  0  0
  2  3  1  0  0  0  0
  2 10  1  6  0  0  0
  3  6  1  6  0  0  0
  3 11  1  0  0  0  0
  4  7  1  6  0  0  0
  4 11  1  0  0  0  0
  5  8  1  0  0  0  0
  5 13  2  0  0  0  0
  6 12  1  0  0  0  0
  6 14  2  0  0  0  0
  7 16  1  0  0  0  0
  7 17  1  0  0  0  0
  7 18  1  0  0  0  0
  8 19  1  0  0  0  0
  8 20  1  0  0  0  0
  8 21  1  0  0  0  0
  9 10  1  0  0  0  0
  9 22  1  0  0  0  0
  9 23  1  0  0  0  0
  9 24  1  0  0  0  0
 10 25  1  0  0  0  0
 10 26  1  0  0  0  0
 11 27  1  0  0  0  0
 12 15  1  0  0  0  0
 12 28  1  0  0  0  0
 15 29  1  0  0  0  0
 15 30  1  0  0  0  0
 15 31  1  0  0  0  0
M  CHG  1  11   1
M  END
$$$$
