L5V
 OpenBabel04111918143D

 16 17  0  0  0  0  0  0  0  0999 V2000
   25.9228   21.1669    7.3438 Cl  0  0  0  0  0  0  0  0  0  0  0  0
   26.7285   20.1955    8.4995 C   0  0  0  0  0  0  0  0  0  0  0  0
   26.8922   18.8333    8.3127 C   0  0  0  0  0  0  0  0  0  0  0  0
   27.5257   18.0493    9.2202 N   0  0  0  0  0  0  0  0  0  0  0  0
   27.9832   18.7058   10.3147 C   0  0  0  0  0  0  0  0  0  0  0  0
   27.8206   20.0768   10.5080 C   0  0  0  0  0  0  0  0  0  0  0  0
   27.1822   20.8439    9.5902 N   0  0  0  0  0  0  0  0  0  0  0  0
   28.3145   20.7735   11.6926 C   0  0  0  0  0  0  0  0  0  0  0  0
   28.3064   22.0745   11.9238 N   0  0  0  0  0  0  0  0  0  0  0  0
   28.8686   22.3096   13.1551 N   0  0  0  0  0  0  0  0  0  0  0  0
   29.2090   21.1520   13.6612 C   0  0  0  0  0  0  0  0  0  0  0  0
   28.8832   20.1643   12.7857 N   0  3  0  0  0  0  0  0  0  0  0  0
   26.5203   18.3297    7.4296 H   0  0  0  0  0  0  0  0  0  0  0  0
   28.4946   18.0732   11.0309 H   0  0  0  0  0  0  0  0  0  0  0  0
   29.6745   20.9782   14.6190 H   0  0  0  0  0  0  0  0  0  0  0  0
   29.0314   19.1756   12.9264 H   0  0  0  0  0  0  0  0  0  0  0  0
  1  2  1  0  0  0  0
  2  3  2  0  0  0  0
  2  7  1  0  0  0  0
  3  4  1  0  0  0  0
  3 13  1  0  0  0  0
  4  5  2  0  0  0  0
  5  6  1  0  0  0  0
  5 14  1  0  0  0  0
  6  7  2  0  0  0  0
  6  8  1  0  0  0  0
  8  9  1  0  0  0  0
  8 12  2  0  0  0  0
  9 10  1  0  0  0  0
 10 11  2  0  0  0  0
 11 12  1  0  0  0  0
 11 15  1  0  0  0  0
 12 16  1  0  0  0  0
M  CHG  1  12   1
M  END
$$$$
