LAH
 OpenBabel04111922573D

 33 33  0  0  1  0  0  0  0  0999 V2000
  -13.3759  -26.2302   21.7993 C   0  0  0  0  0  0  0  0  0  0  0  0
  -14.8467  -25.8962   21.9888 C   0  0  0  0  0  0  0  0  0  0  0  0
  -15.2146  -25.7552   23.4616 C   0  0  0  0  0  0  0  0  0  0  0  0
  -15.6407  -26.8971   21.3608 O   0  0  0  0  0  0  0  0  0  0  0  0
  -16.7917  -26.4171   20.3116 P   0  0  1  0  0  0  0  0  0  0  0  0
  -17.8376  -27.5062   20.2536 O   0  0  0  0  0  0  0  0  0  0  0  0
  -17.1671  -24.9916   20.6178 O   0  0  0  0  0  0  0  0  0  0  0  0
  -15.9356  -26.4039   18.9343 O   0  0  0  0  0  0  0  0  0  0  0  0
  -15.8665  -27.5695   18.1005 C   0  0  2  0  0  0  0  0  0  0  0  0
  -14.3813  -27.8963   17.9288 C   0  0  1  0  0  0  0  0  0  0  0  0
  -13.7885  -28.3860   19.1418 O   0  0  0  0  0  0  0  0  0  0  0  0
  -14.1095  -28.9141   16.8230 C   0  0  1  0  0  0  0  0  0  0  0  0
  -14.5209  -30.2183   17.2575 O   0  0  0  0  0  0  0  0  0  0  0  0
  -14.8303  -28.5319   15.5332 C   0  0  0  0  0  0  0  0  0  0  0  0
  -16.2083  -28.2618   15.7392 O   0  0  0  0  0  0  0  0  0  0  0  0
  -16.4500  -27.2359   16.7053 C   0  0  1  0  0  0  0  0  0  0  0  0
  -17.8571  -27.0736   16.7531 O   0  0  0  0  0  0  0  0  0  0  0  0
  -12.7386  -25.5088   22.3264 H   0  0  0  0  0  0  0  0  0  0  0  0
  -13.1235  -26.1995   20.7398 H   0  0  0  0  0  0  0  0  0  0  0  0
  -13.1341  -27.2418   22.1579 H   0  0  0  0  0  0  0  0  0  0  0  0
  -15.0074  -24.9280   21.5065 H   0  0  0  0  0  0  0  0  0  0  0  0
  -16.2928  -25.6127   23.5841 H   0  0  0  0  0  0  0  0  0  0  0  0
  -14.7053  -24.8847   23.8961 H   0  0  0  0  0  0  0  0  0  0  0  0
  -14.9375  -26.6361   24.0470 H   0  0  0  0  0  0  0  0  0  0  0  0
  -16.4070  -28.4130   18.5455 H   0  0  0  0  0  0  0  0  0  0  0  0
  -13.8520  -26.9646   17.6878 H   0  0  0  0  0  0  0  0  0  0  0  0
  -14.3662  -29.1203   19.4293 H   0  0  0  0  0  0  0  0  0  0  0  0
  -13.0295  -28.9743   16.6479 H   0  0  0  0  0  0  0  0  0  0  0  0
  -14.3439  -30.8384   16.5309 H   0  0  0  0  0  0  0  0  0  0  0  0
  -14.7786  -29.3693   14.8251 H   0  0  0  0  0  0  0  0  0  0  0  0
  -14.3566  -27.6666   15.0523 H   0  0  0  0  0  0  0  0  0  0  0  0
  -16.0249  -26.2898   16.3389 H   0  0  0  0  0  0  0  0  0  0  0  0
  -18.1116  -26.7073   15.8956 H   0  0  0  0  0  0  0  0  0  0  0  0
  1  2  1  0  0  0  0
  1 18  1  0  0  0  0
  1 19  1  0  0  0  0
  1 20  1  0  0  0  0
  2  3  1  0  0  0  0
  2  4  1  0  0  0  0
  2 21  1  0  0  0  0
  3 22  1  0  0  0  0
  3 23  1  0  0  0  0
  3 24  1  0  0  0  0
  5  4  1  1  0  0  0
  5  6  2  0  0  0  0
  5  7  1  0  0  0  0
  5  8  1  0  0  0  0
  8  9  1  0  0  0  0
  9 10  1  0  0  0  0
  9 16  1  0  0  0  0
  9 25  1  1  0  0  0
 10 11  1  0  0  0  0
 10 12  1  0  0  0  0
 10 26  1  6  0  0  0
 11 27  1  0  0  0  0
 12 13  1  0  0  0  0
 12 14  1  0  0  0  0
 12 28  1  6  0  0  0
 13 29  1  0  0  0  0
 14 15  1  0  0  0  0
 14 30  1  0  0  0  0
 14 31  1  0  0  0  0
 15 16  1  0  0  0  0
 16 17  1  0  0  0  0
 16 32  1  6  0  0  0
 17 33  1  0  0  0  0
M  END
$$$$
