LAO
 OpenBabel04111922563D

 23 23  0  0  1  0  0  0  0  0999 V2000
  -17.4518  -25.4070   20.3825 O   0  0  0  0  0  0  0  0  0  0  0  0
  -16.9254  -26.8259   20.1922 P   0  0  0  0  0  0  0  0  0  0  0  0
  -18.0102  -27.8938   20.2146 O   0  0  0  0  0  0  0  0  0  0  0  0
  -15.7034  -27.1242   21.0420 O   0  0  0  0  0  0  0  0  0  0  0  0
  -16.3878  -26.7917   18.6526 O   0  0  0  0  0  0  0  0  0  0  0  0
  -16.1374  -28.0042   17.9458 C   0  0  2  0  0  0  0  0  0  0  0  0
  -14.6206  -28.2603   17.9389 C   0  0  1  0  0  0  0  0  0  0  0  0
  -14.1241  -28.7177   19.1941 O   0  0  0  0  0  0  0  0  0  0  0  0
  -14.1866  -29.2819   16.8933 C   0  0  1  0  0  0  0  0  0  0  0  0
  -14.5270  -30.5990   17.3344 O   0  0  0  0  0  0  0  0  0  0  0  0
  -14.7903  -29.0019   15.5245 C   0  0  0  0  0  0  0  0  0  0  0  0
  -16.1904  -28.7890   15.5697 O   0  0  0  0  0  0  0  0  0  0  0  0
  -16.5719  -27.7523   16.4779 C   0  0  1  0  0  0  0  0  0  0  0  0
  -17.9793  -27.6315   16.3157 O   0  0  0  0  0  0  0  0  0  0  0  0
  -16.6813  -28.8522   18.3741 H   0  0  0  0  0  0  0  0  0  0  0  0
  -14.1268  -27.2931   17.7238 H   0  0  0  0  0  0  0  0  0  0  0  0
  -13.1629  -28.7138   19.1879 H   0  0  0  0  0  0  0  0  0  0  0  0
  -13.0932  -29.2686   16.8166 H   0  0  0  0  0  0  0  0  0  0  0  0
  -14.3207  -31.2334   16.6247 H   0  0  0  0  0  0  0  0  0  0  0  0
  -14.6368  -29.8698   14.8742 H   0  0  0  0  0  0  0  0  0  0  0  0
  -14.3095  -28.1420   15.0427 H   0  0  0  0  0  0  0  0  0  0  0  0
  -16.1289  -26.8038   16.1396 H   0  0  0  0  0  0  0  0  0  0  0  0
  -18.0972  -27.1707   15.4769 H   0  0  0  0  0  0  0  0  0  0  0  0
  1  2  2  0  0  0  0
  2  3  1  0  0  0  0
  2  4  1  0  0  0  0
  2  5  1  0  0  0  0
  5  6  1  0  0  0  0
  6  7  1  0  0  0  0
  6 13  1  0  0  0  0
  6 15  1  1  0  0  0
  7  8  1  0  0  0  0
  7  9  1  0  0  0  0
  7 16  1  6  0  0  0
  8 17  1  0  0  0  0
  9 10  1  0  0  0  0
  9 11  1  0  0  0  0
  9 18  1  6  0  0  0
 10 19  1  0  0  0  0
 11 12  1  0  0  0  0
 11 20  1  0  0  0  0
 11 21  1  0  0  0  0
 12 13  1  0  0  0  0
 13 14  1  0  0  0  0
 13 22  1  6  0  0  0
 14 23  1  0  0  0  0
M  END
$$$$
