LCS
 OpenBabel04111920553D

 34 35  0  0  0  0  0  0  0  0999 V2000
    4.3590   21.2358   14.3138 N   0  0  0  0  0  0  0  0  0  0  0  0
    5.3008   20.6805   15.1157 C   0  0  0  0  0  0  0  0  0  0  0  0
    5.1915   20.9372   16.5844 C   0  0  0  0  0  0  0  0  0  0  0  0
    6.3408   19.9036   14.6479 C   0  0  0  0  0  0  0  0  0  0  0  0
    7.1441   19.4626   15.6635 O   0  0  0  0  0  0  0  0  0  0  0  0
    6.4725   19.6569   13.2791 C   0  0  0  0  0  0  0  0  0  0  0  0
    7.5282   18.8012   12.6482 C   0  0  0  0  0  0  0  0  0  0  0  0
    5.5066   20.2250   12.4153 C   0  0  0  0  0  0  0  0  0  0  0  0
    4.4863   20.9661   12.9996 C   0  0  0  0  0  0  0  0  0  0  0  0
    5.4746   20.0429   10.9008 C   0  0  0  0  0  0  0  0  0  0  0  0
    4.9698   18.7620   10.6378 O   0  0  0  0  0  0  0  0  0  0  0  0
    5.3682   18.0194    9.2368 P   0  0  0  0  0  0  0  0  0  0  0  0
    5.0170   19.0259    8.1521 O   0  0  0  0  0  0  0  0  0  0  0  0
    6.8607   17.7566    9.3946 O   0  0  0  0  0  0  0  0  0  0  0  0
    4.4925   16.7775    9.2644 O   0  0  0  0  0  0  0  0  0  0  0  0
    8.6538   18.5383   13.5243 N   0  0  0  0  0  0  0  0  0  0  0  0
    9.7750   17.9546   13.0548 C   0  0  0  0  0  0  0  0  0  0  0  0
   10.8823   17.6193   13.9887 C   0  0  0  0  0  0  0  0  0  0  0  0
   10.8742   17.8214   15.2171 O   0  0  0  0  0  0  0  0  0  0  0  0
   11.8018   17.1067   13.1862 N   0  3  0  0  0  0  0  0  0  0  0  0
   11.4155   17.0418   11.8351 O   0  0  0  0  0  0  0  0  0  0  0  0
   10.1528   17.5604   11.8693 C   0  0  0  0  0  0  0  0  0  0  0  0
    5.9671   20.4283   17.1715 H   0  0  0  0  0  0  0  0  0  0  0  0
    4.2309   20.5660   16.9366 H   0  0  0  0  0  0  0  0  0  0  0  0
    5.3044   22.0059   16.7586 H   0  0  0  0  0  0  0  0  0  0  0  0
    7.8611   19.0110   15.2707 H   0  0  0  0  0  0  0  0  0  0  0  0
    7.9482   19.3858   11.8152 H   0  0  0  0  0  0  0  0  0  0  0  0
    7.0812   17.8864   12.2385 H   0  0  0  0  0  0  0  0  0  0  0  0
    3.6965   21.3819   12.3853 H   0  0  0  0  0  0  0  0  0  0  0  0
    6.4588   20.2412   10.4625 H   0  0  0  0  0  0  0  0  0  0  0  0
    4.7893   20.7874   10.4759 H   0  0  0  0  0  0  0  0  0  0  0  0
    8.6716   18.2106   14.4681 H   0  0  0  0  0  0  0  0  0  0  0  0
   12.7349   16.8294   13.4510 H   0  0  0  0  0  0  0  0  0  0  0  0
    9.5189   17.6533   10.9914 H   0  0  0  0  0  0  0  0  0  0  0  0
  1  2  2  0  0  0  0
  1  9  1  0  0  0  0
  2  3  1  0  0  0  0
  2  4  1  0  0  0  0
  3 23  1  0  0  0  0
  3 24  1  0  0  0  0
  3 25  1  0  0  0  0
  4  5  1  0  0  0  0
  4  6  2  0  0  0  0
  5 26  1  0  0  0  0
  6  7  1  0  0  0  0
  6  8  1  0  0  0  0
  7 16  1  0  0  0  0
  7 27  1  0  0  0  0
  7 28  1  0  0  0  0
  8  9  2  0  0  0  0
  8 10  1  0  0  0  0
  9 29  1  0  0  0  0
 10 11  1  0  0  0  0
 10 30  1  0  0  0  0
 10 31  1  0  0  0  0
 11 12  1  0  0  0  0
 12 13  2  0  0  0  0
 12 14  1  0  0  0  0
 12 15  1  0  0  0  0
 16 17  1  0  0  0  0
 16 32  1  0  0  0  0
 17 18  1  0  0  0  0
 17 22  2  0  0  0  0
 18 19  2  0  0  0  0
 18 20  1  0  0  0  0
 20 21  1  0  0  0  0
 20 33  1  0  0  0  0
 21 22  1  0  0  0  0
 22 34  1  0  0  0  0
M  CHG  1  20   1
M  END
$$$$
