LMR
 OpenBabel04111919323D

 13 12  0  0  1  0  0  0  0  0999 V2000
   95.5207  -20.9739   53.0707 C   0  0  0  0  0  0  0  0  0  0  0  0
   94.5163  -20.2916   52.6919 O   0  0  0  0  0  0  0  0  0  0  0  0
   95.6191  -21.7096   54.1004 O   0  0  0  0  0  0  0  0  0  0  0  0
   96.7184  -21.0799   52.0599 C   0  0  1  0  0  0  0  0  0  0  0  0
   96.5953  -20.1580   50.9470 O   0  0  0  0  0  0  0  0  0  0  0  0
   98.1030  -20.9214   52.6695 C   0  0  0  0  0  0  0  0  0  0  0  0
   98.3530  -19.6078   53.4105 C   0  0  0  0  0  0  0  0  0  0  0  0
   99.4396  -19.5802   54.0708 O   0  0  0  0  0  0  0  0  0  0  0  0
   97.5448  -18.6605   53.1997 O   0  0  0  0  0  0  0  0  0  0  0  0
   96.6498  -22.0789   51.6159 H   0  0  0  0  0  0  0  0  0  0  0  0
   96.4617  -19.3074   51.4359 H   0  0  0  0  0  0  0  0  0  0  0  0
   98.8531  -20.9658   51.8705 H   0  0  0  0  0  0  0  0  0  0  0  0
   98.3041  -21.7523   53.3557 H   0  0  0  0  0  0  0  0  0  0  0  0
  1  2  2  0  0  0  0
  1  3  1  0  0  0  0
  1  4  1  0  0  0  0
  4  5  1  0  0  0  0
  4  6  1  0  0  0  0
  4 10  1  6  0  0  0
  5 11  1  0  0  0  0
  6  7  1  0  0  0  0
  6 12  1  0  0  0  0
  6 13  1  0  0  0  0
  7  8  2  0  0  0  0
  7  9  1  0  0  0  0
M  END
$$$$
