LMR
 OpenBabel04111919333D

 13 12  0  0  1  0  0  0  0  0999 V2000
   95.6061  -21.5854   52.2967 C   0  0  0  0  0  0  0  0  0  0  0  0
   95.4263  -22.8121   51.9959 O   0  0  0  0  0  0  0  0  0  0  0  0
   94.7510  -20.7654   52.7350 O   0  0  0  0  0  0  0  0  0  0  0  0
   97.0704  -21.0710   52.1123 C   0  0  1  0  0  0  0  0  0  0  0  0
   97.1580  -20.1024   51.0290 O   0  0  0  0  0  0  0  0  0  0  0  0
   97.5937  -20.4315   53.3978 C   0  0  0  0  0  0  0  0  0  0  0  0
   99.1030  -20.2130   53.4370 C   0  0  0  0  0  0  0  0  0  0  0  0
   99.5223  -19.5182   54.4135 O   0  0  0  0  0  0  0  0  0  0  0  0
   99.7871  -20.6934   52.4883 O   0  0  0  0  0  0  0  0  0  0  0  0
   97.6956  -21.9219   51.8158 H   0  0  0  0  0  0  0  0  0  0  0  0
   98.1128  -19.8946   51.0078 H   0  0  0  0  0  0  0  0  0  0  0  0
   97.3411  -21.0660   54.2539 H   0  0  0  0  0  0  0  0  0  0  0  0
   97.1136  -19.4556   53.5528 H   0  0  0  0  0  0  0  0  0  0  0  0
  1  2  2  0  0  0  0
  1  3  1  0  0  0  0
  1  4  1  0  0  0  0
  4  5  1  0  0  0  0
  4  6  1  0  0  0  0
  4 10  1  6  0  0  0
  5 11  1  0  0  0  0
  6  7  1  0  0  0  0
  6 12  1  0  0  0  0
  6 13  1  0  0  0  0
  7  8  2  0  0  0  0
  7  9  1  0  0  0  0
M  END
$$$$
