LNO
 OpenBabel04111921523D

 25 24  0  0  1  0  0  0  0  0999 V2000
   52.6242   16.3105   -4.5477 N   0  3  0  0  0  0  0  0  0  0  0  0
   51.9635   17.6680   -4.6467 C   0  0  2  0  0  0  0  0  0  0  0  0
   52.5759   18.6199   -5.6837 C   0  0  0  0  0  0  0  0  0  0  0  0
   53.6251   18.3916   -6.2448 O   0  0  0  0  0  0  0  0  0  0  0  0
   52.0477   18.4197   -3.2891 C   0  0  0  0  0  0  0  0  0  0  0  0
   53.0659   17.7465   -2.3699 C   0  0  0  0  0  0  0  0  0  0  0  0
   54.5045   17.8025   -2.9792 C   0  0  0  0  0  0  0  0  0  0  0  0
   53.0779   18.3279   -0.9619 C   0  0  0  0  0  0  0  0  0  0  0  0
   51.8454   19.8074   -5.7814 N   0  0  0  0  0  0  0  0  0  0  0  0
   52.4113   20.8898   -6.4981 O   0  0  0  0  0  0  0  0  0  0  0  0
   52.0429   15.6185   -4.0466 H   0  0  0  0  0  0  0  0  0  0  0  0
   53.0319   15.9583   -5.4265 H   0  0  0  0  0  0  0  0  0  0  0  0
   50.9428   17.4690   -4.9973 H   0  0  0  0  0  0  0  0  0  0  0  0
   51.0342   18.4461   -2.8608 H   0  0  0  0  0  0  0  0  0  0  0  0
   52.3124   19.4839   -3.3604 H   0  0  0  0  0  0  0  0  0  0  0  0
   52.6955   16.7259   -2.2066 H   0  0  0  0  0  0  0  0  0  0  0  0
   55.1940   17.1827   -2.3813 H   0  0  0  0  0  0  0  0  0  0  0  0
   54.8757   18.8339   -3.0218 H   0  0  0  0  0  0  0  0  0  0  0  0
   54.6721   17.4630   -4.0292 H   0  0  0  0  0  0  0  0  0  0  0  0
   52.0591   18.3065   -0.5111 H   0  0  0  0  0  0  0  0  0  0  0  0
   53.4434   19.3285   -0.9378 H   0  0  0  0  0  0  0  0  0  0  0  0
   53.6966   17.6794   -0.3322 H   0  0  0  0  0  0  0  0  0  0  0  0
   51.0046   20.0758   -5.2451 H   0  0  0  0  0  0  0  0  0  0  0  0
   53.3538   20.8738   -6.2557 H   0  0  0  0  0  0  0  0  0  0  0  0
   53.4438   16.3037   -3.9680 H   0  0  0  0  0  0  0  0  0  0  0  0
  1  2  1  0  0  0  0
  1 11  1  0  0  0  0
  1 12  1  0  0  0  0
  1 25  1  0  0  0  0
  2  3  1  0  0  0  0
  2  5  1  0  0  0  0
  2 13  1  6  0  0  0
  3  4  2  0  0  0  0
  3  9  1  0  0  0  0
  5  6  1  0  0  0  0
  5 14  1  0  0  0  0
  5 15  1  0  0  0  0
  6  7  1  0  0  0  0
  6  8  1  0  0  0  0
  6 16  1  0  0  0  0
  7 17  1  0  0  0  0
  7 18  1  0  0  0  0
  7 19  1  0  0  0  0
  8 20  1  0  0  0  0
  8 21  1  0  0  0  0
  8 22  1  0  0  0  0
  9 10  1  0  0  0  0
  9 23  1  0  0  0  0
 10 24  1  0  0  0  0
M  CHG  1   1   1
M  END
$$$$
