LNR
 OpenBabel04111922393D

 24 24  0  0  1  0  0  0  0  0999 V2000
   -5.8367    2.8123   11.2233 O   0  0  0  0  0  0  0  0  0  0  0  0
   -4.7170    2.1017   10.9070 C   0  0  0  0  0  0  0  0  0  0  0  0
   -3.5456    2.8030   10.6490 C   0  0  0  0  0  0  0  0  0  0  0  0
   -4.7365    0.7126   10.8801 C   0  0  0  0  0  0  0  0  0  0  0  0
   -5.9145    0.0595   11.1139 O   0  0  0  0  0  0  0  0  0  0  0  0
   -3.5811    0.0076   10.5861 C   0  0  0  0  0  0  0  0  0  0  0  0
   -2.3932    0.7035   10.3325 C   0  0  0  0  0  0  0  0  0  0  0  0
   -2.3570    2.1075   10.3562 C   0  0  0  0  0  0  0  0  0  0  0  0
   -1.0603    2.8417   10.1403 C   0  0  1  0  0  0  0  0  0  0  0  0
   -1.1563    3.7948    9.0780 O   0  0  0  0  0  0  0  0  0  0  0  0
   -0.6118    3.5940   11.4090 C   0  0  0  0  0  0  0  0  0  0  0  0
    0.6157    4.3912   11.1058 N   0  3  0  0  0  0  0  0  0  0  0  0
   -6.1257    3.2605   10.4115 H   0  0  0  0  0  0  0  0  0  0  0  0
   -3.5631    3.8897   10.6986 H   0  0  0  0  0  0  0  0  0  0  0  0
   -5.7735   -0.8991   11.0932 H   0  0  0  0  0  0  0  0  0  0  0  0
   -3.5771   -1.0844   10.5610 H   0  0  0  0  0  0  0  0  0  0  0  0
   -1.4911    0.1273   10.1167 H   0  0  0  0  0  0  0  0  0  0  0  0
   -0.2735    2.1372    9.8452 H   0  0  0  0  0  0  0  0  0  0  0  0
   -1.5911    3.3416    8.3272 H   0  0  0  0  0  0  0  0  0  0  0  0
   -0.3776    2.9205   12.2387 H   0  0  0  0  0  0  0  0  0  0  0  0
   -1.3550    4.3323   11.7283 H   0  0  0  0  0  0  0  0  0  0  0  0
    0.9151    4.9544   11.9072 H   0  0  0  0  0  0  0  0  0  0  0  0
    1.3976    3.8001   10.8018 H   0  0  0  0  0  0  0  0  0  0  0  0
    0.3962    5.0250   10.3187 H   0  0  0  0  0  0  0  0  0  0  0  0
  1  2  1  0  0  0  0
  1 13  1  0  0  0  0
  2  3  2  0  0  0  0
  2  4  1  0  0  0  0
  3  8  1  0  0  0  0
  3 14  1  0  0  0  0
  4  5  1  0  0  0  0
  4  6  2  0  0  0  0
  5 15  1  0  0  0  0
  6  7  1  0  0  0  0
  6 16  1  0  0  0  0
  7  8  2  0  0  0  0
  7 17  1  0  0  0  0
  8  9  1  0  0  0  0
  9 10  1  0  0  0  0
  9 11  1  0  0  0  0
  9 18  1  6  0  0  0
 10 19  1  0  0  0  0
 11 12  1  0  0  0  0
 11 20  1  0  0  0  0
 11 21  1  0  0  0  0
 12 22  1  0  0  0  0
 12 23  1  0  0  0  0
 12 24  1  0  0  0  0
M  CHG  1  12   1
M  END
$$$$
