LOC
 OpenBabel04111920443D

 54 56  0  0  1  0  0  0  0  0999 V2000
   15.5497   68.3565   45.7970 O   0  0  0  0  0  0  0  0  0  0  0  0
   16.6299   68.7620   46.2052 C   0  0  0  0  0  0  0  0  0  0  0  0
   16.7537   69.5959   47.4471 C   0  0  0  0  0  0  0  0  0  0  0  0
   17.8345   68.4836   45.5999 N   0  0  0  0  0  0  0  0  0  0  0  0
   17.9021   67.6181   44.4349 C   0  0  2  0  0  0  0  0  0  0  0  0
   17.6728   66.1418   44.7891 C   0  0  0  0  0  0  0  0  0  0  0  0
   18.0077   65.6976   46.0193 C   0  0  0  0  0  0  0  0  0  0  0  0
   19.2590   67.7909   43.7358 C   0  0  0  0  0  0  0  0  0  0  0  0
   19.4897   66.7819   42.6063 C   0  0  0  0  0  0  0  0  0  0  0  0
   18.2420   66.5838   41.7643 C   0  0  0  0  0  0  0  0  0  0  0  0
   18.1945   67.1778   40.4954 C   0  0  0  0  0  0  0  0  0  0  0  0
   17.0566   67.0765   39.6894 C   0  0  0  0  0  0  0  0  0  0  0  0
   15.9236   66.3777   40.1794 C   0  0  0  0  0  0  0  0  0  0  0  0
   15.9238   65.8318   41.4837 C   0  0  0  0  0  0  0  0  0  0  0  0
   14.8283   65.0996   41.9072 O   0  0  0  0  0  0  0  0  0  0  0  0
   13.9147   65.8326   42.7299 C   0  0  0  0  0  0  0  0  0  0  0  0
   14.7715   66.3362   39.4216 O   0  0  0  0  0  0  0  0  0  0  0  0
   14.6603   65.1296   38.6646 C   0  0  0  0  0  0  0  0  0  0  0  0
   16.9808   67.6532   38.4407 O   0  0  0  0  0  0  0  0  0  0  0  0
   18.2032   68.1084   37.8496 C   0  0  0  0  0  0  0  0  0  0  0  0
   17.1027   65.8925   42.2756 C   0  0  0  0  0  0  0  0  0  0  0  0
   17.1933   65.3140   43.6698 C   0  0  0  0  0  0  0  0  0  0  0  0
   16.8815   64.0116   43.7561 C   0  0  0  0  0  0  0  0  0  0  0  0
   16.8296   63.1090   44.8740 C   0  0  0  0  0  0  0  0  0  0  0  0
   17.2723   63.1899   46.1352 C   0  0  0  0  0  0  0  0  0  0  0  0
   17.9692   64.3930   46.6889 C   0  0  0  0  0  0  0  0  0  0  0  0
   18.5320   64.3285   47.7876 O   0  0  0  0  0  0  0  0  0  0  0  0
   17.1412   62.1434   47.0531 O   0  0  0  0  0  0  0  0  0  0  0  0
   16.6088   60.9068   46.5921 C   0  0  0  0  0  0  0  0  0  0  0  0
   17.8016   69.8415   47.6682 H   0  0  0  0  0  0  0  0  0  0  0  0
   16.3485   69.0411   48.2967 H   0  0  0  0  0  0  0  0  0  0  0  0
   16.2036   70.5255   47.3031 H   0  0  0  0  0  0  0  0  0  0  0  0
   18.6952   68.8076   46.0207 H   0  0  0  0  0  0  0  0  0  0  0  0
   17.0944   67.9698   43.7818 H   0  0  0  0  0  0  0  0  0  0  0  0
   18.4137   66.4318   46.7140 H   0  0  0  0  0  0  0  0  0  0  0  0
   20.0795   67.7010   44.4625 H   0  0  0  0  0  0  0  0  0  0  0  0
   19.3208   68.8142   43.3418 H   0  0  0  0  0  0  0  0  0  0  0  0
   19.8095   65.8138   43.0127 H   0  0  0  0  0  0  0  0  0  0  0  0
   20.3359   67.1238   41.9955 H   0  0  0  0  0  0  0  0  0  0  0  0
   19.0645   67.7419   40.1691 H   0  0  0  0  0  0  0  0  0  0  0  0
   13.1083   65.1410   43.0275 H   0  0  0  0  0  0  0  0  0  0  0  0
   13.4485   66.6502   42.1767 H   0  0  0  0  0  0  0  0  0  0  0  0
   14.3719   66.1973   43.6557 H   0  0  0  0  0  0  0  0  0  0  0  0
   13.7278   65.1789   38.0855 H   0  0  0  0  0  0  0  0  0  0  0  0
   14.5945   64.2438   39.3058 H   0  0  0  0  0  0  0  0  0  0  0  0
   15.4819   65.0235   37.9483 H   0  0  0  0  0  0  0  0  0  0  0  0
   17.9774   68.5266   36.8632 H   0  0  0  0  0  0  0  0  0  0  0  0
   18.9026   67.2767   37.7036 H   0  0  0  0  0  0  0  0  0  0  0  0
   18.6753   68.9123   38.4282 H   0  0  0  0  0  0  0  0  0  0  0  0
   16.5645   63.5042   42.8400 H   0  0  0  0  0  0  0  0  0  0  0  0
   16.3412   62.1871   44.5665 H   0  0  0  0  0  0  0  0  0  0  0  0
   16.5652   60.2082   47.4324 H   0  0  0  0  0  0  0  0  0  0  0  0
   17.2581   60.4733   45.8240 H   0  0  0  0  0  0  0  0  0  0  0  0
   15.5881   61.0336   46.2163 H   0  0  0  0  0  0  0  0  0  0  0  0
  1  2  2  0  0  0  0
  2  3  1  0  0  0  0
  2  4  1  0  0  0  0
  3 30  1  0  0  0  0
  3 31  1  0  0  0  0
  3 32  1  0  0  0  0
  4  5  1  0  0  0  0
  4 33  1  0  0  0  0
  5  6  1  0  0  0  0
  5  8  1  0  0  0  0
  5 34  1  6  0  0  0
  6  7  2  0  0  0  0
  6 22  1  0  0  0  0
  7 26  1  0  0  0  0
  7 35  1  0  0  0  0
  8  9  1  0  0  0  0
  8 36  1  0  0  0  0
  8 37  1  0  0  0  0
  9 10  1  0  0  0  0
  9 38  1  0  0  0  0
  9 39  1  0  0  0  0
 10 11  2  0  0  0  0
 10 21  1  0  0  0  0
 11 12  1  0  0  0  0
 11 40  1  0  0  0  0
 12 13  2  0  0  0  0
 12 19  1  0  0  0  0
 13 14  1  0  0  0  0
 13 17  1  0  0  0  0
 14 15  1  0  0  0  0
 14 21  2  0  0  0  0
 15 16  1  0  0  0  0
 16 41  1  0  0  0  0
 16 42  1  0  0  0  0
 16 43  1  0  0  0  0
 17 18  1  0  0  0  0
 18 44  1  0  0  0  0
 18 45  1  0  0  0  0
 18 46  1  0  0  0  0
 19 20  1  0  0  0  0
 20 47  1  0  0  0  0
 20 48  1  0  0  0  0
 20 49  1  0  0  0  0
 21 22  1  0  0  0  0
 22 23  2  0  0  0  0
 23 24  1  0  0  0  0
 23 50  1  0  0  0  0
 24 25  2  0  0  0  0
 24 51  1  0  0  0  0
 25 26  1  0  0  0  0
 25 28  1  0  0  0  0
 26 27  2  0  0  0  0
 28 29  1  0  0  0  0
 29 52  1  0  0  0  0
 29 53  1  0  0  0  0
 29 54  1  0  0  0  0
M  END
$$$$
