LU2
 OpenBabel04111918323D

 30 32  0  0  0  0  0  0  0  0999 V2000
   19.4318   41.1153   36.0729 C   0  0  0  0  0  0  0  0  0  0  0  0
   18.1953   40.5983   34.1413 O   0  0  0  0  0  0  0  0  0  0  0  0
   19.2971   41.1657   34.7079 C   0  0  0  0  0  0  0  0  0  0  0  0
   22.2501   42.9345   33.6227 O   0  0  0  0  0  0  0  0  0  0  0  0
   20.2651   41.7836   33.9158 C   0  0  0  0  0  0  0  0  0  0  0  0
   23.6267   43.6413   36.0964 O   0  0  0  0  0  0  0  0  0  0  0  0
   21.4190   42.4030   34.4294 C   0  0  0  0  0  0  0  0  0  0  0  0
   20.6353   41.5887   37.9934 O   0  3  0  0  0  0  0  0  0  0  0  0
   21.5329   42.3549   35.8377 C   0  0  0  0  0  0  0  0  0  0  0  0
   21.3373   39.8480   42.8367 O   0  0  0  0  0  0  0  0  0  0  0  0
   20.5558   41.7043   36.6326 C   0  0  0  0  0  0  0  0  0  0  0  0
   21.5011   42.2457   44.1481 O   0  0  0  0  0  0  0  0  0  0  0  0
   22.6821   42.9992   36.5541 C   0  0  0  0  0  0  0  0  0  0  0  0
   22.6696   42.8797   38.0074 C   0  0  0  0  0  0  0  0  0  0  0  0
   21.6823   42.2101   38.6013 C   0  0  0  0  0  0  0  0  0  0  0  0
   21.6341   42.1742   40.0525 C   0  0  0  0  0  0  0  0  0  0  0  0
   21.5027   40.9673   40.7465 C   0  0  0  0  0  0  0  0  0  0  0  0
   21.4558   41.0047   42.1289 C   0  0  0  0  0  0  0  0  0  0  0  0
   21.5365   42.2337   42.7845 C   0  0  0  0  0  0  0  0  0  0  0  0
   21.6477   43.4321   42.0913 C   0  0  0  0  0  0  0  0  0  0  0  0
   21.6816   43.4079   40.7173 C   0  0  0  0  0  0  0  0  0  0  0  0
   18.6771   40.6327   36.6831 H   0  0  0  0  0  0  0  0  0  0  0  0
   18.2997   40.7440   33.1863 H   0  0  0  0  0  0  0  0  0  0  0  0
   20.1526   41.8089   32.8342 H   0  0  0  0  0  0  0  0  0  0  0  0
   21.3233   40.1289   43.7722 H   0  0  0  0  0  0  0  0  0  0  0  0
   21.5753   43.1841   44.3992 H   0  0  0  0  0  0  0  0  0  0  0  0
   23.4568   43.4020   38.5290 H   0  0  0  0  0  0  0  0  0  0  0  0
   21.4479   40.0213   40.2142 H   0  0  0  0  0  0  0  0  0  0  0  0
   21.7095   44.3930   42.5929 H   0  0  0  0  0  0  0  0  0  0  0  0
   21.7520   44.3375   40.1518 H   0  0  0  0  0  0  0  0  0  0  0  0
  1  3  2  0  0  0  0
  1 11  1  0  0  0  0
  1 22  1  0  0  0  0
  2  3  1  0  0  0  0
  2 23  1  0  0  0  0
  3  5  1  0  0  0  0
  4  7  1  0  0  0  0
  5  7  2  0  0  0  0
  5 24  1  0  0  0  0
  6 13  2  0  0  0  0
  7  9  1  0  0  0  0
  8 11  1  0  0  0  0
  8 15  1  0  0  0  0
  9 11  2  0  0  0  0
  9 13  1  0  0  0  0
 10 18  1  0  0  0  0
 10 25  1  0  0  0  0
 12 19  1  0  0  0  0
 12 26  1  0  0  0  0
 13 14  1  0  0  0  0
 14 15  2  0  0  0  0
 14 27  1  0  0  0  0
 15 16  1  0  0  0  0
 16 17  2  0  0  0  0
 16 21  1  0  0  0  0
 17 18  1  0  0  0  0
 17 28  1  0  0  0  0
 18 19  2  0  0  0  0
 19 20  1  0  0  0  0
 20 21  2  0  0  0  0
 20 29  1  0  0  0  0
 21 30  1  0  0  0  0
M  CHG  1   8   1
M  END
$$$$
