LZ1
 OpenBabel04111917533D

 15 16  0  0  0  0  0  0  0  0999 V2000
   19.1486    7.6791   -2.1090 C   0  0  0  0  0  0  0  0  0  0  0  0
   20.2248    7.0499   -2.7314 C   0  0  0  0  0  0  0  0  0  0  0  0
   20.3391    5.6559   -2.6868 C   0  0  0  0  0  0  0  0  0  0  0  0
   19.3557    4.9327   -2.0081 C   0  0  0  0  0  0  0  0  0  0  0  0
   18.2861    5.5874   -1.3912 C   0  0  0  0  0  0  0  0  0  0  0  0
   18.1565    6.9791   -1.4278 C   0  0  0  0  0  0  0  0  0  0  0  0
   19.3390    9.0157   -2.3435 N   0  3  0  0  0  0  0  0  0  0  0  0
   20.9834    8.0937   -3.2865 C   0  0  0  0  0  0  0  0  0  0  0  0
   20.4520    9.2982   -3.0531 N   0  0  0  0  0  0  0  0  0  0  0  0
   21.1715    5.1560   -3.1731 H   0  0  0  0  0  0  0  0  0  0  0  0
   19.4314    3.8492   -1.9639 H   0  0  0  0  0  0  0  0  0  0  0  0
   17.5316    4.9972   -0.8731 H   0  0  0  0  0  0  0  0  0  0  0  0
   17.3241    7.4836   -0.9490 H   0  0  0  0  0  0  0  0  0  0  0  0
   18.7549    9.7830   -2.0348 H   0  0  0  0  0  0  0  0  0  0  0  0
   21.9022    8.0095   -3.8508 H   0  0  0  0  0  0  0  0  0  0  0  0
  1  2  1  0  0  0  0
  1  6  1  0  0  0  0
  1  7  2  0  0  0  0
  2  3  1  0  0  0  0
  2  8  2  0  0  0  0
  3  4  2  0  0  0  0
  3 10  1  0  0  0  0
  4  5  1  0  0  0  0
  4 11  1  0  0  0  0
  5  6  2  0  0  0  0
  5 12  1  0  0  0  0
  6 13  1  0  0  0  0
  7  9  1  0  0  0  0
  7 14  1  0  0  0  0
  8  9  1  0  0  0  0
  8 15  1  0  0  0  0
M  CHG  1   7   1
M  END
$$$$
