LZ6
 OpenBabel04111919163D

 71 71  0  0  1  0  0  0  0  0999 V2000
   20.2476   -9.3676   14.7897 O   0  0  0  0  0  0  0  0  0  0  0  0
   20.8716   -8.3699   15.1645 C   0  0  0  0  0  0  0  0  0  0  0  0
   20.6360   -7.1282   15.1923 O   0  0  0  0  0  0  0  0  0  0  0  0
   22.3794   -8.6737   15.5018 C   0  0  1  0  0  0  0  0  0  0  0  0
   23.2772   -7.5074   15.1288 N   0  3  0  0  0  0  0  0  0  0  0  0
   22.5205   -8.9148   16.9968 C   0  0  0  0  0  0  0  0  0  0  0  0
   21.7200  -10.1418   17.4324 C   0  0  0  0  0  0  0  0  0  0  0  0
   21.9195  -10.4344   18.9179 C   0  0  0  0  0  0  0  0  0  0  0  0
   22.6101   -9.6810   19.6119 O   0  0  0  0  0  0  0  0  0  0  0  0
   21.3081  -11.5365   19.3732 N   0  0  0  0  0  0  0  0  0  0  0  0
   21.4125  -11.8869   20.7768 C   0  0  2  0  0  0  0  0  0  0  0  0
   21.8397  -13.3599   20.8825 C   0  0  0  0  0  0  0  0  0  0  0  0
   21.1942  -14.2477   20.2733 O   0  0  0  0  0  0  0  0  0  0  0  0
   22.8269  -13.6281   21.7510 N   0  0  0  0  0  0  0  0  0  0  0  0
   23.4182  -14.9636   21.8942 C   0  0  0  0  0  0  0  0  0  0  0  0
   24.8833  -15.0620   21.4083 C   0  0  0  0  0  0  0  0  0  0  0  0
   25.4713  -16.1290   21.6686 O   0  0  0  0  0  0  0  0  0  0  0  0
   25.3193  -14.0198   20.8586 O   0  0  0  0  0  0  0  0  0  0  0  0
   20.0820  -11.7319   21.4860 C   0  0  0  0  0  0  0  0  0  0  0  0
   19.4077  -10.0338   21.4043 S   0  0  0  0  0  0  0  0  0  0  0  0
   18.2997  -10.1529   22.8393 C   0  0  0  0  0  0  0  0  0  0  0  0
   19.0783  -10.2252   24.1452 C   0  0  0  0  0  0  0  0  0  0  0  0
   19.7801   -8.9785   24.4074 N   0  0  0  0  0  0  0  0  0  0  0  0
   21.1604   -8.7824   24.0135 C   0  0  0  0  0  0  0  0  0  0  0  0
   22.0842   -9.4344   25.0265 C   0  0  0  0  0  0  0  0  0  0  0  0
   21.9194  -11.1968   25.0184 Cl  0  0  0  0  0  0  0  0  0  0  0  0
   19.0310   -7.9310   24.9005 C   0  0  0  0  0  0  0  0  0  0  0  0
   17.6623   -8.1322   25.2228 C   0  0  0  0  0  0  0  0  0  0  0  0
   16.9081   -7.1170   25.6854 C   0  0  0  0  0  0  0  0  0  0  0  0
   17.4754   -5.8664   25.8866 C   0  0  0  0  0  0  0  0  0  0  0  0
   18.8186   -5.6434   25.6007 C   0  0  0  0  0  0  0  0  0  0  0  0
   19.5827   -6.6660   25.1225 C   0  0  0  0  0  0  0  0  0  0  0  0
   16.5995   -4.7550   26.3982 C   0  0  0  0  0  0  0  0  0  0  0  0
   17.0650   -4.1836   27.7312 C   0  0  0  0  0  0  0  0  0  0  0  0
   16.0136   -3.2572   28.3357 C   0  0  0  0  0  0  0  0  0  0  0  0
   15.6018   -2.1239   27.3881 C   0  0  0  0  0  0  0  0  0  0  0  0
   15.1471   -2.4661   26.2602 O   0  0  0  0  0  0  0  0  0  0  0  0
   15.7257   -0.9556   27.8562 O   0  0  0  0  0  0  0  0  0  0  0  0
   22.7537   -9.5421   14.9441 H   0  0  0  0  0  0  0  0  0  0  0  0
   24.2358   -7.7043   15.3740 H   0  0  0  0  0  0  0  0  0  0  0  0
   23.1562   -7.3396   14.1275 H   0  0  0  0  0  0  0  0  0  0  0  0
   22.1626   -8.0365   17.5508 H   0  0  0  0  0  0  0  0  0  0  0  0
   23.5775   -9.0676   17.2583 H   0  0  0  0  0  0  0  0  0  0  0  0
   22.0435  -11.0147   16.8530 H   0  0  0  0  0  0  0  0  0  0  0  0
   20.6538   -9.9691   17.2530 H   0  0  0  0  0  0  0  0  0  0  0  0
   20.7525  -12.1017   18.7520 H   0  0  0  0  0  0  0  0  0  0  0  0
   22.1802  -11.2877   21.2752 H   0  0  0  0  0  0  0  0  0  0  0  0
   23.3463  -12.8545   22.1443 H   0  0  0  0  0  0  0  0  0  0  0  0
   22.8083  -15.6954   21.3491 H   0  0  0  0  0  0  0  0  0  0  0  0
   23.3621  -15.2032   22.9657 H   0  0  0  0  0  0  0  0  0  0  0  0
   20.1982  -12.0354   22.5249 H   0  0  0  0  0  0  0  0  0  0  0  0
   19.3334  -12.3810   21.0245 H   0  0  0  0  0  0  0  0  0  0  0  0
   17.6792  -11.0437   22.7297 H   0  0  0  0  0  0  0  0  0  0  0  0
   17.6474   -9.2755   22.8468 H   0  0  0  0  0  0  0  0  0  0  0  0
   19.7630  -11.0535   24.1172 H   0  0  0  0  0  0  0  0  0  0  0  0
   18.4173  -10.4863   24.9855 H   0  0  0  0  0  0  0  0  0  0  0  0
   21.4466   -7.7354   23.9727 H   0  0  0  0  0  0  0  0  0  0  0  0
   21.3505   -9.1692   23.0208 H   0  0  0  0  0  0  0  0  0  0  0  0
   21.8560   -9.1102   26.0481 H   0  0  0  0  0  0  0  0  0  0  0  0
   23.1315   -9.2590   24.7766 H   0  0  0  0  0  0  0  0  0  0  0  0
   17.2069   -9.0909   25.0502 H   0  0  0  0  0  0  0  0  0  0  0  0
   15.8534   -7.3052   25.9009 H   0  0  0  0  0  0  0  0  0  0  0  0
   19.2646   -4.6653   25.7547 H   0  0  0  0  0  0  0  0  0  0  0  0
   20.6266   -6.4682   24.9080 H   0  0  0  0  0  0  0  0  0  0  0  0
   15.5694   -5.1169   26.5078 H   0  0  0  0  0  0  0  0  0  0  0  0
   16.6036   -3.9625   25.6385 H   0  0  0  0  0  0  0  0  0  0  0  0
   17.9992   -3.6255   27.5894 H   0  0  0  0  0  0  0  0  0  0  0  0
   17.2698   -5.0102   28.4268 H   0  0  0  0  0  0  0  0  0  0  0  0
   16.4085   -2.8293   29.2690 H   0  0  0  0  0  0  0  0  0  0  0  0
   15.1230   -3.8498   28.5921 H   0  0  0  0  0  0  0  0  0  0  0  0
   22.9062   -6.6889   15.6184 H   0  0  0  0  0  0  0  0  0  0  0  0
  1  2  2  0  0  0  0
  2  3  1  0  0  0  0
  2  4  1  0  0  0  0
  4  5  1  0  0  0  0
  4  6  1  0  0  0  0
  4 39  1  6  0  0  0
  5 40  1  0  0  0  0
  5 41  1  0  0  0  0
  5 71  1  0  0  0  0
  6  7  1  0  0  0  0
  6 42  1  0  0  0  0
  6 43  1  0  0  0  0
  7  8  1  0  0  0  0
  7 44  1  0  0  0  0
  7 45  1  0  0  0  0
  8  9  2  0  0  0  0
  8 10  1  0  0  0  0
 10 11  1  0  0  0  0
 10 46  1  0  0  0  0
 11 12  1  0  0  0  0
 11 19  1  0  0  0  0
 11 47  1  1  0  0  0
 12 13  2  0  0  0  0
 12 14  1  0  0  0  0
 14 15  1  0  0  0  0
 14 48  1  0  0  0  0
 15 16  1  0  0  0  0
 15 49  1  0  0  0  0
 15 50  1  0  0  0  0
 16 17  2  0  0  0  0
 16 18  1  0  0  0  0
 19 20  1  0  0  0  0
 19 51  1  0  0  0  0
 19 52  1  0  0  0  0
 20 21  1  0  0  0  0
 21 22  1  0  0  0  0
 21 53  1  0  0  0  0
 21 54  1  0  0  0  0
 22 23  1  0  0  0  0
 22 55  1  0  0  0  0
 22 56  1  0  0  0  0
 23 24  1  0  0  0  0
 23 27  1  0  0  0  0
 24 25  1  0  0  0  0
 24 57  1  0  0  0  0
 24 58  1  0  0  0  0
 25 26  1  0  0  0  0
 25 59  1  0  0  0  0
 25 60  1  0  0  0  0
 27 28  2  0  0  0  0
 27 32  1  0  0  0  0
 28 29  1  0  0  0  0
 28 61  1  0  0  0  0
 29 30  2  0  0  0  0
 29 62  1  0  0  0  0
 30 31  1  0  0  0  0
 30 33  1  0  0  0  0
 31 32  2  0  0  0  0
 31 63  1  0  0  0  0
 32 64  1  0  0  0  0
 33 34  1  0  0  0  0
 33 65  1  0  0  0  0
 33 66  1  0  0  0  0
 34 35  1  0  0  0  0
 34 67  1  0  0  0  0
 34 68  1  0  0  0  0
 35 36  1  0  0  0  0
 35 69  1  0  0  0  0
 35 70  1  0  0  0  0
 36 37  2  0  0  0  0
 36 38  1  0  0  0  0
M  CHG  1   5   1
M  END
$$$$
