M3N
 OpenBabel04111921023D

 33 34  0  0  1  0  0  0  0  0999 V2000
  -16.3886  -14.6577  -32.0362 C   0  0  2  0  0  0  0  0  0  0  0  0
  -14.8901  -14.8831  -31.7650 C   0  0  1  0  0  0  0  0  0  0  0  0
  -14.6548  -16.2909  -31.5446 O   0  0  0  0  0  0  0  0  0  0  0  0
  -14.0191  -14.4206  -32.9369 C   0  0  1  0  0  0  0  0  0  0  0  0
  -12.6470  -14.8137  -32.7467 O   0  0  0  0  0  0  0  0  0  0  0  0
  -14.5066  -15.0014  -34.2677 C   0  0  2  0  0  0  0  0  0  0  0  0
  -13.7772  -14.3661  -35.3360 O   0  0  0  0  0  0  0  0  0  0  0  0
  -16.0005  -14.7284  -34.4521 C   0  0  2  0  0  0  0  0  0  0  0  0
  -16.8080  -15.1000  -33.3338 O   0  0  0  0  0  0  0  0  0  0  0  0
  -16.5523  -15.4862  -35.6791 C   0  0  0  0  0  0  0  0  0  0  0  0
  -16.6582  -16.8924  -35.4585 O   0  0  0  0  0  0  0  0  0  0  0  0
  -17.9803  -11.4530  -31.7061 C   0  0  0  0  0  0  0  0  0  0  0  0
  -17.5980  -12.4803  -32.5301 C   0  0  0  0  0  0  0  0  0  0  0  0
  -16.8839  -13.3187  -31.7301 N   0  3  0  0  0  0  0  0  0  0  0  0
  -16.8343  -12.8400  -30.4796 N   0  0  0  0  0  0  0  0  0  0  0  0
  -17.5010  -11.6911  -30.4490 N   0  0  0  0  0  0  0  0  0  0  0  0
  -18.8241  -10.2820  -32.0547 C   0  0  0  0  0  0  0  0  0  0  0  0
  -19.8270  -10.6230  -33.0143 O   0  0  0  0  0  0  0  0  0  0  0  0
  -16.9531  -15.2983  -31.3445 H   0  0  0  0  0  0  0  0  0  0  0  0
  -14.5623  -14.3800  -30.8476 H   0  0  0  0  0  0  0  0  0  0  0  0
  -15.1237  -16.5576  -30.7336 H   0  0  0  0  0  0  0  0  0  0  0  0
  -14.0163  -13.3215  -32.9980 H   0  0  0  0  0  0  0  0  0  0  0  0
  -12.3592  -14.5166  -31.8699 H   0  0  0  0  0  0  0  0  0  0  0  0
  -14.2759  -16.0730  -34.2929 H   0  0  0  0  0  0  0  0  0  0  0  0
  -13.9474  -14.8492  -36.1615 H   0  0  0  0  0  0  0  0  0  0  0  0
  -16.1305  -13.6559  -34.6589 H   0  0  0  0  0  0  0  0  0  0  0  0
  -15.9361  -15.3332  -36.5704 H   0  0  0  0  0  0  0  0  0  0  0  0
  -17.5604  -15.1289  -35.9131 H   0  0  0  0  0  0  0  0  0  0  0  0
  -15.8392  -17.2189  -35.0501 H   0  0  0  0  0  0  0  0  0  0  0  0
  -17.8202  -12.6786  -33.5696 H   0  0  0  0  0  0  0  0  0  0  0  0
  -18.1950   -9.5033  -32.4982 H   0  0  0  0  0  0  0  0  0  0  0  0
  -19.3247   -9.8659  -31.1775 H   0  0  0  0  0  0  0  0  0  0  0  0
  -20.3125  -11.3832  -32.6423 H   0  0  0  0  0  0  0  0  0  0  0  0
  1  2  1  0  0  0  0
  1  9  1  0  0  0  0
  1 14  1  0  0  0  0
  1 19  1  1  0  0  0
  2  3  1  0  0  0  0
  2  4  1  0  0  0  0
  2 20  1  1  0  0  0
  3 21  1  0  0  0  0
  4  5  1  0  0  0  0
  4  6  1  0  0  0  0
  4 22  1  6  0  0  0
  5 23  1  0  0  0  0
  6  7  1  0  0  0  0
  6  8  1  0  0  0  0
  6 24  1  6  0  0  0
  7 25  1  0  0  0  0
  8  9  1  0  0  0  0
  8 10  1  0  0  0  0
  8 26  1  6  0  0  0
 10 11  1  0  0  0  0
 10 27  1  0  0  0  0
 10 28  1  0  0  0  0
 11 29  1  0  0  0  0
 12 13  1  0  0  0  0
 12 16  2  0  0  0  0
 12 17  1  0  0  0  0
 13 14  2  0  0  0  0
 13 30  1  0  0  0  0
 14 15  1  0  0  0  0
 15 16  1  0  0  0  0
 17 18  1  0  0  0  0
 17 31  1  0  0  0  0
 17 32  1  0  0  0  0
 18 33  1  0  0  0  0
M  CHG  1  14   1
M  END
$$$$
