M3T
 OpenBabel04111921213D

 15 15  0  0  0  0  0  0  0  0999 V2000
   15.9878    4.5566   13.8126 C   0  0  0  0  0  0  0  0  0  0  0  0
   15.5203    3.6826   14.9322 C   0  0  0  0  0  0  0  0  0  0  0  0
   15.9818    2.3628   15.0489 C   0  0  0  0  0  0  0  0  0  0  0  0
   15.5404    1.5563   16.0964 C   0  0  0  0  0  0  0  0  0  0  0  0
   16.1091   -0.0560   16.2322 S   0  0  0  0  0  0  0  0  0  0  0  0
   14.6399    2.0584   17.0305 C   0  0  0  0  0  0  0  0  0  0  0  0
   14.1757    3.3720   16.9211 C   0  0  0  0  0  0  0  0  0  0  0  0
   14.6140    4.1826   15.8753 C   0  0  0  0  0  0  0  0  0  0  0  0
   16.6908    4.0305   13.1588 H   0  0  0  0  0  0  0  0  0  0  0  0
   16.4951    5.4395   14.2149 H   0  0  0  0  0  0  0  0  0  0  0  0
   15.1337    4.8746   13.2058 H   0  0  0  0  0  0  0  0  0  0  0  0
   16.6859    1.9632   14.3227 H   0  0  0  0  0  0  0  0  0  0  0  0
   14.2923    1.4332   17.8500 H   0  0  0  0  0  0  0  0  0  0  0  0
   13.4742    3.7552   17.6540 H   0  0  0  0  0  0  0  0  0  0  0  0
   14.2496    5.2023   15.7968 H   0  0  0  0  0  0  0  0  0  0  0  0
  1  2  1  0  0  0  0
  1  9  1  0  0  0  0
  1 10  1  0  0  0  0
  1 11  1  0  0  0  0
  2  3  2  0  0  0  0
  2  8  1  0  0  0  0
  3  4  1  0  0  0  0
  3 12  1  0  0  0  0
  4  5  1  0  0  0  0
  4  6  2  0  0  0  0
  6  7  1  0  0  0  0
  6 13  1  0  0  0  0
  7  8  2  0  0  0  0
  7 14  1  0  0  0  0
  8 15  1  0  0  0  0
M  END
$$$$
