M73
 OpenBabel04111918333D

 79 80  0  0  1  0  0  0  0  0999 V2000
   20.7844   29.5338   11.7926 O   0  0  0  0  0  0  0  0  0  0  0  0
   21.0440   28.5383   12.4446 C   0  0  0  0  0  0  0  0  0  0  0  0
   21.7460   27.4766   11.9823 O   0  0  0  0  0  0  0  0  0  0  0  0
   22.0437   27.5689   10.5784 C   0  0  0  0  0  0  0  0  0  0  0  0
   22.8336   26.3358   10.1575 C   0  0  2  0  0  0  0  0  0  0  0  0
   21.9720   25.0785   10.2961 C   0  0  0  0  0  0  0  0  0  0  0  0
   24.0973   26.2435   10.9958 C   0  0  0  0  0  0  0  0  0  0  0  0
   24.4136   25.2855   11.6861 O   0  0  0  0  0  0  0  0  0  0  0  0
   24.8473   27.3782   10.8584 O   0  0  0  0  0  0  0  0  0  0  0  0
   26.0155   27.4238   11.6825 C   0  0  0  0  0  0  0  0  0  0  0  0
   20.6422   28.3002   13.7237 N   0  0  0  0  0  0  0  0  0  0  0  0
   19.5100   29.0332   14.2915 C   0  0  1  0  0  0  0  0  0  0  0  0
   18.2113   28.1963   14.1882 C   0  0  0  0  0  0  0  0  0  0  0  0
   17.8678   27.8695   12.7544 C   0  0  0  0  0  0  0  0  0  0  0  0
   17.2926   28.8423   11.9302 C   0  0  0  0  0  0  0  0  0  0  0  0
   17.1006   28.5950   10.5737 C   0  0  0  0  0  0  0  0  0  0  0  0
   17.4717   27.3665   10.0319 C   0  0  0  0  0  0  0  0  0  0  0  0
   18.0341   26.3854   10.8470 C   0  0  0  0  0  0  0  0  0  0  0  0
   18.2302   26.6339   12.2041 C   0  0  0  0  0  0  0  0  0  0  0  0
   19.8565   29.4515   15.7352 C   0  0  2  0  0  0  0  0  0  0  0  0
   19.8713   28.3216   16.6206 O   0  0  0  0  0  0  0  0  0  0  0  0
   18.9487   30.5597   16.3062 C   0  0  0  0  0  0  0  0  0  0  0  0
   19.1216   31.8151   15.5415 N   0  0  0  0  0  0  0  0  0  0  0  0
   19.9511   32.8449   16.2121 C   0  0  0  0  0  0  0  0  0  0  0  0
   21.4519   32.5407   16.1516 C   0  0  1  0  0  0  0  0  0  0  0  0
   21.9540   32.4986   14.7058 C   0  0  0  0  0  0  0  0  0  0  0  0
   22.2259   33.5622   17.0063 C   0  0  0  0  0  0  0  0  0  0  0  0
   22.0457   35.0140   16.5791 C   0  0  0  0  0  0  0  0  0  0  0  0
   17.8008   32.4018   14.6436 S   0  0  0  0  0  0  0  0  0  0  0  0
   18.3118   33.3213   13.6471 O   0  0  0  0  0  0  0  0  0  0  0  0
   16.9602   31.2831   14.2747 O   0  0  0  0  0  0  0  0  0  0  0  0
   16.9097   33.3658   15.8378 C   0  0  0  0  0  0  0  0  0  0  0  0
   17.1449   34.7415   15.9051 C   0  0  0  0  0  0  0  0  0  0  0  0
   16.4591   35.5152   16.8369 C   0  0  0  0  0  0  0  0  0  0  0  0
   15.9649   32.7623   16.6656 C   0  0  0  0  0  0  0  0  0  0  0  0
   15.2832   33.5461   17.5991 C   0  0  0  0  0  0  0  0  0  0  0  0
   15.5304   34.9221   17.6935 C   0  0  0  0  0  0  0  0  0  0  0  0
   14.8034   35.5872   18.6433 O   0  0  0  0  0  0  0  0  0  0  0  0
   15.1131   36.9672   18.8171 C   0  0  0  0  0  0  0  0  0  0  0  0
   22.6149   28.4841   10.3842 H   0  0  0  0  0  0  0  0  0  0  0  0
   21.1045   27.6202   10.0151 H   0  0  0  0  0  0  0  0  0  0  0  0
   23.1292   26.4278    9.1062 H   0  0  0  0  0  0  0  0  0  0  0  0
   22.5272   24.1871    9.9884 H   0  0  0  0  0  0  0  0  0  0  0  0
   21.0775   25.1490    9.6651 H   0  0  0  0  0  0  0  0  0  0  0  0
   21.6408   24.9218   11.3287 H   0  0  0  0  0  0  0  0  0  0  0  0
   26.5255   28.3742   11.4974 H   0  0  0  0  0  0  0  0  0  0  0  0
   26.6999   26.6095   11.4272 H   0  0  0  0  0  0  0  0  0  0  0  0
   25.7426   27.3845   12.7423 H   0  0  0  0  0  0  0  0  0  0  0  0
   20.9360   27.4291   14.1505 H   0  0  0  0  0  0  0  0  0  0  0  0
   19.3841   29.9421   13.6901 H   0  0  0  0  0  0  0  0  0  0  0  0
   17.3649   28.7257   14.6397 H   0  0  0  0  0  0  0  0  0  0  0  0
   18.3091   27.2591   14.7494 H   0  0  0  0  0  0  0  0  0  0  0  0
   17.0269   29.8193   12.3266 H   0  0  0  0  0  0  0  0  0  0  0  0
   16.6823   29.3726    9.9405 H   0  0  0  0  0  0  0  0  0  0  0  0
   17.3317   27.1807    8.9719 H   0  0  0  0  0  0  0  0  0  0  0  0
   18.3391   25.4337   10.4215 H   0  0  0  0  0  0  0  0  0  0  0  0
   18.7084   25.8757   12.8201 H   0  0  0  0  0  0  0  0  0  0  0  0
   20.8879   29.8158   15.7231 H   0  0  0  0  0  0  0  0  0  0  0  0
   18.9699   27.9642   16.6784 H   0  0  0  0  0  0  0  0  0  0  0  0
   19.1982   30.7186   17.3624 H   0  0  0  0  0  0  0  0  0  0  0  0
   17.9073   30.2262   16.3208 H   0  0  0  0  0  0  0  0  0  0  0  0
   19.6264   32.9378   17.2562 H   0  0  0  0  0  0  0  0  0  0  0  0
   19.7802   33.8124   15.7354 H   0  0  0  0  0  0  0  0  0  0  0  0
   21.6440   31.5619   16.6032 H   0  0  0  0  0  0  0  0  0  0  0  0
   23.0283   32.2903   14.6752 H   0  0  0  0  0  0  0  0  0  0  0  0
   21.7730   33.4443   14.1855 H   0  0  0  0  0  0  0  0  0  0  0  0
   21.4512   31.7119   14.1338 H   0  0  0  0  0  0  0  0  0  0  0  0
   23.2942   33.3152   16.9891 H   0  0  0  0  0  0  0  0  0  0  0  0
   21.8999   33.4645   18.0498 H   0  0  0  0  0  0  0  0  0  0  0  0
   22.6156   35.6718   17.2393 H   0  0  0  0  0  0  0  0  0  0  0  0
   20.9972   35.3275   16.6378 H   0  0  0  0  0  0  0  0  0  0  0  0
   22.3956   35.1741   15.5577 H   0  0  0  0  0  0  0  0  0  0  0  0
   17.8620   35.2205   15.2410 H   0  0  0  0  0  0  0  0  0  0  0  0
   16.6686   36.5791   16.8598 H   0  0  0  0  0  0  0  0  0  0  0  0
   15.7508   31.6994   16.5862 H   0  0  0  0  0  0  0  0  0  0  0  0
   14.5489   33.0828   18.2546 H   0  0  0  0  0  0  0  0  0  0  0  0
   14.4642   37.3664   19.6012 H   0  0  0  0  0  0  0  0  0  0  0  0
   14.9151   37.5380   17.9028 H   0  0  0  0  0  0  0  0  0  0  0  0
   16.1515   37.0957   19.1428 H   0  0  0  0  0  0  0  0  0  0  0  0
  1  2  2  0  0  0  0
  2  3  1  0  0  0  0
  2 11  1  0  0  0  0
  3  4  1  0  0  0  0
  4  5  1  0  0  0  0
  4 40  1  0  0  0  0
  4 41  1  0  0  0  0
  5  6  1  0  0  0  0
  5  7  1  0  0  0  0
  5 42  1  6  0  0  0
  6 43  1  0  0  0  0
  6 44  1  0  0  0  0
  6 45  1  0  0  0  0
  7  8  2  0  0  0  0
  7  9  1  0  0  0  0
  9 10  1  0  0  0  0
 10 46  1  0  0  0  0
 10 47  1  0  0  0  0
 10 48  1  0  0  0  0
 11 12  1  0  0  0  0
 11 49  1  0  0  0  0
 12 13  1  0  0  0  0
 12 20  1  0  0  0  0
 12 50  1  6  0  0  0
 13 14  1  0  0  0  0
 13 51  1  0  0  0  0
 13 52  1  0  0  0  0
 14 15  2  0  0  0  0
 14 19  1  0  0  0  0
 15 16  1  0  0  0  0
 15 53  1  0  0  0  0
 16 17  2  0  0  0  0
 16 54  1  0  0  0  0
 17 18  1  0  0  0  0
 17 55  1  0  0  0  0
 18 19  2  0  0  0  0
 18 56  1  0  0  0  0
 19 57  1  0  0  0  0
 20 21  1  0  0  0  0
 20 22  1  0  0  0  0
 20 58  1  6  0  0  0
 21 59  1  0  0  0  0
 22 23  1  0  0  0  0
 22 60  1  0  0  0  0
 22 61  1  0  0  0  0
 23 24  1  0  0  0  0
 23 29  1  0  0  0  0
 24 25  1  0  0  0  0
 24 62  1  0  0  0  0
 24 63  1  0  0  0  0
 25 26  1  0  0  0  0
 25 27  1  0  0  0  0
 25 64  1  1  0  0  0
 26 65  1  0  0  0  0
 26 66  1  0  0  0  0
 26 67  1  0  0  0  0
 27 28  1  0  0  0  0
 27 68  1  0  0  0  0
 27 69  1  0  0  0  0
 28 70  1  0  0  0  0
 28 71  1  0  0  0  0
 28 72  1  0  0  0  0
 29 30  2  0  0  0  0
 29 31  2  0  0  0  0
 29 32  1  0  0  0  0
 32 33  2  0  0  0  0
 32 35  1  0  0  0  0
 33 34  1  0  0  0  0
 33 73  1  0  0  0  0
 34 37  2  0  0  0  0
 34 74  1  0  0  0  0
 35 36  2  0  0  0  0
 35 75  1  0  0  0  0
 36 37  1  0  0  0  0
 36 76  1  0  0  0  0
 37 38  1  0  0  0  0
 38 39  1  0  0  0  0
 39 77  1  0  0  0  0
 39 78  1  0  0  0  0
 39 79  1  0  0  0  0
M  END
$$$$
