M7G
 OpenBabel04111920563D

 44 46  0  0  1  0  0  0  0  0999 V2000
   -9.9609   24.9765  -46.3635 P   0  0  2  0  0  0  0  0  0  0  0  0
   -9.8424   26.4608  -46.6461 O   0  0  0  0  0  0  0  0  0  0  0  0
   -9.0005   24.0730  -47.1457 O   0  0  0  0  0  0  0  0  0  0  0  0
  -11.4373   24.3657  -46.4237 O   0  0  0  0  0  0  0  0  0  0  0  0
   -9.5222   24.7414  -44.8098 O   0  0  0  0  0  0  0  0  0  0  0  0
  -12.8425   24.7030  -45.6961 P   0  0  0  0  0  0  0  0  0  0  0  0
  -13.1566   26.1646  -45.9397 O   0  0  0  0  0  0  0  0  0  0  0  0
  -13.8390   23.7599  -46.3968 O   0  0  0  0  0  0  0  0  0  0  0  0
  -12.6530   24.3142  -44.2320 O   0  0  0  0  0  0  0  0  0  0  0  0
   -9.3594   23.4075  -44.3873 C   0  0  0  0  0  0  0  0  0  0  0  0
   -8.2944   23.3910  -43.2934 C   0  0  1  0  0  0  0  0  0  0  0  0
   -8.3854   22.1228  -42.5697 O   0  0  0  0  0  0  0  0  0  0  0  0
   -6.8735   23.4664  -43.8914 C   0  0  1  0  0  0  0  0  0  0  0  0
   -5.9351   24.0889  -42.9801 O   0  0  0  0  0  0  0  0  0  0  0  0
   -6.4595   22.0013  -43.9702 C   0  0  1  0  0  0  0  0  0  0  0  0
   -5.0372   21.8279  -43.8436 O   0  0  0  0  0  0  0  0  0  0  0  0
   -7.1604   21.4517  -42.7356 C   0  0  2  0  0  0  0  0  0  0  0  0
   -7.3106   20.0047  -42.6860 N   0  0  2  0  0  0  0  0  0  0  0  0
   -7.9185   19.2234  -43.7552 C   0  0  0  0  0  0  0  0  0  0  0  0
   -8.0797   17.8565  -43.1264 N   0  0  0  0  0  0  0  0  0  0  0  0
   -8.4412   16.7855  -43.7451 C   0  0  0  0  0  0  0  0  0  0  0  0
   -7.7938   18.0331  -41.7477 C   0  0  2  0  0  0  0  0  0  0  0  0
   -7.9645   17.1432  -40.5568 C   0  0  0  0  0  0  0  0  0  0  0  0
   -8.2581   15.9567  -40.6600 O   0  0  0  0  0  0  0  0  0  0  0  0
   -7.7432   17.7652  -39.3079 N   0  3  0  0  0  0  0  0  0  0  0  0
   -7.3721   19.0860  -39.1522 C   0  0  0  0  0  0  0  0  0  0  0  0
   -7.2724   19.5573  -37.9622 N   0  0  0  0  0  0  0  0  0  0  0  0
   -7.1144   19.7806  -40.2754 N   0  3  0  0  0  0  0  0  0  0  0  0
   -7.3744   19.2848  -41.4944 C   0  0  2  0  0  0  0  0  0  0  0  0
   -9.0240   22.7612  -45.2063 H   0  0  0  0  0  0  0  0  0  0  0  0
  -10.3018   22.9921  -44.0238 H   0  0  0  0  0  0  0  0  0  0  0  0
   -8.4536   24.2168  -42.5875 H   0  0  0  0  0  0  0  0  0  0  0  0
   -6.8192   23.9872  -44.8527 H   0  0  0  0  0  0  0  0  0  0  0  0
   -5.1893   24.3619  -43.5503 H   0  0  0  0  0  0  0  0  0  0  0  0
   -6.8122   21.5260  -44.8867 H   0  0  0  0  0  0  0  0  0  0  0  0
   -4.7937   22.3496  -43.0495 H   0  0  0  0  0  0  0  0  0  0  0  0
   -6.5323   21.7372  -41.8757 H   0  0  0  0  0  0  0  0  0  0  0  0
   -7.2663   19.1062  -44.6259 H   0  0  0  0  0  0  0  0  0  0  0  0
   -8.9251   19.5454  -44.0181 H   0  0  0  0  0  0  0  0  0  0  0  0
   -8.4903   15.7906  -43.2804 H   0  0  0  0  0  0  0  0  0  0  0  0
   -8.6845   16.8887  -44.8153 H   0  0  0  0  0  0  0  0  0  0  0  0
   -7.9039   17.2512  -38.4528 H   0  0  0  0  0  0  0  0  0  0  0  0
   -7.0050   20.5562  -38.0321 H   0  0  0  0  0  0  0  0  0  0  0  0
   -7.0335   20.7774  -40.1801 H   0  0  0  0  0  0  0  0  0  0  0  0
  1  2  2  6  0  0  0
  1  3  1  0  0  0  0
  1  4  1  0  0  0  0
  1  5  1  0  0  0  0
  4  6  1  0  0  0  0
  5 10  1  0  0  0  0
  6  7  2  0  0  0  0
  6  8  1  0  0  0  0
  6  9  1  0  0  0  0
 10 11  1  0  0  0  0
 10 30  1  0  0  0  0
 10 31  1  0  0  0  0
 11 12  1  0  0  0  0
 11 13  1  0  0  0  0
 11 32  1  1  0  0  0
 12 17  1  0  0  0  0
 13 14  1  0  0  0  0
 13 15  1  0  0  0  0
 13 33  1  6  0  0  0
 14 34  1  0  0  0  0
 15 16  1  0  0  0  0
 15 17  1  0  0  0  0
 15 35  1  6  0  0  0
 16 36  1  0  0  0  0
 17 18  1  0  0  0  0
 17 37  1  1  0  0  0
 18 19  1  1  0  0  0
 18 29  1  0  0  0  0
 19 20  1  0  0  0  0
 19 38  1  0  0  0  0
 19 39  1  0  0  0  0
 20 21  2  0  0  0  0
 21 40  1  0  0  0  0
 21 41  1  0  0  0  0
 22 20  1  1  0  0  0
 22 23  1  0  0  0  0
 22 29  1  0  0  0  0
 23 24  2  0  0  0  0
 23 25  1  0  0  0  0
 25 26  1  0  0  0  0
 25 42  1  0  0  0  0
 26 27  2  0  0  0  0
 26 28  1  0  0  0  0
 27 43  1  0  0  0  0
 28 44  1  0  0  0  0
 29 28  1  1  0  0  0
M  CHG  2  25   1  28   1
M  END
$$$$
