MAB
 OpenBabel04111921023D

 43 44  0  0  1  0  0  0  0  0999 V2000
  123.7263  102.9957   11.3603 C   0  0  0  0  0  0  0  0  0  0  0  0
  125.0023  102.4691   11.9717 C   0  0  2  0  0  0  0  0  0  0  0  0
  124.6437  101.0700   12.4715 C   0  0  2  0  0  0  0  0  0  0  0  0
  123.4908  101.2003   13.4894 C   0  0  1  0  0  0  0  0  0  0  0  0
  122.3189  101.9631   12.8372 C   0  0  1  0  0  0  0  0  0  0  0  0
  121.1677  102.2017   13.8273 C   0  0  0  0  0  0  0  0  0  0  0  0
  125.4886  103.2866   13.0420 O   0  0  0  0  0  0  0  0  0  0  0  0
  125.8008  100.4907   13.0691 O   0  0  0  0  0  0  0  0  0  0  0  0
  123.0097   99.9093   13.8699 O   0  0  0  0  0  0  0  0  0  0  0  0
  122.7445  103.2132   12.2863 O   0  0  0  0  0  0  0  0  0  0  0  0
  120.0417  102.7680   13.1607 O   0  0  0  0  0  0  0  0  0  0  0  0
  123.3050   99.6348   15.2398 C   0  0  1  0  0  0  0  0  0  0  0  0
  122.4830   98.4081   15.6558 C   0  0  2  0  0  0  0  0  0  0  0  0
  122.8380   98.0410   17.0949 C   0  0  2  0  0  0  0  0  0  0  0  0
  124.3566   97.8800   17.2731 C   0  0  1  0  0  0  0  0  0  0  0  0
  125.0538   99.1523   16.7598 C   0  0  1  0  0  0  0  0  0  0  0  0
  126.5855   99.0998   16.8720 C   0  0  0  0  0  0  0  0  0  0  0  0
  122.7496   97.3074   14.7695 O   0  0  0  0  0  0  0  0  0  0  0  0
  122.1285   96.8645   17.4881 O   0  0  0  0  0  0  0  0  0  0  0  0
  124.6190   97.6840   18.6694 O   0  0  0  0  0  0  0  0  0  0  0  0
  124.6965   99.4046   15.4019 O   0  0  0  0  0  0  0  0  0  0  0  0
  127.1760   97.9871   16.2091 O   0  0  0  0  0  0  0  0  0  0  0  0
  123.5230  103.0868   10.1533 O   0  0  0  0  0  0  0  0  0  0  0  0
  125.8000  102.4188   11.2285 H   0  0  0  0  0  0  0  0  0  0  0  0
  124.3191  100.4174   11.6491 H   0  0  0  0  0  0  0  0  0  0  0  0
  123.8492  101.7638   14.3516 H   0  0  0  0  0  0  0  0  0  0  0  0
  121.8967  101.3660   12.0104 H   0  0  0  0  0  0  0  0  0  0  0  0
  121.4514  102.8812   14.6318 H   0  0  0  0  0  0  0  0  0  0  0  0
  120.8351  101.2574   14.2636 H   0  0  0  0  0  0  0  0  0  0  0  0
  126.1509  102.7529   13.5242 H   0  0  0  0  0  0  0  0  0  0  0  0
  126.4382  100.2654   12.3684 H   0  0  0  0  0  0  0  0  0  0  0  0
  120.3303  103.6058   12.7564 H   0  0  0  0  0  0  0  0  0  0  0  0
  123.0022  100.4938   15.8529 H   0  0  0  0  0  0  0  0  0  0  0  0
  121.4127   98.6218   15.5723 H   0  0  0  0  0  0  0  0  0  0  0  0
  122.4926   98.8366   17.7655 H   0  0  0  0  0  0  0  0  0  0  0  0
  124.6880   96.9847   16.7334 H   0  0  0  0  0  0  0  0  0  0  0  0
  124.7330  100.0144   17.3603 H   0  0  0  0  0  0  0  0  0  0  0  0
  126.8921   99.0666   17.9216 H   0  0  0  0  0  0  0  0  0  0  0  0
  127.0182  100.0017   16.4263 H   0  0  0  0  0  0  0  0  0  0  0  0
  122.5814   97.6495   13.8715 H   0  0  0  0  0  0  0  0  0  0  0  0
  122.4510   96.6365   18.3812 H   0  0  0  0  0  0  0  0  0  0  0  0
  125.5757   97.5476   18.7867 H   0  0  0  0  0  0  0  0  0  0  0  0
  126.7860   97.1634   16.5416 H   0  0  0  0  0  0  0  0  0  0  0  0
  1  2  1  0  0  0  0
  1 10  1  0  0  0  0
  1 23  2  0  0  0  0
  2  3  1  0  0  0  0
  2  7  1  0  0  0  0
  2 24  1  6  0  0  0
  3  4  1  0  0  0  0
  3  8  1  0  0  0  0
  3 25  1  6  0  0  0
  4  5  1  0  0  0  0
  4  9  1  0  0  0  0
  4 26  1  1  0  0  0
  5  6  1  0  0  0  0
  5 10  1  0  0  0  0
  5 27  1  6  0  0  0
  6 11  1  0  0  0  0
  6 28  1  0  0  0  0
  6 29  1  0  0  0  0
  7 30  1  0  0  0  0
  8 31  1  0  0  0  0
  9 12  1  0  0  0  0
 11 32  1  0  0  0  0
 12 13  1  0  0  0  0
 12 21  1  0  0  0  0
 12 33  1  1  0  0  0
 13 14  1  0  0  0  0
 13 18  1  0  0  0  0
 13 34  1  6  0  0  0
 14 15  1  0  0  0  0
 14 19  1  0  0  0  0
 14 35  1  1  0  0  0
 15 16  1  0  0  0  0
 15 20  1  0  0  0  0
 15 36  1  6  0  0  0
 16 17  1  0  0  0  0
 16 21  1  0  0  0  0
 16 37  1  1  0  0  0
 17 22  1  0  0  0  0
 17 38  1  0  0  0  0
 17 39  1  0  0  0  0
 18 40  1  0  0  0  0
 19 41  1  0  0  0  0
 20 42  1  0  0  0  0
 22 43  1  0  0  0  0
M  END
$$$$
