MAB
 OpenBabel04111921033D

 45 46  0  0  1  0  0  0  0  0999 V2000
  -34.8495  -57.1274   17.6455 C   0  0  1  0  0  0  0  0  0  0  0  0
  -34.6399  -57.6203   16.1971 C   0  0  2  0  0  0  0  0  0  0  0  0
  -35.3012  -56.6669   15.1978 C   0  0  2  0  0  0  0  0  0  0  0  0
  -36.7666  -56.4420   15.6190 C   0  0  1  0  0  0  0  0  0  0  0  0
  -36.7516  -55.8755   17.0483 C   0  0  1  0  0  0  0  0  0  0  0  0
  -38.1299  -55.4115   17.5320 C   0  0  0  0  0  0  0  0  0  0  0  0
  -35.2296  -58.9354   16.0710 O   0  0  0  0  0  0  0  0  0  0  0  0
  -35.1575  -57.2031   13.8760 O   0  0  0  0  0  0  0  0  0  0  0  0
  -37.3868  -55.4612   14.7837 O   0  0  0  0  0  0  0  0  0  0  0  0
  -36.2382  -56.8784   17.9453 O   0  0  0  0  0  0  0  0  0  0  0  0
  -39.0724  -56.4931   17.5023 O   0  0  0  0  0  0  0  0  0  0  0  0
  -38.3181  -56.0443   13.8630 C   0  0  1  0  0  0  0  0  0  0  0  0
  -39.2419  -54.9383   13.3233 C   0  0  2  0  0  0  0  0  0  0  0  0
  -40.1314  -55.5103   12.2256 C   0  0  2  0  0  0  0  0  0  0  0  0
  -39.3083  -56.2418   11.1620 C   0  0  1  0  0  0  0  0  0  0  0  0
  -38.4114  -57.2900   11.8457 C   0  0  1  0  0  0  0  0  0  0  0  0
  -37.5139  -58.0135   10.8344 C   0  0  0  0  0  0  0  0  0  0  0  0
  -38.4767  -53.8366   12.8017 O   0  0  0  0  0  0  0  0  0  0  0  0
  -40.8878  -54.4457   11.6276 O   0  0  0  0  0  0  0  0  0  0  0  0
  -40.2203  -56.8716   10.2485 O   0  0  0  0  0  0  0  0  0  0  0  0
  -37.5758  -56.6740   12.8265 O   0  0  0  0  0  0  0  0  0  0  0  0
  -36.7671  -57.0674   10.0742 O   0  0  0  0  0  0  0  0  0  0  0  0
  -34.3708  -58.1055   18.5606 O   0  0  0  0  0  0  0  0  0  0  0  0
  -34.2809  -56.2083   17.8195 H   0  0  0  0  0  0  0  0  0  0  0  0
  -33.5728  -57.7235   15.9749 H   0  0  0  0  0  0  0  0  0  0  0  0
  -34.7785  -55.7016   15.1801 H   0  0  0  0  0  0  0  0  0  0  0  0
  -37.3082  -57.3898   15.5864 H   0  0  0  0  0  0  0  0  0  0  0  0
  -36.1038  -54.9879   17.0972 H   0  0  0  0  0  0  0  0  0  0  0  0
  -38.5171  -54.6059   16.9037 H   0  0  0  0  0  0  0  0  0  0  0  0
  -38.0739  -55.0598   18.5532 H   0  0  0  0  0  0  0  0  0  0  0  0
  -34.6569  -59.5430   16.5668 H   0  0  0  0  0  0  0  0  0  0  0  0
  -35.7760  -56.7054   13.2960 H   0  0  0  0  0  0  0  0  0  0  0  0
  -38.6849  -57.1891   18.0556 H   0  0  0  0  0  0  0  0  0  0  0  0
  -38.9376  -56.7901   14.3820 H   0  0  0  0  0  0  0  0  0  0  0  0
  -39.8524  -54.5226   14.1355 H   0  0  0  0  0  0  0  0  0  0  0  0
  -40.8593  -56.2084   12.6559 H   0  0  0  0  0  0  0  0  0  0  0  0
  -38.7162  -55.5117   10.5934 H   0  0  0  0  0  0  0  0  0  0  0  0
  -39.0282  -58.0525   12.3420 H   0  0  0  0  0  0  0  0  0  0  0  0
  -38.1162  -58.5977   10.1328 H   0  0  0  0  0  0  0  0  0  0  0  0
  -36.8171  -58.6856   11.3452 H   0  0  0  0  0  0  0  0  0  0  0  0
  -39.1256  -53.2681   12.3530 H   0  0  0  0  0  0  0  0  0  0  0  0
  -41.3873  -54.8625   10.8980 H   0  0  0  0  0  0  0  0  0  0  0  0
  -39.6827  -57.2755    9.5442 H   0  0  0  0  0  0  0  0  0  0  0  0
  -36.1450  -57.5615    9.5161 H   0  0  0  0  0  0  0  0  0  0  0  0
  -34.9660  -58.8658   18.4435 H   0  0  0  0  0  0  0  0  0  0  0  0
  1  2  1  0  0  0  0
  1 10  1  0  0  0  0
  1 23  1  0  0  0  0
  1 24  1  1  0  0  0
  2  3  1  0  0  0  0
  2  7  1  0  0  0  0
  2 25  1  6  0  0  0
  3  4  1  0  0  0  0
  3  8  1  0  0  0  0
  3 26  1  1  0  0  0
  4  5  1  0  0  0  0
  4  9  1  0  0  0  0
  4 27  1  6  0  0  0
  5  6  1  0  0  0  0
  5 10  1  0  0  0  0
  5 28  1  1  0  0  0
  6 11  1  0  0  0  0
  6 29  1  0  0  0  0
  6 30  1  0  0  0  0
  7 31  1  0  0  0  0
  8 32  1  0  0  0  0
  9 12  1  0  0  0  0
 11 33  1  0  0  0  0
 12 13  1  0  0  0  0
 12 21  1  0  0  0  0
 12 34  1  1  0  0  0
 13 14  1  0  0  0  0
 13 18  1  0  0  0  0
 13 35  1  1  0  0  0
 14 15  1  0  0  0  0
 14 19  1  0  0  0  0
 14 36  1  1  0  0  0
 15 16  1  0  0  0  0
 15 20  1  0  0  0  0
 15 37  1  6  0  0  0
 16 17  1  0  0  0  0
 16 21  1  0  0  0  0
 16 38  1  1  0  0  0
 17 22  1  0  0  0  0
 17 39  1  0  0  0  0
 17 40  1  0  0  0  0
 18 41  1  0  0  0  0
 19 42  1  0  0  0  0
 20 43  1  0  0  0  0
 22 44  1  0  0  0  0
 23 45  1  0  0  0  0
M  END
$$$$
