MBN
 OpenBabel04111919223D

 15 15  0  0  0  0  0  0  0  0999 V2000
    5.3202   11.1761    0.4813 C   0  0  0  0  0  0  0  0  0  0  0  0
    4.1188   10.4316    0.9694 C   0  0  0  0  0  0  0  0  0  0  0  0
    3.6960    9.2691    0.3178 C   0  0  0  0  0  0  0  0  0  0  0  0
    2.5731    8.5777    0.7702 C   0  0  0  0  0  0  0  0  0  0  0  0
    1.8600    9.0468    1.8708 C   0  0  0  0  0  0  0  0  0  0  0  0
    2.2775   10.2006    2.5294 C   0  0  0  0  0  0  0  0  0  0  0  0
    3.4027   10.8899    2.0783 C   0  0  0  0  0  0  0  0  0  0  0  0
    5.7627   10.6745   -0.3852 H   0  0  0  0  0  0  0  0  0  0  0  0
    6.0795   11.2275    1.2679 H   0  0  0  0  0  0  0  0  0  0  0  0
    5.0363   12.1887    0.1797 H   0  0  0  0  0  0  0  0  0  0  0  0
    4.2415    8.8969   -0.5453 H   0  0  0  0  0  0  0  0  0  0  0  0
    2.2554    7.6729    0.2588 H   0  0  0  0  0  0  0  0  0  0  0  0
    0.9776    8.5133    2.2122 H   0  0  0  0  0  0  0  0  0  0  0  0
    1.7232   10.5635    3.3933 H   0  0  0  0  0  0  0  0  0  0  0  0
    3.7143   11.7947    2.5961 H   0  0  0  0  0  0  0  0  0  0  0  0
  1  2  1  0  0  0  0
  1  8  1  0  0  0  0
  1  9  1  0  0  0  0
  1 10  1  0  0  0  0
  2  3  2  0  0  0  0
  2  7  1  0  0  0  0
  3  4  1  0  0  0  0
  3 11  1  0  0  0  0
  4  5  2  0  0  0  0
  4 12  1  0  0  0  0
  5  6  1  0  0  0  0
  5 13  1  0  0  0  0
  6  7  2  0  0  0  0
  6 14  1  0  0  0  0
  7 15  1  0  0  0  0
M  END
$$$$
