MCF
 OpenBabel04111919033D

 40 42  0  0  1  0  0  0  0  0999 V2000
  -35.5231   -7.0318   34.8934 O   0  0  0  0  0  0  0  0  0  0  0  0
  -35.8557   -5.8532   35.6222 C   0  0  2  0  0  0  0  0  0  0  0  0
  -34.6501   -5.3233   36.3941 C   0  0  0  0  0  0  0  0  0  0  0  0
  -33.9864   -6.3662   37.2079 N   0  0  0  0  0  0  0  0  0  0  0  0
  -34.5416   -6.9617   38.2450 C   0  0  0  0  0  0  0  0  0  0  0  0
  -35.8059   -6.9993   38.6224 N   0  0  0  0  0  0  0  0  0  0  0  0
  -36.8981   -6.5824   37.8771 C   0  0  0  0  0  0  0  0  0  0  0  0
  -36.9651   -6.1061   36.5813 C   0  0  0  0  0  0  0  0  0  0  0  0
  -38.2548   -5.8092   36.2418 N   0  0  0  0  0  0  0  0  0  0  0  0
  -38.9652   -6.1065   37.3049 C   0  0  0  0  0  0  0  0  0  0  0  0
  -38.1970   -6.6252   38.3087 N   0  3  0  0  0  0  0  0  0  0  0  0
  -38.6393   -7.0772   39.6172 C   0  0  1  0  0  0  0  0  0  0  0  0
  -40.1316   -6.9512   39.8344 C   0  0  2  0  0  0  0  0  0  0  0  0
  -40.4604   -5.6156   40.1831 O   0  0  0  0  0  0  0  0  0  0  0  0
  -38.3289   -8.4755   39.7541 O   0  0  0  0  0  0  0  0  0  0  0  0
  -39.3461   -9.0618   40.6260 C   0  0  1  0  0  0  0  0  0  0  0  0
  -40.3886   -7.9686   40.9285 C   0  0  1  0  0  0  0  0  0  0  0  0
  -40.0978   -7.3662   42.1907 O   0  0  0  0  0  0  0  0  0  0  0  0
  -39.9024  -10.3239   39.9527 C   0  0  0  0  0  0  0  0  0  0  0  0
  -40.3717  -11.5457   41.2246 S   0  0  0  0  0  0  0  0  0  0  0  0
  -38.9242  -12.6395   41.1603 C   0  0  0  0  0  0  0  0  0  0  0  0
  -36.3374   -7.2750   34.3904 H   0  0  0  0  0  0  0  0  0  0  0  0
  -36.1528   -5.0883   34.8952 H   0  0  0  0  0  0  0  0  0  0  0  0
  -34.9548   -4.5191   37.0798 H   0  0  0  0  0  0  0  0  0  0  0  0
  -33.8911   -4.9087   35.7241 H   0  0  0  0  0  0  0  0  0  0  0  0
  -33.0361   -6.6378   36.9564 H   0  0  0  0  0  0  0  0  0  0  0  0
  -33.8533   -7.5005   38.8923 H   0  0  0  0  0  0  0  0  0  0  0  0
  -40.0350   -5.9592   37.3838 H   0  0  0  0  0  0  0  0  0  0  0  0
  -38.0576   -6.5210   40.3654 H   0  0  0  0  0  0  0  0  0  0  0  0
  -40.6902   -7.2588   38.9396 H   0  0  0  0  0  0  0  0  0  0  0  0
  -41.4242   -5.5436   40.2393 H   0  0  0  0  0  0  0  0  0  0  0  0
  -38.8204   -9.3297   41.5495 H   0  0  0  0  0  0  0  0  0  0  0  0
  -41.4258   -8.3156   40.9470 H   0  0  0  0  0  0  0  0  0  0  0  0
  -40.7349   -6.6411   42.3278 H   0  0  0  0  0  0  0  0  0  0  0  0
  -39.1729  -10.7614   39.2611 H   0  0  0  0  0  0  0  0  0  0  0  0
  -40.7980  -10.1056   39.3591 H   0  0  0  0  0  0  0  0  0  0  0  0
  -39.0244  -13.3931   41.9463 H   0  0  0  0  0  0  0  0  0  0  0  0
  -37.9858  -12.0992   41.3198 H   0  0  0  0  0  0  0  0  0  0  0  0
  -38.8945  -13.1518   40.1954 H   0  0  0  0  0  0  0  0  0  0  0  0
  -36.0009   -7.4837   39.4867 H   0  0  0  0  0  0  0  0  0  0  0  0
  1  2  1  0  0  0  0
  1 22  1  0  0  0  0
  2  3  1  0  0  0  0
  2  8  1  0  0  0  0
  2 23  1  6  0  0  0
  3  4  1  0  0  0  0
  3 24  1  0  0  0  0
  3 25  1  0  0  0  0
  4  5  1  0  0  0  0
  4 26  1  0  0  0  0
  5  6  2  0  0  0  0
  5 27  1  0  0  0  0
  6  7  1  0  0  0  0
  6 40  1  0  0  0  0
  7  8  2  0  0  0  0
  7 11  1  0  0  0  0
  8  9  1  0  0  0  0
  9 10  1  0  0  0  0
 10 11  2  0  0  0  0
 10 28  1  0  0  0  0
 11 12  1  0  0  0  0
 12 13  1  0  0  0  0
 12 15  1  0  0  0  0
 12 29  1  1  0  0  0
 13 14  1  0  0  0  0
 13 17  1  0  0  0  0
 13 30  1  6  0  0  0
 14 31  1  0  0  0  0
 15 16  1  0  0  0  0
 16 17  1  0  0  0  0
 16 19  1  0  0  0  0
 16 32  1  1  0  0  0
 17 18  1  0  0  0  0
 17 33  1  6  0  0  0
 18 34  1  0  0  0  0
 19 20  1  0  0  0  0
 19 35  1  0  0  0  0
 19 36  1  0  0  0  0
 20 21  1  0  0  0  0
 21 37  1  0  0  0  0
 21 38  1  0  0  0  0
 21 39  1  0  0  0  0
M  CHG  1  11   1
M  END
$$$$
