MEL
 OpenBabel04111918053D

 63 65  0  0  1  0  0  0  0  0999 V2000
   18.8244  -14.4270   24.3196 C   0  0  0  0  0  0  0  0  0  0  0  0
   19.0673  -15.7355   25.0932 C   0  0  0  0  0  0  0  0  0  0  0  0
   19.5417  -15.4505   26.5144 C   0  0  0  0  0  0  0  0  0  0  0  0
   20.8117  -14.6109   26.5125 C   0  0  0  0  0  0  0  0  0  0  0  0
   20.6120  -13.3124   25.7426 C   0  0  0  0  0  0  0  0  0  0  0  0
   20.1148  -13.5813   24.3255 C   0  0  0  0  0  0  0  0  0  0  0  0
   17.0716  -15.5113   22.9492 N   0  3  0  0  0  0  0  0  0  0  0  0
   18.3128  -14.6654   22.8775 C   0  0  1  0  0  0  0  0  0  0  0  0
   17.9631  -13.2973   22.2633 C   0  0  0  0  0  0  0  0  0  0  0  0
   16.9091  -12.7416   22.5963 O   0  0  0  0  0  0  0  0  0  0  0  0
   18.8333  -12.7060   21.3916 N   0  0  0  0  0  0  0  0  0  0  0  0
   18.4708  -11.6169   20.4712 C   0  0  2  0  0  0  0  0  0  0  0  0
   17.0852  -11.8506   19.8088 C   0  0  0  0  0  0  0  0  0  0  0  0
   16.8095  -12.9225   19.2742 O   0  0  0  0  0  0  0  0  0  0  0  0
   16.1746  -10.8250   19.8911 N   0  0  0  0  0  0  0  0  0  0  0  0
   14.8222  -11.0576   19.4506 C   0  0  0  0  0  0  0  0  0  0  0  0
   13.8693  -10.9886   20.6093 C   0  0  0  0  0  0  0  0  0  0  0  0
   13.4765  -12.1485   21.2845 C   0  0  0  0  0  0  0  0  0  0  0  0
   12.5857  -12.0730   22.3565 C   0  0  0  0  0  0  0  0  0  0  0  0
   12.0584  -10.8394   22.7757 C   0  0  0  0  0  0  0  0  0  0  0  0
   12.4764   -9.6814   22.0905 C   0  0  0  0  0  0  0  0  0  0  0  0
   13.3833   -9.7534   21.0349 C   0  0  0  0  0  0  0  0  0  0  0  0
   11.0782  -10.7585   23.8817 C   0  0  0  0  0  0  0  0  0  0  0  0
   10.8763   -9.6114   24.5032 N   0  0  0  0  0  0  0  0  0  0  0  0
   10.3976  -11.8217   24.2595 N   0  0  0  0  0  0  0  0  0  0  0  0
   19.6815  -12.0333   19.6234 C   0  0  0  0  0  0  0  0  0  0  0  0
   20.0068  -13.1220   20.6525 C   0  0  0  0  0  0  0  0  0  0  0  0
   16.3772  -15.8495   21.6318 C   0  0  0  0  0  0  0  0  0  0  0  0
   14.9329  -16.3665   21.8507 C   0  0  0  0  0  0  0  0  0  0  0  0
   14.6542  -16.4585   23.0876 O   0  0  0  0  0  0  0  0  0  0  0  0
   14.2384  -16.5413   20.8246 O   0  0  0  0  0  0  0  0  0  0  0  0
   18.0575  -13.8561   24.8656 H   0  0  0  0  0  0  0  0  0  0  0  0
   19.8112  -16.3449   24.5648 H   0  0  0  0  0  0  0  0  0  0  0  0
   18.1539  -16.3328   25.1657 H   0  0  0  0  0  0  0  0  0  0  0  0
   19.7165  -16.3948   27.0405 H   0  0  0  0  0  0  0  0  0  0  0  0
   18.7493  -14.9208   27.0586 H   0  0  0  0  0  0  0  0  0  0  0  0
   21.6250  -15.1841   26.0511 H   0  0  0  0  0  0  0  0  0  0  0  0
   21.1127  -14.3902   27.5419 H   0  0  0  0  0  0  0  0  0  0  0  0
   21.5543  -12.7550   25.7020 H   0  0  0  0  0  0  0  0  0  0  0  0
   19.8880  -12.6774   26.2690 H   0  0  0  0  0  0  0  0  0  0  0  0
   19.9520  -12.6148   23.8380 H   0  0  0  0  0  0  0  0  0  0  0  0
   20.8957  -14.1019   23.7572 H   0  0  0  0  0  0  0  0  0  0  0  0
   17.1528  -16.4079   23.4425 H   0  0  0  0  0  0  0  0  0  0  0  0
   19.0368  -15.2191   22.2733 H   0  0  0  0  0  0  0  0  0  0  0  0
   18.5894  -10.6480   20.9694 H   0  0  0  0  0  0  0  0  0  0  0  0
   16.3828  -10.0028   20.4259 H   0  0  0  0  0  0  0  0  0  0  0  0
   14.7232  -12.0267   18.9531 H   0  0  0  0  0  0  0  0  0  0  0  0
   14.5773  -10.2923   18.7051 H   0  0  0  0  0  0  0  0  0  0  0  0
   13.8567  -13.1245   20.9756 H   0  0  0  0  0  0  0  0  0  0  0  0
   12.3315  -13.0101   22.8475 H   0  0  0  0  0  0  0  0  0  0  0  0
   12.0987   -8.6938   22.3387 H   0  0  0  0  0  0  0  0  0  0  0  0
   13.6970   -8.8431   20.5265 H   0  0  0  0  0  0  0  0  0  0  0  0
   10.2045   -9.5241   25.2557 H   0  0  0  0  0  0  0  0  0  0  0  0
   10.5209  -12.7148   23.7933 H   0  0  0  0  0  0  0  0  0  0  0  0
    9.7176  -11.7973   25.0051 H   0  0  0  0  0  0  0  0  0  0  0  0
   20.4426  -11.2580   19.4946 H   0  0  0  0  0  0  0  0  0  0  0  0
   19.4182  -12.4155   18.6287 H   0  0  0  0  0  0  0  0  0  0  0  0
   19.9815  -14.1389   20.2537 H   0  0  0  0  0  0  0  0  0  0  0  0
   20.9317  -12.9479   21.2073 H   0  0  0  0  0  0  0  0  0  0  0  0
   16.9992  -16.6020   21.1433 H   0  0  0  0  0  0  0  0  0  0  0  0
   16.3337  -14.9347   21.0391 H   0  0  0  0  0  0  0  0  0  0  0  0
   16.3201  -15.0349   23.4833 H   0  0  0  0  0  0  0  0  0  0  0  0
   11.3984   -8.7838   24.2673 H   0  0  0  0  0  0  0  0  0  0  0  0
  1  2  1  0  0  0  0
  1  6  1  0  0  0  0
  1  8  1  0  0  0  0
  1 32  1  0  0  0  0
  2  3  1  0  0  0  0
  2 33  1  0  0  0  0
  2 34  1  0  0  0  0
  3  4  1  0  0  0  0
  3 35  1  0  0  0  0
  3 36  1  0  0  0  0
  4  5  1  0  0  0  0
  4 37  1  0  0  0  0
  4 38  1  0  0  0  0
  5  6  1  0  0  0  0
  5 39  1  0  0  0  0
  5 40  1  0  0  0  0
  6 41  1  0  0  0  0
  6 42  1  0  0  0  0
  7  8  1  0  0  0  0
  7 28  1  0  0  0  0
  7 43  1  0  0  0  0
  7 62  1  0  0  0  0
  8  9  1  0  0  0  0
  8 44  1  6  0  0  0
  9 10  2  0  0  0  0
  9 11  1  0  0  0  0
 11 12  1  0  0  0  0
 11 27  1  0  0  0  0
 12 13  1  0  0  0  0
 12 26  1  0  0  0  0
 12 45  1  1  0  0  0
 13 14  2  0  0  0  0
 13 15  1  0  0  0  0
 15 16  1  0  0  0  0
 15 46  1  0  0  0  0
 16 17  1  0  0  0  0
 16 47  1  0  0  0  0
 16 48  1  0  0  0  0
 17 18  2  0  0  0  0
 17 22  1  0  0  0  0
 18 19  1  0  0  0  0
 18 49  1  0  0  0  0
 19 20  2  0  0  0  0
 19 50  1  0  0  0  0
 20 21  1  0  0  0  0
 20 23  1  0  0  0  0
 21 22  2  0  0  0  0
 21 51  1  0  0  0  0
 22 52  1  0  0  0  0
 23 24  2  0  0  0  0
 23 25  1  0  0  0  0
 24 53  1  0  0  0  0
 24 63  1  0  0  0  0
 25 54  1  0  0  0  0
 25 55  1  0  0  0  0
 26 27  1  0  0  0  0
 26 56  1  0  0  0  0
 26 57  1  0  0  0  0
 27 58  1  0  0  0  0
 27 59  1  0  0  0  0
 28 29  1  0  0  0  0
 28 60  1  0  0  0  0
 28 61  1  0  0  0  0
 29 30  2  0  0  0  0
 29 31  1  0  0  0  0
M  CHG  1   7   1
M  END
$$$$
