MET
 OpenBabel04111919313D

 20 19  0  0  1  0  0  0  0  0999 V2000
    3.5632   49.1857   -7.5660 N   0  3  0  0  0  0  0  0  0  0  0  0
    3.2060   50.6552   -7.4444 C   0  0  2  0  0  0  0  0  0  0  0  0
    1.7004   50.8824   -7.1167 C   0  0  0  0  0  0  0  0  0  0  0  0
    1.0807   49.7719   -7.0678 O   0  0  0  0  0  0  0  0  0  0  0  0
    3.5797   51.3776   -8.7374 C   0  0  0  0  0  0  0  0  0  0  0  0
    5.0585   51.7558   -8.7876 C   0  0  0  0  0  0  0  0  0  0  0  0
    5.3818   53.0544   -7.5462 S   0  0  0  0  0  0  0  0  0  0  0  0
    7.1660   52.9146   -7.3913 C   0  0  0  0  0  0  0  0  0  0  0  0
    1.3301   52.0554   -6.9402 O   0  0  0  0  0  0  0  0  0  0  0  0
    4.5408   49.0015   -7.7686 H   0  0  0  0  0  0  0  0  0  0  0  0
    3.2704   48.7522   -6.6765 H   0  0  0  0  0  0  0  0  0  0  0  0
    3.7858   51.0070   -6.5903 H   0  0  0  0  0  0  0  0  0  0  0  0
    2.9827   52.2919   -8.8509 H   0  0  0  0  0  0  0  0  0  0  0  0
    3.3364   50.7518   -9.6045 H   0  0  0  0  0  0  0  0  0  0  0  0
    5.3083   52.1412   -9.7811 H   0  0  0  0  0  0  0  0  0  0  0  0
    5.6803   50.8743   -8.5954 H   0  0  0  0  0  0  0  0  0  0  0  0
    7.5136   53.6384   -6.6484 H   0  0  0  0  0  0  0  0  0  0  0  0
    7.6405   53.1338   -8.3494 H   0  0  0  0  0  0  0  0  0  0  0  0
    7.4415   51.9122   -7.0525 H   0  0  0  0  0  0  0  0  0  0  0  0
    2.9141   48.7691   -8.2427 H   0  0  0  0  0  0  0  0  0  0  0  0
  1  2  1  0  0  0  0
  1 10  1  0  0  0  0
  1 11  1  0  0  0  0
  1 20  1  0  0  0  0
  2  3  1  0  0  0  0
  2  5  1  0  0  0  0
  2 12  1  1  0  0  0
  3  4  2  0  0  0  0
  3  9  1  0  0  0  0
  5  6  1  0  0  0  0
  5 13  1  0  0  0  0
  5 14  1  0  0  0  0
  6  7  1  0  0  0  0
  6 15  1  0  0  0  0
  6 16  1  0  0  0  0
  7  8  1  0  0  0  0
  8 17  1  0  0  0  0
  8 18  1  0  0  0  0
  8 19  1  0  0  0  0
M  CHG  1   1   1
M  END
$$$$
