MFB
 OpenBabel04111918113D

 26 26  0  0  1  0  0  0  0  0999 V2000
  -44.2103   16.3138   -9.2378 C   0  0  1  0  0  0  0  0  0  0  0  0
  -42.7362   16.6839   -8.9693 C   0  0  2  0  0  0  0  0  0  0  0  0
  -42.1382   15.8425   -7.8385 C   0  0  1  0  0  0  0  0  0  0  0  0
  -42.4304   14.3568   -8.0223 C   0  0  1  0  0  0  0  0  0  0  0  0
  -43.9476   14.1760   -8.2081 C   0  0  2  0  0  0  0  0  0  0  0  0
  -44.3293   12.7120   -8.3928 C   0  0  0  0  0  0  0  0  0  0  0  0
  -44.5753   16.9518  -10.4697 O   0  0  0  0  0  0  0  0  0  0  0  0
  -42.6286   18.0731   -8.6018 O   0  0  0  0  0  0  0  0  0  0  0  0
  -40.7182   16.0677   -7.7710 O   0  0  0  0  0  0  0  0  0  0  0  0
  -41.7056   13.8745   -9.1601 O   0  0  0  0  0  0  0  0  0  0  0  0
  -44.4103   14.9039   -9.3518 O   0  0  0  0  0  0  0  0  0  0  0  0
  -45.9803   17.0332  -10.6461 C   0  0  0  0  0  0  0  0  0  0  0  0
  -44.8404   16.7098   -8.4313 H   0  0  0  0  0  0  0  0  0  0  0  0
  -42.1507   16.5597   -9.8895 H   0  0  0  0  0  0  0  0  0  0  0  0
  -42.5450   16.1812   -6.8770 H   0  0  0  0  0  0  0  0  0  0  0  0
  -42.0791   13.7880   -7.1555 H   0  0  0  0  0  0  0  0  0  0  0  0
  -44.4788   14.5528   -7.3232 H   0  0  0  0  0  0  0  0  0  0  0  0
  -45.4092   12.6142   -8.5397 H   0  0  0  0  0  0  0  0  0  0  0  0
  -44.0463   12.1203   -7.5153 H   0  0  0  0  0  0  0  0  0  0  0  0
  -43.8501   12.2777   -9.2761 H   0  0  0  0  0  0  0  0  0  0  0  0
  -41.7028   18.2114   -8.3475 H   0  0  0  0  0  0  0  0  0  0  0  0
  -40.3669   15.9645   -8.6748 H   0  0  0  0  0  0  0  0  0  0  0  0
  -40.7678   13.8346   -8.9015 H   0  0  0  0  0  0  0  0  0  0  0  0
  -46.1732   17.5474  -11.5903 H   0  0  0  0  0  0  0  0  0  0  0  0
  -46.4337   17.6158   -9.8384 H   0  0  0  0  0  0  0  0  0  0  0  0
  -46.4250   16.0357  -10.6929 H   0  0  0  0  0  0  0  0  0  0  0  0
  1  2  1  0  0  0  0
  1  7  1  0  0  0  0
  1 11  1  0  0  0  0
  1 13  1  1  0  0  0
  2  3  1  0  0  0  0
  2  8  1  0  0  0  0
  2 14  1  6  0  0  0
  3  4  1  0  0  0  0
  3  9  1  0  0  0  0
  3 15  1  1  0  0  0
  4  5  1  0  0  0  0
  4 10  1  0  0  0  0
  4 16  1  1  0  0  0
  5  6  1  0  0  0  0
  5 11  1  0  0  0  0
  5 17  1  1  0  0  0
  6 18  1  0  0  0  0
  6 19  1  0  0  0  0
  6 20  1  0  0  0  0
  7 12  1  0  0  0  0
  8 21  1  0  0  0  0
  9 22  1  0  0  0  0
 10 23  1  0  0  0  0
 12 24  1  0  0  0  0
 12 25  1  0  0  0  0
 12 26  1  0  0  0  0
M  END
$$$$
