MGP
 OpenBabel04111918463D

 48 50  0  0  1  0  0  0  0  0999 V2000
  -15.5661  -16.1134   -5.0366 P   0  0  2  0  0  0  0  0  0  0  0  0
  -15.4232  -17.5933   -4.7793 O   0  0  0  0  0  0  0  0  0  0  0  0
  -14.7074  -15.0535   -4.3149 O   0  0  0  0  0  0  0  0  0  0  0  0
  -17.0585  -15.6613   -5.0928 O   0  0  0  0  0  0  0  0  0  0  0  0
  -15.1198  -15.9276   -6.6389 O   0  0  0  0  0  0  0  0  0  0  0  0
  -18.1326  -15.2995   -3.9181 P   0  0  1  0  0  0  0  0  0  0  0  0
  -17.5014  -15.2282   -2.5286 O   0  0  0  0  0  0  0  0  0  0  0  0
  -18.8053  -14.0484   -4.4403 O   0  0  0  0  0  0  0  0  0  0  0  0
  -19.0311  -16.6060   -3.9987 O   0  0  0  0  0  0  0  0  0  0  0  0
  -20.4956  -16.9421   -4.5513 P   0  0  0  0  0  0  0  0  0  0  0  0
  -20.6243  -18.4319   -4.2253 O   0  0  0  0  0  0  0  0  0  0  0  0
  -20.4342  -16.7211   -6.0660 O   0  0  0  0  0  0  0  0  0  0  0  0
  -21.5485  -16.1294   -3.8095 O   0  0  0  0  0  0  0  0  0  0  0  0
  -15.3138  -14.6996   -7.3492 C   0  0  0  0  0  0  0  0  0  0  0  0
  -16.1755  -14.8294   -8.6199 C   0  0  1  0  0  0  0  0  0  0  0  0
  -15.8997  -16.0408   -9.3307 O   0  0  0  0  0  0  0  0  0  0  0  0
  -17.6777  -14.8084   -8.3012 C   0  0  1  0  0  0  0  0  0  0  0  0
  -18.4414  -14.3261   -9.4328 O   0  0  0  0  0  0  0  0  0  0  0  0
  -17.9828  -16.2530   -8.0698 C   0  0  1  0  0  0  0  0  0  0  0  0
  -19.3265  -16.5660   -8.4212 O   0  0  0  0  0  0  0  0  0  0  0  0
  -17.0144  -16.9156   -9.0231 C   0  0  2  0  0  0  0  0  0  0  0  0
  -16.4007  -18.1194   -8.5623 N   0  3  0  0  0  0  0  0  0  0  0  0
  -16.6314  -18.7499   -7.3687 C   0  0  0  0  0  0  0  0  0  0  0  0
  -15.7964  -19.8157   -7.3048 N   0  3  0  0  0  0  0  0  0  0  0  0
  -15.7549  -20.7623   -6.1691 C   0  0  0  0  0  0  0  0  0  0  0  0
  -14.9814  -19.7376   -8.4281 C   0  0  0  0  0  0  0  0  0  0  0  0
  -13.9295  -20.5732   -8.8859 C   0  0  0  0  0  0  0  0  0  0  0  0
  -13.5104  -21.5768   -8.3288 O   0  0  0  0  0  0  0  0  0  0  0  0
  -13.4002  -20.1891  -10.1299 N   0  3  0  0  0  0  0  0  0  0  0  0
  -13.7983  -19.1044  -10.9015 C   0  0  0  0  0  0  0  0  0  0  0  0
  -13.2065  -18.8932  -11.9962 N   0  0  0  0  0  0  0  0  0  0  0  0
  -14.8411  -18.3413  -10.4254 N   0  3  0  0  0  0  0  0  0  0  0  0
  -15.3410  -18.7191   -9.2180 C   0  0  0  0  0  0  0  0  0  0  0  0
  -14.3431  -14.3275   -7.6954 H   0  0  0  0  0  0  0  0  0  0  0  0
  -15.7947  -13.9303   -6.7423 H   0  0  0  0  0  0  0  0  0  0  0  0
  -15.9448  -14.0256   -9.3276 H   0  0  0  0  0  0  0  0  0  0  0  0
  -17.8910  -14.1857   -7.4297 H   0  0  0  0  0  0  0  0  0  0  0  0
  -18.3961  -14.9809  -10.1474 H   0  0  0  0  0  0  0  0  0  0  0  0
  -17.7448  -16.5549   -7.0637 H   0  0  0  0  0  0  0  0  0  0  0  0
  -19.8926  -16.1187   -7.7228 H   0  0  0  0  0  0  0  0  0  0  0  0
  -17.5021  -17.1021  -10.0061 H   0  0  0  0  0  0  0  0  0  0  0  0
  -17.3862  -18.5083   -6.6216 H   0  0  0  0  0  0  0  0  0  0  0  0
  -16.5400  -20.5301   -5.4408 H   0  0  0  0  0  0  0  0  0  0  0  0
  -14.7843  -20.7467   -5.6535 H   0  0  0  0  0  0  0  0  0  0  0  0
  -15.9277  -21.7942   -6.5263 H   0  0  0  0  0  0  0  0  0  0  0  0
  -12.6454  -20.7691  -10.4927 H   0  0  0  0  0  0  0  0  0  0  0  0
  -13.6158  -18.0613  -12.4635 H   0  0  0  0  0  0  0  0  0  0  0  0
  -15.1382  -17.5565  -10.9683 H   0  0  0  0  0  0  0  0  0  0  0  0
  1  2  2  1  0  0  0
  1  3  1  0  0  0  0
  1  4  1  0  0  0  0
  1  5  1  0  0  0  0
  5 14  1  0  0  0  0
  6  4  1  6  0  0  0
  6  7  2  0  0  0  0
  6  8  1  0  0  0  0
  6  9  1  0  0  0  0
  9 10  1  0  0  0  0
 10 11  2  0  0  0  0
 10 12  1  0  0  0  0
 10 13  1  0  0  0  0
 14 15  1  0  0  0  0
 14 34  1  0  0  0  0
 14 35  1  0  0  0  0
 15 16  1  0  0  0  0
 15 17  1  0  0  0  0
 15 36  1  6  0  0  0
 16 21  1  0  0  0  0
 17 18  1  0  0  0  0
 17 19  1  0  0  0  0
 17 37  1  1  0  0  0
 18 38  1  0  0  0  0
 19 20  1  0  0  0  0
 19 21  1  0  0  0  0
 19 39  1  1  0  0  0
 20 40  1  0  0  0  0
 21 22  1  0  0  0  0
 21 41  1  6  0  0  0
 22 23  2  0  0  0  0
 22 33  1  0  0  0  0
 23 24  1  0  0  0  0
 23 42  1  0  0  0  0
 24 25  1  0  0  0  0
 24 26  2  0  0  0  0
 25 43  1  0  0  0  0
 25 44  1  0  0  0  0
 25 45  1  0  0  0  0
 26 27  1  0  0  0  0
 26 33  1  0  0  0  0
 27 28  2  0  0  0  0
 27 29  1  0  0  0  0
 29 30  1  0  0  0  0
 29 46  1  0  0  0  0
 30 31  2  0  0  0  0
 30 32  1  0  0  0  0
 31 47  1  0  0  0  0
 32 33  2  0  0  0  0
 32 48  1  0  0  0  0
M  CHG  4  22   1  24   1  29   1  32   1
M  END
$$$$
