MLR
 OpenBabel04111922033D

 66 68  0  0  1  0  0  0  0  0999 V2000
  -34.7012    8.4924   -5.8507 C   0  0  1  0  0  0  0  0  0  0  0  0
  -34.5600    9.3316   -4.5677 C   0  0  1  0  0  0  0  0  0  0  0  0
  -33.1038    9.7780   -4.3844 C   0  0  2  0  0  0  0  0  0  0  0  0
  -32.1844    8.5432   -4.4229 C   0  0  1  0  0  0  0  0  0  0  0  0
  -32.4207    7.7471   -5.7146 C   0  0  1  0  0  0  0  0  0  0  0  0
  -31.6195    6.4379   -5.6986 C   0  0  0  0  0  0  0  0  0  0  0  0
  -34.5858    9.2696   -7.0380 O   0  0  0  0  0  0  0  0  0  0  0  0
  -35.4609   10.4423   -4.5747 O   0  0  0  0  0  0  0  0  0  0  0  0
  -32.9788   10.4511   -3.1271 O   0  0  0  0  0  0  0  0  0  0  0  0
  -30.8219    8.9867   -4.3765 O   0  0  0  0  0  0  0  0  0  0  0  0
  -33.8025    7.3890   -5.8822 O   0  0  0  0  0  0  0  0  0  0  0  0
  -31.7983    5.7478   -6.9356 O   0  0  0  0  0  0  0  0  0  0  0  0
  -30.1298    8.5969   -3.1841 C   0  0  2  0  0  0  0  0  0  0  0  0
  -29.4896    9.8239   -2.5221 C   0  0  1  0  0  0  0  0  0  0  0  0
  -28.4227   10.4115   -3.4421 C   0  0  2  0  0  0  0  0  0  0  0  0
  -27.3995    9.3292   -3.8131 C   0  0  1  0  0  0  0  0  0  0  0  0
  -28.1098    8.0825   -4.3715 C   0  0  1  0  0  0  0  0  0  0  0  0
  -27.0843    6.9474   -4.5556 C   0  0  0  0  0  0  0  0  0  0  0  0
  -30.4724   10.8277   -2.2261 O   0  0  0  0  0  0  0  0  0  0  0  0
  -27.7943   11.4935   -2.7331 O   0  0  0  0  0  0  0  0  0  0  0  0
  -26.5115    9.8540   -4.8109 O   0  0  0  0  0  0  0  0  0  0  0  0
  -29.1415    7.6149   -3.4882 O   0  0  0  0  0  0  0  0  0  0  0  0
  -27.6645    5.7960   -5.1663 O   0  0  0  0  0  0  0  0  0  0  0  0
  -25.2221   10.2069   -4.2987 C   0  0  2  0  0  0  0  0  0  0  0  0
  -24.8591   11.6374   -4.7272 C   0  0  1  0  0  0  0  0  0  0  0  0
  -24.6849   11.6945   -6.2412 C   0  0  2  0  0  0  0  0  0  0  0  0
  -23.6415   10.6610   -6.6825 C   0  0  1  0  0  0  0  0  0  0  0  0
  -24.0708    9.2686   -6.1899 C   0  0  1  0  0  0  0  0  0  0  0  0
  -23.0324    8.1935   -6.5491 C   0  0  0  0  0  0  0  0  0  0  0  0
  -25.8681   12.5763   -4.3185 O   0  0  0  0  0  0  0  0  0  0  0  0
  -24.2873   13.0216   -6.6119 O   0  0  0  0  0  0  0  0  0  0  0  0
  -23.5015   10.7194   -8.1056 O   0  0  0  0  0  0  0  0  0  0  0  0
  -24.2532    9.2665   -4.7609 O   0  0  0  0  0  0  0  0  0  0  0  0
  -23.5744    6.8836   -6.3587 O   0  0  0  0  0  0  0  0  0  0  0  0
  -35.7149    8.0787   -5.8741 H   0  0  0  0  0  0  0  0  0  0  0  0
  -34.8342    8.7124   -3.7025 H   0  0  0  0  0  0  0  0  0  0  0  0
  -32.8184   10.5088   -5.1495 H   0  0  0  0  0  0  0  0  0  0  0  0
  -32.4369    7.9082   -3.5648 H   0  0  0  0  0  0  0  0  0  0  0  0
  -32.1015    8.3236   -6.5942 H   0  0  0  0  0  0  0  0  0  0  0  0
  -31.9644    5.7765   -4.8969 H   0  0  0  0  0  0  0  0  0  0  0  0
  -30.5503    6.6178   -5.5736 H   0  0  0  0  0  0  0  0  0  0  0  0
  -33.7293    9.7188   -7.0426 H   0  0  0  0  0  0  0  0  0  0  0  0
  -35.2646   10.9849   -5.3552 H   0  0  0  0  0  0  0  0  0  0  0  0
  -32.0339   10.6820   -2.9859 H   0  0  0  0  0  0  0  0  0  0  0  0
  -32.7650    5.6662   -7.0525 H   0  0  0  0  0  0  0  0  0  0  0  0
  -30.8160    8.1503   -2.4563 H   0  0  0  0  0  0  0  0  0  0  0  0
  -29.0320    9.5293   -1.5708 H   0  0  0  0  0  0  0  0  0  0  0  0
  -28.8772   10.8560   -4.3353 H   0  0  0  0  0  0  0  0  0  0  0  0
  -26.8536    9.0376   -2.9056 H   0  0  0  0  0  0  0  0  0  0  0  0
  -28.5579    8.2956   -5.3522 H   0  0  0  0  0  0  0  0  0  0  0  0
  -26.6923    6.6299   -3.5834 H   0  0  0  0  0  0  0  0  0  0  0  0
  -26.2444    7.2627   -5.1796 H   0  0  0  0  0  0  0  0  0  0  0  0
  -29.9572   11.5767   -1.8591 H   0  0  0  0  0  0  0  0  0  0  0  0
  -27.1915   11.9436   -3.3697 H   0  0  0  0  0  0  0  0  0  0  0  0
  -28.1023    6.0716   -5.9883 H   0  0  0  0  0  0  0  0  0  0  0  0
  -25.2122   10.1776   -3.2027 H   0  0  0  0  0  0  0  0  0  0  0  0
  -23.9225   11.9395   -4.2412 H   0  0  0  0  0  0  0  0  0  0  0  0
  -25.6404   11.5198   -6.7505 H   0  0  0  0  0  0  0  0  0  0  0  0
  -22.6664   10.9306   -6.2564 H   0  0  0  0  0  0  0  0  0  0  0  0
  -25.0180    8.9806   -6.6645 H   0  0  0  0  0  0  0  0  0  0  0  0
  -22.1563    8.2697   -5.8966 H   0  0  0  0  0  0  0  0  0  0  0  0
  -22.7066    8.2652   -7.5923 H   0  0  0  0  0  0  0  0  0  0  0  0
  -25.6197   13.4111   -4.7706 H   0  0  0  0  0  0  0  0  0  0  0  0
  -24.0309   12.9735   -7.5545 H   0  0  0  0  0  0  0  0  0  0  0  0
  -24.3361   10.4223   -8.5161 H   0  0  0  0  0  0  0  0  0  0  0  0
  -24.3227    6.7669   -6.9620 H   0  0  0  0  0  0  0  0  0  0  0  0
  1  2  1  0  0  0  0
  1  7  1  0  0  0  0
  1 11  1  0  0  0  0
  1 35  1  1  0  0  0
  2  3  1  0  0  0  0
  2  8  1  0  0  0  0
  2 36  1  1  0  0  0
  3  4  1  0  0  0  0
  3  9  1  0  0  0  0
  3 37  1  6  0  0  0
  4  5  1  0  0  0  0
  4 10  1  0  0  0  0
  4 38  1  1  0  0  0
  5  6  1  0  0  0  0
  5 11  1  0  0  0  0
  5 39  1  6  0  0  0
  6 12  1  0  0  0  0
  6 40  1  0  0  0  0
  6 41  1  0  0  0  0
  7 42  1  0  0  0  0
  8 43  1  0  0  0  0
  9 44  1  0  0  0  0
 10 13  1  0  0  0  0
 12 45  1  0  0  0  0
 13 14  1  0  0  0  0
 13 22  1  0  0  0  0
 13 46  1  1  0  0  0
 14 15  1  0  0  0  0
 14 19  1  0  0  0  0
 14 47  1  1  0  0  0
 15 16  1  0  0  0  0
 15 20  1  0  0  0  0
 15 48  1  6  0  0  0
 16 17  1  0  0  0  0
 16 21  1  0  0  0  0
 16 49  1  1  0  0  0
 17 18  1  0  0  0  0
 17 22  1  0  0  0  0
 17 50  1  6  0  0  0
 18 23  1  0  0  0  0
 18 51  1  0  0  0  0
 18 52  1  0  0  0  0
 19 53  1  0  0  0  0
 20 54  1  0  0  0  0
 21 24  1  0  0  0  0
 23 55  1  0  0  0  0
 24 25  1  0  0  0  0
 24 33  1  0  0  0  0
 24 56  1  1  0  0  0
 25 26  1  0  0  0  0
 25 30  1  0  0  0  0
 25 57  1  1  0  0  0
 26 27  1  0  0  0  0
 26 31  1  0  0  0  0
 26 58  1  6  0  0  0
 27 28  1  0  0  0  0
 27 32  1  0  0  0  0
 27 59  1  1  0  0  0
 28 29  1  0  0  0  0
 28 33  1  0  0  0  0
 28 60  1  6  0  0  0
 29 34  1  0  0  0  0
 29 61  1  0  0  0  0
 29 62  1  0  0  0  0
 30 63  1  0  0  0  0
 31 64  1  0  0  0  0
 32 65  1  0  0  0  0
 34 66  1  0  0  0  0
M  END
$$$$
