MM9
 OpenBabel04111918053D

 71 73  0  0  1  0  0  0  0  0999 V2000
   18.7742  -14.4270   24.2113 C   0  0  0  0  0  0  0  0  0  0  0  0
   18.8990  -15.7621   24.9702 C   0  0  0  0  0  0  0  0  0  0  0  0
   19.4896  -15.5845   26.3675 C   0  0  0  0  0  0  0  0  0  0  0  0
   20.8257  -14.8568   26.3239 C   0  0  0  0  0  0  0  0  0  0  0  0
   20.6868  -13.5146   25.6211 C   0  0  0  0  0  0  0  0  0  0  0  0
   20.1319  -13.6949   24.2136 C   0  0  0  0  0  0  0  0  0  0  0  0
   16.9739  -15.4112   22.7710 N   0  3  0  0  0  0  0  0  0  0  0  0
   18.2632  -14.5984   22.7570 C   0  0  1  0  0  0  0  0  0  0  0  0
   17.9524  -13.2035   22.1796 C   0  0  0  0  0  0  0  0  0  0  0  0
   16.8711  -12.6801   22.4734 O   0  0  0  0  0  0  0  0  0  0  0  0
   18.8484  -12.6064   21.3408 N   0  0  0  0  0  0  0  0  0  0  0  0
   18.5327  -11.4942   20.4264 C   0  0  2  0  0  0  0  0  0  0  0  0
   17.1483  -11.6811   19.7411 C   0  0  0  0  0  0  0  0  0  0  0  0
   16.8406  -12.7441   19.1702 O   0  0  0  0  0  0  0  0  0  0  0  0
   16.2491  -10.6572   19.8897 N   0  0  0  0  0  0  0  0  0  0  0  0
   14.8895  -10.8058   19.4365 C   0  0  0  0  0  0  0  0  0  0  0  0
   13.9411  -10.7937   20.6046 C   0  0  0  0  0  0  0  0  0  0  0  0
   13.3140   -9.6096   20.9731 C   0  0  0  0  0  0  0  0  0  0  0  0
   12.4164   -9.5919   22.0418 C   0  0  0  0  0  0  0  0  0  0  0  0
   12.1513  -10.7490   22.7940 C   0  0  0  0  0  0  0  0  0  0  0  0
   12.8245  -11.9325   22.4400 C   0  0  0  0  0  0  0  0  0  0  0  0
   13.7028  -11.9517   21.3509 C   0  0  0  0  0  0  0  0  0  0  0  0
   11.1719  -10.7133   23.9050 C   0  0  0  0  0  0  0  0  0  0  0  0
   10.9117   -9.5844   24.5255 N   0  0  0  0  0  0  0  0  0  0  0  0
   10.5412  -11.8153   24.2727 N   0  0  0  0  0  0  0  0  0  0  0  0
   19.7604  -11.9164   19.6088 C   0  0  0  0  0  0  0  0  0  0  0  0
   20.0117  -13.0572   20.6000 C   0  0  0  0  0  0  0  0  0  0  0  0
   16.3359  -15.6805   21.4182 C   0  0  0  0  0  0  0  0  0  0  0  0
   14.5918  -15.5351   19.0688 C   0  0  0  0  0  0  0  0  0  0  0  0
   14.8065  -15.6827   21.5604 C   0  0  0  0  0  0  0  0  0  0  0  0
   14.3310  -15.6874   22.7018 O   0  0  0  0  0  0  0  0  0  0  0  0
   12.5830  -15.6085   20.5183 C   0  0  0  0  0  0  0  0  0  0  0  0
   14.0354  -15.6233   20.4155 N   0  0  0  0  0  0  0  0  0  0  0  0
   18.0589  -13.7972   24.7627 H   0  0  0  0  0  0  0  0  0  0  0  0
   19.5275  -16.4516   24.3930 H   0  0  0  0  0  0  0  0  0  0  0  0
   17.9200  -16.2373   25.0884 H   0  0  0  0  0  0  0  0  0  0  0  0
   19.6172  -16.5656   26.8378 H   0  0  0  0  0  0  0  0  0  0  0  0
   18.7844  -15.0204   26.9911 H   0  0  0  0  0  0  0  0  0  0  0  0
   21.5606  -15.4733   25.7919 H   0  0  0  0  0  0  0  0  0  0  0  0
   21.2033  -14.7080   27.3408 H   0  0  0  0  0  0  0  0  0  0  0  0
   21.6615  -13.0174   25.5706 H   0  0  0  0  0  0  0  0  0  0  0  0
   20.0211  -12.8594   26.1970 H   0  0  0  0  0  0  0  0  0  0  0  0
   20.0413  -12.7038   23.7571 H   0  0  0  0  0  0  0  0  0  0  0  0
   20.8511  -14.2625   23.6095 H   0  0  0  0  0  0  0  0  0  0  0  0
   17.0528  -16.3035   23.2704 H   0  0  0  0  0  0  0  0  0  0  0  0
   18.9676  -15.1566   22.1357 H   0  0  0  0  0  0  0  0  0  0  0  0
   18.6574  -10.5350   20.9406 H   0  0  0  0  0  0  0  0  0  0  0  0
   16.4811   -9.8608   20.4730 H   0  0  0  0  0  0  0  0  0  0  0  0
   14.7593  -11.7344   18.8697 H   0  0  0  0  0  0  0  0  0  0  0  0
   14.6814   -9.9797   18.7497 H   0  0  0  0  0  0  0  0  0  0  0  0
   13.5038   -8.6925   20.4171 H   0  0  0  0  0  0  0  0  0  0  0  0
   11.9174   -8.6447   22.2472 H   0  0  0  0  0  0  0  0  0  0  0  0
   12.6967  -12.8553   22.9955 H   0  0  0  0  0  0  0  0  0  0  0  0
   14.2060  -12.8745   21.0854 H   0  0  0  0  0  0  0  0  0  0  0  0
   10.2274   -9.5074   25.2650 H   0  0  0  0  0  0  0  0  0  0  0  0
   10.7006  -12.6949   23.7971 H   0  0  0  0  0  0  0  0  0  0  0  0
    9.8513  -11.8173   25.0117 H   0  0  0  0  0  0  0  0  0  0  0  0
   20.5512  -11.1617   19.5500 H   0  0  0  0  0  0  0  0  0  0  0  0
   19.5304  -12.2458   18.5878 H   0  0  0  0  0  0  0  0  0  0  0  0
   19.9240  -14.0565   20.1661 H   0  0  0  0  0  0  0  0  0  0  0  0
   20.9384  -12.9641   21.1703 H   0  0  0  0  0  0  0  0  0  0  0  0
   16.6940  -16.6608   21.0953 H   0  0  0  0  0  0  0  0  0  0  0  0
   16.6547  -14.8975   20.7332 H   0  0  0  0  0  0  0  0  0  0  0  0
   13.7950  -15.4844   18.3223 H   0  0  0  0  0  0  0  0  0  0  0  0
   15.2181  -16.4117   18.8832 H   0  0  0  0  0  0  0  0  0  0  0  0
   15.2031  -14.6349   18.9937 H   0  0  0  0  0  0  0  0  0  0  0  0
   12.2473  -15.6731   21.5566 H   0  0  0  0  0  0  0  0  0  0  0  0
   12.1800  -16.4589   19.9614 H   0  0  0  0  0  0  0  0  0  0  0  0
   12.2083  -14.6750   20.0873 H   0  0  0  0  0  0  0  0  0  0  0  0
   16.2653  -14.8718   23.3051 H   0  0  0  0  0  0  0  0  0  0  0  0
   11.4037   -8.7294   24.2826 H   0  0  0  0  0  0  0  0  0  0  0  0
  1  2  1  0  0  0  0
  1  6  1  0  0  0  0
  1  8  1  0  0  0  0
  1 34  1  0  0  0  0
  2  3  1  0  0  0  0
  2 35  1  0  0  0  0
  2 36  1  0  0  0  0
  3  4  1  0  0  0  0
  3 37  1  0  0  0  0
  3 38  1  0  0  0  0
  4  5  1  0  0  0  0
  4 39  1  0  0  0  0
  4 40  1  0  0  0  0
  5  6  1  0  0  0  0
  5 41  1  0  0  0  0
  5 42  1  0  0  0  0
  6 43  1  0  0  0  0
  6 44  1  0  0  0  0
  7  8  1  0  0  0  0
  7 28  1  0  0  0  0
  7 45  1  0  0  0  0
  7 70  1  0  0  0  0
  8  9  1  0  0  0  0
  8 46  1  6  0  0  0
  9 10  2  0  0  0  0
  9 11  1  0  0  0  0
 11 12  1  0  0  0  0
 11 27  1  0  0  0  0
 12 13  1  0  0  0  0
 12 26  1  0  0  0  0
 12 47  1  1  0  0  0
 13 14  2  0  0  0  0
 13 15  1  0  0  0  0
 15 16  1  0  0  0  0
 15 48  1  0  0  0  0
 16 17  1  0  0  0  0
 16 49  1  0  0  0  0
 16 50  1  0  0  0  0
 17 18  2  0  0  0  0
 17 22  1  0  0  0  0
 18 19  1  0  0  0  0
 18 51  1  0  0  0  0
 19 20  2  0  0  0  0
 19 52  1  0  0  0  0
 20 21  1  0  0  0  0
 20 23  1  0  0  0  0
 21 22  2  0  0  0  0
 21 53  1  0  0  0  0
 22 54  1  0  0  0  0
 23 24  2  0  0  0  0
 23 25  1  0  0  0  0
 24 55  1  0  0  0  0
 24 71  1  0  0  0  0
 25 56  1  0  0  0  0
 25 57  1  0  0  0  0
 26 27  1  0  0  0  0
 26 58  1  0  0  0  0
 26 59  1  0  0  0  0
 27 60  1  0  0  0  0
 27 61  1  0  0  0  0
 28 30  1  0  0  0  0
 28 62  1  0  0  0  0
 28 63  1  0  0  0  0
 29 33  1  0  0  0  0
 29 64  1  0  0  0  0
 29 65  1  0  0  0  0
 29 66  1  0  0  0  0
 30 31  2  0  0  0  0
 30 33  1  0  0  0  0
 32 33  1  0  0  0  0
 32 67  1  0  0  0  0
 32 68  1  0  0  0  0
 32 69  1  0  0  0  0
M  CHG  1   7   1
M  END
$$$$
