MS0
 OpenBabel04111918293D

 24 25  0  0  0  0  0  0  0  0999 V2000
   13.6525   10.7043   -0.2584 O   0  0  0  0  0  0  0  0  0  0  0  0
   14.0091   10.4335   -1.5677 C   0  0  0  0  0  0  0  0  0  0  0  0
   15.3861   10.3408   -1.6443 C   0  0  0  0  0  0  0  0  0  0  0  0
   15.9087   10.5553   -0.3501 C   0  0  0  0  0  0  0  0  0  0  0  0
   14.8116   10.7744    0.4533 C   0  0  0  0  0  0  0  0  0  0  0  0
   17.2724   10.4661    0.1680 C   0  0  0  0  0  0  0  0  0  0  0  0
   18.3477   11.3846   -0.3579 C   0  0  0  0  0  0  0  0  0  0  0  0
   19.4755   10.7971   -0.4900 O   0  0  0  0  0  0  0  0  0  0  0  0
   18.0714   12.5758   -0.5310 O   0  0  0  0  0  0  0  0  0  0  0  0
   15.9876   10.0643   -2.8903 C   0  0  0  0  0  0  0  0  0  0  0  0
   15.1921    9.8850   -4.0246 C   0  0  0  0  0  0  0  0  0  0  0  0
   13.8080    9.9601   -3.9164 C   0  0  0  0  0  0  0  0  0  0  0  0
   13.1892   10.2497   -2.6798 C   0  0  0  0  0  0  0  0  0  0  0  0
   13.0909    9.7405   -5.0745 O   0  0  0  0  0  0  0  0  0  0  0  0
   11.6886    9.5865   -4.8589 C   0  0  0  0  0  0  0  0  0  0  0  0
   14.8172   10.9500    1.5191 H   0  0  0  0  0  0  0  0  0  0  0  0
   17.6157    9.4395    0.0162 H   0  0  0  0  0  0  0  0  0  0  0  0
   17.2385   10.6585    1.2441 H   0  0  0  0  0  0  0  0  0  0  0  0
   17.0669   10.0255   -2.9042 H   0  0  0  0  0  0  0  0  0  0  0  0
   15.6970    9.6895   -4.9558 H   0  0  0  0  0  0  0  0  0  0  0  0
   12.1245   10.3485   -2.5818 H   0  0  0  0  0  0  0  0  0  0  0  0
   11.1820    9.4224   -5.8126 H   0  0  0  0  0  0  0  0  0  0  0  0
   11.2608   10.4915   -4.4118 H   0  0  0  0  0  0  0  0  0  0  0  0
   11.4963    8.7219   -4.2114 H   0  0  0  0  0  0  0  0  0  0  0  0
  1  2  1  0  0  0  0
  1  5  1  0  0  0  0
  2  3  2  0  0  0  0
  2 13  1  0  0  0  0
  3  4  1  0  0  0  0
  3 10  1  0  0  0  0
  4  5  2  0  0  0  0
  4  6  1  0  0  0  0
  5 16  1  0  0  0  0
  6  7  1  0  0  0  0
  6 17  1  0  0  0  0
  6 18  1  0  0  0  0
  7  8  2  0  0  0  0
  7  9  1  0  0  0  0
 10 11  2  0  0  0  0
 10 19  1  0  0  0  0
 11 12  1  0  0  0  0
 11 20  1  0  0  0  0
 12 13  2  0  0  0  0
 12 14  1  0  0  0  0
 13 21  1  0  0  0  0
 14 15  1  0  0  0  0
 15 22  1  0  0  0  0
 15 23  1  0  0  0  0
 15 24  1  0  0  0  0
M  END
$$$$
