MTX
 OpenBabel04111919503D

 53 55  0  0  1  0  0  0  0  0999 V2000
   14.1945  -35.9723   -3.1883 N   0  0  0  0  0  0  0  0  0  0  0  0
   13.1930  -35.4104   -3.8647 C   0  0  0  0  0  0  0  0  0  0  0  0
   13.4323  -35.0985   -5.1744 N   0  0  0  0  0  0  0  0  0  0  0  0
   11.9809  -35.1834   -3.3710 N   0  0  0  0  0  0  0  0  0  0  0  0
   11.7607  -35.5926   -2.1067 C   0  0  0  0  0  0  0  0  0  0  0  0
   10.4347  -35.5179   -1.6457 N   0  0  0  0  0  0  0  0  0  0  0  0
   12.7194  -36.1981   -1.3116 C   0  0  0  0  0  0  0  0  0  0  0  0
   12.4726  -36.5885   -0.0196 N   0  0  0  0  0  0  0  0  0  0  0  0
   13.5140  -37.1447    0.6483 C   0  0  0  0  0  0  0  0  0  0  0  0
   14.7313  -37.3062    0.0295 C   0  0  0  0  0  0  0  0  0  0  0  0
   14.9617  -36.9246   -1.2533 N   0  0  0  0  0  0  0  0  0  0  0  0
   13.9601  -36.3585   -1.9332 C   0  0  0  0  0  0  0  0  0  0  0  0
   13.2894  -37.5652    2.0907 C   0  0  0  0  0  0  0  0  0  0  0  0
   13.9262  -36.6569    3.0634 N   0  0  0  0  0  0  0  0  0  0  0  0
   13.2954  -35.3445    3.2057 C   0  0  0  0  0  0  0  0  0  0  0  0
   18.0495  -37.1436    3.9605 C   0  0  0  0  0  0  0  0  0  0  0  0
   17.2246  -38.2514    3.7708 C   0  0  0  0  0  0  0  0  0  0  0  0
   15.8663  -38.0820    3.4705 C   0  0  0  0  0  0  0  0  0  0  0  0
   15.2889  -36.8066    3.3287 C   0  0  0  0  0  0  0  0  0  0  0  0
   16.1468  -35.7103    3.5133 C   0  0  0  0  0  0  0  0  0  0  0  0
   17.5013  -35.8685    3.8352 C   0  0  0  0  0  0  0  0  0  0  0  0
   19.4685  -37.3664    4.3582 C   0  0  0  0  0  0  0  0  0  0  0  0
   19.7599  -38.4098    4.9323 O   0  0  0  0  0  0  0  0  0  0  0  0
   20.3403  -36.3597    4.0423 N   0  0  0  0  0  0  0  0  0  0  0  0
   21.7646  -36.2950    4.4523 C   0  0  2  0  0  0  0  0  0  0  0  0
   22.1560  -34.8388    4.9400 C   0  0  0  0  0  0  0  0  0  0  0  0
   23.3466  -34.4555    4.7716 O   0  0  0  0  0  0  0  0  0  0  0  0
   21.1890  -34.1729    5.4375 O   0  0  0  0  0  0  0  0  0  0  0  0
   22.6403  -36.8047    3.2940 C   0  0  0  0  0  0  0  0  0  0  0  0
   22.7522  -38.3302    3.2585 C   0  0  0  0  0  0  0  0  0  0  0  0
   23.7384  -38.7395    2.1637 C   0  0  0  0  0  0  0  0  0  0  0  0
   24.9649  -38.6031    2.4446 O   0  0  0  0  0  0  0  0  0  0  0  0
   23.2185  -39.2169    1.1139 O   0  0  0  0  0  0  0  0  0  0  0  0
   14.3942  -35.1404   -5.4699 H   0  0  0  0  0  0  0  0  0  0  0  0
   12.7448  -34.5360   -5.6423 H   0  0  0  0  0  0  0  0  0  0  0  0
   10.3646  -35.4854   -0.6327 H   0  0  0  0  0  0  0  0  0  0  0  0
    9.8540  -34.8934   -2.1894 H   0  0  0  0  0  0  0  0  0  0  0  0
   15.5857  -37.7434    0.5371 H   0  0  0  0  0  0  0  0  0  0  0  0
   13.5970  -38.6095    2.2115 H   0  0  0  0  0  0  0  0  0  0  0  0
   12.2090  -37.5769    2.2910 H   0  0  0  0  0  0  0  0  0  0  0  0
   13.7576  -34.7263    3.9827 H   0  0  0  0  0  0  0  0  0  0  0  0
   12.2518  -35.4689    3.5147 H   0  0  0  0  0  0  0  0  0  0  0  0
   13.3125  -34.7899    2.2616 H   0  0  0  0  0  0  0  0  0  0  0  0
   17.6363  -39.2543    3.8759 H   0  0  0  0  0  0  0  0  0  0  0  0
   15.2689  -38.9846    3.3917 H   0  0  0  0  0  0  0  0  0  0  0  0
   15.7946  -34.6885    3.4132 H   0  0  0  0  0  0  0  0  0  0  0  0
   18.0998  -34.9797    4.0197 H   0  0  0  0  0  0  0  0  0  0  0  0
   20.0287  -35.4983    3.6226 H   0  0  0  0  0  0  0  0  0  0  0  0
   21.8879  -36.9457    5.3272 H   0  0  0  0  0  0  0  0  0  0  0  0
   23.6488  -36.3839    3.3510 H   0  0  0  0  0  0  0  0  0  0  0  0
   22.2217  -36.4578    2.3386 H   0  0  0  0  0  0  0  0  0  0  0  0
   21.7768  -38.7927    3.0721 H   0  0  0  0  0  0  0  0  0  0  0  0
   23.1141  -38.7080    4.2223 H   0  0  0  0  0  0  0  0  0  0  0  0
  1  2  2  0  0  0  0
  1 12  1  0  0  0  0
  2  3  1  0  0  0  0
  2  4  1  0  0  0  0
  3 34  1  0  0  0  0
  3 35  1  0  0  0  0
  4  5  2  0  0  0  0
  5  6  1  0  0  0  0
  5  7  1  0  0  0  0
  6 36  1  0  0  0  0
  6 37  1  0  0  0  0
  7  8  2  0  0  0  0
  7 12  1  0  0  0  0
  8  9  1  0  0  0  0
  9 10  2  0  0  0  0
  9 13  1  0  0  0  0
 10 11  1  0  0  0  0
 10 38  1  0  0  0  0
 11 12  2  0  0  0  0
 13 14  1  0  0  0  0
 13 39  1  0  0  0  0
 13 40  1  0  0  0  0
 14 15  1  0  0  0  0
 14 19  1  0  0  0  0
 15 41  1  0  0  0  0
 15 42  1  0  0  0  0
 15 43  1  0  0  0  0
 16 17  2  0  0  0  0
 16 21  1  0  0  0  0
 16 22  1  0  0  0  0
 17 18  1  0  0  0  0
 17 44  1  0  0  0  0
 18 19  2  0  0  0  0
 18 45  1  0  0  0  0
 19 20  1  0  0  0  0
 20 21  2  0  0  0  0
 20 46  1  0  0  0  0
 21 47  1  0  0  0  0
 22 23  2  0  0  0  0
 22 24  1  0  0  0  0
 24 25  1  0  0  0  0
 24 48  1  0  0  0  0
 25 26  1  0  0  0  0
 25 29  1  0  0  0  0
 25 49  1  1  0  0  0
 26 27  2  0  0  0  0
 26 28  1  0  0  0  0
 29 30  1  0  0  0  0
 29 50  1  0  0  0  0
 29 51  1  0  0  0  0
 30 31  1  0  0  0  0
 30 52  1  0  0  0  0
 30 53  1  0  0  0  0
 31 32  2  0  0  0  0
 31 33  1  0  0  0  0
M  END
$$$$
