MVC
 OpenBabel04111922223D

 65 64  0  0  1  0  0  0  0  0999 V2000
    7.8591  -47.5892  -10.0662 C   0  0  0  0  0  0  0  0  0  0  0  0
    0.9744  -50.8610  -13.8313 C   0  0  0  0  0  0  0  0  0  0  0  0
   -0.4187  -50.2358  -13.6270 C   0  0  0  0  0  0  0  0  0  0  0  0
    7.3454  -48.8248  -10.7947 C   0  0  0  0  0  0  0  0  0  0  0  0
    2.0951  -49.8346  -14.0352 C   0  0  0  0  0  0  0  0  0  0  0  0
   -0.9215  -49.4603  -14.8524 C   0  0  0  0  0  0  0  0  0  0  0  0
   -7.0512  -44.6433  -10.8253 C   0  0  0  0  0  0  0  0  0  0  0  0
    6.5506  -48.4353  -12.0387 C   0  0  0  0  0  0  0  0  0  0  0  0
    3.4858  -50.4687  -14.1979 C   0  0  0  0  0  0  0  0  0  0  0  0
   -2.3828  -48.9857  -14.7473 C   0  0  0  0  0  0  0  0  0  0  0  0
    6.2003  -49.6392  -12.9179 C   0  0  0  0  0  0  0  0  0  0  0  0
    4.0284  -50.9865  -12.8879 C   0  0  0  0  0  0  0  0  0  0  0  0
   -2.6009  -48.0333  -13.5699 C   0  0  0  0  0  0  0  0  0  0  0  0
    5.1855  -50.5971  -12.3216 C   0  0  0  0  0  0  0  0  0  0  0  0
   -4.0438  -47.5439  -13.4386 C   0  0  0  0  0  0  0  0  0  0  0  0
   -4.2083  -46.6098  -12.2247 C   0  0  0  0  0  0  0  0  0  0  0  0
   -8.0667  -42.8417   -9.3663 C   0  0  0  0  0  0  0  0  0  0  0  0
   -6.7948  -43.4157   -9.9603 C   0  0  2  0  0  0  0  0  0  0  0  0
   -6.6014  -46.6121  -12.6386 O   0  0  0  0  0  0  0  0  0  0  0  0
   -5.6287  -46.1543  -12.0184 C   0  0  0  0  0  0  0  0  0  0  0  0
   -5.7298  -45.1964  -11.0878 O   0  0  0  0  0  0  0  0  0  0  0  0
   -6.1454  -42.4284  -10.7773 O   0  0  0  0  0  0  0  0  0  0  0  0
   -8.9415  -42.3991  -10.3992 O   0  0  0  0  0  0  0  0  0  0  0  0
    8.5073  -47.9176   -8.7310 C   0  0  0  0  0  0  0  0  0  0  0  0
    9.0862  -46.6699   -8.0921 C   0  0  0  0  0  0  0  0  0  0  0  0
    7.0222  -46.9065   -9.8863 H   0  0  0  0  0  0  0  0  0  0  0  0
    8.6004  -47.0891  -10.6992 H   0  0  0  0  0  0  0  0  0  0  0  0
    0.9401  -51.5242  -14.7038 H   0  0  0  0  0  0  0  0  0  0  0  0
    1.2142  -51.4705  -12.9515 H   0  0  0  0  0  0  0  0  0  0  0  0
   -0.3810  -49.5618  -12.7629 H   0  0  0  0  0  0  0  0  0  0  0  0
   -1.1344  -51.0378  -13.3974 H   0  0  0  0  0  0  0  0  0  0  0  0
    6.6958  -49.3985  -10.1274 H   0  0  0  0  0  0  0  0  0  0  0  0
    8.1957  -49.4486  -11.0921 H   0  0  0  0  0  0  0  0  0  0  0  0
    2.1216  -49.1599  -13.1734 H   0  0  0  0  0  0  0  0  0  0  0  0
    1.8720  -49.2445  -14.9324 H   0  0  0  0  0  0  0  0  0  0  0  0
   -0.8253  -50.1024  -15.7370 H   0  0  0  0  0  0  0  0  0  0  0  0
   -0.2846  -48.5809  -14.9973 H   0  0  0  0  0  0  0  0  0  0  0  0
   -7.5647  -44.3655  -11.7596 H   0  0  0  0  0  0  0  0  0  0  0  0
   -7.6565  -45.3746  -10.2741 H   0  0  0  0  0  0  0  0  0  0  0  0
    7.1498  -47.7211  -12.6254 H   0  0  0  0  0  0  0  0  0  0  0  0
    5.6278  -47.9335  -11.7281 H   0  0  0  0  0  0  0  0  0  0  0  0
    4.1515  -49.7010  -14.6055 H   0  0  0  0  0  0  0  0  0  0  0  0
    3.4425  -51.2718  -14.9431 H   0  0  0  0  0  0  0  0  0  0  0  0
   -3.0378  -49.8595  -14.6416 H   0  0  0  0  0  0  0  0  0  0  0  0
   -2.6563  -48.4740  -15.6821 H   0  0  0  0  0  0  0  0  0  0  0  0
    7.1264  -50.1824  -13.1442 H   0  0  0  0  0  0  0  0  0  0  0  0
    5.8304  -49.2377  -13.8625 H   0  0  0  0  0  0  0  0  0  0  0  0
    3.4128  -51.7213  -12.3553 H   0  0  0  0  0  0  0  0  0  0  0  0
   -1.9472  -47.1618  -13.6890 H   0  0  0  0  0  0  0  0  0  0  0  0
   -2.3314  -48.5470  -12.6421 H   0  0  0  0  0  0  0  0  0  0  0  0
    5.4441  -51.0170  -11.3464 H   0  0  0  0  0  0  0  0  0  0  0  0
   -4.7092  -48.4082  -13.3238 H   0  0  0  0  0  0  0  0  0  0  0  0
   -4.3277  -47.0041  -14.3502 H   0  0  0  0  0  0  0  0  0  0  0  0
   -3.5879  -45.7232  -12.3948 H   0  0  0  0  0  0  0  0  0  0  0  0
   -3.8540  -47.1403  -11.3322 H   0  0  0  0  0  0  0  0  0  0  0  0
   -7.8262  -41.9897   -8.7203 H   0  0  0  0  0  0  0  0  0  0  0  0
   -8.5768  -43.6059   -8.7756 H   0  0  0  0  0  0  0  0  0  0  0  0
   -6.1177  -43.6886   -9.1441 H   0  0  0  0  0  0  0  0  0  0  0  0
   -5.9080  -41.6814  -10.2086 H   0  0  0  0  0  0  0  0  0  0  0  0
   -8.4588  -41.7333  -10.9241 H   0  0  0  0  0  0  0  0  0  0  0  0
    9.3122  -48.6434   -8.8801 H   0  0  0  0  0  0  0  0  0  0  0  0
    7.7576  -48.3428   -8.0561 H   0  0  0  0  0  0  0  0  0  0  0  0
    9.5457  -46.9254   -7.1331 H   0  0  0  0  0  0  0  0  0  0  0  0
    8.2973  -45.9296   -7.9214 H   0  0  0  0  0  0  0  0  0  0  0  0
    9.8489  -46.2302   -8.7438 H   0  0  0  0  0  0  0  0  0  0  0  0
  1  4  1  0  0  0  0
  1 24  1  0  0  0  0
  1 26  1  0  0  0  0
  1 27  1  0  0  0  0
  2  3  1  0  0  0  0
  2  5  1  0  0  0  0
  2 28  1  0  0  0  0
  2 29  1  0  0  0  0
  3  6  1  0  0  0  0
  3 30  1  0  0  0  0
  3 31  1  0  0  0  0
  4  8  1  0  0  0  0
  4 32  1  0  0  0  0
  4 33  1  0  0  0  0
  5  9  1  0  0  0  0
  5 34  1  0  0  0  0
  5 35  1  0  0  0  0
  6 10  1  0  0  0  0
  6 36  1  0  0  0  0
  6 37  1  0  0  0  0
  7 18  1  0  0  0  0
  7 21  1  0  0  0  0
  7 38  1  0  0  0  0
  7 39  1  0  0  0  0
  8 11  1  0  0  0  0
  8 40  1  0  0  0  0
  8 41  1  0  0  0  0
  9 12  1  0  0  0  0
  9 42  1  0  0  0  0
  9 43  1  0  0  0  0
 10 13  1  0  0  0  0
 10 44  1  0  0  0  0
 10 45  1  0  0  0  0
 11 14  1  0  0  0  0
 11 46  1  0  0  0  0
 11 47  1  0  0  0  0
 12 14  2  0  0  0  0
 12 48  1  0  0  0  0
 13 15  1  0  0  0  0
 13 49  1  0  0  0  0
 13 50  1  0  0  0  0
 14 51  1  0  0  0  0
 15 16  1  0  0  0  0
 15 52  1  0  0  0  0
 15 53  1  0  0  0  0
 16 20  1  0  0  0  0
 16 54  1  0  0  0  0
 16 55  1  0  0  0  0
 17 18  1  0  0  0  0
 17 23  1  0  0  0  0
 17 56  1  0  0  0  0
 17 57  1  0  0  0  0
 18 22  1  0  0  0  0
 18 58  1  1  0  0  0
 19 20  2  0  0  0  0
 20 21  1  0  0  0  0
 22 59  1  0  0  0  0
 23 60  1  0  0  0  0
 24 25  1  0  0  0  0
 24 61  1  0  0  0  0
 24 62  1  0  0  0  0
 25 63  1  0  0  0  0
 25 64  1  0  0  0  0
 25 65  1  0  0  0  0
M  END
$$$$
