MVF
 OpenBabel04111918053D

 65 67  0  0  1  0  0  0  0  0999 V2000
   18.8344  -14.4987   24.2035 C   0  0  0  0  0  0  0  0  0  0  0  0
   18.9404  -15.7753   25.0526 C   0  0  0  0  0  0  0  0  0  0  0  0
   19.4821  -15.4559   26.4419 C   0  0  0  0  0  0  0  0  0  0  0  0
   20.8553  -14.8056   26.3472 C   0  0  0  0  0  0  0  0  0  0  0  0
   20.7839  -13.5206   25.5354 C   0  0  0  0  0  0  0  0  0  0  0  0
   20.2036  -13.7861   24.1511 C   0  0  0  0  0  0  0  0  0  0  0  0
   17.0110  -15.5439   22.8411 N   0  3  0  0  0  0  0  0  0  0  0  0
   18.3148  -14.7579   22.7683 C   0  0  1  0  0  0  0  0  0  0  0  0
   18.0142  -13.3900   22.1388 C   0  0  0  0  0  0  0  0  0  0  0  0
   16.9501  -12.8406   22.4519 O   0  0  0  0  0  0  0  0  0  0  0  0
   18.9016  -12.8288   21.2697 N   0  0  0  0  0  0  0  0  0  0  0  0
   18.6068  -11.6931   20.3787 C   0  0  2  0  0  0  0  0  0  0  0  0
   17.2069  -11.8500   19.7462 C   0  0  0  0  0  0  0  0  0  0  0  0
   16.8801  -12.8952   19.1594 O   0  0  0  0  0  0  0  0  0  0  0  0
   16.2987  -10.8422   19.9773 N   0  0  0  0  0  0  0  0  0  0  0  0
   14.9405  -11.0306   19.5391 C   0  0  0  0  0  0  0  0  0  0  0  0
   13.9838  -10.9968   20.6959 C   0  0  0  0  0  0  0  0  0  0  0  0
   13.6548  -12.1570   21.4070 C   0  0  0  0  0  0  0  0  0  0  0  0
   12.7314  -12.1081   22.4565 C   0  0  0  0  0  0  0  0  0  0  0  0
   12.1234  -10.8939   22.8236 C   0  0  0  0  0  0  0  0  0  0  0  0
   12.4871   -9.7355   22.1105 C   0  0  0  0  0  0  0  0  0  0  0  0
   13.4093   -9.7839   21.0681 C   0  0  0  0  0  0  0  0  0  0  0  0
   11.1320  -10.8192   23.9201 C   0  0  0  0  0  0  0  0  0  0  0  0
   10.4480  -11.8828   24.2895 N   0  0  0  0  0  0  0  0  0  0  0  0
   10.9225   -9.6751   24.5375 N   0  0  0  0  0  0  0  0  0  0  0  0
   19.7959  -12.1531   19.5232 C   0  0  0  0  0  0  0  0  0  0  0  0
   20.0628  -13.2783   20.5293 C   0  0  0  0  0  0  0  0  0  0  0  0
   16.4061  -15.9357   21.5144 C   0  0  0  0  0  0  0  0  0  0  0  0
   14.9582  -16.3909   21.7076 C   0  0  0  0  0  0  0  0  0  0  0  0
   14.4046  -16.2960   22.8010 O   0  0  0  0  0  0  0  0  0  0  0  0
   14.3177  -16.8757   20.6107 N   0  0  0  0  0  0  0  0  0  0  0  0
   18.1315  -13.8231   24.7154 H   0  0  0  0  0  0  0  0  0  0  0  0
   19.5936  -16.5008   24.5521 H   0  0  0  0  0  0  0  0  0  0  0  0
   17.9628  -16.2506   25.1787 H   0  0  0  0  0  0  0  0  0  0  0  0
   19.5382  -16.3719   27.0379 H   0  0  0  0  0  0  0  0  0  0  0  0
   18.7867  -14.7776   26.9536 H   0  0  0  0  0  0  0  0  0  0  0  0
   21.5554  -15.4997   25.8660 H   0  0  0  0  0  0  0  0  0  0  0  0
   21.2407  -14.5945   27.3493 H   0  0  0  0  0  0  0  0  0  0  0  0
   21.7843  -13.0844   25.4366 H   0  0  0  0  0  0  0  0  0  0  0  0
   20.1641  -12.7821   26.0595 H   0  0  0  0  0  0  0  0  0  0  0  0
   20.1205  -12.8261   23.6319 H   0  0  0  0  0  0  0  0  0  0  0  0
   20.9078  -14.4028   23.5788 H   0  0  0  0  0  0  0  0  0  0  0  0
   17.0767  -16.3916   23.4156 H   0  0  0  0  0  0  0  0  0  0  0  0
   19.0095  -15.3592   22.1771 H   0  0  0  0  0  0  0  0  0  0  0  0
   18.7737  -10.7407   20.8962 H   0  0  0  0  0  0  0  0  0  0  0  0
   16.5338  -10.0517   20.5514 H   0  0  0  0  0  0  0  0  0  0  0  0
   14.8185  -11.9834   19.0127 H   0  0  0  0  0  0  0  0  0  0  0  0
   14.7158  -10.2417   18.8204 H   0  0  0  0  0  0  0  0  0  0  0  0
   14.1154  -13.1069   21.1376 H   0  0  0  0  0  0  0  0  0  0  0  0
   12.5092  -13.0373   22.9759 H   0  0  0  0  0  0  0  0  0  0  0  0
   12.0481   -8.7645   22.3255 H   0  0  0  0  0  0  0  0  0  0  0  0
   13.6647   -8.8724   20.5286 H   0  0  0  0  0  0  0  0  0  0  0  0
    9.7576  -11.8467   25.0280 H   0  0  0  0  0  0  0  0  0  0  0  0
   11.4553   -8.8455   24.3020 H   0  0  0  0  0  0  0  0  0  0  0  0
   10.2397   -9.5725   25.2748 H   0  0  0  0  0  0  0  0  0  0  0  0
   20.6000  -11.4183   19.4134 H   0  0  0  0  0  0  0  0  0  0  0  0
   19.5158  -12.4937   18.5188 H   0  0  0  0  0  0  0  0  0  0  0  0
   19.9932  -14.2825   20.1041 H   0  0  0  0  0  0  0  0  0  0  0  0
   20.9856  -13.1590   21.0999 H   0  0  0  0  0  0  0  0  0  0  0  0
   17.0139  -16.7518   21.1174 H   0  0  0  0  0  0  0  0  0  0  0  0
   16.4161  -15.0665   20.8563 H   0  0  0  0  0  0  0  0  0  0  0  0
   13.3602  -17.2020   20.7061 H   0  0  0  0  0  0  0  0  0  0  0  0
   14.7327  -16.9663   19.6892 H   0  0  0  0  0  0  0  0  0  0  0  0
   16.3070  -14.9492   23.3143 H   0  0  0  0  0  0  0  0  0  0  0  0
   10.5650  -12.7769   23.8284 H   0  0  0  0  0  0  0  0  0  0  0  0
  1  2  1  0  0  0  0
  1  6  1  0  0  0  0
  1  8  1  0  0  0  0
  1 32  1  0  0  0  0
  2  3  1  0  0  0  0
  2 33  1  0  0  0  0
  2 34  1  0  0  0  0
  3  4  1  0  0  0  0
  3 35  1  0  0  0  0
  3 36  1  0  0  0  0
  4  5  1  0  0  0  0
  4 37  1  0  0  0  0
  4 38  1  0  0  0  0
  5  6  1  0  0  0  0
  5 39  1  0  0  0  0
  5 40  1  0  0  0  0
  6 41  1  0  0  0  0
  6 42  1  0  0  0  0
  7  8  1  0  0  0  0
  7 28  1  0  0  0  0
  7 43  1  0  0  0  0
  7 64  1  0  0  0  0
  8  9  1  0  0  0  0
  8 44  1  6  0  0  0
  9 10  2  0  0  0  0
  9 11  1  0  0  0  0
 11 12  1  0  0  0  0
 11 27  1  0  0  0  0
 12 13  1  0  0  0  0
 12 26  1  0  0  0  0
 12 45  1  1  0  0  0
 13 14  2  0  0  0  0
 13 15  1  0  0  0  0
 15 16  1  0  0  0  0
 15 46  1  0  0  0  0
 16 17  1  0  0  0  0
 16 47  1  0  0  0  0
 16 48  1  0  0  0  0
 17 18  2  0  0  0  0
 17 22  1  0  0  0  0
 18 19  1  0  0  0  0
 18 49  1  0  0  0  0
 19 20  2  0  0  0  0
 19 50  1  0  0  0  0
 20 21  1  0  0  0  0
 20 23  1  0  0  0  0
 21 22  2  0  0  0  0
 21 51  1  0  0  0  0
 22 52  1  0  0  0  0
 23 24  2  0  0  0  0
 23 25  1  0  0  0  0
 24 53  1  0  0  0  0
 24 65  1  0  0  0  0
 25 54  1  0  0  0  0
 25 55  1  0  0  0  0
 26 27  1  0  0  0  0
 26 56  1  0  0  0  0
 26 57  1  0  0  0  0
 27 58  1  0  0  0  0
 27 59  1  0  0  0  0
 28 29  1  0  0  0  0
 28 60  1  0  0  0  0
 28 61  1  0  0  0  0
 29 30  2  0  0  0  0
 29 31  1  0  0  0  0
 31 62  1  0  0  0  0
 31 63  1  0  0  0  0
M  CHG  1   7   1
M  END
$$$$
