MVH
 OpenBabel04111921553D

 26 25  0  0  1  0  0  0  0  0999 V2000
   -4.0013   14.5957    4.7382 O   0  0  0  0  0  0  0  0  0  0  0  0
   -4.1761   15.9719    4.2688 P   0  0  1  0  0  0  0  0  0  0  0  0
   -4.4206   17.1502    5.3492 O   0  0  0  0  0  0  0  0  0  0  0  0
   -3.5819   17.6005    6.3674 C   0  0  0  0  0  0  0  0  0  0  0  0
   -3.7174   16.5699    2.8857 O   0  0  0  0  0  0  0  0  0  0  0  0
   -5.7657   15.9896    4.0005 O   0  0  0  0  0  0  0  0  0  0  0  0
   -6.1502   15.2801    2.8623 C   0  0  1  0  0  0  0  0  0  0  0  0
   -6.5357   13.8991    3.3591 C   0  0  0  0  0  0  0  0  0  0  0  0
   -7.2766   16.1487    2.4683 C   0  0  0  0  0  0  0  0  0  0  0  0
   -7.8105   15.9033    1.0808 C   0  0  0  0  0  0  0  0  0  0  0  0
   -7.5795   14.8217    0.4631 O   0  0  0  0  0  0  0  0  0  0  0  0
   -8.6251   16.8624    0.5670 N   0  0  0  0  0  0  0  0  0  0  0  0
   -9.2505   16.7650   -0.7513 C   0  0  0  0  0  0  0  0  0  0  0  0
   -4.1246   18.3237    7.0034 H   0  0  0  0  0  0  0  0  0  0  0  0
   -2.7397   18.1120    5.9237 H   0  0  0  0  0  0  0  0  0  0  0  0
   -3.2651   16.7706    6.9941 H   0  0  0  0  0  0  0  0  0  0  0  0
   -5.3710   15.1787    2.0808 H   0  0  0  0  0  0  0  0  0  0  0  0
   -6.9671   13.3309    2.5329 H   0  0  0  0  0  0  0  0  0  0  0  0
   -7.2491   13.9863    4.1701 H   0  0  0  0  0  0  0  0  0  0  0  0
   -5.6922   13.3172    3.7340 H   0  0  0  0  0  0  0  0  0  0  0  0
   -6.9578   17.2172    2.5085 H   0  0  0  0  0  0  0  0  0  0  0  0
   -8.0818   16.0239    3.1850 H   0  0  0  0  0  0  0  0  0  0  0  0
   -8.7862   17.7072    1.1063 H   0  0  0  0  0  0  0  0  0  0  0  0
   -9.8401   17.6629   -0.9474 H   0  0  0  0  0  0  0  0  0  0  0  0
   -9.9044   15.8894   -0.7767 H   0  0  0  0  0  0  0  0  0  0  0  0
   -8.4792   16.6620   -1.5200 H   0  0  0  0  0  0  0  0  0  0  0  0
  2  1  2  1  0  0  0
  2  3  1  0  0  0  0
  2  5  1  0  0  0  0
  2  6  1  0  0  0  0
  3  4  1  0  0  0  0
  4 14  1  0  0  0  0
  4 15  1  0  0  0  0
  4 16  1  0  0  0  0
  6  7  1  0  0  0  0
  7  8  1  0  0  0  0
  7  9  1  0  0  0  0
  7 17  1  6  0  0  0
  8 18  1  0  0  0  0
  8 19  1  0  0  0  0
  8 20  1  0  0  0  0
  9 10  1  0  0  0  0
  9 21  1  0  0  0  0
  9 22  1  0  0  0  0
 10 11  2  0  0  0  0
 10 12  1  0  0  0  0
 12 13  1  0  0  0  0
 12 23  1  0  0  0  0
 13 24  1  0  0  0  0
 13 25  1  0  0  0  0
 13 26  1  0  0  0  0
M  END
$$$$
