MVL
 OpenBabel04111921403D

 26 27  0  0  1  0  0  0  0  0999 V2000
    8.6463   12.4623   13.4326 C   0  0  0  0  0  0  0  0  0  0  0  0
    9.0765   13.0811   12.3028 N   0  3  0  0  0  0  0  0  0  0  0  0
    8.7327   10.2144   12.3618 C   0  0  2  0  0  0  0  0  0  0  0  0
    8.9795   11.0224   11.0563 C   0  0  1  0  0  0  0  0  0  0  0  0
    9.8138   12.2946   11.3010 C   0  0  1  0  0  0  0  0  0  0  0  0
   10.1222   13.0906   10.0467 C   0  0  0  0  0  0  0  0  0  0  0  0
    7.9602   14.5158   13.5052 C   0  0  0  0  0  0  0  0  0  0  0  0
    8.6497   14.3711   12.3216 C   0  0  0  0  0  0  0  0  0  0  0  0
    7.9743   13.3292   14.2016 N   0  0  0  0  0  0  0  0  0  0  0  0
    7.3718    9.7362   12.3620 O   0  0  0  0  0  0  0  0  0  0  0  0
    8.3075   10.4992   14.7680 O   0  0  0  0  0  0  0  0  0  0  0  0
    9.6187   10.1585   10.1106 O   0  0  0  0  0  0  0  0  0  0  0  0
    9.0022   11.0277   13.6489 C   0  0  2  0  0  0  0  0  0  0  0  0
    8.9428   13.6701    9.4948 O   0  0  0  0  0  0  0  0  0  0  0  0
    9.3893    9.3317   12.3567 H   0  0  0  0  0  0  0  0  0  0  0  0
    8.0065   11.3172   10.6463 H   0  0  0  0  0  0  0  0  0  0  0  0
   10.7777   11.9933   11.7388 H   0  0  0  0  0  0  0  0  0  0  0  0
   10.5813   12.4493    9.2881 H   0  0  0  0  0  0  0  0  0  0  0  0
   10.8245   13.8993   10.2899 H   0  0  0  0  0  0  0  0  0  0  0  0
    7.4711   15.4260   13.8643 H   0  0  0  0  0  0  0  0  0  0  0  0
    8.8278   15.0995   11.5613 H   0  0  0  0  0  0  0  0  0  0  0  0
    6.7840   10.5110   12.3710 H   0  0  0  0  0  0  0  0  0  0  0  0
    8.5077   11.0579   15.5352 H   0  0  0  0  0  0  0  0  0  0  0  0
    9.7116   10.6229    9.2689 H   0  0  0  0  0  0  0  0  0  0  0  0
   10.0763   10.9632   13.8505 H   0  0  0  0  0  0  0  0  0  0  0  0
    8.3113   12.9683    9.2822 H   0  0  0  0  0  0  0  0  0  0  0  0
  1  2  2  0  0  0  0
  1  9  1  0  0  0  0
  1 13  1  0  0  0  0
  2  5  1  0  0  0  0
  2  8  1  0  0  0  0
  3  4  1  0  0  0  0
  3 10  1  0  0  0  0
  3 13  1  0  0  0  0
  3 15  1  6  0  0  0
  4  5  1  0  0  0  0
  4 12  1  0  0  0  0
  4 16  1  6  0  0  0
  5  6  1  0  0  0  0
  5 17  1  1  0  0  0
  6 14  1  0  0  0  0
  6 18  1  0  0  0  0
  6 19  1  0  0  0  0
  7  8  2  0  0  0  0
  7  9  1  0  0  0  0
  7 20  1  0  0  0  0
  8 21  1  0  0  0  0
 10 22  1  0  0  0  0
 11 13  1  0  0  0  0
 11 23  1  0  0  0  0
 12 24  1  0  0  0  0
 13 25  1  1  0  0  0
 14 26  1  0  0  0  0
M  CHG  1   2   1
M  END
$$$$
