MVL
 OpenBabel04111917503D

 26 27  0  0  1  0  0  0  0  0999 V2000
    2.8011  -31.8293  -19.9354 C   0  0  0  0  0  0  0  0  0  0  0  0
    4.1648  -31.9292  -19.7586 N   0  3  0  0  0  0  0  0  0  0  0  0
    2.7399  -30.0414  -18.1870 C   0  0  2  0  0  0  0  0  0  0  0  0
    4.2111  -29.7479  -18.5357 C   0  0  1  0  0  0  0  0  0  0  0  0
    4.9843  -31.0333  -18.9361 C   0  0  1  0  0  0  0  0  0  0  0  0
    5.5091  -31.7484  -17.6739 C   0  0  0  0  0  0  0  0  0  0  0  0
    3.4694  -33.5887  -20.9944 C   0  0  0  0  0  0  0  0  0  0  0  0
    4.6169  -33.0146  -20.4648 C   0  0  0  0  0  0  0  0  0  0  0  0
    2.3610  -32.8298  -20.6864 N   0  0  0  0  0  0  0  0  0  0  0  0
    2.6681  -30.9053  -17.0440 O   0  0  0  0  0  0  0  0  0  0  0  0
    0.7101  -31.0712  -19.0405 O   0  0  0  0  0  0  0  0  0  0  0  0
    4.2942  -28.7940  -19.6009 O   0  0  0  0  0  0  0  0  0  0  0  0
    2.0286  -30.6662  -19.4044 C   0  0  2  0  0  0  0  0  0  0  0  0
    6.3190  -32.8784  -17.9786 O   0  0  0  0  0  0  0  0  0  0  0  0
    2.2139  -29.1159  -17.9264 H   0  0  0  0  0  0  0  0  0  0  0  0
    4.7020  -29.2908  -17.6682 H   0  0  0  0  0  0  0  0  0  0  0  0
    5.8379  -30.7612  -19.5733 H   0  0  0  0  0  0  0  0  0  0  0  0
    4.7068  -32.0812  -17.0146 H   0  0  0  0  0  0  0  0  0  0  0  0
    6.1436  -31.0610  -17.1041 H   0  0  0  0  0  0  0  0  0  0  0  0
    3.3874  -34.4907  -21.5779 H   0  0  0  0  0  0  0  0  0  0  0  0
    5.6467  -33.3121  -20.5112 H   0  0  0  0  0  0  0  0  0  0  0  0
    2.9799  -30.4289  -16.2590 H   0  0  0  0  0  0  0  0  0  0  0  0
    0.3751  -31.6003  -19.7767 H   0  0  0  0  0  0  0  0  0  0  0  0
    3.8061  -27.9915  -19.3419 H   0  0  0  0  0  0  0  0  0  0  0  0
    1.9267  -29.9248  -20.2010 H   0  0  0  0  0  0  0  0  0  0  0  0
    5.7204  -33.5590  -18.3443 H   0  0  0  0  0  0  0  0  0  0  0  0
  1  2  2  0  0  0  0
  1  9  1  0  0  0  0
  1 13  1  0  0  0  0
  2  5  1  0  0  0  0
  2  8  1  0  0  0  0
  3  4  1  0  0  0  0
  3 10  1  0  0  0  0
  3 13  1  0  0  0  0
  3 15  1  1  0  0  0
  4  5  1  0  0  0  0
  4 12  1  0  0  0  0
  4 16  1  1  0  0  0
  5  6  1  0  0  0  0
  5 17  1  6  0  0  0
  6 14  1  0  0  0  0
  6 18  1  0  0  0  0
  6 19  1  0  0  0  0
  7  8  2  0  0  0  0
  7  9  1  0  0  0  0
  7 20  1  0  0  0  0
  8 21  1  0  0  0  0
 10 22  1  0  0  0  0
 11 13  1  0  0  0  0
 11 23  1  0  0  0  0
 12 24  1  0  0  0  0
 13 25  1  6  0  0  0
 14 26  1  0  0  0  0
M  CHG  1   2   1
M  END
$$$$
