MYC
 OpenBabel04111919083D

 31 33  0  0  0  0  0  0  0  0999 V2000
   14.1982   13.8638   35.0206 C   0  0  0  0  0  0  0  0  0  0  0  0
   15.2212   14.2468   35.9137 C   0  0  0  0  0  0  0  0  0  0  0  0
   14.7666   14.8467   37.1461 C   0  0  0  0  0  0  0  0  0  0  0  0
   13.3946   14.9694   37.4155 C   0  0  0  0  0  0  0  0  0  0  0  0
   12.4308   14.6015   36.4715 C   0  0  0  0  0  0  0  0  0  0  0  0
   12.8416   14.0453   35.2792 C   0  0  0  0  0  0  0  0  0  0  0  0
   15.6816   15.4102   38.1963 C   0  0  0  0  0  0  0  0  0  0  0  0
   15.0930   15.6819   39.6093 C   0  0  0  0  0  0  0  0  0  0  0  0
   13.7351   15.5608   39.7032 C   0  0  0  0  0  0  0  0  0  0  0  0
   12.9694   15.6094   41.0239 C   0  0  0  0  0  0  0  0  0  0  0  0
   13.6259   15.4031   42.2498 C   0  0  0  0  0  0  0  0  0  0  0  0
   12.9323   15.4555   43.4523 C   0  0  0  0  0  0  0  0  0  0  0  0
   11.5691   15.6453   43.4744 C   0  0  0  0  0  0  0  0  0  0  0  0
   10.8799   15.7879   42.2812 C   0  0  0  0  0  0  0  0  0  0  0  0
   11.5704   15.7885   41.0571 C   0  0  0  0  0  0  0  0  0  0  0  0
   12.8870   15.4041   38.6119 O   0  3  0  0  0  0  0  0  0  0  0  0
   16.8631   15.6655   37.9587 O   0  0  0  0  0  0  0  0  0  0  0  0
    9.5189   15.8956   42.3084 O   0  0  0  0  0  0  0  0  0  0  0  0
   10.9364   15.6409   44.6860 O   0  0  0  0  0  0  0  0  0  0  0  0
   13.5680   15.2668   44.6541 O   0  0  0  0  0  0  0  0  0  0  0  0
   15.9515   15.9666   40.4998 O   0  0  0  0  0  0  0  0  0  0  0  0
   11.9103   13.6436   34.3592 O   0  0  0  0  0  0  0  0  0  0  0  0
   16.4267   14.0093   35.5535 O   0  0  0  0  0  0  0  0  0  0  0  0
   14.5157   13.4027   34.0862 H   0  0  0  0  0  0  0  0  0  0  0  0
   11.3766   14.7335   36.6780 H   0  0  0  0  0  0  0  0  0  0  0  0
   14.6902   15.2075   42.2869 H   0  0  0  0  0  0  0  0  0  0  0  0
   11.0199   15.9315   40.1321 H   0  0  0  0  0  0  0  0  0  0  0  0
    9.1972   15.2952   41.6123 H   0  0  0  0  0  0  0  0  0  0  0  0
   11.6758   15.6964   45.3227 H   0  0  0  0  0  0  0  0  0  0  0  0
   13.6923   14.2988   44.7060 H   0  0  0  0  0  0  0  0  0  0  0  0
   12.4340   13.2540   33.6385 H   0  0  0  0  0  0  0  0  0  0  0  0
  1  2  2  0  0  0  0
  1  6  1  0  0  0  0
  1 24  1  0  0  0  0
  2  3  1  0  0  0  0
  2 23  1  0  0  0  0
  3  4  2  0  0  0  0
  3  7  1  0  0  0  0
  4  5  1  0  0  0  0
  4 16  1  0  0  0  0
  5  6  2  0  0  0  0
  5 25  1  0  0  0  0
  6 22  1  0  0  0  0
  7  8  1  0  0  0  0
  7 17  2  0  0  0  0
  8  9  2  0  0  0  0
  8 21  1  0  0  0  0
  9 10  1  0  0  0  0
  9 16  1  0  0  0  0
 10 11  2  0  0  0  0
 10 15  1  0  0  0  0
 11 12  1  0  0  0  0
 11 26  1  0  0  0  0
 12 13  2  0  0  0  0
 12 20  1  0  0  0  0
 13 14  1  0  0  0  0
 13 19  1  0  0  0  0
 14 15  2  0  0  0  0
 14 18  1  0  0  0  0
 15 27  1  0  0  0  0
 18 28  1  0  0  0  0
 19 29  1  0  0  0  0
 20 30  1  0  0  0  0
 22 31  1  0  0  0  0
M  CHG  1  16   1
M  END
$$$$
