N4C
 OpenBabel04111919443D

 68 71  0  0  1  0  0  0  0  0999 V2000
   12.9616   62.5703   26.4910 O   0  0  0  0  0  0  0  0  0  0  0  0
   14.1528   62.7800   26.6119 C   0  0  0  0  0  0  0  0  0  0  0  0
   14.8594   62.6599   27.7905 N   0  0  0  0  0  0  0  0  0  0  0  0
   14.2990   62.3681   29.1060 C   0  0  2  0  0  0  0  0  0  0  0  0
   12.8908   61.7727   29.1172 C   0  0  0  0  0  0  0  0  0  0  0  0
   12.4280   61.5868   30.5541 C   0  0  0  0  0  0  0  0  0  0  0  0
   12.2603   62.9752   31.1319 C   0  0  1  0  0  0  0  0  0  0  0  0
   11.6328   62.8982   32.4548 N   0  3  0  0  0  0  0  0  0  0  0  0
   13.6425   63.5766   31.2746 C   0  0  0  0  0  0  0  0  0  0  0  0
   14.3147   63.6665   29.9146 C   0  0  0  0  0  0  0  0  0  0  0  0
   14.9558   63.2101   25.4601 C   0  0  0  0  0  0  0  0  0  0  0  0
   15.9345   62.3884   24.9155 C   0  0  0  0  0  0  0  0  0  0  0  0
   14.7130   64.4643   24.9146 C   0  0  0  0  0  0  0  0  0  0  0  0
   15.4473   64.8355   23.8010 C   0  0  0  0  0  0  0  0  0  0  0  0
   15.2501   66.1403   23.3351 O   0  0  0  0  0  0  0  0  0  0  0  0
   14.8434   66.2779   22.0258 C   0  0  0  0  0  0  0  0  0  0  0  0
   13.4800   66.3216   21.7454 C   0  0  0  0  0  0  0  0  0  0  0  0
   13.0550   66.5896   20.4426 C   0  0  0  0  0  0  0  0  0  0  0  0
   13.9662   66.8311   19.3969 C   0  0  0  0  0  0  0  0  0  0  0  0
   13.4836   67.1088   18.0343 C   0  0  0  0  0  0  0  0  0  0  0  0
   12.2565   67.5368   17.8603 N   0  0  0  0  0  0  0  0  0  0  0  0
   14.2385   66.9338   16.9725 N   0  0  0  0  0  0  0  0  0  0  0  0
   15.3325   66.8233   19.7092 C   0  0  0  0  0  0  0  0  0  0  0  0
   15.7669   66.5681   21.0191 C   0  0  0  0  0  0  0  0  0  0  0  0
   16.4284   64.0703   23.2565 N   0  0  0  0  0  0  0  0  0  0  0  0
   16.6513   62.8556   23.8248 C   0  0  0  0  0  0  0  0  0  0  0  0
   17.6393   62.1020   23.1988 O   0  0  0  0  0  0  0  0  0  0  0  0
   18.2405   61.1000   23.9244 C   0  0  0  0  0  0  0  0  0  0  0  0
   18.8860   61.3562   25.1335 C   0  0  0  0  0  0  0  0  0  0  0  0
   19.4781   60.3126   25.8324 C   0  0  0  0  0  0  0  0  0  0  0  0
   19.4744   59.0052   25.3335 C   0  0  0  0  0  0  0  0  0  0  0  0
   20.1235   57.9148   26.0619 C   0  0  0  0  0  0  0  0  0  0  0  0
   20.0931   56.6824   25.6803 N   0  0  0  0  0  0  0  0  0  0  0  0
   20.7729   58.1871   27.1845 N   0  0  0  0  0  0  0  0  0  0  0  0
   18.8388   58.7702   24.1058 C   0  0  0  0  0  0  0  0  0  0  0  0
   18.2271   59.8090   23.3990 C   0  0  0  0  0  0  0  0  0  0  0  0
   15.8326   62.9126   27.7533 H   0  0  0  0  0  0  0  0  0  0  0  0
   14.9761   61.6302   29.5608 H   0  0  0  0  0  0  0  0  0  0  0  0
   12.8721   60.8180   28.5889 H   0  0  0  0  0  0  0  0  0  0  0  0
   12.1999   62.4659   28.6181 H   0  0  0  0  0  0  0  0  0  0  0  0
   13.1939   61.0355   31.1196 H   0  0  0  0  0  0  0  0  0  0  0  0
   11.4943   61.0224   30.5872 H   0  0  0  0  0  0  0  0  0  0  0  0
   11.6045   63.5917   30.5105 H   0  0  0  0  0  0  0  0  0  0  0  0
   11.4963   63.8422   32.8488 H   0  0  0  0  0  0  0  0  0  0  0  0
   10.7062   62.4480   32.4004 H   0  0  0  0  0  0  0  0  0  0  0  0
   14.2521   62.9415   31.9333 H   0  0  0  0  0  0  0  0  0  0  0  0
   13.5775   64.5719   31.7162 H   0  0  0  0  0  0  0  0  0  0  0  0
   13.7958   64.4319   29.3227 H   0  0  0  0  0  0  0  0  0  0  0  0
   15.3524   63.9787   30.0467 H   0  0  0  0  0  0  0  0  0  0  0  0
   16.1249   61.4085   25.3391 H   0  0  0  0  0  0  0  0  0  0  0  0
   13.9604   65.1162   25.3404 H   0  0  0  0  0  0  0  0  0  0  0  0
   12.7543   66.1365   22.5335 H   0  0  0  0  0  0  0  0  0  0  0  0
   11.9845   66.5952   20.2519 H   0  0  0  0  0  0  0  0  0  0  0  0
   11.9049   67.7426   16.9445 H   0  0  0  0  0  0  0  0  0  0  0  0
   15.1870   66.5893   17.0636 H   0  0  0  0  0  0  0  0  0  0  0  0
   13.9002   67.1294   16.0378 H   0  0  0  0  0  0  0  0  0  0  0  0
   16.0731   67.0263   18.9415 H   0  0  0  0  0  0  0  0  0  0  0  0
   16.8300   66.5760   21.2470 H   0  0  0  0  0  0  0  0  0  0  0  0
   18.9087   62.3675   25.5344 H   0  0  0  0  0  0  0  0  0  0  0  0
   19.9515   60.5528   26.7818 H   0  0  0  0  0  0  0  0  0  0  0  0
   20.5590   55.9352   26.1892 H   0  0  0  0  0  0  0  0  0  0  0  0
   20.8290   59.1271   27.5188 H   0  0  0  0  0  0  0  0  0  0  0  0
   21.2347   57.4580   27.6859 H   0  0  0  0  0  0  0  0  0  0  0  0
   18.8148   57.7768   23.6774 H   0  0  0  0  0  0  0  0  0  0  0  0
   17.7296   59.6053   22.4519 H   0  0  0  0  0  0  0  0  0  0  0  0
   12.2128   62.3592   33.1122 H   0  0  0  0  0  0  0  0  0  0  0  0
   11.6574   67.6903   18.6595 H   0  0  0  0  0  0  0  0  0  0  0  0
   19.6050   56.4071   24.8273 H   0  0  0  0  0  0  0  0  0  0  0  0
  1  2  2  0  0  0  0
  2  3  1  0  0  0  0
  2 11  1  0  0  0  0
  3  4  1  0  0  0  0
  3 37  1  0  0  0  0
  4  5  1  0  0  0  0
  4 10  1  0  0  0  0
  4 38  1  1  0  0  0
  5  6  1  0  0  0  0
  5 39  1  0  0  0  0
  5 40  1  0  0  0  0
  6  7  1  0  0  0  0
  6 41  1  0  0  0  0
  6 42  1  0  0  0  0
  7  8  1  0  0  0  0
  7  9  1  0  0  0  0
  7 43  1  6  0  0  0
  8 44  1  0  0  0  0
  8 45  1  0  0  0  0
  8 66  1  0  0  0  0
  9 10  1  0  0  0  0
  9 46  1  0  0  0  0
  9 47  1  0  0  0  0
 10 48  1  0  0  0  0
 10 49  1  0  0  0  0
 11 12  2  0  0  0  0
 11 13  1  0  0  0  0
 12 26  1  0  0  0  0
 12 50  1  0  0  0  0
 13 14  2  0  0  0  0
 13 51  1  0  0  0  0
 14 15  1  0  0  0  0
 14 25  1  0  0  0  0
 15 16  1  0  0  0  0
 16 17  2  0  0  0  0
 16 24  1  0  0  0  0
 17 18  1  0  0  0  0
 17 52  1  0  0  0  0
 18 19  2  0  0  0  0
 18 53  1  0  0  0  0
 19 20  1  0  0  0  0
 19 23  1  0  0  0  0
 20 21  2  0  0  0  0
 20 22  1  0  0  0  0
 21 54  1  0  0  0  0
 21 67  1  0  0  0  0
 22 55  1  0  0  0  0
 22 56  1  0  0  0  0
 23 24  2  0  0  0  0
 23 57  1  0  0  0  0
 24 58  1  0  0  0  0
 25 26  2  0  0  0  0
 26 27  1  0  0  0  0
 27 28  1  0  0  0  0
 28 29  2  0  0  0  0
 28 36  1  0  0  0  0
 29 30  1  0  0  0  0
 29 59  1  0  0  0  0
 30 31  2  0  0  0  0
 30 60  1  0  0  0  0
 31 32  1  0  0  0  0
 31 35  1  0  0  0  0
 32 33  2  0  0  0  0
 32 34  1  0  0  0  0
 33 61  1  0  0  0  0
 33 68  1  0  0  0  0
 34 62  1  0  0  0  0
 34 63  1  0  0  0  0
 35 36  2  0  0  0  0
 35 64  1  0  0  0  0
 36 65  1  0  0  0  0
M  CHG  1   8   1
M  END
$$$$
