N5N
 OpenBabel04111917493D

 73 76  0  0  1  0  0  0  0  0999 V2000
   17.8375  -12.9988   21.2293 N   0  0  0  0  0  0  0  0  0  0  0  0
   18.7303  -13.7291   20.3717 C   0  0  0  0  0  0  0  0  0  0  0  0
   16.8946  -13.5881   22.0707 C   0  0  0  0  0  0  0  0  0  0  0  0
   17.5864  -11.6175   20.8023 C   0  0  0  0  0  0  0  0  0  0  0  0
   20.0962  -13.1678   20.0546 C   0  0  0  0  0  0  0  0  0  0  0  0
   19.9627  -14.3427   20.9687 C   0  0  0  0  0  0  0  0  0  0  0  0
   16.8855  -15.1159   22.1024 C   0  0  1  0  0  0  0  0  0  0  0  0
   16.0802  -12.9487   22.7422 O   0  0  0  0  0  0  0  0  0  0  0  0
   16.6070  -11.5514   19.6143 C   0  0  0  0  0  0  0  0  0  0  0  0
   16.4736  -15.6188   23.4143 N   0  0  0  0  0  0  0  0  0  0  0  0
   15.9455  -15.6368   21.0227 C   0  0  0  0  0  0  0  0  0  0  0  0
   16.6330  -10.4783   18.9517 O   0  0  0  0  0  0  0  0  0  0  0  0
   15.8582  -12.5808   19.4232 O   0  0  0  0  0  0  0  0  0  0  0  0
   17.3698  -16.7890   24.1394 S   0  0  0  0  0  0  0  0  0  0  0  0
   14.4772  -15.3555   21.3058 C   0  0  0  0  0  0  0  0  0  0  0  0
   18.7628  -15.8006   24.6541 C   0  0  0  0  0  0  0  0  0  0  0  0
   16.6608  -17.1563   25.3674 O   0  0  0  0  0  0  0  0  0  0  0  0
   17.7705  -17.7405   23.1658 O   0  0  0  0  0  0  0  0  0  0  0  0
   13.9201  -14.2329   20.7297 N   0  0  0  0  0  0  0  0  0  0  0  0
   13.8220  -16.0847   22.0512 O   0  0  0  0  0  0  0  0  0  0  0  0
   20.0530  -16.0175   24.1834 C   0  0  0  0  0  0  0  0  0  0  0  0
   18.4601  -14.7460   25.5005 C   0  0  0  0  0  0  0  0  0  0  0  0
   12.5058  -13.9151   20.8752 C   0  0  0  0  0  0  0  0  0  0  0  0
   21.0661  -15.1492   24.6225 C   0  0  0  0  0  0  0  0  0  0  0  0
   19.4469  -13.8875   25.9345 C   0  0  0  0  0  0  0  0  0  0  0  0
   12.2314  -12.4786   21.3199 C   0  0  1  0  0  0  0  0  0  0  0  0
   20.7585  -14.0784   25.5090 C   0  0  0  0  0  0  0  0  0  0  0  0
   22.3952  -15.3033   24.2073 C   0  0  0  0  0  0  0  0  0  0  0  0
   12.6444  -12.3450   22.7733 C   0  0  0  0  0  0  0  0  0  0  0  0
   12.9602  -11.4221   20.4986 C   0  0  0  0  0  0  0  0  0  0  0  0
   21.7578  -13.2138   25.9582 C   0  0  0  0  0  0  0  0  0  0  0  0
   23.3837  -14.4266   24.6617 C   0  0  0  0  0  0  0  0  0  0  0  0
   12.3142  -10.9917   23.2629 N   0  0  0  0  0  0  0  0  0  0  0  0
   12.6898  -10.0185   21.0300 C   0  0  0  0  0  0  0  0  0  0  0  0
   23.0708  -13.3881   25.5339 C   0  0  0  0  0  0  0  0  0  0  0  0
   13.0268   -9.9028   22.5173 C   0  0  0  0  0  0  0  0  0  0  0  0
   11.2395  -10.8200   24.0789 C   0  0  0  0  0  0  0  0  0  0  0  0
   10.4371  -11.8697   24.3905 N   0  0  0  0  0  0  0  0  0  0  0  0
   10.8847   -9.6159   24.5616 N   0  0  0  0  0  0  0  0  0  0  0  0
   18.2241  -14.2564   19.5638 H   0  0  0  0  0  0  0  0  0  0  0  0
   18.5389  -11.1568   20.5282 H   0  0  0  0  0  0  0  0  0  0  0  0
   17.2167  -11.0342   21.6499 H   0  0  0  0  0  0  0  0  0  0  0  0
   20.3715  -12.2127   20.4901 H   0  0  0  0  0  0  0  0  0  0  0  0
   20.4997  -13.3127   19.0626 H   0  0  0  0  0  0  0  0  0  0  0  0
   20.2642  -15.3171   20.6160 H   0  0  0  0  0  0  0  0  0  0  0  0
   20.1086  -14.1766   22.0285 H   0  0  0  0  0  0  0  0  0  0  0  0
   17.8969  -15.4767   21.9228 H   0  0  0  0  0  0  0  0  0  0  0  0
   15.5887  -15.3152   23.8116 H   0  0  0  0  0  0  0  0  0  0  0  0
   16.0610  -16.7284   20.9462 H   0  0  0  0  0  0  0  0  0  0  0  0
   16.2261  -15.2216   20.0530 H   0  0  0  0  0  0  0  0  0  0  0  0
   14.5140  -13.6438   20.1202 H   0  0  0  0  0  0  0  0  0  0  0  0
   20.2704  -16.8255   23.4860 H   0  0  0  0  0  0  0  0  0  0  0  0
   17.4290  -14.5811   25.8214 H   0  0  0  0  0  0  0  0  0  0  0  0
   12.0505  -14.5877   21.6137 H   0  0  0  0  0  0  0  0  0  0  0  0
   12.0129  -14.1033   19.9209 H   0  0  0  0  0  0  0  0  0  0  0  0
   19.1815  -13.0755   26.6074 H   0  0  0  0  0  0  0  0  0  0  0  0
   11.1493  -12.2819   21.2363 H   0  0  0  0  0  0  0  0  0  0  0  0
   22.6712  -16.1077   23.5294 H   0  0  0  0  0  0  0  0  0  0  0  0
   13.6935  -12.5674   22.9543 H   0  0  0  0  0  0  0  0  0  0  0  0
   12.1252  -13.1015   23.3543 H   0  0  0  0  0  0  0  0  0  0  0  0
   12.6710  -11.4954   19.4460 H   0  0  0  0  0  0  0  0  0  0  0  0
   14.0310  -11.6005   20.5709 H   0  0  0  0  0  0  0  0  0  0  0  0
   21.5224  -12.3977   26.6401 H   0  0  0  0  0  0  0  0  0  0  0  0
   24.4087  -14.5594   24.3268 H   0  0  0  0  0  0  0  0  0  0  0  0
   11.6274   -9.7899   20.8894 H   0  0  0  0  0  0  0  0  0  0  0  0
   13.2729   -9.2920   20.4570 H   0  0  0  0  0  0  0  0  0  0  0  0
   23.8419  -12.7111   25.8870 H   0  0  0  0  0  0  0  0  0  0  0  0
   14.1119   -9.9894   22.6733 H   0  0  0  0  0  0  0  0  0  0  0  0
   12.7158   -8.9216   22.8812 H   0  0  0  0  0  0  0  0  0  0  0  0
    9.5806  -11.7986   24.9201 H   0  0  0  0  0  0  0  0  0  0  0  0
   11.4578   -8.7986   24.4067 H   0  0  0  0  0  0  0  0  0  0  0  0
   10.0473   -9.4979   25.1174 H   0  0  0  0  0  0  0  0  0  0  0  0
   10.6099  -12.7993   24.0408 H   0  0  0  0  0  0  0  0  0  0  0  0
  1  2  1  0  0  0  0
  1  3  1  0  0  0  0
  1  4  1  0  0  0  0
  2  5  1  0  0  0  0
  2  6  1  0  0  0  0
  2 40  1  0  0  0  0
  3  7  1  0  0  0  0
  3  8  2  0  0  0  0
  4  9  1  0  0  0  0
  4 41  1  0  0  0  0
  4 42  1  0  0  0  0
  5  6  1  0  0  0  0
  5 43  1  0  0  0  0
  5 44  1  0  0  0  0
  6 45  1  0  0  0  0
  6 46  1  0  0  0  0
  7 10  1  0  0  0  0
  7 11  1  0  0  0  0
  7 47  1  6  0  0  0
  9 12  2  0  0  0  0
  9 13  1  0  0  0  0
 10 14  1  0  0  0  0
 10 48  1  0  0  0  0
 11 15  1  0  0  0  0
 11 49  1  0  0  0  0
 11 50  1  0  0  0  0
 14 16  1  0  0  0  0
 14 17  2  0  0  0  0
 14 18  2  0  0  0  0
 15 19  1  0  0  0  0
 15 20  2  0  0  0  0
 16 21  2  0  0  0  0
 16 22  1  0  0  0  0
 19 23  1  0  0  0  0
 19 51  1  0  0  0  0
 21 24  1  0  0  0  0
 21 52  1  0  0  0  0
 22 25  2  0  0  0  0
 22 53  1  0  0  0  0
 23 26  1  0  0  0  0
 23 54  1  0  0  0  0
 23 55  1  0  0  0  0
 24 27  2  0  0  0  0
 24 28  1  0  0  0  0
 25 27  1  0  0  0  0
 25 56  1  0  0  0  0
 26 29  1  0  0  0  0
 26 30  1  0  0  0  0
 26 57  1  6  0  0  0
 27 31  1  0  0  0  0
 28 32  2  0  0  0  0
 28 58  1  0  0  0  0
 29 33  1  0  0  0  0
 29 59  1  0  0  0  0
 29 60  1  0  0  0  0
 30 34  1  0  0  0  0
 30 61  1  0  0  0  0
 30 62  1  0  0  0  0
 31 35  2  0  0  0  0
 31 63  1  0  0  0  0
 32 35  1  0  0  0  0
 32 64  1  0  0  0  0
 33 36  1  0  0  0  0
 33 37  1  0  0  0  0
 34 36  1  0  0  0  0
 34 65  1  0  0  0  0
 34 66  1  0  0  0  0
 35 67  1  0  0  0  0
 36 68  1  0  0  0  0
 36 69  1  0  0  0  0
 37 38  2  0  0  0  0
 37 39  1  0  0  0  0
 38 70  1  0  0  0  0
 38 73  1  0  0  0  0
 39 71  1  0  0  0  0
 39 72  1  0  0  0  0
M  END
$$$$
