N6A
 OpenBabel04111917473D

 46 48  0  0  1  0  0  0  0  0999 V2000
   34.5079  -23.6509   56.9752 C   0  0  0  0  0  0  0  0  0  0  0  0
   33.7883  -24.6372   56.2941 C   0  0  0  0  0  0  0  0  0  0  0  0
   33.6295  -24.5585   54.9120 C   0  0  0  0  0  0  0  0  0  0  0  0
   34.2013  -23.5048   54.2070 C   0  0  0  0  0  0  0  0  0  0  0  0
   34.9257  -22.5233   54.8851 C   0  0  0  0  0  0  0  0  0  0  0  0
   35.0818  -22.5742   56.2831 C   0  0  0  0  0  0  0  0  0  0  0  0
   35.8734  -21.5120   57.0143 C   0  0  0  0  0  0  0  0  0  0  0  0
   35.1340  -20.2254   57.0022 N   0  0  0  0  0  0  0  0  0  0  0  0
   34.1965  -19.9660   57.9098 C   0  0  0  0  0  0  0  0  0  0  0  0
   33.8774  -20.7326   58.9522 N   0  0  0  0  0  0  0  0  0  0  0  0
   35.4631  -19.3364   55.9336 C   0  0  0  0  0  0  0  0  0  0  0  0
   36.3055  -19.6349   55.1057 O   0  0  0  0  0  0  0  0  0  0  0  0
   34.8056  -18.1519   55.9285 N   0  0  0  0  0  0  0  0  0  0  0  0
   33.8401  -17.7459   56.8126 C   0  0  0  0  0  0  0  0  0  0  0  0
   33.4087  -16.5935   56.7635 O   0  0  0  0  0  0  0  0  0  0  0  0
   33.2934  -18.7913   57.7079 C   0  0  2  0  0  0  0  0  0  0  0  0
   32.6007  -18.4131   58.9608 N   0  0  0  0  0  0  0  0  0  0  0  0
   33.1078  -17.3000   59.7700 C   0  0  0  0  0  0  0  0  0  0  0  0
   30.9564  -18.8022   59.0359 S   0  0  0  0  0  0  0  0  0  0  0  0
   30.9589  -20.2385   58.8262 O   0  0  0  0  0  0  0  0  0  0  0  0
   30.4140  -18.2217   60.2392 O   0  0  0  0  0  0  0  0  0  0  0  0
   30.2209  -18.0434   57.6048 C   0  0  0  0  0  0  0  0  0  0  0  0
   30.3065  -18.6746   56.3498 C   0  0  0  0  0  0  0  0  0  0  0  0
   29.7533  -18.0743   55.2225 C   0  0  0  0  0  0  0  0  0  0  0  0
   29.0390  -16.8903   55.3616 C   0  0  0  0  0  0  0  0  0  0  0  0
   28.8954  -16.2961   56.6196 C   0  0  0  0  0  0  0  0  0  0  0  0
   29.4959  -16.8650   57.7444 C   0  0  0  0  0  0  0  0  0  0  0  0
   34.6330  -23.7687   58.0497 H   0  0  0  0  0  0  0  0  0  0  0  0
   33.3597  -25.4767   56.8372 H   0  0  0  0  0  0  0  0  0  0  0  0
   33.0777  -25.3310   54.3815 H   0  0  0  0  0  0  0  0  0  0  0  0
   34.0979  -23.4597   53.1247 H   0  0  0  0  0  0  0  0  0  0  0  0
   35.3917  -21.7419   54.2898 H   0  0  0  0  0  0  0  0  0  0  0  0
   36.8719  -21.4042   56.5778 H   0  0  0  0  0  0  0  0  0  0  0  0
   36.0461  -21.8140   58.0547 H   0  0  0  0  0  0  0  0  0  0  0  0
   33.0812  -20.4492   59.5295 H   0  0  0  0  0  0  0  0  0  0  0  0
   35.0716  -17.4899   55.2088 H   0  0  0  0  0  0  0  0  0  0  0  0
   32.5656  -19.2550   57.0505 H   0  0  0  0  0  0  0  0  0  0  0  0
   34.1798  -17.1369   59.5864 H   0  0  0  0  0  0  0  0  0  0  0  0
   33.0206  -17.5668   60.8303 H   0  0  0  0  0  0  0  0  0  0  0  0
   32.5697  -16.3730   59.5860 H   0  0  0  0  0  0  0  0  0  0  0  0
   30.7912  -19.6394   56.2214 H   0  0  0  0  0  0  0  0  0  0  0  0
   29.8561  -18.5385   54.2431 H   0  0  0  0  0  0  0  0  0  0  0  0
   28.5693  -16.4371   54.4913 H   0  0  0  0  0  0  0  0  0  0  0  0
   28.3050  -15.3909   56.7202 H   0  0  0  0  0  0  0  0  0  0  0  0
   29.3673  -16.3920   58.7164 H   0  0  0  0  0  0  0  0  0  0  0  0
   34.2898  -21.6218   59.1898 H   0  0  0  0  0  0  0  0  0  0  0  0
  1  2  2  0  0  0  0
  1  6  1  0  0  0  0
  1 28  1  0  0  0  0
  2  3  1  0  0  0  0
  2 29  1  0  0  0  0
  3  4  2  0  0  0  0
  3 30  1  0  0  0  0
  4  5  1  0  0  0  0
  4 31  1  0  0  0  0
  5  6  2  0  0  0  0
  5 32  1  0  0  0  0
  6  7  1  0  0  0  0
  7  8  1  0  0  0  0
  7 33  1  0  0  0  0
  7 34  1  0  0  0  0
  8  9  1  0  0  0  0
  8 11  1  0  0  0  0
  9 10  2  0  0  0  0
  9 16  1  0  0  0  0
 10 35  1  0  0  0  0
 10 46  1  0  0  0  0
 11 12  2  0  0  0  0
 11 13  1  0  0  0  0
 13 14  1  0  0  0  0
 13 36  1  0  0  0  0
 14 15  2  0  0  0  0
 14 16  1  0  0  0  0
 16 17  1  0  0  0  0
 16 37  1  6  0  0  0
 17 18  1  0  0  0  0
 17 19  1  0  0  0  0
 18 38  1  0  0  0  0
 18 39  1  0  0  0  0
 18 40  1  0  0  0  0
 19 20  2  0  0  0  0
 19 21  2  0  0  0  0
 19 22  1  0  0  0  0
 22 23  2  0  0  0  0
 22 27  1  0  0  0  0
 23 24  1  0  0  0  0
 23 41  1  0  0  0  0
 24 25  2  0  0  0  0
 24 42  1  0  0  0  0
 25 26  1  0  0  0  0
 25 43  1  0  0  0  0
 26 27  2  0  0  0  0
 26 44  1  0  0  0  0
 27 45  1  0  0  0  0
M  END
$$$$
