N7I
 OpenBabel04111918423D

 25 25  0  0  0  0  0  0  0  0999 V2000
   12.3463  -19.4388  -42.2993 C   0  0  0  0  0  0  0  0  0  0  0  0
   14.0564  -17.7490  -46.9466 O   0  0  0  0  0  0  0  0  0  0  0  0
   15.8691  -16.6162  -40.0752 C   0  0  0  0  0  0  0  0  0  0  0  0
   12.8631  -18.9887  -38.7062 O   0  0  0  0  0  0  0  0  0  0  0  0
   12.1799  -19.5700  -40.9170 C   0  0  0  0  0  0  0  0  0  0  0  0
   14.7701  -17.3886  -39.6037 O   0  0  0  0  0  0  0  0  0  0  0  0
   13.0185  -18.8614  -40.0602 C   0  0  0  0  0  0  0  0  0  0  0  0
   14.0196  -18.0224  -40.5632 C   0  0  0  0  0  0  0  0  0  0  0  0
   14.1686  -17.8905  -41.9431 C   0  0  0  0  0  0  0  0  0  0  0  0
   13.3416  -18.6009  -42.8332 C   0  0  0  0  0  0  0  0  0  0  0  0
   13.5275  -18.3908  -44.2830 C   0  0  0  0  0  0  0  0  0  0  0  0
   13.0793  -19.1850  -45.2723 C   0  0  0  0  0  0  0  0  0  0  0  0
   13.2823  -18.9239  -46.7403 C   0  0  0  0  0  0  0  0  0  0  0  0
   11.6686  -19.9827  -42.9535 H   0  0  0  0  0  0  0  0  0  0  0  0
   14.1484  -17.6263  -47.9058 H   0  0  0  0  0  0  0  0  0  0  0  0
   16.3700  -16.1785  -39.2060 H   0  0  0  0  0  0  0  0  0  0  0  0
   15.5283  -15.7949  -40.7137 H   0  0  0  0  0  0  0  0  0  0  0  0
   16.5928  -17.2470  -40.6021 H   0  0  0  0  0  0  0  0  0  0  0  0
   13.5546  -18.4053  -38.3154 H   0  0  0  0  0  0  0  0  0  0  0  0
   11.3993  -20.2178  -40.5178 H   0  0  0  0  0  0  0  0  0  0  0  0
   14.9270  -17.2298  -42.3550 H   0  0  0  0  0  0  0  0  0  0  0  0
   14.0970  -17.5061  -44.5673 H   0  0  0  0  0  0  0  0  0  0  0  0
   12.5340  -20.0924  -45.0275 H   0  0  0  0  0  0  0  0  0  0  0  0
   13.8026  -19.7669  -47.2068 H   0  0  0  0  0  0  0  0  0  0  0  0
   12.3123  -18.7895  -47.2315 H   0  0  0  0  0  0  0  0  0  0  0  0
  1  5  2  0  0  0  0
  1 10  1  0  0  0  0
  1 14  1  0  0  0  0
  2 13  1  0  0  0  0
  2 15  1  0  0  0  0
  3  6  1  0  0  0  0
  3 16  1  0  0  0  0
  3 17  1  0  0  0  0
  3 18  1  0  0  0  0
  4  7  1  0  0  0  0
  4 19  1  0  0  0  0
  5  7  1  0  0  0  0
  5 20  1  0  0  0  0
  6  8  1  0  0  0  0
  7  8  2  0  0  0  0
  8  9  1  0  0  0  0
  9 10  2  0  0  0  0
  9 21  1  0  0  0  0
 10 11  1  0  0  0  0
 11 12  2  0  0  0  0
 11 22  1  0  0  0  0
 12 13  1  0  0  0  0
 12 23  1  0  0  0  0
 13 24  1  0  0  0  0
 13 25  1  0  0  0  0
M  END
$$$$
