N7P
 OpenBabel04111917493D

 21 21  0  0  1  0  0  0  0  0999 V2000
   16.5249   15.4893   58.4317 O   0  0  0  0  0  0  0  0  0  0  0  0
   16.2729   15.9559   57.2849 C   0  0  0  0  0  0  0  0  0  0  0  0
   15.3229   16.6946   56.9057 O   0  0  0  0  0  0  0  0  0  0  0  0
   17.3053   15.6323   56.1691 C   0  0  1  0  0  0  0  0  0  0  0  0
   18.7020   15.4800   56.5993 N   0  0  0  0  0  0  0  0  0  0  0  0
   19.4016   16.4089   57.3369 C   0  0  0  0  0  0  0  0  0  0  0  0
   20.5623   16.1925   57.7202 O   0  0  0  0  0  0  0  0  0  0  0  0
   18.7438   17.7480   57.6291 C   0  0  0  0  0  0  0  0  0  0  0  0
   19.1995   14.1579   56.3091 C   0  0  0  0  0  0  0  0  0  0  0  0
   18.2257   13.5632   55.3035 C   0  0  0  0  0  0  0  0  0  0  0  0
   16.9106   14.2745   55.5813 C   0  0  0  0  0  0  0  0  0  0  0  0
   17.3006   16.3953   55.3880 H   0  0  0  0  0  0  0  0  0  0  0  0
   19.4370   18.3892   58.1809 H   0  0  0  0  0  0  0  0  0  0  0  0
   17.8647   17.6427   58.2642 H   0  0  0  0  0  0  0  0  0  0  0  0
   18.4792   18.2537   56.6988 H   0  0  0  0  0  0  0  0  0  0  0  0
   19.2141   13.5583   57.2335 H   0  0  0  0  0  0  0  0  0  0  0  0
   20.2165   14.2160   55.9068 H   0  0  0  0  0  0  0  0  0  0  0  0
   18.1332   12.4798   55.4027 H   0  0  0  0  0  0  0  0  0  0  0  0
   18.5614   13.7805   54.2817 H   0  0  0  0  0  0  0  0  0  0  0  0
   16.3277   14.3932   54.6613 H   0  0  0  0  0  0  0  0  0  0  0  0
   16.3023   13.6814   56.2749 H   0  0  0  0  0  0  0  0  0  0  0  0
  1  2  2  0  0  0  0
  2  3  1  0  0  0  0
  2  4  1  0  0  0  0
  4  5  1  0  0  0  0
  4 11  1  0  0  0  0
  4 12  1  6  0  0  0
  5  6  1  0  0  0  0
  5  9  1  0  0  0  0
  6  7  2  0  0  0  0
  6  8  1  0  0  0  0
  8 13  1  0  0  0  0
  8 14  1  0  0  0  0
  8 15  1  0  0  0  0
  9 10  1  0  0  0  0
  9 16  1  0  0  0  0
  9 17  1  0  0  0  0
 10 11  1  0  0  0  0
 10 18  1  0  0  0  0
 10 19  1  0  0  0  0
 11 20  1  0  0  0  0
 11 21  1  0  0  0  0
M  END
$$$$
