NGW
 OpenBabel04111917523D

 30 31  0  0  1  0  0  0  0  0999 V2000
  -31.9424  -22.2924  -51.7588 O   0  0  0  0  0  0  0  0  0  0  0  0
  -32.6866  -22.5393  -52.9625 C   0  0  1  0  0  0  0  0  0  0  0  0
  -31.7569  -22.2543  -54.1385 C   0  0  2  0  0  0  0  0  0  0  0  0
  -33.1459  -24.0228  -53.0015 C   0  0  2  0  0  0  0  0  0  0  0  0
  -31.4508  -20.8568  -54.2750 O   0  0  0  0  0  0  0  0  0  0  0  0
  -32.4086  -22.6626  -55.4712 C   0  0  1  0  0  0  0  0  0  0  0  0
  -31.3629  -22.6954  -56.5870 N   0  3  0  0  0  0  0  0  0  0  0  0
  -33.0140  -24.0639  -55.4319 C   0  0  1  0  0  0  0  0  0  0  0  0
  -30.5001  -23.8802  -56.3776 C   0  0  2  0  0  0  0  0  0  0  0  0
  -29.7729  -24.2178  -57.6555 C   0  0  0  0  0  0  0  0  0  0  0  0
  -31.6294  -25.1699  -55.8034 S   0  0  0  0  0  0  0  0  0  0  0  0
  -33.7461  -24.3595  -54.2643 O   0  0  0  0  0  0  0  0  0  0  0  0
  -34.1663  -24.3031  -51.8959 C   0  0  0  0  0  0  0  0  0  0  0  0
  -35.3345  -23.4934  -52.0465 O   0  0  0  0  0  0  0  0  0  0  0  0
  -32.5663  -22.2634  -51.0145 H   0  0  0  0  0  0  0  0  0  0  0  0
  -33.5276  -21.8443  -53.0114 H   0  0  0  0  0  0  0  0  0  0  0  0
  -30.8010  -22.7721  -53.9570 H   0  0  0  0  0  0  0  0  0  0  0  0
  -32.2760  -24.6769  -52.8315 H   0  0  0  0  0  0  0  0  0  0  0  0
  -30.5015  -20.7416  -54.4875 H   0  0  0  0  0  0  0  0  0  0  0  0
  -33.1619  -21.9128  -55.7629 H   0  0  0  0  0  0  0  0  0  0  0  0
  -31.8583  -22.7778  -57.4840 H   0  0  0  0  0  0  0  0  0  0  0  0
  -33.7153  -24.1703  -56.2668 H   0  0  0  0  0  0  0  0  0  0  0  0
  -29.7778  -23.6342  -55.5969 H   0  0  0  0  0  0  0  0  0  0  0  0
  -29.0880  -25.0557  -57.4905 H   0  0  0  0  0  0  0  0  0  0  0  0
  -29.1734  -23.3623  -57.9877 H   0  0  0  0  0  0  0  0  0  0  0  0
  -30.4559  -24.4875  -58.4631 H   0  0  0  0  0  0  0  0  0  0  0  0
  -33.7405  -24.1532  -50.8954 H   0  0  0  0  0  0  0  0  0  0  0  0
  -34.4948  -25.3544  -51.9571 H   0  0  0  0  0  0  0  0  0  0  0  0
  -35.1340  -22.5872  -51.7690 H   0  0  0  0  0  0  0  0  0  0  0  0
  -30.8457  -21.8017  -56.6166 H   0  0  0  0  0  0  0  0  0  0  0  0
  1  2  1  0  0  0  0
  1 15  1  0  0  0  0
  2  3  1  0  0  0  0
  2  4  1  0  0  0  0
  2 16  1  6  0  0  0
  3  5  1  0  0  0  0
  3  6  1  0  0  0  0
  3 17  1  1  0  0  0
  4 12  1  0  0  0  0
  4 13  1  0  0  0  0
  4 18  1  1  0  0  0
  5 19  1  0  0  0  0
  6  7  1  0  0  0  0
  6  8  1  0  0  0  0
  6 20  1  6  0  0  0
  7  9  1  0  0  0  0
  7 21  1  0  0  0  0
  7 30  1  0  0  0  0
  8 11  1  0  0  0  0
  8 12  1  0  0  0  0
  8 22  1  6  0  0  0
  9 10  1  0  0  0  0
  9 11  1  0  0  0  0
  9 23  1  1  0  0  0
 10 24  1  0  0  0  0
 10 25  1  0  0  0  0
 10 26  1  0  0  0  0
 13 14  1  0  0  0  0
 13 27  1  0  0  0  0
 13 28  1  0  0  0  0
 14 29  1  0  0  0  0
M  CHG  1   7   1
M  END
$$$$
