NGW
 OpenBabel04111917513D

 30 31  0  0  1  0  0  0  0  0999 V2000
   14.3914   30.8492   26.0240 O   0  0  0  0  0  0  0  0  0  0  0  0
   15.3508   29.8530   25.7181 C   0  0  1  0  0  0  0  0  0  0  0  0
   14.9730   29.1760   24.3814 C   0  0  2  0  0  0  0  0  0  0  0  0
   16.7474   30.4997   25.5821 C   0  0  2  0  0  0  0  0  0  0  0  0
   13.7856   28.3815   24.5057 O   0  0  0  0  0  0  0  0  0  0  0  0
   16.0881   28.2151   23.9365 C   0  0  1  0  0  0  0  0  0  0  0  0
   15.9144   27.8415   22.4730 N   0  3  0  0  0  0  0  0  0  0  0  0
   17.4874   28.7974   24.0420 C   0  0  1  0  0  0  0  0  0  0  0  0
   16.3420   28.9824   21.6245 C   0  0  2  0  0  0  0  0  0  0  0  0
   16.7226   28.4910   20.2385 C   0  0  0  0  0  0  0  0  0  0  0  0
   17.7324   29.7263   22.5086 S   0  0  0  0  0  0  0  0  0  0  0  0
   17.7344   29.5212   25.2309 O   0  0  0  0  0  0  0  0  0  0  0  0
   17.2184   31.1544   26.8873 C   0  0  0  0  0  0  0  0  0  0  0  0
   17.1695   30.2034   27.9483 O   0  0  0  0  0  0  0  0  0  0  0  0
   14.4766   31.0885   26.9627 H   0  0  0  0  0  0  0  0  0  0  0  0
   15.3181   29.0980   26.5121 H   0  0  0  0  0  0  0  0  0  0  0  0
   14.7594   29.9580   23.6494 H   0  0  0  0  0  0  0  0  0  0  0  0
   16.7267   31.2874   24.8185 H   0  0  0  0  0  0  0  0  0  0  0  0
   13.2590   28.4225   23.6865 H   0  0  0  0  0  0  0  0  0  0  0  0
   16.0065   27.2763   24.4979 H   0  0  0  0  0  0  0  0  0  0  0  0
   16.5168   27.0289   22.2670 H   0  0  0  0  0  0  0  0  0  0  0  0
   18.2155   27.9794   24.0175 H   0  0  0  0  0  0  0  0  0  0  0  0
   15.5054   29.6848   21.5639 H   0  0  0  0  0  0  0  0  0  0  0  0
   17.0253   29.3265   19.5986 H   0  0  0  0  0  0  0  0  0  0  0  0
   15.8831   28.0092   19.7650 H   0  0  0  0  0  0  0  0  0  0  0  0
   17.5466   27.7692   20.2706 H   0  0  0  0  0  0  0  0  0  0  0  0
   16.5880   32.0061   27.1601 H   0  0  0  0  0  0  0  0  0  0  0  0
   18.2521   31.5048   26.7964 H   0  0  0  0  0  0  0  0  0  0  0  0
   17.8723   29.5512   27.7688 H   0  0  0  0  0  0  0  0  0  0  0  0
   14.9492   27.5411   22.2665 H   0  0  0  0  0  0  0  0  0  0  0  0
  1  2  1  0  0  0  0
  1 15  1  0  0  0  0
  2  3  1  0  0  0  0
  2  4  1  0  0  0  0
  2 16  1  1  0  0  0
  3  5  1  0  0  0  0
  3  6  1  0  0  0  0
  3 17  1  6  0  0  0
  4 12  1  0  0  0  0
  4 13  1  0  0  0  0
  4 18  1  6  0  0  0
  5 19  1  0  0  0  0
  6  7  1  0  0  0  0
  6  8  1  0  0  0  0
  6 20  1  1  0  0  0
  7  9  1  0  0  0  0
  7 21  1  0  0  0  0
  7 30  1  0  0  0  0
  8 11  1  0  0  0  0
  8 12  1  0  0  0  0
  8 22  1  6  0  0  0
  9 10  1  0  0  0  0
  9 11  1  0  0  0  0
  9 23  1  6  0  0  0
 10 24  1  0  0  0  0
 10 25  1  0  0  0  0
 10 26  1  0  0  0  0
 13 14  1  0  0  0  0
 13 27  1  0  0  0  0
 13 28  1  0  0  0  0
 14 29  1  0  0  0  0
M  CHG  1   7   1
M  END
$$$$
