NUE
 OpenBabel04111920403D

 48 50  0  0  1  0  0  0  0  0999 V2000
  -13.6888    3.4361   -0.3280 C   0  0  0  0  0  0  0  0  0  0  0  0
  -14.9094    4.0406   -0.5796 C   0  0  0  0  0  0  0  0  0  0  0  0
  -13.1620    2.5603   -1.2667 C   0  0  0  0  0  0  0  0  0  0  0  0
  -15.5734    3.7467   -1.7549 C   0  0  0  0  0  0  0  0  0  0  0  0
  -13.7884    2.2751   -2.4462 N   0  0  0  0  0  0  0  0  0  0  0  0
  -14.9788    2.8917   -2.6436 C   0  0  0  0  0  0  0  0  0  0  0  0
  -15.5955    2.5701   -3.8686 N   0  0  0  0  0  0  0  0  0  0  0  0
  -16.9489    3.3616   -4.4706 S   0  0  0  0  0  0  0  0  0  0  0  0
  -16.8875    6.0966   -4.4179 C   0  0  0  0  0  0  0  0  0  0  0  0
  -16.4179    4.9336   -5.0596 C   0  0  0  0  0  0  0  0  0  0  0  0
  -16.5087    7.3596   -4.8948 C   0  0  0  0  0  0  0  0  0  0  0  0
  -15.6581    5.0186   -6.2207 C   0  0  0  0  0  0  0  0  0  0  0  0
  -15.6956    7.4702   -6.0186 C   0  0  0  0  0  0  0  0  0  0  0  0
  -15.3021    6.2879   -6.6732 C   0  0  0  0  0  0  0  0  0  0  0  0
  -17.9424    3.6977   -3.4995 O   0  0  0  0  0  0  0  0  0  0  0  0
  -17.3022    2.5866   -5.6827 O   0  0  0  0  0  0  0  0  0  0  0  0
  -15.1964    8.6949   -6.5258 N   0  0  0  0  0  0  0  0  0  0  0  0
  -15.5938    9.7429   -5.9713 N   0  0  0  0  0  0  0  0  0  0  0  0
  -15.0031   10.8893   -6.4551 C   0  0  0  0  0  0  0  0  0  0  0  0
  -14.1007   10.9509   -7.4174 C   0  0  0  0  0  0  0  0  0  0  0  0
  -15.4591   12.1824   -5.8971 C   0  0  0  0  0  0  0  0  0  0  0  0
  -13.3636   12.1959   -7.7049 C   0  0  2  0  0  0  0  0  0  0  0  0
  -15.0459   13.3940   -6.2446 C   0  0  0  0  0  0  0  0  0  0  0  0
  -13.9963   13.4798   -7.2457 C   0  0  0  0  0  0  0  0  0  0  0  0
  -16.5080   12.1211   -4.9629 N   0  0  0  0  0  0  0  0  0  0  0  0
  -15.5089   14.7178   -5.7544 C   0  0  0  0  0  0  0  0  0  0  0  0
  -13.4580   14.5475   -7.5139 O   0  0  0  0  0  0  0  0  0  0  0  0
  -12.3486   12.2492   -8.7862 C   0  0  0  0  0  0  0  0  0  0  0  0
  -13.1569    3.6448    0.5932 H   0  0  0  0  0  0  0  0  0  0  0  0
  -15.3541    4.7315    0.1313 H   0  0  0  0  0  0  0  0  0  0  0  0
  -12.2089    2.0653   -1.0848 H   0  0  0  0  0  0  0  0  0  0  0  0
  -16.5324    4.1920   -1.9414 H   0  0  0  0  0  0  0  0  0  0  0  0
  -15.1742    1.7932   -4.4192 H   0  0  0  0  0  0  0  0  0  0  0  0
  -17.5331    6.0248   -3.5473 H   0  0  0  0  0  0  0  0  0  0  0  0
  -16.8242    8.2648   -4.3980 H   0  0  0  0  0  0  0  0  0  0  0  0
  -15.3441    4.1349   -6.7533 H   0  0  0  0  0  0  0  0  0  0  0  0
  -14.6795    6.3630   -7.5642 H   0  0  0  0  0  0  0  0  0  0  0  0
  -13.7012   10.0780   -7.9149 H   0  0  0  0  0  0  0  0  0  0  0  0
  -12.6797   12.1207   -6.8688 H   0  0  0  0  0  0  0  0  0  0  0  0
  -17.3117   11.6416   -5.3829 H   0  0  0  0  0  0  0  0  0  0  0  0
  -16.2182   11.6244   -4.1150 H   0  0  0  0  0  0  0  0  0  0  0  0
  -16.2956   14.5829   -5.0331 H   0  0  0  0  0  0  0  0  0  0  0  0
  -15.9060   15.2941   -6.5845 H   0  0  0  0  0  0  0  0  0  0  0  0
  -14.6958   15.2498   -5.2703 H   0  0  0  0  0  0  0  0  0  0  0  0
  -12.0748   11.2332   -9.0692 H   0  0  0  0  0  0  0  0  0  0  0  0
  -11.4680   12.7384   -8.3509 H   0  0  0  0  0  0  0  0  0  0  0  0
  -12.6782   12.8142   -9.6580 H   0  0  0  0  0  0  0  0  0  0  0  0
  -16.8341   13.0436   -4.6664 H   0  0  0  0  0  0  0  0  0  0  0  0
  1  2  2  0  0  0  0
  1  3  1  0  0  0  0
  1 29  1  0  0  0  0
  2  4  1  0  0  0  0
  2 30  1  0  0  0  0
  3  5  2  0  0  0  0
  3 31  1  0  0  0  0
  4  6  2  0  0  0  0
  4 32  1  0  0  0  0
  5  6  1  0  0  0  0
  6  7  1  0  0  0  0
  7  8  1  0  0  0  0
  7 33  1  0  0  0  0
  8 10  1  0  0  0  0
  8 15  2  0  0  0  0
  8 16  2  0  0  0  0
  9 10  2  0  0  0  0
  9 11  1  0  0  0  0
  9 34  1  0  0  0  0
 10 12  1  0  0  0  0
 11 13  2  0  0  0  0
 11 35  1  0  0  0  0
 12 14  2  0  0  0  0
 12 36  1  0  0  0  0
 13 14  1  0  0  0  0
 13 17  1  0  0  0  0
 14 37  1  0  0  0  0
 17 18  2  0  0  0  0
 18 19  1  0  0  0  0
 19 20  2  0  0  0  0
 19 21  1  0  0  0  0
 20 22  1  0  0  0  0
 20 38  1  0  0  0  0
 21 23  2  0  0  0  0
 21 25  1  0  0  0  0
 22 24  1  0  0  0  0
 22 28  1  0  0  0  0
 22 39  1  1  0  0  0
 23 24  1  0  0  0  0
 23 26  1  0  0  0  0
 24 27  2  0  0  0  0
 25 40  1  0  0  0  0
 25 41  1  0  0  0  0
 25 48  1  0  0  0  0
 26 42  1  0  0  0  0
 26 43  1  0  0  0  0
 26 44  1  0  0  0  0
 28 45  1  0  0  0  0
 28 46  1  0  0  0  0
 28 47  1  0  0  0  0
M  END
$$$$
