NVV
 OpenBabel04111922093D

 42 45  0  0  1  0  0  0  0  0999 V2000
   28.4817    9.4968   -2.4171 C   0  0  0  0  0  0  0  0  0  0  0  0
   29.8544    9.6899   -2.3815 C   0  0  0  0  0  0  0  0  0  0  0  0
   30.5560    9.5651   -1.1899 N   0  3  0  0  0  0  0  0  0  0  0  0
   31.8980    9.7966   -1.2339 C   0  0  0  0  0  0  0  0  0  0  0  0
   32.6151   10.0749   -2.2665 N   0  0  0  0  0  0  0  0  0  0  0  0
   31.9739   10.1717   -3.4875 C   0  0  0  0  0  0  0  0  0  0  0  0
   32.5937   10.4127   -4.5266 O   0  0  0  0  0  0  0  0  0  0  0  0
   30.5210    9.9829   -3.5717 C   0  0  0  0  0  0  0  0  0  0  0  0
   29.8437   10.0861   -4.7887 C   0  0  0  0  0  0  0  0  0  0  0  0
   28.4714    9.8878   -4.8158 C   0  0  0  0  0  0  0  0  0  0  0  0
   27.7905    9.6057   -3.6270 C   0  0  0  0  0  0  0  0  0  0  0  0
   26.3426    9.2684   -3.7098 C   0  0  1  0  0  0  0  0  0  0  0  0
   26.2297    7.7471   -3.7607 C   0  0  0  0  0  0  0  0  0  0  0  0
   24.9722    7.4293   -3.0087 N   0  3  0  0  0  0  0  0  0  0  0  0
   24.2988    8.7363   -2.7588 C   0  0  0  0  0  0  0  0  0  0  0  0
   25.0070   11.0909   -2.6140 C   0  0  0  0  0  0  0  0  0  0  0  0
   25.4708    9.6598   -2.5231 C   0  0  2  0  0  0  0  0  0  0  0  0
   25.2387   11.7745   -3.5951 O   0  0  0  0  0  0  0  0  0  0  0  0
   24.1997   11.6294   -1.5010 C   0  0  0  0  0  0  0  0  0  0  0  0
   23.6962   12.9231   -1.6147 C   0  0  0  0  0  0  0  0  0  0  0  0
   22.9051   13.4389   -0.5927 C   0  0  0  0  0  0  0  0  0  0  0  0
   22.6140   12.6584    0.5288 C   0  0  0  0  0  0  0  0  0  0  0  0
   23.1124   11.3639    0.6265 C   0  0  0  0  0  0  0  0  0  0  0  0
   23.9107   10.8482   -0.3809 C   0  0  0  0  0  0  0  0  0  0  0  0
   22.6872   10.1723    2.2663 I   0  0  0  0  0  0  0  0  0  0  0  0
   27.9721    9.2378   -1.4956 H   0  0  0  0  0  0  0  0  0  0  0  0
   30.0702    9.3850   -0.3300 H   0  0  0  0  0  0  0  0  0  0  0  0
   32.3727    9.7182   -0.2362 H   0  0  0  0  0  0  0  0  0  0  0  0
   30.3805   10.3135   -5.7053 H   0  0  0  0  0  0  0  0  0  0  0  0
   27.9428    9.9459   -5.7674 H   0  0  0  0  0  0  0  0  0  0  0  0
   25.9228    9.7197   -4.6201 H   0  0  0  0  0  0  0  0  0  0  0  0
   27.0519    7.2350   -3.2481 H   0  0  0  0  0  0  0  0  0  0  0  0
   26.1311    7.3791   -4.7834 H   0  0  0  0  0  0  0  0  0  0  0  0
   24.3742    6.7816   -3.5354 H   0  0  0  0  0  0  0  0  0  0  0  0
   23.6115    8.6212   -1.9215 H   0  0  0  0  0  0  0  0  0  0  0  0
   23.7463    9.0066   -3.6648 H   0  0  0  0  0  0  0  0  0  0  0  0
   25.9557    9.4586   -1.5595 H   0  0  0  0  0  0  0  0  0  0  0  0
   23.9134   13.5314   -2.4923 H   0  0  0  0  0  0  0  0  0  0  0  0
   22.5149   14.4506   -0.6724 H   0  0  0  0  0  0  0  0  0  0  0  0
   22.0012   13.0736    1.3225 H   0  0  0  0  0  0  0  0  0  0  0  0
   24.2919    9.8418   -0.2694 H   0  0  0  0  0  0  0  0  0  0  0  0
   25.2039    6.9662   -2.1158 H   0  0  0  0  0  0  0  0  0  0  0  0
  1  2  2  0  0  0  0
  1 11  1  0  0  0  0
  1 26  1  0  0  0  0
  2  3  1  0  0  0  0
  2  8  1  0  0  0  0
  3  4  2  0  0  0  0
  3 27  1  0  0  0  0
  4  5  1  0  0  0  0
  4 28  1  0  0  0  0
  5  6  1  0  0  0  0
  6  7  2  0  0  0  0
  6  8  1  0  0  0  0
  8  9  2  0  0  0  0
  9 10  1  0  0  0  0
  9 29  1  0  0  0  0
 10 11  2  0  0  0  0
 10 30  1  0  0  0  0
 11 12  1  0  0  0  0
 12 13  1  0  0  0  0
 12 17  1  0  0  0  0
 12 31  1  6  0  0  0
 13 14  1  0  0  0  0
 13 32  1  0  0  0  0
 13 33  1  0  0  0  0
 14 15  1  0  0  0  0
 14 34  1  0  0  0  0
 14 42  1  0  0  0  0
 15 17  1  0  0  0  0
 15 35  1  0  0  0  0
 15 36  1  0  0  0  0
 16 17  1  0  0  0  0
 16 18  2  0  0  0  0
 16 19  1  0  0  0  0
 17 37  1  1  0  0  0
 19 20  2  0  0  0  0
 19 24  1  0  0  0  0
 20 21  1  0  0  0  0
 20 38  1  0  0  0  0
 21 22  2  0  0  0  0
 21 39  1  0  0  0  0
 22 23  1  0  0  0  0
 22 40  1  0  0  0  0
 23 24  2  0  0  0  0
 23 25  1  0  0  0  0
 24 41  1  0  0  0  0
M  CHG  2   3   1  14   1
M  END
$$$$
