NXG
 OpenBabel04111917413D

 53 54  0  0  1  0  0  0  0  0999 V2000
   91.4369   93.5359  -45.2543 C   0  0  0  0  0  0  0  0  0  0  0  0
   90.7605   95.8416  -44.8469 C   0  0  0  0  0  0  0  0  0  0  0  0
   90.7010   98.3391  -44.6914 N   0  3  2  0  0  0  0  0  0  0  0  0
   90.9890   96.8186  -42.6934 O   0  0  0  0  0  0  0  0  0  0  0  0
   91.8069   93.4122  -43.9083 C   0  0  0  0  0  0  0  0  0  0  0  0
   90.1637   97.0935  -45.3812 C   0  0  0  0  0  0  0  0  0  0  0  0
   92.0670  102.4023  -44.3170 N   0  3  0  0  0  0  0  0  0  0  0  0
   89.6957   99.4309  -44.7128 C   0  0  0  0  0  0  0  0  0  0  0  0
   90.9116   94.7450  -45.7179 C   0  0  0  0  0  0  0  0  0  0  0  0
   91.6500   94.5100  -43.0293 C   0  0  0  0  0  0  0  0  0  0  0  0
   91.1154   95.7343  -43.4812 C   0  0  0  0  0  0  0  0  0  0  0  0
   90.2765  100.6115  -43.9733 C   0  0  0  0  0  0  0  0  0  0  0  0
   91.5359  101.0314  -44.7282 C   0  0  2  0  0  0  0  0  0  0  0  0
   93.2170  102.4186  -43.2731 C   0  0  0  0  0  0  0  0  0  0  0  0
   94.1390  103.5775  -43.4923 C   0  0  0  0  0  0  0  0  0  0  0  0
   90.9543  103.4053  -43.9627 C   0  0  0  0  0  0  0  0  0  0  0  0
   90.9315  103.6953  -42.4848 C   0  0  0  0  0  0  0  0  0  0  0  0
   92.5831   99.9295  -44.5746 C   0  0  0  0  0  0  0  0  0  0  0  0
   92.0691   98.6643  -45.2181 C   0  0  0  0  0  0  0  0  0  0  0  0
   91.5962   92.4443  -46.1559 C   0  0  0  0  0  0  0  0  0  0  0  0
   91.7044   91.5783  -46.9847 C   0  0  0  0  0  0  0  0  0  0  0  0
   91.8590   90.4766  -47.9291 C   0  0  0  0  0  0  0  0  0  0  0  0
   91.8995   90.9808  -49.2604 O   0  0  0  0  0  0  0  0  0  0  0  0
   92.1783   94.3140  -41.0175 I   0  0  0  0  0  0  0  0  0  0  0  0
   91.2771   96.5593  -41.7778 H   0  0  0  0  0  0  0  0  0  0  0  0
   92.2062   92.4748  -43.5418 H   0  0  0  0  0  0  0  0  0  0  0  0
   89.0769   97.0693  -45.2512 H   0  0  0  0  0  0  0  0  0  0  0  0
   90.3950   97.2091  -46.4501 H   0  0  0  0  0  0  0  0  0  0  0  0
   88.7695   99.0940  -44.2516 H   0  0  0  0  0  0  0  0  0  0  0  0
   89.5142   99.6826  -45.7699 H   0  0  0  0  0  0  0  0  0  0  0  0
   90.6165   94.8391  -46.7622 H   0  0  0  0  0  0  0  0  0  0  0  0
   90.5030  100.3595  -42.9310 H   0  0  0  0  0  0  0  0  0  0  0  0
   89.4991  101.3565  -43.9581 H   0  0  0  0  0  0  0  0  0  0  0  0
   91.2804  101.1133  -45.7958 H   0  0  0  0  0  0  0  0  0  0  0  0
   93.7656  101.4935  -43.3273 H   0  0  0  0  0  0  0  0  0  0  0  0
   92.7735  102.4440  -42.2823 H   0  0  0  0  0  0  0  0  0  0  0  0
   94.9103  103.5643  -42.7144 H   0  0  0  0  0  0  0  0  0  0  0  0
   93.6153  104.5333  -43.4337 H   0  0  0  0  0  0  0  0  0  0  0  0
   94.6263  103.5022  -44.4667 H   0  0  0  0  0  0  0  0  0  0  0  0
   89.9922  102.9964  -44.2649 H   0  0  0  0  0  0  0  0  0  0  0  0
   91.0803  104.3001  -44.5590 H   0  0  0  0  0  0  0  0  0  0  0  0
   90.1345  104.3707  -42.2291 H   0  0  0  0  0  0  0  0  0  0  0  0
   91.8707  104.1850  -42.2004 H   0  0  0  0  0  0  0  0  0  0  0  0
   90.8240  102.7680  -41.9060 H   0  0  0  0  0  0  0  0  0  0  0  0
   92.7772   99.7329  -43.5077 H   0  0  0  0  0  0  0  0  0  0  0  0
   93.5224  100.2188  -45.0508 H   0  0  0  0  0  0  0  0  0  0  0  0
   91.9594   98.8187  -46.3012 H   0  0  0  0  0  0  0  0  0  0  0  0
   92.7399   97.8302  -45.0310 H   0  0  0  0  0  0  0  0  0  0  0  0
   91.0138   89.7841  -47.8576 H   0  0  0  0  0  0  0  0  0  0  0  0
   92.7847   89.9231  -47.7300 H   0  0  0  0  0  0  0  0  0  0  0  0
   92.6721   91.5775  -49.3338 H   0  0  0  0  0  0  0  0  0  0  0  0
   90.8125   98.0278  -43.6913 H   0  0  0  0  0  0  0  0  0  0  0  0
   92.5048  102.7855  -45.1811 H   0  0  0  0  0  0  0  0  0  0  0  0
  1  5  2  0  0  0  0
  1  9  1  0  0  0  0
  1 20  1  0  0  0  0
  2  6  1  0  0  0  0
  2  9  2  0  0  0  0
  2 11  1  0  0  0  0
  3  6  1  0  0  0  0
  3  8  1  0  0  0  0
  3 19  1  0  0  0  0
  3 52  1  1  0  0  0
  4 11  1  0  0  0  0
  4 25  1  0  0  0  0
  5 10  1  0  0  0  0
  5 26  1  0  0  0  0
  6 27  1  0  0  0  0
  6 28  1  0  0  0  0
  7 13  1  0  0  0  0
  7 14  1  0  0  0  0
  7 16  1  0  0  0  0
  7 53  1  0  0  0  0
  8 12  1  0  0  0  0
  8 29  1  0  0  0  0
  8 30  1  0  0  0  0
  9 31  1  0  0  0  0
 10 11  2  0  0  0  0
 10 24  1  0  0  0  0
 12 13  1  0  0  0  0
 12 32  1  0  0  0  0
 12 33  1  0  0  0  0
 13 18  1  0  0  0  0
 13 34  1  6  0  0  0
 14 15  1  0  0  0  0
 14 35  1  0  0  0  0
 14 36  1  0  0  0  0
 15 37  1  0  0  0  0
 15 38  1  0  0  0  0
 15 39  1  0  0  0  0
 16 17  1  0  0  0  0
 16 40  1  0  0  0  0
 16 41  1  0  0  0  0
 17 42  1  0  0  0  0
 17 43  1  0  0  0  0
 17 44  1  0  0  0  0
 18 19  1  0  0  0  0
 18 45  1  0  0  0  0
 18 46  1  0  0  0  0
 19 47  1  0  0  0  0
 19 48  1  0  0  0  0
 20 21  3  0  0  0  0
 21 22  1  0  0  0  0
 22 23  1  0  0  0  0
 22 49  1  0  0  0  0
 22 50  1  0  0  0  0
 23 51  1  0  0  0  0
M  CHG  2   3   1   7   1
M  END
$$$$
