NZL
 OpenBabel04111918163D

 59 62  0  0  1  0  0  0  0  0999 V2000
   75.0210   34.0083    0.8511 C   0  0  0  0  0  0  0  0  0  0  0  0
   75.8569   33.1244    1.5491 C   0  0  0  0  0  0  0  0  0  0  0  0
   75.5341   34.8275   -0.1427 C   0  0  0  0  0  0  0  0  0  0  0  0
   77.2142   33.0392    1.2447 C   0  0  0  0  0  0  0  0  0  0  0  0
   80.0804   32.9387    3.0870 C   0  0  0  0  0  0  0  0  0  0  0  0
   80.3575   31.8798    3.9326 C   0  0  0  0  0  0  0  0  0  0  0  0
   81.2469   31.8547    1.1971 C   0  0  0  0  0  0  0  0  0  0  0  0
   76.8825   34.7602   -0.4190 C   0  0  0  0  0  0  0  0  0  0  0  0
   77.7219   33.8763    0.2722 C   0  0  0  0  0  0  0  0  0  0  0  0
   80.5138   32.9454    1.7319 C   0  0  0  0  0  0  0  0  0  0  0  0
   81.0753   30.8408    3.4017 C   0  0  0  0  0  0  0  0  0  0  0  0
   81.5068   30.8218    2.0877 C   0  0  0  0  0  0  0  0  0  0  0  0
   81.7346   31.7709   -0.2336 C   0  0  0  0  0  0  0  0  0  0  0  0
   81.1637   36.2672   -1.6981 C   0  0  0  0  0  0  0  0  0  0  0  0
   77.6345   35.5603   -1.4211 C   0  0  0  0  0  0  0  0  0  0  0  0
   82.0308   28.9561    3.0442 C   0  0  0  0  0  0  0  0  0  0  0  0
   79.1518   34.0216   -0.1842 C   0  0  1  0  0  0  0  0  0  0  0  0
   79.0450   35.4051   -0.9129 C   0  0  1  0  0  0  0  0  0  0  0  0
   80.1536   34.1850    0.9580 C   0  0  0  0  0  0  0  0  0  0  0  0
   82.3671   35.7842   -2.4281 C   0  0  0  0  0  0  0  0  0  0  0  0
   82.3252   36.3482   -3.8263 C   0  0  0  0  0  0  0  0  0  0  0  0
   83.4119   35.6844   -4.6381 C   0  0  0  0  0  0  0  0  0  0  0  0
   83.1749   35.9485   -6.1048 C   0  0  0  0  0  0  0  0  0  0  0  0
   83.8841   34.8916   -6.9126 C   0  0  0  0  0  0  0  0  0  0  0  0
   80.0284   35.5382   -1.9661 N   0  0  0  0  0  0  0  0  0  0  0  0
   83.6767   35.2211   -8.3329 N   0  3  0  0  0  0  0  0  0  0  0  0
   81.6944   30.6432   -0.8197 O   0  0  0  0  0  0  0  0  0  0  0  0
   82.1142   32.8519   -0.7948 O   0  0  0  0  0  0  0  0  0  0  0  0
   81.1820   37.2827   -0.9999 O   0  0  0  0  0  0  0  0  0  0  0  0
   81.4419   29.7324    4.1013 O   0  0  0  0  0  0  0  0  0  0  0  0
   82.2311   29.6944    1.8355 O   0  0  0  0  0  0  0  0  0  0  0  0
   73.9661   34.0583    1.0994 H   0  0  0  0  0  0  0  0  0  0  0  0
   75.4504   32.4949    2.3349 H   0  0  0  0  0  0  0  0  0  0  0  0
   74.8954   35.5340   -0.6812 H   0  0  0  0  0  0  0  0  0  0  0  0
   77.8441   32.3418    1.7821 H   0  0  0  0  0  0  0  0  0  0  0  0
   79.4875   33.7686    3.4667 H   0  0  0  0  0  0  0  0  0  0  0  0
   80.0185   31.8757    4.9585 H   0  0  0  0  0  0  0  0  0  0  0  0
   77.3589   36.6204   -1.4093 H   0  0  0  0  0  0  0  0  0  0  0  0
   77.5095   35.1545   -2.4302 H   0  0  0  0  0  0  0  0  0  0  0  0
   81.3675   28.1102    2.8319 H   0  0  0  0  0  0  0  0  0  0  0  0
   82.9984   28.5784    3.3866 H   0  0  0  0  0  0  0  0  0  0  0  0
   79.4019   33.1999   -0.8674 H   0  0  0  0  0  0  0  0  0  0  0  0
   79.2373   36.1850   -0.1635 H   0  0  0  0  0  0  0  0  0  0  0  0
   81.0798   34.6485    0.6105 H   0  0  0  0  0  0  0  0  0  0  0  0
   79.7208   34.9153    1.6594 H   0  0  0  0  0  0  0  0  0  0  0  0
   82.3502   34.6888   -2.4601 H   0  0  0  0  0  0  0  0  0  0  0  0
   83.2730   36.0821   -1.8939 H   0  0  0  0  0  0  0  0  0  0  0  0
   82.4607   37.4358   -3.8098 H   0  0  0  0  0  0  0  0  0  0  0  0
   81.3419   36.1610   -4.2787 H   0  0  0  0  0  0  0  0  0  0  0  0
   83.4100   34.6033   -4.4476 H   0  0  0  0  0  0  0  0  0  0  0  0
   84.3952   36.0624   -4.3337 H   0  0  0  0  0  0  0  0  0  0  0  0
   83.5303   36.9552   -6.3606 H   0  0  0  0  0  0  0  0  0  0  0  0
   82.1031   35.9187   -6.3388 H   0  0  0  0  0  0  0  0  0  0  0  0
   83.4664   33.8942   -6.7399 H   0  0  0  0  0  0  0  0  0  0  0  0
   84.9642   34.8817   -6.7224 H   0  0  0  0  0  0  0  0  0  0  0  0
   80.0814   34.7787   -2.6369 H   0  0  0  0  0  0  0  0  0  0  0  0
   84.1335   34.5326   -8.9422 H   0  0  0  0  0  0  0  0  0  0  0  0
   82.6720   35.2289   -8.5600 H   0  0  0  0  0  0  0  0  0  0  0  0
   84.0577   36.1514   -8.5492 H   0  0  0  0  0  0  0  0  0  0  0  0
  1  2  2  0  0  0  0
  1  3  1  0  0  0  0
  1 32  1  0  0  0  0
  2  4  1  0  0  0  0
  2 33  1  0  0  0  0
  3  8  2  0  0  0  0
  3 34  1  0  0  0  0
  4  9  2  0  0  0  0
  4 35  1  0  0  0  0
  5  6  2  0  0  0  0
  5 10  1  0  0  0  0
  5 36  1  0  0  0  0
  6 11  1  0  0  0  0
  6 37  1  0  0  0  0
  7 10  2  0  0  0  0
  7 12  1  0  0  0  0
  7 13  1  0  0  0  0
  8  9  1  0  0  0  0
  8 15  1  0  0  0  0
  9 17  1  0  0  0  0
 10 19  1  0  0  0  0
 11 12  2  0  0  0  0
 11 30  1  0  0  0  0
 12 31  1  0  0  0  0
 13 27  2  0  0  0  0
 13 28  1  0  0  0  0
 14 20  1  0  0  0  0
 14 25  1  0  0  0  0
 14 29  2  0  0  0  0
 15 18  1  0  0  0  0
 15 38  1  0  0  0  0
 15 39  1  0  0  0  0
 16 30  1  0  0  0  0
 16 31  1  0  0  0  0
 16 40  1  0  0  0  0
 16 41  1  0  0  0  0
 17 18  1  0  0  0  0
 17 19  1  0  0  0  0
 17 42  1  6  0  0  0
 18 25  1  0  0  0  0
 18 43  1  1  0  0  0
 19 44  1  0  0  0  0
 19 45  1  0  0  0  0
 20 21  1  0  0  0  0
 20 46  1  0  0  0  0
 20 47  1  0  0  0  0
 21 22  1  0  0  0  0
 21 48  1  0  0  0  0
 21 49  1  0  0  0  0
 22 23  1  0  0  0  0
 22 50  1  0  0  0  0
 22 51  1  0  0  0  0
 23 24  1  0  0  0  0
 23 52  1  0  0  0  0
 23 53  1  0  0  0  0
 24 26  1  0  0  0  0
 24 54  1  0  0  0  0
 24 55  1  0  0  0  0
 25 56  1  0  0  0  0
 26 57  1  0  0  0  0
 26 58  1  0  0  0  0
 26 59  1  0  0  0  0
M  CHG  1  26   1
M  END
$$$$
