OAN
 OpenBabel04111917523D

 44 45  0  0  1  0  0  0  0  0999 V2000
   18.2367   34.4035   57.3578 C   0  0  0  0  0  0  0  0  0  0  0  0
   19.2103   34.5848   56.2124 C   0  0  0  0  0  0  0  0  0  0  0  0
   19.5003   33.7043   55.4393 O   0  0  0  0  0  0  0  0  0  0  0  0
   19.7317   35.8669   56.1536 N   0  0  0  0  0  0  0  0  0  0  0  0
   20.6494   36.3057   55.0738 C   0  0  2  0  0  0  0  0  0  0  0  0
   19.8808   36.4951   53.7737 C   0  0  1  0  0  0  0  0  0  0  0  0
   19.3210   37.8219   53.6657 O   0  0  0  0  0  0  0  0  0  0  0  0
   20.7743   36.1841   52.5770 C   0  0  2  0  0  0  0  0  0  0  0  0
   20.0149   36.3604   51.3904 O   0  0  0  0  0  0  0  0  0  0  0  0
   21.2302   34.7363   52.7081 C   0  0  1  0  0  0  0  0  0  0  0  0
   22.1799   34.2674   51.6084 C   0  0  0  0  0  0  0  0  0  0  0  0
   23.4353   34.9492   51.7057 O   0  0  0  0  0  0  0  0  0  0  0  0
   21.9845   34.5407   53.9011 O   0  0  0  0  0  0  0  0  0  0  0  0
   21.8287   35.3410   54.9642 C   0  0  0  0  0  0  0  0  0  0  0  0
   22.7374   35.3166   55.9004 N   0  0  0  0  0  0  0  0  0  0  0  0
   23.7648   34.3819   55.5862 O   0  0  0  0  0  0  0  0  0  0  0  0
   24.9021   34.5852   56.3405 C   0  0  0  0  0  0  0  0  0  0  0  0
   25.7455   33.7261   56.4721 O   0  0  0  0  0  0  0  0  0  0  0  0
   25.0031   35.8496   56.8941 N   0  0  0  0  0  0  0  0  0  0  0  0
   25.9940   36.2349   57.7766 C   0  0  0  0  0  0  0  0  0  0  0  0
   25.6202   36.5047   59.0916 C   0  0  0  0  0  0  0  0  0  0  0  0
   26.5744   36.9298   60.0038 C   0  0  0  0  0  0  0  0  0  0  0  0
   27.8848   37.1224   59.5740 C   0  0  0  0  0  0  0  0  0  0  0  0
   28.2453   36.8739   58.2428 C   0  0  0  0  0  0  0  0  0  0  0  0
   27.3009   36.4205   57.3287 C   0  0  0  0  0  0  0  0  0  0  0  0
   18.1277   35.3255   57.9355 H   0  0  0  0  0  0  0  0  0  0  0  0
   18.5943   33.6132   58.0209 H   0  0  0  0  0  0  0  0  0  0  0  0
   17.2620   34.1288   56.9495 H   0  0  0  0  0  0  0  0  0  0  0  0
   19.3899   36.5441   56.8233 H   0  0  0  0  0  0  0  0  0  0  0  0
   21.0353   37.2860   55.4189 H   0  0  0  0  0  0  0  0  0  0  0  0
   19.0367   35.8027   53.7543 H   0  0  0  0  0  0  0  0  0  0  0  0
   18.6664   37.9490   54.3722 H   0  0  0  0  0  0  0  0  0  0  0  0
   21.6406   36.8685   52.5657 H   0  0  0  0  0  0  0  0  0  0  0  0
   20.5746   36.1598   50.6260 H   0  0  0  0  0  0  0  0  0  0  0  0
   20.3524   34.0789   52.6956 H   0  0  0  0  0  0  0  0  0  0  0  0
   21.7594   34.4448   50.6188 H   0  0  0  0  0  0  0  0  0  0  0  0
   22.3748   33.1943   51.7315 H   0  0  0  0  0  0  0  0  0  0  0  0
   23.2802   35.9012   51.6251 H   0  0  0  0  0  0  0  0  0  0  0  0
   24.2379   36.4765   56.7079 H   0  0  0  0  0  0  0  0  0  0  0  0
   24.5959   36.3463   59.4122 H   0  0  0  0  0  0  0  0  0  0  0  0
   26.2964   37.1137   61.0374 H   0  0  0  0  0  0  0  0  0  0  0  0
   28.6318   37.4694   60.2841 H   0  0  0  0  0  0  0  0  0  0  0  0
   29.2736   37.0297   57.9275 H   0  0  0  0  0  0  0  0  0  0  0  0
   27.5754   36.2311   56.2922 H   0  0  0  0  0  0  0  0  0  0  0  0
  1  2  1  0  0  0  0
  1 26  1  0  0  0  0
  1 27  1  0  0  0  0
  1 28  1  0  0  0  0
  2  3  2  0  0  0  0
  2  4  1  0  0  0  0
  4  5  1  0  0  0  0
  4 29  1  0  0  0  0
  5  6  1  0  0  0  0
  5 14  1  0  0  0  0
  5 30  1  1  0  0  0
  6  7  1  0  0  0  0
  6  8  1  0  0  0  0
  6 31  1  6  0  0  0
  7 32  1  0  0  0  0
  8  9  1  0  0  0  0
  8 10  1  0  0  0  0
  8 33  1  6  0  0  0
  9 34  1  0  0  0  0
 10 11  1  0  0  0  0
 10 13  1  0  0  0  0
 10 35  1  1  0  0  0
 11 12  1  0  0  0  0
 11 36  1  0  0  0  0
 11 37  1  0  0  0  0
 12 38  1  0  0  0  0
 13 14  1  0  0  0  0
 14 15  2  0  0  0  0
 15 16  1  0  0  0  0
 16 17  1  0  0  0  0
 17 18  2  0  0  0  0
 17 19  1  0  0  0  0
 19 20  1  0  0  0  0
 19 39  1  0  0  0  0
 20 21  2  0  0  0  0
 20 25  1  0  0  0  0
 21 22  1  0  0  0  0
 21 40  1  0  0  0  0
 22 23  2  0  0  0  0
 22 41  1  0  0  0  0
 23 24  1  0  0  0  0
 23 42  1  0  0  0  0
 24 25  2  0  0  0  0
 24 43  1  0  0  0  0
 25 44  1  0  0  0  0
M  END
$$$$
