OAN
 OpenBabel04111917513D

 44 45  0  0  1  0  0  0  0  0999 V2000
   16.6452   28.2988   20.6867 C   0  0  0  0  0  0  0  0  0  0  0  0
   16.6840   28.5714   22.1677 C   0  0  0  0  0  0  0  0  0  0  0  0
   17.3235   29.4938   22.6609 O   0  0  0  0  0  0  0  0  0  0  0  0
   15.9349   27.7197   22.9384 N   0  0  0  0  0  0  0  0  0  0  0  0
   15.7574   27.9539   24.3803 C   0  0  2  0  0  0  0  0  0  0  0  0
   14.8328   29.1431   24.5995 C   0  0  1  0  0  0  0  0  0  0  0  0
   13.4589   28.7208   24.5405 O   0  0  0  0  0  0  0  0  0  0  0  0
   15.1163   29.7611   25.9620 C   0  0  2  0  0  0  0  0  0  0  0  0
   14.1999   30.8232   26.2085 O   0  0  0  0  0  0  0  0  0  0  0  0
   16.5295   30.3043   25.8752 C   0  0  1  0  0  0  0  0  0  0  0  0
   16.9507   31.0283   27.1539 C   0  0  0  0  0  0  0  0  0  0  0  0
   16.9528   30.1571   28.2851 O   0  0  0  0  0  0  0  0  0  0  0  0
   17.4644   29.2373   25.6824 O   0  0  0  0  0  0  0  0  0  0  0  0
   17.1012   28.0644   25.1192 C   0  0  0  0  0  0  0  0  0  0  0  0
   17.8643   27.0181   25.2200 N   0  0  0  0  0  0  0  0  0  0  0  0
   19.0379   27.3652   25.9286 O   0  0  0  0  0  0  0  0  0  0  0  0
   19.5842   26.2500   26.5347 C   0  0  0  0  0  0  0  0  0  0  0  0
   19.0478   25.1753   26.6571 O   0  0  0  0  0  0  0  0  0  0  0  0
   20.8362   26.5930   26.9801 N   0  0  0  0  0  0  0  0  0  0  0  0
   21.7267   25.8175   27.7193 C   0  0  0  0  0  0  0  0  0  0  0  0
   22.7051   26.5116   28.4261 C   0  0  0  0  0  0  0  0  0  0  0  0
   23.6527   25.8569   29.2026 C   0  0  0  0  0  0  0  0  0  0  0  0
   23.6486   24.4723   29.2536 C   0  0  0  0  0  0  0  0  0  0  0  0
   22.6747   23.7685   28.5428 C   0  0  0  0  0  0  0  0  0  0  0  0
   21.7065   24.4394   27.7926 C   0  0  0  0  0  0  0  0  0  0  0  0
   16.0143   27.4318   20.4662 H   0  0  0  0  0  0  0  0  0  0  0  0
   17.6583   28.1059   20.3219 H   0  0  0  0  0  0  0  0  0  0  0  0
   16.2349   29.1748   20.1717 H   0  0  0  0  0  0  0  0  0  0  0  0
   15.4431   26.9591   22.4906 H   0  0  0  0  0  0  0  0  0  0  0  0
   15.2697   27.0440   24.7686 H   0  0  0  0  0  0  0  0  0  0  0  0
   14.9874   29.9067   23.8220 H   0  0  0  0  0  0  0  0  0  0  0  0
   13.2901   28.3410   23.6640 H   0  0  0  0  0  0  0  0  0  0  0  0
   15.0221   28.9966   26.7470 H   0  0  0  0  0  0  0  0  0  0  0  0
   14.3890   31.1941   27.0823 H   0  0  0  0  0  0  0  0  0  0  0  0
   16.5854   31.0350   25.0512 H   0  0  0  0  0  0  0  0  0  0  0  0
   16.2790   31.8657   27.3594 H   0  0  0  0  0  0  0  0  0  0  0  0
   17.9676   31.4090   27.0211 H   0  0  0  0  0  0  0  0  0  0  0  0
   16.0597   29.8072   28.4280 H   0  0  0  0  0  0  0  0  0  0  0  0
   21.1363   27.5236   26.7395 H   0  0  0  0  0  0  0  0  0  0  0  0
   22.7008   27.5904   28.3930 H   0  0  0  0  0  0  0  0  0  0  0  0
   24.3866   26.4400   29.7504 H   0  0  0  0  0  0  0  0  0  0  0  0
   24.3910   23.9407   29.8400 H   0  0  0  0  0  0  0  0  0  0  0  0
   22.6651   22.6837   28.5756 H   0  0  0  0  0  0  0  0  0  0  0  0
   20.9524   23.8785   27.2564 H   0  0  0  0  0  0  0  0  0  0  0  0
  1  2  1  0  0  0  0
  1 26  1  0  0  0  0
  1 27  1  0  0  0  0
  1 28  1  0  0  0  0
  2  3  2  0  0  0  0
  2  4  1  0  0  0  0
  4  5  1  0  0  0  0
  4 29  1  0  0  0  0
  5  6  1  0  0  0  0
  5 14  1  0  0  0  0
  5 30  1  1  0  0  0
  6  7  1  0  0  0  0
  6  8  1  0  0  0  0
  6 31  1  6  0  0  0
  7 32  1  0  0  0  0
  8  9  1  0  0  0  0
  8 10  1  0  0  0  0
  8 33  1  1  0  0  0
  9 34  1  0  0  0  0
 10 11  1  0  0  0  0
 10 13  1  0  0  0  0
 10 35  1  6  0  0  0
 11 12  1  0  0  0  0
 11 36  1  0  0  0  0
 11 37  1  0  0  0  0
 12 38  1  0  0  0  0
 13 14  1  0  0  0  0
 14 15  2  0  0  0  0
 15 16  1  0  0  0  0
 16 17  1  0  0  0  0
 17 18  2  0  0  0  0
 17 19  1  0  0  0  0
 19 20  1  0  0  0  0
 19 39  1  0  0  0  0
 20 21  2  0  0  0  0
 20 25  1  0  0  0  0
 21 22  1  0  0  0  0
 21 40  1  0  0  0  0
 22 23  2  0  0  0  0
 22 41  1  0  0  0  0
 23 24  1  0  0  0  0
 23 42  1  0  0  0  0
 24 25  2  0  0  0  0
 24 43  1  0  0  0  0
 25 44  1  0  0  0  0
M  END
$$$$
