OAN
 OpenBabel04111917523D

 44 45  0  0  1  0  0  0  0  0999 V2000
   36.2286   15.5000  -16.9830 C   0  0  0  0  0  0  0  0  0  0  0  0
   36.0691   15.6698  -18.4695 C   0  0  0  0  0  0  0  0  0  0  0  0
   35.1178   15.2239  -19.0903 O   0  0  0  0  0  0  0  0  0  0  0  0
   37.0997   16.3456  -19.0817 N   0  0  0  0  0  0  0  0  0  0  0  0
   37.0603   16.6431  -20.5276 C   0  0  2  0  0  0  0  0  0  0  0  0
   36.1506   17.8285  -20.7844 C   0  0  1  0  0  0  0  0  0  0  0  0
   36.8947   19.0509  -20.6368 O   0  0  0  0  0  0  0  0  0  0  0  0
   35.5971   17.7323  -22.2020 C   0  0  2  0  0  0  0  0  0  0  0  0
   34.8635   18.9017  -22.5207 O   0  0  0  0  0  0  0  0  0  0  0  0
   34.6952   16.5128  -22.2376 C   0  0  1  0  0  0  0  0  0  0  0  0
   34.0244   16.3372  -23.6072 C   0  0  0  0  0  0  0  0  0  0  0  0
   34.9980   16.1516  -24.6418 O   0  0  0  0  0  0  0  0  0  0  0  0
   35.4563   15.3379  -21.9553 O   0  0  0  0  0  0  0  0  0  0  0  0
   36.6658   15.4112  -21.3667 C   0  0  0  0  0  0  0  0  0  0  0  0
   37.5140   14.4465  -21.5107 N   0  0  0  0  0  0  0  0  0  0  0  0
   36.9243   13.4466  -22.3071 O   0  0  0  0  0  0  0  0  0  0  0  0
   37.9072   12.6927  -22.9002 C   0  0  0  0  0  0  0  0  0  0  0  0
   39.1000   12.7922  -22.7250 O   0  0  0  0  0  0  0  0  0  0  0  0
   37.3994   11.7609  -23.7789 N   0  0  0  0  0  0  0  0  0  0  0  0
   36.0431   11.6579  -24.0364 C   0  0  0  0  0  0  0  0  0  0  0  0
   35.2987   10.7082  -23.3586 C   0  0  0  0  0  0  0  0  0  0  0  0
   33.9411   10.6162  -23.6185 C   0  0  0  0  0  0  0  0  0  0  0  0
   33.3395   11.4781  -24.5401 C   0  0  0  0  0  0  0  0  0  0  0  0
   34.1076   12.4318  -25.2043 C   0  0  0  0  0  0  0  0  0  0  0  0
   35.4651   12.5256  -24.9498 C   0  0  0  0  0  0  0  0  0  0  0  0
   37.1382   15.9886  -16.6238 H   0  0  0  0  0  0  0  0  0  0  0  0
   36.2832   14.4344  -16.7467 H   0  0  0  0  0  0  0  0  0  0  0  0
   35.3670   15.9412  -16.4758 H   0  0  0  0  0  0  0  0  0  0  0  0
   37.8545   16.7004  -18.5075 H   0  0  0  0  0  0  0  0  0  0  0  0
   38.0970   16.9302  -20.7930 H   0  0  0  0  0  0  0  0  0  0  0  0
   35.3235   17.8445  -20.0619 H   0  0  0  0  0  0  0  0  0  0  0  0
   37.2336   19.0886  -19.7270 H   0  0  0  0  0  0  0  0  0  0  0  0
   36.4393   17.6200  -22.9023 H   0  0  0  0  0  0  0  0  0  0  0  0
   34.5345   18.8163  -23.4270 H   0  0  0  0  0  0  0  0  0  0  0  0
   33.9049   16.6153  -21.4874 H   0  0  0  0  0  0  0  0  0  0  0  0
   33.4198   17.2156  -23.8668 H   0  0  0  0  0  0  0  0  0  0  0  0
   33.3631   15.4633  -23.6111 H   0  0  0  0  0  0  0  0  0  0  0  0
   35.5933   16.9178  -24.6552 H   0  0  0  0  0  0  0  0  0  0  0  0
   38.0444   11.1379  -24.2415 H   0  0  0  0  0  0  0  0  0  0  0  0
   35.7644   10.0526  -22.6312 H   0  0  0  0  0  0  0  0  0  0  0  0
   33.3465    9.8722  -23.1079 H   0  0  0  0  0  0  0  0  0  0  0  0
   32.2729   11.4038  -24.7388 H   0  0  0  0  0  0  0  0  0  0  0  0
   33.6456   13.1019  -25.9199 H   0  0  0  0  0  0  0  0  0  0  0  0
   36.0702   13.2654  -25.4630 H   0  0  0  0  0  0  0  0  0  0  0  0
  1  2  1  0  0  0  0
  1 26  1  0  0  0  0
  1 27  1  0  0  0  0
  1 28  1  0  0  0  0
  2  3  2  0  0  0  0
  2  4  1  0  0  0  0
  4  5  1  0  0  0  0
  4 29  1  0  0  0  0
  5  6  1  0  0  0  0
  5 14  1  0  0  0  0
  5 30  1  6  0  0  0
  6  7  1  0  0  0  0
  6  8  1  0  0  0  0
  6 31  1  1  0  0  0
  7 32  1  0  0  0  0
  8  9  1  0  0  0  0
  8 10  1  0  0  0  0
  8 33  1  6  0  0  0
  9 34  1  0  0  0  0
 10 11  1  0  0  0  0
 10 13  1  0  0  0  0
 10 35  1  1  0  0  0
 11 12  1  0  0  0  0
 11 36  1  0  0  0  0
 11 37  1  0  0  0  0
 12 38  1  0  0  0  0
 13 14  1  0  0  0  0
 14 15  2  0  0  0  0
 15 16  1  0  0  0  0
 16 17  1  0  0  0  0
 17 18  2  0  0  0  0
 17 19  1  0  0  0  0
 19 20  1  0  0  0  0
 19 39  1  0  0  0  0
 20 21  2  0  0  0  0
 20 25  1  0  0  0  0
 21 22  1  0  0  0  0
 21 40  1  0  0  0  0
 22 23  2  0  0  0  0
 22 41  1  0  0  0  0
 23 24  1  0  0  0  0
 23 42  1  0  0  0  0
 24 25  2  0  0  0  0
 24 43  1  0  0  0  0
 25 44  1  0  0  0  0
M  END
$$$$
