OP1
 OpenBabel04111921053D

 40 40  0  0  1  0  0  0  0  0999 V2000
    3.6029   18.1965    2.8567 C   0  0  2  0  0  0  0  0  0  0  0  0
    2.3037   17.4709    3.3879 C   0  0  0  0  0  0  0  0  0  0  0  0
    2.4539   16.4443    4.0847 O   0  0  0  0  0  0  0  0  0  0  0  0
    4.2675   18.7837    4.1089 C   0  0  0  0  0  0  0  0  0  0  0  0
    3.3518   19.6577    4.9698 C   0  0  0  0  0  0  0  0  0  0  0  0
    4.0591   20.1319    6.2269 C   0  0  0  0  0  0  0  0  0  0  0  0
    3.3140   21.2554    6.8107 N   0  0  0  0  0  0  0  0  0  0  0  0
    3.6497   21.8765    7.9398 C   0  0  0  0  0  0  0  0  0  0  0  0
    2.9326   22.9317    8.3370 N   0  0  0  0  0  0  0  0  0  0  0  0
    4.6778   21.4736    8.6870 N   0  0  0  0  0  0  0  0  0  0  0  0
    3.1501   19.2539    1.8592 N   0  3  1  0  0  0  0  0  0  0  0  0
    3.8854   20.5608    1.5938 C   0  0  2  0  0  0  0  0  0  0  0  0
    3.2135   21.0362    0.3116 C   0  0  0  0  0  0  0  0  0  0  0  0
    2.9996   19.7557   -0.4798 C   0  0  0  0  0  0  0  0  0  0  0  0
    2.6205   18.7233    0.5694 C   0  0  1  0  0  0  0  0  0  0  0  0
    3.0217   17.4323    0.2017 O   0  0  0  0  0  0  0  0  0  0  0  0
    5.4298   20.6586    1.4451 C   0  0  0  0  0  0  0  0  0  0  0  0
    6.0366   19.5704    1.2830 O   0  0  0  0  0  0  0  0  0  0  0  0
    5.8738   21.8327    1.5967 O   0  0  0  0  0  0  0  0  0  0  0  0
    1.2477   18.1142    3.0648 O   0  0  0  0  0  0  0  0  0  0  0  0
    4.2843   17.5086    2.3460 H   0  0  0  0  0  0  0  0  0  0  0  0
    5.1577   19.3606    3.8337 H   0  0  0  0  0  0  0  0  0  0  0  0
    4.6397   17.9587    4.7295 H   0  0  0  0  0  0  0  0  0  0  0  0
    2.4557   19.1125    5.2851 H   0  0  0  0  0  0  0  0  0  0  0  0
    2.9997   20.5187    4.3952 H   0  0  0  0  0  0  0  0  0  0  0  0
    5.0709   20.4772    5.9963 H   0  0  0  0  0  0  0  0  0  0  0  0
    4.0937   19.3175    6.9586 H   0  0  0  0  0  0  0  0  0  0  0  0
    2.4961   21.5886    6.3137 H   0  0  0  0  0  0  0  0  0  0  0  0
    3.1610   23.4330    9.1862 H   0  0  0  0  0  0  0  0  0  0  0  0
    5.2395   20.6802    8.4037 H   0  0  0  0  0  0  0  0  0  0  0  0
    4.9303   21.9352    9.5489 H   0  0  0  0  0  0  0  0  0  0  0  0
    3.6121   21.2273    2.4181 H   0  0  0  0  0  0  0  0  0  0  0  0
    3.7897   21.7748   -0.2534 H   0  0  0  0  0  0  0  0  0  0  0  0
    2.2421   21.4825    0.5560 H   0  0  0  0  0  0  0  0  0  0  0  0
    3.8992   19.4672   -1.0390 H   0  0  0  0  0  0  0  0  0  0  0  0
    2.1910   19.8752   -1.2081 H   0  0  0  0  0  0  0  0  0  0  0  0
    1.5260   18.7195    0.6510 H   0  0  0  0  0  0  0  0  0  0  0  0
    2.4920   16.8154    0.7392 H   0  0  0  0  0  0  0  0  0  0  0  0
    2.1650   23.2825    7.7805 H   0  0  0  0  0  0  0  0  0  0  0  0
    2.2481   19.5049    2.3154 H   0  0  0  0  0  0  0  0  0  0  0  0
  1  2  1  0  0  0  0
  1  4  1  0  0  0  0
  1 11  1  0  0  0  0
  1 21  1  6  0  0  0
  2  3  2  0  0  0  0
  2 20  1  0  0  0  0
  4  5  1  0  0  0  0
  4 22  1  0  0  0  0
  4 23  1  0  0  0  0
  5  6  1  0  0  0  0
  5 24  1  0  0  0  0
  5 25  1  0  0  0  0
  6  7  1  0  0  0  0
  6 26  1  0  0  0  0
  6 27  1  0  0  0  0
  7  8  1  0  0  0  0
  7 28  1  0  0  0  0
  8  9  2  0  0  0  0
  8 10  1  0  0  0  0
  9 29  1  0  0  0  0
  9 39  1  0  0  0  0
 10 30  1  0  0  0  0
 10 31  1  0  0  0  0
 11 12  1  0  0  0  0
 11 15  1  0  0  0  0
 11 40  1  1  0  0  0
 12 13  1  0  0  0  0
 12 17  1  0  0  0  0
 12 32  1  1  0  0  0
 13 14  1  0  0  0  0
 13 33  1  0  0  0  0
 13 34  1  0  0  0  0
 14 15  1  0  0  0  0
 14 35  1  0  0  0  0
 14 36  1  0  0  0  0
 15 16  1  0  0  0  0
 15 37  1  1  0  0  0
 16 38  1  0  0  0  0
 17 18  2  0  0  0  0
 17 19  1  0  0  0  0
M  CHG  1  11   1
M  END
$$$$
