OP1
 OpenBabel04111921063D

 40 40  0  0  1  0  0  0  0  0999 V2000
   17.3276   -5.7856   -4.2075 C   0  0  2  0  0  0  0  0  0  0  0  0
   16.1670   -6.7429   -4.5677 C   0  0  0  0  0  0  0  0  0  0  0  0
   16.1899   -7.8544   -4.0651 O   0  0  0  0  0  0  0  0  0  0  0  0
   18.2261   -5.5133   -5.4182 C   0  0  0  0  0  0  0  0  0  0  0  0
   18.6654   -6.7914   -6.1110 C   0  0  0  0  0  0  0  0  0  0  0  0
   19.4160   -6.5044   -7.3938 C   0  0  0  0  0  0  0  0  0  0  0  0
   20.0655   -7.7184   -7.9160 N   0  0  0  0  0  0  0  0  0  0  0  0
   20.8020   -7.7314   -9.0509 C   0  0  0  0  0  0  0  0  0  0  0  0
   20.9568   -6.6362   -9.8239 N   0  0  0  0  0  0  0  0  0  0  0  0
   21.4108   -8.8680   -9.4375 N   0  0  0  0  0  0  0  0  0  0  0  0
   18.1187   -6.1448   -2.9894 N   0  3  2  0  0  0  0  0  0  0  0  0
   19.3766   -6.9313   -2.8190 C   0  0  2  0  0  0  0  0  0  0  0  0
   19.2931   -7.5083   -1.4090 C   0  0  0  0  0  0  0  0  0  0  0  0
   18.2036   -6.7688   -0.6606 C   0  0  0  0  0  0  0  0  0  0  0  0
   17.5095   -5.9362   -1.7045 C   0  0  2  0  0  0  0  0  0  0  0  0
   16.1511   -5.6505   -1.5896 O   0  0  0  0  0  0  0  0  0  0  0  0
   20.6120   -5.9665   -2.8732 C   0  0  0  0  0  0  0  0  0  0  0  0
   20.2543   -4.7742   -3.1215 O   0  0  0  0  0  0  0  0  0  0  0  0
   21.7190   -6.4864   -2.6362 O   0  0  0  0  0  0  0  0  0  0  0  0
   15.3161   -6.1985   -5.3770 O   0  0  0  0  0  0  0  0  0  0  0  0
   16.9043   -4.8000   -3.9332 H   0  0  0  0  0  0  0  0  0  0  0  0
   19.1144   -4.9405   -5.1295 H   0  0  0  0  0  0  0  0  0  0  0  0
   17.6805   -4.8864   -6.1335 H   0  0  0  0  0  0  0  0  0  0  0  0
   17.7911   -7.4020   -6.3478 H   0  0  0  0  0  0  0  0  0  0  0  0
   19.3100   -7.3650   -5.4499 H   0  0  0  0  0  0  0  0  0  0  0  0
   20.1915   -5.7589   -7.2019 H   0  0  0  0  0  0  0  0  0  0  0  0
   18.7093   -6.1397   -8.1442 H   0  0  0  0  0  0  0  0  0  0  0  0
   19.9341   -8.5811   -7.3920 H   0  0  0  0  0  0  0  0  0  0  0  0
   21.4850   -6.6446  -10.6769 H   0  0  0  0  0  0  0  0  0  0  0  0
   21.3295   -9.6879   -8.8576 H   0  0  0  0  0  0  0  0  0  0  0  0
   21.9647   -8.9329  -10.2779 H   0  0  0  0  0  0  0  0  0  0  0  0
   19.4752   -7.7386   -3.5350 H   0  0  0  0  0  0  0  0  0  0  0  0
   20.2392   -7.4115   -0.8719 H   0  0  0  0  0  0  0  0  0  0  0  0
   19.0145   -8.5637   -1.4630 H   0  0  0  0  0  0  0  0  0  0  0  0
   18.6521   -6.0641    0.0608 H   0  0  0  0  0  0  0  0  0  0  0  0
   17.5473   -7.4377   -0.1030 H   0  0  0  0  0  0  0  0  0  0  0  0
   17.9332   -4.9767   -1.4773 H   0  0  0  0  0  0  0  0  0  0  0  0
   15.6459   -6.3096   -2.0918 H   0  0  0  0  0  0  0  0  0  0  0  0
   20.5132   -5.7676   -9.5541 H   0  0  0  0  0  0  0  0  0  0  0  0
   18.6394   -5.2572   -3.0216 H   0  0  0  0  0  0  0  0  0  0  0  0
  1  2  1  0  0  0  0
  1  4  1  0  0  0  0
  1 11  1  0  0  0  0
  1 21  1  1  0  0  0
  2  3  2  0  0  0  0
  2 20  1  0  0  0  0
  4  5  1  0  0  0  0
  4 22  1  0  0  0  0
  4 23  1  0  0  0  0
  5  6  1  0  0  0  0
  5 24  1  0  0  0  0
  5 25  1  0  0  0  0
  6  7  1  0  0  0  0
  6 26  1  0  0  0  0
  6 27  1  0  0  0  0
  7  8  1  0  0  0  0
  7 28  1  0  0  0  0
  8  9  2  0  0  0  0
  8 10  1  0  0  0  0
  9 29  1  0  0  0  0
  9 39  1  0  0  0  0
 10 30  1  0  0  0  0
 10 31  1  0  0  0  0
 11 12  1  0  0  0  0
 11 15  1  0  0  0  0
 11 40  1  1  0  0  0
 12 13  1  0  0  0  0
 12 17  1  0  0  0  0
 12 32  1  6  0  0  0
 13 14  1  0  0  0  0
 13 33  1  0  0  0  0
 13 34  1  0  0  0  0
 14 15  1  0  0  0  0
 14 35  1  0  0  0  0
 14 36  1  0  0  0  0
 15 16  1  0  0  0  0
 15 37  1  1  0  0  0
 16 38  1  0  0  0  0
 17 18  2  0  0  0  0
 17 19  1  0  0  0  0
M  CHG  1  11   1
M  END
$$$$
