P51
 OpenBabel04111917423D

 63 65  0  0  1  0  0  0  0  0999 V2000
   91.5896   93.4684  -45.3076 C   0  0  0  0  0  0  0  0  0  0  0  0
   91.7443   92.3432  -46.1978 C   0  0  0  0  0  0  0  0  0  0  0  0
   91.9212   91.4271  -46.9520 C   0  0  0  0  0  0  0  0  0  0  0  0
   92.1263   90.3800  -47.9371 C   0  0  0  0  0  0  0  0  0  0  0  0
   90.9180   89.9350  -48.5344 O   0  0  0  0  0  0  0  0  0  0  0  0
   90.3663   90.7223  -49.5030 C   0  0  0  0  0  0  0  0  0  0  0  0
   90.9126   95.7709  -44.9469 C   0  0  0  0  0  0  0  0  0  0  0  0
   90.8334   98.2860  -44.8501 N   0  3  2  0  0  0  0  0  0  0  0  0
   91.0829   96.7642  -42.7887 O   0  0  0  0  0  0  0  0  0  0  0  0
   91.9192   93.3479  -43.9411 C   0  0  0  0  0  0  0  0  0  0  0  0
   90.3446   97.0177  -45.5343 C   0  0  0  0  0  0  0  0  0  0  0  0
   92.0517  102.3368  -44.2293 N   0  3  0  0  0  0  0  0  0  0  0  0
   89.7875   99.3502  -44.8592 C   0  0  0  0  0  0  0  0  0  0  0  0
   91.0768   94.6568  -45.7949 C   0  0  0  0  0  0  0  0  0  0  0  0
   91.7482   94.4465  -43.0847 C   0  0  0  0  0  0  0  0  0  0  0  0
   91.2235   95.6376  -43.5727 C   0  0  0  0  0  0  0  0  0  0  0  0
   90.3339  100.5038  -44.0629 C   0  0  0  0  0  0  0  0  0  0  0  0
   91.5708  101.0085  -44.7885 C   0  0  2  0  0  0  0  0  0  0  0  0
   93.0758  102.1964  -43.0927 C   0  0  0  0  0  0  0  0  0  0  0  0
   93.7959  103.4973  -42.9004 C   0  0  0  0  0  0  0  0  0  0  0  0
   90.9380  103.3067  -43.7897 C   0  0  0  0  0  0  0  0  0  0  0  0
   90.1679  103.8889  -44.9376 C   0  0  0  0  0  0  0  0  0  0  0  0
   92.6539   99.9328  -44.6995 C   0  0  0  0  0  0  0  0  0  0  0  0
   92.1792   98.6830  -45.3867 C   0  0  0  0  0  0  0  0  0  0  0  0
   92.2516   94.2678  -41.0792 I   0  0  0  0  0  0  0  0  0  0  0  0
   89.1074   90.3141  -49.9458 C   0  0  0  0  0  0  0  0  0  0  0  0
   88.4208   91.0323  -50.9257 C   0  0  0  0  0  0  0  0  0  0  0  0
   88.9958   92.1778  -51.4783 C   0  0  0  0  0  0  0  0  0  0  0  0
   90.2548   92.5933  -51.0503 C   0  0  0  0  0  0  0  0  0  0  0  0
   90.9373   91.8721  -50.0641 C   0  0  0  0  0  0  0  0  0  0  0  0
   92.5673   89.5082  -47.3977 H   0  0  0  0  0  0  0  0  0  0  0  0
   92.8728   90.6594  -48.6824 H   0  0  0  0  0  0  0  0  0  0  0  0
   91.3458   96.5035  -41.8734 H   0  0  0  0  0  0  0  0  0  0  0  0
   92.3105   92.4126  -43.5596 H   0  0  0  0  0  0  0  0  0  0  0  0
   89.2510   96.9919  -45.4690 H   0  0  0  0  0  0  0  0  0  0  0  0
   90.6357   97.1104  -46.5862 H   0  0  0  0  0  0  0  0  0  0  0  0
   88.8635   98.9638  -44.4197 H   0  0  0  0  0  0  0  0  0  0  0  0
   89.6148   99.6295  -45.9034 H   0  0  0  0  0  0  0  0  0  0  0  0
   90.8191   94.7261  -46.8472 H   0  0  0  0  0  0  0  0  0  0  0  0
   90.5858  100.1934  -43.0411 H   0  0  0  0  0  0  0  0  0  0  0  0
   89.5518  101.2483  -44.0104 H   0  0  0  0  0  0  0  0  0  0  0  0
   91.3346  101.1805  -45.8474 H   0  0  0  0  0  0  0  0  0  0  0  0
   93.8178  101.4523  -43.3681 H   0  0  0  0  0  0  0  0  0  0  0  0
   92.5374  101.8682  -42.2036 H   0  0  0  0  0  0  0  0  0  0  0  0
   94.5144  103.4053  -42.0956 H   0  0  0  0  0  0  0  0  0  0  0  0
   93.1165  104.2864  -42.6089 H   0  0  0  0  0  0  0  0  0  0  0  0
   94.2999  103.7999  -43.8157 H   0  0  0  0  0  0  0  0  0  0  0  0
   91.3713  104.1185  -43.2316 H   0  0  0  0  0  0  0  0  0  0  0  0
   90.2926  102.7816  -43.0928 H   0  0  0  0  0  0  0  0  0  0  0  0
   89.3976  104.5578  -44.5437 H   0  0  0  0  0  0  0  0  0  0  0  0
   89.6713  103.1148  -45.5175 H   0  0  0  0  0  0  0  0  0  0  0  0
   90.8158  104.4728  -45.5941 H   0  0  0  0  0  0  0  0  0  0  0  0
   92.8744   99.6880  -43.6494 H   0  0  0  0  0  0  0  0  0  0  0  0
   93.5821  100.2682  -45.1692 H   0  0  0  0  0  0  0  0  0  0  0  0
   92.0468   98.8763  -46.4516 H   0  0  0  0  0  0  0  0  0  0  0  0
   92.8807   97.8596  -45.2317 H   0  0  0  0  0  0  0  0  0  0  0  0
   88.6563   89.4217  -49.5168 H   0  0  0  0  0  0  0  0  0  0  0  0
   87.4415   90.6953  -51.2582 H   0  0  0  0  0  0  0  0  0  0  0  0
   88.4594   92.7311  -52.2450 H   0  0  0  0  0  0  0  0  0  0  0  0
   90.7045   93.4792  -51.4948 H   0  0  0  0  0  0  0  0  0  0  0  0
   91.9127   92.2281  -49.7585 H   0  0  0  0  0  0  0  0  0  0  0  0
   90.9558   97.9813  -43.8597 H   0  0  0  0  0  0  0  0  0  0  0  0
   92.5508  102.8170  -45.0035 H   0  0  0  0  0  0  0  0  0  0  0  0
  1  2  1  0  0  0  0
  1 10  2  0  0  0  0
  1 14  1  0  0  0  0
  2  3  3  0  0  0  0
  3  4  1  0  0  0  0
  4  5  1  0  0  0  0
  4 31  1  0  0  0  0
  4 32  1  0  0  0  0
  5  6  1  0  0  0  0
  6 26  2  0  0  0  0
  6 30  1  0  0  0  0
  7 11  1  0  0  0  0
  7 14  2  0  0  0  0
  7 16  1  0  0  0  0
  8 11  1  0  0  0  0
  8 13  1  0  0  0  0
  8 24  1  0  0  0  0
  8 62  1  1  0  0  0
  9 16  1  0  0  0  0
  9 33  1  0  0  0  0
 10 15  1  0  0  0  0
 10 34  1  0  0  0  0
 11 35  1  0  0  0  0
 11 36  1  0  0  0  0
 12 18  1  0  0  0  0
 12 19  1  0  0  0  0
 12 21  1  0  0  0  0
 12 63  1  0  0  0  0
 13 17  1  0  0  0  0
 13 37  1  0  0  0  0
 13 38  1  0  0  0  0
 14 39  1  0  0  0  0
 15 16  2  0  0  0  0
 15 25  1  0  0  0  0
 17 18  1  0  0  0  0
 17 40  1  0  0  0  0
 17 41  1  0  0  0  0
 18 23  1  0  0  0  0
 18 42  1  6  0  0  0
 19 20  1  0  0  0  0
 19 43  1  0  0  0  0
 19 44  1  0  0  0  0
 20 45  1  0  0  0  0
 20 46  1  0  0  0  0
 20 47  1  0  0  0  0
 21 22  1  0  0  0  0
 21 48  1  0  0  0  0
 21 49  1  0  0  0  0
 22 50  1  0  0  0  0
 22 51  1  0  0  0  0
 22 52  1  0  0  0  0
 23 24  1  0  0  0  0
 23 53  1  0  0  0  0
 23 54  1  0  0  0  0
 24 55  1  0  0  0  0
 24 56  1  0  0  0  0
 26 27  1  0  0  0  0
 26 57  1  0  0  0  0
 27 28  2  0  0  0  0
 27 58  1  0  0  0  0
 28 29  1  0  0  0  0
 28 59  1  0  0  0  0
 29 30  2  0  0  0  0
 29 60  1  0  0  0  0
 30 61  1  0  0  0  0
M  CHG  2   8   1  12   1
M  END
$$$$
