P74
 OpenBabel04111917413D

 69 70  0  0  1  0  0  0  0  0999 V2000
   91.3996   93.3491  -45.3447 C   0  0  0  0  0  0  0  0  0  0  0  0
   91.5668   92.2649  -46.2450 C   0  0  0  0  0  0  0  0  0  0  0  0
   91.6705   91.4184  -47.0735 C   0  0  0  0  0  0  0  0  0  0  0  0
   91.8283   90.3833  -48.0995 C   0  0  0  0  0  0  0  0  0  0  0  0
   91.6023   90.9270  -49.4154 N   0  0  0  0  0  0  0  0  0  0  0  0
   90.7358   95.6726  -44.9700 C   0  0  0  0  0  0  0  0  0  0  0  0
   90.6167   98.1795  -44.8363 N   0  3  2  0  0  0  0  0  0  0  0  0
   90.9483   96.6442  -42.8231 O   0  0  0  0  0  0  0  0  0  0  0  0
   91.7722   93.2283  -44.0016 C   0  0  0  0  0  0  0  0  0  0  0  0
   90.1507   96.9159  -45.5312 C   0  0  0  0  0  0  0  0  0  0  0  0
   91.8352  102.1433  -43.8263 N   0  3  0  0  0  0  0  0  0  0  0  0
   89.5859   99.2555  -44.8904 C   0  0  0  0  0  0  0  0  0  0  0  0
   90.8816   94.5630  -45.8276 C   0  0  0  0  0  0  0  0  0  0  0  0
   91.6160   94.3300  -43.1346 C   0  0  0  0  0  0  0  0  0  0  0  0
   91.0961   95.5265  -43.6118 C   0  0  0  0  0  0  0  0  0  0  0  0
   90.0787  100.4076  -44.0446 C   0  0  0  0  0  0  0  0  0  0  0  0
   91.4095  100.9050  -44.6106 C   0  0  2  0  0  0  0  0  0  0  0  0
   93.2695  102.1272  -43.2558 C   0  0  0  0  0  0  0  0  0  0  0  0
   94.0063  103.4049  -43.5281 C   0  0  0  0  0  0  0  0  0  0  0  0
   91.4903  103.5173  -44.4545 C   0  0  0  0  0  0  0  0  0  0  0  0
   90.0506  103.6917  -44.8215 C   0  0  0  0  0  0  0  0  0  0  0  0
   92.4269   99.7682  -44.5111 C   0  0  0  0  0  0  0  0  0  0  0  0
   91.9799   98.5753  -45.2996 C   0  0  0  0  0  0  0  0  0  0  0  0
   92.1592   94.1568  -41.1357 I   0  0  0  0  0  0  0  0  0  0  0  0
   90.3551   91.1242  -49.8844 C   0  0  0  0  0  0  0  0  0  0  0  0
   90.4076   91.9603  -50.9543 O   0  0  0  0  0  0  0  0  0  0  0  0
   89.2083   92.5239  -51.5446 C   0  0  0  0  0  0  0  0  0  0  0  0
   89.7107   93.4249  -52.6723 C   0  0  0  0  0  0  0  0  0  0  0  0
   88.4485   93.4112  -50.5602 C   0  0  0  0  0  0  0  0  0  0  0  0
   88.3002   91.4551  -52.1336 C   0  0  0  0  0  0  0  0  0  0  0  0
   89.3230   90.6949  -49.3731 O   0  0  0  0  0  0  0  0  0  0  0  0
   91.1343   89.5621  -47.9295 H   0  0  0  0  0  0  0  0  0  0  0  0
   92.8524   89.9965  -48.0703 H   0  0  0  0  0  0  0  0  0  0  0  0
   92.3781   91.2551  -49.9857 H   0  0  0  0  0  0  0  0  0  0  0  0
   91.2374   96.3756  -41.9105 H   0  0  0  0  0  0  0  0  0  0  0  0
   92.1749   92.2979  -43.6469 H   0  0  0  0  0  0  0  0  0  0  0  0
   89.0581   96.8734  -45.4602 H   0  0  0  0  0  0  0  0  0  0  0  0
   90.4321   97.0352  -46.5864 H   0  0  0  0  0  0  0  0  0  0  0  0
   88.6370   98.8580  -44.5261 H   0  0  0  0  0  0  0  0  0  0  0  0
   89.4906   99.5441  -45.9447 H   0  0  0  0  0  0  0  0  0  0  0  0
   90.6063   94.6427  -46.8727 H   0  0  0  0  0  0  0  0  0  0  0  0
   90.2015  100.0715  -43.0008 H   0  0  0  0  0  0  0  0  0  0  0  0
   89.3202  101.1875  -44.0437 H   0  0  0  0  0  0  0  0  0  0  0  0
   91.2817  101.1899  -45.6649 H   0  0  0  0  0  0  0  0  0  0  0  0
   93.8614  101.3390  -43.7005 H   0  0  0  0  0  0  0  0  0  0  0  0
   93.1893  101.8952  -42.1987 H   0  0  0  0  0  0  0  0  0  0  0  0
   95.0066  103.3628  -43.1313 H   0  0  0  0  0  0  0  0  0  0  0  0
   93.5024  104.2201  -43.0311 H   0  0  0  0  0  0  0  0  0  0  0  0
   94.0604  103.5862  -44.5988 H   0  0  0  0  0  0  0  0  0  0  0  0
   92.1286  103.6575  -45.3308 H   0  0  0  0  0  0  0  0  0  0  0  0
   91.6999  104.2663  -43.6916 H   0  0  0  0  0  0  0  0  0  0  0  0
   89.9116  104.6987  -45.2183 H   0  0  0  0  0  0  0  0  0  0  0  0
   89.4067  103.5817  -43.9503 H   0  0  0  0  0  0  0  0  0  0  0  0
   89.7674  102.9876  -45.5898 H   0  0  0  0  0  0  0  0  0  0  0  0
   92.5804   99.4831  -43.4584 H   0  0  0  0  0  0  0  0  0  0  0  0
   93.3775  100.0566  -44.9436 H   0  0  0  0  0  0  0  0  0  0  0  0
   91.8936   98.8355  -46.3639 H   0  0  0  0  0  0  0  0  0  0  0  0
   92.6727   97.7422  -45.1778 H   0  0  0  0  0  0  0  0  0  0  0  0
   88.8882   93.9265  -53.1928 H   0  0  0  0  0  0  0  0  0  0  0  0
   90.2840   92.8452  -53.3996 H   0  0  0  0  0  0  0  0  0  0  0  0
   90.3865   94.1907  -52.2788 H   0  0  0  0  0  0  0  0  0  0  0  0
   87.5508   93.8408  -51.0165 H   0  0  0  0  0  0  0  0  0  0  0  0
   89.0749   94.2378  -50.2140 H   0  0  0  0  0  0  0  0  0  0  0  0
   88.1371   92.8561  -49.6747 H   0  0  0  0  0  0  0  0  0  0  0  0
   87.3976   91.8897  -52.5719 H   0  0  0  0  0  0  0  0  0  0  0  0
   87.9860   90.7388  -51.3770 H   0  0  0  0  0  0  0  0  0  0  0  0
   88.8220   90.8927  -52.9091 H   0  0  0  0  0  0  0  0  0  0  0  0
   90.7018   97.8680  -43.8362 H   0  0  0  0  0  0  0  0  0  0  0  0
   91.2591  102.1502  -42.9559 H   0  0  0  0  0  0  0  0  0  0  0  0
  1  2  1  0  0  0  0
  1  9  2  0  0  0  0
  1 13  1  0  0  0  0
  2  3  3  0  0  0  0
  3  4  1  0  0  0  0
  4  5  1  0  0  0  0
  4 32  1  0  0  0  0
  4 33  1  0  0  0  0
  5 25  1  0  0  0  0
  5 34  1  0  0  0  0
  6 10  1  0  0  0  0
  6 13  2  0  0  0  0
  6 15  1  0  0  0  0
  7 10  1  0  0  0  0
  7 12  1  0  0  0  0
  7 23  1  0  0  0  0
  7 68  1  1  0  0  0
  8 15  1  0  0  0  0
  8 35  1  0  0  0  0
  9 14  1  0  0  0  0
  9 36  1  0  0  0  0
 10 37  1  0  0  0  0
 10 38  1  0  0  0  0
 11 17  1  0  0  0  0
 11 18  1  0  0  0  0
 11 20  1  0  0  0  0
 11 69  1  0  0  0  0
 12 16  1  0  0  0  0
 12 39  1  0  0  0  0
 12 40  1  0  0  0  0
 13 41  1  0  0  0  0
 14 15  2  0  0  0  0
 14 24  1  0  0  0  0
 16 17  1  0  0  0  0
 16 42  1  0  0  0  0
 16 43  1  0  0  0  0
 17 22  1  0  0  0  0
 17 44  1  6  0  0  0
 18 19  1  0  0  0  0
 18 45  1  0  0  0  0
 18 46  1  0  0  0  0
 19 47  1  0  0  0  0
 19 48  1  0  0  0  0
 19 49  1  0  0  0  0
 20 21  1  0  0  0  0
 20 50  1  0  0  0  0
 20 51  1  0  0  0  0
 21 52  1  0  0  0  0
 21 53  1  0  0  0  0
 21 54  1  0  0  0  0
 22 23  1  0  0  0  0
 22 55  1  0  0  0  0
 22 56  1  0  0  0  0
 23 57  1  0  0  0  0
 23 58  1  0  0  0  0
 25 26  1  0  0  0  0
 25 31  2  0  0  0  0
 26 27  1  0  0  0  0
 27 28  1  0  0  0  0
 27 29  1  0  0  0  0
 27 30  1  0  0  0  0
 28 59  1  0  0  0  0
 28 60  1  0  0  0  0
 28 61  1  0  0  0  0
 29 62  1  0  0  0  0
 29 63  1  0  0  0  0
 29 64  1  0  0  0  0
 30 65  1  0  0  0  0
 30 66  1  0  0  0  0
 30 67  1  0  0  0  0
M  CHG  2   7   1  11   1
M  END
$$$$
