P84
 OpenBabel04111917413D

 25 25  0  0  0  0  0  0  0  0999 V2000
   91.1597   95.7403  -44.9824 C   0  0  0  0  0  0  0  0  0  0  0  0
   91.5569   95.5586  -43.6390 C   0  0  0  0  0  0  0  0  0  0  0  0
   91.8903   94.2915  -43.1498 C   0  0  0  0  0  0  0  0  0  0  0  0
   90.7130   97.0837  -45.5014 C   0  0  0  0  0  0  0  0  0  0  0  0
   91.3811   98.2715  -44.8592 N   0  3  0  0  0  0  0  0  0  0  0  0
   91.8860   93.1916  -43.9908 C   0  0  0  0  0  0  0  0  0  0  0  0
   91.1539   94.6217  -45.8167 C   0  0  0  0  0  0  0  0  0  0  0  0
   92.8057   98.4554  -45.2917 C   0  0  0  0  0  0  0  0  0  0  0  0
   91.5208   93.3657  -45.3413 C   0  0  0  0  0  0  0  0  0  0  0  0
   92.4195   94.0201  -41.1489 I   0  0  0  0  0  0  0  0  0  0  0  0
   91.6437   96.6803  -42.8518 O   0  0  0  0  0  0  0  0  0  0  0  0
   91.5412   91.7347  -46.6314 I   0  0  0  0  0  0  0  0  0  0  0  0
   90.5784   99.5242  -44.9518 C   0  0  0  0  0  0  0  0  0  0  0  0
   89.6353   97.1689  -45.3139 H   0  0  0  0  0  0  0  0  0  0  0  0
   90.8862   97.1658  -46.5825 H   0  0  0  0  0  0  0  0  0  0  0  0
   92.1603   92.2040  -43.6301 H   0  0  0  0  0  0  0  0  0  0  0  0
   90.8603   94.7267  -46.8653 H   0  0  0  0  0  0  0  0  0  0  0  0
   93.2228   99.2939  -44.7315 H   0  0  0  0  0  0  0  0  0  0  0  0
   92.8196   98.6563  -46.3656 H   0  0  0  0  0  0  0  0  0  0  0  0
   93.3646   97.5463  -45.0562 H   0  0  0  0  0  0  0  0  0  0  0  0
   92.2993   96.4731  -42.1451 H   0  0  0  0  0  0  0  0  0  0  0  0
   89.5746   99.3172  -44.5733 H   0  0  0  0  0  0  0  0  0  0  0  0
   90.5516   99.8455  -45.9961 H   0  0  0  0  0  0  0  0  0  0  0  0
   91.0592  100.2784  -44.3182 H   0  0  0  0  0  0  0  0  0  0  0  0
   91.4124   98.0173  -43.8576 H   0  0  0  0  0  0  0  0  0  0  0  0
  1  2  2  0  0  0  0
  1  4  1  0  0  0  0
  1  7  1  0  0  0  0
  2  3  1  0  0  0  0
  2 11  1  0  0  0  0
  3  6  2  0  0  0  0
  3 10  1  0  0  0  0
  4  5  1  0  0  0  0
  4 14  1  0  0  0  0
  4 15  1  0  0  0  0
  5  8  1  0  0  0  0
  5 13  1  0  0  0  0
  5 25  1  0  0  0  0
  6  9  1  0  0  0  0
  6 16  1  0  0  0  0
  7  9  2  0  0  0  0
  7 17  1  0  0  0  0
  8 18  1  0  0  0  0
  8 19  1  0  0  0  0
  8 20  1  0  0  0  0
  9 12  1  0  0  0  0
 11 21  1  0  0  0  0
 13 22  1  0  0  0  0
 13 23  1  0  0  0  0
 13 24  1  0  0  0  0
M  CHG  1   5   1
M  END
$$$$
