P86
 OpenBabel04111917413D

 47 48  0  0  1  0  0  0  0  0999 V2000
   91.0864   93.5647  -45.1006 C   0  0  0  0  0  0  0  0  0  0  0  0
   90.4928   95.9017  -44.7789 C   0  0  0  0  0  0  0  0  0  0  0  0
   90.4993   98.4202  -44.7279 N   0  3  2  0  0  0  0  0  0  0  0  0
   90.8581   96.9453  -42.6702 O   0  0  0  0  0  0  0  0  0  0  0  0
   91.4807   93.4668  -43.7628 C   0  0  0  0  0  0  0  0  0  0  0  0
   89.9014   97.1563  -45.3349 C   0  0  0  0  0  0  0  0  0  0  0  0
   92.0493  102.4301  -44.4632 N   0  3  0  0  0  0  0  0  0  0  0  0
   89.5287   99.5623  -44.7147 C   0  0  0  0  0  0  0  0  0  0  0  0
   90.5807   94.7576  -45.5954 C   0  0  0  0  0  0  0  0  0  0  0  0
   91.3923   94.5972  -42.9357 C   0  0  0  0  0  0  0  0  0  0  0  0
   90.9136   95.7973  -43.4315 C   0  0  0  0  0  0  0  0  0  0  0  0
   90.1849  100.7503  -44.0146 C   0  0  0  0  0  0  0  0  0  0  0  0
   91.4398  101.0851  -44.8204 C   0  0  2  0  0  0  0  0  0  0  0  0
   92.9666  102.9065  -45.6049 C   0  0  0  0  0  0  0  0  0  0  0  0
   92.9285  104.4085  -45.7809 C   0  0  0  0  0  0  0  0  0  0  0  0
   92.7684  102.4473  -43.1199 C   0  0  0  0  0  0  0  0  0  0  0  0
   92.6286  103.7742  -42.4133 C   0  0  0  0  0  0  0  0  0  0  0  0
   92.4490   99.9470  -44.7037 C   0  0  0  0  0  0  0  0  0  0  0  0
   91.8427   98.7085  -45.3362 C   0  0  0  0  0  0  0  0  0  0  0  0
   91.1850   91.9079  -46.3627 I   0  0  0  0  0  0  0  0  0  0  0  0
   91.9918   94.4469  -40.9397 I   0  0  0  0  0  0  0  0  0  0  0  0
   91.1577   96.7020  -41.7666 H   0  0  0  0  0  0  0  0  0  0  0  0
   91.8513   92.5168  -43.3852 H   0  0  0  0  0  0  0  0  0  0  0  0
   88.8229   97.1638  -45.1429 H   0  0  0  0  0  0  0  0  0  0  0  0
   90.0713   97.2240  -46.4141 H   0  0  0  0  0  0  0  0  0  0  0  0
   88.6167   99.2465  -44.1987 H   0  0  0  0  0  0  0  0  0  0  0  0
   89.2999   99.7977  -45.7593 H   0  0  0  0  0  0  0  0  0  0  0  0
   90.2570   94.8147  -46.6396 H   0  0  0  0  0  0  0  0  0  0  0  0
   90.4266  100.4792  -42.9779 H   0  0  0  0  0  0  0  0  0  0  0  0
   89.4840  101.5898  -43.9899 H   0  0  0  0  0  0  0  0  0  0  0  0
   91.1260  101.1774  -45.8676 H   0  0  0  0  0  0  0  0  0  0  0  0
   92.6300  102.4343  -46.5297 H   0  0  0  0  0  0  0  0  0  0  0  0
   93.9795  102.5646  -45.3830 H   0  0  0  0  0  0  0  0  0  0  0  0
   93.6007  104.6875  -46.5982 H   0  0  0  0  0  0  0  0  0  0  0  0
   93.2773  104.9276  -44.8954 H   0  0  0  0  0  0  0  0  0  0  0  0
   91.9213  104.7533  -46.0272 H   0  0  0  0  0  0  0  0  0  0  0  0
   93.8189  102.2091  -43.3013 H   0  0  0  0  0  0  0  0  0  0  0  0
   92.3292  101.6667  -42.4951 H   0  0  0  0  0  0  0  0  0  0  0  0
   93.1670  103.7301  -41.4614 H   0  0  0  0  0  0  0  0  0  0  0  0
   91.5821  104.0101  -42.2110 H   0  0  0  0  0  0  0  0  0  0  0  0
   93.0689  104.5882  -42.9839 H   0  0  0  0  0  0  0  0  0  0  0  0
   92.6996   99.7398  -43.6556 H   0  0  0  0  0  0  0  0  0  0  0  0
   93.3792  100.1937  -45.2247 H   0  0  0  0  0  0  0  0  0  0  0  0
   91.6783   98.8708  -46.4052 H   0  0  0  0  0  0  0  0  0  0  0  0
   92.4930   97.8416  -45.1887 H   0  0  0  0  0  0  0  0  0  0  0  0
   90.6529   98.1432  -43.7346 H   0  0  0  0  0  0  0  0  0  0  0  0
   91.2749  103.1118  -44.4115 H   0  0  0  0  0  0  0  0  0  0  0  0
  1  5  2  0  0  0  0
  1  9  1  0  0  0  0
  1 20  1  0  0  0  0
  2  6  1  0  0  0  0
  2  9  2  0  0  0  0
  2 11  1  0  0  0  0
  3  6  1  0  0  0  0
  3  8  1  0  0  0  0
  3 19  1  0  0  0  0
  3 46  1  1  0  0  0
  4 11  1  0  0  0  0
  4 22  1  0  0  0  0
  5 10  1  0  0  0  0
  5 23  1  0  0  0  0
  6 24  1  0  0  0  0
  6 25  1  0  0  0  0
  7 13  1  0  0  0  0
  7 14  1  0  0  0  0
  7 16  1  0  0  0  0
  7 47  1  0  0  0  0
  8 12  1  0  0  0  0
  8 26  1  0  0  0  0
  8 27  1  0  0  0  0
  9 28  1  0  0  0  0
 10 11  2  0  0  0  0
 10 21  1  0  0  0  0
 12 13  1  0  0  0  0
 12 29  1  0  0  0  0
 12 30  1  0  0  0  0
 13 18  1  0  0  0  0
 13 31  1  6  0  0  0
 14 15  1  0  0  0  0
 14 32  1  0  0  0  0
 14 33  1  0  0  0  0
 15 34  1  0  0  0  0
 15 35  1  0  0  0  0
 15 36  1  0  0  0  0
 16 17  1  0  0  0  0
 16 37  1  0  0  0  0
 16 38  1  0  0  0  0
 17 39  1  0  0  0  0
 17 40  1  0  0  0  0
 17 41  1  0  0  0  0
 18 19  1  0  0  0  0
 18 42  1  0  0  0  0
 18 43  1  0  0  0  0
 19 44  1  0  0  0  0
 19 45  1  0  0  0  0
M  CHG  2   3   1   7   1
M  END
$$$$
