PBD
 OpenBabel04111920233D

 43 44  0  0  0  0  0  0  0  0999 V2000
  -22.3512   17.8233   -0.5846 C   0  0  0  0  0  0  0  0  0  0  0  0
  -25.3323   17.9567   -5.1328 C   0  0  0  0  0  0  0  0  0  0  0  0
  -21.6547   23.8996   -6.8810 S   0  0  0  0  0  0  0  0  0  0  0  0
  -15.2617   17.9144   -6.6237 C   0  0  0  0  0  0  0  0  0  0  0  0
  -22.0860   21.1751   -3.0897 C   0  0  0  0  0  0  0  0  0  0  0  0
  -22.1676   20.0794   -2.2305 C   0  0  0  0  0  0  0  0  0  0  0  0
  -16.1506   18.7049   -7.3064 C   0  0  0  0  0  0  0  0  0  0  0  0
  -15.4282   19.7185   -5.4921 C   0  0  0  0  0  0  0  0  0  0  0  0
  -23.7726   20.2022   -4.5071 C   0  0  0  0  0  0  0  0  0  0  0  0
  -18.4754   20.7634   -6.2545 C   0  0  0  0  0  0  0  0  0  0  0  0
  -19.3540   21.9887   -6.4313 C   0  0  0  0  0  0  0  0  0  0  0  0
  -17.1009   20.9817   -6.8567 C   0  0  0  0  0  0  0  0  0  0  0  0
  -14.8348   18.5473   -5.4900 N   0  0  0  0  0  0  0  0  0  0  0  0
  -20.6083   21.7719   -5.6960 N   0  0  0  0  0  0  0  0  0  0  0  0
  -22.8005   22.2987   -5.0973 N   0  0  0  0  0  0  0  0  0  0  0  0
  -23.2024   17.9237   -1.7181 O   0  0  0  0  0  0  0  0  0  0  0  0
  -24.6873   18.0222   -3.8696 O   0  0  0  0  0  0  0  0  0  0  0  0
  -21.6902   22.5439   -5.7820 C   0  0  0  0  0  0  0  0  0  0  0  0
  -22.8868   21.2421   -4.2318 C   0  0  0  0  0  0  0  0  0  0  0  0
  -23.0504   19.0326   -2.5061 C   0  0  0  0  0  0  0  0  0  0  0  0
  -23.8522   19.0904   -3.6590 C   0  0  0  0  0  0  0  0  0  0  0  0
  -16.2416   19.8426   -6.5781 N   0  3  0  0  0  0  0  0  0  0  0  0
  -22.5867   16.8959   -0.0571 H   0  0  0  0  0  0  0  0  0  0  0  0
  -22.5247   18.6568    0.1037 H   0  0  0  0  0  0  0  0  0  0  0  0
  -21.3032   17.7807   -0.8994 H   0  0  0  0  0  0  0  0  0  0  0  0
  -25.9581   17.0617   -5.1600 H   0  0  0  0  0  0  0  0  0  0  0  0
  -24.5888   17.8829   -5.9337 H   0  0  0  0  0  0  0  0  0  0  0  0
  -25.9855   18.8230   -5.2789 H   0  0  0  0  0  0  0  0  0  0  0  0
  -22.8820   24.4145   -6.7928 H   0  0  0  0  0  0  0  0  0  0  0  0
  -14.9242   16.9198   -6.8922 H   0  0  0  0  0  0  0  0  0  0  0  0
  -21.4066   21.9874   -2.8431 H   0  0  0  0  0  0  0  0  0  0  0  0
  -21.5404   20.0768   -1.3427 H   0  0  0  0  0  0  0  0  0  0  0  0
  -16.7031   18.5289   -8.2247 H   0  0  0  0  0  0  0  0  0  0  0  0
  -15.3163   20.4779   -4.7305 H   0  0  0  0  0  0  0  0  0  0  0  0
  -24.3729   20.2549   -5.4093 H   0  0  0  0  0  0  0  0  0  0  0  0
  -18.9633   19.8940   -6.7228 H   0  0  0  0  0  0  0  0  0  0  0  0
  -18.3868   20.5247   -5.1836 H   0  0  0  0  0  0  0  0  0  0  0  0
  -19.5631   22.1315   -7.4948 H   0  0  0  0  0  0  0  0  0  0  0  0
  -18.8654   22.8754   -6.0213 H   0  0  0  0  0  0  0  0  0  0  0  0
  -16.6223   21.8752   -6.4466 H   0  0  0  0  0  0  0  0  0  0  0  0
  -17.1597   21.0956   -7.9466 H   0  0  0  0  0  0  0  0  0  0  0  0
  -23.6253   22.8531   -5.2582 H   0  0  0  0  0  0  0  0  0  0  0  0
  -20.6513   20.9647   -5.0837 H   0  0  0  0  0  0  0  0  0  0  0  0
  1 16  1  0  0  0  0
  1 23  1  0  0  0  0
  1 24  1  0  0  0  0
  1 25  1  0  0  0  0
  2 17  1  0  0  0  0
  2 26  1  0  0  0  0
  2 27  1  0  0  0  0
  2 28  1  0  0  0  0
  3 18  1  0  0  0  0
  3 29  1  0  0  0  0
  4  7  2  0  0  0  0
  4 13  1  0  0  0  0
  4 30  1  0  0  0  0
  5  6  2  0  0  0  0
  5 19  1  0  0  0  0
  5 31  1  0  0  0  0
  6 20  1  0  0  0  0
  6 32  1  0  0  0  0
  7 22  1  0  0  0  0
  7 33  1  0  0  0  0
  8 13  1  0  0  0  0
  8 22  2  0  0  0  0
  8 34  1  0  0  0  0
  9 19  2  0  0  0  0
  9 21  1  0  0  0  0
  9 35  1  0  0  0  0
 10 11  1  0  0  0  0
 10 12  1  0  0  0  0
 10 36  1  0  0  0  0
 10 37  1  0  0  0  0
 11 14  1  0  0  0  0
 11 38  1  0  0  0  0
 11 39  1  0  0  0  0
 12 22  1  0  0  0  0
 12 40  1  0  0  0  0
 12 41  1  0  0  0  0
 14 18  2  0  0  0  0
 14 43  1  0  0  0  0
 15 18  1  0  0  0  0
 15 19  1  0  0  0  0
 15 42  1  0  0  0  0
 16 20  1  0  0  0  0
 17 21  1  0  0  0  0
 20 21  2  0  0  0  0
M  CHG  1  22   1
M  END
$$$$
