PCG
 OpenBabel04111922493D

 34 37  0  0  1  0  0  0  0  0999 V2000
   25.8651  -21.9985  -27.5004 P   0  0  1  0  0  0  0  0  0  0  0  0
   25.0665  -23.0634  -26.8423 O   0  0  0  0  0  0  0  0  0  0  0  0
   26.1789  -22.0252  -28.9950 O   0  0  0  0  0  0  0  0  0  0  0  0
   25.1677  -20.5784  -27.1370 O   0  0  0  0  0  0  0  0  0  0  0  0
   24.9842  -20.4318  -25.7355 C   0  0  0  0  0  0  0  0  0  0  0  0
   26.3780  -20.1835  -25.1731 C   0  0  1  0  0  0  0  0  0  0  0  0
   26.5582  -19.8144  -23.7897 O   0  0  0  0  0  0  0  0  0  0  0  0
   27.1701  -21.4569  -25.3337 C   0  0  1  0  0  0  0  0  0  0  0  0
   27.2942  -21.8268  -26.6915 O   0  0  0  0  0  0  0  0  0  0  0  0
   28.4391  -21.1683  -24.5451 C   0  0  1  0  0  0  0  0  0  0  0  0
   29.5528  -20.7671  -25.3655 O   0  0  0  0  0  0  0  0  0  0  0  0
   27.9644  -20.1336  -23.4647 C   0  0  2  0  0  0  0  0  0  0  0  0
   28.0385  -20.6745  -22.0680 N   0  3  0  0  0  0  0  0  0  0  0  0
   28.7064  -20.0671  -20.9977 C   0  0  0  0  0  0  0  0  0  0  0  0
   28.7065  -20.8657  -19.9331 N   0  0  0  0  0  0  0  0  0  0  0  0
   27.8690  -21.9561  -20.2715 C   0  0  0  0  0  0  0  0  0  0  0  0
   27.4045  -23.1101  -19.3753 C   0  0  0  0  0  0  0  0  0  0  0  0
   27.7072  -23.3339  -18.1798 O   0  0  0  0  0  0  0  0  0  0  0  0
   26.4890  -24.0061  -20.1044 N   0  3  0  0  0  0  0  0  0  0  0  0
   26.1110  -23.8418  -21.4333 C   0  0  0  0  0  0  0  0  0  0  0  0
   25.2564  -24.8119  -21.9591 N   0  0  0  0  0  0  0  0  0  0  0  0
   26.5559  -22.8070  -22.1622 N   0  0  0  0  0  0  0  0  0  0  0  0
   27.4199  -21.8931  -21.5433 C   0  0  0  0  0  0  0  0  0  0  0  0
   24.5505  -21.3508  -25.3259 H   0  0  0  0  0  0  0  0  0  0  0  0
   24.2915  -19.6168  -25.5273 H   0  0  0  0  0  0  0  0  0  0  0  0
   26.7802  -19.3613  -25.7820 H   0  0  0  0  0  0  0  0  0  0  0  0
   26.6712  -22.2583  -24.7876 H   0  0  0  0  0  0  0  0  0  0  0  0
   28.7849  -22.0640  -24.0257 H   0  0  0  0  0  0  0  0  0  0  0  0
   29.7019  -21.5347  -25.9650 H   0  0  0  0  0  0  0  0  0  0  0  0
   28.5546  -19.1914  -23.5684 H   0  0  0  0  0  0  0  0  0  0  0  0
   29.1467  -19.0452  -20.9997 H   0  0  0  0  0  0  0  0  0  0  0  0
   26.1524  -24.7743  -19.5584 H   0  0  0  0  0  0  0  0  0  0  0  0
   24.9322  -24.7680  -22.9287 H   0  0  0  0  0  0  0  0  0  0  0  0
   24.9038  -25.6260  -21.4863 H   0  0  0  0  0  0  0  0  0  0  0  0
  1  2  2  1  0  0  0
  1  3  1  0  0  0  0
  1  4  1  0  0  0  0
  1  9  1  0  0  0  0
  4  5  1  0  0  0  0
  5  6  1  0  0  0  0
  5 24  1  0  0  0  0
  5 25  1  0  0  0  0
  6  7  1  0  0  0  0
  6  8  1  0  0  0  0
  6 26  1  6  0  0  0
  7 12  1  0  0  0  0
  8  9  1  0  0  0  0
  8 10  1  0  0  0  0
  8 27  1  1  0  0  0
 10 11  1  0  0  0  0
 10 12  1  0  0  0  0
 10 28  1  1  0  0  0
 11 29  1  0  0  0  0
 12 13  1  0  0  0  0
 12 30  1  6  0  0  0
 13 14  2  0  0  0  0
 13 23  1  0  0  0  0
 14 15  1  0  0  0  0
 14 31  1  0  0  0  0
 15 16  1  0  0  0  0
 16 17  1  0  0  0  0
 16 23  2  0  0  0  0
 17 18  2  0  0  0  0
 17 19  1  0  0  0  0
 19 20  1  0  0  0  0
 19 32  1  0  0  0  0
 20 21  1  0  0  0  0
 20 22  2  0  0  0  0
 21 33  1  0  0  0  0
 21 34  1  0  0  0  0
 22 23  1  0  0  0  0
M  CHG  2  13   1  19   1
M  END
$$$$
