PCG
 OpenBabel04111920303D

 34 37  0  0  1  0  0  0  0  0999 V2000
   12.8306   -0.8099   89.0077 P   0  0  2  0  0  0  0  0  0  0  0  0
   11.5769   -0.1742   88.4780 O   0  0  0  0  0  0  0  0  0  0  0  0
   12.8927   -1.5692   90.3070 O   0  0  0  0  0  0  0  0  0  0  0  0
   13.9873    0.3355   89.0357 O   0  0  0  0  0  0  0  0  0  0  0  0
   15.3436   -0.0699   89.1213 C   0  0  0  0  0  0  0  0  0  0  0  0
   15.6391   -0.9431   87.9124 C   0  0  1  0  0  0  0  0  0  0  0  0
   16.9656   -1.4647   87.7518 O   0  0  0  0  0  0  0  0  0  0  0  0
   14.7588   -2.1619   87.9977 C   0  0  1  0  0  0  0  0  0  0  0  0
   13.4127   -1.7968   87.8359 O   0  0  0  0  0  0  0  0  0  0  0  0
   15.3470   -3.0282   86.8932 C   0  0  1  0  0  0  0  0  0  0  0  0
   14.7384   -2.7763   85.6247 O   0  0  0  0  0  0  0  0  0  0  0  0
   16.8129   -2.5721   86.8195 C   0  0  2  0  0  0  0  0  0  0  0  0
   17.7529   -3.6264   87.1534 N   0  3  0  0  0  0  0  0  0  0  0  0
   18.7005   -4.1664   86.3167 C   0  0  0  0  0  0  0  0  0  0  0  0
   19.3595   -5.1618   86.8873 N   0  0  0  0  0  0  0  0  0  0  0  0
   18.8031   -5.2744   88.1404 C   0  0  0  0  0  0  0  0  0  0  0  0
   19.1196   -6.1781   89.2430 C   0  0  0  0  0  0  0  0  0  0  0  0
   19.9834   -7.0324   89.2147 O   0  0  0  0  0  0  0  0  0  0  0  0
   18.3215   -5.9617   90.3653 N   0  3  0  0  0  0  0  0  0  0  0  0
   17.3093   -5.0265   90.4784 C   0  0  0  0  0  0  0  0  0  0  0  0
   16.6565   -4.9751   91.5791 N   0  0  0  0  0  0  0  0  0  0  0  0
   17.0633   -4.2098   89.4158 N   0  3  0  0  0  0  0  0  0  0  0  0
   17.8016   -4.3470   88.3020 C   0  0  0  0  0  0  0  0  0  0  0  0
   15.5226   -0.5767   90.0775 H   0  0  0  0  0  0  0  0  0  0  0  0
   15.9591    0.8328   89.1009 H   0  0  0  0  0  0  0  0  0  0  0  0
   15.3684   -0.3777   87.0118 H   0  0  0  0  0  0  0  0  0  0  0  0
   14.8809   -2.6342   88.9752 H   0  0  0  0  0  0  0  0  0  0  0  0
   15.2577   -4.0990   87.0968 H   0  0  0  0  0  0  0  0  0  0  0  0
   13.7793   -2.8952   85.7670 H   0  0  0  0  0  0  0  0  0  0  0  0
   17.0459   -2.2333   85.7998 H   0  0  0  0  0  0  0  0  0  0  0  0
   18.8786   -3.8135   85.3029 H   0  0  0  0  0  0  0  0  0  0  0  0
   18.4955   -6.5368   91.1684 H   0  0  0  0  0  0  0  0  0  0  0  0
   15.9311   -4.2433   91.5229 H   0  0  0  0  0  0  0  0  0  0  0  0
   16.3560   -3.5035   89.5289 H   0  0  0  0  0  0  0  0  0  0  0  0
  1  2  2  6  0  0  0
  1  3  1  0  0  0  0
  1  4  1  0  0  0  0
  1  9  1  0  0  0  0
  4  5  1  0  0  0  0
  5  6  1  0  0  0  0
  5 24  1  0  0  0  0
  5 25  1  0  0  0  0
  6  7  1  0  0  0  0
  6  8  1  0  0  0  0
  6 26  1  6  0  0  0
  7 12  1  0  0  0  0
  8  9  1  0  0  0  0
  8 10  1  0  0  0  0
  8 27  1  1  0  0  0
 10 11  1  0  0  0  0
 10 12  1  0  0  0  0
 10 28  1  1  0  0  0
 11 29  1  0  0  0  0
 12 13  1  0  0  0  0
 12 30  1  6  0  0  0
 13 14  2  0  0  0  0
 13 23  1  0  0  0  0
 14 15  1  0  0  0  0
 14 31  1  0  0  0  0
 15 16  2  0  0  0  0
 16 17  1  0  0  0  0
 16 23  1  0  0  0  0
 17 18  2  0  0  0  0
 17 19  1  0  0  0  0
 19 20  1  0  0  0  0
 19 32  1  0  0  0  0
 20 21  2  0  0  0  0
 20 22  1  0  0  0  0
 21 33  1  0  0  0  0
 22 23  2  0  0  0  0
 22 34  1  0  0  0  0
M  CHG  3  13   1  19   1  22   1
M  END
$$$$
