PDC
 OpenBabel04111919273D

 15 15  0  0  0  0  0  0  0  0999 V2000
   -0.3239  -12.9304    8.4847 N   0  0  0  0  0  0  0  0  0  0  0  0
   -1.5000  -12.2662    8.4452 C   0  0  0  0  0  0  0  0  0  0  0  0
   -2.7034  -12.8934    8.7841 C   0  0  0  0  0  0  0  0  0  0  0  0
   -2.7246  -14.2240    9.1893 C   0  0  0  0  0  0  0  0  0  0  0  0
   -1.5167  -14.9055    9.2282 C   0  0  0  0  0  0  0  0  0  0  0  0
   -0.3352  -14.2358    8.8830 C   0  0  0  0  0  0  0  0  0  0  0  0
   -1.5647  -10.8144    7.9810 C   0  0  0  0  0  0  0  0  0  0  0  0
   -0.7973   -9.9478    8.4976 O   0  0  0  0  0  0  0  0  0  0  0  0
   -2.4851  -10.5518    7.1319 O   0  0  0  0  0  0  0  0  0  0  0  0
    0.9742  -14.9797    8.8967 C   0  0  0  0  0  0  0  0  0  0  0  0
    1.3266  -15.5823    9.9611 O   0  0  0  0  0  0  0  0  0  0  0  0
    1.6250  -14.9942    7.7896 O   0  0  0  0  0  0  0  0  0  0  0  0
   -3.6217  -12.3240    8.7208 H   0  0  0  0  0  0  0  0  0  0  0  0
   -3.6554  -14.7006    9.4656 H   0  0  0  0  0  0  0  0  0  0  0  0
   -1.4704  -15.9455    9.5166 H   0  0  0  0  0  0  0  0  0  0  0  0
  1  2  2  0  0  0  0
  1  6  1  0  0  0  0
  2  3  1  0  0  0  0
  2  7  1  0  0  0  0
  3  4  2  0  0  0  0
  3 13  1  0  0  0  0
  4  5  1  0  0  0  0
  4 14  1  0  0  0  0
  5  6  2  0  0  0  0
  5 15  1  0  0  0  0
  6 10  1  0  0  0  0
  7  8  2  0  0  0  0
  7  9  1  0  0  0  0
 10 11  2  0  0  0  0
 10 12  1  0  0  0  0
M  END
$$$$
