PEQ
 OpenBabel04111922113D

 14 13  0  0  1  0  0  0  0  0999 V2000
  -27.1750  -16.0692  -37.8176 C   0  0  0  0  0  0  0  0  0  0  0  0
  -27.6054  -16.8614  -36.9197 O   0  0  0  0  0  0  0  0  0  0  0  0
  -27.9047  -15.2256  -38.4528 O   0  0  0  0  0  0  0  0  0  0  0  0
  -25.6097  -16.0059  -38.0661 C   0  0  2  0  0  0  0  0  0  0  0  0
  -25.2537  -14.9852  -39.1471 C   0  0  0  0  0  0  0  0  0  0  0  0
  -25.1338  -17.3234  -38.3788 O   0  0  0  0  0  0  0  0  0  0  0  0
  -23.5708  -17.7374  -38.6415 P   0  0  0  0  0  0  0  0  0  0  0  0
  -23.5540  -19.2556  -38.5457 O   0  0  0  0  0  0  0  0  0  0  0  0
  -23.2652  -17.2390  -40.0512 O   0  0  0  0  0  0  0  0  0  0  0  0
  -22.7305  -17.0554  -37.5677 O   0  0  0  0  0  0  0  0  0  0  0  0
  -25.1713  -15.6684  -37.1165 H   0  0  0  0  0  0  0  0  0  0  0  0
  -24.1762  -14.9275  -39.2866 H   0  0  0  0  0  0  0  0  0  0  0  0
  -25.6039  -13.9750  -38.8794 H   0  0  0  0  0  0  0  0  0  0  0  0
  -25.7012  -15.2510  -40.1067 H   0  0  0  0  0  0  0  0  0  0  0  0
  1  2  2  0  0  0  0
  1  3  1  0  0  0  0
  1  4  1  0  0  0  0
  4  5  1  0  0  0  0
  4  6  1  0  0  0  0
  4 11  1  1  0  0  0
  5 12  1  0  0  0  0
  5 13  1  0  0  0  0
  5 14  1  0  0  0  0
  6  7  1  0  0  0  0
  7  8  2  0  0  0  0
  7  9  1  0  0  0  0
  7 10  1  0  0  0  0
M  END
$$$$
