PGA
 OpenBabel04111918083D

 11 10  0  0  0  0  0  0  0  0999 V2000
   -1.6801  -19.8948  -35.5527 P   0  0  0  0  0  0  0  0  0  0  0  0
   -2.1741  -18.3268  -35.5430 O   0  0  0  0  0  0  0  0  0  0  0  0
   -2.6068  -20.6000  -36.5389 O   0  0  0  0  0  0  0  0  0  0  0  0
   -0.2304  -19.8129  -36.0328 O   0  0  0  0  0  0  0  0  0  0  0  0
   -1.8310  -20.3700  -34.1183 O   0  0  0  0  0  0  0  0  0  0  0  0
   -3.4775  -18.0025  -35.0430 C   0  0  0  0  0  0  0  0  0  0  0  0
   -3.9157  -16.5693  -35.4563 C   0  0  0  0  0  0  0  0  0  0  0  0
   -5.1775  -16.4011  -35.5949 O   0  0  0  0  0  0  0  0  0  0  0  0
   -3.0411  -15.6495  -35.5329 O   0  0  0  0  0  0  0  0  0  0  0  0
   -3.4596  -18.0458  -33.9471 H   0  0  0  0  0  0  0  0  0  0  0  0
   -4.2113  -18.7324  -35.4068 H   0  0  0  0  0  0  0  0  0  0  0  0
  1  2  1  0  0  0  0
  1  3  2  0  0  0  0
  1  4  1  0  0  0  0
  1  5  1  0  0  0  0
  2  6  1  0  0  0  0
  6  7  1  0  0  0  0
  6 10  1  0  0  0  0
  6 11  1  0  0  0  0
  7  8  2  0  0  0  0
  7  9  1  0  0  0  0
M  END
$$$$
