PGH
 OpenBabel04111918313D

 14 13  0  0  0  0  0  0  0  0999 V2000
    8.7289   41.2630   22.3120 C   0  0  0  0  0  0  0  0  0  0  0  0
    7.7308   41.5306   21.1756 C   0  0  0  0  0  0  0  0  0  0  0  0
    8.9936   42.3547   23.1188 N   0  0  0  0  0  0  0  0  0  0  0  0
    9.9259   42.1339   24.1674 O   0  0  0  0  0  0  0  0  0  0  0  0
    9.2256   40.1495   22.5387 O   0  0  0  0  0  0  0  0  0  0  0  0
    8.2143   40.9427   19.9978 O   0  0  0  0  0  0  0  0  0  0  0  0
    7.9960   40.3773   17.5910 O   0  0  0  0  0  0  0  0  0  0  0  0
    5.9575   41.0855   18.9798 O   0  0  0  0  0  0  0  0  0  0  0  0
    7.7710   42.7946   18.4199 O   0  0  0  0  0  0  0  0  0  0  0  0
    7.4174   41.3279   18.6257 P   0  0  0  0  0  0  0  0  0  0  0  0
    7.5791   42.6099   21.0587 H   0  0  0  0  0  0  0  0  0  0  0  0
    6.7852   41.0754   21.4837 H   0  0  0  0  0  0  0  0  0  0  0  0
    8.6340   43.2825   22.9327 H   0  0  0  0  0  0  0  0  0  0  0  0
   10.0343   43.0017   24.5771 H   0  0  0  0  0  0  0  0  0  0  0  0
  1  2  1  0  0  0  0
  1  3  1  0  0  0  0
  1  5  2  0  0  0  0
  2  6  1  0  0  0  0
  2 11  1  0  0  0  0
  2 12  1  0  0  0  0
  3  4  1  0  0  0  0
  3 13  1  0  0  0  0
  4 14  1  0  0  0  0
  6 10  1  0  0  0  0
  7 10  2  0  0  0  0
  8 10  1  0  0  0  0
  9 10  1  0  0  0  0
M  END
$$$$
