PHB
 OpenBabel04111918413D

 15 15  0  0  0  0  0  0  0  0999 V2000
   16.4191    2.1162   15.3327 C   0  0  0  0  0  0  0  0  0  0  0  0
   15.1907    1.8278   15.4988 O   0  0  0  0  0  0  0  0  0  0  0  0
   17.4051    1.3688   15.6264 O   0  0  0  0  0  0  0  0  0  0  0  0
   16.7372    3.4713   14.7334 C   0  0  0  0  0  0  0  0  0  0  0  0
   18.0600    3.9428   14.6785 C   0  0  0  0  0  0  0  0  0  0  0  0
   18.3556    5.2031   14.1527 C   0  0  0  0  0  0  0  0  0  0  0  0
   17.3238    5.9852   13.6399 C   0  0  0  0  0  0  0  0  0  0  0  0
   16.0113    5.5356   13.6624 C   0  0  0  0  0  0  0  0  0  0  0  0
   15.7163    4.2919   14.2219 C   0  0  0  0  0  0  0  0  0  0  0  0
   17.5658    7.2172   13.1012 O   0  0  0  0  0  0  0  0  0  0  0  0
   18.8590    3.3100   15.0640 H   0  0  0  0  0  0  0  0  0  0  0  0
   19.3827    5.5438   14.1557 H   0  0  0  0  0  0  0  0  0  0  0  0
   15.2133    6.1477   13.2528 H   0  0  0  0  0  0  0  0  0  0  0  0
   14.6845    3.9427   14.2633 H   0  0  0  0  0  0  0  0  0  0  0  0
   18.5199    7.3762   13.1617 H   0  0  0  0  0  0  0  0  0  0  0  0
  1  2  2  0  0  0  0
  1  3  1  0  0  0  0
  1  4  1  0  0  0  0
  4  5  2  0  0  0  0
  4  9  1  0  0  0  0
  5  6  1  0  0  0  0
  5 11  1  0  0  0  0
  6  7  2  0  0  0  0
  6 12  1  0  0  0  0
  7  8  1  0  0  0  0
  7 10  1  0  0  0  0
  8  9  2  0  0  0  0
  8 13  1  0  0  0  0
  9 14  1  0  0  0  0
 10 15  1  0  0  0  0
M  END
$$$$
