PHE
 OpenBabel04111922053D

 23 23  0  0  1  0  0  0  0  0999 V2000
  -22.7103   -3.4074  -17.1743 N   0  3  0  0  0  0  0  0  0  0  0  0
  -22.4535   -4.7491  -17.8485 C   0  0  2  0  0  0  0  0  0  0  0  0
  -23.2592   -5.8859  -17.1680 C   0  0  0  0  0  0  0  0  0  0  0  0
  -23.2758   -6.9923  -17.7468 O   0  0  0  0  0  0  0  0  0  0  0  0
  -20.9717   -5.1084  -17.7341 C   0  0  0  0  0  0  0  0  0  0  0  0
  -20.0796   -4.0295  -18.3081 C   0  0  0  0  0  0  0  0  0  0  0  0
  -19.8606   -3.9620  -19.6898 C   0  0  0  0  0  0  0  0  0  0  0  0
  -19.4990   -3.0625  -17.4738 C   0  0  0  0  0  0  0  0  0  0  0  0
  -19.0650   -2.9506  -20.2269 C   0  0  0  0  0  0  0  0  0  0  0  0
  -18.7164   -2.0436  -18.0161 C   0  0  0  0  0  0  0  0  0  0  0  0
  -18.4972   -1.9902  -19.3910 C   0  0  0  0  0  0  0  0  0  0  0  0
  -23.8200   -5.4627  -16.1077 O   0  0  0  0  0  0  0  0  0  0  0  0
  -22.1733   -2.6347  -17.5687 H   0  0  0  0  0  0  0  0  0  0  0  0
  -23.7233   -3.2447  -17.2051 H   0  0  0  0  0  0  0  0  0  0  0  0
  -22.7760   -4.6228  -18.8859 H   0  0  0  0  0  0  0  0  0  0  0  0
  -20.7679   -6.0494  -18.2605 H   0  0  0  0  0  0  0  0  0  0  0  0
  -20.6937   -5.2933  -16.6873 H   0  0  0  0  0  0  0  0  0  0  0  0
  -20.2961   -4.7053  -20.3563 H   0  0  0  0  0  0  0  0  0  0  0  0
  -19.6442   -3.0984  -16.3959 H   0  0  0  0  0  0  0  0  0  0  0  0
  -18.8787   -2.9178  -21.2977 H   0  0  0  0  0  0  0  0  0  0  0  0
  -18.2628   -1.2988  -17.3663 H   0  0  0  0  0  0  0  0  0  0  0  0
  -17.8718   -1.2068  -19.8121 H   0  0  0  0  0  0  0  0  0  0  0  0
  -22.5306   -3.5553  -16.1706 H   0  0  0  0  0  0  0  0  0  0  0  0
  1  2  1  0  0  0  0
  1 13  1  0  0  0  0
  1 14  1  0  0  0  0
  1 23  1  0  0  0  0
  2  3  1  0  0  0  0
  2  5  1  0  0  0  0
  2 15  1  6  0  0  0
  3  4  2  0  0  0  0
  3 12  1  0  0  0  0
  5  6  1  0  0  0  0
  5 16  1  0  0  0  0
  5 17  1  0  0  0  0
  6  7  2  0  0  0  0
  6  8  1  0  0  0  0
  7  9  1  0  0  0  0
  7 18  1  0  0  0  0
  8 10  2  0  0  0  0
  8 19  1  0  0  0  0
  9 11  2  0  0  0  0
  9 20  1  0  0  0  0
 10 11  1  0  0  0  0
 10 21  1  0  0  0  0
 11 22  1  0  0  0  0
M  CHG  1   1   1
M  END
$$$$
