PP1
 OpenBabel04111918533D

 40 42  0  0  0  0  0  0  0  0999 V2000
  -21.0393  -27.1201  -17.7377 N   0  3  0  0  0  0  0  0  0  0  0  0
  -21.8898  -25.1493  -20.5448 C   0  0  0  0  0  0  0  0  0  0  0  0
  -21.5337  -25.3220  -19.2789 N   0  0  0  0  0  0  0  0  0  0  0  0
  -21.3869  -26.6141  -18.9516 C   0  0  0  0  0  0  0  0  0  0  0  0
  -21.5600  -27.6819  -19.7827 C   0  0  0  0  0  0  0  0  0  0  0  0
  -21.9377  -27.3752  -21.0765 C   0  0  0  0  0  0  0  0  0  0  0  0
  -22.1000  -26.0855  -21.4575 N   0  0  0  0  0  0  0  0  0  0  0  0
  -20.9784  -28.4570  -17.7232 N   0  0  0  0  0  0  0  0  0  0  0  0
  -21.2855  -28.8243  -18.9757 C   0  0  0  0  0  0  0  0  0  0  0  0
  -22.1559  -28.2117  -22.0808 N   0  0  0  0  0  0  0  0  0  0  0  0
  -21.3450  -30.2308  -19.2973 C   0  0  0  0  0  0  0  0  0  0  0  0
  -21.5123  -30.7674  -20.5284 C   0  0  0  0  0  0  0  0  0  0  0  0
  -21.6403  -32.0773  -20.8768 C   0  0  0  0  0  0  0  0  0  0  0  0
  -21.5061  -32.9842  -19.8650 C   0  0  0  0  0  0  0  0  0  0  0  0
  -21.2918  -32.5264  -18.5705 C   0  0  0  0  0  0  0  0  0  0  0  0
  -21.2148  -31.1639  -18.2858 C   0  0  0  0  0  0  0  0  0  0  0  0
  -21.5706  -34.4444  -20.1590 C   0  0  0  0  0  0  0  0  0  0  0  0
  -20.7228  -26.3585  -16.5244 C   0  0  0  0  0  0  0  0  0  0  0  0
  -20.3370  -27.3219  -15.3918 C   0  0  0  0  0  0  0  0  0  0  0  0
  -19.5399  -25.4325  -16.8137 C   0  0  0  0  0  0  0  0  0  0  0  0
  -21.9464  -25.5394  -16.1044 C   0  0  0  0  0  0  0  0  0  0  0  0
  -22.0315  -24.1311  -20.8882 H   0  0  0  0  0  0  0  0  0  0  0  0
  -22.4378  -27.9066  -22.9915 H   0  0  0  0  0  0  0  0  0  0  0  0
  -22.2835  -29.1903  -22.0366 H   0  0  0  0  0  0  0  0  0  0  0  0
  -21.4231  -30.1424  -21.3918 H   0  0  0  0  0  0  0  0  0  0  0  0
  -21.7712  -32.3565  -21.9075 H   0  0  0  0  0  0  0  0  0  0  0  0
  -21.1913  -33.2177  -17.7479 H   0  0  0  0  0  0  0  0  0  0  0  0
  -21.0341  -30.8175  -17.2664 H   0  0  0  0  0  0  0  0  0  0  0  0
  -21.7297  -34.6060  -21.2187 H   0  0  0  0  0  0  0  0  0  0  0  0
  -22.4038  -34.8866  -19.6191 H   0  0  0  0  0  0  0  0  0  0  0  0
  -20.6349  -34.9243  -19.8799 H   0  0  0  0  0  0  0  0  0  0  0  0
  -20.0971  -26.7809  -14.4739 H   0  0  0  0  0  0  0  0  0  0  0  0
  -19.4607  -27.9151  -15.6884 H   0  0  0  0  0  0  0  0  0  0  0  0
  -21.1636  -28.0155  -15.1857 H   0  0  0  0  0  0  0  0  0  0  0  0
  -19.2882  -24.8237  -15.9397 H   0  0  0  0  0  0  0  0  0  0  0  0
  -19.7755  -24.7543  -17.6404 H   0  0  0  0  0  0  0  0  0  0  0  0
  -18.6591  -26.0194  -17.1002 H   0  0  0  0  0  0  0  0  0  0  0  0
  -21.7341  -24.9379  -15.2140 H   0  0  0  0  0  0  0  0  0  0  0  0
  -22.7955  -26.1992  -15.8886 H   0  0  0  0  0  0  0  0  0  0  0  0
  -22.2451  -24.8577  -16.9084 H   0  0  0  0  0  0  0  0  0  0  0  0
  1  4  2  0  0  0  0
  1  8  1  0  0  0  0
  1 18  1  0  0  0  0
  2  3  2  0  0  0  0
  2  7  1  0  0  0  0
  2 22  1  0  0  0  0
  3  4  1  0  0  0  0
  4  5  1  0  0  0  0
  5  6  1  0  0  0  0
  5  9  2  0  0  0  0
  6  7  2  0  0  0  0
  6 10  1  0  0  0  0
  8  9  1  0  0  0  0
  9 11  1  0  0  0  0
 10 23  1  0  0  0  0
 10 24  1  0  0  0  0
 11 12  2  0  0  0  0
 11 16  1  0  0  0  0
 12 13  1  0  0  0  0
 12 25  1  0  0  0  0
 13 14  2  0  0  0  0
 13 26  1  0  0  0  0
 14 15  1  0  0  0  0
 14 17  1  0  0  0  0
 15 16  2  0  0  0  0
 15 27  1  0  0  0  0
 16 28  1  0  0  0  0
 17 29  1  0  0  0  0
 17 30  1  0  0  0  0
 17 31  1  0  0  0  0
 18 19  1  0  0  0  0
 18 20  1  0  0  0  0
 18 21  1  0  0  0  0
 19 32  1  0  0  0  0
 19 33  1  0  0  0  0
 19 34  1  0  0  0  0
 20 35  1  0  0  0  0
 20 36  1  0  0  0  0
 20 37  1  0  0  0  0
 21 38  1  0  0  0  0
 21 39  1  0  0  0  0
 21 40  1  0  0  0  0
M  CHG  1   1   1
M  END
$$$$
