PPY
 OpenBabel04111919493D

 19 19  0  0  0  0  0  0  0  0999 V2000
    9.0623  101.9611  160.0006 C   0  0  0  0  0  0  0  0  0  0  0  0
    7.8274  101.9855  159.6950 O   0  0  0  0  0  0  0  0  0  0  0  0
    9.5865  102.4248  161.0656 O   0  0  0  0  0  0  0  0  0  0  0  0
   10.0469  101.3052  159.0153 C   0  0  0  0  0  0  0  0  0  0  0  0
    9.6151  100.9432  157.9221 O   0  0  0  0  0  0  0  0  0  0  0  0
   11.4685  101.2211  159.5077 C   0  0  0  0  0  0  0  0  0  0  0  0
   12.5177  100.4417  158.7437 C   0  0  0  0  0  0  0  0  0  0  0  0
   13.6752  100.0821  159.4618 C   0  0  0  0  0  0  0  0  0  0  0  0
   14.7219   99.3946  158.8519 C   0  0  0  0  0  0  0  0  0  0  0  0
   14.6346   99.0580  157.5073 C   0  0  0  0  0  0  0  0  0  0  0  0
   13.5060   99.4219  156.7726 C   0  0  0  0  0  0  0  0  0  0  0  0
   12.4576  100.1217  157.3851 C   0  0  0  0  0  0  0  0  0  0  0  0
   11.4048  100.7585  160.5014 H   0  0  0  0  0  0  0  0  0  0  0  0
   11.8377  102.2475  159.6214 H   0  0  0  0  0  0  0  0  0  0  0  0
   13.7561  100.3493  160.5141 H   0  0  0  0  0  0  0  0  0  0  0  0
   15.5992   99.1245  159.4332 H   0  0  0  0  0  0  0  0  0  0  0  0
   15.4450   98.5162  157.0279 H   0  0  0  0  0  0  0  0  0  0  0  0
   13.4352   99.1630  155.7204 H   0  0  0  0  0  0  0  0  0  0  0  0
   11.5986  100.4015  156.7804 H   0  0  0  0  0  0  0  0  0  0  0  0
  1  2  2  0  0  0  0
  1  3  1  0  0  0  0
  1  4  1  0  0  0  0
  4  5  2  0  0  0  0
  4  6  1  0  0  0  0
  6  7  1  0  0  0  0
  6 13  1  0  0  0  0
  6 14  1  0  0  0  0
  7  8  2  0  0  0  0
  7 12  1  0  0  0  0
  8  9  1  0  0  0  0
  8 15  1  0  0  0  0
  9 10  2  0  0  0  0
  9 16  1  0  0  0  0
 10 11  1  0  0  0  0
 10 17  1  0  0  0  0
 11 12  2  0  0  0  0
 11 18  1  0  0  0  0
 12 19  1  0  0  0  0
M  END
$$$$
