PV0
 OpenBabel04111920263D

 31 33  0  0  0  0  0  0  0  0999 V2000
   16.4566    1.8509  -37.5985 C   0  0  0  0  0  0  0  0  0  0  0  0
   16.3206    0.5561  -38.1864 C   0  0  0  0  0  0  0  0  0  0  0  0
   11.7102    2.4824  -38.9136 O   0  0  0  0  0  0  0  0  0  0  0  0
   11.5306    2.9958  -37.7547 C   0  0  0  0  0  0  0  0  0  0  0  0
   10.8292    4.2310  -37.5656 C   0  0  0  0  0  0  0  0  0  0  0  0
   10.6244    4.9312  -36.3366 C   0  0  0  0  0  0  0  0  0  0  0  0
   10.0013    6.0488  -36.2480 O   0  0  0  0  0  0  0  0  0  0  0  0
   11.1721    4.2987  -35.2218 C   0  0  0  0  0  0  0  0  0  0  0  0
   11.8396    3.0786  -35.3085 C   0  0  0  0  0  0  0  0  0  0  0  0
   11.9999    2.4392  -36.5511 C   0  0  0  0  0  0  0  0  0  0  0  0
   12.8717    0.8929  -36.5347 S   0  0  0  0  0  0  0  0  0  0  0  0
   14.3592    1.1719  -37.3641 N   0  3  0  0  0  0  0  0  0  0  0  0
   15.2434    2.1978  -37.0509 C   0  0  0  0  0  0  0  0  0  0  0  0
   15.0311    0.1363  -37.9966 C   0  0  0  0  0  0  0  0  0  0  0  0
   17.3457   -0.1674  -38.7932 C   0  0  0  0  0  0  0  0  0  0  0  0
   18.5540    0.5725  -38.7708 C   0  0  0  0  0  0  0  0  0  0  0  0
   18.7130    1.8748  -38.1928 C   0  0  0  0  0  0  0  0  0  0  0  0
   17.6583    2.5653  -37.5698 C   0  0  0  0  0  0  0  0  0  0  0  0
   17.8494    3.7901  -37.0051 O   0  0  0  0  0  0  0  0  0  0  0  0
   19.6884    0.0247  -39.3309 O   0  0  0  0  0  0  0  0  0  0  0  0
   13.3328    0.6172  -35.1720 O   0  0  0  0  0  0  0  0  0  0  0  0
   12.1934   -0.1650  -37.2589 O   0  0  0  0  0  0  0  0  0  0  0  0
   10.4096    4.6963  -38.4616 H   0  0  0  0  0  0  0  0  0  0  0  0
   11.0668    4.7760  -34.2488 H   0  0  0  0  0  0  0  0  0  0  0  0
   12.2408    2.6454  -34.3994 H   0  0  0  0  0  0  0  0  0  0  0  0
   14.9016    3.0525  -36.4801 H   0  0  0  0  0  0  0  0  0  0  0  0
   14.5035   -0.7793  -38.2259 H   0  0  0  0  0  0  0  0  0  0  0  0
   17.2318   -1.1526  -39.2157 H   0  0  0  0  0  0  0  0  0  0  0  0
   19.6915    2.3465  -38.2379 H   0  0  0  0  0  0  0  0  0  0  0  0
   16.9689    4.0820  -36.7000 H   0  0  0  0  0  0  0  0  0  0  0  0
   19.4440   -0.8371  -39.7042 H   0  0  0  0  0  0  0  0  0  0  0  0
  1  2  1  0  0  0  0
  1 13  2  0  0  0  0
  1 18  1  0  0  0  0
  2 14  2  0  0  0  0
  2 15  1  0  0  0  0
  3  4  1  0  0  0  0
  4  5  2  0  0  0  0
  4 10  1  0  0  0  0
  5  6  1  0  0  0  0
  5 23  1  0  0  0  0
  6  7  1  0  0  0  0
  6  8  2  0  0  0  0
  8  9  1  0  0  0  0
  8 24  1  0  0  0  0
  9 10  2  0  0  0  0
  9 25  1  0  0  0  0
 10 11  1  0  0  0  0
 11 12  1  0  0  0  0
 11 21  2  0  0  0  0
 11 22  2  0  0  0  0
 12 13  1  0  0  0  0
 12 14  1  0  0  0  0
 13 26  1  0  0  0  0
 14 27  1  0  0  0  0
 15 16  2  0  0  0  0
 15 28  1  0  0  0  0
 16 17  1  0  0  0  0
 16 20  1  0  0  0  0
 17 18  2  0  0  0  0
 17 29  1  0  0  0  0
 18 19  1  0  0  0  0
 19 30  1  0  0  0  0
 20 31  1  0  0  0  0
M  CHG  1  12   1
M  END
$$$$
