PYR
 OpenBabel04111917563D

  9  8  0  0  0  0  0  0  0  0999 V2000
  -48.6631  -31.3201  -18.1220 C   0  0  0  0  0  0  0  0  0  0  0  0
  -49.2485  -30.7870  -17.1240 O   0  0  0  0  0  0  0  0  0  0  0  0
  -49.1367  -31.4609  -19.2928 O   0  0  0  0  0  0  0  0  0  0  0  0
  -47.2512  -31.8411  -17.8426 C   0  0  0  0  0  0  0  0  0  0  0  0
  -46.5867  -32.2888  -18.7800 O   0  0  0  0  0  0  0  0  0  0  0  0
  -46.7333  -31.7911  -16.4351 C   0  0  0  0  0  0  0  0  0  0  0  0
  -45.7149  -32.1872  -16.4098 H   0  0  0  0  0  0  0  0  0  0  0  0
  -47.3627  -32.4049  -15.7874 H   0  0  0  0  0  0  0  0  0  0  0  0
  -46.7137  -30.7585  -16.0795 H   0  0  0  0  0  0  0  0  0  0  0  0
  1  2  2  0  0  0  0
  1  3  1  0  0  0  0
  1  4  1  0  0  0  0
  4  5  2  0  0  0  0
  4  6  1  0  0  0  0
  6  7  1  0  0  0  0
  6  8  1  0  0  0  0
  6  9  1  0  0  0  0
M  END
$$$$
