PYR
 OpenBabel04111917573D

 11 10  0  0  1  0  0  0  0  0999 V2000
   29.8118   45.7118   51.6796 C   0  0  0  0  0  0  0  0  0  0  0  0
   30.5108   45.8004   50.6211 O   0  0  0  0  0  0  0  0  0  0  0  0
   29.5515   44.6830   52.3787 O   0  0  0  0  0  0  0  0  0  0  0  0
   29.0807   47.0129   52.0867 C   0  0  2  0  0  0  0  0  0  0  0  0
   29.8006   48.2128   51.7551 O   0  0  0  0  0  0  0  0  0  0  0  0
   28.5566   47.1254   53.5192 C   0  0  0  0  0  0  0  0  0  0  0  0
   28.1951   47.0289   51.4370 H   0  0  0  0  0  0  0  0  0  0  0  0
   29.8342   48.1866   50.7754 H   0  0  0  0  0  0  0  0  0  0  0  0
   28.4203   48.1666   53.8226 H   0  0  0  0  0  0  0  0  0  0  0  0
   29.1860   46.6214   54.2535 H   0  0  0  0  0  0  0  0  0  0  0  0
   27.5836   46.6211   53.5427 H   0  0  0  0  0  0  0  0  0  0  0  0
  1  2  2  0  0  0  0
  1  3  1  0  0  0  0
  1  4  1  0  0  0  0
  4  5  1  0  0  0  0
  4  6  1  0  0  0  0
  4  7  1  6  0  0  0
  5  8  1  0  0  0  0
  6  9  1  0  0  0  0
  6 10  1  0  0  0  0
  6 11  1  0  0  0  0
M  END
$$$$
