Q07
 OpenBabel04111922003D

 26 25  0  0  1  0  0  0  0  0999 V2000
   22.3926   -2.3410   12.6289 O   0  0  0  0  0  0  0  0  0  0  0  0
   21.6471   -2.4746   11.3288 P   0  0  0  0  0  0  0  0  0  0  0  0
   20.3140   -3.1957   11.2927 O   0  0  0  0  0  0  0  0  0  0  0  0
   21.8683   -1.3107   10.3556 O   0  0  0  0  0  0  0  0  0  0  0  0
   22.8189   -3.7542   10.4044 C   0  0  1  0  0  0  0  0  0  0  0  0
   24.0508   -2.9973    9.8785 N   0  3  0  0  0  0  0  0  0  0  0  0
   23.3060   -4.9627   11.2337 C   0  0  1  0  0  0  0  0  0  0  0  0
   22.1998   -5.5591   12.1111 C   0  0  0  0  0  0  0  0  0  0  0  0
   23.9023   -6.0318   10.2919 C   0  0  0  0  0  0  0  0  0  0  0  0
   24.6634   -7.1346   11.0276 C   0  0  0  0  0  0  0  0  0  0  0  0
   24.1286   -8.4939   10.6310 C   0  0  0  0  0  0  0  0  0  0  0  0
   22.3041   -4.0990    9.5037 H   0  0  0  0  0  0  0  0  0  0  0  0
   24.6955   -3.5311    9.3587 H   0  0  0  0  0  0  0  0  0  0  0  0
   23.6378   -2.2179    9.3295 H   0  0  0  0  0  0  0  0  0  0  0  0
   24.1108   -4.6310   11.8938 H   0  0  0  0  0  0  0  0  0  0  0  0
   22.5590   -6.4299   12.6685 H   0  0  0  0  0  0  0  0  0  0  0  0
   21.3283   -5.8725   11.5284 H   0  0  0  0  0  0  0  0  0  0  0  0
   21.8682   -4.8303   12.8557 H   0  0  0  0  0  0  0  0  0  0  0  0
   24.6015   -5.5518    9.5969 H   0  0  0  0  0  0  0  0  0  0  0  0
   23.0962   -6.4659    9.6856 H   0  0  0  0  0  0  0  0  0  0  0  0
   24.5778   -7.0250   12.1117 H   0  0  0  0  0  0  0  0  0  0  0  0
   25.7304   -7.0937   10.7750 H   0  0  0  0  0  0  0  0  0  0  0  0
   24.6704   -9.2856   11.1552 H   0  0  0  0  0  0  0  0  0  0  0  0
   24.2396   -8.6424    9.5521 H   0  0  0  0  0  0  0  0  0  0  0  0
   23.0664   -8.5642   10.8888 H   0  0  0  0  0  0  0  0  0  0  0  0
   24.4477   -2.5239   10.7025 H   0  0  0  0  0  0  0  0  0  0  0  0
  1  2  2  0  0  0  0
  2  3  1  0  0  0  0
  2  4  1  0  0  0  0
  2  5  1  0  0  0  0
  5  6  1  0  0  0  0
  5  7  1  0  0  0  0
  5 12  1  6  0  0  0
  6 13  1  0  0  0  0
  6 14  1  0  0  0  0
  6 26  1  0  0  0  0
  7  8  1  0  0  0  0
  7  9  1  0  0  0  0
  7 15  1  1  0  0  0
  8 16  1  0  0  0  0
  8 17  1  0  0  0  0
  8 18  1  0  0  0  0
  9 10  1  0  0  0  0
  9 19  1  0  0  0  0
  9 20  1  0  0  0  0
 10 11  1  0  0  0  0
 10 21  1  0  0  0  0
 10 22  1  0  0  0  0
 11 23  1  0  0  0  0
 11 24  1  0  0  0  0
 11 25  1  0  0  0  0
M  CHG  1   6   1
M  END
$$$$
