Q08
 OpenBabel04111921583D

 32 31  0  0  1  0  0  0  0  0999 V2000
   21.8996   -2.3311   12.1686 O   0  0  0  0  0  0  0  0  0  0  0  0
   21.1165   -2.4709   10.8760 P   0  0  0  0  0  0  0  0  0  0  0  0
   19.7875   -3.1512   10.8499 O   0  0  0  0  0  0  0  0  0  0  0  0
   21.3646   -1.2797    9.8965 O   0  0  0  0  0  0  0  0  0  0  0  0
   22.2771   -3.7621    9.8760 C   0  0  1  0  0  0  0  0  0  0  0  0
   23.5613   -3.0550    9.5018 N   0  3  0  0  0  0  0  0  0  0  0  0
   22.2896   -5.2093   10.5044 C   0  0  0  0  0  0  0  0  0  0  0  0
   23.4089   -6.1306    9.9437 C   0  0  0  0  0  0  0  0  0  0  0  0
   23.3318   -7.5416   10.5285 C   0  0  0  0  0  0  0  0  0  0  0  0
   23.7899   -8.6807    9.6735 C   0  0  0  0  0  0  0  0  0  0  0  0
   22.0954   -5.3252   12.0765 C   0  0  0  0  0  0  0  0  0  0  0  0
   21.6693   -6.7086   12.6700 C   0  0  0  0  0  0  0  0  0  0  0  0
   20.8312   -6.7485   13.9279 C   0  0  0  0  0  0  0  0  0  0  0  0
   21.7555   -3.8272    8.9150 H   0  0  0  0  0  0  0  0  0  0  0  0
   24.1887   -3.5422    8.8765 H   0  0  0  0  0  0  0  0  0  0  0  0
   23.1780   -2.1833    9.0639 H   0  0  0  0  0  0  0  0  0  0  0  0
   21.3503   -5.6298   10.1063 H   0  0  0  0  0  0  0  0  0  0  0  0
   24.3905   -5.7113   10.1773 H   0  0  0  0  0  0  0  0  0  0  0  0
   23.3140   -6.1988    8.8560 H   0  0  0  0  0  0  0  0  0  0  0  0
   22.2889   -7.7912   10.7116 H   0  0  0  0  0  0  0  0  0  0  0  0
   23.9076   -7.5598   11.4784 H   0  0  0  0  0  0  0  0  0  0  0  0
   23.6360   -9.6145   10.2349 H   0  0  0  0  0  0  0  0  0  0  0  0
   24.8243   -8.5813    9.4212 H   0  0  0  0  0  0  0  0  0  0  0  0
   23.1687   -8.7319    8.7822 H   0  0  0  0  0  0  0  0  0  0  0  0
   21.3155   -4.6349   12.3839 H   0  0  0  0  0  0  0  0  0  0  0  0
   23.0413   -5.0302   12.5429 H   0  0  0  0  0  0  0  0  0  0  0  0
   22.5721   -7.2770   12.9223 H   0  0  0  0  0  0  0  0  0  0  0  0
   21.0645   -7.2632   11.9471 H   0  0  0  0  0  0  0  0  0  0  0  0
   20.6495   -7.7944   14.2091 H   0  0  0  0  0  0  0  0  0  0  0  0
   19.8492   -6.2917   13.7551 H   0  0  0  0  0  0  0  0  0  0  0  0
   21.3296   -6.2596   14.7695 H   0  0  0  0  0  0  0  0  0  0  0  0
   23.9643   -2.6537   10.3528 H   0  0  0  0  0  0  0  0  0  0  0  0
  1  2  2  0  0  0  0
  2  3  1  0  0  0  0
  2  4  1  0  0  0  0
  2  5  1  0  0  0  0
  5  6  1  0  0  0  0
  5  7  1  0  0  0  0
  5 14  1  6  0  0  0
  6 15  1  0  0  0  0
  6 16  1  0  0  0  0
  6 32  1  0  0  0  0
  7  8  1  0  0  0  0
  7 11  1  0  0  0  0
  7 17  1  0  0  0  0
  8  9  1  0  0  0  0
  8 18  1  0  0  0  0
  8 19  1  0  0  0  0
  9 10  1  0  0  0  0
  9 20  1  0  0  0  0
  9 21  1  0  0  0  0
 10 22  1  0  0  0  0
 10 23  1  0  0  0  0
 10 24  1  0  0  0  0
 11 12  1  0  0  0  0
 11 25  1  0  0  0  0
 11 26  1  0  0  0  0
 12 13  1  0  0  0  0
 12 27  1  0  0  0  0
 12 28  1  0  0  0  0
 13 29  1  0  0  0  0
 13 30  1  0  0  0  0
 13 31  1  0  0  0  0
M  CHG  1   6   1
M  END
$$$$
