QCT
 OpenBabel04111919093D

 51 54  0  0  1  0  0  0  0  0999 V2000
   31.1215    6.3448    4.6514 O   0  0  0  0  0  0  0  0  0  0  0  0
   31.8517    6.2288    5.8894 C   0  0  1  0  0  0  0  0  0  0  0  0
   33.1489    5.4656    5.6124 C   0  0  1  0  0  0  0  0  0  0  0  0
   33.7155    5.9834    4.3950 O   0  0  0  0  0  0  0  0  0  0  0  0
   32.1288    7.6186    6.4881 C   0  0  1  0  0  0  0  0  0  0  0  0
   30.9025    8.2847    6.8030 O   0  0  0  0  0  0  0  0  0  0  0  0
   33.0050    7.4487    7.7330 C   0  0  2  0  0  0  0  0  0  0  0  0
   33.2836    8.7797    8.4228 C   0  0  0  0  0  0  0  0  0  0  0  0
   34.2463    6.8636    7.3617 O   0  0  0  0  0  0  0  0  0  0  0  0
   34.1379    5.5482    6.7967 C   0  0  1  0  0  0  0  0  0  0  0  0
   33.6794    4.5721    7.7360 O   0  0  0  0  0  0  0  0  0  0  0  0
   34.3728    4.4972    8.9280 C   0  0  0  0  0  0  0  0  0  0  0  0
   35.8567    4.3209    8.8922 C   0  0  0  0  0  0  0  0  0  0  0  0
   36.3933    4.1996    7.7954 O   0  0  0  0  0  0  0  0  0  0  0  0
   33.7275    4.4799   10.1112 C   0  0  0  0  0  0  0  0  0  0  0  0
   32.2461    4.5569   10.2830 C   0  0  0  0  0  0  0  0  0  0  0  0
   31.3448    4.2043    9.2659 C   0  0  0  0  0  0  0  0  0  0  0  0
   29.9746    4.2988    9.4537 C   0  0  0  0  0  0  0  0  0  0  0  0
   29.1631    3.9832    8.4035 O   0  0  0  0  0  0  0  0  0  0  0  0
   29.4629    4.7057   10.6789 C   0  0  0  0  0  0  0  0  0  0  0  0
   28.1173    4.7547   10.8809 O   0  0  0  0  0  0  0  0  0  0  0  0
   30.3158    5.0337   11.7169 C   0  0  0  0  0  0  0  0  0  0  0  0
   31.6995    4.9570   11.5207 C   0  0  0  0  0  0  0  0  0  0  0  0
   34.3789    4.4051   11.3235 O   0  3  0  0  0  0  0  0  0  0  0  0
   35.7386    4.2898   11.3511 C   0  0  0  0  0  0  0  0  0  0  0  0
   36.2697    4.2109   12.6335 C   0  0  0  0  0  0  0  0  0  0  0  0
   37.6313    4.0700   12.7683 C   0  0  0  0  0  0  0  0  0  0  0  0
   38.1524    3.9882   14.0254 O   0  0  0  0  0  0  0  0  0  0  0  0
   38.4537    4.0121   11.6452 C   0  0  0  0  0  0  0  0  0  0  0  0
   37.9773    4.0898   10.3190 C   0  0  0  0  0  0  0  0  0  0  0  0
   36.5494    4.2362   10.2093 C   0  0  0  0  0  0  0  0  0  0  0  0
   38.8148    4.0322    9.3611 O   0  0  0  0  0  0  0  0  0  0  0  0
   31.6375    6.9698    4.1070 H   0  0  0  0  0  0  0  0  0  0  0  0
   31.2115    5.6623    6.5730 H   0  0  0  0  0  0  0  0  0  0  0  0
   32.9044    4.4116    5.4175 H   0  0  0  0  0  0  0  0  0  0  0  0
   33.1469    5.6352    3.6840 H   0  0  0  0  0  0  0  0  0  0  0  0
   32.6490    8.2359    5.7466 H   0  0  0  0  0  0  0  0  0  0  0  0
   30.4372    7.7475    7.4678 H   0  0  0  0  0  0  0  0  0  0  0  0
   32.4952    6.8172    8.4670 H   0  0  0  0  0  0  0  0  0  0  0  0
   33.9026    8.6254    9.3145 H   0  0  0  0  0  0  0  0  0  0  0  0
   32.3553    9.2683    8.7381 H   0  0  0  0  0  0  0  0  0  0  0  0
   33.8338    9.4571    7.7649 H   0  0  0  0  0  0  0  0  0  0  0  0
   35.1183    5.2893    6.3923 H   0  0  0  0  0  0  0  0  0  0  0  0
   31.6846    3.8426    8.3027 H   0  0  0  0  0  0  0  0  0  0  0  0
   28.2621    4.2577    8.6422 H   0  0  0  0  0  0  0  0  0  0  0  0
   27.7875    3.8597   10.6787 H   0  0  0  0  0  0  0  0  0  0  0  0
   29.9202    5.3283   12.6826 H   0  0  0  0  0  0  0  0  0  0  0  0
   32.3497    5.2061   12.3586 H   0  0  0  0  0  0  0  0  0  0  0  0
   35.6321    4.2509   13.5058 H   0  0  0  0  0  0  0  0  0  0  0  0
   39.1135    3.8931   13.9033 H   0  0  0  0  0  0  0  0  0  0  0  0
   39.5315    3.9006   11.7653 H   0  0  0  0  0  0  0  0  0  0  0  0
  1  2  1  0  0  0  0
  1 33  1  0  0  0  0
  2  3  1  0  0  0  0
  2  5  1  0  0  0  0
  2 34  1  1  0  0  0
  3  4  1  0  0  0  0
  3 10  1  0  0  0  0
  3 35  1  6  0  0  0
  4 36  1  0  0  0  0
  5  6  1  0  0  0  0
  5  7  1  0  0  0  0
  5 37  1  6  0  0  0
  6 38  1  0  0  0  0
  7  8  1  0  0  0  0
  7  9  1  0  0  0  0
  7 39  1  1  0  0  0
  8 40  1  0  0  0  0
  8 41  1  0  0  0  0
  8 42  1  0  0  0  0
  9 10  1  0  0  0  0
 10 11  1  0  0  0  0
 10 43  1  6  0  0  0
 11 12  1  0  0  0  0
 12 13  1  0  0  0  0
 12 15  2  0  0  0  0
 13 14  2  0  0  0  0
 13 31  1  0  0  0  0
 15 16  1  0  0  0  0
 15 24  1  0  0  0  0
 16 17  2  0  0  0  0
 16 23  1  0  0  0  0
 17 18  1  0  0  0  0
 17 44  1  0  0  0  0
 18 19  1  0  0  0  0
 18 20  2  0  0  0  0
 19 45  1  0  0  0  0
 20 21  1  0  0  0  0
 20 22  1  0  0  0  0
 21 46  1  0  0  0  0
 22 23  2  0  0  0  0
 22 47  1  0  0  0  0
 23 48  1  0  0  0  0
 24 25  1  0  0  0  0
 25 26  2  0  0  0  0
 25 31  1  0  0  0  0
 26 27  1  0  0  0  0
 26 49  1  0  0  0  0
 27 28  1  0  0  0  0
 27 29  2  0  0  0  0
 28 50  1  0  0  0  0
 29 30  1  0  0  0  0
 29 51  1  0  0  0  0
 30 31  2  0  0  0  0
 30 32  1  0  0  0  0
M  CHG  1  24   1
M  END
$$$$
