QD0
 OpenBabel04111918093D

 36 37  0  0  1  0  0  0  0  0999 V2000
   -9.7586   36.9176   -4.9645 C   0  0  0  0  0  0  0  0  0  0  0  0
   -9.2065   35.6943   -4.3231 C   0  0  0  0  0  0  0  0  0  0  0  0
   -9.8603   34.5269   -4.3297 N   0  0  0  0  0  0  0  0  0  0  0  0
   -9.0647   33.6424   -3.6054 O   0  0  0  0  0  0  0  0  0  0  0  0
   -7.9458   34.2969   -3.1755 C   0  0  0  0  0  0  0  0  0  0  0  0
   -6.9625   33.5581   -2.3512 C   0  0  0  0  0  0  0  0  0  0  0  0
   -7.0627   34.0463   -0.9051 C   0  0  0  0  0  0  0  0  0  0  0  0
   -7.4156   33.1571    0.0900 N   0  0  0  0  0  0  0  0  0  0  0  0
   -7.6295   33.6268    1.4671 C   0  0  2  0  0  0  0  0  0  0  0  0
   -6.3840   34.2609    2.1025 C   0  0  0  0  0  0  0  0  0  0  0  0
   -6.6583   35.2272    3.0617 N   0  0  0  0  0  0  0  0  0  0  0  0
   -5.5922   35.9691    3.6822 C   0  0  0  0  0  0  0  0  0  0  0  0
   -5.2354   33.8761    1.8634 O   0  0  0  0  0  0  0  0  0  0  0  0
   -7.9868   32.3655    2.2679 C   0  0  0  0  0  0  0  0  0  0  0  0
   -8.5941   31.4403    1.2272 C   0  0  2  0  0  0  0  0  0  0  0  0
   -7.8421   31.7759   -0.0659 C   0  0  0  0  0  0  0  0  0  0  0  0
   -6.8238   35.2296   -0.6370 O   0  0  0  0  0  0  0  0  0  0  0  0
   -7.9886   35.5899   -3.6314 C   0  0  0  0  0  0  0  0  0  0  0  0
   -9.9811   31.7579    1.1193 O   0  0  0  0  0  0  0  0  0  0  0  0
   -9.0670   37.7558   -4.8418 H   0  0  0  0  0  0  0  0  0  0  0  0
  -10.7110   37.2092   -4.5064 H   0  0  0  0  0  0  0  0  0  0  0  0
   -9.9147   36.7709   -6.0380 H   0  0  0  0  0  0  0  0  0  0  0  0
   -5.9494   33.8153   -2.7049 H   0  0  0  0  0  0  0  0  0  0  0  0
   -7.0474   32.4746   -2.4531 H   0  0  0  0  0  0  0  0  0  0  0  0
   -8.4661   34.3355    1.4560 H   0  0  0  0  0  0  0  0  0  0  0  0
   -7.6095   35.5423    3.1884 H   0  0  0  0  0  0  0  0  0  0  0  0
   -6.0247   36.7285    4.3368 H   0  0  0  0  0  0  0  0  0  0  0  0
   -4.9762   36.4471    2.9151 H   0  0  0  0  0  0  0  0  0  0  0  0
   -4.9725   35.2823    4.2668 H   0  0  0  0  0  0  0  0  0  0  0  0
   -8.6782   32.5990    3.0850 H   0  0  0  0  0  0  0  0  0  0  0  0
   -7.0922   31.9040    2.7050 H   0  0  0  0  0  0  0  0  0  0  0  0
   -8.5076   30.3845    1.5018 H   0  0  0  0  0  0  0  0  0  0  0  0
   -6.9373   31.1690   -0.1689 H   0  0  0  0  0  0  0  0  0  0  0  0
   -8.4728   31.6655   -0.9519 H   0  0  0  0  0  0  0  0  0  0  0  0
   -7.2540   36.3573   -3.4483 H   0  0  0  0  0  0  0  0  0  0  0  0
  -10.3539   31.2344    0.3889 H   0  0  0  0  0  0  0  0  0  0  0  0
  1  2  1  0  0  0  0
  1 20  1  0  0  0  0
  1 21  1  0  0  0  0
  1 22  1  0  0  0  0
  2  3  2  0  0  0  0
  2 18  1  0  0  0  0
  3  4  1  0  0  0  0
  4  5  1  0  0  0  0
  5  6  1  0  0  0  0
  5 18  2  0  0  0  0
  6  7  1  0  0  0  0
  6 23  1  0  0  0  0
  6 24  1  0  0  0  0
  7  8  1  0  0  0  0
  7 17  2  0  0  0  0
  8  9  1  0  0  0  0
  8 16  1  0  0  0  0
  9 10  1  0  0  0  0
  9 14  1  0  0  0  0
  9 25  1  1  0  0  0
 10 11  1  0  0  0  0
 10 13  2  0  0  0  0
 11 12  1  0  0  0  0
 11 26  1  0  0  0  0
 12 27  1  0  0  0  0
 12 28  1  0  0  0  0
 12 29  1  0  0  0  0
 14 15  1  0  0  0  0
 14 30  1  0  0  0  0
 14 31  1  0  0  0  0
 15 16  1  0  0  0  0
 15 19  1  0  0  0  0
 15 32  1  1  0  0  0
 16 33  1  0  0  0  0
 16 34  1  0  0  0  0
 18 35  1  0  0  0  0
 19 36  1  0  0  0  0
M  END
$$$$
