QG8
 OpenBabel04111917373D

106111  0  0  1  0  0  0  0  0999 V2000
   10.5890   24.1627    6.1667 C   0  0  0  0  0  0  0  0  0  0  0  0
   10.2956   23.1970    6.8212 O   0  0  0  0  0  0  0  0  0  0  0  0
   11.8669   24.2806    5.2783 C   0  0  1  0  0  0  0  0  0  0  0  0
   11.8862   25.8058    4.9986 C   0  0  1  0  0  0  0  0  0  0  0  0
   10.4536   26.2823    5.1981 C   0  0  0  0  0  0  0  0  0  0  0  0
    9.8445   25.3443    6.0934 N   0  0  0  0  0  0  0  0  0  0  0  0
    8.5698   25.5988    6.8144 C   0  0  1  0  0  0  0  0  0  0  0  0
    8.4789   26.8859    7.6612 C   0  0  0  0  0  0  0  0  0  0  0  0
    7.1585   27.4063    7.6346 C   0  0  0  0  0  0  0  0  0  0  0  0
    6.2498   26.5534    6.7655 C   0  0  0  0  0  0  0  0  0  0  0  0
    7.2563   25.7106    5.9395 C   0  0  1  0  0  0  0  0  0  0  0  0
    7.4227   26.4135    4.6900 O   0  0  0  0  0  0  0  0  0  0  0  0
    6.8146   28.5657    8.3476 C   0  0  0  0  0  0  0  0  0  0  0  0
    7.8130   29.2296    9.1059 C   0  0  0  0  0  0  0  0  0  0  0  0
    9.1357   28.7123    9.1445 C   0  0  0  0  0  0  0  0  0  0  0  0
    9.4689   27.5235    8.4279 C   0  0  0  0  0  0  0  0  0  0  0  0
   12.6266   26.6209    5.9193 O   0  0  0  0  0  0  0  0  0  0  0  0
   14.4766   23.9999    5.5481 C   0  0  0  0  0  0  0  0  0  0  0  0
   15.6395   23.8466    6.5420 C   0  0  0  0  0  0  0  0  0  0  0  0
   13.0793   23.7896    6.1479 C   0  0  0  0  0  0  0  0  0  0  0  0
   11.7319   23.3923    3.9619 C   0  0  0  0  0  0  0  0  0  0  0  0
   10.6431   23.7211    2.9090 C   0  0  0  0  0  0  0  0  0  0  0  0
   10.9148   24.5788    1.8075 C   0  0  0  0  0  0  0  0  0  0  0  0
    9.9020   24.8974    0.8701 C   0  0  0  0  0  0  0  0  0  0  0  0
    8.6112   24.3529    1.0129 C   0  0  0  0  0  0  0  0  0  0  0  0
    8.3338   23.4868    2.0875 C   0  0  0  0  0  0  0  0  0  0  0  0
    9.3439   23.1668    3.0280 C   0  0  0  0  0  0  0  0  0  0  0  0
   17.7393   17.3306   10.9001 C   0  0  0  0  0  0  0  0  0  0  0  0
   17.4381   18.6648   10.2304 C   0  0  0  0  0  0  0  0  0  0  0  0
   18.5003   19.4898    9.7626 C   0  0  0  0  0  0  0  0  0  0  0  0
   18.2482   20.7405    9.1415 C   0  0  0  0  0  0  0  0  0  0  0  0
   16.9230   21.2071    8.9686 C   0  0  0  0  0  0  0  0  0  0  0  0
   15.8459   20.4060    9.4307 C   0  0  0  0  0  0  0  0  0  0  0  0
   16.1039   19.1447   10.0533 C   0  0  0  0  0  0  0  0  0  0  0  0
   16.7025   22.5642    8.2857 C   0  0  0  0  0  0  0  0  0  0  0  0
   15.7650   22.5085    7.1373 N   0  0  0  0  0  0  0  0  0  0  0  0
   16.2796   21.6291    6.1593 N   0  0  0  0  0  0  0  0  0  0  0  0
   15.5066   20.5984    5.6307 C   0  0  0  0  0  0  0  0  0  0  0  0
   16.3598   19.7613    4.6037 C   0  0  1  0  0  0  0  0  0  0  0  0
   17.1639   18.8979    5.4580 N   0  0  0  0  0  0  0  0  0  0  0  0
   18.5169   19.0296    5.6696 C   0  0  0  0  0  0  0  0  0  0  0  0
   18.8780   18.0232    6.5175 O   0  0  0  0  0  0  0  0  0  0  0  0
   20.2561   17.9038    6.8998 C   0  0  0  0  0  0  0  0  0  0  0  0
   19.2283   19.8699    5.1780 O   0  0  0  0  0  0  0  0  0  0  0  0
   15.5892   18.9108    3.5441 C   0  0  0  0  0  0  0  0  0  0  0  0
   14.7446   19.8203    2.6411 C   0  0  0  0  0  0  0  0  0  0  0  0
   16.6051   18.1948    2.6220 C   0  0  0  0  0  0  0  0  0  0  0  0
   14.6940   17.8109    4.1473 C   0  0  0  0  0  0  0  0  0  0  0  0
   14.3887   20.3491    5.9560 O   0  0  0  0  0  0  0  0  0  0  0  0
   17.8442   17.2220   12.3205 C   0  0  0  0  0  0  0  0  0  0  0  0
   18.1304   15.9804   12.9519 C   0  0  0  0  0  0  0  0  0  0  0  0
   18.3225   14.8198   12.1714 C   0  0  0  0  0  0  0  0  0  0  0  0
   18.2325   14.8976   10.7649 C   0  0  0  0  0  0  0  0  0  0  0  0
   17.9463   16.1423   10.1360 C   0  0  0  0  0  0  0  0  0  0  0  0
   12.2517   26.0255    3.9894 H   0  0  0  0  0  0  0  0  0  0  0  0
    9.9292   26.2811    4.2496 H   0  0  0  0  0  0  0  0  0  0  0  0
   10.4402   27.2698    5.6609 H   0  0  0  0  0  0  0  0  0  0  0  0
    8.4163   24.7426    7.4884 H   0  0  0  0  0  0  0  0  0  0  0  0
    5.6284   27.1771    6.1066 H   0  0  0  0  0  0  0  0  0  0  0  0
    5.6041   25.9048    7.3706 H   0  0  0  0  0  0  0  0  0  0  0  0
    6.8584   24.7120    5.7034 H   0  0  0  0  0  0  0  0  0  0  0  0
    7.7506   27.3036    4.9017 H   0  0  0  0  0  0  0  0  0  0  0  0
    5.7899   28.9687    8.3126 H   0  0  0  0  0  0  0  0  0  0  0  0
    7.5634   30.1418    9.6679 H   0  0  0  0  0  0  0  0  0  0  0  0
    9.9080   29.2322    9.7323 H   0  0  0  0  0  0  0  0  0  0  0  0
   10.4919   27.1310    8.4680 H   0  0  0  0  0  0  0  0  0  0  0  0
   13.5694   26.4317    5.8430 H   0  0  0  0  0  0  0  0  0  0  0  0
   14.6359   23.2927    4.7297 H   0  0  0  0  0  0  0  0  0  0  0  0
   14.5525   25.0077    5.1348 H   0  0  0  0  0  0  0  0  0  0  0  0
   15.4974   24.5834    7.3397 H   0  0  0  0  0  0  0  0  0  0  0  0
   16.5726   24.0904    6.0079 H   0  0  0  0  0  0  0  0  0  0  0  0
   12.9545   22.7136    6.3373 H   0  0  0  0  0  0  0  0  0  0  0  0
   13.0395   24.2975    7.1236 H   0  0  0  0  0  0  0  0  0  0  0  0
   11.5834   22.3352    4.2626 H   0  0  0  0  0  0  0  0  0  0  0  0
   12.7044   23.4030    3.4285 H   0  0  0  0  0  0  0  0  0  0  0  0
   11.9109   25.0130    1.6747 H   0  0  0  0  0  0  0  0  0  0  0  0
   10.1152   25.5714    0.0278 H   0  0  0  0  0  0  0  0  0  0  0  0
    7.8225   24.5996    0.2919 H   0  0  0  0  0  0  0  0  0  0  0  0
    7.3273   23.0625    2.1976 H   0  0  0  0  0  0  0  0  0  0  0  0
    9.1029   22.4887    3.8559 H   0  0  0  0  0  0  0  0  0  0  0  0
   19.5391   19.1593    9.8804 H   0  0  0  0  0  0  0  0  0  0  0  0
   19.0925   21.3495    8.7870 H   0  0  0  0  0  0  0  0  0  0  0  0
   14.8064   20.7528    9.2956 H   0  0  0  0  0  0  0  0  0  0  0  0
   15.2544   18.5376   10.3990 H   0  0  0  0  0  0  0  0  0  0  0  0
   17.6749   22.9568    7.9293 H   0  0  0  0  0  0  0  0  0  0  0  0
   16.3203   23.2837    9.0260 H   0  0  0  0  0  0  0  0  0  0  0  0
   17.2325   21.7383    5.8462 H   0  0  0  0  0  0  0  0  0  0  0  0
   17.0066   20.4785    4.0731 H   0  0  0  0  0  0  0  0  0  0  0  0
   16.6835   18.1724    5.9548 H   0  0  0  0  0  0  0  0  0  0  0  0
   20.3489   17.0440    7.5854 H   0  0  0  0  0  0  0  0  0  0  0  0
   20.5897   18.8010    7.4256 H   0  0  0  0  0  0  0  0  0  0  0  0
   20.8810   17.7151    6.0243 H   0  0  0  0  0  0  0  0  0  0  0  0
   14.2046   19.2320    1.8854 H   0  0  0  0  0  0  0  0  0  0  0  0
   15.3871   20.5360    2.1126 H   0  0  0  0  0  0  0  0  0  0  0  0
   14.0107   20.3800    3.2273 H   0  0  0  0  0  0  0  0  0  0  0  0
   17.2442   17.5100    3.1931 H   0  0  0  0  0  0  0  0  0  0  0  0
   17.2471   18.9254    2.1158 H   0  0  0  0  0  0  0  0  0  0  0  0
   16.0876   17.6056    1.8508 H   0  0  0  0  0  0  0  0  0  0  0  0
   13.9380   18.2347    4.8130 H   0  0  0  0  0  0  0  0  0  0  0  0
   15.2871   17.0825    4.7162 H   0  0  0  0  0  0  0  0  0  0  0  0
   14.1683   17.2539    3.3561 H   0  0  0  0  0  0  0  0  0  0  0  0
   17.6989   18.1147   12.9434 H   0  0  0  0  0  0  0  0  0  0  0  0
   18.2003   15.9241   14.0492 H   0  0  0  0  0  0  0  0  0  0  0  0
   18.5412   13.8584   12.6584 H   0  0  0  0  0  0  0  0  0  0  0  0
   18.3825   13.9943   10.1548 H   0  0  0  0  0  0  0  0  0  0  0  0
   17.8784   16.1803    9.0400 H   0  0  0  0  0  0  0  0  0  0  0  0
  1  2  2  0  0  0  0
  1  3  1  0  0  0  0
  1  6  1  0  0  0  0
  3  4  1  0  0  0  0
  3 20  1  1  0  0  0
  3 21  1  0  0  0  0
  4  5  1  0  0  0  0
  4 17  1  0  0  0  0
  4 55  1  6  0  0  0
  5  6  1  0  0  0  0
  5 56  1  0  0  0  0
  5 57  1  0  0  0  0
  6  7  1  0  0  0  0
  7  8  1  0  0  0  0
  7 11  1  0  0  0  0
  7 58  1  1  0  0  0
  8  9  2  0  0  0  0
  8 16  1  0  0  0  0
  9 10  1  0  0  0  0
  9 13  1  0  0  0  0
 10 11  1  0  0  0  0
 10 59  1  0  0  0  0
 10 60  1  0  0  0  0
 11 12  1  0  0  0  0
 11 61  1  6  0  0  0
 12 62  1  0  0  0  0
 13 14  2  0  0  0  0
 13 63  1  0  0  0  0
 14 15  1  0  0  0  0
 14 64  1  0  0  0  0
 15 16  2  0  0  0  0
 15 65  1  0  0  0  0
 16 66  1  0  0  0  0
 17 67  1  0  0  0  0
 18 19  1  0  0  0  0
 18 20  1  0  0  0  0
 18 68  1  0  0  0  0
 18 69  1  0  0  0  0
 19 36  1  0  0  0  0
 19 70  1  0  0  0  0
 19 71  1  0  0  0  0
 20 72  1  0  0  0  0
 20 73  1  0  0  0  0
 21 22  1  0  0  0  0
 21 74  1  0  0  0  0
 21 75  1  0  0  0  0
 22 23  2  0  0  0  0
 22 27  1  0  0  0  0
 23 24  1  0  0  0  0
 23 76  1  0  0  0  0
 24 25  2  0  0  0  0
 24 77  1  0  0  0  0
 25 26  1  0  0  0  0
 25 78  1  0  0  0  0
 26 27  2  0  0  0  0
 26 79  1  0  0  0  0
 27 80  1  0  0  0  0
 28 29  1  0  0  0  0
 28 50  2  0  0  0  0
 28 54  1  0  0  0  0
 29 30  2  0  0  0  0
 29 34  1  0  0  0  0
 30 31  1  0  0  0  0
 30 81  1  0  0  0  0
 31 32  2  0  0  0  0
 31 82  1  0  0  0  0
 32 33  1  0  0  0  0
 32 35  1  0  0  0  0
 33 34  2  0  0  0  0
 33 83  1  0  0  0  0
 34 84  1  0  0  0  0
 35 36  1  0  0  0  0
 35 85  1  0  0  0  0
 35 86  1  0  0  0  0
 36 37  1  0  0  0  0
 37 38  1  0  0  0  0
 37 87  1  0  0  0  0
 38 39  1  0  0  0  0
 38 49  2  0  0  0  0
 39 40  1  0  0  0  0
 39 45  1  0  0  0  0
 39 88  1  6  0  0  0
 40 41  1  0  0  0  0
 40 89  1  0  0  0  0
 41 42  1  0  0  0  0
 41 44  2  0  0  0  0
 42 43  1  0  0  0  0
 43 90  1  0  0  0  0
 43 91  1  0  0  0  0
 43 92  1  0  0  0  0
 45 46  1  0  0  0  0
 45 47  1  0  0  0  0
 45 48  1  0  0  0  0
 46 93  1  0  0  0  0
 46 94  1  0  0  0  0
 46 95  1  0  0  0  0
 47 96  1  0  0  0  0
 47 97  1  0  0  0  0
 47 98  1  0  0  0  0
 48 99  1  0  0  0  0
 48100  1  0  0  0  0
 48101  1  0  0  0  0
 50 51  1  0  0  0  0
 50102  1  0  0  0  0
 51 52  2  0  0  0  0
 51103  1  0  0  0  0
 52 53  1  0  0  0  0
 52104  1  0  0  0  0
 53 54  2  0  0  0  0
 53105  1  0  0  0  0
 54106  1  0  0  0  0
M  END
$$$$
