QG9
 OpenBabel04111917373D

105110  0  0  1  0  0  0  0  0999 V2000
   10.7380   24.3198    6.1083 C   0  0  0  0  0  0  0  0  0  0  0  0
   10.5073   23.3956    6.8159 O   0  0  0  0  0  0  0  0  0  0  0  0
   11.9534   26.0039    4.8960 C   0  0  1  0  0  0  0  0  0  0  0  0
   10.4836   26.3745    5.0009 C   0  0  0  0  0  0  0  0  0  0  0  0
    9.9151   25.4377    5.9197 N   0  0  0  0  0  0  0  0  0  0  0  0
    8.6126   25.6338    6.5758 C   0  0  1  0  0  0  0  0  0  0  0  0
    8.4447   26.9097    7.4167 C   0  0  0  0  0  0  0  0  0  0  0  0
    7.0934   27.3375    7.3672 C   0  0  0  0  0  0  0  0  0  0  0  0
    6.2618   26.4105    6.4965 C   0  0  0  0  0  0  0  0  0  0  0  0
    7.3417   25.7050    5.6409 C   0  0  1  0  0  0  0  0  0  0  0  0
    7.5235   26.5157    4.4584 O   0  0  0  0  0  0  0  0  0  0  0  0
    6.6715   28.4748    8.0662 C   0  0  0  0  0  0  0  0  0  0  0  0
    7.6175   29.2100    8.8211 C   0  0  0  0  0  0  0  0  0  0  0  0
    8.9718   28.7839    8.8829 C   0  0  0  0  0  0  0  0  0  0  0  0
    9.3874   27.6144    8.1824 C   0  0  0  0  0  0  0  0  0  0  0  0
   12.5759   26.9033    5.8273 O   0  0  0  0  0  0  0  0  0  0  0  0
   14.6155   24.3932    5.6261 C   0  0  0  0  0  0  0  0  0  0  0  0
   15.7466   24.1450    6.6235 C   0  0  0  0  0  0  0  0  0  0  0  0
   12.0336   23.5476    3.9722 C   0  0  0  0  0  0  0  0  0  0  0  0
   10.8072   23.6035    2.9965 C   0  0  0  0  0  0  0  0  0  0  0  0
   10.4896   24.5700    1.9772 C   0  0  0  0  0  0  0  0  0  0  0  0
    9.2744   24.4663    1.2248 C   0  0  0  0  0  0  0  0  0  0  0  0
    8.3828   23.3988    1.4770 C   0  0  0  0  0  0  0  0  0  0  0  0
    8.6956   22.4466    2.4655 C   0  0  0  0  0  0  0  0  0  0  0  0
    9.8884   22.5496    3.2074 C   0  0  0  0  0  0  0  0  0  0  0  0
   17.1877   17.5710   10.9997 C   0  0  0  0  0  0  0  0  0  0  0  0
   17.0690   18.9267   10.3079 C   0  0  0  0  0  0  0  0  0  0  0  0
   18.2340   19.6383    9.8550 C   0  0  0  0  0  0  0  0  0  0  0  0
   18.1582   20.8902    9.2116 C   0  0  0  0  0  0  0  0  0  0  0  0
   16.8814   21.4709    8.9977 C   0  0  0  0  0  0  0  0  0  0  0  0
   15.7167   20.8090    9.4423 C   0  0  0  0  0  0  0  0  0  0  0  0
   15.8156   19.5552   10.0786 C   0  0  0  0  0  0  0  0  0  0  0  0
   16.7151   22.8014    8.3280 C   0  0  0  0  0  0  0  0  0  0  0  0
   15.7902   22.7872    7.1707 N   0  0  0  0  0  0  0  0  0  0  0  0
   16.2598   21.9018    6.1849 N   0  0  0  0  0  0  0  0  0  0  0  0
   15.4660   20.8655    5.6987 C   0  0  0  0  0  0  0  0  0  0  0  0
   16.3090   20.0115    4.6903 C   0  0  1  0  0  0  0  0  0  0  0  0
   17.0962   19.1413    5.5653 N   0  0  0  0  0  0  0  0  0  0  0  0
   18.4529   19.2780    5.7674 C   0  0  0  0  0  0  0  0  0  0  0  0
   18.8572   18.3311    6.6635 O   0  0  0  0  0  0  0  0  0  0  0  0
   20.2561   18.2801    6.9975 C   0  0  0  0  0  0  0  0  0  0  0  0
   19.1612   20.0976    5.2199 O   0  0  0  0  0  0  0  0  0  0  0  0
   15.5386   19.2262    3.5794 C   0  0  0  0  0  0  0  0  0  0  0  0
   14.5845   18.1569    4.1231 C   0  0  0  0  0  0  0  0  0  0  0  0
   14.7485   20.1905    2.6762 C   0  0  0  0  0  0  0  0  0  0  0  0
   16.5527   18.5023    2.6655 C   0  0  0  0  0  0  0  0  0  0  0  0
   14.3569   20.6119    6.0626 O   0  0  0  0  0  0  0  0  0  0  0  0
   18.4736   17.0076   11.1974 C   0  0  0  0  0  0  0  0  0  0  0  0
   18.6230   15.7756   11.8265 C   0  0  0  0  0  0  0  0  0  0  0  0
   17.5593   15.0482   12.2835 N   0  0  0  0  0  0  0  0  0  0  0  0
   16.3009   15.5593   12.1115 C   0  0  0  0  0  0  0  0  0  0  0  0
   12.0364   24.5004    5.2477 C   0  0  2  0  0  0  0  0  0  0  0  0
   16.0754   16.8016   11.4812 C   0  0  0  0  0  0  0  0  0  0  0  0
   13.2181   24.2042    6.2156 C   0  0  0  0  0  0  0  0  0  0  0  0
   12.3646   26.2069    3.9011 H   0  0  0  0  0  0  0  0  0  0  0  0
   10.0115   26.2773    4.0322 H   0  0  0  0  0  0  0  0  0  0  0  0
   10.3736   27.3831    5.3995 H   0  0  0  0  0  0  0  0  0  0  0  0
    8.4576   24.7739    7.2438 H   0  0  0  0  0  0  0  0  0  0  0  0
    5.5607   26.9717    5.8656 H   0  0  0  0  0  0  0  0  0  0  0  0
    5.7118   25.6786    7.1005 H   0  0  0  0  0  0  0  0  0  0  0  0
    7.0324   24.7000    5.3124 H   0  0  0  0  0  0  0  0  0  0  0  0
    6.6643   26.5878    4.0073 H   0  0  0  0  0  0  0  0  0  0  0  0
    5.6244   28.8115    8.0049 H   0  0  0  0  0  0  0  0  0  0  0  0
    7.3031   30.1085    9.3691 H   0  0  0  0  0  0  0  0  0  0  0  0
    9.6993   29.3585    9.4749 H   0  0  0  0  0  0  0  0  0  0  0  0
   10.4341   27.2909    8.2312 H   0  0  0  0  0  0  0  0  0  0  0  0
   13.5335   26.7748    5.8172 H   0  0  0  0  0  0  0  0  0  0  0  0
   14.7561   23.7198    4.7786 H   0  0  0  0  0  0  0  0  0  0  0  0
   14.7377   25.4190    5.2672 H   0  0  0  0  0  0  0  0  0  0  0  0
   15.6261   24.8526    7.4523 H   0  0  0  0  0  0  0  0  0  0  0  0
   16.7025   24.3555    6.1187 H   0  0  0  0  0  0  0  0  0  0  0  0
   12.9794   23.6704    3.4042 H   0  0  0  0  0  0  0  0  0  0  0  0
   12.1004   22.4842    4.3353 H   0  0  0  0  0  0  0  0  0  0  0  0
   11.1407   25.4212    1.7423 H   0  0  0  0  0  0  0  0  0  0  0  0
    9.0152   25.2064    0.4451 H   0  0  0  0  0  0  0  0  0  0  0  0
    7.4488   23.3034    0.9081 H   0  0  0  0  0  0  0  0  0  0  0  0
    8.0186   21.6134    2.6728 H   0  0  0  0  0  0  0  0  0  0  0  0
   10.1266   21.8105    3.9762 H   0  0  0  0  0  0  0  0  0  0  0  0
   19.2353   19.2249    9.9942 H   0  0  0  0  0  0  0  0  0  0  0  0
   19.0681   21.4042    8.8747 H   0  0  0  0  0  0  0  0  0  0  0  0
   14.7466   21.2912    9.2591 H   0  0  0  0  0  0  0  0  0  0  0  0
   14.8868   19.0841   10.3909 H   0  0  0  0  0  0  0  0  0  0  0  0
   17.7026   23.1594    8.0069 H   0  0  0  0  0  0  0  0  0  0  0  0
   16.3068   23.4840    9.0895 H   0  0  0  0  0  0  0  0  0  0  0  0
   17.2023   22.0019    5.8371 H   0  0  0  0  0  0  0  0  0  0  0  0
   16.9747   20.7159    4.1709 H   0  0  0  0  0  0  0  0  0  0  0  0
   16.6035   18.4506    6.1083 H   0  0  0  0  0  0  0  0  0  0  0  0
   20.4079   17.4693    7.7294 H   0  0  0  0  0  0  0  0  0  0  0  0
   20.5799   19.2198    7.4545 H   0  0  0  0  0  0  0  0  0  0  0  0
   20.8568   18.0607    6.1107 H   0  0  0  0  0  0  0  0  0  0  0  0
   14.0882   17.6213    3.2997 H   0  0  0  0  0  0  0  0  0  0  0  0
   13.8073   18.6042    4.7472 H   0  0  0  0  0  0  0  0  0  0  0  0
   15.1315   17.4176    4.7186 H   0  0  0  0  0  0  0  0  0  0  0  0
   15.4106   20.9640    2.2659 H   0  0  0  0  0  0  0  0  0  0  0  0
   13.9460   20.6796    3.2364 H   0  0  0  0  0  0  0  0  0  0  0  0
   14.2965   19.6514    1.8298 H   0  0  0  0  0  0  0  0  0  0  0  0
   17.1509   17.7869    3.2408 H   0  0  0  0  0  0  0  0  0  0  0  0
   17.2313   19.2213    2.1903 H   0  0  0  0  0  0  0  0  0  0  0  0
   16.0360   17.9467    1.8691 H   0  0  0  0  0  0  0  0  0  0  0  0
   19.3651   17.5335   10.8566 H   0  0  0  0  0  0  0  0  0  0  0  0
   19.6478   15.3897   11.9517 H   0  0  0  0  0  0  0  0  0  0  0  0
   15.4376   14.9674   12.4855 H   0  0  0  0  0  0  0  0  0  0  0  0
   15.0526   17.1696   11.3618 H   0  0  0  0  0  0  0  0  0  0  0  0
   13.1196   24.8601    7.0960 H   0  0  0  0  0  0  0  0  0  0  0  0
   13.1256   23.1719    6.5714 H   0  0  0  0  0  0  0  0  0  0  0  0
  1  2  2  0  0  0  0
  1  5  1  0  0  0  0
  1 52  1  0  0  0  0
  3  4  1  0  0  0  0
  3 16  1  0  0  0  0
  3 52  1  0  0  0  0
  3 55  1  6  0  0  0
  4  5  1  0  0  0  0
  4 56  1  0  0  0  0
  4 57  1  0  0  0  0
  5  6  1  0  0  0  0
  6  7  1  0  0  0  0
  6 10  1  0  0  0  0
  6 58  1  1  0  0  0
  7  8  2  0  0  0  0
  7 15  1  0  0  0  0
  8  9  1  0  0  0  0
  8 12  1  0  0  0  0
  9 10  1  0  0  0  0
  9 59  1  0  0  0  0
  9 60  1  0  0  0  0
 10 11  1  0  0  0  0
 10 61  1  6  0  0  0
 11 62  1  0  0  0  0
 12 13  2  0  0  0  0
 12 63  1  0  0  0  0
 13 14  1  0  0  0  0
 13 64  1  0  0  0  0
 14 15  2  0  0  0  0
 14 65  1  0  0  0  0
 15 66  1  0  0  0  0
 16 67  1  0  0  0  0
 17 18  1  0  0  0  0
 17 54  1  0  0  0  0
 17 68  1  0  0  0  0
 17 69  1  0  0  0  0
 18 34  1  0  0  0  0
 18 70  1  0  0  0  0
 18 71  1  0  0  0  0
 19 20  1  0  0  0  0
 19 72  1  0  0  0  0
 19 73  1  0  0  0  0
 20 21  2  0  0  0  0
 20 25  1  0  0  0  0
 21 22  1  0  0  0  0
 21 74  1  0  0  0  0
 22 23  2  0  0  0  0
 22 75  1  0  0  0  0
 23 24  1  0  0  0  0
 23 76  1  0  0  0  0
 24 25  2  0  0  0  0
 24 77  1  0  0  0  0
 25 78  1  0  0  0  0
 26 27  1  0  0  0  0
 26 48  2  0  0  0  0
 26 53  1  0  0  0  0
 27 28  2  0  0  0  0
 27 32  1  0  0  0  0
 28 29  1  0  0  0  0
 28 79  1  0  0  0  0
 29 30  2  0  0  0  0
 29 80  1  0  0  0  0
 30 31  1  0  0  0  0
 30 33  1  0  0  0  0
 31 32  2  0  0  0  0
 31 81  1  0  0  0  0
 32 82  1  0  0  0  0
 33 34  1  0  0  0  0
 33 83  1  0  0  0  0
 33 84  1  0  0  0  0
 34 35  1  0  0  0  0
 35 36  1  0  0  0  0
 35 85  1  0  0  0  0
 36 37  1  0  0  0  0
 36 47  2  0  0  0  0
 37 38  1  0  0  0  0
 37 43  1  0  0  0  0
 37 86  1  6  0  0  0
 38 39  1  0  0  0  0
 38 87  1  0  0  0  0
 39 40  1  0  0  0  0
 39 42  2  0  0  0  0
 40 41  1  0  0  0  0
 41 88  1  0  0  0  0
 41 89  1  0  0  0  0
 41 90  1  0  0  0  0
 43 44  1  0  0  0  0
 43 45  1  0  0  0  0
 43 46  1  0  0  0  0
 44 91  1  0  0  0  0
 44 92  1  0  0  0  0
 44 93  1  0  0  0  0
 45 94  1  0  0  0  0
 45 95  1  0  0  0  0
 45 96  1  0  0  0  0
 46 97  1  0  0  0  0
 46 98  1  0  0  0  0
 46 99  1  0  0  0  0
 48 49  1  0  0  0  0
 48100  1  0  0  0  0
 49 50  2  0  0  0  0
 49101  1  0  0  0  0
 50 51  1  0  0  0  0
 51 53  2  0  0  0  0
 51102  1  0  0  0  0
 52 19  1  6  0  0  0
 52 54  1  0  0  0  0
 53103  1  0  0  0  0
 54104  1  0  0  0  0
 54105  1  0  0  0  0
M  END
$$$$
