QIC
 OpenBabel04111919343D

 24 24  0  0  1  0  0  0  0  0999 V2000
    2.1391   -0.4468    0.3686 C   0  0  1  0  0  0  0  0  0  0  0  0
    1.1367    0.5643    0.5678 O   0  0  0  0  0  0  0  0  0  0  0  0
    3.4972    0.0538    0.9132 C   0  0  0  0  0  0  0  0  0  0  0  0
    2.5883    1.3120    2.7924 O   0  0  0  0  0  0  0  0  0  0  0  0
    3.4898    0.2458    2.4150 C   0  0  1  0  0  0  0  0  0  0  0  0
    3.0267   -0.7965    4.5538 O   0  0  0  0  0  0  0  0  0  0  0  0
    3.0777   -1.0508    3.1409 C   0  0  1  0  0  0  0  0  0  0  0  0
    1.4094   -2.7931    3.2917 O   0  0  0  0  0  0  0  0  0  0  0  0
    1.7326   -1.5687    2.6199 C   0  0  2  0  0  0  0  0  0  0  0  0
    1.8424    0.2867   -1.9037 O   0  0  0  0  0  0  0  0  0  0  0  0
    1.7695   -1.7404    1.0992 C   0  0  0  0  0  0  0  0  0  0  0  0
    2.8723   -1.7394   -1.5098 O   0  0  0  0  0  0  0  0  0  0  0  0
    2.3069   -0.6657   -1.1683 C   0  0  0  0  0  0  0  0  0  0  0  0
    0.9262    0.7208    1.4308 H   0  0  0  0  0  0  0  0  0  0  0  0
    3.7535    1.0049    0.4457 H   0  0  0  0  0  0  0  0  0  0  0  0
    4.2790   -0.6834    0.6719 H   0  0  0  0  0  0  0  0  0  0  0  0
    1.6743    1.0641    2.6526 H   0  0  0  0  0  0  0  0  0  0  0  0
    4.4536    0.5479    2.7764 H   0  0  0  0  0  0  0  0  0  0  0  0
    2.7587   -1.6135    4.9942 H   0  0  0  0  0  0  0  0  0  0  0  0
    3.8486   -1.8136    2.9671 H   0  0  0  0  0  0  0  0  0  0  0  0
    2.1072   -3.4386    3.0982 H   0  0  0  0  0  0  0  0  0  0  0  0
    0.9449   -0.8581    2.8817 H   0  0  0  0  0  0  0  0  0  0  0  0
    2.4990   -2.5251    0.8474 H   0  0  0  0  0  0  0  0  0  0  0  0
    0.7907   -2.0737    0.7478 H   0  0  0  0  0  0  0  0  0  0  0  0
  1  2  1  1  0  0  0
  1  3  1  0  0  0  0
  1 11  1  0  0  0  0
  1 13  1  0  0  0  0
  2 14  1  0  0  0  0
  3  5  1  0  0  0  0
  3 15  1  0  0  0  0
  3 16  1  0  0  0  0
  4  5  1  0  0  0  0
  4 17  1  0  0  0  0
  5  7  1  0  0  0  0
  5 18  1  1  0  0  0
  6  7  1  0  0  0  0
  6 19  1  0  0  0  0
  7  9  1  0  0  0  0
  7 20  1  6  0  0  0
  8  9  1  0  0  0  0
  8 21  1  0  0  0  0
  9 11  1  0  0  0  0
  9 22  1  1  0  0  0
 10 13  2  0  0  0  0
 11 23  1  0  0  0  0
 11 24  1  0  0  0  0
 12 13  1  0  0  0  0
M  END
$$$$
