R1S
 OpenBabel04111921453D

 32 35  0  0  0  0  0  0  0  0999 V2000
  -15.7735   17.6917  -14.3618 Cl  0  0  0  0  0  0  0  0  0  0  0  0
  -14.4719   17.9251  -13.2595 C   0  0  0  0  0  0  0  0  0  0  0  0
  -14.6550   17.5369  -11.9266 C   0  0  0  0  0  0  0  0  0  0  0  0
  -13.5801   17.7126  -11.0232 C   0  0  0  0  0  0  0  0  0  0  0  0
  -12.3516   18.2281  -11.4157 C   0  0  0  0  0  0  0  0  0  0  0  0
  -12.2024   18.6249  -12.7748 C   0  0  0  0  0  0  0  0  0  0  0  0
  -13.2658   18.4657  -13.6820 C   0  0  0  0  0  0  0  0  0  0  0  0
  -11.3949   18.2994  -10.4012 N   0  0  0  0  0  0  0  0  0  0  0  0
  -11.9041   17.9129   -9.2534 C   0  0  0  0  0  0  0  0  0  0  0  0
  -11.2216   18.1254   -8.0254 N   0  0  0  0  0  0  0  0  0  0  0  0
   -9.9347   17.1052   -7.7043 S   0  0  0  0  0  0  0  0  0  0  0  0
   -8.9028   17.3840   -8.6890 O   0  0  0  0  0  0  0  0  0  0  0  0
   -9.6362   17.1840   -6.2941 O   0  0  0  0  0  0  0  0  0  0  0  0
  -10.4831   15.4507   -7.9246 C   0  0  0  0  0  0  0  0  0  0  0  0
  -11.5748   14.9018   -7.2797 C   0  0  0  0  0  0  0  0  0  0  0  0
  -11.9078   13.3047   -7.8155 S   0  0  0  0  0  0  0  0  0  0  0  0
  -10.5749   13.3040   -8.9107 C   0  0  0  0  0  0  0  0  0  0  0  0
  -10.1511   12.2620   -9.7685 C   0  0  0  0  0  0  0  0  0  0  0  0
   -9.0439   12.4904  -10.6071 C   0  0  0  0  0  0  0  0  0  0  0  0
   -8.3855   13.6964  -10.5852 C   0  0  0  0  0  0  0  0  0  0  0  0
   -8.8085   14.7040   -9.7328 C   0  0  0  0  0  0  0  0  0  0  0  0
   -9.9119   14.5275   -8.8666 C   0  0  0  0  0  0  0  0  0  0  0  0
  -13.5380   17.4018   -9.3202 S   0  0  0  0  0  0  0  0  0  0  0  0
  -15.5848   17.1176  -11.5964 H   0  0  0  0  0  0  0  0  0  0  0  0
  -11.2601   19.0488  -13.1176 H   0  0  0  0  0  0  0  0  0  0  0  0
  -13.1380   18.7550  -14.7261 H   0  0  0  0  0  0  0  0  0  0  0  0
  -11.7379   18.3826   -7.1941 H   0  0  0  0  0  0  0  0  0  0  0  0
  -12.2266   15.3518   -6.5424 H   0  0  0  0  0  0  0  0  0  0  0  0
  -10.6621   11.3132   -9.8034 H   0  0  0  0  0  0  0  0  0  0  0  0
   -8.6985   11.7042  -11.2759 H   0  0  0  0  0  0  0  0  0  0  0  0
   -7.5210   13.8858  -11.2197 H   0  0  0  0  0  0  0  0  0  0  0  0
   -8.2585   15.6363   -9.7492 H   0  0  0  0  0  0  0  0  0  0  0  0
  1  2  1  0  0  0  0
  2  3  2  0  0  0  0
  2  7  1  0  0  0  0
  3  4  1  0  0  0  0
  3 24  1  0  0  0  0
  4  5  2  0  0  0  0
  4 23  1  0  0  0  0
  5  6  1  0  0  0  0
  5  8  1  0  0  0  0
  6  7  2  0  0  0  0
  6 25  1  0  0  0  0
  7 26  1  0  0  0  0
  8  9  2  0  0  0  0
  9 10  1  0  0  0  0
  9 23  1  0  0  0  0
 10 11  1  0  0  0  0
 10 27  1  0  0  0  0
 11 12  2  0  0  0  0
 11 13  2  0  0  0  0
 11 14  1  0  0  0  0
 14 15  2  0  0  0  0
 14 22  1  0  0  0  0
 15 16  1  0  0  0  0
 15 28  1  0  0  0  0
 16 17  1  0  0  0  0
 17 18  2  0  0  0  0
 17 22  1  0  0  0  0
 18 19  1  0  0  0  0
 18 29  1  0  0  0  0
 19 20  2  0  0  0  0
 19 30  1  0  0  0  0
 20 21  1  0  0  0  0
 20 31  1  0  0  0  0
 21 22  2  0  0  0  0
 21 32  1  0  0  0  0
M  END
$$$$
