R45
 OpenBabel04111919083D

 74 76  0  0  1  0  0  0  0  0999 V2000
    9.6950   26.3220    4.6873 O   0  0  0  0  0  0  0  0  0  0  0  0
    6.3008   22.4349    5.7247 N   0  0  0  0  0  0  0  0  0  0  0  0
    7.5112   22.7182    5.0924 O   0  0  0  0  0  0  0  0  0  0  0  0
    8.8289   26.5650    3.8861 C   0  0  0  0  0  0  0  0  0  0  0  0
    8.4245   25.5905    2.7881 C   0  0  2  0  0  0  0  0  0  0  0  0
    8.5221   24.1878    3.3866 C   0  0  0  0  0  0  0  0  0  0  0  0
    6.0185   24.1323    4.2628 C   0  0  0  0  0  0  0  0  0  0  0  0
    5.3969   23.2951    5.2231 C   0  0  0  0  0  0  0  0  0  0  0  0
    3.9937   23.2448    5.6495 C   0  0  0  0  0  0  0  0  0  0  0  0
    2.9810   23.9776    5.0168 C   0  0  0  0  0  0  0  0  0  0  0  0
    1.6503   23.8752    5.4464 C   0  0  0  0  0  0  0  0  0  0  0  0
    1.3229   23.0326    6.5066 C   0  0  0  0  0  0  0  0  0  0  0  0
    2.3176   22.2938    7.1387 C   0  0  0  0  0  0  0  0  0  0  0  0
    3.6387   22.3984    6.7076 C   0  0  0  0  0  0  0  0  0  0  0  0
    7.3379   23.7492    4.2033 C   0  0  0  0  0  0  0  0  0  0  0  0
    9.4668   25.7777    1.6758 C   0  0  0  0  0  0  0  0  0  0  0  0
    9.1002   24.9298    0.0737 P   0  0  1  0  0  0  0  0  0  0  0  0
    9.4795   23.4647    0.1927 O   0  0  0  0  0  0  0  0  0  0  0  0
    7.6801   25.2857   -0.3193 O   0  0  0  0  0  0  0  0  0  0  0  0
   10.2042   25.6763   -1.1025 C   0  0  0  0  0  0  0  0  0  0  0  0
    9.6967   26.1591   -2.3131 C   0  0  0  0  0  0  0  0  0  0  0  0
   10.5610   26.7096   -3.2513 C   0  0  0  0  0  0  0  0  0  0  0  0
   11.9261   26.7597   -2.9877 C   0  0  0  0  0  0  0  0  0  0  0  0
   13.1130   27.5060   -4.2575 Br  0  0  0  0  0  0  0  0  0  0  0  0
   12.4340   26.2644   -1.7915 C   0  0  0  0  0  0  0  0  0  0  0  0
   11.5728   25.7216   -0.8496 C   0  0  0  0  0  0  0  0  0  0  0  0
    8.1934   27.7754    3.8257 N   0  0  0  0  0  0  0  0  0  0  0  0
    8.6170   28.8505    4.6993 C   0  0  2  0  0  0  0  0  0  0  0  0
    7.8054   28.8356    6.0056 C   0  0  0  0  0  0  0  0  0  0  0  0
    6.6459   28.4625    6.0807 O   0  0  0  0  0  0  0  0  0  0  0  0
    8.5028   30.1983    3.9913 C   0  0  0  0  0  0  0  0  0  0  0  0
    9.4141   30.2945    2.7679 C   0  0  0  0  0  0  0  0  0  0  0  0
    9.3686   31.6873    2.1240 C   0  0  0  0  0  0  0  0  0  0  0  0
    8.6231   31.8033    1.1119 O   0  0  0  0  0  0  0  0  0  0  0  0
   10.0959   32.5659    2.6731 O   0  0  0  0  0  0  0  0  0  0  0  0
    8.4611   29.4011    7.0717 N   0  0  0  0  0  0  0  0  0  0  0  0
    7.7934   29.5777    8.3586 C   0  0  2  0  0  0  0  0  0  0  0  0
    6.6630   30.5954    8.1575 C   0  0  0  0  0  0  0  0  0  0  0  0
    5.5164   30.4012    8.5254 O   0  0  0  0  0  0  0  0  0  0  0  0
    8.8176   30.0642    9.3732 C   0  0  0  0  0  0  0  0  0  0  0  0
    8.2837   30.1147   10.7926 C   0  0  0  0  0  0  0  0  0  0  0  0
    9.4515   30.0834   11.7881 C   0  0  0  0  0  0  0  0  0  0  0  0
   10.1203   31.1512   11.8837 O   0  0  0  0  0  0  0  0  0  0  0  0
    9.6069   28.9930   12.4084 O   0  0  0  0  0  0  0  0  0  0  0  0
    7.0310   31.7916    7.5999 N   0  0  0  0  0  0  0  0  0  0  0  0
    7.4186   25.8093    2.4116 H   0  0  0  0  0  0  0  0  0  0  0  0
    9.4263   24.1510    4.0102 H   0  0  0  0  0  0  0  0  0  0  0  0
    8.6543   23.4948    2.5549 H   0  0  0  0  0  0  0  0  0  0  0  0
    5.5653   24.9143    3.6788 H   0  0  0  0  0  0  0  0  0  0  0  0
    3.2183   24.6245    4.1753 H   0  0  0  0  0  0  0  0  0  0  0  0
    0.8739   24.4559    4.9560 H   0  0  0  0  0  0  0  0  0  0  0  0
    0.2929   22.9460    6.8405 H   0  0  0  0  0  0  0  0  0  0  0  0
    2.0753   21.6378    7.9685 H   0  0  0  0  0  0  0  0  0  0  0  0
    4.4111   21.8057    7.1926 H   0  0  0  0  0  0  0  0  0  0  0  0
   10.4346   25.4046    2.0446 H   0  0  0  0  0  0  0  0  0  0  0  0
    9.5825   26.8512    1.4669 H   0  0  0  0  0  0  0  0  0  0  0  0
    8.6231   26.0975   -2.5026 H   0  0  0  0  0  0  0  0  0  0  0  0
   10.1579   27.0984   -4.1759 H   0  0  0  0  0  0  0  0  0  0  0  0
   13.4932   26.2988   -1.5777 H   0  0  0  0  0  0  0  0  0  0  0  0
   11.9466   25.3232    0.0879 H   0  0  0  0  0  0  0  0  0  0  0  0
    7.4146   27.9098    3.2009 H   0  0  0  0  0  0  0  0  0  0  0  0
    9.6603   28.6765    4.9784 H   0  0  0  0  0  0  0  0  0  0  0  0
    8.7673   30.9918    4.6950 H   0  0  0  0  0  0  0  0  0  0  0  0
    7.4656   30.3456    3.6686 H   0  0  0  0  0  0  0  0  0  0  0  0
    9.1047   29.5472    2.0267 H   0  0  0  0  0  0  0  0  0  0  0  0
   10.4456   30.0751    3.0729 H   0  0  0  0  0  0  0  0  0  0  0  0
    9.4486   29.5969    6.9896 H   0  0  0  0  0  0  0  0  0  0  0  0
    7.3429   28.6342    8.6696 H   0  0  0  0  0  0  0  0  0  0  0  0
    9.1553   31.0678    9.0887 H   0  0  0  0  0  0  0  0  0  0  0  0
    9.6747   29.3844    9.3369 H   0  0  0  0  0  0  0  0  0  0  0  0
    7.6302   29.2539   10.9684 H   0  0  0  0  0  0  0  0  0  0  0  0
    7.7075   31.0359   10.9288 H   0  0  0  0  0  0  0  0  0  0  0  0
    6.3324   32.5012    7.4514 H   0  0  0  0  0  0  0  0  0  0  0  0
    7.9843   31.9393    7.3007 H   0  0  0  0  0  0  0  0  0  0  0  0
  1  4  2  0  0  0  0
  2  3  1  0  0  0  0
  2  8  2  0  0  0  0
  3 15  1  0  0  0  0
  4  5  1  0  0  0  0
  4 27  1  0  0  0  0
  5  6  1  0  0  0  0
  5 16  1  0  0  0  0
  5 46  1  6  0  0  0
  6 15  1  0  0  0  0
  6 47  1  0  0  0  0
  6 48  1  0  0  0  0
  7  8  1  0  0  0  0
  7 15  2  0  0  0  0
  7 49  1  0  0  0  0
  8  9  1  0  0  0  0
  9 10  2  0  0  0  0
  9 14  1  0  0  0  0
 10 11  1  0  0  0  0
 10 50  1  0  0  0  0
 11 12  2  0  0  0  0
 11 51  1  0  0  0  0
 12 13  1  0  0  0  0
 12 52  1  0  0  0  0
 13 14  2  0  0  0  0
 13 53  1  0  0  0  0
 14 54  1  0  0  0  0
 16 55  1  0  0  0  0
 16 56  1  0  0  0  0
 17 16  1  1  0  0  0
 17 18  2  0  0  0  0
 17 19  1  0  0  0  0
 17 20  1  0  0  0  0
 20 21  2  0  0  0  0
 20 26  1  0  0  0  0
 21 22  1  0  0  0  0
 21 57  1  0  0  0  0
 22 23  2  0  0  0  0
 22 58  1  0  0  0  0
 23 24  1  0  0  0  0
 23 25  1  0  0  0  0
 25 26  2  0  0  0  0
 25 59  1  0  0  0  0
 26 60  1  0  0  0  0
 27 28  1  0  0  0  0
 27 61  1  0  0  0  0
 28 29  1  0  0  0  0
 28 31  1  0  0  0  0
 28 62  1  1  0  0  0
 29 30  2  0  0  0  0
 29 36  1  0  0  0  0
 31 32  1  0  0  0  0
 31 63  1  0  0  0  0
 31 64  1  0  0  0  0
 32 33  1  0  0  0  0
 32 65  1  0  0  0  0
 32 66  1  0  0  0  0
 33 34  2  0  0  0  0
 33 35  1  0  0  0  0
 36 37  1  0  0  0  0
 36 67  1  0  0  0  0
 37 38  1  0  0  0  0
 37 40  1  0  0  0  0
 37 68  1  1  0  0  0
 38 39  2  0  0  0  0
 38 45  1  0  0  0  0
 40 41  1  0  0  0  0
 40 69  1  0  0  0  0
 40 70  1  0  0  0  0
 41 42  1  0  0  0  0
 41 71  1  0  0  0  0
 41 72  1  0  0  0  0
 42 43  2  0  0  0  0
 42 44  1  0  0  0  0
 45 73  1  0  0  0  0
 45 74  1  0  0  0  0
M  END
$$$$
