R4M
 OpenBabel04111920213D

 46 47  0  0  1  0  0  0  0  0999 V2000
   63.6539   48.4684   31.4272 C   0  0  0  0  0  0  0  0  0  0  0  0
   63.5120   48.2473   32.9258 C   0  0  0  0  0  0  0  0  0  0  0  0
   64.8786   48.1730   33.6146 C   0  0  1  0  0  0  0  0  0  0  0  0
   64.6330   47.9407   35.1145 C   0  0  0  0  0  0  0  0  0  0  0  0
   65.7592   47.1203   32.9525 C   0  0  0  0  0  0  0  0  0  0  0  0
   66.8081   46.5199   33.6800 C   0  0  0  0  0  0  0  0  0  0  0  0
   67.6285   45.5435   33.1135 C   0  0  0  0  0  0  0  0  0  0  0  0
   67.4106   45.1470   31.8085 C   0  0  0  0  0  0  0  0  0  0  0  0
   66.3945   45.7457   31.0653 C   0  0  0  0  0  0  0  0  0  0  0  0
   65.5792   46.7724   31.5928 C   0  0  0  0  0  0  0  0  0  0  0  0
   64.5768   47.4870   30.7389 C   0  0  0  0  0  0  0  0  0  0  0  0
   64.5828   47.3393   29.3928 C   0  0  0  0  0  0  0  0  0  0  0  0
   63.7604   48.0199   28.4101 C   0  0  0  0  0  0  0  0  0  0  0  0
   64.5430   48.9000   27.4696 C   0  0  0  0  0  0  0  0  0  0  0  0
   62.4328   47.8773   28.2516 C   0  0  0  0  0  0  0  0  0  0  0  0
   61.5119   47.0497   29.0071 C   0  0  0  0  0  0  0  0  0  0  0  0
   60.1912   47.1534   28.8006 C   0  0  0  0  0  0  0  0  0  0  0  0
   59.1050   46.4682   29.4942 C   0  0  0  0  0  0  0  0  0  0  0  0
   59.4529   45.3906   30.4857 C   0  0  0  0  0  0  0  0  0  0  0  0
   57.8452   46.8558   29.2117 C   0  0  0  0  0  0  0  0  0  0  0  0
   56.5080   46.3432   29.7523 C   0  0  0  0  0  0  0  0  0  0  0  0
   55.5948   47.2197   29.7444 O   0  0  0  0  0  0  0  0  0  0  0  0
   56.4499   45.1286   30.0788 O   0  0  0  0  0  0  0  0  0  0  0  0
   64.0217   49.4868   31.2487 H   0  0  0  0  0  0  0  0  0  0  0  0
   62.6427   48.4255   31.0111 H   0  0  0  0  0  0  0  0  0  0  0  0
   62.9383   47.3284   33.1076 H   0  0  0  0  0  0  0  0  0  0  0  0
   62.9240   49.0717   33.3515 H   0  0  0  0  0  0  0  0  0  0  0  0
   65.3870   49.1395   33.4986 H   0  0  0  0  0  0  0  0  0  0  0  0
   65.5607   47.9575   35.6941 H   0  0  0  0  0  0  0  0  0  0  0  0
   64.1436   46.9754   35.2907 H   0  0  0  0  0  0  0  0  0  0  0  0
   63.9930   48.7260   35.5309 H   0  0  0  0  0  0  0  0  0  0  0  0
   67.0120   46.8036   34.7073 H   0  0  0  0  0  0  0  0  0  0  0  0
   68.4263   45.0977   33.6981 H   0  0  0  0  0  0  0  0  0  0  0  0
   68.0310   44.3791   31.3563 H   0  0  0  0  0  0  0  0  0  0  0  0
   66.2636   45.3806   30.0520 H   0  0  0  0  0  0  0  0  0  0  0  0
   65.3196   46.7124   28.9011 H   0  0  0  0  0  0  0  0  0  0  0  0
   63.9000   49.3854   26.7274 H   0  0  0  0  0  0  0  0  0  0  0  0
   65.2880   48.3138   26.9200 H   0  0  0  0  0  0  0  0  0  0  0  0
   65.0605   49.6918   28.0224 H   0  0  0  0  0  0  0  0  0  0  0  0
   61.9628   48.4533   27.4543 H   0  0  0  0  0  0  0  0  0  0  0  0
   61.9141   46.3859   29.7672 H   0  0  0  0  0  0  0  0  0  0  0  0
   59.8522   47.8541   28.0368 H   0  0  0  0  0  0  0  0  0  0  0  0
   58.5886   44.9643   30.9954 H   0  0  0  0  0  0  0  0  0  0  0  0
   60.0998   45.7887   31.2744 H   0  0  0  0  0  0  0  0  0  0  0  0
   59.9730   44.5669   29.9854 H   0  0  0  0  0  0  0  0  0  0  0  0
   57.6766   47.6764   28.5141 H   0  0  0  0  0  0  0  0  0  0  0  0
  1  2  1  0  0  0  0
  1 11  1  0  0  0  0
  1 24  1  0  0  0  0
  1 25  1  0  0  0  0
  2  3  1  0  0  0  0
  2 26  1  0  0  0  0
  2 27  1  0  0  0  0
  3  4  1  0  0  0  0
  3  5  1  0  0  0  0
  3 28  1  6  0  0  0
  4 29  1  0  0  0  0
  4 30  1  0  0  0  0
  4 31  1  0  0  0  0
  5  6  2  0  0  0  0
  5 10  1  0  0  0  0
  6  7  1  0  0  0  0
  6 32  1  0  0  0  0
  7  8  2  0  0  0  0
  7 33  1  0  0  0  0
  8  9  1  0  0  0  0
  8 34  1  0  0  0  0
  9 10  2  0  0  0  0
  9 35  1  0  0  0  0
 10 11  1  0  0  0  0
 11 12  2  0  0  0  0
 12 13  1  0  0  0  0
 12 36  1  0  0  0  0
 13 14  1  0  0  0  0
 13 15  2  0  0  0  0
 14 37  1  0  0  0  0
 14 38  1  0  0  0  0
 14 39  1  0  0  0  0
 15 16  1  0  0  0  0
 15 40  1  0  0  0  0
 16 17  2  0  0  0  0
 16 41  1  0  0  0  0
 17 18  1  0  0  0  0
 17 42  1  0  0  0  0
 18 19  1  0  0  0  0
 18 20  2  0  0  0  0
 19 43  1  0  0  0  0
 19 44  1  0  0  0  0
 19 45  1  0  0  0  0
 20 21  1  0  0  0  0
 20 46  1  0  0  0  0
 21 22  2  0  0  0  0
 21 23  1  0  0  0  0
M  END
$$$$
