R5T
 OpenBabel04111921363D

 44 45  0  0  1  0  0  0  0  0999 V2000
   15.6634    7.8645    8.5856 C   0  0  0  0  0  0  0  0  0  0  0  0
   16.4193    8.9299    9.4010 C   0  0  0  0  0  0  0  0  0  0  0  0
   16.6920   10.1221    8.4821 C   0  0  0  0  0  0  0  0  0  0  0  0
   17.7178    8.2955    9.9062 C   0  0  0  0  0  0  0  0  0  0  0  0
   15.5674    9.3701   10.4912 O   0  0  0  0  0  0  0  0  0  0  0  0
   16.0343   10.3192   11.3362 C   0  0  0  0  0  0  0  0  0  0  0  0
   17.1682   10.7648   11.3830 O   0  0  0  0  0  0  0  0  0  0  0  0
   15.0905   10.8380   12.1509 N   0  0  0  0  0  0  0  0  0  0  0  0
   13.7206   10.4109   12.1783 C   0  0  2  0  0  0  0  0  0  0  0  0
   12.8351   11.1560   11.1687 C   0  0  0  0  0  0  0  0  0  0  0  0
   11.7714   10.6828   10.7902 O   0  0  0  0  0  0  0  0  0  0  0  0
   13.2518   12.4433   10.8611 N   0  0  0  0  0  0  0  0  0  0  0  0
   12.3933   13.1550    9.9982 O   0  0  0  0  0  0  0  0  0  0  0  0
   13.2215   10.5168   13.5934 C   0  0  0  0  0  0  0  0  0  0  0  0
   13.5015    9.4521   14.4558 C   0  0  0  0  0  0  0  0  0  0  0  0
   13.0602    9.4959   15.7584 C   0  0  0  0  0  0  0  0  0  0  0  0
   12.5365   11.6478   14.0599 C   0  0  0  0  0  0  0  0  0  0  0  0
   12.0872   11.6958   15.3692 C   0  0  0  0  0  0  0  0  0  0  0  0
   12.3478   10.6110   16.2123 C   0  0  0  0  0  0  0  0  0  0  0  0
   11.8865   10.6205   17.5386 N   0  3  0  0  0  0  0  0  0  0  0  0
   11.2168   11.6782   18.0550 N   0  0  0  0  0  0  0  0  0  0  0  0
   10.9527   11.3168   19.3096 C   0  0  0  0  0  0  0  0  0  0  0  0
   11.4419   10.0379   19.6132 C   0  0  0  0  0  0  0  0  0  0  0  0
   12.0370    9.6143   18.4635 C   0  0  0  0  0  0  0  0  0  0  0  0
   16.2651    7.5309    7.7298 H   0  0  0  0  0  0  0  0  0  0  0  0
   14.7136    8.2506    8.2001 H   0  0  0  0  0  0  0  0  0  0  0  0
   15.4267    6.9840    9.1934 H   0  0  0  0  0  0  0  0  0  0  0  0
   17.2126   10.9252    9.0094 H   0  0  0  0  0  0  0  0  0  0  0  0
   15.7500   10.5493    8.1189 H   0  0  0  0  0  0  0  0  0  0  0  0
   17.3073    9.8321    7.6274 H   0  0  0  0  0  0  0  0  0  0  0  0
   17.5088    7.4410   10.5590 H   0  0  0  0  0  0  0  0  0  0  0  0
   18.3207    8.9954   10.4871 H   0  0  0  0  0  0  0  0  0  0  0  0
   18.3376    7.9573    9.0698 H   0  0  0  0  0  0  0  0  0  0  0  0
   15.4319   11.5149   12.8289 H   0  0  0  0  0  0  0  0  0  0  0  0
   13.6729    9.3521   11.8970 H   0  0  0  0  0  0  0  0  0  0  0  0
   14.1125   12.8605   11.2006 H   0  0  0  0  0  0  0  0  0  0  0  0
   12.8457   13.9942    9.8147 H   0  0  0  0  0  0  0  0  0  0  0  0
   14.0519    8.5742   14.1201 H   0  0  0  0  0  0  0  0  0  0  0  0
   13.2801    8.6415   16.3858 H   0  0  0  0  0  0  0  0  0  0  0  0
   12.3160   12.4862   13.4041 H   0  0  0  0  0  0  0  0  0  0  0  0
   11.5250   12.5652   15.7065 H   0  0  0  0  0  0  0  0  0  0  0  0
   10.4103   11.9978   19.9544 H   0  0  0  0  0  0  0  0  0  0  0  0
   11.3833    9.4740   20.5309 H   0  0  0  0  0  0  0  0  0  0  0  0
   12.5433    8.6833   18.2354 H   0  0  0  0  0  0  0  0  0  0  0  0
  1  2  1  0  0  0  0
  1 25  1  0  0  0  0
  1 26  1  0  0  0  0
  1 27  1  0  0  0  0
  2  3  1  0  0  0  0
  2  4  1  0  0  0  0
  2  5  1  0  0  0  0
  3 28  1  0  0  0  0
  3 29  1  0  0  0  0
  3 30  1  0  0  0  0
  4 31  1  0  0  0  0
  4 32  1  0  0  0  0
  4 33  1  0  0  0  0
  5  6  1  0  0  0  0
  6  7  2  0  0  0  0
  6  8  1  0  0  0  0
  8  9  1  0  0  0  0
  8 34  1  0  0  0  0
  9 10  1  0  0  0  0
  9 14  1  0  0  0  0
  9 35  1  6  0  0  0
 10 11  2  0  0  0  0
 10 12  1  0  0  0  0
 12 13  1  0  0  0  0
 12 36  1  0  0  0  0
 13 37  1  0  0  0  0
 14 15  2  0  0  0  0
 14 17  1  0  0  0  0
 15 16  1  0  0  0  0
 15 38  1  0  0  0  0
 16 19  2  0  0  0  0
 16 39  1  0  0  0  0
 17 18  2  0  0  0  0
 17 40  1  0  0  0  0
 18 19  1  0  0  0  0
 18 41  1  0  0  0  0
 19 20  1  0  0  0  0
 20 21  1  0  0  0  0
 20 24  2  0  0  0  0
 21 22  1  0  0  0  0
 22 23  2  0  0  0  0
 22 42  1  0  0  0  0
 23 24  1  0  0  0  0
 23 43  1  0  0  0  0
 24 44  1  0  0  0  0
M  CHG  1  20   1
M  END
$$$$
