R9B
 OpenBabel04111918233D

 61 65  0  0  1  0  0  0  0  0999 V2000
   55.1386   26.2541    9.7390 C   0  0  0  0  0  0  0  0  0  0  0  0
   55.9265   25.3738   10.0979 O   0  0  0  0  0  0  0  0  0  0  0  0
   55.4996   27.2070    8.6488 C   0  0  0  0  0  0  0  0  0  0  0  0
   54.8411   28.4322    8.4906 C   0  0  0  0  0  0  0  0  0  0  0  0
   55.2192   29.3020    7.4676 C   0  0  0  0  0  0  0  0  0  0  0  0
   56.2699   28.9668    6.6119 C   0  0  0  0  0  0  0  0  0  0  0  0
   56.9719   27.7611    6.7434 C   0  0  0  0  0  0  0  0  0  0  0  0
   56.5580   26.8850    7.7736 C   0  0  0  0  0  0  0  0  0  0  0  0
   58.1286   27.4313    5.8140 C   0  0  0  0  0  0  0  0  0  0  0  0
   58.3855   28.3888    4.8939 C   0  0  0  0  0  0  0  0  0  0  0  0
   57.6479   29.6548    4.7416 C   0  0  0  0  0  0  0  0  0  0  0  0
   57.9276   30.4825    3.8769 O   0  0  0  0  0  0  0  0  0  0  0  0
   56.6274   29.8763    5.6146 N   0  3  0  0  0  0  0  0  0  0  0  0
   58.7718   26.3502    5.9312 O   0  0  0  0  0  0  0  0  0  0  0  0
   53.9062   26.3923   10.3499 N   0  0  0  0  0  0  0  0  0  0  0  0
   53.4951   25.5549   11.4746 C   0  0  2  0  0  0  0  0  0  0  0  0
   52.1619   24.8636   11.1460 C   0  0  0  0  0  0  0  0  0  0  0  0
   51.5301   25.0772   10.1149 O   0  0  0  0  0  0  0  0  0  0  0  0
   53.2282   26.3847   12.7367 C   0  0  0  0  0  0  0  0  0  0  0  0
   54.1544   27.5460   12.8870 C   0  0  0  0  0  0  0  0  0  0  0  0
   53.7161   28.8208   12.5097 C   0  0  0  0  0  0  0  0  0  0  0  0
   55.4663   27.3422   13.3206 C   0  0  0  0  0  0  0  0  0  0  0  0
   54.5839   29.8977   12.5979 C   0  0  0  0  0  0  0  0  0  0  0  0
   56.3316   28.4231   13.4070 C   0  0  0  0  0  0  0  0  0  0  0  0
   55.8866   29.6979   13.0540 C   0  0  0  0  0  0  0  0  0  0  0  0
   49.0182   18.5105   11.3896 C   0  0  0  0  0  0  0  0  0  0  0  0
   47.7002   18.8742   11.6157 C   0  0  0  0  0  0  0  0  0  0  0  0
   47.3830   20.2014   11.9013 C   0  0  0  0  0  0  0  0  0  0  0  0
   48.3782   21.1779   11.9666 C   0  0  0  0  0  0  0  0  0  0  0  0
   45.7471   20.6412   12.1792 Cl  0  0  0  0  0  0  0  0  0  0  0  0
   49.7125   20.8304   11.7493 C   0  0  0  0  0  0  0  0  0  0  0  0
   50.0135   19.4835   11.4681 C   0  0  0  0  0  0  0  0  0  0  0  0
   51.3436   19.1033   11.2874 N   0  3  0  0  0  0  0  0  0  0  0  0
   52.3880   19.9525   11.4184 C   0  0  0  0  0  0  0  0  0  0  0  0
   52.0733   21.3674   11.6927 C   0  0  0  0  0  0  0  0  0  0  0  0
   50.8122   21.8219   11.8198 C   0  0  0  0  0  0  0  0  0  0  0  0
   53.5478   19.5785   11.3258 O   0  0  0  0  0  0  0  0  0  0  0  0
   50.4754   23.2760   12.0164 C   0  0  0  0  0  0  0  0  0  0  0  0
   51.6780   24.0585   12.1633 N   0  0  0  0  0  0  0  0  0  0  0  0
   54.0531   28.7458    9.1629 H   0  0  0  0  0  0  0  0  0  0  0  0
   54.6954   30.2447    7.3501 H   0  0  0  0  0  0  0  0  0  0  0  0
   57.0824   25.9370    7.8924 H   0  0  0  0  0  0  0  0  0  0  0  0
   59.1900   28.2485    4.1825 H   0  0  0  0  0  0  0  0  0  0  0  0
   56.1371   30.7466    5.5043 H   0  0  0  0  0  0  0  0  0  0  0  0
   53.2597   27.1021   10.0505 H   0  0  0  0  0  0  0  0  0  0  0  0
   54.2586   24.7912   11.6773 H   0  0  0  0  0  0  0  0  0  0  0  0
   53.3023   25.7546   13.6331 H   0  0  0  0  0  0  0  0  0  0  0  0
   52.1957   26.7600   12.7247 H   0  0  0  0  0  0  0  0  0  0  0  0
   52.7062   28.9656   12.1312 H   0  0  0  0  0  0  0  0  0  0  0  0
   55.8186   26.3420   13.5654 H   0  0  0  0  0  0  0  0  0  0  0  0
   54.2478   30.8883   12.3097 H   0  0  0  0  0  0  0  0  0  0  0  0
   57.3542   28.2694   13.7389 H   0  0  0  0  0  0  0  0  0  0  0  0
   56.5650   30.5407   13.1277 H   0  0  0  0  0  0  0  0  0  0  0  0
   49.2658   17.4730   11.1716 H   0  0  0  0  0  0  0  0  0  0  0  0
   46.9145   18.1240   11.5685 H   0  0  0  0  0  0  0  0  0  0  0  0
   48.0952   22.2011   12.1917 H   0  0  0  0  0  0  0  0  0  0  0  0
   51.5844   18.1422   11.0746 H   0  0  0  0  0  0  0  0  0  0  0  0
   52.9362   22.0125   11.7459 H   0  0  0  0  0  0  0  0  0  0  0  0
   49.9063   23.4167   12.9427 H   0  0  0  0  0  0  0  0  0  0  0  0
   49.8810   23.6513   11.1757 H   0  0  0  0  0  0  0  0  0  0  0  0
   52.2432   23.8962   12.9868 H   0  0  0  0  0  0  0  0  0  0  0  0
  1  2  2  0  0  0  0
  1  3  1  0  0  0  0
  1 15  1  0  0  0  0
  3  4  2  0  0  0  0
  3  8  1  0  0  0  0
  4  5  1  0  0  0  0
  4 40  1  0  0  0  0
  5  6  2  0  0  0  0
  5 41  1  0  0  0  0
  6  7  1  0  0  0  0
  6 13  1  0  0  0  0
  7  8  2  0  0  0  0
  7  9  1  0  0  0  0
  8 42  1  0  0  0  0
  9 10  2  0  0  0  0
  9 14  1  0  0  0  0
 10 11  1  0  0  0  0
 10 43  1  0  0  0  0
 11 12  2  0  0  0  0
 11 13  1  0  0  0  0
 13 44  1  0  0  0  0
 15 16  1  0  0  0  0
 15 45  1  0  0  0  0
 16 17  1  0  0  0  0
 16 19  1  0  0  0  0
 16 46  1  1  0  0  0
 17 18  2  0  0  0  0
 17 39  1  0  0  0  0
 19 20  1  0  0  0  0
 19 47  1  0  0  0  0
 19 48  1  0  0  0  0
 20 21  2  0  0  0  0
 20 22  1  0  0  0  0
 21 23  1  0  0  0  0
 21 49  1  0  0  0  0
 22 24  2  0  0  0  0
 22 50  1  0  0  0  0
 23 25  2  0  0  0  0
 23 51  1  0  0  0  0
 24 25  1  0  0  0  0
 24 52  1  0  0  0  0
 25 53  1  0  0  0  0
 26 27  2  0  0  0  0
 26 32  1  0  0  0  0
 26 54  1  0  0  0  0
 27 28  1  0  0  0  0
 27 55  1  0  0  0  0
 28 29  2  0  0  0  0
 28 30  1  0  0  0  0
 29 31  1  0  0  0  0
 29 56  1  0  0  0  0
 31 32  2  0  0  0  0
 31 36  1  0  0  0  0
 32 33  1  0  0  0  0
 33 34  1  0  0  0  0
 33 57  1  0  0  0  0
 34 35  1  0  0  0  0
 34 37  2  0  0  0  0
 35 36  2  0  0  0  0
 35 58  1  0  0  0  0
 36 38  1  0  0  0  0
 38 39  1  0  0  0  0
 38 59  1  0  0  0  0
 38 60  1  0  0  0  0
 39 61  1  0  0  0  0
M  CHG  2  13   1  33   1
M  END
$$$$
