RES
 OpenBabel04111920593D

 22 21  0  0  1  0  0  0  0  0999 V2000
   -8.2569    4.2192  -34.7263 O   0  0  0  0  0  0  0  0  0  0  0  0
   -8.3129    3.1160  -33.6800 P   0  0  0  0  0  0  0  0  0  0  0  0
   -6.9684    2.6483  -33.1504 O   0  0  0  0  0  0  0  0  0  0  0  0
   -9.3100    2.0014  -33.9677 O   0  0  0  0  0  0  0  0  0  0  0  0
   -8.9494    3.8319  -32.3767 O   0  0  0  0  0  0  0  0  0  0  0  0
   -9.1345    5.2241  -32.2721 C   0  0  0  0  0  0  0  0  0  0  0  0
   -9.9600    5.4985  -30.9925 C   0  0  1  0  0  0  0  0  0  0  0  0
  -11.2248    6.0869  -31.3456 O   0  0  0  0  0  0  0  0  0  0  0  0
  -10.1692    4.1971  -30.2051 C   0  0  1  0  0  0  0  0  0  0  0  0
   -8.9938    3.9636  -29.3771 O   0  0  0  0  0  0  0  0  0  0  0  0
  -11.3775    4.2798  -29.3184 C   0  0  0  0  0  0  0  0  0  0  0  0
  -12.5390    4.0807  -29.7423 O   0  0  0  0  0  0  0  0  0  0  0  0
  -11.1176    4.6969  -28.0523 N   0  0  0  0  0  0  0  0  0  0  0  0
  -12.1561    4.7247  -27.0999 O   0  0  0  0  0  0  0  0  0  0  0  0
   -9.6728    5.6128  -33.1406 H   0  0  0  0  0  0  0  0  0  0  0  0
   -8.1572    5.7077  -32.1826 H   0  0  0  0  0  0  0  0  0  0  0  0
   -9.4324    6.2345  -30.3683 H   0  0  0  0  0  0  0  0  0  0  0  0
  -11.6877    5.3971  -31.8654 H   0  0  0  0  0  0  0  0  0  0  0  0
  -10.3389    3.3385  -30.8635 H   0  0  0  0  0  0  0  0  0  0  0  0
   -8.2573    3.8633  -30.0247 H   0  0  0  0  0  0  0  0  0  0  0  0
  -10.1542    4.7928  -27.7564 H   0  0  0  0  0  0  0  0  0  0  0  0
  -12.7650    5.3769  -27.5004 H   0  0  0  0  0  0  0  0  0  0  0  0
  1  2  2  0  0  0  0
  2  3  1  0  0  0  0
  2  4  1  0  0  0  0
  2  5  1  0  0  0  0
  5  6  1  0  0  0  0
  6  7  1  0  0  0  0
  6 15  1  0  0  0  0
  6 16  1  0  0  0  0
  7  8  1  0  0  0  0
  7  9  1  0  0  0  0
  7 17  1  1  0  0  0
  8 18  1  0  0  0  0
  9 10  1  0  0  0  0
  9 11  1  0  0  0  0
  9 19  1  6  0  0  0
 10 20  1  0  0  0  0
 11 12  2  0  0  0  0
 11 13  1  0  0  0  0
 13 14  1  0  0  0  0
 13 21  1  0  0  0  0
 14 22  1  0  0  0  0
M  END
$$$$
