RHN
 OpenBabel04111921423D

 30 32  0  0  0  0  0  0  0  0999 V2000
   -4.3774    2.5450   -1.4651 O   0  0  0  0  0  0  0  0  0  0  0  0
   -2.0540    5.0974    2.1923 O   0  0  0  0  0  0  0  0  0  0  0  0
   -1.4718    0.4611    5.0321 O   0  0  0  0  0  0  0  0  0  0  0  0
   -4.2910    0.2758   -1.4025 O   0  0  0  0  0  0  0  0  0  0  0  0
   -0.6976    1.7838    7.0621 O   0  0  0  0  0  0  0  0  0  0  0  0
   -3.0513   -0.7545    3.2883 O   0  0  0  0  0  0  0  0  0  0  0  0
   -1.2825    5.2834    6.2966 C   0  0  0  0  0  0  0  0  0  0  0  0
   -0.9302    4.1203    6.9779 C   0  0  0  0  0  0  0  0  0  0  0  0
   -1.6838    5.2172    4.9641 C   0  0  0  0  0  0  0  0  0  0  0  0
   -3.5009    0.3673    1.3009 C   0  0  0  0  0  0  0  0  0  0  0  0
   -3.0613    2.6909    1.0455 C   0  0  0  0  0  0  0  0  0  0  0  0
   -4.1107    1.4127   -0.9056 C   0  0  0  0  0  0  0  0  0  0  0  0
   -3.5325    1.5007    0.4870 C   0  0  0  0  0  0  0  0  0  0  0  0
   -1.0129    2.9006    6.3282 C   0  0  0  0  0  0  0  0  0  0  0  0
   -2.9292    0.3958    2.5598 C   0  0  0  0  0  0  0  0  0  0  0  0
   -2.1047    3.9441    2.9389 C   0  0  0  0  0  0  0  0  0  0  0  0
   -1.6800    1.6208    4.3231 C   0  0  0  0  0  0  0  0  0  0  0  0
   -1.7321    4.0080    4.2846 C   0  0  0  0  0  0  0  0  0  0  0  0
   -2.5005    2.7408    2.3356 C   0  0  0  0  0  0  0  0  0  0  0  0
   -1.4346    2.8256    4.9800 C   0  0  0  0  0  0  0  0  0  0  0  0
   -2.3407    1.5627    3.0820 C   0  0  0  0  0  0  0  0  0  0  0  0
   -2.3245    4.8778    1.2768 H   0  0  0  0  0  0  0  0  0  0  0  0
   -2.2072    0.5084    5.6811 H   0  0  0  0  0  0  0  0  0  0  0  0
   -0.7302    1.0116    6.4606 H   0  0  0  0  0  0  0  0  0  0  0  0
   -2.5885   -0.6042    4.1327 H   0  0  0  0  0  0  0  0  0  0  0  0
   -1.2385    6.2405    6.7961 H   0  0  0  0  0  0  0  0  0  0  0  0
   -0.6160    4.1700    8.0104 H   0  0  0  0  0  0  0  0  0  0  0  0
   -2.0091    6.1197    4.4504 H   0  0  0  0  0  0  0  0  0  0  0  0
   -3.9624   -0.5414    0.9332 H   0  0  0  0  0  0  0  0  0  0  0  0
   -3.1563    3.5843    0.4335 H   0  0  0  0  0  0  0  0  0  0  0  0
  1 12  2  0  0  0  0
  2 16  1  0  0  0  0
  2 22  1  0  0  0  0
  3 17  1  0  0  0  0
  3 23  1  0  0  0  0
  4 12  1  0  0  0  0
  5 14  1  0  0  0  0
  5 24  1  0  0  0  0
  6 15  1  0  0  0  0
  6 25  1  0  0  0  0
  7  8  2  0  0  0  0
  7  9  1  0  0  0  0
  7 26  1  0  0  0  0
  8 14  1  0  0  0  0
  8 27  1  0  0  0  0
  9 18  2  0  0  0  0
  9 28  1  0  0  0  0
 10 13  1  0  0  0  0
 10 15  2  0  0  0  0
 10 29  1  0  0  0  0
 11 13  2  0  0  0  0
 11 19  1  0  0  0  0
 11 30  1  0  0  0  0
 12 13  1  0  0  0  0
 14 20  2  0  0  0  0
 15 21  1  0  0  0  0
 16 18  1  0  0  0  0
 16 19  2  0  0  0  0
 17 20  1  0  0  0  0
 17 21  2  0  0  0  0
 18 20  1  0  0  0  0
 19 21  1  0  0  0  0
M  END
$$$$
