RLI
 OpenBabel04111918383D

 41 43  0  0  0  0  0  0  0  0999 V2000
    4.7090    6.4362   39.0741 N   0  0  0  0  0  0  0  0  0  0  0  0
    5.2474    7.8132   37.2722 O   0  0  0  0  0  0  0  0  0  0  0  0
    3.5904    5.4683   36.8342 S   0  0  0  0  0  0  0  0  0  0  0  0
    7.4187    8.6309   39.0396 C   0  0  0  0  0  0  0  0  0  0  0  0
    3.5624    4.4278   39.1719 N   0  0  0  0  0  0  0  0  0  0  0  0
   -1.4137   -4.6825   38.3784 O   0  0  0  0  0  0  0  0  0  0  0  0
    1.0463    2.7071   33.6332 S   0  0  0  0  0  0  0  0  0  0  0  0
    5.2694    7.5288   38.4650 C   0  0  0  0  0  0  0  0  0  0  0  0
    1.4278    2.0943   36.0792 N   0  0  0  0  0  0  0  0  0  0  0  0
   -0.0060   -3.6417   39.8192 O   0  0  0  0  0  0  0  0  0  0  0  0
    5.9724    8.4385   39.4506 C   0  0  0  0  0  0  0  0  0  0  0  0
    0.1956    0.4747   34.8417 N   0  0  0  0  0  0  0  0  0  0  0  0
    3.9905    5.4460   38.4747 C   0  0  0  0  0  0  0  0  0  0  0  0
    2.8462    3.5717   38.3464 C   0  0  0  0  0  0  0  0  0  0  0  0
    2.2957    2.3668   39.0108 C   0  0  0  0  0  0  0  0  0  0  0  0
    2.7538    3.9884   37.0231 C   0  0  0  0  0  0  0  0  0  0  0  0
    2.0465    3.3028   35.8948 C   0  0  0  0  0  0  0  0  0  0  0  0
    1.9441    3.7956   34.6103 C   0  0  0  0  0  0  0  0  0  0  0  0
    0.8682    1.6400   34.9830 C   0  0  0  0  0  0  0  0  0  0  0  0
    0.0165   -0.5467   35.7971 C   0  0  0  0  0  0  0  0  0  0  0  0
    0.5927   -0.5282   37.0687 C   0  0  0  0  0  0  0  0  0  0  0  0
    0.3721   -1.5260   38.0196 C   0  0  0  0  0  0  0  0  0  0  0  0
   -0.4277   -2.6227   37.7092 C   0  0  0  0  0  0  0  0  0  0  0  0
   -0.6314   -3.7336   38.7171 C   0  0  0  0  0  0  0  0  0  0  0  0
   -1.0118   -2.6619   36.4349 C   0  0  0  0  0  0  0  0  0  0  0  0
   -0.8018   -1.6411   35.4966 C   0  0  0  0  0  0  0  0  0  0  0  0
    4.8373    6.2761   40.0623 H   0  0  0  0  0  0  0  0  0  0  0  0
    7.9234    9.3030   39.7386 H   0  0  0  0  0  0  0  0  0  0  0  0
    7.4923    9.0588   38.0343 H   0  0  0  0  0  0  0  0  0  0  0  0
    7.9494    7.6728   39.0319 H   0  0  0  0  0  0  0  0  0  0  0  0
    5.4377    9.3946   39.4563 H   0  0  0  0  0  0  0  0  0  0  0  0
    5.9297    8.0316   40.4658 H   0  0  0  0  0  0  0  0  0  0  0  0
   -0.1974    0.2635   33.9362 H   0  0  0  0  0  0  0  0  0  0  0  0
    1.6965    1.7787   38.3396 H   0  0  0  0  0  0  0  0  0  0  0  0
    1.6386    2.6473   39.8373 H   0  0  0  0  0  0  0  0  0  0  0  0
    3.1003    1.7323   39.3950 H   0  0  0  0  0  0  0  0  0  0  0  0
    2.3302    4.7173   34.2000 H   0  0  0  0  0  0  0  0  0  0  0  0
    1.2662    0.2560   37.3519 H   0  0  0  0  0  0  0  0  0  0  0  0
    0.8355   -1.4508   39.0007 H   0  0  0  0  0  0  0  0  0  0  0  0
   -1.6388   -3.5157   36.1736 H   0  0  0  0  0  0  0  0  0  0  0  0
   -1.2819   -1.7215   34.5268 H   0  0  0  0  0  0  0  0  0  0  0  0
  1  8  1  0  0  0  0
  1 13  1  0  0  0  0
  1 27  1  0  0  0  0
  2  8  2  0  0  0  0
  3 13  1  0  0  0  0
  3 16  1  0  0  0  0
  4 11  1  0  0  0  0
  4 28  1  0  0  0  0
  4 29  1  0  0  0  0
  4 30  1  0  0  0  0
  5 13  2  0  0  0  0
  5 14  1  0  0  0  0
  6 24  2  0  0  0  0
  7 18  1  0  0  0  0
  7 19  1  0  0  0  0
  8 11  1  0  0  0  0
  9 17  1  0  0  0  0
  9 19  2  0  0  0  0
 10 24  1  0  0  0  0
 11 31  1  0  0  0  0
 11 32  1  0  0  0  0
 12 19  1  0  0  0  0
 12 20  1  0  0  0  0
 12 33  1  0  0  0  0
 14 15  1  0  0  0  0
 14 16  2  0  0  0  0
 15 34  1  0  0  0  0
 15 35  1  0  0  0  0
 15 36  1  0  0  0  0
 16 17  1  0  0  0  0
 17 18  2  0  0  0  0
 18 37  1  0  0  0  0
 20 21  2  0  0  0  0
 20 26  1  0  0  0  0
 21 22  1  0  0  0  0
 21 38  1  0  0  0  0
 22 23  2  0  0  0  0
 22 39  1  0  0  0  0
 23 24  1  0  0  0  0
 23 25  1  0  0  0  0
 25 26  2  0  0  0  0
 25 40  1  0  0  0  0
 26 41  1  0  0  0  0
M  END
$$$$
