ROC
 OpenBabel04111921253D

106110  0  0  1  0  0  0  0  0999 V2000
   18.0593   -7.8251  -12.9215 C   0  0  0  0  0  0  0  0  0  0  0  0
   18.0901   -6.7591  -13.5972 O   0  0  0  0  0  0  0  0  0  0  0  0
   19.3344   -9.8809  -11.8831 N   0  0  0  0  0  0  0  0  0  0  0  0
   19.2767   -8.5821  -12.4918 C   0  0  0  0  0  0  0  0  0  0  0  0
   20.3499   -7.9817  -12.6764 C   0  0  0  0  0  0  0  0  0  0  0  0
   21.6781   -8.6491  -12.6941 C   0  0  0  0  0  0  0  0  0  0  0  0
   22.9973  -10.3095  -11.5901 C   0  0  0  0  0  0  0  0  0  0  0  0
   23.0885  -11.2995  -10.6904 C   0  0  0  0  0  0  0  0  0  0  0  0
   21.8656  -11.9448  -10.3254 C   0  0  0  0  0  0  0  0  0  0  0  0
   20.5831  -11.7001  -10.8787 C   0  0  0  0  0  0  0  0  0  0  0  0
   21.7491   -9.9845  -12.1242 C   0  0  0  0  0  0  0  0  0  0  0  0
   20.5752  -10.6045  -11.7314 C   0  0  0  0  0  0  0  0  0  0  0  0
   16.9305   -8.4655  -12.5733 N   0  0  0  0  0  0  0  0  0  0  0  0
   15.5991   -8.0294  -12.9213 C   0  0  2  0  0  0  0  0  0  0  0  0
   15.0154   -8.0130  -11.5635 C   0  0  0  0  0  0  0  0  0  0  0  0
   14.4805   -9.0740  -11.1443 O   0  0  0  0  0  0  0  0  0  0  0  0
   14.9456   -9.0592  -13.8536 C   0  0  0  0  0  0  0  0  0  0  0  0
   15.4813   -8.5445  -15.1973 C   0  0  0  0  0  0  0  0  0  0  0  0
   15.5633   -7.3466  -15.5119 O   0  0  0  0  0  0  0  0  0  0  0  0
   16.0829   -9.3525  -16.0627 N   0  0  0  0  0  0  0  0  0  0  0  0
   13.5722   -5.8484   -9.4040 C   0  0  1  0  0  0  0  0  0  0  0  0
   13.9116   -4.4756   -9.5290 O   0  0  0  0  0  0  0  0  0  0  0  0
   14.7327   -6.8429   -9.3811 C   0  0  1  0  0  0  0  0  0  0  0  0
   15.2642   -6.9191  -10.7637 N   0  0  0  0  0  0  0  0  0  0  0  0
   15.8005   -6.2892   -8.4505 C   0  0  0  0  0  0  0  0  0  0  0  0
   17.0984   -6.9834   -8.6644 C   0  0  2  0  0  0  0  0  0  0  0  0
   17.1021   -8.2287   -7.8655 C   0  0  0  0  0  0  0  0  0  0  0  0
   18.4550   -6.4475   -8.8861 C   0  0  0  0  0  0  0  0  0  0  0  0
   17.9594   -9.1584   -8.0362 C   0  0  0  0  0  0  0  0  0  0  0  0
   19.3247   -7.6076   -9.2994 C   0  0  0  0  0  0  0  0  0  0  0  0
   19.3286   -8.8827   -8.5299 C   0  0  0  0  0  0  0  0  0  0  0  0
   11.6170   -6.9803   -8.5997 N   0  3  1  0  0  0  0  0  0  0  0  0
   12.6837   -5.9244   -8.1997 C   0  0  0  0  0  0  0  0  0  0  0  0
   10.9069   -7.3252   -7.3792 C   0  0  2  0  0  0  0  0  0  0  0  0
   11.8291   -7.9330   -6.3908 C   0  0  0  0  0  0  0  0  0  0  0  0
   12.6437   -8.8113   -6.7690 O   0  0  0  0  0  0  0  0  0  0  0  0
    9.7565   -8.3265   -7.6320 C   0  0  0  0  0  0  0  0  0  0  0  0
    8.5622   -7.9311   -8.5211 C   0  0  2  0  0  0  0  0  0  0  0  0
    7.6496   -9.0690   -9.0996 C   0  0  0  0  0  0  0  0  0  0  0  0
    8.4075  -10.2036   -9.7935 C   0  0  0  0  0  0  0  0  0  0  0  0
    9.1084   -9.5430  -10.9556 C   0  0  0  0  0  0  0  0  0  0  0  0
   10.0156   -8.4858  -10.4495 C   0  0  0  0  0  0  0  0  0  0  0  0
    9.2676   -7.3650   -9.7390 C   0  0  2  0  0  0  0  0  0  0  0  0
   10.4912   -6.4943   -9.4826 C   0  0  0  0  0  0  0  0  0  0  0  0
   11.5580   -7.5016   -5.1364 N   0  0  0  0  0  0  0  0  0  0  0  0
   12.2539   -8.0030   -3.9499 C   0  0  0  0  0  0  0  0  0  0  0  0
   13.6329   -7.3962   -3.9648 C   0  0  0  0  0  0  0  0  0  0  0  0
   12.5171   -9.5160   -3.8754 C   0  0  0  0  0  0  0  0  0  0  0  0
   11.5697   -7.4399   -2.7091 C   0  0  0  0  0  0  0  0  0  0  0  0
   19.0294   -9.8350  -10.9369 H   0  0  0  0  0  0  0  0  0  0  0  0
   20.3765   -6.7995  -12.8758 H   0  0  0  0  0  0  0  0  0  0  0  0
   22.3586   -8.0192  -12.1066 H   0  0  0  0  0  0  0  0  0  0  0  0
   21.9905   -8.6912  -13.7449 H   0  0  0  0  0  0  0  0  0  0  0  0
   23.8236   -9.6463  -11.8235 H   0  0  0  0  0  0  0  0  0  0  0  0
   24.0392  -11.6213  -10.2623 H   0  0  0  0  0  0  0  0  0  0  0  0
   21.9109  -12.4532   -9.4447 H   0  0  0  0  0  0  0  0  0  0  0  0
   19.7189  -12.2647  -10.4815 H   0  0  0  0  0  0  0  0  0  0  0  0
   17.0373   -9.3801  -12.1316 H   0  0  0  0  0  0  0  0  0  0  0  0
   15.5737   -7.0405  -13.3819 H   0  0  0  0  0  0  0  0  0  0  0  0
   13.8354   -9.0756  -13.7354 H   0  0  0  0  0  0  0  0  0  0  0  0
   15.2868  -10.0887  -13.6195 H   0  0  0  0  0  0  0  0  0  0  0  0
   16.4414   -8.8883  -16.8887 H   0  0  0  0  0  0  0  0  0  0  0  0
   16.3308  -10.3021  -15.8746 H   0  0  0  0  0  0  0  0  0  0  0  0
   12.9853   -6.0904  -10.2832 H   0  0  0  0  0  0  0  0  0  0  0  0
   14.4184   -4.2069   -8.7452 H   0  0  0  0  0  0  0  0  0  0  0  0
   14.3686   -7.8732   -9.0877 H   0  0  0  0  0  0  0  0  0  0  0  0
   15.9459   -6.1904  -11.0016 H   0  0  0  0  0  0  0  0  0  0  0  0
   15.4540   -6.4282   -7.4220 H   0  0  0  0  0  0  0  0  0  0  0  0
   15.9099   -5.2416   -8.6816 H   0  0  0  0  0  0  0  0  0  0  0  0
   16.9881   -7.3385   -9.6733 H   0  0  0  0  0  0  0  0  0  0  0  0
   16.2203   -8.3610   -7.2216 H   0  0  0  0  0  0  0  0  0  0  0  0
   18.8988   -5.9818   -8.0162 H   0  0  0  0  0  0  0  0  0  0  0  0
   18.4542   -5.7943   -9.7751 H   0  0  0  0  0  0  0  0  0  0  0  0
   17.7753  -10.2053   -7.7328 H   0  0  0  0  0  0  0  0  0  0  0  0
   20.3397   -7.2570   -9.2852 H   0  0  0  0  0  0  0  0  0  0  0  0
   18.9566   -7.9007  -10.2791 H   0  0  0  0  0  0  0  0  0  0  0  0
   19.6676   -9.6696   -9.1916 H   0  0  0  0  0  0  0  0  0  0  0  0
   20.0105   -8.7751   -7.6861 H   0  0  0  0  0  0  0  0  0  0  0  0
   12.2068   -4.9582   -7.9586 H   0  0  0  0  0  0  0  0  0  0  0  0
   13.2551   -6.2098   -7.2875 H   0  0  0  0  0  0  0  0  0  0  0  0
   10.4875   -6.3771   -7.0241 H   0  0  0  0  0  0  0  0  0  0  0  0
    9.3897   -8.6127   -6.6685 H   0  0  0  0  0  0  0  0  0  0  0  0
   10.2024   -9.2012   -8.0923 H   0  0  0  0  0  0  0  0  0  0  0  0
    7.8754   -7.2364   -7.9895 H   0  0  0  0  0  0  0  0  0  0  0  0
    7.0196   -8.6145   -9.8893 H   0  0  0  0  0  0  0  0  0  0  0  0
    7.0134   -9.4878   -8.3345 H   0  0  0  0  0  0  0  0  0  0  0  0
    7.7199  -10.9760  -10.1627 H   0  0  0  0  0  0  0  0  0  0  0  0
    9.1140  -10.6956   -9.1099 H   0  0  0  0  0  0  0  0  0  0  0  0
    8.3737   -9.0560  -11.5944 H   0  0  0  0  0  0  0  0  0  0  0  0
    9.7004  -10.2495  -11.5229 H   0  0  0  0  0  0  0  0  0  0  0  0
   10.6133   -8.0466  -11.2402 H   0  0  0  0  0  0  0  0  0  0  0  0
   10.7459   -8.9005   -9.7556 H   0  0  0  0  0  0  0  0  0  0  0  0
    8.5027   -6.8653  -10.3774 H   0  0  0  0  0  0  0  0  0  0  0  0
   10.9297   -6.3668  -10.4510 H   0  0  0  0  0  0  0  0  0  0  0  0
   10.1237   -5.6375   -8.9710 H   0  0  0  0  0  0  0  0  0  0  0  0
   10.7909   -6.8509   -4.9952 H   0  0  0  0  0  0  0  0  0  0  0  0
   14.2138   -7.7624   -3.1172 H   0  0  0  0  0  0  0  0  0  0  0  0
   13.5364   -6.3161   -3.9124 H   0  0  0  0  0  0  0  0  0  0  0  0
   14.1251   -7.6724   -4.8941 H   0  0  0  0  0  0  0  0  0  0  0  0
   13.0203   -9.7735   -2.9267 H   0  0  0  0  0  0  0  0  0  0  0  0
   13.2126   -9.8016   -4.6784 H   0  0  0  0  0  0  0  0  0  0  0  0
   11.6136  -10.1200   -3.9666 H   0  0  0  0  0  0  0  0  0  0  0  0
   12.0368   -7.8293   -1.7961 H   0  0  0  0  0  0  0  0  0  0  0  0
   10.4988   -7.6566   -2.6984 H   0  0  0  0  0  0  0  0  0  0  0  0
   11.6995   -6.3488   -2.7216 H   0  0  0  0  0  0  0  0  0  0  0  0
   12.1966   -7.7595   -8.9889 H   0  0  0  0  0  0  0  0  0  0  0  0
  1  2  2  0  0  0  0
  1  4  1  0  0  0  0
  1 13  1  0  0  0  0
  3  4  1  0  0  0  0
  3 12  1  0  0  0  0
  3 50  1  0  0  0  0
  4  5  2  0  0  0  0
  5  6  1  0  0  0  0
  5 51  1  0  0  0  0
  6 11  1  0  0  0  0
  6 52  1  0  0  0  0
  6 53  1  0  0  0  0
  7  8  2  0  0  0  0
  7 11  1  0  0  0  0
  7 54  1  0  0  0  0
  8  9  1  0  0  0  0
  8 55  1  0  0  0  0
  9 10  2  0  0  0  0
  9 56  1  0  0  0  0
 10 12  1  0  0  0  0
 10 57  1  0  0  0  0
 11 12  2  0  0  0  0
 13 14  1  0  0  0  0
 13 58  1  0  0  0  0
 14 15  1  0  0  0  0
 14 17  1  0  0  0  0
 14 59  1  6  0  0  0
 15 16  2  0  0  0  0
 15 24  1  0  0  0  0
 17 18  1  0  0  0  0
 17 60  1  0  0  0  0
 17 61  1  0  0  0  0
 18 19  2  0  0  0  0
 18 20  1  0  0  0  0
 20 62  1  0  0  0  0
 20 63  1  0  0  0  0
 21 22  1  0  0  0  0
 21 23  1  0  0  0  0
 21 33  1  0  0  0  0
 21 64  1  6  0  0  0
 22 65  1  0  0  0  0
 23 24  1  0  0  0  0
 23 25  1  0  0  0  0
 23 66  1  1  0  0  0
 24 67  1  0  0  0  0
 25 26  1  0  0  0  0
 25 68  1  0  0  0  0
 25 69  1  0  0  0  0
 26 27  1  0  0  0  0
 26 28  1  0  0  0  0
 26 70  1  6  0  0  0
 27 29  2  0  0  0  0
 27 71  1  0  0  0  0
 28 30  1  0  0  0  0
 28 72  1  0  0  0  0
 28 73  1  0  0  0  0
 29 31  1  0  0  0  0
 29 74  1  0  0  0  0
 30 31  1  0  0  0  0
 30 75  1  0  0  0  0
 30 76  1  0  0  0  0
 31 77  1  0  0  0  0
 31 78  1  0  0  0  0
 32 33  1  0  0  0  0
 32 34  1  0  0  0  0
 32 44  1  0  0  0  0
 32106  1  6  0  0  0
 33 79  1  0  0  0  0
 33 80  1  0  0  0  0
 34 35  1  0  0  0  0
 34 37  1  0  0  0  0
 34 81  1  1  0  0  0
 35 36  2  0  0  0  0
 35 45  1  0  0  0  0
 37 38  1  0  0  0  0
 37 82  1  0  0  0  0
 37 83  1  0  0  0  0
 38 39  1  0  0  0  0
 38 43  1  0  0  0  0
 38 84  1  1  0  0  0
 39 40  1  0  0  0  0
 39 85  1  0  0  0  0
 39 86  1  0  0  0  0
 40 41  1  0  0  0  0
 40 87  1  0  0  0  0
 40 88  1  0  0  0  0
 41 42  1  0  0  0  0
 41 89  1  0  0  0  0
 41 90  1  0  0  0  0
 42 43  1  0  0  0  0
 42 91  1  0  0  0  0
 42 92  1  0  0  0  0
 43 44  1  0  0  0  0
 43 93  1  6  0  0  0
 44 94  1  0  0  0  0
 44 95  1  0  0  0  0
 45 46  1  0  0  0  0
 45 96  1  0  0  0  0
 46 47  1  0  0  0  0
 46 48  1  0  0  0  0
 46 49  1  0  0  0  0
 47 97  1  0  0  0  0
 47 98  1  0  0  0  0
 47 99  1  0  0  0  0
 48100  1  0  0  0  0
 48101  1  0  0  0  0
 48102  1  0  0  0  0
 49103  1  0  0  0  0
 49104  1  0  0  0  0
 49105  1  0  0  0  0
M  CHG  1  32   1
M  END
$$$$
