RV1
 OpenBabel04111922133D

 26 27  0  0  1  0  0  0  0  0999 V2000
   56.8582   39.2382   63.4436 C   0  0  0  0  0  0  0  0  0  0  0  0
   58.0742   39.0741   62.8089 N   0  0  0  0  0  0  0  0  0  0  0  0
   51.9816   38.6598   65.2186 O   0  0  0  0  0  0  0  0  0  0  0  0
   52.8224   39.7949   65.5236 S   0  0  0  0  0  0  0  0  0  0  0  0
   55.7221   38.5667   62.9844 C   0  0  0  0  0  0  0  0  0  0  0  0
   52.1450   41.1584   64.8726 N   0  0  0  0  0  0  0  0  0  0  0  0
   53.1070   40.1477   66.8978 O   0  0  0  0  0  0  0  0  0  0  0  0
   54.4849   38.7438   63.6093 C   0  0  0  0  0  0  0  0  0  0  0  0
   52.1062   40.5665   62.6403 O   0  0  0  0  0  0  0  0  0  0  0  0
   54.3770   39.6192   64.6904 C   0  0  0  0  0  0  0  0  0  0  0  0
   55.5049   40.2864   65.1724 C   0  0  0  0  0  0  0  0  0  0  0  0
   56.7377   40.0987   64.5396 C   0  0  0  0  0  0  0  0  0  0  0  0
   51.8336   41.3628   63.5272 C   0  0  0  0  0  0  0  0  0  0  0  0
   51.1441   42.6526   63.2773 C   0  0  2  0  0  0  0  0  0  0  0  0
   50.1072   42.6607   62.2884 C   0  0  0  0  0  0  0  0  0  0  0  0
   51.2305   43.2457   61.9755 C   0  0  0  0  0  0  0  0  0  0  0  0
   58.1661   38.4301   62.0350 H   0  0  0  0  0  0  0  0  0  0  0  0
   58.9054   39.5324   63.1548 H   0  0  0  0  0  0  0  0  0  0  0  0
   55.7896   37.8914   62.1354 H   0  0  0  0  0  0  0  0  0  0  0  0
   51.9401   41.8592   65.5741 H   0  0  0  0  0  0  0  0  0  0  0  0
   53.6144   38.2037   63.2414 H   0  0  0  0  0  0  0  0  0  0  0  0
   55.4418   40.9391   66.0393 H   0  0  0  0  0  0  0  0  0  0  0  0
   57.6119   40.6220   64.9181 H   0  0  0  0  0  0  0  0  0  0  0  0
   51.0229   43.3382   64.1043 H   0  0  0  0  0  0  0  0  0  0  0  0
   49.1256   42.3635   62.0182 H   0  0  0  0  0  0  0  0  0  0  0  0
   51.8209   43.7645   61.2633 H   0  0  0  0  0  0  0  0  0  0  0  0
  1  2  1  0  0  0  0
  1  5  2  0  0  0  0
  1 12  1  0  0  0  0
  2 17  1  0  0  0  0
  2 18  1  0  0  0  0
  3  4  2  0  0  0  0
  4  6  1  0  0  0  0
  4  7  2  0  0  0  0
  4 10  1  0  0  0  0
  5  8  1  0  0  0  0
  5 19  1  0  0  0  0
  6 13  1  0  0  0  0
  6 20  1  0  0  0  0
  8 10  2  0  0  0  0
  8 21  1  0  0  0  0
  9 13  2  0  0  0  0
 10 11  1  0  0  0  0
 11 12  2  0  0  0  0
 11 22  1  0  0  0  0
 12 23  1  0  0  0  0
 13 14  1  0  0  0  0
 14 15  1  0  0  0  0
 14 16  1  0  0  0  0
 14 24  1  1  0  0  0
 15 16  2  0  0  0  0
 15 25  1  0  0  0  0
 16 26  1  0  0  0  0
M  END
$$$$
