RWY
 OpenBabel04111918423D

 32 33  0  0  0  0  0  0  0  0999 V2000
   22.3662  -10.1382    8.8838 N   0  0  0  0  0  0  0  0  0  0  0  0
   22.5797  -10.5397    7.8363 C   0  0  0  0  0  0  0  0  0  0  0  0
   23.7474  -21.8192    6.8405 C   0  0  0  0  0  0  0  0  0  0  0  0
   23.1468  -21.6766    8.0973 C   0  0  0  0  0  0  0  0  0  0  0  0
   24.0568  -20.6889    6.1137 C   0  0  0  0  0  0  0  0  0  0  0  0
   22.8217  -20.4087    8.6166 C   0  0  0  0  0  0  0  0  0  0  0  0
   23.7938  -19.4420    6.6595 C   0  0  0  0  0  0  0  0  0  0  0  0
   24.9141  -15.0965    8.6650 C   0  0  0  0  0  0  0  0  0  0  0  0
   24.6689  -15.7393    6.3420 C   0  0  0  0  0  0  0  0  0  0  0  0
   24.0329  -16.1103    9.0476 C   0  0  0  0  0  0  0  0  0  0  0  0
   23.6472  -16.5890    6.7233 C   0  0  0  0  0  0  0  0  0  0  0  0
   25.1399  -12.9252    6.2019 C   0  0  0  0  0  0  0  0  0  0  0  0
   23.7912  -12.6713    6.8998 C   0  0  0  0  0  0  0  0  0  0  0  0
   25.9778  -13.8464    6.9429 O   0  0  0  0  0  0  0  0  0  0  0  0
   22.7730  -18.0449    8.4473 O   0  0  0  0  0  0  0  0  0  0  0  0
   22.9526  -11.1816    6.3056 S   0  0  0  0  0  0  0  0  0  0  0  0
   25.2496  -14.9449    7.3162 C   0  0  0  0  0  0  0  0  0  0  0  0
   23.1424  -19.2660    7.8904 C   0  0  0  0  0  0  0  0  0  0  0  0
   23.4722  -16.9201    8.0650 C   0  0  0  0  0  0  0  0  0  0  0  0
   23.9857  -22.7933    6.4333 H   0  0  0  0  0  0  0  0  0  0  0  0
   22.9446  -22.5671    8.6768 H   0  0  0  0  0  0  0  0  0  0  0  0
   24.5081  -20.7431    5.1310 H   0  0  0  0  0  0  0  0  0  0  0  0
   22.3502  -20.3281    9.5861 H   0  0  0  0  0  0  0  0  0  0  0  0
   24.1467  -18.6486    6.0339 H   0  0  0  0  0  0  0  0  0  0  0  0
   25.2907  -14.3904    9.4006 H   0  0  0  0  0  0  0  0  0  0  0  0
   24.9387  -15.6436    5.2950 H   0  0  0  0  0  0  0  0  0  0  0  0
   23.7763  -16.2470   10.0937 H   0  0  0  0  0  0  0  0  0  0  0  0
   23.0544  -17.0664    5.9502 H   0  0  0  0  0  0  0  0  0  0  0  0
   25.7168  -11.9947    6.1428 H   0  0  0  0  0  0  0  0  0  0  0  0
   25.0062  -13.2840    5.1740 H   0  0  0  0  0  0  0  0  0  0  0  0
   23.9557  -12.6155    7.9809 H   0  0  0  0  0  0  0  0  0  0  0  0
   23.1082  -13.5139    6.7339 H   0  0  0  0  0  0  0  0  0  0  0  0
  1  2  3  0  0  0  0
  2 16  1  0  0  0  0
  3  4  2  0  0  0  0
  3  5  1  0  0  0  0
  3 20  1  0  0  0  0
  4  6  1  0  0  0  0
  4 21  1  0  0  0  0
  5  7  2  0  0  0  0
  5 22  1  0  0  0  0
  6 18  2  0  0  0  0
  6 23  1  0  0  0  0
  7 18  1  0  0  0  0
  7 24  1  0  0  0  0
  8 10  2  0  0  0  0
  8 17  1  0  0  0  0
  8 25  1  0  0  0  0
  9 11  1  0  0  0  0
  9 17  2  0  0  0  0
  9 26  1  0  0  0  0
 10 19  1  0  0  0  0
 10 27  1  0  0  0  0
 11 19  2  0  0  0  0
 11 28  1  0  0  0  0
 12 13  1  0  0  0  0
 12 14  1  0  0  0  0
 12 29  1  0  0  0  0
 12 30  1  0  0  0  0
 13 16  1  0  0  0  0
 13 31  1  0  0  0  0
 13 32  1  0  0  0  0
 14 17  1  0  0  0  0
 15 18  1  0  0  0  0
 15 19  1  0  0  0  0
M  END
$$$$
