RWZ
 OpenBabel04111918433D

 63 65  0  0  1  0  0  0  0  0999 V2000
  -28.1677  -10.5588   -7.8844 C   0  0  0  0  0  0  0  0  0  0  0  0
  -26.1925  -11.0108   -6.2911 C   0  0  0  0  0  0  0  0  0  0  0  0
  -24.7220  -15.6688   -8.8679 C   0  0  0  0  0  0  0  0  0  0  0  0
  -26.7944  -12.5824   -8.0768 C   0  0  0  0  0  0  0  0  0  0  0  0
  -22.5465  -14.5183   -9.0335 C   0  0  0  0  0  0  0  0  0  0  0  0
  -25.6923  -13.4614   -7.6434 C   0  0  0  0  0  0  0  0  0  0  0  0
  -21.4242  -13.6474   -8.8276 C   0  0  0  0  0  0  0  0  0  0  0  0
  -20.0381  -15.5828   -8.3155 C   0  0  0  0  0  0  0  0  0  0  0  0
  -21.2155  -16.3308   -7.8851 C   0  0  0  0  0  0  0  0  0  0  0  0
  -24.4027  -13.1864   -8.4423 C   0  0  0  0  0  0  0  0  0  0  0  0
  -23.1504  -20.2473   -5.9079 C   0  0  0  0  0  0  0  0  0  0  0  0
  -21.6891  -19.9673   -7.8973 C   0  0  0  0  0  0  0  0  0  0  0  0
  -24.1212  -20.0444   -8.2008 C   0  0  0  0  0  0  0  0  0  0  0  0
  -22.0148  -18.1777   -6.1630 C   0  0  0  0  0  0  0  0  0  0  0  0
  -24.4302  -18.2209   -6.4879 C   0  0  0  0  0  0  0  0  0  0  0  0
  -20.3304  -14.2004   -8.0246 N   0  0  0  0  0  0  0  0  0  0  0  0
  -21.6807  -17.3389   -8.8941 N   0  3  0  0  0  0  0  0  0  0  0  0
  -27.0473  -11.4438   -7.4418 C   0  0  0  0  0  0  0  0  0  0  0  0
  -23.8392  -14.4535   -8.7859 C   0  0  0  0  0  0  0  0  0  0  0  0
  -21.8859  -19.6452   -6.4081 C   0  0  1  0  0  0  0  0  0  0  0  0
  -24.3276  -19.7151   -6.7185 C   0  0  2  0  0  0  0  0  0  0  0  0
  -22.8294  -19.4311   -8.7045 C   0  0  1  0  0  0  0  0  0  0  0  0
  -23.1799  -17.5965   -6.9964 C   0  0  2  0  0  0  0  0  0  0  0  0
  -22.9183  -17.9755   -8.4537 C   0  0  1  0  0  0  0  0  0  0  0  0
  -28.2286   -9.6696   -7.2511 H   0  0  0  0  0  0  0  0  0  0  0  0
  -29.1219  -11.0957   -7.8244 H   0  0  0  0  0  0  0  0  0  0  0  0
  -28.0086  -10.2386   -8.9209 H   0  0  0  0  0  0  0  0  0  0  0  0
  -25.4025  -11.7304   -6.0708 H   0  0  0  0  0  0  0  0  0  0  0  0
  -26.7850  -10.9127   -5.3857 H   0  0  0  0  0  0  0  0  0  0  0  0
  -25.6790  -10.0825   -6.5226 H   0  0  0  0  0  0  0  0  0  0  0  0
  -24.1465  -16.3131   -9.0706 H   0  0  0  0  0  0  0  0  0  0  0  0
  -25.5745  -15.7679   -9.7332 H   0  0  0  0  0  0  0  0  0  0  0  0
  -25.1746  -15.9031   -7.8685 H   0  0  0  0  0  0  0  0  0  0  0  0
  -27.3778  -12.9199   -8.9305 H   0  0  0  0  0  0  0  0  0  0  0  0
  -22.2195  -15.4750   -9.2807 H   0  0  0  0  0  0  0  0  0  0  0  0
  -26.1114  -14.4498   -7.7830 H   0  0  0  0  0  0  0  0  0  0  0  0
  -25.5216  -13.3854   -6.5898 H   0  0  0  0  0  0  0  0  0  0  0  0
  -21.8401  -12.7848   -8.3461 H   0  0  0  0  0  0  0  0  0  0  0  0
  -21.1019  -13.4464   -9.8401 H   0  0  0  0  0  0  0  0  0  0  0  0
  -19.9141  -15.7853   -9.3588 H   0  0  0  0  0  0  0  0  0  0  0  0
  -19.2046  -15.9593   -7.7265 H   0  0  0  0  0  0  0  0  0  0  0  0
  -22.0348  -15.7356   -7.4790 H   0  0  0  0  0  0  0  0  0  0  0  0
  -20.9381  -16.6254   -6.9296 H   0  0  0  0  0  0  0  0  0  0  0  0
  -23.7755  -12.5851   -7.8207 H   0  0  0  0  0  0  0  0  0  0  0  0
  -24.6480  -12.6951   -9.3693 H   0  0  0  0  0  0  0  0  0  0  0  0
  -23.2812  -19.9824   -4.8563 H   0  0  0  0  0  0  0  0  0  0  0  0
  -23.0780  -21.3206   -6.0147 H   0  0  0  0  0  0  0  0  0  0  0  0
  -21.6780  -21.0416   -8.0176 H   0  0  0  0  0  0  0  0  0  0  0  0
  -20.7451  -19.5664   -8.2604 H   0  0  0  0  0  0  0  0  0  0  0  0
  -24.9758  -19.6816   -8.7750 H   0  0  0  0  0  0  0  0  0  0  0  0
  -24.0319  -21.1223   -8.3203 H   0  0  0  0  0  0  0  0  0  0  0  0
  -20.9715  -18.0019   -6.3940 H   0  0  0  0  0  0  0  0  0  0  0  0
  -22.1119  -17.8452   -5.1277 H   0  0  0  0  0  0  0  0  0  0  0  0
  -24.4945  -18.0085   -5.4180 H   0  0  0  0  0  0  0  0  0  0  0  0
  -25.2899  -17.8142   -6.9964 H   0  0  0  0  0  0  0  0  0  0  0  0
  -19.5014  -13.6794   -8.2702 H   0  0  0  0  0  0  0  0  0  0  0  0
  -21.7968  -16.8824   -9.8145 H   0  0  0  0  0  0  0  0  0  0  0  0
  -21.0173  -19.9851   -5.8571 H   0  0  0  0  0  0  0  0  0  0  0  0
  -25.2369  -20.1825   -6.3662 H   0  0  0  0  0  0  0  0  0  0  0  0
  -22.7111  -19.6046   -9.7848 H   0  0  0  0  0  0  0  0  0  0  0  0
  -23.3118  -16.5165   -6.8380 H   0  0  0  0  0  0  0  0  0  0  0  0
  -23.7147  -17.7758   -9.1637 H   0  0  0  0  0  0  0  0  0  0  0  0
  -20.9439  -18.0030   -9.0635 H   0  0  0  0  0  0  0  0  0  0  0  0
  1 18  1  0  0  0  0
  1 25  1  0  0  0  0
  1 26  1  0  0  0  0
  1 27  1  0  0  0  0
  2 18  1  0  0  0  0
  2 28  1  0  0  0  0
  2 29  1  0  0  0  0
  2 30  1  0  0  0  0
  3 19  1  0  0  0  0
  3 31  1  0  0  0  0
  3 32  1  0  0  0  0
  3 33  1  0  0  0  0
  4  6  1  0  0  0  0
  4 18  2  0  0  0  0
  4 34  1  0  0  0  0
  5  7  1  0  0  0  0
  5 19  2  0  0  0  0
  5 35  1  0  0  0  0
  6 10  1  0  0  0  0
  6 36  1  0  0  0  0
  6 37  1  0  0  0  0
  7 16  1  0  0  0  0
  7 38  1  0  0  0  0
  7 39  1  0  0  0  0
  8  9  1  0  0  0  0
  8 16  1  0  0  0  0
  8 40  1  0  0  0  0
  8 41  1  0  0  0  0
  9 17  1  0  0  0  0
  9 42  1  0  0  0  0
  9 43  1  0  0  0  0
 10 19  1  0  0  0  0
 10 44  1  0  0  0  0
 10 45  1  0  0  0  0
 11 20  1  0  0  0  0
 11 21  1  0  0  0  0
 11 46  1  0  0  0  0
 11 47  1  0  0  0  0
 12 20  1  0  0  0  0
 12 22  1  0  0  0  0
 12 48  1  0  0  0  0
 12 49  1  0  0  0  0
 13 21  1  0  0  0  0
 13 22  1  0  0  0  0
 13 50  1  0  0  0  0
 13 51  1  0  0  0  0
 14 20  1  0  0  0  0
 14 23  1  0  0  0  0
 14 52  1  0  0  0  0
 14 53  1  0  0  0  0
 15 21  1  0  0  0  0
 15 23  1  0  0  0  0
 15 54  1  0  0  0  0
 15 55  1  0  0  0  0
 16 56  1  0  0  0  0
 17 24  1  0  0  0  0
 17 57  1  0  0  0  0
 17 63  1  0  0  0  0
 20 58  1  1  0  0  0
 21 59  1  1  0  0  0
 22 24  1  0  0  0  0
 22 60  1  6  0  0  0
 23 24  1  0  0  0  0
 23 61  1  1  0  0  0
 24 62  1  6  0  0  0
M  CHG  1  17   1
M  END
$$$$
