S2O
 OpenBabel04111922493D

 24 24  0  0  0  0  0  0  0  0999 V2000
   -4.0746    2.5434   86.6740 O   0  0  0  0  0  0  0  0  0  0  0  0
   -2.6555    2.5432   86.8790 S   0  0  0  0  0  0  0  0  0  0  0  0
   -2.0497    2.6094   88.1966 O   0  0  0  0  0  0  0  0  0  0  0  0
   -2.0449    1.1741   86.1576 N   0  0  0  0  0  0  0  0  0  0  0  0
   -1.9369    3.8563   85.9294 C   0  0  0  0  0  0  0  0  0  0  0  0
   -2.7590    4.9278   85.5552 C   0  0  0  0  0  0  0  0  0  0  0  0
   -0.5803    3.8630   85.6251 C   0  0  0  0  0  0  0  0  0  0  0  0
   -0.0312    4.9753   84.9847 C   0  0  0  0  0  0  0  0  0  0  0  0
   -0.8350    6.0701   84.6313 C   0  0  0  0  0  0  0  0  0  0  0  0
   -2.2030    6.0322   84.9145 C   0  0  0  0  0  0  0  0  0  0  0  0
   -0.2351    7.2721   83.9428 C   0  0  0  0  0  0  0  0  0  0  0  0
    0.3308    6.9073   82.5754 C   0  0  0  0  0  0  0  0  0  0  0  0
   -0.7099    6.7521   81.6170 O   0  0  0  0  0  0  0  0  0  0  0  0
   -2.4349    0.8800   85.2689 H   0  0  0  0  0  0  0  0  0  0  0  0
   -1.5154    0.5456   86.7531 H   0  0  0  0  0  0  0  0  0  0  0  0
   -3.8195    4.9184   85.7843 H   0  0  0  0  0  0  0  0  0  0  0  0
    0.0596    3.0315   85.9029 H   0  0  0  0  0  0  0  0  0  0  0  0
    1.0339    4.9897   84.7638 H   0  0  0  0  0  0  0  0  0  0  0  0
   -2.8430    6.8688   84.6454 H   0  0  0  0  0  0  0  0  0  0  0  0
    0.5632    7.6754   84.5764 H   0  0  0  0  0  0  0  0  0  0  0  0
   -0.9967    8.0537   83.8290 H   0  0  0  0  0  0  0  0  0  0  0  0
    0.8990    5.9739   82.6132 H   0  0  0  0  0  0  0  0  0  0  0  0
    1.0004    7.6984   82.2249 H   0  0  0  0  0  0  0  0  0  0  0  0
   -1.2005    7.5906   81.5744 H   0  0  0  0  0  0  0  0  0  0  0  0
  1  2  2  0  0  0  0
  2  3  2  0  0  0  0
  2  4  1  0  0  0  0
  2  5  1  0  0  0  0
  4 14  1  0  0  0  0
  4 15  1  0  0  0  0
  5  6  2  0  0  0  0
  5  7  1  0  0  0  0
  6 10  1  0  0  0  0
  6 16  1  0  0  0  0
  7  8  2  0  0  0  0
  7 17  1  0  0  0  0
  8  9  1  0  0  0  0
  8 18  1  0  0  0  0
  9 10  2  0  0  0  0
  9 11  1  0  0  0  0
 10 19  1  0  0  0  0
 11 12  1  0  0  0  0
 11 20  1  0  0  0  0
 11 21  1  0  0  0  0
 12 13  1  0  0  0  0
 12 22  1  0  0  0  0
 12 23  1  0  0  0  0
 13 24  1  0  0  0  0
M  END
$$$$
