S7P
 OpenBabel04111921373D

 31 31  0  0  1  0  0  0  0  0999 V2000
  -16.1641  -10.5621   14.9291 O   0  0  0  0  0  0  0  0  0  0  0  0
  -15.6528  -10.1974   13.6514 C   0  0  0  0  0  0  0  0  0  0  0  0
  -14.1556   -9.8476   13.6542 C   0  0  1  0  0  0  0  0  0  0  0  0
  -13.3881  -10.9841   14.0611 O   0  0  0  0  0  0  0  0  0  0  0  0
  -13.7822   -9.4705   12.3303 O   0  0  0  0  0  0  0  0  0  0  0  0
  -12.9836   -8.2682   12.4016 C   0  0  2  0  0  0  0  0  0  0  0  0
  -11.8535   -8.3209   11.3708 C   0  0  2  0  0  0  0  0  0  0  0  0
  -11.1163   -7.0921   11.4177 O   0  0  0  0  0  0  0  0  0  0  0  0
  -12.3750   -8.6087    9.9459 C   0  0  0  0  0  0  0  0  0  0  0  0
  -11.4752   -8.0421    9.0121 O   0  0  0  0  0  0  0  0  0  0  0  0
  -10.7546   -9.0342    7.9226 P   0  0  0  0  0  0  0  0  0  0  0  0
   -9.9714   -8.0622    7.0541 O   0  0  0  0  0  0  0  0  0  0  0  0
  -11.9295   -9.7161    7.2273 O   0  0  0  0  0  0  0  0  0  0  0  0
   -9.9161   -9.9407    8.7894 O   0  0  0  0  0  0  0  0  0  0  0  0
  -12.5295   -8.1597   13.8586 C   0  0  1  0  0  0  0  0  0  0  0  0
  -12.2248   -6.8423   14.3022 O   0  0  0  0  0  0  0  0  0  0  0  0
  -13.7978   -8.6576   14.5555 C   0  0  2  0  0  0  0  0  0  0  0  0
  -13.5780   -8.9663   15.9301 O   0  0  0  0  0  0  0  0  0  0  0  0
  -15.5925  -11.2775   15.2608 H   0  0  0  0  0  0  0  0  0  0  0  0
  -16.2313   -9.3485   13.2696 H   0  0  0  0  0  0  0  0  0  0  0  0
  -15.8338  -11.0369   12.9748 H   0  0  0  0  0  0  0  0  0  0  0  0
  -13.5327  -11.6459   13.3602 H   0  0  0  0  0  0  0  0  0  0  0  0
  -13.6252   -7.3943   12.1830 H   0  0  0  0  0  0  0  0  0  0  0  0
  -11.1604   -9.1192   11.6491 H   0  0  0  0  0  0  0  0  0  0  0  0
  -10.5308   -7.1708   10.6275 H   0  0  0  0  0  0  0  0  0  0  0  0
  -13.3527   -8.1415    9.7810 H   0  0  0  0  0  0  0  0  0  0  0  0
  -12.5150   -9.6904    9.8012 H   0  0  0  0  0  0  0  0  0  0  0  0
  -11.6763   -8.8139   14.0699 H   0  0  0  0  0  0  0  0  0  0  0  0
  -11.9428   -6.9137   15.2291 H   0  0  0  0  0  0  0  0  0  0  0  0
  -14.5664   -7.8852   14.4954 H   0  0  0  0  0  0  0  0  0  0  0  0
  -12.9867   -9.7367   15.9382 H   0  0  0  0  0  0  0  0  0  0  0  0
  1  2  1  0  0  0  0
  1 19  1  0  0  0  0
  2 20  1  0  0  0  0
  2 21  1  0  0  0  0
  3  2  1  1  0  0  0
  3  4  1  0  0  0  0
  3  5  1  0  0  0  0
  3 17  1  0  0  0  0
  4 22  1  0  0  0  0
  5  6  1  0  0  0  0
  6  7  1  0  0  0  0
  6 15  1  0  0  0  0
  6 23  1  6  0  0  0
  7  8  1  0  0  0  0
  7  9  1  0  0  0  0
  7 24  1  1  0  0  0
  8 25  1  0  0  0  0
  9 10  1  0  0  0  0
  9 26  1  0  0  0  0
  9 27  1  0  0  0  0
 10 11  1  0  0  0  0
 11 12  2  0  0  0  0
 11 13  1  0  0  0  0
 11 14  1  0  0  0  0
 15 16  1  0  0  0  0
 15 17  1  0  0  0  0
 15 28  1  1  0  0  0
 16 29  1  0  0  0  0
 17 18  1  0  0  0  0
 17 30  1  6  0  0  0
 18 31  1  0  0  0  0
M  END
$$$$
