S98
 OpenBabel04111921163D

 27 29  0  0  0  0  0  0  0  0999 V2000
  -19.0037   18.7663  -18.1434 N   0  0  0  0  0  0  0  0  0  0  0  0
  -18.2940   18.3739  -19.2524 C   0  0  0  0  0  0  0  0  0  0  0  0
  -17.0404   17.9012  -18.8836 C   0  0  0  0  0  0  0  0  0  0  0  0
  -17.0175   18.0297  -17.5211 N   0  3  0  0  0  0  0  0  0  0  0  0
  -18.2041   18.5800  -17.1206 C   0  0  0  0  0  0  0  0  0  0  0  0
  -18.4598   18.8809  -15.8382 N   0  0  0  0  0  0  0  0  0  0  0  0
  -17.5420   18.6968  -14.7454 C   0  0  0  0  0  0  0  0  0  0  0  0
  -16.0828   17.4475  -19.7860 C   0  0  0  0  0  0  0  0  0  0  0  0
  -16.4054   17.5473  -21.1426 C   0  0  0  0  0  0  0  0  0  0  0  0
  -17.6663   18.0304  -21.5440 C   0  0  0  0  0  0  0  0  0  0  0  0
  -17.9228   18.1773  -23.0030 C   0  0  0  0  0  0  0  0  0  0  0  0
  -18.9974   18.5801  -23.4279 O   0  0  0  0  0  0  0  0  0  0  0  0
  -16.8738   17.8540  -23.8368 N   0  3  0  0  0  0  0  0  0  0  0  0
  -15.6645   17.3794  -23.4243 C   0  0  0  0  0  0  0  0  0  0  0  0
  -14.7967   17.1341  -24.3409 N   0  0  0  0  0  0  0  0  0  0  0  0
  -15.4475   17.1969  -22.1029 N   0  3  0  0  0  0  0  0  0  0  0  0
  -18.6412   18.4160  -20.6106 C   0  0  0  0  0  0  0  0  0  0  0  0
  -16.2431   17.8091  -16.9181 H   0  0  0  0  0  0  0  0  0  0  0  0
  -19.3546   19.3170  -15.6333 H   0  0  0  0  0  0  0  0  0  0  0  0
  -17.9994   19.0414  -13.8133 H   0  0  0  0  0  0  0  0  0  0  0  0
  -16.6201   19.2687  -14.8976 H   0  0  0  0  0  0  0  0  0  0  0  0
  -17.2876   17.6388  -14.6232 H   0  0  0  0  0  0  0  0  0  0  0  0
  -15.1194   17.0824  -19.4505 H   0  0  0  0  0  0  0  0  0  0  0  0
  -17.0020   17.9816  -24.8288 H   0  0  0  0  0  0  0  0  0  0  0  0
  -13.9357   16.7891  -23.9098 H   0  0  0  0  0  0  0  0  0  0  0  0
  -14.5588   16.8484  -21.7786 H   0  0  0  0  0  0  0  0  0  0  0  0
  -19.6152   18.7810  -20.9203 H   0  0  0  0  0  0  0  0  0  0  0  0
  1  2  2  0  0  0  0
  1  5  1  0  0  0  0
  2  3  1  0  0  0  0
  2 17  1  0  0  0  0
  3  4  1  0  0  0  0
  3  8  2  0  0  0  0
  4  5  2  0  0  0  0
  4 18  1  0  0  0  0
  5  6  1  0  0  0  0
  6  7  1  0  0  0  0
  6 19  1  0  0  0  0
  7 20  1  0  0  0  0
  7 21  1  0  0  0  0
  7 22  1  0  0  0  0
  8  9  1  0  0  0  0
  8 23  1  0  0  0  0
  9 10  1  0  0  0  0
  9 16  2  0  0  0  0
 10 11  1  0  0  0  0
 10 17  2  0  0  0  0
 11 12  2  0  0  0  0
 11 13  1  0  0  0  0
 13 14  1  0  0  0  0
 13 24  1  0  0  0  0
 14 15  2  0  0  0  0
 14 16  1  0  0  0  0
 15 25  1  0  0  0  0
 16 26  1  0  0  0  0
 17 27  1  0  0  0  0
M  CHG  3   4   1  13   1  16   1
M  END
$$$$
