SAH
 OpenBabel04111921223D

 46 48  0  0  1  0  0  0  0  0999 V2000
   21.6499    2.4891   15.5615 N   0  3  0  0  0  0  0  0  0  0  0  0
   22.7319    3.5344   15.7625 C   0  0  1  0  0  0  0  0  0  0  0  0
   22.5629    4.6731   14.7560 C   0  0  0  0  0  0  0  0  0  0  0  0
   21.1954    5.3588   14.8302 C   0  0  0  0  0  0  0  0  0  0  0  0
   21.0528    6.7538   13.6661 S   0  0  0  0  0  0  0  0  0  0  0  0
   22.6817    4.1125   17.2006 C   0  0  0  0  0  0  0  0  0  0  0  0
   23.7402    4.6121   17.6385 O   0  0  0  0  0  0  0  0  0  0  0  0
   21.5470    3.8877   17.7246 O   0  0  0  0  0  0  0  0  0  0  0  0
   20.1140    5.9391   12.3368 C   0  0  0  0  0  0  0  0  0  0  0  0
   21.0261    5.2037   11.3596 C   0  0  1  0  0  0  0  0  0  0  0  0
   20.2250    4.2844   10.5925 O   0  0  0  0  0  0  0  0  0  0  0  0
   21.7804    6.1147   10.3675 C   0  0  1  0  0  0  0  0  0  0  0  0
   23.1953    5.9105   10.4368 O   0  0  0  0  0  0  0  0  0  0  0  0
   21.2452    5.6886    9.0016 C   0  0  1  0  0  0  0  0  0  0  0  0
   22.2047    5.7620    7.9551 O   0  0  0  0  0  0  0  0  0  0  0  0
   20.7714    4.2614    9.2667 C   0  0  2  0  0  0  0  0  0  0  0  0
   19.7725    3.7627    8.3668 N   0  3  0  0  0  0  0  0  0  0  0  0
   18.6463    4.4249    7.9142 C   0  0  0  0  0  0  0  0  0  0  0  0
   17.9403    3.6932    7.0869 N   0  0  0  0  0  0  0  0  0  0  0  0
   18.6236    2.4991    6.9994 C   0  0  0  0  0  0  0  0  0  0  0  0
   18.3682    1.3211    6.2805 C   0  0  0  0  0  0  0  0  0  0  0  0
   17.2547    1.1741    5.4821 N   0  0  0  0  0  0  0  0  0  0  0  0
   19.2353    0.2900    6.4010 N   0  0  0  0  0  0  0  0  0  0  0  0
   20.3058    0.4457    7.2122 C   0  0  0  0  0  0  0  0  0  0  0  0
   20.6536    1.5224    7.9534 N   0  0  0  0  0  0  0  0  0  0  0  0
   19.7619    2.5141    7.7901 C   0  0  0  0  0  0  0  0  0  0  0  0
   21.7928    1.7775   16.2917 H   0  0  0  0  0  0  0  0  0  0  0  0
   20.7672    2.9252   15.8849 H   0  0  0  0  0  0  0  0  0  0  0  0
   23.6789    3.0081   15.6029 H   0  0  0  0  0  0  0  0  0  0  0  0
   22.7313    4.2639   13.7548 H   0  0  0  0  0  0  0  0  0  0  0  0
   23.3531    5.4167   14.9242 H   0  0  0  0  0  0  0  0  0  0  0  0
   21.0044    5.7561   15.8304 H   0  0  0  0  0  0  0  0  0  0  0  0
   20.3992    4.6411   14.6133 H   0  0  0  0  0  0  0  0  0  0  0  0
   19.5152    6.6920   11.8145 H   0  0  0  0  0  0  0  0  0  0  0  0
   19.3886    5.2456   12.7781 H   0  0  0  0  0  0  0  0  0  0  0  0
   21.7364    4.5750   11.9056 H   0  0  0  0  0  0  0  0  0  0  0  0
   21.5999    7.1802   10.5502 H   0  0  0  0  0  0  0  0  0  0  0  0
   23.4063    4.9616   10.3990 H   0  0  0  0  0  0  0  0  0  0  0  0
   20.4094    6.3441    8.7427 H   0  0  0  0  0  0  0  0  0  0  0  0
   23.0451    5.3871    8.2783 H   0  0  0  0  0  0  0  0  0  0  0  0
   21.6217    3.5679    9.2559 H   0  0  0  0  0  0  0  0  0  0  0  0
   18.3984    5.4330    8.2229 H   0  0  0  0  0  0  0  0  0  0  0  0
   17.1935    0.3584    4.8944 H   0  0  0  0  0  0  0  0  0  0  0  0
   16.6884    1.9953    5.3123 H   0  0  0  0  0  0  0  0  0  0  0  0
   20.9698   -0.4105    7.2790 H   0  0  0  0  0  0  0  0  0  0  0  0
   21.5808    2.0699   14.6364 H   0  0  0  0  0  0  0  0  0  0  0  0
  1  2  1  0  0  0  0
  1 27  1  0  0  0  0
  1 28  1  0  0  0  0
  1 46  1  0  0  0  0
  2  3  1  0  0  0  0
  2  6  1  0  0  0  0
  2 29  1  6  0  0  0
  3  4  1  0  0  0  0
  3 30  1  0  0  0  0
  3 31  1  0  0  0  0
  4  5  1  0  0  0  0
  4 32  1  0  0  0  0
  4 33  1  0  0  0  0
  5  9  1  0  0  0  0
  6  7  2  0  0  0  0
  6  8  1  0  0  0  0
  9 10  1  0  0  0  0
  9 34  1  0  0  0  0
  9 35  1  0  0  0  0
 10 11  1  0  0  0  0
 10 12  1  0  0  0  0
 10 36  1  1  0  0  0
 11 16  1  0  0  0  0
 12 13  1  0  0  0  0
 12 14  1  0  0  0  0
 12 37  1  1  0  0  0
 13 38  1  0  0  0  0
 14 15  1  0  0  0  0
 14 16  1  0  0  0  0
 14 39  1  6  0  0  0
 15 40  1  0  0  0  0
 16 17  1  0  0  0  0
 16 41  1  6  0  0  0
 17 18  2  0  0  0  0
 17 26  1  0  0  0  0
 18 19  1  0  0  0  0
 18 42  1  0  0  0  0
 19 20  1  0  0  0  0
 20 21  2  0  0  0  0
 20 26  1  0  0  0  0
 21 22  1  0  0  0  0
 21 23  1  0  0  0  0
 22 43  1  0  0  0  0
 22 44  1  0  0  0  0
 23 24  2  0  0  0  0
 24 25  1  0  0  0  0
 24 45  1  0  0  0  0
 25 26  2  0  0  0  0
M  CHG  2   1   1  17   1
M  END
$$$$
