SAH
 OpenBabel04111922443D

 46 48  0  0  1  0  0  0  0  0999 V2000
   35.0598  270.9893  160.8941 N   0  3  0  0  0  0  0  0  0  0  0  0
   35.6191  271.8067  159.7538 C   0  0  1  0  0  0  0  0  0  0  0  0
   37.1038  271.5109  159.5579 C   0  0  0  0  0  0  0  0  0  0  0  0
   37.8945  271.3771  160.8456 C   0  0  0  0  0  0  0  0  0  0  0  0
   39.6588  271.2432  160.4578 S   0  0  0  0  0  0  0  0  0  0  0  0
   34.9123  271.4672  158.4130 C   0  0  0  0  0  0  0  0  0  0  0  0
   34.9716  272.3412  157.5201 O   0  0  0  0  0  0  0  0  0  0  0  0
   34.3070  270.3537  158.4927 O   0  0  0  0  0  0  0  0  0  0  0  0
   40.2778  271.0896  162.1529 C   0  0  0  0  0  0  0  0  0  0  0  0
   40.1944  272.3998  162.9299 C   0  0  1  0  0  0  0  0  0  0  0  0
   40.4576  272.1027  164.3141 O   0  0  0  0  0  0  0  0  0  0  0  0
   41.2067  273.4578  162.4677 C   0  0  1  0  0  0  0  0  0  0  0  0
   40.5560  274.7081  162.2195 O   0  0  0  0  0  0  0  0  0  0  0  0
   42.1810  273.5666  163.6293 C   0  0  1  0  0  0  0  0  0  0  0  0
   42.7424  274.8602  163.7975 O   0  0  0  0  0  0  0  0  0  0  0  0
   41.3341  273.1185  164.8199 C   0  0  2  0  0  0  0  0  0  0  0  0
   42.0787  272.5814  165.9222 N   0  3  0  0  0  0  0  0  0  0  0  0
   43.2056  271.8046  165.8766 C   0  0  0  0  0  0  0  0  0  0  0  0
   43.6541  271.4967  167.0751 N   0  0  0  0  0  0  0  0  0  0  0  0
   42.7685  272.0902  167.9404 C   0  0  0  0  0  0  0  0  0  0  0  0
   42.6965  272.1230  169.3459 C   0  0  0  0  0  0  0  0  0  0  0  0
   43.6247  271.4966  170.1434 N   0  0  0  0  0  0  0  0  0  0  0  0
   41.6789  272.7930  169.9256 N   0  0  0  0  0  0  0  0  0  0  0  0
   40.7777  273.4084  169.1275 C   0  0  0  0  0  0  0  0  0  0  0  0
   40.7447  273.4607  167.7793 N   0  0  0  0  0  0  0  0  0  0  0  0
   41.7747  272.7737  167.2542 C   0  0  0  0  0  0  0  0  0  0  0  0
   34.0436  271.1466  160.8957 H   0  0  0  0  0  0  0  0  0  0  0  0
   35.1335  270.0011  160.6016 H   0  0  0  0  0  0  0  0  0  0  0  0
   35.4461  272.8523  160.0267 H   0  0  0  0  0  0  0  0  0  0  0  0
   37.5205  272.3352  158.9641 H   0  0  0  0  0  0  0  0  0  0  0  0
   37.2330  270.5946  158.9666 H   0  0  0  0  0  0  0  0  0  0  0  0
   37.6073  270.4701  161.3893 H   0  0  0  0  0  0  0  0  0  0  0  0
   37.7143  272.2411  161.4904 H   0  0  0  0  0  0  0  0  0  0  0  0
   41.3123  270.7394  162.1107 H   0  0  0  0  0  0  0  0  0  0  0  0
   39.7036  270.3095  162.6632 H   0  0  0  0  0  0  0  0  0  0  0  0
   39.1813  272.8111  162.9087 H   0  0  0  0  0  0  0  0  0  0  0  0
   41.7247  273.1735  161.5459 H   0  0  0  0  0  0  0  0  0  0  0  0
   40.0720  274.9986  163.0074 H   0  0  0  0  0  0  0  0  0  0  0  0
   43.0015  272.8670  163.4406 H   0  0  0  0  0  0  0  0  0  0  0  0
   42.0247  275.5177  163.8183 H   0  0  0  0  0  0  0  0  0  0  0  0
   40.7197  273.9487  165.1877 H   0  0  0  0  0  0  0  0  0  0  0  0
   43.6743  271.4947  164.9508 H   0  0  0  0  0  0  0  0  0  0  0  0
   43.5182  271.5480  171.1425 H   0  0  0  0  0  0  0  0  0  0  0  0
   44.3813  270.9935  169.7018 H   0  0  0  0  0  0  0  0  0  0  0  0
   39.9764  273.9307  169.6419 H   0  0  0  0  0  0  0  0  0  0  0  0
   35.4643  271.1825  161.8071 H   0  0  0  0  0  0  0  0  0  0  0  0
  1  2  1  0  0  0  0
  1 27  1  0  0  0  0
  1 28  1  0  0  0  0
  1 46  1  0  0  0  0
  2  3  1  0  0  0  0
  2  6  1  0  0  0  0
  2 29  1  1  0  0  0
  3  4  1  0  0  0  0
  3 30  1  0  0  0  0
  3 31  1  0  0  0  0
  4  5  1  0  0  0  0
  4 32  1  0  0  0  0
  4 33  1  0  0  0  0
  5  9  1  0  0  0  0
  6  7  2  0  0  0  0
  6  8  1  0  0  0  0
  9 10  1  0  0  0  0
  9 34  1  0  0  0  0
  9 35  1  0  0  0  0
 10 11  1  0  0  0  0
 10 12  1  0  0  0  0
 10 36  1  6  0  0  0
 11 16  1  0  0  0  0
 12 13  1  0  0  0  0
 12 14  1  0  0  0  0
 12 37  1  6  0  0  0
 13 38  1  0  0  0  0
 14 15  1  0  0  0  0
 14 16  1  0  0  0  0
 14 39  1  6  0  0  0
 15 40  1  0  0  0  0
 16 17  1  0  0  0  0
 16 41  1  1  0  0  0
 17 18  2  0  0  0  0
 17 26  1  0  0  0  0
 18 19  1  0  0  0  0
 18 42  1  0  0  0  0
 19 20  1  0  0  0  0
 20 21  2  0  0  0  0
 20 26  1  0  0  0  0
 21 22  1  0  0  0  0
 21 23  1  0  0  0  0
 22 43  1  0  0  0  0
 22 44  1  0  0  0  0
 23 24  2  0  0  0  0
 24 25  1  0  0  0  0
 24 45  1  0  0  0  0
 25 26  2  0  0  0  0
M  CHG  2   1   1  17   1
M  END
$$$$
