SAH
 OpenBabel04111919373D

 46 48  0  0  1  0  0  0  0  0999 V2000
    2.0675   13.7225   16.4143 N   0  3  0  0  0  0  0  0  0  0  0  0
    1.7829   12.5355   17.3102 C   0  0  1  0  0  0  0  0  0  0  0  0
    3.0112   12.3083   18.1748 C   0  0  0  0  0  0  0  0  0  0  0  0
    3.6625   11.0021   17.7516 C   0  0  0  0  0  0  0  0  0  0  0  0
    5.3898   11.0531   18.2767 S   0  0  0  0  0  0  0  0  0  0  0  0
    0.5578   12.7677   18.2237 C   0  0  0  0  0  0  0  0  0  0  0  0
    0.0932   11.7472   18.7820 O   0  0  0  0  0  0  0  0  0  0  0  0
    0.2033   13.9798   18.2047 O   0  0  0  0  0  0  0  0  0  0  0  0
    5.2471    9.9737   19.7366 C   0  0  0  0  0  0  0  0  0  0  0  0
    5.8078    8.5792   19.4698 C   0  0  1  0  0  0  0  0  0  0  0  0
    5.1547    7.9092   18.3740 O   0  0  0  0  0  0  0  0  0  0  0  0
    7.2963    8.5614   19.1397 C   0  0  1  0  0  0  0  0  0  0  0  0
    8.1195    8.7596   20.2823 O   0  0  0  0  0  0  0  0  0  0  0  0
    7.4502    7.1748   18.5509 C   0  0  1  0  0  0  0  0  0  0  0  0
    7.6141    6.2410   19.6347 O   0  0  0  0  0  0  0  0  0  0  0  0
    6.1098    6.9607   17.8226 C   0  0  2  0  0  0  0  0  0  0  0  0
    6.2110    7.1418   16.3867 N   0  3  0  0  0  0  0  0  0  0  0  0
    5.6239    8.1098   15.6104 C   0  0  0  0  0  0  0  0  0  0  0  0
    5.9548    7.9911   14.3418 N   0  0  0  0  0  0  0  0  0  0  0  0
    6.7798    6.8876   14.2935 C   0  0  0  0  0  0  0  0  0  0  0  0
    7.4666    6.2579   13.2387 C   0  0  0  0  0  0  0  0  0  0  0  0
    7.4367    6.7231   11.9396 N   0  0  0  0  0  0  0  0  0  0  0  0
    8.2150    5.1621   13.5209 N   0  0  0  0  0  0  0  0  0  0  0  0
    8.2741    4.7461   14.7982 C   0  0  0  0  0  0  0  0  0  0  0  0
    7.6767    5.2686   15.8888 N   0  0  0  0  0  0  0  0  0  0  0  0
    6.9388    6.3384   15.5506 C   0  0  0  0  0  0  0  0  0  0  0  0
    1.2145   13.9140   15.8691 H   0  0  0  0  0  0  0  0  0  0  0  0
    2.1139   14.5392   17.0454 H   0  0  0  0  0  0  0  0  0  0  0  0
    1.5656   11.7044   16.6310 H   0  0  0  0  0  0  0  0  0  0  0  0
    2.7690   12.2640   19.2451 H   0  0  0  0  0  0  0  0  0  0  0  0
    3.7123   13.1484   18.0645 H   0  0  0  0  0  0  0  0  0  0  0  0
    3.6555   10.8873   16.6638 H   0  0  0  0  0  0  0  0  0  0  0  0
    3.1194   10.1476   18.1702 H   0  0  0  0  0  0  0  0  0  0  0  0
    4.1968    9.9023   20.0370 H   0  0  0  0  0  0  0  0  0  0  0  0
    5.7860   10.4533   20.5589 H   0  0  0  0  0  0  0  0  0  0  0  0
    5.6134    7.9827   20.3705 H   0  0  0  0  0  0  0  0  0  0  0  0
    7.5625    9.3005   18.3780 H   0  0  0  0  0  0  0  0  0  0  0  0
    7.8194    8.1304   20.9650 H   0  0  0  0  0  0  0  0  0  0  0  0
    8.3339    7.0893   17.9107 H   0  0  0  0  0  0  0  0  0  0  0  0
    8.5279    6.3689   19.9533 H   0  0  0  0  0  0  0  0  0  0  0  0
    5.7069    5.9551   17.9891 H   0  0  0  0  0  0  0  0  0  0  0  0
    4.9736    8.8660   16.0206 H   0  0  0  0  0  0  0  0  0  0  0  0
    7.8497    6.1403   11.2280 H   0  0  0  0  0  0  0  0  0  0  0  0
    6.7815    7.4553   11.7149 H   0  0  0  0  0  0  0  0  0  0  0  0
    8.8983    3.8638   14.9754 H   0  0  0  0  0  0  0  0  0  0  0  0
    2.8972   13.6346   15.8276 H   0  0  0  0  0  0  0  0  0  0  0  0
  1  2  1  0  0  0  0
  1 27  1  0  0  0  0
  1 28  1  0  0  0  0
  1 46  1  0  0  0  0
  2  3  1  0  0  0  0
  2  6  1  0  0  0  0
  2 29  1  6  0  0  0
  3  4  1  0  0  0  0
  3 30  1  0  0  0  0
  3 31  1  0  0  0  0
  4  5  1  0  0  0  0
  4 32  1  0  0  0  0
  4 33  1  0  0  0  0
  5  9  1  0  0  0  0
  6  7  2  0  0  0  0
  6  8  1  0  0  0  0
  9 10  1  0  0  0  0
  9 34  1  0  0  0  0
  9 35  1  0  0  0  0
 10 11  1  0  0  0  0
 10 12  1  0  0  0  0
 10 36  1  1  0  0  0
 11 16  1  0  0  0  0
 12 13  1  0  0  0  0
 12 14  1  0  0  0  0
 12 37  1  6  0  0  0
 13 38  1  0  0  0  0
 14 15  1  0  0  0  0
 14 16  1  0  0  0  0
 14 39  1  6  0  0  0
 15 40  1  0  0  0  0
 16 17  1  0  0  0  0
 16 41  1  1  0  0  0
 17 18  2  0  0  0  0
 17 26  1  0  0  0  0
 18 19  1  0  0  0  0
 18 42  1  0  0  0  0
 19 20  1  0  0  0  0
 20 21  2  0  0  0  0
 20 26  1  0  0  0  0
 21 22  1  0  0  0  0
 21 23  1  0  0  0  0
 22 43  1  0  0  0  0
 22 44  1  0  0  0  0
 23 24  2  0  0  0  0
 24 25  1  0  0  0  0
 24 45  1  0  0  0  0
 25 26  2  0  0  0  0
M  CHG  2   1   1  17   1
M  END
$$$$
