SAQ
 OpenBabel04111921153D

 32 35  0  0  0  0  0  0  0  0999 V2000
  -17.3413   17.9676  -23.8882 N   0  3  0  0  0  0  0  0  0  0  0  0
  -15.8078   17.5762  -22.1441 N   0  0  0  0  0  0  0  0  0  0  0  0
  -16.8293   17.8720  -21.2273 C   0  0  0  0  0  0  0  0  0  0  0  0
  -18.1279   18.2154  -21.6188 C   0  0  0  0  0  0  0  0  0  0  0  0
  -18.4055   18.2802  -23.0774 C   0  0  0  0  0  0  0  0  0  0  0  0
  -19.1240   18.5087  -20.6776 C   0  0  0  0  0  0  0  0  0  0  0  0
  -18.7678   18.5061  -19.3180 C   0  0  0  0  0  0  0  0  0  0  0  0
  -16.4872   17.8290  -19.8672 C   0  0  0  0  0  0  0  0  0  0  0  0
  -19.5124   18.8059  -18.2109 N   0  0  0  0  0  0  0  0  0  0  0  0
  -18.7031   18.6952  -17.1903 C   0  0  0  0  0  0  0  0  0  0  0  0
  -16.1120   17.6378  -23.4048 C   0  0  0  0  0  0  0  0  0  0  0  0
  -17.4675   18.1773  -18.9466 C   0  0  0  0  0  0  0  0  0  0  0  0
  -17.4410   18.3067  -17.5786 N   0  3  0  0  0  0  0  0  0  0  0  0
  -19.0451   18.8966  -15.9104 N   0  0  0  0  0  0  0  0  0  0  0  0
  -19.4953   18.6013  -23.5317 O   0  0  0  0  0  0  0  0  0  0  0  0
  -18.1186   18.9503  -14.8088 C   0  0  0  0  0  0  0  0  0  0  0  0
  -17.3720   20.2411  -14.6881 C   0  0  0  0  0  0  0  0  0  0  0  0
  -18.2227   21.7278  -14.5812 S   0  0  0  0  0  0  0  0  0  0  0  0
  -16.7701   22.6230  -14.5459 C   0  0  0  0  0  0  0  0  0  0  0  0
  -15.6618   21.8096  -14.6036 C   0  0  0  0  0  0  0  0  0  0  0  0
  -16.0057   20.4337  -14.6846 C   0  0  0  0  0  0  0  0  0  0  0  0
  -17.5128   18.0191  -24.8874 H   0  0  0  0  0  0  0  0  0  0  0  0
  -20.1325   18.7579  -20.9884 H   0  0  0  0  0  0  0  0  0  0  0  0
  -15.4867   17.5649  -19.5495 H   0  0  0  0  0  0  0  0  0  0  0  0
  -15.3554   17.4262  -24.1807 H   0  0  0  0  0  0  0  0  0  0  0  0
  -16.6530   18.1690  -16.9675 H   0  0  0  0  0  0  0  0  0  0  0  0
  -19.9717   19.2796  -15.7469 H   0  0  0  0  0  0  0  0  0  0  0  0
  -17.4037   18.1231  -14.9099 H   0  0  0  0  0  0  0  0  0  0  0  0
  -18.6657   18.7505  -13.8803 H   0  0  0  0  0  0  0  0  0  0  0  0
  -16.7813   23.7015  -14.4831 H   0  0  0  0  0  0  0  0  0  0  0  0
  -14.6523   22.1952  -14.5905 H   0  0  0  0  0  0  0  0  0  0  0  0
  -15.2836   19.6290  -14.7480 H   0  0  0  0  0  0  0  0  0  0  0  0
  1  5  1  0  0  0  0
  1 11  1  0  0  0  0
  1 22  1  0  0  0  0
  2  3  1  0  0  0  0
  2 11  2  0  0  0  0
  3  4  2  0  0  0  0
  3  8  1  0  0  0  0
  4  5  1  0  0  0  0
  4  6  1  0  0  0  0
  5 15  2  0  0  0  0
  6  7  2  0  0  0  0
  6 23  1  0  0  0  0
  7  9  1  0  0  0  0
  7 12  1  0  0  0  0
  8 12  2  0  0  0  0
  8 24  1  0  0  0  0
  9 10  1  0  0  0  0
 10 13  2  0  0  0  0
 10 14  1  0  0  0  0
 11 25  1  0  0  0  0
 12 13  1  0  0  0  0
 13 26  1  0  0  0  0
 14 16  1  0  0  0  0
 14 27  1  0  0  0  0
 16 17  1  0  0  0  0
 16 28  1  0  0  0  0
 16 29  1  0  0  0  0
 17 18  1  0  0  0  0
 17 21  2  0  0  0  0
 18 19  1  0  0  0  0
 19 20  2  0  0  0  0
 19 30  1  0  0  0  0
 20 21  1  0  0  0  0
 20 31  1  0  0  0  0
 21 32  1  0  0  0  0
M  CHG  2   1   1  13   1
M  END
$$$$
