SHH
 OpenBabel04111920133D

 39 39  0  0  0  0  0  0  0  0999 V2000
   19.6324  -19.8714   -2.0911 O   0  0  0  0  0  0  0  0  0  0  0  0
   20.4902  -17.6329   -0.9288 O   0  0  0  0  0  0  0  0  0  0  0  0
   20.8929  -19.7935   -1.4551 N   0  0  0  0  0  0  0  0  0  0  0  0
   21.2450  -18.6086   -0.8921 C   0  0  0  0  0  0  0  0  0  0  0  0
   22.5989  -18.5463   -0.2011 C   0  0  0  0  0  0  0  0  0  0  0  0
   23.5536  -17.4944   -0.7830 C   0  0  0  0  0  0  0  0  0  0  0  0
   24.9316  -17.6928   -0.1419 C   0  0  0  0  0  0  0  0  0  0  0  0
   25.9737  -16.7200   -0.6934 C   0  0  0  0  0  0  0  0  0  0  0  0
   27.3265  -16.9977   -0.0214 C   0  0  0  0  0  0  0  0  0  0  0  0
   28.3027  -15.8399   -0.1781 C   0  0  0  0  0  0  0  0  0  0  0  0
   28.0070  -14.6827    0.7752 C   0  0  0  0  0  0  0  0  0  0  0  0
   27.4517  -13.6958    0.3266 O   0  0  0  0  0  0  0  0  0  0  0  0
   28.3786  -14.8408    2.0950 N   0  0  0  0  0  0  0  0  0  0  0  0
   28.2823  -13.8976    3.1503 C   0  0  0  0  0  0  0  0  0  0  0  0
   27.9995  -12.5417    2.9669 C   0  0  0  0  0  0  0  0  0  0  0  0
   28.0005  -11.6600    4.0546 C   0  0  0  0  0  0  0  0  0  0  0  0
   28.2650  -12.1300    5.3396 C   0  0  0  0  0  0  0  0  0  0  0  0
   28.5525  -13.4777    5.5363 C   0  0  0  0  0  0  0  0  0  0  0  0
   28.5798  -14.3479    4.4444 C   0  0  0  0  0  0  0  0  0  0  0  0
   19.5398  -20.7734   -2.4377 H   0  0  0  0  0  0  0  0  0  0  0  0
   21.5003  -20.5934   -1.4291 H   0  0  0  0  0  0  0  0  0  0  0  0
   23.0777  -19.5308   -0.2682 H   0  0  0  0  0  0  0  0  0  0  0  0
   22.4255  -18.3110    0.8614 H   0  0  0  0  0  0  0  0  0  0  0  0
   23.1881  -16.4766   -0.5678 H   0  0  0  0  0  0  0  0  0  0  0  0
   23.6326  -17.6085   -1.8748 H   0  0  0  0  0  0  0  0  0  0  0  0
   25.2676  -18.7265   -0.3257 H   0  0  0  0  0  0  0  0  0  0  0  0
   24.8445  -17.5494    0.9484 H   0  0  0  0  0  0  0  0  0  0  0  0
   25.6598  -15.6863   -0.4904 H   0  0  0  0  0  0  0  0  0  0  0  0
   26.0620  -16.8489   -1.7842 H   0  0  0  0  0  0  0  0  0  0  0  0
   27.7653  -17.8996   -0.4773 H   0  0  0  0  0  0  0  0  0  0  0  0
   27.1602  -17.1897    1.0453 H   0  0  0  0  0  0  0  0  0  0  0  0
   28.2380  -15.4449   -1.2065 H   0  0  0  0  0  0  0  0  0  0  0  0
   29.3258  -16.1880   -0.0014 H   0  0  0  0  0  0  0  0  0  0  0  0
   28.7810  -15.7274    2.3438 H   0  0  0  0  0  0  0  0  0  0  0  0
   27.8017  -12.1527    1.9741 H   0  0  0  0  0  0  0  0  0  0  0  0
   27.7900  -10.6042    3.8981 H   0  0  0  0  0  0  0  0  0  0  0  0
   28.2487  -11.4480    6.1842 H   0  0  0  0  0  0  0  0  0  0  0  0
   28.7561  -13.8502    6.5368 H   0  0  0  0  0  0  0  0  0  0  0  0
   28.8461  -15.3879    4.6097 H   0  0  0  0  0  0  0  0  0  0  0  0
  1  3  1  0  0  0  0
  1 20  1  0  0  0  0
  2  4  2  0  0  0  0
  3  4  1  0  0  0  0
  3 21  1  0  0  0  0
  4  5  1  0  0  0  0
  5  6  1  0  0  0  0
  5 22  1  0  0  0  0
  5 23  1  0  0  0  0
  6  7  1  0  0  0  0
  6 24  1  0  0  0  0
  6 25  1  0  0  0  0
  7  8  1  0  0  0  0
  7 26  1  0  0  0  0
  7 27  1  0  0  0  0
  8  9  1  0  0  0  0
  8 28  1  0  0  0  0
  8 29  1  0  0  0  0
  9 10  1  0  0  0  0
  9 30  1  0  0  0  0
  9 31  1  0  0  0  0
 10 11  1  0  0  0  0
 10 32  1  0  0  0  0
 10 33  1  0  0  0  0
 11 12  2  0  0  0  0
 11 13  1  0  0  0  0
 13 14  1  0  0  0  0
 13 34  1  0  0  0  0
 14 15  2  0  0  0  0
 14 19  1  0  0  0  0
 15 16  1  0  0  0  0
 15 35  1  0  0  0  0
 16 17  2  0  0  0  0
 16 36  1  0  0  0  0
 17 18  1  0  0  0  0
 17 37  1  0  0  0  0
 18 19  2  0  0  0  0
 18 38  1  0  0  0  0
 19 39  1  0  0  0  0
M  END
$$$$
