SKM
 OpenBabel04111922373D

 23 23  0  0  1  0  0  0  0  0999 V2000
    3.0284    9.7779   20.1273 O   0  0  0  0  0  0  0  0  0  0  0  0
    4.1380   10.6661   19.9637 C   0  0  1  0  0  0  0  0  0  0  0  0
    5.3522   10.2208   20.7698 C   0  0  2  0  0  0  0  0  0  0  0  0
    6.3424   11.2556   20.7481 O   0  0  0  0  0  0  0  0  0  0  0  0
    5.9590    8.9045   20.2647 C   0  0  0  0  0  0  0  0  0  0  0  0
    5.6539    8.5410   18.7999 C   0  0  2  0  0  0  0  0  0  0  0  0
    6.7375    7.5901   18.2297 C   0  0  0  0  0  0  0  0  0  0  0  0
    7.0315    6.6111   18.9783 O   0  0  0  0  0  0  0  0  0  0  0  0
    7.1793    7.8641   17.0843 O   0  0  0  0  0  0  0  0  0  0  0  0
    5.3266    9.7088   17.8667 C   0  0  0  0  0  0  0  0  0  0  0  0
    4.5078   10.8422   18.4837 C   0  0  1  0  0  0  0  0  0  0  0  0
    3.2852   11.0141   17.7376 O   0  0  0  0  0  0  0  0  0  0  0  0
    2.5186    9.8488   19.2965 H   0  0  0  0  0  0  0  0  0  0  0  0
    3.7843   11.6403   20.3325 H   0  0  0  0  0  0  0  0  0  0  0  0
    5.0726   10.0754   21.8213 H   0  0  0  0  0  0  0  0  0  0  0  0
    5.9513   12.0308   21.1821 H   0  0  0  0  0  0  0  0  0  0  0  0
    5.5214    8.1004   20.8714 H   0  0  0  0  0  0  0  0  0  0  0  0
    7.0363    8.8823   20.4800 H   0  0  0  0  0  0  0  0  0  0  0  0
    4.7407    7.9306   18.8236 H   0  0  0  0  0  0  0  0  0  0  0  0
    4.7999    9.3042   16.9906 H   0  0  0  0  0  0  0  0  0  0  0  0
    6.2504   10.1425   17.4638 H   0  0  0  0  0  0  0  0  0  0  0  0
    5.0880   11.7716   18.3704 H   0  0  0  0  0  0  0  0  0  0  0  0
    2.9829   11.9151   17.9090 H   0  0  0  0  0  0  0  0  0  0  0  0
  1  2  1  0  0  0  0
  1 13  1  0  0  0  0
  2  3  1  0  0  0  0
  2 11  1  0  0  0  0
  2 14  1  1  0  0  0
  3  4  1  0  0  0  0
  3  5  1  0  0  0  0
  3 15  1  1  0  0  0
  4 16  1  0  0  0  0
  5  6  1  0  0  0  0
  5 17  1  0  0  0  0
  5 18  1  0  0  0  0
  6  7  1  0  0  0  0
  6 10  1  0  0  0  0
  6 19  1  1  0  0  0
  7  8  2  0  0  0  0
  7  9  1  0  0  0  0
 10 11  1  0  0  0  0
 10 20  1  0  0  0  0
 10 21  1  0  0  0  0
 11 12  1  0  0  0  0
 11 22  1  6  0  0  0
 12 23  1  0  0  0  0
M  END
$$$$
