SLB
 OpenBabel04111920253D

 39 39  0  0  1  0  0  0  0  0999 V2000
   22.5790   28.3108   40.7512 C   0  0  0  0  0  0  0  0  0  0  0  0
   21.8757   26.9086   41.0411 C   0  0  1  0  0  0  0  0  0  0  0  0
   23.0021   25.9215   41.2698 C   0  0  0  0  0  0  0  0  0  0  0  0
   22.4201   24.5301   41.4507 C   0  0  1  0  0  0  0  0  0  0  0  0
   21.5622   24.1654   40.2182 C   0  0  2  0  0  0  0  0  0  0  0  0
   20.4693   25.2442   40.0197 C   0  0  2  0  0  0  0  0  0  0  0  0
   19.6743   25.0299   38.7097 C   0  0  1  0  0  0  0  0  0  0  0  0
   18.5711   26.0987   38.4899 C   0  0  1  0  0  0  0  0  0  0  0  0
   17.7039   25.7541   37.2729 C   0  0  0  0  0  0  0  0  0  0  0  0
   21.4732   21.7417   39.6409 C   0  0  0  0  0  0  0  0  0  0  0  0
   20.7694   20.4481   39.9330 C   0  0  0  0  0  0  0  0  0  0  0  0
   21.0006   22.8097   40.3730 N   0  0  0  0  0  0  0  0  0  0  0  0
   23.1213   28.4715   39.6268 O   0  0  0  0  0  0  0  0  0  0  0  0
   22.5049   29.1048   41.7527 O   0  0  0  0  0  0  0  0  0  0  0  0
   21.1085   27.0082   42.2601 O   0  0  0  0  0  0  0  0  0  0  0  0
   23.4888   23.6047   41.6527 O   0  0  0  0  0  0  0  0  0  0  0  0
   21.0460   26.5512   39.9306 O   0  0  0  0  0  0  0  0  0  0  0  0
   20.5680   25.0752   37.5886 O   0  0  0  0  0  0  0  0  0  0  0  0
   17.6830   26.2150   39.6156 O   0  0  0  0  0  0  0  0  0  0  0  0
   16.8937   24.6040   37.5524 O   0  0  0  0  0  0  0  0  0  0  0  0
   22.4024   21.8012   38.8478 O   0  0  0  0  0  0  0  0  0  0  0  0
   23.5781   26.1919   42.1694 H   0  0  0  0  0  0  0  0  0  0  0  0
   23.7079   25.9192   40.4343 H   0  0  0  0  0  0  0  0  0  0  0  0
   21.7996   24.4891   42.3535 H   0  0  0  0  0  0  0  0  0  0  0  0
   22.2306   24.1578   39.3476 H   0  0  0  0  0  0  0  0  0  0  0  0
   19.7699   25.2190   40.8660 H   0  0  0  0  0  0  0  0  0  0  0  0
   19.2171   24.0342   38.7321 H   0  0  0  0  0  0  0  0  0  0  0  0
   19.0317   27.0735   38.3140 H   0  0  0  0  0  0  0  0  0  0  0  0
   18.3022   25.5581   36.3790 H   0  0  0  0  0  0  0  0  0  0  0  0
   17.0171   26.5793   37.0539 H   0  0  0  0  0  0  0  0  0  0  0  0
   21.1706   19.6652   39.2867 H   0  0  0  0  0  0  0  0  0  0  0  0
   19.6964   20.5483   39.7375 H   0  0  0  0  0  0  0  0  0  0  0  0
   20.9359   20.1646   40.9771 H   0  0  0  0  0  0  0  0  0  0  0  0
   20.2923   22.6603   41.0788 H   0  0  0  0  0  0  0  0  0  0  0  0
   21.4143   27.8792   42.6066 H   0  0  0  0  0  0  0  0  0  0  0  0
   23.1379   22.7253   41.4347 H   0  0  0  0  0  0  0  0  0  0  0  0
   21.1470   25.8532   37.7407 H   0  0  0  0  0  0  0  0  0  0  0  0
   17.5493   25.3244   39.9716 H   0  0  0  0  0  0  0  0  0  0  0  0
   16.2675   24.8994   38.2374 H   0  0  0  0  0  0  0  0  0  0  0  0
  1 13  2  0  0  0  0
  1 14  1  0  0  0  0
  2  1  1  6  0  0  0
  2  3  1  0  0  0  0
  2 15  1  0  0  0  0
  2 17  1  0  0  0  0
  3  4  1  0  0  0  0
  3 22  1  0  0  0  0
  3 23  1  0  0  0  0
  4  5  1  0  0  0  0
  4 16  1  0  0  0  0
  4 24  1  1  0  0  0
  5  6  1  0  0  0  0
  5 12  1  0  0  0  0
  5 25  1  6  0  0  0
  6  7  1  0  0  0  0
  6 17  1  0  0  0  0
  6 26  1  1  0  0  0
  7  8  1  0  0  0  0
  7 18  1  0  0  0  0
  7 27  1  1  0  0  0
  8  9  1  0  0  0  0
  8 19  1  0  0  0  0
  8 28  1  6  0  0  0
  9 20  1  0  0  0  0
  9 29  1  0  0  0  0
  9 30  1  0  0  0  0
 10 11  1  0  0  0  0
 10 12  1  0  0  0  0
 10 21  2  0  0  0  0
 11 31  1  0  0  0  0
 11 32  1  0  0  0  0
 11 33  1  0  0  0  0
 12 34  1  0  0  0  0
 15 35  1  0  0  0  0
 16 36  1  0  0  0  0
 18 37  1  0  0  0  0
 19 38  1  0  0  0  0
 20 39  1  0  0  0  0
M  END
$$$$
