SPD
 OpenBabel04111921233D

 32 31  0  0  0  0  0  0  0  0999 V2000
   17.0475   -0.6829   -3.4185 N   0  3  0  0  0  0  0  0  0  0  0  0
   18.0275   -0.7626   -4.5219 C   0  0  0  0  0  0  0  0  0  0  0  0
   18.5140    0.6455   -4.8405 C   0  0  0  0  0  0  0  0  0  0  0  0
   19.9212    0.8470   -4.2965 C   0  0  0  0  0  0  0  0  0  0  0  0
   19.9067    1.9247   -3.2389 C   0  0  0  0  0  0  0  0  0  0  0  0
   20.9635    2.9006   -3.5248 N   0  3  0  0  0  0  0  0  0  0  0  0
   20.8825    3.8642   -4.6501 C   0  0  0  0  0  0  0  0  0  0  0  0
   21.9199    4.9212   -4.3090 C   0  0  0  0  0  0  0  0  0  0  0  0
   21.5880    6.2749   -4.8918 C   0  0  0  0  0  0  0  0  0  0  0  0
   20.7119    6.9575   -3.9246 N   0  3  0  0  0  0  0  0  0  0  0  0
   16.6950   -1.6428   -3.1925 H   0  0  0  0  0  0  0  0  0  0  0  0
   17.4170   -0.3095   -2.5499 H   0  0  0  0  0  0  0  0  0  0  0  0
   17.5370   -1.2067   -5.3773 H   0  0  0  0  0  0  0  0  0  0  0  0
   18.8369   -1.4072   -4.1662 H   0  0  0  0  0  0  0  0  0  0  0  0
   17.8270    1.4029   -4.4640 H   0  0  0  0  0  0  0  0  0  0  0  0
   18.5585    0.7591   -5.9334 H   0  0  0  0  0  0  0  0  0  0  0  0
   20.5951    1.0995   -5.1117 H   0  0  0  0  0  0  0  0  0  0  0  0
   20.2953   -0.0723   -3.8329 H   0  0  0  0  0  0  0  0  0  0  0  0
   20.1402    1.5013   -2.2534 H   0  0  0  0  0  0  0  0  0  0  0  0
   18.9705    2.4775   -3.1808 H   0  0  0  0  0  0  0  0  0  0  0  0
   21.0720    3.4328   -2.6352 H   0  0  0  0  0  0  0  0  0  0  0  0
   19.8569    4.2642   -4.6916 H   0  0  0  0  0  0  0  0  0  0  0  0
   21.1214    3.3364   -5.5822 H   0  0  0  0  0  0  0  0  0  0  0  0
   22.8902    4.5909   -4.6894 H   0  0  0  0  0  0  0  0  0  0  0  0
   22.0201    5.0174   -3.2198 H   0  0  0  0  0  0  0  0  0  0  0  0
   21.0384    6.1907   -5.8359 H   0  0  0  0  0  0  0  0  0  0  0  0
   22.4877    6.8809   -5.0119 H   0  0  0  0  0  0  0  0  0  0  0  0
   20.4721    7.9083   -4.2578 H   0  0  0  0  0  0  0  0  0  0  0  0
   19.8285    6.4855   -3.7520 H   0  0  0  0  0  0  0  0  0  0  0  0
   16.2069   -0.1511   -3.6886 H   0  0  0  0  0  0  0  0  0  0  0  0
   21.8687    2.3829   -3.6136 H   0  0  0  0  0  0  0  0  0  0  0  0
   21.1898    7.1201   -3.0159 H   0  0  0  0  0  0  0  0  0  0  0  0
  1  2  1  0  0  0  0
  1 11  1  0  0  0  0
  1 12  1  0  0  0  0
  1 30  1  0  0  0  0
  2  3  1  0  0  0  0
  2 13  1  0  0  0  0
  2 14  1  0  0  0  0
  3  4  1  0  0  0  0
  3 15  1  0  0  0  0
  3 16  1  0  0  0  0
  4  5  1  0  0  0  0
  4 17  1  0  0  0  0
  4 18  1  0  0  0  0
  5  6  1  0  0  0  0
  5 19  1  0  0  0  0
  5 20  1  0  0  0  0
  6  7  1  0  0  0  0
  6 21  1  0  0  0  0
  6 31  1  0  0  0  0
  7  8  1  0  0  0  0
  7 22  1  0  0  0  0
  7 23  1  0  0  0  0
  8  9  1  0  0  0  0
  8 24  1  0  0  0  0
  8 25  1  0  0  0  0
  9 10  1  0  0  0  0
  9 26  1  0  0  0  0
  9 27  1  0  0  0  0
 10 28  1  0  0  0  0
 10 29  1  0  0  0  0
 10 32  1  0  0  0  0
M  CHG  3   1   1   6   1  10   1
M  END
$$$$
