SQO
 OpenBabel04111921153D

 42 45  0  0  0  0  0  0  0  0999 V2000
  106.8979   17.7440   24.4631 N   0  3  0  0  0  0  0  0  0  0  0  0
  105.3962   17.3380   22.7104 N   0  0  0  0  0  0  0  0  0  0  0  0
  106.4042   17.6884   21.7949 C   0  0  0  0  0  0  0  0  0  0  0  0
  107.6887   18.0468   22.2077 C   0  0  0  0  0  0  0  0  0  0  0  0
  107.9653   18.1005   23.6629 C   0  0  0  0  0  0  0  0  0  0  0  0
  108.6730   18.3939   21.2742 C   0  0  0  0  0  0  0  0  0  0  0  0
  108.3182   18.4351   19.9078 C   0  0  0  0  0  0  0  0  0  0  0  0
  106.0693   17.6969   20.4331 C   0  0  0  0  0  0  0  0  0  0  0  0
  109.0398   18.8004   18.8010 N   0  0  0  0  0  0  0  0  0  0  0  0
  108.2190   18.7281   17.7726 C   0  0  0  0  0  0  0  0  0  0  0  0
  105.6778   17.3839   23.9680 C   0  0  0  0  0  0  0  0  0  0  0  0
  107.0338   18.1014   19.5139 C   0  0  0  0  0  0  0  0  0  0  0  0
  106.9691   18.2903   18.1481 N   0  3  0  0  0  0  0  0  0  0  0  0
  108.5600   19.0355   16.5219 N   0  0  0  0  0  0  0  0  0  0  0  0
  109.0460   18.4545   24.1157 O   0  0  0  0  0  0  0  0  0  0  0  0
  107.6512   18.9905   15.4223 C   0  0  0  0  0  0  0  0  0  0  0  0
  108.3964   19.2137   14.1181 C   0  0  0  0  0  0  0  0  0  0  0  0
  107.4426   19.2559   12.9799 N   0  3  0  0  0  0  0  0  0  0  0  0
  108.1059   18.8601   11.6922 C   0  0  0  0  0  0  0  0  0  0  0  0
  107.0794   18.8983   10.5778 C   0  0  0  0  0  0  0  0  0  0  0  0
  106.5063   20.2015   10.4507 O   0  0  0  0  0  0  0  0  0  0  0  0
  105.8536   20.5903   11.6609 C   0  0  0  0  0  0  0  0  0  0  0  0
  106.8255   20.6179   12.8226 C   0  0  0  0  0  0  0  0  0  0  0  0
  107.0602   17.7751   25.4571 H   0  0  0  0  0  0  0  0  0  0  0  0
  109.6721   18.6484   21.6082 H   0  0  0  0  0  0  0  0  0  0  0  0
  105.0834   17.4268   20.0970 H   0  0  0  0  0  0  0  0  0  0  0  0
  104.9197   17.1236   24.7193 H   0  0  0  0  0  0  0  0  0  0  0  0
  106.1793   18.1547   17.5609 H   0  0  0  0  0  0  0  0  0  0  0  0
  109.5290   19.3301   16.3923 H   0  0  0  0  0  0  0  0  0  0  0  0
  106.8891   19.7685   15.5348 H   0  0  0  0  0  0  0  0  0  0  0  0
  107.1599   18.0113   15.3770 H   0  0  0  0  0  0  0  0  0  0  0  0
  109.0948   18.3923   13.9416 H   0  0  0  0  0  0  0  0  0  0  0  0
  108.9306   20.1659   14.1406 H   0  0  0  0  0  0  0  0  0  0  0  0
  108.4944   17.8498   11.8175 H   0  0  0  0  0  0  0  0  0  0  0  0
  108.9089   19.5763   11.5087 H   0  0  0  0  0  0  0  0  0  0  0  0
  106.2853   18.1749   10.7842 H   0  0  0  0  0  0  0  0  0  0  0  0
  107.5843   18.6399    9.6476 H   0  0  0  0  0  0  0  0  0  0  0  0
  105.0447   19.8864   11.8763 H   0  0  0  0  0  0  0  0  0  0  0  0
  105.4489   21.5943   11.5391 H   0  0  0  0  0  0  0  0  0  0  0  0
  107.6394   21.3216   12.6346 H   0  0  0  0  0  0  0  0  0  0  0  0
  106.3051   20.8562   13.7489 H   0  0  0  0  0  0  0  0  0  0  0  0
  106.6855   18.5830   13.1553 H   0  0  0  0  0  0  0  0  0  0  0  0
  1  5  1  0  0  0  0
  1 11  1  0  0  0  0
  1 24  1  0  0  0  0
  2  3  1  0  0  0  0
  2 11  2  0  0  0  0
  3  4  2  0  0  0  0
  3  8  1  0  0  0  0
  4  5  1  0  0  0  0
  4  6  1  0  0  0  0
  5 15  2  0  0  0  0
  6  7  2  0  0  0  0
  6 25  1  0  0  0  0
  7  9  1  0  0  0  0
  7 12  1  0  0  0  0
  8 12  2  0  0  0  0
  8 26  1  0  0  0  0
  9 10  1  0  0  0  0
 10 13  2  0  0  0  0
 10 14  1  0  0  0  0
 11 27  1  0  0  0  0
 12 13  1  0  0  0  0
 13 28  1  0  0  0  0
 14 16  1  0  0  0  0
 14 29  1  0  0  0  0
 16 17  1  0  0  0  0
 16 30  1  0  0  0  0
 16 31  1  0  0  0  0
 17 18  1  0  0  0  0
 17 32  1  0  0  0  0
 17 33  1  0  0  0  0
 18 19  1  0  0  0  0
 18 23  1  0  0  0  0
 18 42  1  0  0  0  0
 19 20  1  0  0  0  0
 19 34  1  0  0  0  0
 19 35  1  0  0  0  0
 20 21  1  0  0  0  0
 20 36  1  0  0  0  0
 20 37  1  0  0  0  0
 21 22  1  0  0  0  0
 22 23  1  0  0  0  0
 22 38  1  0  0  0  0
 22 39  1  0  0  0  0
 23 40  1  0  0  0  0
 23 41  1  0  0  0  0
M  CHG  3   1   1  13   1  18   1
M  END
$$$$
