STE
 OpenBabel04111918553D

 55 54  0  0  0  0  0  0  0  0999 V2000
  -33.7998  -17.7034  -40.6005 C   0  0  0  0  0  0  0  0  0  0  0  0
  -32.5764  -17.4421  -40.4784 O   0  0  0  0  0  0  0  0  0  0  0  0
  -34.7735  -16.9065  -40.7768 O   0  0  0  0  0  0  0  0  0  0  0  0
  -34.1457  -19.1896  -40.5159 C   0  0  0  0  0  0  0  0  0  0  0  0
  -35.5921  -19.5520  -40.8657 C   0  0  0  0  0  0  0  0  0  0  0  0
  -35.7003  -20.9978  -41.3470 C   0  0  0  0  0  0  0  0  0  0  0  0
  -37.1309  -21.5675  -41.4251 C   0  0  0  0  0  0  0  0  0  0  0  0
  -37.3542  -22.7246  -42.4485 C   0  0  0  0  0  0  0  0  0  0  0  0
  -36.8675  -24.1094  -41.9909 C   0  0  0  0  0  0  0  0  0  0  0  0
  -36.1467  -25.0037  -43.0340 C   0  0  0  0  0  0  0  0  0  0  0  0
  -34.9324  -24.4610  -43.8332 C   0  0  0  0  0  0  0  0  0  0  0  0
  -34.4273  -23.1045  -43.3648 C   0  0  0  0  0  0  0  0  0  0  0  0
  -32.9541  -22.7919  -43.1652 C   0  0  0  0  0  0  0  0  0  0  0  0
  -32.1733  -23.8257  -42.3456 C   0  0  0  0  0  0  0  0  0  0  0  0
  -32.0544  -23.5619  -40.8318 C   0  0  0  0  0  0  0  0  0  0  0  0
  -33.3516  -23.6794  -40.0200 C   0  0  0  0  0  0  0  0  0  0  0  0
  -33.4123  -24.9311  -39.1395 C   0  0  0  0  0  0  0  0  0  0  0  0
  -34.8500  -25.2881  -38.7161 C   0  0  0  0  0  0  0  0  0  0  0  0
  -35.0516  -26.8035  -38.5969 C   0  0  0  0  0  0  0  0  0  0  0  0
  -36.4339  -27.2402  -39.0647 C   0  0  0  0  0  0  0  0  0  0  0  0
  -33.9220  -19.5167  -39.4919 H   0  0  0  0  0  0  0  0  0  0  0  0
  -33.4424  -19.7105  -41.1753 H   0  0  0  0  0  0  0  0  0  0  0  0
  -35.9580  -18.9086  -41.6735 H   0  0  0  0  0  0  0  0  0  0  0  0
  -36.2342  -19.3849  -39.9918 H   0  0  0  0  0  0  0  0  0  0  0  0
  -35.0965  -21.6352  -40.6941 H   0  0  0  0  0  0  0  0  0  0  0  0
  -35.2553  -20.9800  -42.3442 H   0  0  0  0  0  0  0  0  0  0  0  0
  -37.8068  -20.7572  -41.7068 H   0  0  0  0  0  0  0  0  0  0  0  0
  -37.4274  -21.9078  -40.4284 H   0  0  0  0  0  0  0  0  0  0  0  0
  -36.9413  -22.4463  -43.4211 H   0  0  0  0  0  0  0  0  0  0  0  0
  -38.4394  -22.8034  -42.6124 H   0  0  0  0  0  0  0  0  0  0  0  0
  -37.7254  -24.6803  -41.6087 H   0  0  0  0  0  0  0  0  0  0  0  0
  -36.2180  -23.9956  -41.1262 H   0  0  0  0  0  0  0  0  0  0  0  0
  -36.8897  -25.3868  -43.7475 H   0  0  0  0  0  0  0  0  0  0  0  0
  -35.7963  -25.8978  -42.4926 H   0  0  0  0  0  0  0  0  0  0  0  0
  -35.2380  -24.3684  -44.8845 H   0  0  0  0  0  0  0  0  0  0  0  0
  -34.1404  -25.2155  -43.8394 H   0  0  0  0  0  0  0  0  0  0  0  0
  -34.8367  -22.9580  -42.3848 H   0  0  0  0  0  0  0  0  0  0  0  0
  -34.8503  -22.3376  -44.0253 H   0  0  0  0  0  0  0  0  0  0  0  0
  -32.8868  -21.8141  -42.6664 H   0  0  0  0  0  0  0  0  0  0  0  0
  -32.4933  -22.6553  -44.1488 H   0  0  0  0  0  0  0  0  0  0  0  0
  -31.1527  -23.8170  -42.7490 H   0  0  0  0  0  0  0  0  0  0  0  0
  -32.5580  -24.8338  -42.5122 H   0  0  0  0  0  0  0  0  0  0  0  0
  -31.6297  -22.5624  -40.6823 H   0  0  0  0  0  0  0  0  0  0  0  0
  -31.3151  -24.2703  -40.4382 H   0  0  0  0  0  0  0  0  0  0  0  0
  -34.1970  -23.7057  -40.6938 H   0  0  0  0  0  0  0  0  0  0  0  0
  -33.4716  -22.7919  -39.3879 H   0  0  0  0  0  0  0  0  0  0  0  0
  -32.8020  -24.7751  -38.2399 H   0  0  0  0  0  0  0  0  0  0  0  0
  -32.9683  -25.7630  -39.6902 H   0  0  0  0  0  0  0  0  0  0  0  0
  -35.5701  -24.8890  -39.4298 H   0  0  0  0  0  0  0  0  0  0  0  0
  -35.0899  -24.8064  -37.7596 H   0  0  0  0  0  0  0  0  0  0  0  0
  -34.8989  -27.1125  -37.5568 H   0  0  0  0  0  0  0  0  0  0  0  0
  -34.3160  -27.3446  -39.2023 H   0  0  0  0  0  0  0  0  0  0  0  0
  -36.5347  -28.3265  -38.9760 H   0  0  0  0  0  0  0  0  0  0  0  0
  -36.5892  -26.9786  -40.1167 H   0  0  0  0  0  0  0  0  0  0  0  0
  -37.2251  -26.7711  -38.4725 H   0  0  0  0  0  0  0  0  0  0  0  0
  1  2  2  0  0  0  0
  1  3  1  0  0  0  0
  1  4  1  0  0  0  0
  4  5  1  0  0  0  0
  4 21  1  0  0  0  0
  4 22  1  0  0  0  0
  5  6  1  0  0  0  0
  5 23  1  0  0  0  0
  5 24  1  0  0  0  0
  6  7  1  0  0  0  0
  6 25  1  0  0  0  0
  6 26  1  0  0  0  0
  7  8  1  0  0  0  0
  7 27  1  0  0  0  0
  7 28  1  0  0  0  0
  8  9  1  0  0  0  0
  8 29  1  0  0  0  0
  8 30  1  0  0  0  0
  9 10  1  0  0  0  0
  9 31  1  0  0  0  0
  9 32  1  0  0  0  0
 10 11  1  0  0  0  0
 10 33  1  0  0  0  0
 10 34  1  0  0  0  0
 11 12  1  0  0  0  0
 11 35  1  0  0  0  0
 11 36  1  0  0  0  0
 12 13  1  0  0  0  0
 12 37  1  0  0  0  0
 12 38  1  0  0  0  0
 13 14  1  0  0  0  0
 13 39  1  0  0  0  0
 13 40  1  0  0  0  0
 14 15  1  0  0  0  0
 14 41  1  0  0  0  0
 14 42  1  0  0  0  0
 15 16  1  0  0  0  0
 15 43  1  0  0  0  0
 15 44  1  0  0  0  0
 16 17  1  0  0  0  0
 16 45  1  0  0  0  0
 16 46  1  0  0  0  0
 17 18  1  0  0  0  0
 17 47  1  0  0  0  0
 17 48  1  0  0  0  0
 18 19  1  0  0  0  0
 18 49  1  0  0  0  0
 18 50  1  0  0  0  0
 19 20  1  0  0  0  0
 19 51  1  0  0  0  0
 19 52  1  0  0  0  0
 20 53  1  0  0  0  0
 20 54  1  0  0  0  0
 20 55  1  0  0  0  0
M  END
$$$$
