STL
 OpenBabel04111921223D

 29 30  0  0  0  0  0  0  0  0999 V2000
   -4.6052   18.2869    5.4963 C   0  0  0  0  0  0  0  0  0  0  0  0
   -4.3903   18.0756    6.8528 C   0  0  0  0  0  0  0  0  0  0  0  0
   -4.6285   19.1035    7.7563 C   0  0  0  0  0  0  0  0  0  0  0  0
   -5.0733   20.3624    7.3209 C   0  0  0  0  0  0  0  0  0  0  0  0
   -5.2895   20.5984    5.9424 C   0  0  0  0  0  0  0  0  0  0  0  0
   -5.0635   19.5361    5.0330 C   0  0  0  0  0  0  0  0  0  0  0  0
   -5.8485   21.8899    5.4882 C   0  0  0  0  0  0  0  0  0  0  0  0
   -5.2705   22.8577    4.7472 C   0  0  0  0  0  0  0  0  0  0  0  0
   -6.1257   24.0025    4.3628 C   0  0  0  0  0  0  0  0  0  0  0  0
   -6.2265   24.3827    3.0250 C   0  0  0  0  0  0  0  0  0  0  0  0
   -7.0914   25.4403    2.6709 C   0  0  0  0  0  0  0  0  0  0  0  0
   -7.8119   26.1347    3.6452 C   0  0  0  0  0  0  0  0  0  0  0  0
   -7.7048   25.7923    4.9902 C   0  0  0  0  0  0  0  0  0  0  0  0
   -6.8892   24.6989    5.3290 C   0  0  0  0  0  0  0  0  0  0  0  0
   -8.6174   27.1642    3.2419 O   0  0  0  0  0  0  0  0  0  0  0  0
   -4.3740   18.8294    9.0711 O   0  0  0  0  0  0  0  0  0  0  0  0
   -4.3631   17.2582    4.6566 O   0  0  0  0  0  0  0  0  0  0  0  0
   -4.0432   17.1061    7.2032 H   0  0  0  0  0  0  0  0  0  0  0  0
   -5.2304   21.1691    8.0377 H   0  0  0  0  0  0  0  0  0  0  0  0
   -5.2647   19.6869    3.9751 H   0  0  0  0  0  0  0  0  0  0  0  0
   -6.8954   22.0281    5.7537 H   0  0  0  0  0  0  0  0  0  0  0  0
   -4.2311   22.8081    4.4298 H   0  0  0  0  0  0  0  0  0  0  0  0
   -5.6542   23.8609    2.2591 H   0  0  0  0  0  0  0  0  0  0  0  0
   -7.2131   25.7110    1.6252 H   0  0  0  0  0  0  0  0  0  0  0  0
   -8.2248   26.3516    5.7647 H   0  0  0  0  0  0  0  0  0  0  0  0
   -6.8460   24.3808    6.3712 H   0  0  0  0  0  0  0  0  0  0  0  0
   -9.5328   26.9520    3.5029 H   0  0  0  0  0  0  0  0  0  0  0  0
   -5.1823   18.9806    9.5888 H   0  0  0  0  0  0  0  0  0  0  0  0
   -4.0354   16.4960    5.1579 H   0  0  0  0  0  0  0  0  0  0  0  0
  1  2  2  0  0  0  0
  1  6  1  0  0  0  0
  1 17  1  0  0  0  0
  2  3  1  0  0  0  0
  2 18  1  0  0  0  0
  3  4  2  0  0  0  0
  3 16  1  0  0  0  0
  4  5  1  0  0  0  0
  4 19  1  0  0  0  0
  5  6  2  0  0  0  0
  5  7  1  0  0  0  0
  6 20  1  0  0  0  0
  7  8  2  0  0  0  0
  7 21  1  0  0  0  0
  8  9  1  0  0  0  0
  8 22  1  0  0  0  0
  9 10  2  0  0  0  0
  9 14  1  0  0  0  0
 10 11  1  0  0  0  0
 10 23  1  0  0  0  0
 11 12  2  0  0  0  0
 11 24  1  0  0  0  0
 12 13  1  0  0  0  0
 12 15  1  0  0  0  0
 13 14  2  0  0  0  0
 13 25  1  0  0  0  0
 14 26  1  0  0  0  0
 15 27  1  0  0  0  0
 16 28  1  0  0  0  0
 17 29  1  0  0  0  0
M  END
$$$$
