STL
 OpenBabel04111921193D

 29 30  0  0  0  0  0  0  0  0999 V2000
  -10.5081    9.6119   -7.4598 C   0  0  0  0  0  0  0  0  0  0  0  0
   -9.1238    9.6708   -7.2817 C   0  0  0  0  0  0  0  0  0  0  0  0
   -8.4229   10.7830   -7.7545 C   0  0  0  0  0  0  0  0  0  0  0  0
   -9.0971   11.8150   -8.3928 C   0  0  0  0  0  0  0  0  0  0  0  0
  -10.4861   11.7341   -8.5829 C   0  0  0  0  0  0  0  0  0  0  0  0
  -11.2082   10.6314   -8.0995 C   0  0  0  0  0  0  0  0  0  0  0  0
  -11.2509   12.7226   -9.3177 C   0  0  0  0  0  0  0  0  0  0  0  0
  -10.9918   13.3041  -10.5041 C   0  0  0  0  0  0  0  0  0  0  0  0
   -9.7007   13.4193  -11.2036 C   0  0  0  0  0  0  0  0  0  0  0  0
   -9.0259   12.3078  -11.6939 C   0  0  0  0  0  0  0  0  0  0  0  0
   -7.7778   12.4423  -12.3313 C   0  0  0  0  0  0  0  0  0  0  0  0
   -7.2142   13.7119  -12.4665 C   0  0  0  0  0  0  0  0  0  0  0  0
   -7.8850   14.8324  -11.9961 C   0  0  0  0  0  0  0  0  0  0  0  0
   -9.1318   14.6815  -11.3712 C   0  0  0  0  0  0  0  0  0  0  0  0
   -6.0045   13.8807  -13.0790 O   0  0  0  0  0  0  0  0  0  0  0  0
   -7.0570   10.8426   -7.6123 O   0  0  0  0  0  0  0  0  0  0  0  0
  -11.2105    8.5215   -7.0201 O   0  0  0  0  0  0  0  0  0  0  0  0
   -8.5986    8.8765   -6.7706 H   0  0  0  0  0  0  0  0  0  0  0  0
   -8.5602   12.6778   -8.7759 H   0  0  0  0  0  0  0  0  0  0  0  0
  -12.2741   10.5634   -8.2349 H   0  0  0  0  0  0  0  0  0  0  0  0
  -12.2278   12.9538   -8.8616 H   0  0  0  0  0  0  0  0  0  0  0  0
  -11.8326   13.7754  -11.0035 H   0  0  0  0  0  0  0  0  0  0  0  0
   -9.4406   11.3059  -11.5612 H   0  0  0  0  0  0  0  0  0  0  0  0
   -7.2548   11.5523  -12.6744 H   0  0  0  0  0  0  0  0  0  0  0  0
   -7.4239   15.8139  -12.1007 H   0  0  0  0  0  0  0  0  0  0  0  0
   -9.6271   15.5784  -10.9840 H   0  0  0  0  0  0  0  0  0  0  0  0
   -5.6834   13.0138  -13.3427 H   0  0  0  0  0  0  0  0  0  0  0  0
   -6.8212   11.7154   -7.2385 H   0  0  0  0  0  0  0  0  0  0  0  0
  -11.7469    8.2165   -7.7828 H   0  0  0  0  0  0  0  0  0  0  0  0
  1  2  2  0  0  0  0
  1  6  1  0  0  0  0
  1 17  1  0  0  0  0
  2  3  1  0  0  0  0
  2 18  1  0  0  0  0
  3  4  2  0  0  0  0
  3 16  1  0  0  0  0
  4  5  1  0  0  0  0
  4 19  1  0  0  0  0
  5  6  2  0  0  0  0
  5  7  1  0  0  0  0
  6 20  1  0  0  0  0
  7  8  2  0  0  0  0
  7 21  1  0  0  0  0
  8  9  1  0  0  0  0
  8 22  1  0  0  0  0
  9 10  2  0  0  0  0
  9 14  1  0  0  0  0
 10 11  1  0  0  0  0
 10 23  1  0  0  0  0
 11 12  2  0  0  0  0
 11 24  1  0  0  0  0
 12 13  1  0  0  0  0
 12 15  1  0  0  0  0
 13 14  2  0  0  0  0
 13 25  1  0  0  0  0
 14 26  1  0  0  0  0
 15 27  1  0  0  0  0
 16 28  1  0  0  0  0
 17 29  1  0  0  0  0
M  END
$$$$
