SW2
 OpenBabel04111917383D

 26 27  0  0  0  0  0  0  0  0999 V2000
    1.7915  -15.9588   18.3674 C   0  0  0  0  0  0  0  0  0  0  0  0
    3.0711  -15.8013   19.0872 N   0  3  0  0  0  0  0  0  0  0  0  0
    1.7402  -15.1063   17.1381 C   0  0  0  0  0  0  0  0  0  0  0  0
    3.0785  -11.9780   15.6004 N   0  3  0  0  0  0  0  0  0  0  0  0
    1.0560  -15.6087   16.0358 C   0  0  0  0  0  0  0  0  0  0  0  0
    1.0807  -14.9513   14.8077 C   0  0  0  0  0  0  0  0  0  0  0  0
    1.7091  -13.7237   14.6802 C   0  0  0  0  0  0  0  0  0  0  0  0
    2.3790  -13.1959   15.7729 C   0  0  0  0  0  0  0  0  0  0  0  0
    2.8733  -11.0341   14.6005 C   0  0  0  0  0  0  0  0  0  0  0  0
    3.7281   -9.9742   14.7905 C   0  0  0  0  0  0  0  0  0  0  0  0
    4.4732  -10.3093   15.9255 C   0  0  0  0  0  0  0  0  0  0  0  0
    4.1200  -11.5491   16.3882 C   0  0  0  0  0  0  0  0  0  0  0  0
    2.4007  -13.8822   16.9996 C   0  0  0  0  0  0  0  0  0  0  0  0
    0.9809  -15.7265   19.0648 H   0  0  0  0  0  0  0  0  0  0  0  0
    1.7297  -17.0173   18.0815 H   0  0  0  0  0  0  0  0  0  0  0  0
    3.1227  -16.4109   19.9080 H   0  0  0  0  0  0  0  0  0  0  0  0
    3.8611  -16.0212   18.4663 H   0  0  0  0  0  0  0  0  0  0  0  0
    0.5276  -16.5545   16.1117 H   0  0  0  0  0  0  0  0  0  0  0  0
    0.6097  -15.4165   13.9491 H   0  0  0  0  0  0  0  0  0  0  0  0
    1.7175  -13.2128   13.7211 H   0  0  0  0  0  0  0  0  0  0  0  0
    2.1167  -11.1461   13.8353 H   0  0  0  0  0  0  0  0  0  0  0  0
    3.7974   -9.0736   14.1846 H   0  0  0  0  0  0  0  0  0  0  0  0
    5.2551   -9.6980   16.3780 H   0  0  0  0  0  0  0  0  0  0  0  0
    4.5454  -12.1248   17.1813 H   0  0  0  0  0  0  0  0  0  0  0  0
    2.9549  -13.4592   17.8295 H   0  0  0  0  0  0  0  0  0  0  0  0
    3.1824  -14.8340   19.4057 H   0  0  0  0  0  0  0  0  0  0  0  0
  1  2  1  0  0  0  0
  1  3  1  0  0  0  0
  1 14  1  0  0  0  0
  1 15  1  0  0  0  0
  2 16  1  0  0  0  0
  2 17  1  0  0  0  0
  2 26  1  0  0  0  0
  3  5  2  0  0  0  0
  3 13  1  0  0  0  0
  4  8  1  0  0  0  0
  4  9  1  0  0  0  0
  4 12  1  0  0  0  0
  5  6  1  0  0  0  0
  5 18  1  0  0  0  0
  6  7  2  0  0  0  0
  6 19  1  0  0  0  0
  7  8  1  0  0  0  0
  7 20  1  0  0  0  0
  8 13  2  0  0  0  0
  9 10  1  0  0  0  0
  9 21  1  0  0  0  0
 10 11  1  0  0  0  0
 10 22  1  0  0  0  0
 11 12  1  0  0  0  0
 11 23  1  0  0  0  0
 12 24  1  0  0  0  0
 13 25  1  0  0  0  0
M  CHG  2   2   1   4   1
M  END
$$$$
