SW4
 OpenBabel04111917553D

 39 41  0  0  1  0  0  0  0  0999 V2000
   13.5874   31.6280   22.2837 O   0  0  0  0  0  0  0  0  0  0  0  0
   14.1915   30.9036   23.3445 C   0  0  0  0  0  0  0  0  0  0  0  0
   14.1874   29.4222   23.0222 C   0  0  0  0  0  0  0  0  0  0  0  0
   15.2427   28.9141   22.0631 C   0  0  1  0  0  0  0  0  0  0  0  0
   16.2085   27.8691   22.5434 C   0  0  0  0  0  0  0  0  0  0  0  0
   15.0221   27.4719   21.6971 C   0  0  2  0  0  0  0  0  0  0  0  0
   15.3019   26.6538   20.4825 C   0  0  0  0  0  0  0  0  0  0  0  0
   14.9630   25.2788   20.5149 C   0  0  0  0  0  0  0  0  0  0  0  0
   15.1174   24.4003   19.5019 N   0  0  0  0  0  0  0  0  0  0  0  0
   15.6631   24.8973   18.3754 C   0  0  0  0  0  0  0  0  0  0  0  0
   16.0619   26.2205   18.2436 C   0  0  0  0  0  0  0  0  0  0  0  0
   16.6653   26.5689   17.0686 O   0  0  0  0  0  0  0  0  0  0  0  0
   17.4544   27.7633   17.1347 C   0  0  0  0  0  0  0  0  0  0  0  0
   18.1254   27.9785   15.7783 C   0  0  2  0  0  0  0  0  0  0  0  0
   17.3611   27.4411   14.5574 C   0  0  0  0  0  0  0  0  0  0  0  0
   18.2924   26.2255   14.6300 C   0  0  0  0  0  0  0  0  0  0  0  0
   19.1960   26.9892   15.5090 N   0  3  0  0  0  0  0  0  0  0  0  0
   15.8443   27.1071   19.3032 C   0  0  0  0  0  0  0  0  0  0  0  0
   13.4740   32.5399   22.6048 H   0  0  0  0  0  0  0  0  0  0  0  0
   13.5792   31.0547   24.2435 H   0  0  0  0  0  0  0  0  0  0  0  0
   15.1944   31.2856   23.5209 H   0  0  0  0  0  0  0  0  0  0  0  0
   13.2058   29.1490   22.6111 H   0  0  0  0  0  0  0  0  0  0  0  0
   14.3032   28.8768   23.9661 H   0  0  0  0  0  0  0  0  0  0  0  0
   15.6210   29.6615   21.3612 H   0  0  0  0  0  0  0  0  0  0  0  0
   16.1871   27.5340   23.5746 H   0  0  0  0  0  0  0  0  0  0  0  0
   17.2077   27.8843   22.1200 H   0  0  0  0  0  0  0  0  0  0  0  0
   14.1182   27.1098   22.1877 H   0  0  0  0  0  0  0  0  0  0  0  0
   14.5442   24.8556   21.4177 H   0  0  0  0  0  0  0  0  0  0  0  0
   15.7488   24.1756   17.5634 H   0  0  0  0  0  0  0  0  0  0  0  0
   18.2198   27.6475   17.9124 H   0  0  0  0  0  0  0  0  0  0  0  0
   16.8300   28.6360   17.3463 H   0  0  0  0  0  0  0  0  0  0  0  0
   18.4904   29.0060   15.6643 H   0  0  0  0  0  0  0  0  0  0  0  0
   17.4652   28.0452   13.6557 H   0  0  0  0  0  0  0  0  0  0  0  0
   16.2988   27.2259   14.7154 H   0  0  0  0  0  0  0  0  0  0  0  0
   18.7563   25.9327   13.6881 H   0  0  0  0  0  0  0  0  0  0  0  0
   17.8877   25.3428   15.1370 H   0  0  0  0  0  0  0  0  0  0  0  0
   20.0090   27.3852   15.0225 H   0  0  0  0  0  0  0  0  0  0  0  0
   16.0959   28.1627   19.2404 H   0  0  0  0  0  0  0  0  0  0  0  0
   19.5039   26.4669   16.3351 H   0  0  0  0  0  0  0  0  0  0  0  0
  1  2  1  0  0  0  0
  1 19  1  0  0  0  0
  2  3  1  0  0  0  0
  2 20  1  0  0  0  0
  2 21  1  0  0  0  0
  3  4  1  0  0  0  0
  3 22  1  0  0  0  0
  3 23  1  0  0  0  0
  4  5  1  0  0  0  0
  4  6  1  0  0  0  0
  4 24  1  6  0  0  0
  5  6  1  0  0  0  0
  5 25  1  0  0  0  0
  5 26  1  0  0  0  0
  6  7  1  0  0  0  0
  6 27  1  1  0  0  0
  7  8  2  0  0  0  0
  7 18  1  0  0  0  0
  8  9  1  0  0  0  0
  8 28  1  0  0  0  0
  9 10  2  0  0  0  0
 10 11  1  0  0  0  0
 10 29  1  0  0  0  0
 11 12  1  0  0  0  0
 11 18  2  0  0  0  0
 12 13  1  0  0  0  0
 13 14  1  0  0  0  0
 13 30  1  0  0  0  0
 13 31  1  0  0  0  0
 14 15  1  0  0  0  0
 14 17  1  0  0  0  0
 14 32  1  6  0  0  0
 15 16  1  0  0  0  0
 15 33  1  0  0  0  0
 15 34  1  0  0  0  0
 16 17  1  0  0  0  0
 16 35  1  0  0  0  0
 16 36  1  0  0  0  0
 17 37  1  0  0  0  0
 17 39  1  0  0  0  0
 18 38  1  0  0  0  0
M  CHG  1  17   1
M  END
$$$$
