T21
 OpenBabel04111922393D

 28 30  0  0  0  0  0  0  0  0999 V2000
   13.4405   -6.0443    0.3529 C   0  0  0  0  0  0  0  0  0  0  0  0
   12.1865   -5.3125   -3.5271 C   0  0  0  0  0  0  0  0  0  0  0  0
   12.7337   -6.9468   -0.3509 C   0  0  0  0  0  0  0  0  0  0  0  0
   12.7097   -5.3442   -2.2237 C   0  0  0  0  0  0  0  0  0  0  0  0
    9.4872  -10.4258   -6.1655 C   0  0  0  0  0  0  0  0  0  0  0  0
    9.4146   -8.0766   -7.0840 C   0  0  0  0  0  0  0  0  0  0  0  0
    9.7030   -6.7193   -6.9936 C   0  0  0  0  0  0  0  0  0  0  0  0
   10.3904   -6.2282   -5.8840 C   0  0  0  0  0  0  0  0  0  0  0  0
   10.7993   -7.0788   -4.8449 C   0  0  0  0  0  0  0  0  0  0  0  0
    9.3318  -10.8531   -7.4506 F   0  0  0  0  0  0  0  0  0  0  0  0
    8.3291  -10.7457   -5.5253 F   0  0  0  0  0  0  0  0  0  0  0  0
   10.4482  -11.2250   -5.6256 F   0  0  0  0  0  0  0  0  0  0  0  0
    9.8128   -8.9563   -6.0661 C   0  0  0  0  0  0  0  0  0  0  0  0
   10.4935   -8.4444   -4.9425 C   0  0  0  0  0  0  0  0  0  0  0  0
   11.5434   -6.5214   -3.7181 C   0  0  0  0  0  0  0  0  0  0  0  0
   13.4718   -4.3831   -1.4551 C   0  0  0  0  0  0  0  0  0  0  0  0
   13.8056   -3.2822   -1.8811 O   0  0  0  0  0  0  0  0  0  0  0  0
   13.7955   -4.8145   -0.1759 N   0  3  0  0  0  0  0  0  0  0  0  0
   11.6602   -7.2924   -2.5901 O   0  0  0  0  0  0  0  0  0  0  0  0
   12.3719   -6.5687   -1.6679 C   0  0  0  0  0  0  0  0  0  0  0  0
   13.7660   -6.2363    1.3715 H   0  0  0  0  0  0  0  0  0  0  0  0
   12.2703   -4.5044   -4.2403 H   0  0  0  0  0  0  0  0  0  0  0  0
   12.4460   -7.9123    0.0461 H   0  0  0  0  0  0  0  0  0  0  0  0
    8.8797   -8.4500   -7.9569 H   0  0  0  0  0  0  0  0  0  0  0  0
    9.3969   -6.0389   -7.7853 H   0  0  0  0  0  0  0  0  0  0  0  0
   10.5990   -5.1611   -5.8420 H   0  0  0  0  0  0  0  0  0  0  0  0
   10.7982   -9.1250   -4.1486 H   0  0  0  0  0  0  0  0  0  0  0  0
   14.3279   -4.1562    0.3797 H   0  0  0  0  0  0  0  0  0  0  0  0
  1  3  2  0  0  0  0
  1 18  1  0  0  0  0
  1 21  1  0  0  0  0
  2  4  1  0  0  0  0
  2 15  2  0  0  0  0
  2 22  1  0  0  0  0
  3 20  1  0  0  0  0
  3 23  1  0  0  0  0
  4 16  1  0  0  0  0
  4 20  2  0  0  0  0
  5 10  1  0  0  0  0
  5 11  1  0  0  0  0
  5 12  1  0  0  0  0
  5 13  1  0  0  0  0
  6  7  2  0  0  0  0
  6 13  1  0  0  0  0
  6 24  1  0  0  0  0
  7  8  1  0  0  0  0
  7 25  1  0  0  0  0
  8  9  2  0  0  0  0
  8 26  1  0  0  0  0
  9 14  1  0  0  0  0
  9 15  1  0  0  0  0
 13 14  2  0  0  0  0
 14 27  1  0  0  0  0
 15 19  1  0  0  0  0
 16 17  2  0  0  0  0
 16 18  1  0  0  0  0
 18 28  1  0  0  0  0
 19 20  1  0  0  0  0
M  CHG  1  18   1
M  END
$$$$
