T3C
 OpenBabel04111918073D

 55 58  0  0  0  0  0  0  0  0999 V2000
    3.7111   21.1963   18.6293 C   0  0  0  0  0  0  0  0  0  0  0  0
    4.4718   20.0416   19.0636 N   0  0  0  0  0  0  0  0  0  0  0  0
    5.4648   20.1458   20.0109 C   0  0  0  0  0  0  0  0  0  0  0  0
    6.1956   19.1395   20.4656 N   0  0  0  0  0  0  0  0  0  0  0  0
    7.1419   19.5203   21.4504 C   0  0  0  0  0  0  0  0  0  0  0  0
    8.0415   18.4833   22.0590 C   0  0  0  0  0  0  0  0  0  0  0  0
    7.1285   20.8704   21.7704 C   0  0  0  0  0  0  0  0  0  0  0  0
    7.9950   21.6090   22.7111 C   0  0  0  0  0  0  0  0  0  0  0  0
    7.3487   22.3981   23.6103 N   0  0  0  0  0  0  0  0  0  0  0  0
    8.0530   23.1051   24.5224 C   0  0  0  0  0  0  0  0  0  0  0  0
    7.3652   23.9459   25.4398 N   0  0  0  0  0  0  0  0  0  0  0  0
    6.1013   24.5785   25.2430 C   0  0  0  0  0  0  0  0  0  0  0  0
    5.7643   25.7593   25.9379 C   0  0  0  0  0  0  0  0  0  0  0  0
    4.5379   26.4069   25.7010 C   0  0  0  0  0  0  0  0  0  0  0  0
    3.6464   25.8738   24.7501 C   0  0  0  0  0  0  0  0  0  0  0  0
    3.9360   24.6854   24.0347 C   0  0  0  0  0  0  0  0  0  0  0  0
    3.0158   24.2385   23.0623 N   0  0  0  0  0  0  0  0  0  0  0  0
    2.2521   22.9854   23.1935 C   0  0  0  0  0  0  0  0  0  0  0  0
    0.7565   23.2894   23.0838 C   0  0  0  0  0  0  0  0  0  0  0  0
    0.3834   23.9773   21.7970 C   0  0  0  0  0  0  0  0  0  0  0  0
    1.3625   23.6696   20.7365 N   0  3  0  0  0  0  0  0  0  0  0  0
    2.4719   24.6530   20.6628 C   0  0  0  0  0  0  0  0  0  0  0  0
    3.5475   24.4614   21.7226 C   0  0  0  0  0  0  0  0  0  0  0  0
    5.1854   24.0920   24.2735 C   0  0  0  0  0  0  0  0  0  0  0  0
    9.4062   23.0343   24.5469 N   0  0  0  0  0  0  0  0  0  0  0  0
   10.0455   22.2357   23.6295 C   0  0  0  0  0  0  0  0  0  0  0  0
    9.3843   21.4982   22.6891 C   0  0  0  0  0  0  0  0  0  0  0  0
   10.0808   20.6908   21.7550 C   0  0  0  0  0  0  0  0  0  0  0  0
   10.6576   19.9762   20.9726 N   0  0  0  0  0  0  0  0  0  0  0  0
    5.9275   21.6372   20.8070 S   0  0  0  0  0  0  0  0  0  0  0  0
    2.9619   20.9417   17.8632 H   0  0  0  0  0  0  0  0  0  0  0  0
    4.3804   21.9592   18.2151 H   0  0  0  0  0  0  0  0  0  0  0  0
    3.1781   21.6247   19.4900 H   0  0  0  0  0  0  0  0  0  0  0  0
    4.2462   19.1512   18.6037 H   0  0  0  0  0  0  0  0  0  0  0  0
    8.7070   18.9356   22.8083 H   0  0  0  0  0  0  0  0  0  0  0  0
    8.6694   18.0103   21.2924 H   0  0  0  0  0  0  0  0  0  0  0  0
    7.4628   17.7101   22.5712 H   0  0  0  0  0  0  0  0  0  0  0  0
    7.7943   24.1124   26.3476 H   0  0  0  0  0  0  0  0  0  0  0  0
    6.4470   26.1781   26.6771 H   0  0  0  0  0  0  0  0  0  0  0  0
    4.2849   27.3128   26.2602 H   0  0  0  0  0  0  0  0  0  0  0  0
    2.6989   26.3909   24.5811 H   0  0  0  0  0  0  0  0  0  0  0  0
    2.4290   22.4861   24.1305 H   0  0  0  0  0  0  0  0  0  0  0  0
    2.5001   22.2839   22.3793 H   0  0  0  0  0  0  0  0  0  0  0  0
    0.4638   23.9457   23.9054 H   0  0  0  0  0  0  0  0  0  0  0  0
    0.1854   22.3552   23.1514 H   0  0  0  0  0  0  0  0  0  0  0  0
    0.3701   25.0573   21.9279 H   0  0  0  0  0  0  0  0  0  0  0  0
   -0.5834   23.6272   21.4363 H   0  0  0  0  0  0  0  0  0  0  0  0
    1.7553   22.7385   20.8918 H   0  0  0  0  0  0  0  0  0  0  0  0
    2.0171   25.6337   20.7611 H   0  0  0  0  0  0  0  0  0  0  0  0
    2.9141   24.5246   19.6779 H   0  0  0  0  0  0  0  0  0  0  0  0
    4.1745   23.6296   21.4203 H   0  0  0  0  0  0  0  0  0  0  0  0
    4.1161   25.3844   21.7392 H   0  0  0  0  0  0  0  0  0  0  0  0
    5.4392   23.1884   23.7316 H   0  0  0  0  0  0  0  0  0  0  0  0
   11.1431   22.2009   23.6717 H   0  0  0  0  0  0  0  0  0  0  0  0
    0.8860   23.6440   19.8356 H   0  0  0  0  0  0  0  0  0  0  0  0
  1  2  1  0  0  0  0
  1 31  1  0  0  0  0
  1 32  1  0  0  0  0
  1 33  1  0  0  0  0
  2  3  1  0  0  0  0
  2 34  1  0  0  0  0
  3  4  2  0  0  0  0
  3 30  1  0  0  0  0
  4  5  1  0  0  0  0
  5  6  1  0  0  0  0
  5  7  2  0  0  0  0
  6 35  1  0  0  0  0
  6 36  1  0  0  0  0
  6 37  1  0  0  0  0
  7  8  1  0  0  0  0
  7 30  1  0  0  0  0
  8  9  2  0  0  0  0
  8 27  1  0  0  0  0
  9 10  1  0  0  0  0
 10 11  1  0  0  0  0
 10 25  2  0  0  0  0
 11 12  1  0  0  0  0
 11 38  1  0  0  0  0
 12 13  2  0  0  0  0
 12 24  1  0  0  0  0
 13 14  1  0  0  0  0
 13 39  1  0  0  0  0
 14 15  2  0  0  0  0
 14 40  1  0  0  0  0
 15 16  1  0  0  0  0
 15 41  1  0  0  0  0
 16 17  1  0  0  0  0
 16 24  2  0  0  0  0
 17 18  1  0  0  0  0
 17 23  1  0  0  0  0
 18 19  1  0  0  0  0
 18 42  1  0  0  0  0
 18 43  1  0  0  0  0
 19 20  1  0  0  0  0
 19 44  1  0  0  0  0
 19 45  1  0  0  0  0
 20 21  1  0  0  0  0
 20 46  1  0  0  0  0
 20 47  1  0  0  0  0
 21 22  1  0  0  0  0
 21 48  1  0  0  0  0
 21 55  1  0  0  0  0
 22 23  1  0  0  0  0
 22 49  1  0  0  0  0
 22 50  1  0  0  0  0
 23 51  1  0  0  0  0
 23 52  1  0  0  0  0
 24 53  1  0  0  0  0
 25 26  1  0  0  0  0
 26 27  2  0  0  0  0
 26 54  1  0  0  0  0
 27 28  1  0  0  0  0
 28 29  3  0  0  0  0
M  CHG  1  21   1
M  END
$$$$
