T3E
 OpenBabel04111918063D

 42 44  0  0  0  0  0  0  0  0999 V2000
    3.5412   18.8756   21.3821 C   0  0  0  0  0  0  0  0  0  0  0  0
    3.8023   20.1916   21.9242 N   0  0  0  0  0  0  0  0  0  0  0  0
    5.0294   20.4707   22.5072 C   0  0  0  0  0  0  0  0  0  0  0  0
    6.0719   19.6698   22.7105 N   0  0  0  0  0  0  0  0  0  0  0  0
    7.1835   20.3456   23.3427 C   0  0  0  0  0  0  0  0  0  0  0  0
    8.4656   19.6237   23.6827 C   0  0  0  0  0  0  0  0  0  0  0  0
    6.9525   21.6994   23.6154 C   0  0  0  0  0  0  0  0  0  0  0  0
    7.7876   22.7838   24.2345 C   0  0  0  0  0  0  0  0  0  0  0  0
    7.1749   23.5299   25.2138 N   0  0  0  0  0  0  0  0  0  0  0  0
    7.8542   24.5211   25.8567 C   0  0  0  0  0  0  0  0  0  0  0  0
    7.1785   25.3032   26.8323 N   0  0  0  0  0  0  0  0  0  0  0  0
    5.9795   26.0289   26.5939 C   0  0  0  0  0  0  0  0  0  0  0  0
    4.9759   25.5111   25.7563 C   0  0  0  0  0  0  0  0  0  0  0  0
    3.8113   26.2336   25.4574 C   0  0  0  0  0  0  0  0  0  0  0  0
    2.5191   25.4983   24.4663 S   0  0  0  0  0  0  0  0  0  0  0  0
    2.6858   24.0615   24.4368 O   0  0  0  0  0  0  0  0  0  0  0  0
    2.8391   26.0813   22.9256 N   0  0  0  0  0  0  0  0  0  0  0  0
    1.2372   26.0190   24.8833 O   0  0  0  0  0  0  0  0  0  0  0  0
    3.6413   27.5112   25.9863 C   0  0  0  0  0  0  0  0  0  0  0  0
    4.6341   28.0638   26.8016 C   0  0  0  0  0  0  0  0  0  0  0  0
    5.7993   27.3290   27.0952 C   0  0  0  0  0  0  0  0  0  0  0  0
    9.1421   24.8037   25.5379 N   0  0  0  0  0  0  0  0  0  0  0  0
    9.7309   24.0552   24.5488 C   0  0  0  0  0  0  0  0  0  0  0  0
    9.0890   23.0340   23.8678 C   0  0  0  0  0  0  0  0  0  0  0  0
    9.7878   22.3244   22.8582 C   0  0  0  0  0  0  0  0  0  0  0  0
   10.3868   21.7058   22.0219 N   0  0  0  0  0  0  0  0  0  0  0  0
    5.3621   22.0731   23.0622 S   0  0  0  0  0  0  0  0  0  0  0  0
    2.5250   18.7918   20.9595 H   0  0  0  0  0  0  0  0  0  0  0  0
    3.6435   18.1183   22.1691 H   0  0  0  0  0  0  0  0  0  0  0  0
    4.2581   18.6546   20.5807 H   0  0  0  0  0  0  0  0  0  0  0  0
    3.0322   20.8735   21.8592 H   0  0  0  0  0  0  0  0  0  0  0  0
    9.1838   20.3097   24.1687 H   0  0  0  0  0  0  0  0  0  0  0  0
    8.9434   19.2301   22.7782 H   0  0  0  0  0  0  0  0  0  0  0  0
    8.2872   18.8052   24.3848 H   0  0  0  0  0  0  0  0  0  0  0  0
    7.5512   25.3190   27.7823 H   0  0  0  0  0  0  0  0  0  0  0  0
    5.0860   24.5067   25.3617 H   0  0  0  0  0  0  0  0  0  0  0  0
    2.2306   25.7955   22.1607 H   0  0  0  0  0  0  0  0  0  0  0  0
    3.6247   26.7006   22.7430 H   0  0  0  0  0  0  0  0  0  0  0  0
    2.7409   28.0796   25.7644 H   0  0  0  0  0  0  0  0  0  0  0  0
    4.5005   29.0621   27.2135 H   0  0  0  0  0  0  0  0  0  0  0  0
    6.5611   27.7791   27.7267 H   0  0  0  0  0  0  0  0  0  0  0  0
   10.7751   24.2902   24.3032 H   0  0  0  0  0  0  0  0  0  0  0  0
  1  2  1  0  0  0  0
  1 28  1  0  0  0  0
  1 29  1  0  0  0  0
  1 30  1  0  0  0  0
  2  3  1  0  0  0  0
  2 31  1  0  0  0  0
  3  4  2  0  0  0  0
  3 27  1  0  0  0  0
  4  5  1  0  0  0  0
  5  6  1  0  0  0  0
  5  7  2  0  0  0  0
  6 32  1  0  0  0  0
  6 33  1  0  0  0  0
  6 34  1  0  0  0  0
  7  8  1  0  0  0  0
  7 27  1  0  0  0  0
  8  9  2  0  0  0  0
  8 24  1  0  0  0  0
  9 10  1  0  0  0  0
 10 11  1  0  0  0  0
 10 22  2  0  0  0  0
 11 12  1  0  0  0  0
 11 35  1  0  0  0  0
 12 13  2  0  0  0  0
 12 21  1  0  0  0  0
 13 14  1  0  0  0  0
 13 36  1  0  0  0  0
 14 15  1  0  0  0  0
 14 19  2  0  0  0  0
 15 16  2  0  0  0  0
 15 17  1  0  0  0  0
 15 18  2  0  0  0  0
 17 37  1  0  0  0  0
 17 38  1  0  0  0  0
 19 20  1  0  0  0  0
 19 39  1  0  0  0  0
 20 21  2  0  0  0  0
 20 40  1  0  0  0  0
 21 41  1  0  0  0  0
 22 23  1  0  0  0  0
 23 24  2  0  0  0  0
 23 42  1  0  0  0  0
 24 25  1  0  0  0  0
 25 26  3  0  0  0  0
M  END
$$$$
