T62
 OpenBabel04111918253D

 37 40  0  0  0  0  0  0  0  0999 V2000
    6.4689    8.8993   22.9193 N   0  0  0  0  0  0  0  0  0  0  0  0
    5.9009    9.9396   23.5443 C   0  0  0  0  0  0  0  0  0  0  0  0
    4.6620    9.9590   23.8581 N   0  0  0  0  0  0  0  0  0  0  0  0
    6.5714   11.0683   23.9106 N   0  3  0  0  0  0  0  0  0  0  0  0
    5.6640   11.8417   24.4976 C   0  0  0  0  0  0  0  0  0  0  0  0
    5.7776   13.0974   25.0835 C   0  0  0  0  0  0  0  0  0  0  0  0
    6.9859   13.8068   25.1269 C   0  0  0  0  0  0  0  0  0  0  0  0
    7.0151   15.0609   25.7277 C   0  0  0  0  0  0  0  0  0  0  0  0
    5.8491   15.5896   26.2756 C   0  0  0  0  0  0  0  0  0  0  0  0
    4.6545   14.8604   26.2263 C   0  0  0  0  0  0  0  0  0  0  0  0
    4.5807   13.6063   25.6343 C   0  0  0  0  0  0  0  0  0  0  0  0
    3.4054   12.9397   25.6225 N   0  0  0  0  0  0  0  0  0  0  0  0
    4.5158   11.1687   24.4526 N   0  3  0  0  0  0  0  0  0  0  0  0
    3.2992   11.7229   25.0339 C   0  0  0  0  0  0  0  0  0  0  0  0
    2.0690   10.8700   25.0911 C   0  0  0  0  0  0  0  0  0  0  0  0
    0.7855   11.4535   24.5828 C   0  0  0  0  0  0  0  0  0  0  0  0
    0.7028   12.1518   23.3721 C   0  0  0  0  0  0  0  0  0  0  0  0
   -0.3937   11.1666   25.2826 C   0  0  0  0  0  0  0  0  0  0  0  0
   -1.6217   11.6029   24.7995 C   0  0  0  0  0  0  0  0  0  0  0  0
   -2.7217   11.2991   25.5437 O   0  0  0  0  0  0  0  0  0  0  0  0
   -1.7091   12.3069   23.6043 C   0  0  0  0  0  0  0  0  0  0  0  0
   -0.5391   12.5628   22.8984 C   0  0  0  0  0  0  0  0  0  0  0  0
   -0.5619   13.2123   21.7000 O   0  0  0  0  0  0  0  0  0  0  0  0
    5.9219    8.0829   22.6570 H   0  0  0  0  0  0  0  0  0  0  0  0
    7.4336    8.8215   22.6250 H   0  0  0  0  0  0  0  0  0  0  0  0
    7.9042   13.4064   24.7059 H   0  0  0  0  0  0  0  0  0  0  0  0
    7.9408   15.6325   25.7723 H   0  0  0  0  0  0  0  0  0  0  0  0
    5.8673   16.5716   26.7468 H   0  0  0  0  0  0  0  0  0  0  0  0
    3.7542   15.2998   26.6628 H   0  0  0  0  0  0  0  0  0  0  0  0
    1.9627   10.5368   26.1296 H   0  0  0  0  0  0  0  0  0  0  0  0
    2.2383    9.9635   24.4975 H   0  0  0  0  0  0  0  0  0  0  0  0
    1.5811   12.3611   22.7684 H   0  0  0  0  0  0  0  0  0  0  0  0
   -0.3649   10.5890   26.2047 H   0  0  0  0  0  0  0  0  0  0  0  0
   -3.5056   11.6907   25.1239 H   0  0  0  0  0  0  0  0  0  0  0  0
   -2.6660   12.6568   23.2354 H   0  0  0  0  0  0  0  0  0  0  0  0
   -1.2701   12.8129   21.1646 H   0  0  0  0  0  0  0  0  0  0  0  0
    7.5529   11.2495   23.7666 H   0  0  0  0  0  0  0  0  0  0  0  0
  1  2  1  0  0  0  0
  1 24  1  0  0  0  0
  1 25  1  0  0  0  0
  2  3  1  0  0  0  0
  2  4  2  0  0  0  0
  3 13  1  0  0  0  0
  4  5  1  0  0  0  0
  4 37  1  0  0  0  0
  5  6  2  0  0  0  0
  5 13  1  0  0  0  0
  6  7  1  0  0  0  0
  6 11  1  0  0  0  0
  7  8  2  0  0  0  0
  7 26  1  0  0  0  0
  8  9  1  0  0  0  0
  8 27  1  0  0  0  0
  9 10  2  0  0  0  0
  9 28  1  0  0  0  0
 10 11  1  0  0  0  0
 10 29  1  0  0  0  0
 11 12  2  0  0  0  0
 12 14  1  0  0  0  0
 13 14  2  0  0  0  0
 14 15  1  0  0  0  0
 15 16  1  0  0  0  0
 15 30  1  0  0  0  0
 15 31  1  0  0  0  0
 16 17  2  0  0  0  0
 16 18  1  0  0  0  0
 17 22  1  0  0  0  0
 17 32  1  0  0  0  0
 18 19  2  0  0  0  0
 18 33  1  0  0  0  0
 19 20  1  0  0  0  0
 19 21  1  0  0  0  0
 20 34  1  0  0  0  0
 21 22  2  0  0  0  0
 21 35  1  0  0  0  0
 22 23  1  0  0  0  0
 23 36  1  0  0  0  0
M  CHG  2   4   1  13   1
M  END
$$$$
