T6C
 OpenBabel04111921453D

 12 12  0  0  0  0  0  0  0  0999 V2000
  -33.1719  -10.9683   19.9869 Cl  0  0  0  0  0  0  0  0  0  0  0  0
  -31.8932  -12.1575   20.0662 C   0  0  0  0  0  0  0  0  0  0  0  0
  -30.5342  -11.7757   20.2608 C   0  0  0  0  0  0  0  0  0  0  0  0
  -29.6341  -12.8790   20.3220 C   0  0  0  0  0  0  0  0  0  0  0  0
  -27.9158  -12.6356   20.5541 Cl  0  0  0  0  0  0  0  0  0  0  0  0
  -30.1560  -10.5544   20.3763 O   0  0  0  0  0  0  0  0  0  0  0  0
  -32.3082  -13.4942   19.9324 C   0  0  0  0  0  0  0  0  0  0  0  0
  -31.3759  -14.5124   20.0092 C   0  0  0  0  0  0  0  0  0  0  0  0
  -31.8862  -16.1518   19.8630 Cl  0  0  0  0  0  0  0  0  0  0  0  0
  -30.0384  -14.2176   20.2011 C   0  0  0  0  0  0  0  0  0  0  0  0
  -33.3588  -13.7169   19.7740 H   0  0  0  0  0  0  0  0  0  0  0  0
  -29.3023  -15.0137   20.2606 H   0  0  0  0  0  0  0  0  0  0  0  0
  1  2  1  0  0  0  0
  2  3  2  0  0  0  0
  2  7  1  0  0  0  0
  3  4  1  0  0  0  0
  3  6  1  0  0  0  0
  4  5  1  0  0  0  0
  4 10  2  0  0  0  0
  7  8  2  0  0  0  0
  7 11  1  0  0  0  0
  8  9  1  0  0  0  0
  8 10  1  0  0  0  0
 10 12  1  0  0  0  0
M  END
$$$$
