T6P
 OpenBabel04111922363D

 48 49  0  0  1  0  0  0  0  0999 V2000
   27.2215  -11.2936   28.2012 C   0  0  1  0  0  0  0  0  0  0  0  0
   27.3198  -12.4563   29.2116 C   0  0  1  0  0  0  0  0  0  0  0  0
   26.5603  -13.6809   28.6848 C   0  0  2  0  0  0  0  0  0  0  0  0
   25.1380  -13.3249   28.2478 C   0  0  1  0  0  0  0  0  0  0  0  0
   25.1675  -12.1126   27.3063 C   0  0  1  0  0  0  0  0  0  0  0  0
   23.7522  -11.6547   26.9415 C   0  0  0  0  0  0  0  0  0  0  0  0
   27.9281  -11.6788   27.0119 O   0  0  0  0  0  0  0  0  0  0  0  0
   28.6727  -12.8668   29.4679 O   0  0  0  0  0  0  0  0  0  0  0  0
   26.5216  -14.6883   29.7101 O   0  0  0  0  0  0  0  0  0  0  0  0
   24.5532  -14.4585   27.5963 O   0  0  0  0  0  0  0  0  0  0  0  0
   25.8402  -11.0101   27.9294 O   0  0  0  0  0  0  0  0  0  0  0  0
   23.7847  -10.5298   26.0652 O   0  0  0  0  0  0  0  0  0  0  0  0
   28.0063  -10.5760   26.0919 C   0  0  2  0  0  0  0  0  0  0  0  0
   28.3912  -11.1095   24.7020 C   0  0  1  0  0  0  0  0  0  0  0  0
   29.8646  -11.5194   24.6696 C   0  0  2  0  0  0  0  0  0  0  0  0
   30.7583  -10.3988   25.2023 C   0  0  1  0  0  0  0  0  0  0  0  0
   30.2772   -9.9851   26.6017 C   0  0  1  0  0  0  0  0  0  0  0  0
   31.1051   -8.8380   27.1821 C   0  0  0  0  0  0  0  0  0  0  0  0
   27.5598  -12.2395   24.3307 O   0  0  0  0  0  0  0  0  0  0  0  0
   30.2738  -11.8673   23.3291 O   0  0  0  0  0  0  0  0  0  0  0  0
   32.0993  -10.9070   25.2211 O   0  0  0  0  0  0  0  0  0  0  0  0
   28.8964   -9.5926   26.5595 O   0  0  0  0  0  0  0  0  0  0  0  0
   31.2191   -7.8172   26.2088 O   0  0  0  0  0  0  0  0  0  0  0  0
   31.0839   -6.2802   26.7516 P   0  0  0  0  0  0  0  0  0  0  0  0
   32.1820   -6.1742   27.7927 O   0  0  0  0  0  0  0  0  0  0  0  0
   29.6659   -6.2212   27.3122 O   0  0  0  0  0  0  0  0  0  0  0  0
   31.3012   -5.4602   25.4875 O   0  0  0  0  0  0  0  0  0  0  0  0
   27.6887  -10.4027   28.6390 H   0  0  0  0  0  0  0  0  0  0  0  0
   26.8865  -12.1540   30.1724 H   0  0  0  0  0  0  0  0  0  0  0  0
   27.1074  -14.1399   27.8457 H   0  0  0  0  0  0  0  0  0  0  0  0
   24.5435  -13.1037   29.1444 H   0  0  0  0  0  0  0  0  0  0  0  0
   25.6736  -12.3662   26.3700 H   0  0  0  0  0  0  0  0  0  0  0  0
   23.1921  -11.3559   27.8355 H   0  0  0  0  0  0  0  0  0  0  0  0
   23.2019  -12.4466   26.4302 H   0  0  0  0  0  0  0  0  0  0  0  0
   29.1222  -12.8819   28.5997 H   0  0  0  0  0  0  0  0  0  0  0  0
   27.4521  -14.8103   29.9855 H   0  0  0  0  0  0  0  0  0  0  0  0
   23.6095  -14.2785   27.4592 H   0  0  0  0  0  0  0  0  0  0  0  0
   24.3659   -9.8678   26.4917 H   0  0  0  0  0  0  0  0  0  0  0  0
   27.0117  -10.1203   25.9958 H   0  0  0  0  0  0  0  0  0  0  0  0
   28.2252  -10.3323   23.9428 H   0  0  0  0  0  0  0  0  0  0  0  0
   30.0180  -12.4327   25.2596 H   0  0  0  0  0  0  0  0  0  0  0  0
   30.7184   -9.5517   24.5035 H   0  0  0  0  0  0  0  0  0  0  0  0
   30.3703  -10.8299   27.2933 H   0  0  0  0  0  0  0  0  0  0  0  0
   32.1120   -9.1856   27.4320 H   0  0  0  0  0  0  0  0  0  0  0  0
   30.6326   -8.4693   28.0993 H   0  0  0  0  0  0  0  0  0  0  0  0
   27.7390  -12.9146   25.0132 H   0  0  0  0  0  0  0  0  0  0  0  0
   30.1088  -11.0818   22.7784 H   0  0  0  0  0  0  0  0  0  0  0  0
   32.3395  -11.0053   24.2820 H   0  0  0  0  0  0  0  0  0  0  0  0
  1  2  1  0  0  0  0
  1  7  1  0  0  0  0
  1 11  1  0  0  0  0
  1 28  1  1  0  0  0
  2  3  1  0  0  0  0
  2  8  1  0  0  0  0
  2 29  1  1  0  0  0
  3  4  1  0  0  0  0
  3  9  1  0  0  0  0
  3 30  1  6  0  0  0
  4  5  1  0  0  0  0
  4 10  1  0  0  0  0
  4 31  1  1  0  0  0
  5  6  1  0  0  0  0
  5 11  1  0  0  0  0
  5 32  1  6  0  0  0
  6 12  1  0  0  0  0
  6 33  1  0  0  0  0
  6 34  1  0  0  0  0
  7 13  1  0  0  0  0
  8 35  1  0  0  0  0
  9 36  1  0  0  0  0
 10 37  1  0  0  0  0
 12 38  1  0  0  0  0
 13 14  1  0  0  0  0
 13 22  1  0  0  0  0
 13 39  1  6  0  0  0
 14 15  1  0  0  0  0
 14 19  1  0  0  0  0
 14 40  1  6  0  0  0
 15 16  1  0  0  0  0
 15 20  1  0  0  0  0
 15 41  1  1  0  0  0
 16 17  1  0  0  0  0
 16 21  1  0  0  0  0
 16 42  1  6  0  0  0
 17 18  1  0  0  0  0
 17 22  1  0  0  0  0
 17 43  1  1  0  0  0
 18 23  1  0  0  0  0
 18 44  1  0  0  0  0
 18 45  1  0  0  0  0
 19 46  1  0  0  0  0
 20 47  1  0  0  0  0
 21 48  1  0  0  0  0
 23 24  1  0  0  0  0
 24 25  2  0  0  0  0
 24 26  1  0  0  0  0
 24 27  1  0  0  0  0
M  END
$$$$
