T7Z
 OpenBabel04111918063D

 56 59  0  0  0  0  0  0  0  0999 V2000
    2.8629   18.7355   20.4314 C   0  0  0  0  0  0  0  0  0  0  0  0
    3.3451   20.0309   20.8789 N   0  0  0  0  0  0  0  0  0  0  0  0
    4.5807   20.1945   21.4374 C   0  0  0  0  0  0  0  0  0  0  0  0
    5.5437   19.2950   21.5297 N   0  0  0  0  0  0  0  0  0  0  0  0
    6.7017   19.8009   22.1748 C   0  0  0  0  0  0  0  0  0  0  0  0
    7.8878   18.8860   22.3640 C   0  0  0  0  0  0  0  0  0  0  0  0
    6.6071   21.1337   22.5876 C   0  0  0  0  0  0  0  0  0  0  0  0
    7.5808   22.0454   23.2818 C   0  0  0  0  0  0  0  0  0  0  0  0
    7.0387   22.8075   24.2724 N   0  0  0  0  0  0  0  0  0  0  0  0
    7.8450   23.6214   25.0095 C   0  0  0  0  0  0  0  0  0  0  0  0
    7.2876   24.4339   26.0216 N   0  0  0  0  0  0  0  0  0  0  0  0
    6.0559   25.1124   26.0743 C   0  0  0  0  0  0  0  0  0  0  0  0
    5.2030   25.2489   24.9647 C   0  0  0  0  0  0  0  0  0  0  0  0
    3.9675   25.9168   25.0728 C   0  0  0  0  0  0  0  0  0  0  0  0
    2.9667   26.1362   23.6121 S   0  0  0  0  0  0  0  0  0  0  0  0
    1.7425   24.9820   23.8879 N   0  0  0  0  0  0  0  0  0  0  0  0
    0.5086   25.3135   23.1532 C   0  0  0  0  0  0  0  0  0  0  0  0
   -0.5936   24.3301   23.4992 C   0  0  0  0  0  0  0  0  0  0  0  0
   -0.1924   22.9913   23.2044 O   0  0  0  0  0  0  0  0  0  0  0  0
    0.9245   22.6281   24.0285 C   0  0  0  0  0  0  0  0  0  0  0  0
    2.1324   23.5520   23.8332 C   0  0  0  0  0  0  0  0  0  0  0  0
    2.3617   27.4345   23.6413 O   0  0  0  0  0  0  0  0  0  0  0  0
    3.7210   25.7017   22.4501 O   0  0  0  0  0  0  0  0  0  0  0  0
    3.5295   26.4263   26.3084 C   0  0  0  0  0  0  0  0  0  0  0  0
    2.1954   27.0979   26.4955 C   0  0  0  0  0  0  0  0  0  0  0  0
    4.3696   26.2871   27.4058 C   0  0  0  0  0  0  0  0  0  0  0  0
    5.6137   25.6548   27.2924 C   0  0  0  0  0  0  0  0  0  0  0  0
    9.1635   23.6565   24.8279 N   0  0  0  0  0  0  0  0  0  0  0  0
    9.6838   22.9463   23.8003 C   0  0  0  0  0  0  0  0  0  0  0  0
    8.9358   22.1122   22.9801 C   0  0  0  0  0  0  0  0  0  0  0  0
    9.5755   21.3959   21.9340 C   0  0  0  0  0  0  0  0  0  0  0  0
   10.1225   20.7358   21.1346 N   0  0  0  0  0  0  0  0  0  0  0  0
    5.0314   21.7130   22.1459 S   0  0  0  0  0  0  0  0  0  0  0  0
    1.8477   18.8032   20.0094 H   0  0  0  0  0  0  0  0  0  0  0  0
    2.8085   18.0351   21.2696 H   0  0  0  0  0  0  0  0  0  0  0  0
    3.5083   18.3287   19.6500 H   0  0  0  0  0  0  0  0  0  0  0  0
    2.6940   20.8015   20.7620 H   0  0  0  0  0  0  0  0  0  0  0  0
    8.6851   19.3717   22.9324 H   0  0  0  0  0  0  0  0  0  0  0  0
    8.3207   18.5715   21.4071 H   0  0  0  0  0  0  0  0  0  0  0  0
    7.6524   18.0014   22.9560 H   0  0  0  0  0  0  0  0  0  0  0  0
    7.9561   24.6656   26.7358 H   0  0  0  0  0  0  0  0  0  0  0  0
    5.5058   24.8472   23.9988 H   0  0  0  0  0  0  0  0  0  0  0  0
    0.6868   25.3328   22.0735 H   0  0  0  0  0  0  0  0  0  0  0  0
    0.1820   26.3018   23.4960 H   0  0  0  0  0  0  0  0  0  0  0  0
   -1.4849   24.5798   22.9182 H   0  0  0  0  0  0  0  0  0  0  0  0
   -0.8510   24.4098   24.5667 H   0  0  0  0  0  0  0  0  0  0  0  0
    1.2120   21.6007   23.7793 H   0  0  0  0  0  0  0  0  0  0  0  0
    0.6062   22.6367   25.0772 H   0  0  0  0  0  0  0  0  0  0  0  0
    2.8264   23.3579   24.6557 H   0  0  0  0  0  0  0  0  0  0  0  0
    2.6143   23.3131   22.8821 H   0  0  0  0  0  0  0  0  0  0  0  0
    2.0604   27.4206   27.5309 H   0  0  0  0  0  0  0  0  0  0  0  0
    1.3761   26.4129   26.2570 H   0  0  0  0  0  0  0  0  0  0  0  0
    2.1287   28.0007   25.8862 H   0  0  0  0  0  0  0  0  0  0  0  0
    4.0601   26.6884   28.3759 H   0  0  0  0  0  0  0  0  0  0  0  0
    6.2350   25.5867   28.1862 H   0  0  0  0  0  0  0  0  0  0  0  0
   10.7575   23.0437   23.6617 H   0  0  0  0  0  0  0  0  0  0  0  0
  1  2  1  0  0  0  0
  1 34  1  0  0  0  0
  1 35  1  0  0  0  0
  1 36  1  0  0  0  0
  2  3  1  0  0  0  0
  2 37  1  0  0  0  0
  3  4  2  0  0  0  0
  3 33  1  0  0  0  0
  4  5  1  0  0  0  0
  5  6  1  0  0  0  0
  5  7  2  0  0  0  0
  6 38  1  0  0  0  0
  6 39  1  0  0  0  0
  6 40  1  0  0  0  0
  7  8  1  0  0  0  0
  7 33  1  0  0  0  0
  8  9  2  0  0  0  0
  8 30  1  0  0  0  0
  9 10  1  0  0  0  0
 10 11  1  0  0  0  0
 10 28  2  0  0  0  0
 11 12  1  0  0  0  0
 11 41  1  0  0  0  0
 12 13  2  0  0  0  0
 12 27  1  0  0  0  0
 13 14  1  0  0  0  0
 13 42  1  0  0  0  0
 14 15  1  0  0  0  0
 14 24  2  0  0  0  0
 15 16  1  0  0  0  0
 15 22  2  0  0  0  0
 15 23  2  0  0  0  0
 16 17  1  0  0  0  0
 16 21  1  0  0  0  0
 17 18  1  0  0  0  0
 17 43  1  0  0  0  0
 17 44  1  0  0  0  0
 18 19  1  0  0  0  0
 18 45  1  0  0  0  0
 18 46  1  0  0  0  0
 19 20  1  0  0  0  0
 20 21  1  0  0  0  0
 20 47  1  0  0  0  0
 20 48  1  0  0  0  0
 21 49  1  0  0  0  0
 21 50  1  0  0  0  0
 24 25  1  0  0  0  0
 24 26  1  0  0  0  0
 25 51  1  0  0  0  0
 25 52  1  0  0  0  0
 25 53  1  0  0  0  0
 26 27  2  0  0  0  0
 26 54  1  0  0  0  0
 27 55  1  0  0  0  0
 28 29  1  0  0  0  0
 29 30  2  0  0  0  0
 29 56  1  0  0  0  0
 30 31  1  0  0  0  0
 31 32  3  0  0  0  0
M  END
$$$$
