TB7
 OpenBabel04111917453D

 43 45  0  0  1  0  0  0  0  0999 V2000
  -22.2389    3.8808   -0.6630 C   0  0  0  0  0  0  0  0  0  0  0  0
  -23.2871    4.6878    0.0894 C   0  0  0  0  0  0  0  0  0  0  0  0
  -23.2882    6.0576   -0.5608 C   0  0  0  0  0  0  0  0  0  0  0  0
  -22.9313    4.8248    1.5690 C   0  0  0  0  0  0  0  0  0  0  0  0
  -24.6339    4.1999   -0.1278 O   0  0  0  0  0  0  0  0  0  0  0  0
  -24.8847    2.8688   -0.0416 C   0  0  0  0  0  0  0  0  0  0  0  0
  -24.1023    2.0404    0.4051 O   0  0  0  0  0  0  0  0  0  0  0  0
  -26.1537    2.5532   -0.4830 N   0  0  0  0  0  0  0  0  0  0  0  0
  -26.9610    1.4856    0.1100 C   0  0  0  0  0  0  0  0  0  0  0  0
  -28.2052    2.2758   -0.3589 C   0  0  0  0  0  0  0  0  0  0  0  0
  -27.2835    3.4720   -0.6077 C   0  0  0  0  0  0  0  0  0  0  0  0
  -29.1605    2.4952    0.7014 N   0  0  0  0  0  0  0  0  0  0  0  0
  -30.2578    1.6971    0.8054 C   0  0  2  0  0  0  0  0  0  0  0  0
  -31.0702    2.0704    1.8064 N   0  0  0  0  0  0  0  0  0  0  0  0
  -32.2632    1.4013    2.1543 C   0  0  0  0  0  0  0  0  0  0  0  0
  -32.9456    1.7871    3.0668 O   0  0  0  0  0  0  0  0  0  0  0  0
  -32.5711    0.2447    1.3326 C   0  0  0  0  0  0  0  0  0  0  0  0
  -33.7135   -0.4975    1.5707 C   0  0  0  0  0  0  0  0  0  0  0  0
  -33.9604   -1.5852    0.7560 C   0  0  0  0  0  0  0  0  0  0  0  0
  -33.0596   -1.8767   -0.2506 C   0  0  0  0  0  0  0  0  0  0  0  0
  -31.9250   -1.1478   -0.4966 N   0  0  0  0  0  0  0  0  0  0  0  0
  -31.7034   -0.0956    0.3072 C   0  0  0  0  0  0  0  0  0  0  0  0
  -30.5260    0.6508    0.0461 N   0  0  0  0  0  0  0  0  0  0  0  0
  -21.2413    4.2852   -0.4691 H   0  0  0  0  0  0  0  0  0  0  0  0
  -22.4432    3.9247   -1.7397 H   0  0  0  0  0  0  0  0  0  0  0  0
  -22.2558    2.8401   -0.3500 H   0  0  0  0  0  0  0  0  0  0  0  0
  -24.0279    6.6947   -0.0715 H   0  0  0  0  0  0  0  0  0  0  0  0
  -23.5615    5.9536   -1.6200 H   0  0  0  0  0  0  0  0  0  0  0  0
  -22.2971    6.5107   -0.4867 H   0  0  0  0  0  0  0  0  0  0  0  0
  -22.9203    3.8432    2.0553 H   0  0  0  0  0  0  0  0  0  0  0  0
  -23.6679    5.4570    2.0803 H   0  0  0  0  0  0  0  0  0  0  0  0
  -21.9377    5.2833    1.6858 H   0  0  0  0  0  0  0  0  0  0  0  0
  -26.8483    1.3983    1.1986 H   0  0  0  0  0  0  0  0  0  0  0  0
  -26.8537    0.4970   -0.3500 H   0  0  0  0  0  0  0  0  0  0  0  0
  -28.6857    1.8498   -1.2411 H   0  0  0  0  0  0  0  0  0  0  0  0
  -27.4192    3.9271   -1.5924 H   0  0  0  0  0  0  0  0  0  0  0  0
  -27.3188    4.2436    0.1673 H   0  0  0  0  0  0  0  0  0  0  0  0
  -29.0081    3.2828    1.3356 H   0  0  0  0  0  0  0  0  0  0  0  0
  -30.8484    2.8835    2.3652 H   0  0  0  0  0  0  0  0  0  0  0  0
  -34.3898   -0.2287    2.3723 H   0  0  0  0  0  0  0  0  0  0  0  0
  -34.8405   -2.2037    0.8958 H   0  0  0  0  0  0  0  0  0  0  0  0
  -33.2364   -2.7203   -0.9002 H   0  0  0  0  0  0  0  0  0  0  0  0
  -29.9416    0.3510   -0.7237 H   0  0  0  0  0  0  0  0  0  0  0  0
  1  2  1  0  0  0  0
  1 24  1  0  0  0  0
  1 25  1  0  0  0  0
  1 26  1  0  0  0  0
  2  3  1  0  0  0  0
  2  4  1  0  0  0  0
  2  5  1  0  0  0  0
  3 27  1  0  0  0  0
  3 28  1  0  0  0  0
  3 29  1  0  0  0  0
  4 30  1  0  0  0  0
  4 31  1  0  0  0  0
  4 32  1  0  0  0  0
  5  6  1  0  0  0  0
  6  7  2  0  0  0  0
  6  8  1  0  0  0  0
  8  9  1  0  0  0  0
  8 11  1  0  0  0  0
  9 10  1  0  0  0  0
  9 33  1  0  0  0  0
  9 34  1  0  0  0  0
 10 11  1  0  0  0  0
 10 12  1  0  0  0  0
 10 35  1  0  0  0  0
 11 36  1  0  0  0  0
 11 37  1  0  0  0  0
 12 38  1  0  0  0  0
 13 12  1  1  0  0  0
 13 14  1  0  0  0  0
 13 23  1  0  0  0  0
 14 15  1  0  0  0  0
 14 39  1  0  0  0  0
 15 16  2  0  0  0  0
 15 17  1  0  0  0  0
 17 18  2  0  0  0  0
 17 22  1  0  0  0  0
 18 19  1  0  0  0  0
 18 40  1  0  0  0  0
 19 20  2  0  0  0  0
 19 41  1  0  0  0  0
 20 21  1  0  0  0  0
 20 42  1  0  0  0  0
 21 22  2  0  0  0  0
 22 23  1  0  0  0  0
 23 43  1  0  0  0  0
M  END
$$$$
