TDI
 OpenBabel04111918503D

 40 42  0  0  1  0  0  0  0  0999 V2000
    3.0274  -21.9664  -10.9425 C   0  0  0  0  0  0  0  0  0  0  0  0
    3.7945  -20.5996  -12.5510 C   0  0  0  0  0  0  0  0  0  0  0  0
    4.1442  -21.7125  -13.2988 C   0  0  0  0  0  0  0  0  0  0  0  0
    3.9242  -22.9912  -12.8110 C   0  0  0  0  0  0  0  0  0  0  0  0
    9.9791  -18.9263   -9.6838 C   0  0  0  0  0  0  0  0  0  0  0  0
    8.3051  -19.3529   -9.1356 S   0  0  0  0  0  0  0  0  0  0  0  0
    7.4083  -19.0718  -10.6906 C   0  0  0  0  0  0  0  0  0  0  0  0
    6.9700  -17.6081  -10.8503 C   0  0  1  0  0  0  0  0  0  0  0  0
    6.3220  -17.4060  -12.2286 C   0  0  0  0  0  0  0  0  0  0  0  0
    4.8320  -17.3617  -11.9784 N   0  3  1  0  0  0  0  0  0  0  0  0
    3.9117  -18.0128  -12.9560 C   0  0  0  0  0  0  0  0  0  0  0  0
    4.1495  -19.4387  -13.3064 C   0  0  0  0  0  0  0  0  0  0  0  0
    4.6996  -19.9002  -14.4875 C   0  0  0  0  0  0  0  0  0  0  0  0
    4.6828  -21.2679  -14.4773 N   0  3  0  0  0  0  0  0  0  0  0  0
    4.2789  -24.1271  -13.4900 N   0  0  0  0  0  0  0  0  0  0  0  0
    3.3532  -23.0953  -11.6019 N   0  0  0  0  0  0  0  0  0  0  0  0
    3.2158  -20.6917  -11.3321 N   0  0  0  0  0  0  0  0  0  0  0  0
    4.6021  -17.7254  -10.5273 C   0  0  0  0  0  0  0  0  0  0  0  0
    5.8656  -17.1762   -9.8783 C   0  0  2  0  0  0  0  0  0  0  0  0
    5.7793  -15.7432   -9.9016 O   0  0  0  0  0  0  0  0  0  0  0  0
    2.5639  -22.1112   -9.9655 H   0  0  0  0  0  0  0  0  0  0  0  0
   10.6720  -19.0307   -8.8450 H   0  0  0  0  0  0  0  0  0  0  0  0
   10.0165  -17.8931  -10.0401 H   0  0  0  0  0  0  0  0  0  0  0  0
   10.2971  -19.6014  -10.4827 H   0  0  0  0  0  0  0  0  0  0  0  0
    6.5454  -19.7446  -10.6948 H   0  0  0  0  0  0  0  0  0  0  0  0
    8.0449  -19.3806  -11.5264 H   0  0  0  0  0  0  0  0  0  0  0  0
    7.8458  -16.9491  -10.7756 H   0  0  0  0  0  0  0  0  0  0  0  0
    6.5619  -18.1941  -12.9467 H   0  0  0  0  0  0  0  0  0  0  0  0
    6.5916  -16.4351  -12.6586 H   0  0  0  0  0  0  0  0  0  0  0  0
    3.9866  -17.4070  -13.8663 H   0  0  0  0  0  0  0  0  0  0  0  0
    2.8951  -17.8776  -12.5738 H   0  0  0  0  0  0  0  0  0  0  0  0
    5.0707  -19.3763  -15.3573 H   0  0  0  0  0  0  0  0  0  0  0  0
    4.9877  -21.8761  -15.2259 H   0  0  0  0  0  0  0  0  0  0  0  0
    3.9635  -24.9992  -13.0852 H   0  0  0  0  0  0  0  0  0  0  0  0
    4.5488  -24.1175  -14.4591 H   0  0  0  0  0  0  0  0  0  0  0  0
    4.5321  -18.8133  -10.4377 H   0  0  0  0  0  0  0  0  0  0  0  0
    3.6878  -17.2244  -10.2074 H   0  0  0  0  0  0  0  0  0  0  0  0
    6.0035  -17.5109   -8.8491 H   0  0  0  0  0  0  0  0  0  0  0  0
    5.2460  -15.4629   -9.1313 H   0  0  0  0  0  0  0  0  0  0  0  0
    4.6057  -16.3580  -12.0065 H   0  0  0  0  0  0  0  0  0  0  0  0
  1 16  1  0  0  0  0
  1 17  2  0  0  0  0
  1 21  1  0  0  0  0
  2  3  1  0  0  0  0
  2 12  2  0  0  0  0
  2 17  1  0  0  0  0
  3  4  2  0  0  0  0
  3 14  1  0  0  0  0
  4 15  1  0  0  0  0
  4 16  1  0  0  0  0
  5  6  1  0  0  0  0
  5 22  1  0  0  0  0
  5 23  1  0  0  0  0
  5 24  1  0  0  0  0
  6  7  1  0  0  0  0
  7  8  1  0  0  0  0
  7 25  1  0  0  0  0
  7 26  1  0  0  0  0
  8  9  1  0  0  0  0
  8 19  1  0  0  0  0
  8 27  1  1  0  0  0
  9 10  1  0  0  0  0
  9 28  1  0  0  0  0
  9 29  1  0  0  0  0
 10 11  1  0  0  0  0
 10 18  1  0  0  0  0
 10 40  1  6  0  0  0
 11 12  1  0  0  0  0
 11 30  1  0  0  0  0
 11 31  1  0  0  0  0
 12 13  1  0  0  0  0
 13 14  2  0  0  0  0
 13 32  1  0  0  0  0
 14 33  1  0  0  0  0
 15 34  1  0  0  0  0
 15 35  1  0  0  0  0
 18 19  1  0  0  0  0
 18 36  1  0  0  0  0
 18 37  1  0  0  0  0
 19 20  1  0  0  0  0
 19 38  1  1  0  0  0
 20 39  1  0  0  0  0
M  CHG  2  10   1  14   1
M  END
$$$$
