TDI
 OpenBabel04111922213D

 40 42  0  0  1  0  0  0  0  0999 V2000
    8.0803   48.8276  -37.0264 C   0  0  0  0  0  0  0  0  0  0  0  0
    9.5523   48.9635  -35.3413 C   0  0  0  0  0  0  0  0  0  0  0  0
   10.0299   50.1479  -35.8783 C   0  0  0  0  0  0  0  0  0  0  0  0
    9.4820   50.6659  -37.0411 C   0  0  0  0  0  0  0  0  0  0  0  0
   14.1979   44.2674  -37.8593 C   0  0  0  0  0  0  0  0  0  0  0  0
   12.4242   44.6152  -38.0225 S   0  0  0  0  0  0  0  0  0  0  0  0
   12.2072   45.8039  -36.6651 C   0  0  0  0  0  0  0  0  0  0  0  0
   12.1153   45.1216  -35.2926 C   0  0  1  0  0  0  0  0  0  0  0  0
   12.1038   46.1893  -34.1891 C   0  0  0  0  0  0  0  0  0  0  0  0
   10.6956   46.2118  -33.6430 N   0  3  1  0  0  0  0  0  0  0  0  0
   10.1251   47.5331  -33.2281 C   0  0  0  0  0  0  0  0  0  0  0  0
   10.3017   48.6757  -34.1633 C   0  0  0  0  0  0  0  0  0  0  0  0
   11.2203   49.7070  -34.0300 C   0  0  0  0  0  0  0  0  0  0  0  0
   11.0306   50.5973  -35.0551 N   0  3  0  0  0  0  0  0  0  0  0  0
    9.9077   51.8293  -37.6314 N   0  0  0  0  0  0  0  0  0  0  0  0
    8.4889   49.9726  -37.6148 N   0  0  0  0  0  0  0  0  0  0  0  0
    8.5466   48.2596  -35.9072 N   0  0  0  0  0  0  0  0  0  0  0  0
    9.8357   45.4310  -34.6128 C   0  0  0  0  0  0  0  0  0  0  0  0
   10.8054   44.3539  -35.0780 C   0  0  2  0  0  0  0  0  0  0  0  0
   10.9952   43.4339  -33.9956 O   0  0  0  0  0  0  0  0  0  0  0  0
    7.2686   48.3131  -37.5352 H   0  0  0  0  0  0  0  0  0  0  0  0
   14.4872   43.5521  -38.6337 H   0  0  0  0  0  0  0  0  0  0  0  0
   14.4243   43.8273  -36.8851 H   0  0  0  0  0  0  0  0  0  0  0  0
   14.7836   45.1805  -37.9962 H   0  0  0  0  0  0  0  0  0  0  0  0
   11.2894   46.3636  -36.8742 H   0  0  0  0  0  0  0  0  0  0  0  0
   13.0281   46.5290  -36.6927 H   0  0  0  0  0  0  0  0  0  0  0  0
   12.9857   44.4728  -35.1359 H   0  0  0  0  0  0  0  0  0  0  0  0
   12.3728   47.1785  -34.5652 H   0  0  0  0  0  0  0  0  0  0  0  0
   12.7666   45.9351  -33.3550 H   0  0  0  0  0  0  0  0  0  0  0  0
   10.6151   47.7675  -32.2749 H   0  0  0  0  0  0  0  0  0  0  0  0
    9.0650   47.3675  -33.0090 H   0  0  0  0  0  0  0  0  0  0  0  0
   11.9776   49.8989  -33.2774 H   0  0  0  0  0  0  0  0  0  0  0  0
   11.5435   51.4587  -35.1929 H   0  0  0  0  0  0  0  0  0  0  0  0
    9.3727   52.1422  -38.4300 H   0  0  0  0  0  0  0  0  0  0  0  0
   10.5752   52.4506  -37.2126 H   0  0  0  0  0  0  0  0  0  0  0  0
    9.5242   46.0803  -35.4233 H   0  0  0  0  0  0  0  0  0  0  0  0
    8.9832   45.0388  -34.0495 H   0  0  0  0  0  0  0  0  0  0  0  0
   10.4467   43.8115  -35.9570 H   0  0  0  0  0  0  0  0  0  0  0  0
   10.2060   42.8583  -33.9456 H   0  0  0  0  0  0  0  0  0  0  0  0
   10.7270   45.6182  -32.8028 H   0  0  0  0  0  0  0  0  0  0  0  0
  1 16  1  0  0  0  0
  1 17  2  0  0  0  0
  1 21  1  0  0  0  0
  2  3  1  0  0  0  0
  2 12  2  0  0  0  0
  2 17  1  0  0  0  0
  3  4  2  0  0  0  0
  3 14  1  0  0  0  0
  4 15  1  0  0  0  0
  4 16  1  0  0  0  0
  5  6  1  0  0  0  0
  5 22  1  0  0  0  0
  5 23  1  0  0  0  0
  5 24  1  0  0  0  0
  6  7  1  0  0  0  0
  7  8  1  0  0  0  0
  7 25  1  0  0  0  0
  7 26  1  0  0  0  0
  8  9  1  0  0  0  0
  8 19  1  0  0  0  0
  8 27  1  1  0  0  0
  9 10  1  0  0  0  0
  9 28  1  0  0  0  0
  9 29  1  0  0  0  0
 10 11  1  0  0  0  0
 10 18  1  0  0  0  0
 10 40  1  1  0  0  0
 11 12  1  0  0  0  0
 11 30  1  0  0  0  0
 11 31  1  0  0  0  0
 12 13  1  0  0  0  0
 13 14  2  0  0  0  0
 13 32  1  0  0  0  0
 14 33  1  0  0  0  0
 15 34  1  0  0  0  0
 15 35  1  0  0  0  0
 18 19  1  0  0  0  0
 18 36  1  0  0  0  0
 18 37  1  0  0  0  0
 19 20  1  0  0  0  0
 19 38  1  6  0  0  0
 20 39  1  0  0  0  0
M  CHG  2  10   1  14   1
M  END
$$$$
