TDR
 OpenBabel04111921313D

 15 15  0  0  1  0  0  0  0  0999 V2000
   26.9918   45.7702  -10.7457 N   0  0  0  0  0  0  0  0  0  0  0  0
   27.2005   44.8610  -11.7384 C   0  0  0  0  0  0  0  0  0  0  0  0
   28.2361   44.8281  -12.4094 O   0  0  0  0  0  0  0  0  0  0  0  0
   26.2293   43.9267  -12.0001 N   0  0  0  0  0  0  0  0  0  0  0  0
   24.9656   43.8971  -11.4709 C   0  0  0  0  0  0  0  0  0  0  0  0
   24.1698   43.0262  -11.7345 O   0  0  0  0  0  0  0  0  0  0  0  0
   24.6323   45.1348  -10.6901 C   0  0  1  0  0  0  0  0  0  0  0  0
   23.4579   45.0383   -9.7024 C   0  0  0  0  0  0  0  0  0  0  0  0
   25.8224   45.8839  -10.2055 C   0  0  0  0  0  0  0  0  0  0  0  0
   26.4500   43.2430  -12.7053 H   0  0  0  0  0  0  0  0  0  0  0  0
   24.2436   45.8130  -11.4520 H   0  0  0  0  0  0  0  0  0  0  0  0
   23.4607   45.8632   -8.9759 H   0  0  0  0  0  0  0  0  0  0  0  0
   23.3773   44.0932   -9.1526 H   0  0  0  0  0  0  0  0  0  0  0  0
   22.5329   45.1385  -10.2850 H   0  0  0  0  0  0  0  0  0  0  0  0
   25.6772   46.6708   -9.4475 H   0  0  0  0  0  0  0  0  0  0  0  0
  1  2  1  0  0  0  0
  1  9  2  0  0  0  0
  2  3  2  0  0  0  0
  2  4  1  0  0  0  0
  4  5  1  0  0  0  0
  4 10  1  0  0  0  0
  5  6  2  0  0  0  0
  5  7  1  0  0  0  0
  7  8  1  0  0  0  0
  7  9  1  0  0  0  0
  7 11  1  6  0  0  0
  8 12  1  0  0  0  0
  8 13  1  0  0  0  0
  8 14  1  0  0  0  0
  9 15  1  0  0  0  0
M  END
$$$$
