THG
 OpenBabel04111921303D

 56 58  0  0  1  0  0  0  0  0999 V2000
   26.8995    9.3829   39.6692 N   0  0  0  0  0  0  0  0  0  0  0  0
   28.0865    9.8246   40.0864 C   0  0  0  0  0  0  0  0  0  0  0  0
   28.1876   10.8937   40.8522 N   0  0  0  0  0  0  0  0  0  0  0  0
   27.1858   11.6054   41.2762 C   0  0  0  0  0  0  0  0  0  0  0  0
   25.8598   11.3018   40.7546 C   0  0  1  0  0  0  0  0  0  0  0  0
   25.6934   10.0433   40.0215 C   0  0  0  0  0  0  0  0  0  0  0  0
   27.2810   12.7114   42.0428 N   0  0  0  0  0  0  0  0  0  0  0  0
   26.0685   13.1660   42.7583 C   0  0  0  0  0  0  0  0  0  0  0  0
   24.9959   13.3593   41.7136 C   0  0  1  0  0  0  0  0  0  0  0  0
   24.6548   11.9886   41.2228 N   0  3  0  0  0  0  0  0  0  0  0  0
   23.7805   14.0132   42.3127 C   0  0  0  0  0  0  0  0  0  0  0  0
   22.8474   14.3376   41.2579 N   0  0  0  0  0  0  0  0  0  0  0  0
   23.0310   15.4568   40.4294 C   0  0  0  0  0  0  0  0  0  0  0  0
   24.0716   16.3915   40.6282 C   0  0  0  0  0  0  0  0  0  0  0  0
   24.2710   17.4874   39.7578 C   0  0  0  0  0  0  0  0  0  0  0  0
   23.4421   17.6694   38.6380 C   0  0  0  0  0  0  0  0  0  0  0  0
   22.4110   16.7316   38.4108 C   0  0  0  0  0  0  0  0  0  0  0  0
   22.2129   15.6388   39.2971 C   0  0  0  0  0  0  0  0  0  0  0  0
   23.6388   18.8284   37.6880 C   0  0  0  0  0  0  0  0  0  0  0  0
   24.4004   19.8645   38.1284 N   0  0  0  0  0  0  0  0  0  0  0  0
   24.6788   21.0020   37.2312 C   0  0  2  0  0  0  0  0  0  0  0  0
   25.9625   20.7689   36.3770 C   0  0  0  0  0  0  0  0  0  0  0  0
   26.9151   20.1632   36.9673 O   0  0  0  0  0  0  0  0  0  0  0  0
   25.9029   21.1337   35.1704 O   0  0  0  0  0  0  0  0  0  0  0  0
   24.8462   22.2481   38.0836 C   0  0  0  0  0  0  0  0  0  0  0  0
   24.5981   23.5145   37.2705 C   0  0  0  0  0  0  0  0  0  0  0  0
   25.0164   24.7301   38.1120 C   0  0  0  0  0  0  0  0  0  0  0  0
   25.0186   24.5763   39.3690 O   0  0  0  0  0  0  0  0  0  0  0  0
   25.3094   25.7806   37.4718 O   0  0  0  0  0  0  0  0  0  0  0  0
   23.0849   18.8418   36.5953 O   0  0  0  0  0  0  0  0  0  0  0  0
   24.6441    9.7076   39.6252 O   0  0  0  0  0  0  0  0  0  0  0  0
   29.1480    9.1222   39.7305 N   0  0  0  0  0  0  0  0  0  0  0  0
   26.7373    8.5786   39.0654 H   0  0  0  0  0  0  0  0  0  0  0  0
   25.9525   11.8701   39.8561 H   0  0  0  0  0  0  0  0  0  0  0  0
   28.1254   13.2681   42.1401 H   0  0  0  0  0  0  0  0  0  0  0  0
   26.2517   14.0818   43.2990 H   0  0  0  0  0  0  0  0  0  0  0  0
   25.7892   12.3505   43.4530 H   0  0  0  0  0  0  0  0  0  0  0  0
   25.4043   13.9213   40.8624 H   0  0  0  0  0  0  0  0  0  0  0  0
   24.0337   12.0871   40.4000 H   0  0  0  0  0  0  0  0  0  0  0  0
   24.1276   14.8928   42.8511 H   0  0  0  0  0  0  0  0  0  0  0  0
   23.3464   13.3135   43.0397 H   0  0  0  0  0  0  0  0  0  0  0  0
   21.9609   13.8300   41.2061 H   0  0  0  0  0  0  0  0  0  0  0  0
   24.7343   16.3119   41.4850 H   0  0  0  0  0  0  0  0  0  0  0  0
   25.0740   18.1955   39.9554 H   0  0  0  0  0  0  0  0  0  0  0  0
   21.7507   16.8591   37.5456 H   0  0  0  0  0  0  0  0  0  0  0  0
   21.3980   14.9422   39.0962 H   0  0  0  0  0  0  0  0  0  0  0  0
   24.9096   19.8817   38.9954 H   0  0  0  0  0  0  0  0  0  0  0  0
   23.8049   21.1362   36.5742 H   0  0  0  0  0  0  0  0  0  0  0  0
   25.8626   22.2658   38.4973 H   0  0  0  0  0  0  0  0  0  0  0  0
   24.1364   22.2135   38.9276 H   0  0  0  0  0  0  0  0  0  0  0  0
   23.5322   23.5748   36.9994 H   0  0  0  0  0  0  0  0  0  0  0  0
   25.1814   23.4706   36.3394 H   0  0  0  0  0  0  0  0  0  0  0  0
   30.0817    9.3848   40.0206 H   0  0  0  0  0  0  0  0  0  0  0  0
   29.0857   11.1917   41.1688 H   0  0  0  0  0  0  0  0  0  0  0  0
   24.1676   11.4566   41.9509 H   0  0  0  0  0  0  0  0  0  0  0  0
   29.0942    8.2921   39.1352 H   0  0  0  0  0  0  0  0  0  0  0  0
  1  2  1  0  0  0  0
  1  6  1  0  0  0  0
  1 33  1  0  0  0  0
  2  3  1  0  0  0  0
  2 32  2  0  0  0  0
  3  4  2  0  0  0  0
  3 54  1  0  0  0  0
  4  5  1  0  0  0  0
  4  7  1  0  0  0  0
  5  6  1  0  0  0  0
  5 10  1  0  0  0  0
  5 34  1  6  0  0  0
  6 31  2  0  0  0  0
  7  8  1  0  0  0  0
  7 35  1  0  0  0  0
  8  9  1  0  0  0  0
  8 36  1  0  0  0  0
  8 37  1  0  0  0  0
  9 10  1  0  0  0  0
  9 11  1  0  0  0  0
  9 38  1  6  0  0  0
 10 39  1  0  0  0  0
 10 55  1  0  0  0  0
 11 12  1  0  0  0  0
 11 40  1  0  0  0  0
 11 41  1  0  0  0  0
 12 13  1  0  0  0  0
 12 42  1  0  0  0  0
 13 14  2  0  0  0  0
 13 18  1  0  0  0  0
 14 15  1  0  0  0  0
 14 43  1  0  0  0  0
 15 16  2  0  0  0  0
 15 44  1  0  0  0  0
 16 17  1  0  0  0  0
 16 19  1  0  0  0  0
 17 18  2  0  0  0  0
 17 45  1  0  0  0  0
 18 46  1  0  0  0  0
 19 20  1  0  0  0  0
 19 30  2  0  0  0  0
 20 21  1  0  0  0  0
 20 47  1  0  0  0  0
 21 22  1  0  0  0  0
 21 25  1  0  0  0  0
 21 48  1  6  0  0  0
 22 23  2  0  0  0  0
 22 24  1  0  0  0  0
 25 26  1  0  0  0  0
 25 49  1  0  0  0  0
 25 50  1  0  0  0  0
 26 27  1  0  0  0  0
 26 51  1  0  0  0  0
 26 52  1  0  0  0  0
 27 28  2  0  0  0  0
 27 29  1  0  0  0  0
 32 53  1  0  0  0  0
 32 56  1  0  0  0  0
M  CHG  1  10   1
M  END
$$$$
