TLG
 OpenBabel04111918123D

 29 29  0  0  1  0  0  0  0  0999 V2000
  -20.0277   35.0638  -31.9688 S   0  0  0  0  0  0  0  0  0  0  0  0
  -16.1527   37.6052  -32.6757 C   0  0  0  0  0  0  0  0  0  0  0  0
  -19.2235   35.9650  -29.4915 C   0  0  0  0  0  0  0  0  0  0  0  0
  -18.6705   35.2439  -30.7316 C   0  0  2  0  0  0  0  0  0  0  0  0
  -17.4235   33.7636  -29.4151 O   0  0  0  0  0  0  0  0  0  0  0  0
  -18.4978   39.4437  -32.2431 C   0  0  0  0  0  0  0  0  0  0  0  0
  -18.5160   38.1513  -31.9030 C   0  0  0  0  0  0  0  0  0  0  0  0
  -17.4232   37.1971  -31.9663 C   0  0  0  0  0  0  0  0  0  0  0  0
  -17.4957   35.9562  -31.4374 C   0  0  0  0  0  0  0  0  0  0  0  0
  -20.0401   33.3241  -31.8905 C   0  0  0  0  0  0  0  0  0  0  0  0
  -20.8480   32.6674  -32.5265 O   0  0  0  0  0  0  0  0  0  0  0  0
  -19.0021   32.8332  -30.9567 C   0  0  0  0  0  0  0  0  0  0  0  0
  -18.7536   31.3815  -30.7221 C   0  0  0  0  0  0  0  0  0  0  0  0
  -17.7180   30.9885  -29.7019 C   0  0  0  0  0  0  0  0  0  0  0  0
  -18.3097   33.7998  -30.3214 C   0  0  0  0  0  0  0  0  0  0  0  0
  -19.3634   30.5004  -31.3478 O   0  0  0  0  0  0  0  0  0  0  0  0
  -16.2194   38.5874  -33.1456 H   0  0  0  0  0  0  0  0  0  0  0  0
  -15.9195   36.9097  -33.4894 H   0  0  0  0  0  0  0  0  0  0  0  0
  -15.3133   37.6393  -31.9752 H   0  0  0  0  0  0  0  0  0  0  0  0
  -18.4496   36.0927  -28.7215 H   0  0  0  0  0  0  0  0  0  0  0  0
  -20.0374   35.3855  -29.0367 H   0  0  0  0  0  0  0  0  0  0  0  0
  -19.6140   36.9598  -29.6951 H   0  0  0  0  0  0  0  0  0  0  0  0
  -19.3915   40.0401  -32.1035 H   0  0  0  0  0  0  0  0  0  0  0  0
  -17.6318   39.9464  -32.6459 H   0  0  0  0  0  0  0  0  0  0  0  0
  -19.4598   37.7951  -31.5090 H   0  0  0  0  0  0  0  0  0  0  0  0
  -16.5912   35.3419  -31.4778 H   0  0  0  0  0  0  0  0  0  0  0  0
  -17.6553   29.9027  -29.6253 H   0  0  0  0  0  0  0  0  0  0  0  0
  -17.9882   31.3709  -28.7108 H   0  0  0  0  0  0  0  0  0  0  0  0
  -16.7377   31.3572  -30.0196 H   0  0  0  0  0  0  0  0  0  0  0  0
  1  4  1  0  0  0  0
  1 10  1  0  0  0  0
  2  8  1  0  0  0  0
  2 17  1  0  0  0  0
  2 18  1  0  0  0  0
  2 19  1  0  0  0  0
  3 20  1  0  0  0  0
  3 21  1  0  0  0  0
  3 22  1  0  0  0  0
  4  3  1  1  0  0  0
  4  9  1  0  0  0  0
  4 15  1  0  0  0  0
  5 15  1  0  0  0  0
  6  7  2  0  0  0  0
  6 23  1  0  0  0  0
  6 24  1  0  0  0  0
  7  8  1  0  0  0  0
  7 25  1  0  0  0  0
  8  9  2  0  0  0  0
  9 26  1  0  0  0  0
 10 11  2  0  0  0  0
 10 12  1  0  0  0  0
 12 13  1  0  0  0  0
 12 15  2  0  0  0  0
 13 14  1  0  0  0  0
 13 16  2  0  0  0  0
 14 27  1  0  0  0  0
 14 28  1  0  0  0  0
 14 29  1  0  0  0  0
M  END
$$$$
