TOP
 OpenBabel04111919503D

 39 40  0  0  0  0  0  0  0  0999 V2000
   14.7370    2.7007   21.1297 C   0  0  0  0  0  0  0  0  0  0  0  0
   15.6950    3.4655   21.6724 N   0  0  0  0  0  0  0  0  0  0  0  0
   16.8754    3.4444   21.0543 C   0  0  0  0  0  0  0  0  0  0  0  0
   17.8774    4.1864   21.6108 N   0  0  0  0  0  0  0  0  0  0  0  0
   17.1472    2.7374   19.9522 N   0  0  0  0  0  0  0  0  0  0  0  0
   16.1612    1.9873   19.4269 C   0  0  0  0  0  0  0  0  0  0  0  0
   16.5474    1.1404   18.3998 N   0  0  0  0  0  0  0  0  0  0  0  0
   14.9004    1.9321   19.9921 C   0  0  0  0  0  0  0  0  0  0  0  0
   13.7421    1.1531   19.4410 C   0  0  0  0  0  0  0  0  0  0  0  0
   12.8560    1.9020   18.4605 C   0  0  0  0  0  0  0  0  0  0  0  0
   12.4471    1.2656   17.2723 C   0  0  0  0  0  0  0  0  0  0  0  0
   11.5866    1.9031   16.3764 C   0  0  0  0  0  0  0  0  0  0  0  0
   11.1912    1.3625   15.1753 O   0  0  0  0  0  0  0  0  0  0  0  0
   11.4393   -0.0169   14.9680 C   0  0  0  0  0  0  0  0  0  0  0  0
   11.0901    3.1757   16.6707 C   0  0  0  0  0  0  0  0  0  0  0  0
   10.2827    3.8440   15.7837 O   0  0  0  0  0  0  0  0  0  0  0  0
    8.9376    3.3729   15.8709 C   0  0  0  0  0  0  0  0  0  0  0  0
   11.4781    3.8354   17.8589 C   0  0  0  0  0  0  0  0  0  0  0  0
   10.9334    5.0717   18.0647 O   0  0  0  0  0  0  0  0  0  0  0  0
   11.3105    5.7520   19.2568 C   0  0  0  0  0  0  0  0  0  0  0  0
   12.3532    3.1834   18.7339 C   0  0  0  0  0  0  0  0  0  0  0  0
   13.7858    2.7336   21.6550 H   0  0  0  0  0  0  0  0  0  0  0  0
   17.6307    4.7931   22.3734 H   0  0  0  0  0  0  0  0  0  0  0  0
   18.7473    4.2467   21.1121 H   0  0  0  0  0  0  0  0  0  0  0  0
   15.8595    0.7952   17.7432 H   0  0  0  0  0  0  0  0  0  0  0  0
   17.4502    1.3978   18.0102 H   0  0  0  0  0  0  0  0  0  0  0  0
   13.1098    0.7987   20.2654 H   0  0  0  0  0  0  0  0  0  0  0  0
   14.1201    0.2326   18.9731 H   0  0  0  0  0  0  0  0  0  0  0  0
   12.8471    0.2535   17.0726 H   0  0  0  0  0  0  0  0  0  0  0  0
   11.0214   -0.2913   13.9937 H   0  0  0  0  0  0  0  0  0  0  0  0
   10.9399   -0.6213   15.7304 H   0  0  0  0  0  0  0  0  0  0  0  0
   12.5135   -0.2256   14.9342 H   0  0  0  0  0  0  0  0  0  0  0  0
    8.3248    3.9912   15.2083 H   0  0  0  0  0  0  0  0  0  0  0  0
    8.5442    3.4738   16.8883 H   0  0  0  0  0  0  0  0  0  0  0  0
    8.8497    2.3370   15.5317 H   0  0  0  0  0  0  0  0  0  0  0  0
   10.7835    6.7103   19.2806 H   0  0  0  0  0  0  0  0  0  0  0  0
   12.3830    5.9581   19.2697 H   0  0  0  0  0  0  0  0  0  0  0  0
   11.0032    5.1877   20.1453 H   0  0  0  0  0  0  0  0  0  0  0  0
   12.6575    3.6818   19.6502 H   0  0  0  0  0  0  0  0  0  0  0  0
  1  2  2  0  0  0  0
  1  8  1  0  0  0  0
  1 22  1  0  0  0  0
  2  3  1  0  0  0  0
  3  4  1  0  0  0  0
  3  5  2  0  0  0  0
  4 23  1  0  0  0  0
  4 24  1  0  0  0  0
  5  6  1  0  0  0  0
  6  7  1  0  0  0  0
  6  8  2  0  0  0  0
  7 25  1  0  0  0  0
  7 26  1  0  0  0  0
  8  9  1  0  0  0  0
  9 10  1  0  0  0  0
  9 27  1  0  0  0  0
  9 28  1  0  0  0  0
 10 11  2  0  0  0  0
 10 21  1  0  0  0  0
 11 12  1  0  0  0  0
 11 29  1  0  0  0  0
 12 13  1  0  0  0  0
 12 15  2  0  0  0  0
 13 14  1  0  0  0  0
 14 30  1  0  0  0  0
 14 31  1  0  0  0  0
 14 32  1  0  0  0  0
 15 16  1  0  0  0  0
 15 18  1  0  0  0  0
 16 17  1  0  0  0  0
 17 33  1  0  0  0  0
 17 34  1  0  0  0  0
 17 35  1  0  0  0  0
 18 19  1  0  0  0  0
 18 21  2  0  0  0  0
 19 20  1  0  0  0  0
 20 36  1  0  0  0  0
 20 37  1  0  0  0  0
 20 38  1  0  0  0  0
 21 39  1  0  0  0  0
M  END
$$$$
