TR7
 OpenBabel04111917533D

 31 32  0  0  1  0  0  0  0  0999 V2000
   23.9093    7.1083   -5.5720 N   0  3  0  0  0  0  0  0  0  0  0  0
   22.5102    7.4068   -5.0514 C   0  0  2  0  0  0  0  0  0  0  0  0
   21.9399    8.5595   -5.8656 C   0  0  0  0  0  0  0  0  0  0  0  0
   20.5939    8.5260   -5.9626 O   0  0  0  0  0  0  0  0  0  0  0  0
   22.6302    7.7922   -3.5734 C   0  0  0  0  0  0  0  0  0  0  0  0
   21.3005    8.0067   -2.9405 C   0  0  1  0  0  0  0  0  0  0  0  0
   20.6825    9.2222   -2.7232 C   0  0  0  0  0  0  0  0  0  0  0  0
   20.4048    6.9903   -2.4872 C   0  0  1  0  0  0  0  0  0  0  0  0
   19.4516    8.9831   -2.1704 N   0  3  0  0  0  0  0  0  0  0  0  0
   19.2588    7.6281   -2.0193 C   0  0  1  0  0  0  0  0  0  0  0  0
   20.4610    5.5808   -2.4434 C   0  0  0  0  0  0  0  0  0  0  0  0
   18.1602    6.9313   -1.5076 C   0  0  0  0  0  0  0  0  0  0  0  0
   19.3714    4.8685   -1.9328 C   0  0  0  0  0  0  0  0  0  0  0  0
   18.2398    5.5367   -1.4724 C   0  0  0  0  0  0  0  0  0  0  0  0
   22.6867    9.3764   -6.3998 O   0  0  0  0  0  0  0  0  0  0  0  0
   20.0322    9.6326   -6.6742 C   0  0  0  0  0  0  0  0  0  0  0  0
   24.3944    6.3680   -5.0543 H   0  0  0  0  0  0  0  0  0  0  0  0
   23.8681    6.8513   -6.5677 H   0  0  0  0  0  0  0  0  0  0  0  0
   21.9325    6.4922   -5.2199 H   0  0  0  0  0  0  0  0  0  0  0  0
   23.2365    8.7013   -3.4656 H   0  0  0  0  0  0  0  0  0  0  0  0
   23.1620    7.0031   -3.0255 H   0  0  0  0  0  0  0  0  0  0  0  0
   20.9986   10.2395   -2.9206 H   0  0  0  0  0  0  0  0  0  0  0  0
   18.7758    9.6909   -1.9116 H   0  0  0  0  0  0  0  0  0  0  0  0
   21.3353    5.0401   -2.7861 H   0  0  0  0  0  0  0  0  0  0  0  0
   17.2755    7.4449   -1.1438 H   0  0  0  0  0  0  0  0  0  0  0  0
   19.4089    3.7824   -1.8886 H   0  0  0  0  0  0  0  0  0  0  0  0
   17.4046    4.9642   -1.0723 H   0  0  0  0  0  0  0  0  0  0  0  0
   18.9455    9.5178   -6.6875 H   0  0  0  0  0  0  0  0  0  0  0  0
   20.3968    9.6466   -7.7060 H   0  0  0  0  0  0  0  0  0  0  0  0
   20.2777   10.5703   -6.1648 H   0  0  0  0  0  0  0  0  0  0  0  0
   24.4674    7.9768   -5.5400 H   0  0  0  0  0  0  0  0  0  0  0  0
  1  2  1  0  0  0  0
  1 17  1  0  0  0  0
  1 18  1  0  0  0  0
  1 31  1  0  0  0  0
  2  3  1  0  0  0  0
  2  5  1  0  0  0  0
  2 19  1  6  0  0  0
  3  4  1  0  0  0  0
  3 15  2  0  0  0  0
  4 16  1  0  0  0  0
  5 20  1  0  0  0  0
  5 21  1  0  0  0  0
  6  5  1  6  0  0  0
  6  7  1  0  0  0  0
  6  8  1  0  0  0  0
  7  9  1  0  0  0  0
  7 22  1  0  0  0  0
  8 10  1  0  0  0  0
  8 11  1  6  0  0  0
  9 23  1  0  0  0  0
 10  9  1  6  0  0  0
 10 12  1  0  0  0  0
 11 13  1  0  0  0  0
 11 24  1  0  0  0  0
 12 14  1  0  0  0  0
 12 25  1  0  0  0  0
 13 14  1  0  0  0  0
 13 26  1  0  0  0  0
 14 27  1  0  0  0  0
 16 28  1  0  0  0  0
 16 29  1  0  0  0  0
 16 30  1  0  0  0  0
M  CHG  2   1   1   9   1
M  END
$$$$
