TSS
 OpenBabel04111919033D

 25 26  0  0  1  0  0  0  0  0999 V2000
    4.8630    6.1251   46.6942 N   0  3  0  0  0  0  0  0  0  0  0  0
    6.1897    5.5453   46.3797 C   0  0  0  0  0  0  0  0  0  0  0  0
    6.9165    4.9795   47.5970 C   0  0  0  0  0  0  0  0  0  0  0  0
    6.0765    4.2586   48.5957 C   0  0  2  0  0  0  0  0  0  0  0  0
    5.8261    4.6755   49.8864 C   0  0  0  0  0  0  0  0  0  0  0  0
    5.0885    3.7067   50.5269 N   0  3  0  0  0  0  0  0  0  0  0  0
    4.8189    2.6749   49.6508 C   0  0  1  0  0  0  0  0  0  0  0  0
    5.4370    2.9890   48.4390 C   0  0  2  0  0  0  0  0  0  0  0  0
    4.0997    1.4878   49.8397 C   0  0  0  0  0  0  0  0  0  0  0  0
    4.0084    0.5995   48.7591 C   0  0  0  0  0  0  0  0  0  0  0  0
    4.6189    0.8877   47.5440 C   0  0  0  0  0  0  0  0  0  0  0  0
    5.3392    2.0748   47.3735 C   0  0  0  0  0  0  0  0  0  0  0  0
    4.4259    6.5013   45.8456 H   0  0  0  0  0  0  0  0  0  0  0  0
    4.2304    5.4075   47.0823 H   0  0  0  0  0  0  0  0  0  0  0  0
    6.7833    6.3525   45.9418 H   0  0  0  0  0  0  0  0  0  0  0  0
    6.0171    4.7757   45.6283 H   0  0  0  0  0  0  0  0  0  0  0  0
    7.4458    5.7971   48.1008 H   0  0  0  0  0  0  0  0  0  0  0  0
    7.6898    4.2966   47.2217 H   0  0  0  0  0  0  0  0  0  0  0  0
    6.1633    5.5525   50.4242 H   0  0  0  0  0  0  0  0  0  0  0  0
    4.8070    3.7278   51.4928 H   0  0  0  0  0  0  0  0  0  0  0  0
    3.6278    1.2475   50.7876 H   0  0  0  0  0  0  0  0  0  0  0  0
    3.4570   -0.3345   48.8785 H   0  0  0  0  0  0  0  0  0  0  0  0
    4.5453    0.1825   46.7194 H   0  0  0  0  0  0  0  0  0  0  0  0
    5.8242    2.2731   46.4237 H   0  0  0  0  0  0  0  0  0  0  0  0
    4.9252    6.8823   47.3845 H   0  0  0  0  0  0  0  0  0  0  0  0
  1  2  1  0  0  0  0
  1 13  1  0  0  0  0
  1 14  1  0  0  0  0
  1 25  1  0  0  0  0
  2  3  1  0  0  0  0
  2 15  1  0  0  0  0
  2 16  1  0  0  0  0
  3 17  1  0  0  0  0
  3 18  1  0  0  0  0
  4  3  1  1  0  0  0
  4  5  1  0  0  0  0
  4  8  1  0  0  0  0
  5  6  1  0  0  0  0
  5 19  1  0  0  0  0
  6 20  1  0  0  0  0
  7  6  1  1  0  0  0
  7  8  1  0  0  0  0
  7  9  1  0  0  0  0
  8 12  1  1  0  0  0
  9 10  1  0  0  0  0
  9 21  1  0  0  0  0
 10 11  1  0  0  0  0
 10 22  1  0  0  0  0
 11 12  1  0  0  0  0
 11 23  1  0  0  0  0
 12 24  1  0  0  0  0
M  CHG  2   1   1   6   1
M  END
$$$$
