TTN
 OpenBabel04111920213D

 10  9  0  0  1  0  0  0  0  0999 V2000
  -22.6542   19.1352  -23.5450 C   0  0  0  0  0  0  0  0  0  0  0  0
  -21.9663   20.2466  -24.3510 C   0  0  1  0  0  0  0  0  0  0  0  0
  -22.8850   21.4459  -24.6091 C   0  0  0  0  0  0  0  0  0  0  0  0
  -23.6003   19.3734  -22.7340 O   0  0  0  0  0  0  0  0  0  0  0  0
  -22.0881   17.9913  -23.7106 O   0  0  0  0  0  0  0  0  0  0  0  0
  -20.6616   20.6097  -23.7658 O   0  0  0  0  0  0  0  0  0  0  0  0
  -23.1051   22.2772  -23.6772 O   0  0  0  0  0  0  0  0  0  0  0  0
  -23.1944   21.6036  -25.8394 O   0  0  0  0  0  0  0  0  0  0  0  0
  -21.7145   19.8081  -25.3265 H   0  0  0  0  0  0  0  0  0  0  0  0
  -20.3056   19.7353  -23.5333 H   0  0  0  0  0  0  0  0  0  0  0  0
  1  2  1  0  0  0  0
  1  4  2  0  0  0  0
  1  5  1  0  0  0  0
  2  3  1  0  0  0  0
  2  6  1  0  0  0  0
  2  9  1  6  0  0  0
  3  7  2  0  0  0  0
  3  8  1  0  0  0  0
  6 10  1  0  0  0  0
M  END
$$$$
