TV2
 OpenBabel04111918263D

 38 42  0  0  0  0  0  0  0  0999 V2000
   -2.2633   11.9638   24.1216 N   0  0  0  0  0  0  0  0  0  0  0  0
   -1.1707   11.3198   24.5776 C   0  0  0  0  0  0  0  0  0  0  0  0
   -0.0467   11.3059   23.9567 N   0  0  0  0  0  0  0  0  0  0  0  0
    0.7258   10.5312   24.7677 N   0  3  0  0  0  0  0  0  0  0  0  0
    0.0617   10.1201   25.8432 C   0  0  0  0  0  0  0  0  0  0  0  0
   -1.1712   10.6168   25.7380 N   0  3  0  0  0  0  0  0  0  0  0  0
    2.1270   10.1465   24.5782 C   0  0  0  0  0  0  0  0  0  0  0  0
    2.6843    9.3757   25.5467 N   0  0  0  0  0  0  0  0  0  0  0  0
    1.9736    8.9839   26.6218 C   0  0  0  0  0  0  0  0  0  0  0  0
    2.5781    8.1979   27.5905 C   0  0  0  0  0  0  0  0  0  0  0  0
    1.8751    7.7446   28.7137 C   0  0  0  0  0  0  0  0  0  0  0  0
    0.5377    8.0866   28.8913 C   0  0  0  0  0  0  0  0  0  0  0  0
   -0.0971    8.8895   27.9504 C   0  0  0  0  0  0  0  0  0  0  0  0
    0.6229    9.3269   26.8307 C   0  0  0  0  0  0  0  0  0  0  0  0
    2.9378   10.6685   23.4306 C   0  0  0  0  0  0  0  0  0  0  0  0
    3.8027   11.8361   23.8371 C   0  0  0  0  0  0  0  0  0  0  0  0
    5.2086   11.7347   23.7535 C   0  0  0  0  0  0  0  0  0  0  0  0
    6.0282   12.7966   24.1456 C   0  0  0  0  0  0  0  0  0  0  0  0
    5.4203   13.9378   24.6231 C   0  0  0  0  0  0  0  0  0  0  0  0
    4.0550   14.0442   24.7118 C   0  0  0  0  0  0  0  0  0  0  0  0
    3.2199   13.0220   24.3207 C   0  0  0  0  0  0  0  0  0  0  0  0
    6.0543   15.0582   25.0580 O   0  0  0  0  0  0  0  0  0  0  0  0
    4.9300   15.8822   25.4334 C   0  0  0  0  0  0  0  0  0  0  0  0
    3.6541   15.2377   25.2243 O   0  0  0  0  0  0  0  0  0  0  0  0
   -2.2508   12.4802   23.2452 H   0  0  0  0  0  0  0  0  0  0  0  0
   -3.1805   11.9710   24.5526 H   0  0  0  0  0  0  0  0  0  0  0  0
    3.6256    7.9188   27.4776 H   0  0  0  0  0  0  0  0  0  0  0  0
    2.3780    7.1190   29.4505 H   0  0  0  0  0  0  0  0  0  0  0  0
   -0.0044    7.7248   29.7629 H   0  0  0  0  0  0  0  0  0  0  0  0
   -1.1389    9.1537   28.1041 H   0  0  0  0  0  0  0  0  0  0  0  0
    2.2729   10.9897   22.6203 H   0  0  0  0  0  0  0  0  0  0  0  0
    3.5411    9.8493   23.0231 H   0  0  0  0  0  0  0  0  0  0  0  0
    5.6750   10.8202   23.3880 H   0  0  0  0  0  0  0  0  0  0  0  0
    7.1086   12.7233   24.0829 H   0  0  0  0  0  0  0  0  0  0  0  0
    2.1467   13.1518   24.4029 H   0  0  0  0  0  0  0  0  0  0  0  0
    4.9547   16.8055   24.8431 H   0  0  0  0  0  0  0  0  0  0  0  0
    5.0222   16.1391   26.4948 H   0  0  0  0  0  0  0  0  0  0  0  0
   -1.9424   10.5084   26.3748 H   0  0  0  0  0  0  0  0  0  0  0  0
  1  2  1  0  0  0  0
  1 25  1  0  0  0  0
  1 26  1  0  0  0  0
  2  3  1  0  0  0  0
  2  6  2  0  0  0  0
  3  4  1  0  0  0  0
  4  5  2  0  0  0  0
  4  7  1  0  0  0  0
  5  6  1  0  0  0  0
  5 14  1  0  0  0  0
  6 38  1  0  0  0  0
  7  8  2  0  0  0  0
  7 15  1  0  0  0  0
  8  9  1  0  0  0  0
  9 10  2  0  0  0  0
  9 14  1  0  0  0  0
 10 11  1  0  0  0  0
 10 27  1  0  0  0  0
 11 12  2  0  0  0  0
 11 28  1  0  0  0  0
 12 13  1  0  0  0  0
 12 29  1  0  0  0  0
 13 14  2  0  0  0  0
 13 30  1  0  0  0  0
 15 16  1  0  0  0  0
 15 31  1  0  0  0  0
 15 32  1  0  0  0  0
 16 17  2  0  0  0  0
 16 21  1  0  0  0  0
 17 18  1  0  0  0  0
 17 33  1  0  0  0  0
 18 19  2  0  0  0  0
 18 34  1  0  0  0  0
 19 20  1  0  0  0  0
 19 22  1  0  0  0  0
 20 21  2  0  0  0  0
 20 24  1  0  0  0  0
 21 35  1  0  0  0  0
 22 23  1  0  0  0  0
 23 24  1  0  0  0  0
 23 36  1  0  0  0  0
 23 37  1  0  0  0  0
M  CHG  2   4   1   6   1
M  END
$$$$
