TXW
 OpenBabel04111922123D

 29 30  0  0  0  0  0  0  0  0999 V2000
   41.7971   32.3709   55.9785 C   0  0  0  0  0  0  0  0  0  0  0  0
   43.0752   31.8039   57.9444 C   0  0  0  0  0  0  0  0  0  0  0  0
   42.4561   31.4373   56.7510 C   0  0  0  0  0  0  0  0  0  0  0  0
   41.7412   33.6633   56.4531 C   0  0  0  0  0  0  0  0  0  0  0  0
   43.0089   33.1366   58.3292 C   0  0  0  0  0  0  0  0  0  0  0  0
   43.7484   30.7616   58.7114 C   0  0  0  0  0  0  0  0  0  0  0  0
   43.7720   29.5013   58.2770 C   0  0  0  0  0  0  0  0  0  0  0  0
   43.1151   29.0933   56.9975 C   0  0  0  0  0  0  0  0  0  0  0  0
   43.6746   33.6623   59.5604 C   0  0  0  0  0  0  0  0  0  0  0  0
   43.2904   35.7855   55.4673 C   0  0  0  0  0  0  0  0  0  0  0  0
   41.0312   34.7329   55.6791 C   0  0  0  0  0  0  0  0  0  0  0  0
   41.9403   35.5966   54.8190 C   0  0  0  0  0  0  0  0  0  0  0  0
   42.3413   34.0571   57.6029 N   0  0  0  0  0  0  0  0  0  0  0  0
   42.4817   30.1129   56.3194 N   0  3  0  0  0  0  0  0  0  0  0  0
   43.1364   27.9561   56.5830 O   0  0  0  0  0  0  0  0  0  0  0  0
   41.3210   32.1021   55.0477 H   0  0  0  0  0  0  0  0  0  0  0  0
   44.2248   31.0327   59.6372 H   0  0  0  0  0  0  0  0  0  0  0  0
   44.2748   28.7331   58.8470 H   0  0  0  0  0  0  0  0  0  0  0  0
   43.4854   34.7371   59.6627 H   0  0  0  0  0  0  0  0  0  0  0  0
   44.7552   33.5051   59.4930 H   0  0  0  0  0  0  0  0  0  0  0  0
   43.2836   33.1537   60.4455 H   0  0  0  0  0  0  0  0  0  0  0  0
   43.9247   36.4035   54.8392 H   0  0  0  0  0  0  0  0  0  0  0  0
   43.7742   34.8119   55.5981 H   0  0  0  0  0  0  0  0  0  0  0  0
   43.1642   36.2592   56.4456 H   0  0  0  0  0  0  0  0  0  0  0  0
   40.5167   35.3845   56.3920 H   0  0  0  0  0  0  0  0  0  0  0  0
   40.2889   34.2652   55.0305 H   0  0  0  0  0  0  0  0  0  0  0  0
   42.0688   35.1237   53.8394 H   0  0  0  0  0  0  0  0  0  0  0  0
   41.4668   36.5758   54.6723 H   0  0  0  0  0  0  0  0  0  0  0  0
   42.0174   29.8497   55.4672 H   0  0  0  0  0  0  0  0  0  0  0  0
  1  3  2  0  0  0  0
  1  4  1  0  0  0  0
  1 16  1  0  0  0  0
  2  3  1  0  0  0  0
  2  5  2  0  0  0  0
  2  6  1  0  0  0  0
  3 14  1  0  0  0  0
  4 11  1  0  0  0  0
  4 13  2  0  0  0  0
  5  9  1  0  0  0  0
  5 13  1  0  0  0  0
  6  7  2  0  0  0  0
  6 17  1  0  0  0  0
  7  8  1  0  0  0  0
  7 18  1  0  0  0  0
  8 14  1  0  0  0  0
  8 15  2  0  0  0  0
  9 19  1  0  0  0  0
  9 20  1  0  0  0  0
  9 21  1  0  0  0  0
 10 12  1  0  0  0  0
 10 22  1  0  0  0  0
 10 23  1  0  0  0  0
 10 24  1  0  0  0  0
 11 12  1  0  0  0  0
 11 25  1  0  0  0  0
 11 26  1  0  0  0  0
 12 27  1  0  0  0  0
 12 28  1  0  0  0  0
 14 29  1  0  0  0  0
M  CHG  1  14   1
M  END
$$$$
