TYR
 OpenBabel04111921543D

 24 24  0  0  1  0  0  0  0  0999 V2000
   15.4814    2.5885   27.7104 N   0  3  0  0  0  0  0  0  0  0  0  0
   14.3467    2.7369   28.6933 C   0  0  2  0  0  0  0  0  0  0  0  0
   13.6399    1.3811   29.0194 C   0  0  0  0  0  0  0  0  0  0  0  0
   12.8929    1.4307   30.0006 O   0  0  0  0  0  0  0  0  0  0  0  0
   13.3021    3.7475   28.1918 C   0  0  0  0  0  0  0  0  0  0  0  0
   13.8756    5.1060   27.8257 C   0  0  0  0  0  0  0  0  0  0  0  0
   14.5105    5.9194   28.7706 C   0  0  0  0  0  0  0  0  0  0  0  0
   13.7685    5.5625   26.5069 C   0  0  0  0  0  0  0  0  0  0  0  0
   15.0534    7.1542   28.3934 C   0  0  0  0  0  0  0  0  0  0  0  0
   14.2751    6.8028   26.1320 C   0  0  0  0  0  0  0  0  0  0  0  0
   14.9213    7.5849   27.0747 C   0  0  0  0  0  0  0  0  0  0  0  0
   15.4248    8.7922   26.6807 O   0  0  0  0  0  0  0  0  0  0  0  0
   13.9725    0.4299   28.2537 O   0  0  0  0  0  0  0  0  0  0  0  0
   15.9078    3.4894   27.5139 H   0  0  0  0  0  0  0  0  0  0  0  0
   16.1608    1.9366   28.1184 H   0  0  0  0  0  0  0  0  0  0  0  0
   14.8121    3.1365   29.5998 H   0  0  0  0  0  0  0  0  0  0  0  0
   12.5556    3.9159   28.9818 H   0  0  0  0  0  0  0  0  0  0  0  0
   12.7680    3.3370   27.3207 H   0  0  0  0  0  0  0  0  0  0  0  0
   14.5874    5.6060   29.8121 H   0  0  0  0  0  0  0  0  0  0  0  0
   13.2772    4.9423   25.7655 H   0  0  0  0  0  0  0  0  0  0  0  0
   15.5605    7.7703   29.1305 H   0  0  0  0  0  0  0  0  0  0  0  0
   14.1575    7.1584   25.1116 H   0  0  0  0  0  0  0  0  0  0  0  0
   15.2347    8.9063   25.7307 H   0  0  0  0  0  0  0  0  0  0  0  0
   15.1106    2.1464   26.8638 H   0  0  0  0  0  0  0  0  0  0  0  0
  1  2  1  0  0  0  0
  1 14  1  0  0  0  0
  1 15  1  0  0  0  0
  1 24  1  0  0  0  0
  2  3  1  0  0  0  0
  2  5  1  0  0  0  0
  2 16  1  1  0  0  0
  3 13  2  0  0  0  0
  3  4  1  0  0  0  0
  5  6  1  0  0  0  0
  5 17  1  0  0  0  0
  5 18  1  0  0  0  0
  6  8  2  0  0  0  0
  6  7  1  0  0  0  0
  7  9  2  0  0  0  0
  7 19  1  0  0  0  0
  8 10  1  0  0  0  0
  8 20  1  0  0  0  0
  9 11  1  0  0  0  0
  9 21  1  0  0  0  0
 10 11  2  0  0  0  0
 10 22  1  0  0  0  0
 11 12  1  0  0  0  0
 12 23  1  0  0  0  0
M  CHG  1   1   1
M  END
$$$$
