UA2
 OpenBabel04111919213D

 35 37  0  0  1  0  0  0  0  0999 V2000
   19.1695   42.0112   11.8026 C   0  0  0  0  0  0  0  0  0  0  0  0
   19.9124   44.0847   11.3555 C   0  0  0  0  0  0  0  0  0  0  0  0
   20.5754   44.0682   12.5676 C   0  0  0  0  0  0  0  0  0  0  0  0
   20.5034   42.9888   13.4146 C   0  0  0  0  0  0  0  0  0  0  0  0
   21.1835   49.1282   10.7496 O   0  0  0  0  0  0  0  0  0  0  0  0
   19.7679   48.9494   10.6969 C   0  0  0  0  0  0  0  0  0  0  0  0
   19.4008   48.3241    9.3510 C   0  0  1  0  0  0  0  0  0  0  0  0
   20.2761   47.1394    9.0464 N   0  3  0  0  0  0  0  0  0  0  0  0
   17.9828   47.7844    9.2945 C   0  0  1  0  0  0  0  0  0  0  0  0
   17.5166   47.9877    7.9620 O   0  0  0  0  0  0  0  0  0  0  0  0
   18.0760   46.2947    9.6579 C   0  0  1  0  0  0  0  0  0  0  0  0
   17.2055   45.5273    8.8284 O   0  0  0  0  0  0  0  0  0  0  0  0
   19.5602   45.8749    9.4703 C   0  0  2  0  0  0  0  0  0  0  0  0
   20.1450   45.3507   10.7432 C   0  0  0  0  0  0  0  0  0  0  0  0
   19.1636   43.0397   10.9284 N   0  0  0  0  0  0  0  0  0  0  0  0
   19.7912   41.9329   13.0070 N   0  0  0  0  0  0  0  0  0  0  0  0
   20.9955   46.0396   11.6091 C   0  0  0  0  0  0  0  0  0  0  0  0
   21.2248   45.2616   12.7014 N   0  3  0  0  0  0  0  0  0  0  0  0
   21.1157   42.9731   14.6391 N   0  0  0  0  0  0  0  0  0  0  0  0
   18.6066   41.1243   11.5114 H   0  0  0  0  0  0  0  0  0  0  0  0
   21.4370   49.8725   10.1705 H   0  0  0  0  0  0  0  0  0  0  0  0
   19.2708   49.9153   10.8332 H   0  0  0  0  0  0  0  0  0  0  0  0
   19.4634   48.3135   11.5350 H   0  0  0  0  0  0  0  0  0  0  0  0
   19.6216   49.0438    8.5555 H   0  0  0  0  0  0  0  0  0  0  0  0
   20.4807   47.0867    8.0428 H   0  0  0  0  0  0  0  0  0  0  0  0
   17.3122   48.3142    9.9789 H   0  0  0  0  0  0  0  0  0  0  0  0
   16.5989   47.6616    7.9005 H   0  0  0  0  0  0  0  0  0  0  0  0
   17.7748   46.1431   10.7014 H   0  0  0  0  0  0  0  0  0  0  0  0
   16.2822   45.7155    9.0756 H   0  0  0  0  0  0  0  0  0  0  0  0
   19.6935   45.1562    8.6537 H   0  0  0  0  0  0  0  0  0  0  0  0
   21.4343   47.0125   11.5902 H   0  0  0  0  0  0  0  0  0  0  0  0
   21.7684   45.5413   13.5117 H   0  0  0  0  0  0  0  0  0  0  0  0
   21.0898   42.1027   15.1513 H   0  0  0  0  0  0  0  0  0  0  0  0
   21.7346   43.7080   14.9460 H   0  0  0  0  0  0  0  0  0  0  0  0
   21.1829   47.2396    9.5271 H   0  0  0  0  0  0  0  0  0  0  0  0
  1 15  1  0  0  0  0
  1 16  2  0  0  0  0
  1 20  1  0  0  0  0
  2  3  1  0  0  0  0
  2 14  2  0  0  0  0
  2 15  1  0  0  0  0
  3  4  2  0  0  0  0
  3 18  1  0  0  0  0
  4 16  1  0  0  0  0
  4 19  1  0  0  0  0
  5  6  1  0  0  0  0
  5 21  1  0  0  0  0
  6  7  1  0  0  0  0
  6 22  1  0  0  0  0
  6 23  1  0  0  0  0
  7  8  1  0  0  0  0
  7  9  1  0  0  0  0
  7 24  1  6  0  0  0
  8 13  1  0  0  0  0
  8 25  1  0  0  0  0
  8 35  1  0  0  0  0
  9 10  1  0  0  0  0
  9 11  1  0  0  0  0
  9 26  1  1  0  0  0
 10 27  1  0  0  0  0
 11 12  1  0  0  0  0
 11 13  1  0  0  0  0
 11 28  1  1  0  0  0
 12 29  1  0  0  0  0
 13 14  1  0  0  0  0
 13 30  1  6  0  0  0
 14 17  1  0  0  0  0
 17 18  2  0  0  0  0
 17 31  1  0  0  0  0
 18 32  1  0  0  0  0
 19 33  1  0  0  0  0
 19 34  1  0  0  0  0
M  CHG  2   8   1  18   1
M  END
$$$$
