UL4
 OpenBabel04111921533D

 40 41  0  0  0  0  0  0  0  0999 V2000
  -16.5718   -6.8303   -6.8827 O   0  0  0  0  0  0  0  0  0  0  0  0
  -17.6173   -6.1040   -6.8937 C   0  0  0  0  0  0  0  0  0  0  0  0
  -18.6574   -6.2992   -7.6099 O   0  0  0  0  0  0  0  0  0  0  0  0
  -17.6173   -4.8998   -5.9848 C   0  0  0  0  0  0  0  0  0  0  0  0
  -18.6367   -3.9525   -6.0499 C   0  0  0  0  0  0  0  0  0  0  0  0
  -18.6326   -2.8368   -5.2084 C   0  0  0  0  0  0  0  0  0  0  0  0
  -17.6024   -2.6548   -4.2896 C   0  0  0  0  0  0  0  0  0  0  0  0
  -16.5791   -4.7094   -5.0547 C   0  0  0  0  0  0  0  0  0  0  0  0
  -16.5778   -3.5963   -4.2038 C   0  0  0  0  0  0  0  0  0  0  0  0
  -15.4577   -3.4871   -3.2351 C   0  0  0  0  0  0  0  0  0  0  0  0
  -14.7290   -4.4399   -3.0424 O   0  0  0  0  0  0  0  0  0  0  0  0
  -15.2552   -2.2595   -2.6594 N   0  0  0  0  0  0  0  0  0  0  0  0
  -14.2269   -2.0530   -1.7280 C   0  0  0  0  0  0  0  0  0  0  0  0
  -13.2154   -1.1526   -2.0395 C   0  0  0  0  0  0  0  0  0  0  0  0
  -12.1729   -0.9591   -1.1309 C   0  0  0  0  0  0  0  0  0  0  0  0
  -11.0574   -0.0449   -1.4437 C   0  0  0  0  0  0  0  0  0  0  0  0
  -10.1865    0.1723   -0.6035 O   0  0  0  0  0  0  0  0  0  0  0  0
  -11.0268    0.5912   -2.8065 C   0  0  0  0  0  0  0  0  0  0  0  0
  -12.1696   -1.6282    0.0953 C   0  0  0  0  0  0  0  0  0  0  0  0
  -13.1944   -2.5159    0.3999 C   0  0  0  0  0  0  0  0  0  0  0  0
  -14.2168   -2.7458   -0.5123 C   0  0  0  0  0  0  0  0  0  0  0  0
  -15.2777   -3.5645   -0.2621 O   0  0  0  0  0  0  0  0  0  0  0  0
  -15.1595   -4.4583    0.8368 C   0  0  0  0  0  0  0  0  0  0  0  0
  -16.4020   -5.3124    0.8070 C   0  0  0  0  0  0  0  0  0  0  0  0
  -19.4394   -4.0915   -6.7707 H   0  0  0  0  0  0  0  0  0  0  0  0
  -19.4413   -2.1163   -5.2745 H   0  0  0  0  0  0  0  0  0  0  0  0
  -17.6336   -1.7912   -3.6401 H   0  0  0  0  0  0  0  0  0  0  0  0
  -15.7752   -5.4356   -4.9975 H   0  0  0  0  0  0  0  0  0  0  0  0
  -15.8514   -1.4627   -2.8675 H   0  0  0  0  0  0  0  0  0  0  0  0
  -13.2206   -0.6525   -3.0025 H   0  0  0  0  0  0  0  0  0  0  0  0
  -10.1559    1.2444   -2.8821 H   0  0  0  0  0  0  0  0  0  0  0  0
  -11.9281    1.1926   -2.9608 H   0  0  0  0  0  0  0  0  0  0  0  0
  -10.9539   -0.1872   -3.5710 H   0  0  0  0  0  0  0  0  0  0  0  0
  -11.3688   -1.4711    0.8138 H   0  0  0  0  0  0  0  0  0  0  0  0
  -13.1886   -3.0294    1.3500 H   0  0  0  0  0  0  0  0  0  0  0  0
  -15.1270   -3.9013    1.7811 H   0  0  0  0  0  0  0  0  0  0  0  0
  -14.2690   -5.0944    0.7485 H   0  0  0  0  0  0  0  0  0  0  0  0
  -16.4055   -6.0231    1.6344 H   0  0  0  0  0  0  0  0  0  0  0  0
  -16.4558   -5.8580   -0.1410 H   0  0  0  0  0  0  0  0  0  0  0  0
  -17.2922   -4.6769    0.8718 H   0  0  0  0  0  0  0  0  0  0  0  0
  1  2  2  0  0  0  0
  2  3  1  0  0  0  0
  2  4  1  0  0  0  0
  4  5  2  0  0  0  0
  4  8  1  0  0  0  0
  5  6  1  0  0  0  0
  5 25  1  0  0  0  0
  6  7  2  0  0  0  0
  6 26  1  0  0  0  0
  7  9  1  0  0  0  0
  7 27  1  0  0  0  0
  8  9  2  0  0  0  0
  8 28  1  0  0  0  0
  9 10  1  0  0  0  0
 10 11  2  0  0  0  0
 10 12  1  0  0  0  0
 12 13  1  0  0  0  0
 12 29  1  0  0  0  0
 13 14  2  0  0  0  0
 13 21  1  0  0  0  0
 14 15  1  0  0  0  0
 14 30  1  0  0  0  0
 15 16  1  0  0  0  0
 15 19  2  0  0  0  0
 16 17  2  0  0  0  0
 16 18  1  0  0  0  0
 18 31  1  0  0  0  0
 18 32  1  0  0  0  0
 18 33  1  0  0  0  0
 19 20  1  0  0  0  0
 19 34  1  0  0  0  0
 20 21  2  0  0  0  0
 20 35  1  0  0  0  0
 21 22  1  0  0  0  0
 22 23  1  0  0  0  0
 23 24  1  0  0  0  0
 23 36  1  0  0  0  0
 23 37  1  0  0  0  0
 24 38  1  0  0  0  0
 24 39  1  0  0  0  0
 24 40  1  0  0  0  0
M  END
$$$$
