URI
 OpenBabel04111919423D

 29 30  0  0  1  0  0  0  0  0999 V2000
    2.3532   15.9211   31.0730 N   0  3  0  0  0  0  0  0  0  0  0  0
    2.7502   17.1989   31.3515 C   0  0  0  0  0  0  0  0  0  0  0  0
    3.6291   17.4421   32.3291 N   0  3  0  0  0  0  0  0  0  0  0  0
    4.1678   16.4292   33.1042 C   0  0  0  0  0  0  0  0  0  0  0  0
    3.7652   15.0770   32.7358 C   0  0  0  0  0  0  0  0  0  0  0  0
    2.9373   14.8783   31.7334 C   0  0  0  0  0  0  0  0  0  0  0  0
    2.3443   18.1616   30.6914 O   0  0  0  0  0  0  0  0  0  0  0  0
    4.9327   16.6524   33.9900 O   0  0  0  0  0  0  0  0  0  0  0  0
    1.4516   15.7839   29.9600 C   0  0  1  0  0  0  0  0  0  0  0  0
    2.2575   15.3663   28.7580 C   0  0  1  0  0  0  0  0  0  0  0  0
    1.8894   13.9300   28.9074 C   0  0  1  0  0  0  0  0  0  0  0  0
    0.4132   13.9751   28.8174 C   0  0  2  0  0  0  0  0  0  0  0  0
    1.6977   16.0929   27.6487 O   0  0  0  0  0  0  0  0  0  0  0  0
    2.6792   12.9279   28.2567 O   0  0  0  0  0  0  0  0  0  0  0  0
    0.2948   14.7595   30.0446 O   0  0  0  0  0  0  0  0  0  0  0  0
   -0.0836   12.5693   28.5520 C   0  0  0  0  0  0  0  0  0  0  0  0
    0.0328   12.3951   27.1135 O   0  0  0  0  0  0  0  0  0  0  0  0
    3.8560   18.3957   32.5532 H   0  0  0  0  0  0  0  0  0  0  0  0
    4.1791   14.2959   33.3539 H   0  0  0  0  0  0  0  0  0  0  0  0
    2.7145   13.8627   31.4717 H   0  0  0  0  0  0  0  0  0  0  0  0
    0.9367   16.7180   29.7461 H   0  0  0  0  0  0  0  0  0  0  0  0
    3.3462   15.4911   28.8053 H   0  0  0  0  0  0  0  0  0  0  0  0
    2.0756   13.6401   29.9210 H   0  0  0  0  0  0  0  0  0  0  0  0
    0.0362   14.5562   27.9587 H   0  0  0  0  0  0  0  0  0  0  0  0
    0.7396   16.2010   27.8423 H   0  0  0  0  0  0  0  0  0  0  0  0
    2.4717   13.0920   27.3531 H   0  0  0  0  0  0  0  0  0  0  0  0
   -1.1265   12.4237   28.8233 H   0  0  0  0  0  0  0  0  0  0  0  0
    0.5168   11.7897   29.0404 H   0  0  0  0  0  0  0  0  0  0  0  0
    0.9564   12.5502   26.8604 H   0  0  0  0  0  0  0  0  0  0  0  0
  1  2  1  0  0  0  0
  1  6  1  0  0  0  0
  1  9  1  0  0  0  0
  2  3  1  0  0  0  0
  2  7  2  0  0  0  0
  3  4  1  0  0  0  0
  3 18  1  0  0  0  0
  4  5  1  0  0  0  0
  4  8  2  0  0  0  0
  5  6  2  0  0  0  0
  5 19  1  0  0  0  0
  6 20  1  0  0  0  0
  9 10  1  0  0  0  0
  9 15  1  0  0  0  0
  9 21  1  6  0  0  0
 10 11  1  0  0  0  0
 10 13  1  0  0  0  0
 10 22  1  1  0  0  0
 11 12  1  0  0  0  0
 11 14  1  0  0  0  0
 11 23  1  1  0  0  0
 12 15  1  0  0  0  0
 12 16  1  0  0  0  0
 12 24  1  6  0  0  0
 13 25  1  0  0  0  0
 14 26  1  0  0  0  0
 16 17  1  0  0  0  0
 16 27  1  0  0  0  0
 16 28  1  0  0  0  0
 17 29  1  0  0  0  0
M  CHG  2   1   1   3   1
M  END
$$$$
