V14
 OpenBabel04111921103D

 51 52  0  0  0  0  0  0  0  0999 V2000
   -5.5799    3.6485   15.6076 F   0  0  0  0  0  0  0  0  0  0  0  0
   -4.8760    2.9606   14.6851 C   0  0  0  0  0  0  0  0  0  0  0  0
   -4.6046    1.6205   14.9214 C   0  0  0  0  0  0  0  0  0  0  0  0
   -5.2353    0.9758   16.4403 S   0  0  0  0  0  0  0  0  0  0  0  0
   -6.6656    1.2129   16.4434 O   0  0  0  0  0  0  0  0  0  0  0  0
   -5.0826   -0.6313   16.3029 N   0  0  0  0  0  0  0  0  0  0  0  0
   -4.3742    1.4051   17.5177 O   0  0  0  0  0  0  0  0  0  0  0  0
   -3.9533    0.8787   13.9750 C   0  0  0  0  0  0  0  0  0  0  0  0
   -3.6709   -0.4233   14.1210 F   0  0  0  0  0  0  0  0  0  0  0  0
   -3.5016    1.4963   12.7910 C   0  0  0  0  0  0  0  0  0  0  0  0
   -2.8417    0.7395   11.9074 F   0  0  0  0  0  0  0  0  0  0  0  0
   -4.5001    3.6095   13.4740 C   0  0  0  0  0  0  0  0  0  0  0  0
   -3.7240    2.8445   12.5615 C   0  0  0  0  0  0  0  0  0  0  0  0
   -3.0115    3.4844   11.0459 S   0  0  0  0  0  0  0  0  0  0  0  0
   -3.4850    4.8519   10.8853 O   0  0  0  0  0  0  0  0  0  0  0  0
   -3.3184    2.5301    9.9952 O   0  0  0  0  0  0  0  0  0  0  0  0
   -1.2261    3.4606   11.1376 C   0  0  0  0  0  0  0  0  0  0  0  0
   -0.5591    4.3397   12.1616 C   0  0  0  0  0  0  0  0  0  0  0  0
   -0.6299    3.7953   13.4736 O   0  0  0  0  0  0  0  0  0  0  0  0
   -4.8650    4.9197   13.2396 N   0  0  0  0  0  0  0  0  0  0  0  0
   -4.9682    6.0172   14.2242 C   0  0  0  0  0  0  0  0  0  0  0  0
   -3.5687    6.2860   14.7768 C   0  0  0  0  0  0  0  0  0  0  0  0
   -2.6588    7.1121   13.8774 C   0  0  0  0  0  0  0  0  0  0  0  0
   -2.5710    8.5682   14.3679 C   0  0  0  0  0  0  0  0  0  0  0  0
   -3.7836    9.4934   14.1111 C   0  0  0  0  0  0  0  0  0  0  0  0
   -5.0082    9.2265   15.0003 C   0  0  0  0  0  0  0  0  0  0  0  0
   -6.1252    8.3644   14.3993 C   0  0  0  0  0  0  0  0  0  0  0  0
   -5.6592    7.2065   13.5261 C   0  0  0  0  0  0  0  0  0  0  0  0
   -5.3939   -1.2255   17.0901 H   0  0  0  0  0  0  0  0  0  0  0  0
   -4.6564   -1.0518   15.4651 H   0  0  0  0  0  0  0  0  0  0  0  0
   -0.8863    3.7970   10.1467 H   0  0  0  0  0  0  0  0  0  0  0  0
   -0.9036    2.4232   11.2467 H   0  0  0  0  0  0  0  0  0  0  0  0
   -1.0070    5.3306   12.1630 H   0  0  0  0  0  0  0  0  0  0  0  0
    0.5070    4.4474   11.9007 H   0  0  0  0  0  0  0  0  0  0  0  0
   -0.1102    2.9695   13.5150 H   0  0  0  0  0  0  0  0  0  0  0  0
   -4.9626    5.1956   12.2604 H   0  0  0  0  0  0  0  0  0  0  0  0
   -5.6064    5.7301   15.0646 H   0  0  0  0  0  0  0  0  0  0  0  0
   -3.0854    5.3163   14.9603 H   0  0  0  0  0  0  0  0  0  0  0  0
   -3.6474    6.7657   15.7538 H   0  0  0  0  0  0  0  0  0  0  0  0
   -2.9545    7.0495   12.8262 H   0  0  0  0  0  0  0  0  0  0  0  0
   -1.6553    6.6633   13.9259 H   0  0  0  0  0  0  0  0  0  0  0  0
   -1.6911    9.0198   13.8954 H   0  0  0  0  0  0  0  0  0  0  0  0
   -2.3654    8.5548   15.4453 H   0  0  0  0  0  0  0  0  0  0  0  0
   -4.0591    9.4862   13.0534 H   0  0  0  0  0  0  0  0  0  0  0  0
   -3.4528   10.5223   14.3183 H   0  0  0  0  0  0  0  0  0  0  0  0
   -5.4616   10.1927   15.2779 H   0  0  0  0  0  0  0  0  0  0  0  0
   -4.6850    8.7660   15.9355 H   0  0  0  0  0  0  0  0  0  0  0  0
   -6.7745    9.0069   13.7844 H   0  0  0  0  0  0  0  0  0  0  0  0
   -6.7666    7.9839   15.2044 H   0  0  0  0  0  0  0  0  0  0  0  0
   -6.5513    6.8193   13.0189 H   0  0  0  0  0  0  0  0  0  0  0  0
   -5.0264    7.6132   12.7353 H   0  0  0  0  0  0  0  0  0  0  0  0
  1  2  1  0  0  0  0
  2  3  2  0  0  0  0
  2 12  1  0  0  0  0
  3  4  1  0  0  0  0
  3  8  1  0  0  0  0
  4  5  2  0  0  0  0
  4  6  1  0  0  0  0
  4  7  2  0  0  0  0
  6 29  1  0  0  0  0
  6 30  1  0  0  0  0
  8  9  1  0  0  0  0
  8 10  2  0  0  0  0
 10 11  1  0  0  0  0
 10 13  1  0  0  0  0
 12 13  2  0  0  0  0
 12 20  1  0  0  0  0
 13 14  1  0  0  0  0
 14 15  2  0  0  0  0
 14 16  2  0  0  0  0
 14 17  1  0  0  0  0
 17 18  1  0  0  0  0
 17 31  1  0  0  0  0
 17 32  1  0  0  0  0
 18 19  1  0  0  0  0
 18 33  1  0  0  0  0
 18 34  1  0  0  0  0
 19 35  1  0  0  0  0
 20 21  1  0  0  0  0
 20 36  1  0  0  0  0
 21 22  1  0  0  0  0
 21 28  1  0  0  0  0
 21 37  1  0  0  0  0
 22 23  1  0  0  0  0
 22 38  1  0  0  0  0
 22 39  1  0  0  0  0
 23 24  1  0  0  0  0
 23 40  1  0  0  0  0
 23 41  1  0  0  0  0
 24 25  1  0  0  0  0
 24 42  1  0  0  0  0
 24 43  1  0  0  0  0
 25 26  1  0  0  0  0
 25 44  1  0  0  0  0
 25 45  1  0  0  0  0
 26 27  1  0  0  0  0
 26 46  1  0  0  0  0
 26 47  1  0  0  0  0
 27 28  1  0  0  0  0
 27 48  1  0  0  0  0
 27 49  1  0  0  0  0
 28 50  1  0  0  0  0
 28 51  1  0  0  0  0
M  END
$$$$
