V3L
 OpenBabel04111921303D

 55 58  0  0  1  0  0  0  0  0999 V2000
   52.5321   14.8423   34.4820 N   0  0  0  0  0  0  0  0  0  0  0  0
   52.9202   15.0083   33.1982 C   0  0  0  0  0  0  0  0  0  0  0  0
   53.3224   14.0818   32.3063 N   0  0  0  0  0  0  0  0  0  0  0  0
   53.3420   12.8517   32.8615 C   0  0  0  0  0  0  0  0  0  0  0  0
   53.0070   12.5305   34.1638 C   0  0  0  0  0  0  0  0  0  0  0  0
   52.5838   13.5866   34.9918 C   0  0  0  0  0  0  0  0  0  0  0  0
   52.1664   13.3834   36.2920 N   0  0  0  0  0  0  0  0  0  0  0  0
   53.1426   11.1787   34.3905 N   0  0  0  0  0  0  0  0  0  0  0  0
   53.5885   10.6759   33.2498 C   0  0  0  0  0  0  0  0  0  0  0  0
   53.6837   11.6473   32.2801 N   0  3  0  0  0  0  0  0  0  0  0  0
   55.1036    6.9271   32.3234 P   0  0  0  0  0  0  0  0  0  0  0  0
   62.5002   12.4604   32.6676 P   0  0  0  0  0  0  0  0  0  0  0  0
   57.4900   12.7122   32.0404 C   0  0  1  0  0  0  0  0  0  0  0  0
   54.2775   11.5197   30.9572 C   0  0  1  0  0  0  0  0  0  0  0  0
   55.5159    7.3099   33.7255 O   0  0  0  0  0  0  0  0  0  0  0  0
   61.9638   11.0832   33.0032 O   0  0  0  0  0  0  0  0  0  0  0  0
   57.9877   14.1600   32.1515 C   0  0  2  0  0  0  0  0  0  0  0  0
   56.9525   15.1483   32.2751 O   0  0  0  0  0  0  0  0  0  0  0  0
   55.7828   11.3491   31.0769 C   0  0  2  0  0  0  0  0  0  0  0  0
   56.4001   12.6474   31.1074 O   0  0  0  0  0  0  0  0  0  0  0  0
   53.5994    6.6310   32.1532 O   0  0  0  0  0  0  0  0  0  0  0  0
   63.6118   12.4656   31.6234 O   0  0  0  0  0  0  0  0  0  0  0  0
   58.8304   14.2973   30.8862 C   0  0  2  0  0  0  0  0  0  0  0  0
   58.0517   14.8089   29.7773 O   0  0  0  0  0  0  0  0  0  0  0  0
   56.1060   10.5399   29.8300 C   0  0  2  0  0  0  0  0  0  0  0  0
   56.3426   11.4023   28.6956 O   0  0  0  0  0  0  0  0  0  0  0  0
   55.9949    5.9169   31.6129 O   0  0  0  0  0  0  0  0  0  0  0  0
   62.7594   13.3642   33.8620 O   0  0  0  0  0  0  0  0  0  0  0  0
   59.2901   12.8532   30.6015 C   0  0  2  0  0  0  0  0  0  0  0  0
   58.5835   11.9810   31.5049 O   0  0  0  0  0  0  0  0  0  0  0  0
   54.8323    9.7205   29.5843 C   0  0  2  0  0  0  0  0  0  0  0  0
   53.7245   10.4087   30.2351 O   0  0  0  0  0  0  0  0  0  0  0  0
   60.8019   12.6706   30.6946 C   0  0  0  0  0  0  0  0  0  0  0  0
   61.2604   13.2185   31.9096 O   0  0  0  0  0  0  0  0  0  0  0  0
   54.9396    8.2843   30.1097 C   0  0  0  0  0  0  0  0  0  0  0  0
   55.3118    8.3056   31.4732 O   0  0  0  0  0  0  0  0  0  0  0  0
   52.8821   16.0273   32.8229 H   0  0  0  0  0  0  0  0  0  0  0  0
   52.2979   12.4467   36.6561 H   0  0  0  0  0  0  0  0  0  0  0  0
   51.9149   14.1729   36.8546 H   0  0  0  0  0  0  0  0  0  0  0  0
   53.8686    9.6395   33.0777 H   0  0  0  0  0  0  0  0  0  0  0  0
   57.1764   12.3328   33.0215 H   0  0  0  0  0  0  0  0  0  0  0  0
   54.0072   12.4154   30.3934 H   0  0  0  0  0  0  0  0  0  0  0  0
   58.6458   14.2524   33.0225 H   0  0  0  0  0  0  0  0  0  0  0  0
   56.3794   14.9943   31.4999 H   0  0  0  0  0  0  0  0  0  0  0  0
   56.0318   10.7601   31.9657 H   0  0  0  0  0  0  0  0  0  0  0  0
   59.6583   14.9964   31.0300 H   0  0  0  0  0  0  0  0  0  0  0  0
   58.6637   14.8223   29.0199 H   0  0  0  0  0  0  0  0  0  0  0  0
   56.9946    9.9138   29.9547 H   0  0  0  0  0  0  0  0  0  0  0  0
   57.0832   11.9663   28.9891 H   0  0  0  0  0  0  0  0  0  0  0  0
   58.9748   12.5492   29.5988 H   0  0  0  0  0  0  0  0  0  0  0  0
   54.5981    9.6886   28.5137 H   0  0  0  0  0  0  0  0  0  0  0  0
   61.2699   13.2331   29.8738 H   0  0  0  0  0  0  0  0  0  0  0  0
   61.0698   11.6155   30.5814 H   0  0  0  0  0  0  0  0  0  0  0  0
   55.6980    7.7446   29.5333 H   0  0  0  0  0  0  0  0  0  0  0  0
   53.9761    7.7844   29.9830 H   0  0  0  0  0  0  0  0  0  0  0  0
  1  2  2  0  0  0  0
  1  6  1  0  0  0  0
  2  3  1  0  0  0  0
  2 37  1  0  0  0  0
  3  4  2  0  0  0  0
  4  5  1  0  0  0  0
  4 10  1  0  0  0  0
  5  6  2  0  0  0  0
  5  8  1  0  0  0  0
  6  7  1  0  0  0  0
  7 38  1  0  0  0  0
  7 39  1  0  0  0  0
  8  9  1  0  0  0  0
  9 10  2  0  0  0  0
  9 40  1  0  0  0  0
 10 14  1  0  0  0  0
 11 15  2  0  0  0  0
 11 21  1  0  0  0  0
 11 27  1  0  0  0  0
 11 36  1  0  0  0  0
 12 16  2  0  0  0  0
 12 22  1  0  0  0  0
 12 28  1  0  0  0  0
 12 34  1  0  0  0  0
 13 17  1  0  0  0  0
 13 20  1  0  0  0  0
 13 30  1  0  0  0  0
 13 41  1  1  0  0  0
 14 19  1  0  0  0  0
 14 32  1  0  0  0  0
 14 42  1  6  0  0  0
 17 18  1  0  0  0  0
 17 23  1  0  0  0  0
 17 43  1  1  0  0  0
 18 44  1  0  0  0  0
 19 20  1  0  0  0  0
 19 25  1  0  0  0  0
 19 45  1  1  0  0  0
 23 24  1  0  0  0  0
 23 29  1  0  0  0  0
 23 46  1  1  0  0  0
 24 47  1  0  0  0  0
 25 26  1  0  0  0  0
 25 31  1  0  0  0  0
 25 48  1  1  0  0  0
 26 49  1  0  0  0  0
 29 30  1  0  0  0  0
 29 33  1  0  0  0  0
 29 50  1  6  0  0  0
 31 32  1  0  0  0  0
 31 35  1  0  0  0  0
 31 51  1  6  0  0  0
 33 34  1  0  0  0  0
 33 52  1  0  0  0  0
 33 53  1  0  0  0  0
 35 36  1  0  0  0  0
 35 54  1  0  0  0  0
 35 55  1  0  0  0  0
M  CHG  1  10   1
M  END
$$$$
