V50
 OpenBabel04111919163D

 32 33  0  0  0  0  0  0  0  0999 V2000
    0.7984   -6.7937   15.1686 F   0  0  0  0  0  0  0  0  0  0  0  0
    0.7626   -7.6796   16.1656 C   0  0  0  0  0  0  0  0  0  0  0  0
    1.0533   -9.0127   15.9419 C   0  0  0  0  0  0  0  0  0  0  0  0
    1.7679   -9.4524   14.3933 S   0  0  0  0  0  0  0  0  0  0  0  0
    2.1716  -10.8380   14.4069 O   0  0  0  0  0  0  0  0  0  0  0  0
    0.5356   -9.3664   13.2736 N   0  0  0  0  0  0  0  0  0  0  0  0
    2.7202   -8.4184   14.0532 O   0  0  0  0  0  0  0  0  0  0  0  0
    0.9141   -9.9183   16.9911 C   0  0  0  0  0  0  0  0  0  0  0  0
    1.1870  -11.2185   16.8478 F   0  0  0  0  0  0  0  0  0  0  0  0
    0.4728   -9.4743   18.2486 C   0  0  0  0  0  0  0  0  0  0  0  0
    0.2571  -10.3856   19.2147 F   0  0  0  0  0  0  0  0  0  0  0  0
    0.3849   -7.2319   17.4417 C   0  0  0  0  0  0  0  0  0  0  0  0
    0.1528   -5.9255   17.6105 F   0  0  0  0  0  0  0  0  0  0  0  0
    0.2402   -8.1194   18.5062 C   0  0  0  0  0  0  0  0  0  0  0  0
   -0.3349   -7.5013   20.0617 S   0  0  0  0  0  0  0  0  0  0  0  0
    0.8306   -8.0947   21.2639 C   0  0  0  0  0  0  0  0  0  0  0  0
    1.8676   -8.8625   20.9101 N   0  0  0  0  0  0  0  0  0  0  0  0
    2.6390   -9.3336   21.9089 C   0  0  0  0  0  0  0  0  0  0  0  0
    3.7505  -10.2625   21.5038 C   0  0  0  0  0  0  0  0  0  0  0  0
    2.4239   -9.0162   23.2478 C   0  0  0  0  0  0  0  0  0  0  0  0
    1.3591   -8.1693   23.4941 C   0  0  0  0  0  0  0  0  0  0  0  0
    0.5563   -7.7203   22.5162 N   0  0  0  0  0  0  0  0  0  0  0  0
    1.0238   -7.6564   24.8567 C   0  0  0  0  0  0  0  0  0  0  0  0
    0.8042   -9.4766   12.2968 H   0  0  0  0  0  0  0  0  0  0  0  0
   -0.3894   -9.0286   13.5062 H   0  0  0  0  0  0  0  0  0  0  0  0
    4.3468  -10.5994   22.3515 H   0  0  0  0  0  0  0  0  0  0  0  0
    4.4133   -9.7612   20.7879 H   0  0  0  0  0  0  0  0  0  0  0  0
    3.3210  -11.1460   21.0099 H   0  0  0  0  0  0  0  0  0  0  0  0
    3.0467   -9.3928   24.0378 H   0  0  0  0  0  0  0  0  0  0  0  0
    0.1316   -7.0168   24.7947 H   0  0  0  0  0  0  0  0  0  0  0  0
    1.8402   -7.0430   25.2398 H   0  0  0  0  0  0  0  0  0  0  0  0
    0.8000   -8.4731   25.5463 H   0  0  0  0  0  0  0  0  0  0  0  0
  1  2  1  0  0  0  0
  2  3  2  0  0  0  0
  2 12  1  0  0  0  0
  3  4  1  0  0  0  0
  3  8  1  0  0  0  0
  4  5  2  0  0  0  0
  4  6  1  0  0  0  0
  4  7  2  0  0  0  0
  6 24  1  0  0  0  0
  6 25  1  0  0  0  0
  8  9  1  0  0  0  0
  8 10  2  0  0  0  0
 10 11  1  0  0  0  0
 10 14  1  0  0  0  0
 12 13  1  0  0  0  0
 12 14  2  0  0  0  0
 14 15  1  0  0  0  0
 15 16  1  0  0  0  0
 16 17  2  0  0  0  0
 16 22  1  0  0  0  0
 17 18  1  0  0  0  0
 18 19  1  0  0  0  0
 18 20  2  0  0  0  0
 19 26  1  0  0  0  0
 19 27  1  0  0  0  0
 19 28  1  0  0  0  0
 20 21  1  0  0  0  0
 20 29  1  0  0  0  0
 21 22  2  0  0  0  0
 21 23  1  0  0  0  0
 23 30  1  0  0  0  0
 23 31  1  0  0  0  0
 23 32  1  0  0  0  0
M  END
$$$$
