V78
 OpenBabel04111918203D

104107  0  0  1  0  0  0  0  0999 V2000
    7.9156   23.1690    2.7277 C   0  0  0  0  0  0  0  0  0  0  0  0
    9.2236   22.8731    3.0536 C   0  0  0  0  0  0  0  0  0  0  0  0
   10.2347   23.7836    2.7364 C   0  0  0  0  0  0  0  0  0  0  0  0
   11.6281   23.4761    3.1719 C   0  0  0  0  0  0  0  0  0  0  0  0
    9.9310   25.0035    2.1261 C   0  0  0  0  0  0  0  0  0  0  0  0
    8.6111   25.3106    1.8256 C   0  0  0  0  0  0  0  0  0  0  0  0
    7.5999   24.3903    2.1167 C   0  0  0  0  0  0  0  0  0  0  0  0
    6.1544   24.7144    1.8479 C   0  0  0  0  0  0  0  0  0  0  0  0
    5.3717   24.7944    3.1664 C   0  0  0  0  0  0  0  0  0  0  0  0
    5.2453   26.2167    3.6302 C   0  0  0  0  0  0  0  0  0  0  0  0
    5.9754   26.7954    4.5888 C   0  0  0  0  0  0  0  0  0  0  0  0
    6.9227   26.1197    5.3065 N   0  0  0  0  0  0  0  0  0  0  0  0
    8.1236   26.7138    5.6543 C   0  0  0  0  0  0  0  0  0  0  0  0
    8.4479   27.8563    5.3317 O   0  0  0  0  0  0  0  0  0  0  0  0
    9.0808   25.7739    6.3998 C   0  0  2  0  0  0  0  0  0  0  0  0
    9.5293   26.4736    7.6982 C   0  0  0  0  0  0  0  0  0  0  0  0
    8.3238   26.6556    8.6282 C   0  0  0  0  0  0  0  0  0  0  0  0
   10.6291   25.7042    8.4298 C   0  0  0  0  0  0  0  0  0  0  0  0
   10.1982   25.4904    5.5085 N   0  0  0  0  0  0  0  0  0  0  0  0
   10.8381   24.2745    5.4947 C   0  0  0  0  0  0  0  0  0  0  0  0
   10.5070   23.3374    6.2193 O   0  0  0  0  0  0  0  0  0  0  0  0
   12.0199   24.1750    4.4874 C   0  0  2  0  0  0  0  0  0  0  0  0
   12.5694   25.4690    4.1963 O   0  0  0  0  0  0  0  0  0  0  0  0
   13.1140   23.3127    5.1286 C   0  0  0  0  0  0  0  0  0  0  0  0
   13.8560   24.0352    6.2529 C   0  0  0  0  0  0  0  0  0  0  0  0
   15.3512   23.8168    6.1442 C   0  0  0  0  0  0  0  0  0  0  0  0
   15.7744   22.5914    6.8682 N   0  0  0  0  0  0  0  0  0  0  0  0
   16.2760   21.5567    6.0553 N   0  0  0  0  0  0  0  0  0  0  0  0
   15.4054   20.6077    5.5681 C   0  0  0  0  0  0  0  0  0  0  0  0
   14.2080   20.5476    5.8387 O   0  0  0  0  0  0  0  0  0  0  0  0
   16.1654   19.6151    4.6726 C   0  0  2  0  0  0  0  0  0  0  0  0
   15.3606   18.8909    3.5834 C   0  0  0  0  0  0  0  0  0  0  0  0
   14.3545   17.9013    4.1812 C   0  0  0  0  0  0  0  0  0  0  0  0
   14.6333   19.9328    2.7042 C   0  0  0  0  0  0  0  0  0  0  0  0
   16.3685   18.1359    2.6893 C   0  0  0  0  0  0  0  0  0  0  0  0
   16.9026   18.7228    5.5583 N   0  0  0  0  0  0  0  0  0  0  0  0
   18.2376   18.8843    5.7417 C   0  0  0  0  0  0  0  0  0  0  0  0
   18.8600   19.8183    5.2556 O   0  0  0  0  0  0  0  0  0  0  0  0
   18.7110   18.0003    6.6397 O   0  0  0  0  0  0  0  0  0  0  0  0
   20.0499   18.3073    7.0317 C   0  0  0  0  0  0  0  0  0  0  0  0
   15.6876   22.4879    8.1490 C   0  0  0  0  0  0  0  0  0  0  0  0
   16.0195   21.2700    8.8644 C   0  0  0  0  0  0  0  0  0  0  0  0
   17.3455   20.8387    8.9300 C   0  0  0  0  0  0  0  0  0  0  0  0
   17.6183   19.6222    9.5378 C   0  0  0  0  0  0  0  0  0  0  0  0
   14.9613   20.5238    9.3802 C   0  0  0  0  0  0  0  0  0  0  0  0
   15.2449   19.3101    9.9799 C   0  0  0  0  0  0  0  0  0  0  0  0
   16.5645   18.8651   10.0710 C   0  0  0  0  0  0  0  0  0  0  0  0
   16.8220   17.6042   10.7349 C   0  0  0  0  0  0  0  0  0  0  0  0
   16.0758   16.3944   10.5767 C   0  0  0  0  0  0  0  0  0  0  0  0
   16.4975   15.4029   11.4244 C   0  0  0  0  0  0  0  0  0  0  0  0
   17.8021   15.9146   12.4120 S   0  0  0  0  0  0  0  0  0  0  0  0
   17.7866   17.4751   11.7119 C   0  0  0  0  0  0  0  0  0  0  0  0
    7.1336   22.4630    2.9980 H   0  0  0  0  0  0  0  0  0  0  0  0
    9.4425   21.9543    3.5949 H   0  0  0  0  0  0  0  0  0  0  0  0
   12.3173   23.7562    2.3645 H   0  0  0  0  0  0  0  0  0  0  0  0
   11.7207   22.3859    3.2725 H   0  0  0  0  0  0  0  0  0  0  0  0
   10.7085   25.7365    1.9248 H   0  0  0  0  0  0  0  0  0  0  0  0
    8.3759   26.2826    1.3964 H   0  0  0  0  0  0  0  0  0  0  0  0
    5.7463   23.9176    1.2151 H   0  0  0  0  0  0  0  0  0  0  0  0
    6.0753   25.6421    1.2662 H   0  0  0  0  0  0  0  0  0  0  0  0
    5.8351   24.1755    3.9422 H   0  0  0  0  0  0  0  0  0  0  0  0
    4.3717   24.3761    3.0312 H   0  0  0  0  0  0  0  0  0  0  0  0
    4.5847   26.8498    3.0400 H   0  0  0  0  0  0  0  0  0  0  0  0
    5.9109   27.8687    4.7653 H   0  0  0  0  0  0  0  0  0  0  0  0
    6.9066   25.1082    5.3080 H   0  0  0  0  0  0  0  0  0  0  0  0
    8.5778   24.8287    6.6389 H   0  0  0  0  0  0  0  0  0  0  0  0
    9.9272   27.4673    7.4538 H   0  0  0  0  0  0  0  0  0  0  0  0
    8.6167   27.1665    9.5498 H   0  0  0  0  0  0  0  0  0  0  0  0
    7.8857   25.6872    8.8942 H   0  0  0  0  0  0  0  0  0  0  0  0
    7.5397   27.2575    8.1565 H   0  0  0  0  0  0  0  0  0  0  0  0
   11.5312   25.6190    7.8172 H   0  0  0  0  0  0  0  0  0  0  0  0
   10.2959   24.6963    8.6972 H   0  0  0  0  0  0  0  0  0  0  0  0
   10.9162   26.2249    9.3485 H   0  0  0  0  0  0  0  0  0  0  0  0
   10.5661   26.2398    4.9258 H   0  0  0  0  0  0  0  0  0  0  0  0
   13.2218   25.3774    3.4813 H   0  0  0  0  0  0  0  0  0  0  0  0
   13.8146   23.0054    4.3422 H   0  0  0  0  0  0  0  0  0  0  0  0
   12.6731   22.3859    5.5176 H   0  0  0  0  0  0  0  0  0  0  0  0
   13.4404   23.7218    7.2182 H   0  0  0  0  0  0  0  0  0  0  0  0
   13.6922   25.1158    6.1972 H   0  0  0  0  0  0  0  0  0  0  0  0
   15.9156   24.6459    6.5826 H   0  0  0  0  0  0  0  0  0  0  0  0
   15.6771   23.7187    5.0970 H   0  0  0  0  0  0  0  0  0  0  0  0
   17.1866   21.1809    6.3347 H   0  0  0  0  0  0  0  0  0  0  0  0
   16.8924   20.2458    4.1361 H   0  0  0  0  0  0  0  0  0  0  0  0
   13.8017   17.3712    3.3993 H   0  0  0  0  0  0  0  0  0  0  0  0
   13.6179   18.4031    4.8147 H   0  0  0  0  0  0  0  0  0  0  0  0
   14.8575   17.1452    4.7934 H   0  0  0  0  0  0  0  0  0  0  0  0
   15.3420   20.6448    2.2633 H   0  0  0  0  0  0  0  0  0  0  0  0
   13.8972   20.5095    3.2698 H   0  0  0  0  0  0  0  0  0  0  0  0
   14.1007   19.4433    1.8796 H   0  0  0  0  0  0  0  0  0  0  0  0
   16.9385   17.3970    3.2636 H   0  0  0  0  0  0  0  0  0  0  0  0
   17.0935   18.8287    2.2422 H   0  0  0  0  0  0  0  0  0  0  0  0
   15.8631   17.6099    1.8756 H   0  0  0  0  0  0  0  0  0  0  0  0
   16.4346   18.0060    6.1043 H   0  0  0  0  0  0  0  0  0  0  0  0
   20.4122   17.5264    7.7027 H   0  0  0  0  0  0  0  0  0  0  0  0
   20.0529   19.2605    7.5715 H   0  0  0  0  0  0  0  0  0  0  0  0
   20.7124   18.3683    6.1622 H   0  0  0  0  0  0  0  0  0  0  0  0
   15.2889   23.3402    8.7263 H   0  0  0  0  0  0  0  0  0  0  0  0
   18.1624   21.4224    8.5124 H   0  0  0  0  0  0  0  0  0  0  0  0
   18.6440   19.2636    9.5903 H   0  0  0  0  0  0  0  0  0  0  0  0
   13.9258   20.8473    9.3004 H   0  0  0  0  0  0  0  0  0  0  0  0
   14.4318   18.7113   10.3877 H   0  0  0  0  0  0  0  0  0  0  0  0
   15.2471   16.2700    9.8893 H   0  0  0  0  0  0  0  0  0  0  0  0
   16.0922   14.4076   11.5275 H   0  0  0  0  0  0  0  0  0  0  0  0
   18.4740   18.2301   12.0806 H   0  0  0  0  0  0  0  0  0  0  0  0
  1  2  2  0  0  0  0
  1  7  1  0  0  0  0
  1 53  1  0  0  0  0
  2  3  1  0  0  0  0
  2 54  1  0  0  0  0
  3  4  1  0  0  0  0
  3  5  2  0  0  0  0
  4 22  1  0  0  0  0
  4 55  1  0  0  0  0
  4 56  1  0  0  0  0
  5  6  1  0  0  0  0
  5 57  1  0  0  0  0
  6  7  2  0  0  0  0
  6 58  1  0  0  0  0
  7  8  1  0  0  0  0
  8  9  1  0  0  0  0
  8 59  1  0  0  0  0
  8 60  1  0  0  0  0
  9 10  1  0  0  0  0
  9 61  1  0  0  0  0
  9 62  1  0  0  0  0
 10 11  2  0  0  0  0
 10 63  1  0  0  0  0
 11 12  1  0  0  0  0
 11 64  1  0  0  0  0
 12 13  1  0  0  0  0
 12 65  1  0  0  0  0
 13 14  2  0  0  0  0
 13 15  1  0  0  0  0
 15 16  1  0  0  0  0
 15 19  1  0  0  0  0
 15 66  1  1  0  0  0
 16 17  1  0  0  0  0
 16 18  1  0  0  0  0
 16 67  1  0  0  0  0
 17 68  1  0  0  0  0
 17 69  1  0  0  0  0
 17 70  1  0  0  0  0
 18 71  1  0  0  0  0
 18 72  1  0  0  0  0
 18 73  1  0  0  0  0
 19 20  1  0  0  0  0
 19 74  1  0  0  0  0
 20 21  2  0  0  0  0
 20 22  1  0  0  0  0
 22 23  1  6  0  0  0
 22 24  1  0  0  0  0
 23 75  1  0  0  0  0
 24 25  1  0  0  0  0
 24 76  1  0  0  0  0
 24 77  1  0  0  0  0
 25 26  1  0  0  0  0
 25 78  1  0  0  0  0
 25 79  1  0  0  0  0
 26 27  1  0  0  0  0
 26 80  1  0  0  0  0
 26 81  1  0  0  0  0
 27 28  1  0  0  0  0
 27 41  2  0  0  0  0
 28 29  1  0  0  0  0
 28 82  1  0  0  0  0
 29 30  2  0  0  0  0
 29 31  1  0  0  0  0
 31 32  1  0  0  0  0
 31 36  1  0  0  0  0
 31 83  1  6  0  0  0
 32 33  1  0  0  0  0
 32 34  1  0  0  0  0
 32 35  1  0  0  0  0
 33 84  1  0  0  0  0
 33 85  1  0  0  0  0
 33 86  1  0  0  0  0
 34 87  1  0  0  0  0
 34 88  1  0  0  0  0
 34 89  1  0  0  0  0
 35 90  1  0  0  0  0
 35 91  1  0  0  0  0
 35 92  1  0  0  0  0
 36 37  1  0  0  0  0
 36 93  1  0  0  0  0
 37 38  2  0  0  0  0
 37 39  1  0  0  0  0
 39 40  1  0  0  0  0
 40 94  1  0  0  0  0
 40 95  1  0  0  0  0
 40 96  1  0  0  0  0
 41 42  1  0  0  0  0
 41 97  1  0  0  0  0
 42 43  2  0  0  0  0
 42 45  1  0  0  0  0
 43 44  1  0  0  0  0
 43 98  1  0  0  0  0
 44 47  2  0  0  0  0
 44 99  1  0  0  0  0
 45 46  2  0  0  0  0
 45100  1  0  0  0  0
 46 47  1  0  0  0  0
 46101  1  0  0  0  0
 47 48  1  0  0  0  0
 48 49  1  0  0  0  0
 48 52  2  0  0  0  0
 49 50  2  0  0  0  0
 49102  1  0  0  0  0
 50 51  1  0  0  0  0
 50103  1  0  0  0  0
 51 52  1  0  0  0  0
 52104  1  0  0  0  0
M  END
$$$$
