VAB
 OpenBabel04111917433D

 34 35  0  0  0  0  0  0  0  0999 V2000
   21.7795   -5.4790    1.0557 C   0  0  0  0  0  0  0  0  0  0  0  0
   20.4691   -5.5288    1.5622 C   0  0  0  0  0  0  0  0  0  0  0  0
   19.7592   -6.9092   -0.2903 C   0  0  0  0  0  0  0  0  0  0  0  0
   22.0833   -6.1311   -0.1560 C   0  0  0  0  0  0  0  0  0  0  0  0
   19.4692   -6.2479    0.9046 C   0  0  0  0  0  0  0  0  0  0  0  0
   21.0635   -6.8276   -0.7994 C   0  0  0  0  0  0  0  0  0  0  0  0
   23.2211   -6.8492   -1.9153 C   0  0  0  0  0  0  0  0  0  0  0  0
   24.0915   -6.9202   -6.8486 C   0  0  0  0  0  0  0  0  0  0  0  0
   23.9366   -6.6358   -5.5478 C   0  0  0  0  0  0  0  0  0  0  0  0
   17.2341   -7.2556    1.2574 C   0  0  0  0  0  0  0  0  0  0  0  0
   13.7594   -8.0307    2.6049 C   0  0  0  0  0  0  0  0  0  0  0  0
   23.9602   -7.6945   -4.4883 C   0  0  0  0  0  0  0  0  0  0  0  0
   15.8064   -6.8286    1.5635 C   0  0  0  0  0  0  0  0  0  0  0  0
   15.2187   -7.5830    2.7454 C   0  0  0  0  0  0  0  0  0  0  0  0
   23.3147   -6.1576   -0.7993 N   0  0  0  0  0  0  0  0  0  0  0  0
   18.1591   -6.2305    1.4147 N   0  0  0  0  0  0  0  0  0  0  0  0
   17.5211   -8.3926    0.8938 O   0  0  0  0  0  0  0  0  0  0  0  0
   13.1047   -7.5012    1.6631 O   0  0  0  0  0  0  0  0  0  0  0  0
   13.3803   -8.8455    3.4849 O   0  0  0  0  0  0  0  0  0  0  0  0
   21.6759   -7.5128   -2.2357 S   0  0  0  0  0  0  0  0  0  0  0  0
   24.6400   -7.0626   -2.9334 S   0  0  0  0  0  0  0  0  0  0  0  0
   22.5616   -4.9446    1.5864 H   0  0  0  0  0  0  0  0  0  0  0  0
   20.2545   -5.0272    2.5019 H   0  0  0  0  0  0  0  0  0  0  0  0
   18.9908   -7.4354   -0.8486 H   0  0  0  0  0  0  0  0  0  0  0  0
   24.0417   -6.1381   -7.5971 H   0  0  0  0  0  0  0  0  0  0  0  0
   24.2422   -7.9416   -7.1886 H   0  0  0  0  0  0  0  0  0  0  0  0
   23.7510   -5.6039   -5.2581 H   0  0  0  0  0  0  0  0  0  0  0  0
   24.5801   -8.5402   -4.8038 H   0  0  0  0  0  0  0  0  0  0  0  0
   22.9508   -8.0875   -4.3819 H   0  0  0  0  0  0  0  0  0  0  0  0
   15.2444   -6.9858    0.6376 H   0  0  0  0  0  0  0  0  0  0  0  0
   15.7757   -5.7503    1.7633 H   0  0  0  0  0  0  0  0  0  0  0  0
   15.8133   -8.4801    2.9645 H   0  0  0  0  0  0  0  0  0  0  0  0
   15.2702   -6.9436    3.6355 H   0  0  0  0  0  0  0  0  0  0  0  0
   17.9142   -5.5002    2.0756 H   0  0  0  0  0  0  0  0  0  0  0  0
  1  2  2  0  0  0  0
  1  4  1  0  0  0  0
  1 22  1  0  0  0  0
  2  5  1  0  0  0  0
  2 23  1  0  0  0  0
  3  5  2  0  0  0  0
  3  6  1  0  0  0  0
  3 24  1  0  0  0  0
  4  6  2  0  0  0  0
  4 15  1  0  0  0  0
  5 16  1  0  0  0  0
  6 20  1  0  0  0  0
  7 15  2  0  0  0  0
  7 20  1  0  0  0  0
  7 21  1  0  0  0  0
  8  9  2  0  0  0  0
  8 25  1  0  0  0  0
  8 26  1  0  0  0  0
  9 12  1  0  0  0  0
  9 27  1  0  0  0  0
 10 13  1  0  0  0  0
 10 16  1  0  0  0  0
 10 17  2  0  0  0  0
 11 14  1  0  0  0  0
 11 18  2  0  0  0  0
 11 19  1  0  0  0  0
 12 21  1  0  0  0  0
 12 28  1  0  0  0  0
 12 29  1  0  0  0  0
 13 14  1  0  0  0  0
 13 30  1  0  0  0  0
 13 31  1  0  0  0  0
 14 32  1  0  0  0  0
 14 33  1  0  0  0  0
 16 34  1  0  0  0  0
M  END
$$$$
