VJP
 OpenBabel04111922133D

 31 32  0  0  0  0  0  0  0  0999 V2000
   57.3819   39.3871   64.0395 C   0  0  0  0  0  0  0  0  0  0  0  0
   58.6145   39.2972   63.4333 N   0  0  0  0  0  0  0  0  0  0  0  0
   53.5326   40.0334   67.4151 O   0  0  0  0  0  0  0  0  0  0  0  0
   53.2591   39.7165   66.0245 S   0  0  0  0  0  0  0  0  0  0  0  0
   57.1918   40.2189   65.1453 C   0  0  0  0  0  0  0  0  0  0  0  0
   52.5094   41.0861   65.3279 N   0  0  0  0  0  0  0  0  0  0  0  0
   52.5317   38.5118   65.6929 O   0  0  0  0  0  0  0  0  0  0  0  0
   55.9402   40.3169   65.7562 C   0  0  0  0  0  0  0  0  0  0  0  0
   52.6569   40.2903   63.1734 O   0  0  0  0  0  0  0  0  0  0  0  0
   54.8595   39.5998   65.2397 C   0  0  0  0  0  0  0  0  0  0  0  0
   55.0547   38.7207   64.1688 C   0  0  0  0  0  0  0  0  0  0  0  0
   56.3082   38.6365   63.5607 C   0  0  0  0  0  0  0  0  0  0  0  0
   51.8385   42.0300   66.2332 C   0  0  0  0  0  0  0  0  0  0  0  0
   51.9940   43.4359   65.6729 C   0  0  0  0  0  0  0  0  0  0  0  0
   51.3249   43.5553   64.3182 C   0  0  0  0  0  0  0  0  0  0  0  0
   51.7715   42.4774   63.3570 C   0  0  0  0  0  0  0  0  0  0  0  0
   52.3304   41.1803   63.9350 C   0  0  0  0  0  0  0  0  0  0  0  0
   59.3948   39.8290   63.7882 H   0  0  0  0  0  0  0  0  0  0  0  0
   58.7450   38.6813   62.6415 H   0  0  0  0  0  0  0  0  0  0  0  0
   58.0239   40.7953   65.5395 H   0  0  0  0  0  0  0  0  0  0  0  0
   55.8173   40.9463   66.6326 H   0  0  0  0  0  0  0  0  0  0  0  0
   54.2311   38.1080   63.7975 H   0  0  0  0  0  0  0  0  0  0  0  0
   56.4240   38.0100   62.6771 H   0  0  0  0  0  0  0  0  0  0  0  0
   52.2810   42.0101   67.2282 H   0  0  0  0  0  0  0  0  0  0  0  0
   50.7710   41.7863   66.3031 H   0  0  0  0  0  0  0  0  0  0  0  0
   53.0571   43.6805   65.5677 H   0  0  0  0  0  0  0  0  0  0  0  0
   51.5365   44.1553   66.3580 H   0  0  0  0  0  0  0  0  0  0  0  0
   51.5460   44.5415   63.8864 H   0  0  0  0  0  0  0  0  0  0  0  0
   50.2363   43.4954   64.4401 H   0  0  0  0  0  0  0  0  0  0  0  0
   52.5526   42.8965   62.7063 H   0  0  0  0  0  0  0  0  0  0  0  0
   50.9229   42.2041   62.7162 H   0  0  0  0  0  0  0  0  0  0  0  0
  1  2  1  0  0  0  0
  1  5  2  0  0  0  0
  1 12  1  0  0  0  0
  2 18  1  0  0  0  0
  2 19  1  0  0  0  0
  3  4  2  0  0  0  0
  4  6  1  0  0  0  0
  4  7  2  0  0  0  0
  4 10  1  0  0  0  0
  5  8  1  0  0  0  0
  5 20  1  0  0  0  0
  6 13  1  0  0  0  0
  6 17  1  0  0  0  0
  8 10  2  0  0  0  0
  8 21  1  0  0  0  0
  9 17  2  0  0  0  0
 10 11  1  0  0  0  0
 11 12  2  0  0  0  0
 11 22  1  0  0  0  0
 12 23  1  0  0  0  0
 13 14  1  0  0  0  0
 13 24  1  0  0  0  0
 13 25  1  0  0  0  0
 14 15  1  0  0  0  0
 14 26  1  0  0  0  0
 14 27  1  0  0  0  0
 15 16  1  0  0  0  0
 15 28  1  0  0  0  0
 15 29  1  0  0  0  0
 16 17  1  0  0  0  0
 16 30  1  0  0  0  0
 16 31  1  0  0  0  0
M  END
$$$$
