VXO
 OpenBabel04111918193D

 59 62  0  0  1  0  0  0  0  0999 V2000
  -12.0194   48.9498    6.7647 C   0  0  0  0  0  0  0  0  0  0  0  0
  -12.8103   50.0860    6.6118 C   0  0  0  0  0  0  0  0  0  0  0  0
  -11.2048   48.5120    5.7205 C   0  0  0  0  0  0  0  0  0  0  0  0
  -11.1585   44.0720   -2.4321 C   0  0  0  0  0  0  0  0  0  0  0  0
  -12.8109   50.8195    5.4173 C   0  0  0  0  0  0  0  0  0  0  0  0
  -12.0761   44.1035   -3.4768 C   0  0  0  0  0  0  0  0  0  0  0  0
  -10.8791   50.0851    2.4464 C   0  0  0  0  0  0  0  0  0  0  0  0
  -11.1838   49.2347    4.5148 C   0  0  1  0  0  0  0  0  0  0  0  0
  -12.8028   45.0097   -0.8586 C   0  0  2  0  0  0  0  0  0  0  0  0
  -11.4998   44.5272   -1.1311 C   0  0  1  0  0  0  0  0  0  0  0  0
  -10.4940   49.0575    3.2833 C   0  0  1  0  0  0  0  0  0  0  0  0
  -11.9815   50.3690    4.3870 C   0  0  1  0  0  0  0  0  0  0  0  0
  -13.3399   44.5599   -3.1822 C   0  0  2  0  0  0  0  0  0  0  0  0
  -13.6993   45.0055   -1.9189 C   0  0  2  0  0  0  0  0  0  0  0  0
  -13.2467   45.5127    0.4877 C   0  0  0  0  0  0  0  0  0  0  0  0
   -9.0377   47.9066    1.5987 C   0  0  0  0  0  0  0  0  0  0  0  0
  -15.4464   44.9252   -3.1510 C   0  0  0  0  0  0  0  0  0  0  0  0
   -7.4175   42.5044   -0.3574 C   0  0  0  0  0  0  0  0  0  0  0  0
   -6.7336   43.1416    1.9660 C   0  0  0  0  0  0  0  0  0  0  0  0
   -9.5594   47.9397    3.0101 C   0  0  0  0  0  0  0  0  0  0  0  0
  -10.4493   44.4089   -0.0557 C   0  0  0  0  0  0  0  0  0  0  0  0
   -8.0325   44.7687    0.6228 C   0  0  0  0  0  0  0  0  0  0  0  0
   -9.3003   46.6377   -0.4973 C   0  0  0  0  0  0  0  0  0  0  0  0
   -7.8120   43.2754    0.8975 C   0  0  0  0  0  0  0  0  0  0  0  0
   -9.1214   45.1084   -0.4082 C   0  0  2  0  0  0  0  0  0  0  0  0
  -11.7882   50.8543    3.1119 N   0  3  0  0  0  0  0  0  0  0  0  0
   -9.8173   47.1809    0.7344 N   0  0  0  0  0  0  0  0  0  0  0  0
  -14.3368   45.0597    0.9547 O   0  0  0  0  0  0  0  0  0  0  0  0
  -12.4649   46.3411    1.0651 O   0  0  0  0  0  0  0  0  0  0  0  0
   -7.9679   48.4290    1.2826 O   0  0  0  0  0  0  0  0  0  0  0  0
  -14.3788   44.6149   -4.0651 O   0  0  0  0  0  0  0  0  0  0  0  0
  -14.9897   45.4158   -1.8896 O   0  0  0  0  0  0  0  0  0  0  0  0
  -12.0465   48.3857    7.6923 H   0  0  0  0  0  0  0  0  0  0  0  0
  -13.4539   50.4024    7.4261 H   0  0  0  0  0  0  0  0  0  0  0  0
  -10.5995   47.6132    5.8299 H   0  0  0  0  0  0  0  0  0  0  0  0
  -10.1635   43.6808   -2.6271 H   0  0  0  0  0  0  0  0  0  0  0  0
  -13.4441   51.6895    5.2907 H   0  0  0  0  0  0  0  0  0  0  0  0
  -11.8099   43.7599   -4.4652 H   0  0  0  0  0  0  0  0  0  0  0  0
  -10.6036   50.2995    1.4227 H   0  0  0  0  0  0  0  0  0  0  0  0
  -16.0234   44.0065   -2.9833 H   0  0  0  0  0  0  0  0  0  0  0  0
  -16.1006   45.6769   -3.6020 H   0  0  0  0  0  0  0  0  0  0  0  0
   -7.2652   41.4464   -0.1227 H   0  0  0  0  0  0  0  0  0  0  0  0
   -6.4894   42.8995   -0.7826 H   0  0  0  0  0  0  0  0  0  0  0  0
   -8.1949   42.5593   -1.1253 H   0  0  0  0  0  0  0  0  0  0  0  0
   -7.0214   43.6940    2.8673 H   0  0  0  0  0  0  0  0  0  0  0  0
   -5.7820   43.5460    1.6073 H   0  0  0  0  0  0  0  0  0  0  0  0
   -6.5899   42.0934    2.2396 H   0  0  0  0  0  0  0  0  0  0  0  0
  -10.0381   46.9781    3.2376 H   0  0  0  0  0  0  0  0  0  0  0  0
   -8.6931   48.0216    3.6784 H   0  0  0  0  0  0  0  0  0  0  0  0
  -10.3076   43.3360    0.0969 H   0  0  0  0  0  0  0  0  0  0  0  0
  -10.7927   44.7742    0.9126 H   0  0  0  0  0  0  0  0  0  0  0  0
   -7.0877   45.2179    0.2889 H   0  0  0  0  0  0  0  0  0  0  0  0
   -8.2859   45.2424    1.5775 H   0  0  0  0  0  0  0  0  0  0  0  0
   -9.9943   46.9087   -1.2959 H   0  0  0  0  0  0  0  0  0  0  0  0
   -8.3301   47.0951   -0.7227 H   0  0  0  0  0  0  0  0  0  0  0  0
   -8.7251   42.8324    1.3108 H   0  0  0  0  0  0  0  0  0  0  0  0
   -8.7582   44.7741   -1.3877 H   0  0  0  0  0  0  0  0  0  0  0  0
  -12.2704   51.6530    2.7274 H   0  0  0  0  0  0  0  0  0  0  0  0
  -10.7918   46.9387    1.0046 H   0  0  0  0  0  0  0  0  0  0  0  0
  1  2  1  0  0  0  0
  1  3  1  0  0  0  0
  1 33  1  0  0  0  0
  2  5  1  0  0  0  0
  2 34  1  0  0  0  0
  3 35  1  0  0  0  0
  4  6  1  0  0  0  0
  4 10  1  0  0  0  0
  4 36  1  0  0  0  0
  5 37  1  0  0  0  0
  6 38  1  0  0  0  0
  7 11  1  0  0  0  0
  7 26  1  0  0  0  0
  7 39  1  0  0  0  0
  8  3  1  6  0  0  0
  8 11  1  0  0  0  0
  8 12  1  0  0  0  0
  9 10  1  0  0  0  0
  9 14  1  0  0  0  0
  9 15  1  6  0  0  0
 10 21  1  1  0  0  0
 11 20  1  6  0  0  0
 12  5  1  6  0  0  0
 12 26  1  0  0  0  0
 13  6  1  1  0  0  0
 13 14  1  0  0  0  0
 13 31  1  0  0  0  0
 14 32  1  6  0  0  0
 15 28  2  0  0  0  0
 15 29  1  0  0  0  0
 16 20  1  0  0  0  0
 16 27  1  0  0  0  0
 16 30  2  0  0  0  0
 17 31  1  0  0  0  0
 17 32  1  0  0  0  0
 17 40  1  0  0  0  0
 17 41  1  0  0  0  0
 18 24  1  0  0  0  0
 18 42  1  0  0  0  0
 18 43  1  0  0  0  0
 18 44  1  0  0  0  0
 19 24  1  0  0  0  0
 19 45  1  0  0  0  0
 19 46  1  0  0  0  0
 19 47  1  0  0  0  0
 20 48  1  0  0  0  0
 20 49  1  0  0  0  0
 21 25  1  0  0  0  0
 21 50  1  0  0  0  0
 21 51  1  0  0  0  0
 22 24  1  0  0  0  0
 22 25  1  0  0  0  0
 22 52  1  0  0  0  0
 22 53  1  0  0  0  0
 23 25  1  0  0  0  0
 23 27  1  0  0  0  0
 23 54  1  0  0  0  0
 23 55  1  0  0  0  0
 24 56  1  0  0  0  0
 25 57  1  6  0  0  0
 26 58  1  0  0  0  0
 27 59  1  0  0  0  0
M  CHG  1  26   1
M  END
$$$$
