VXQ
 OpenBabel04111917383D

 21 22  0  0  0  0  0  0  0  0999 V2000
    3.0320  -15.6629   19.0537 N   0  3  0  0  0  0  0  0  0  0  0  0
    0.7295  -14.2501   13.6332 C   0  0  0  0  0  0  0  0  0  0  0  0
    1.7198  -15.8281   18.3729 C   0  0  0  0  0  0  0  0  0  0  0  0
    1.6371  -12.2423   14.1295 O   0  0  0  0  0  0  0  0  0  0  0  0
    1.6756  -14.8615   17.2591 C   0  0  0  0  0  0  0  0  0  0  0  0
    0.8010  -12.9146   13.2980 C   0  0  0  0  0  0  0  0  0  0  0  0
    1.7647  -13.0330   15.2321 C   0  0  0  0  0  0  0  0  0  0  0  0
    1.1845  -15.2187   15.9982 C   0  0  0  0  0  0  0  0  0  0  0  0
    2.1804  -13.5966   17.4951 C   0  0  0  0  0  0  0  0  0  0  0  0
    1.2039  -14.2816   14.9619 C   0  0  0  0  0  0  0  0  0  0  0  0
    2.3188  -12.6393   16.4491 C   0  0  0  0  0  0  0  0  0  0  0  0
    3.1484  -16.2788   19.8473 H   0  0  0  0  0  0  0  0  0  0  0  0
    3.8141  -15.8061   18.3862 H   0  0  0  0  0  0  0  0  0  0  0  0
    0.2524  -15.0653   13.0933 H   0  0  0  0  0  0  0  0  0  0  0  0
    0.9070  -15.6556   19.0929 H   0  0  0  0  0  0  0  0  0  0  0  0
    1.6769  -16.8557   18.0060 H   0  0  0  0  0  0  0  0  0  0  0  0
    0.3149  -12.2887   12.5670 H   0  0  0  0  0  0  0  0  0  0  0  0
    0.7910  -16.2094   15.8131 H   0  0  0  0  0  0  0  0  0  0  0  0
    2.5767  -13.2686   18.4408 H   0  0  0  0  0  0  0  0  0  0  0  0
    2.7598  -11.6810   16.6182 H   0  0  0  0  0  0  0  0  0  0  0  0
    3.0948  -14.7019   19.4298 H   0  0  0  0  0  0  0  0  0  0  0  0
  1  3  1  0  0  0  0
  1 12  1  0  0  0  0
  1 13  1  0  0  0  0
  1 21  1  0  0  0  0
  2  6  2  0  0  0  0
  2 10  1  0  0  0  0
  2 14  1  0  0  0  0
  3  5  1  0  0  0  0
  3 15  1  0  0  0  0
  3 16  1  0  0  0  0
  4  6  1  0  0  0  0
  4  7  1  0  0  0  0
  5  8  2  0  0  0  0
  5  9  1  0  0  0  0
  6 17  1  0  0  0  0
  7 10  2  0  0  0  0
  7 11  1  0  0  0  0
  8 10  1  0  0  0  0
  8 18  1  0  0  0  0
  9 11  2  0  0  0  0
  9 19  1  0  0  0  0
 11 20  1  0  0  0  0
M  CHG  1   1   1
M  END
$$$$
