WJ1
 OpenBabel04111918403D

 20 20  0  0  1  0  0  0  0  0999 V2000
   -6.8942  -32.8245   13.5040 O   0  0  0  0  0  0  0  0  0  0  0  0
   -7.7389  -31.8812   13.6070 C   0  0  0  0  0  0  0  0  0  0  0  0
   -8.4164  -31.3364   12.6919 O   0  0  0  0  0  0  0  0  0  0  0  0
   -7.9592  -31.3944   15.0496 C   0  0  1  0  0  0  0  0  0  0  0  0
   -8.3099  -29.6325   15.1206 Cl  0  0  0  0  0  0  0  0  0  0  0  0
   -9.0872  -32.2162   15.6795 C   0  0  0  0  0  0  0  0  0  0  0  0
   -9.0662  -32.1212   17.1922 C   0  0  0  0  0  0  0  0  0  0  0  0
   -9.8972  -31.2151   17.8609 C   0  0  0  0  0  0  0  0  0  0  0  0
   -8.1562  -32.8926   17.9402 C   0  0  0  0  0  0  0  0  0  0  0  0
   -8.0732  -32.7411   19.3240 C   0  0  0  0  0  0  0  0  0  0  0  0
   -8.8981  -31.8249   19.9764 C   0  0  0  0  0  0  0  0  0  0  0  0
   -9.8105  -31.0654   19.2442 C   0  0  0  0  0  0  0  0  0  0  0  0
   -7.0268  -31.5354   15.6058 H   0  0  0  0  0  0  0  0  0  0  0  0
   -9.0071  -33.2774   15.4031 H   0  0  0  0  0  0  0  0  0  0  0  0
  -10.0673  -31.8964   15.3003 H   0  0  0  0  0  0  0  0  0  0  0  0
  -10.5881  -30.5966   17.2921 H   0  0  0  0  0  0  0  0  0  0  0  0
   -7.4934  -33.5898   17.4318 H   0  0  0  0  0  0  0  0  0  0  0  0
   -7.3528  -33.3262   19.8875 H   0  0  0  0  0  0  0  0  0  0  0  0
   -8.8221  -31.6962   21.0515 H   0  0  0  0  0  0  0  0  0  0  0  0
  -10.4418  -30.3388   19.7459 H   0  0  0  0  0  0  0  0  0  0  0  0
  1  2  2  0  0  0  0
  2  3  1  0  0  0  0
  2  4  1  0  0  0  0
  4  5  1  0  0  0  0
  4  6  1  0  0  0  0
  4 13  1  1  0  0  0
  6  7  1  0  0  0  0
  6 14  1  0  0  0  0
  6 15  1  0  0  0  0
  7  8  2  0  0  0  0
  7  9  1  0  0  0  0
  8 12  1  0  0  0  0
  8 16  1  0  0  0  0
  9 10  2  0  0  0  0
  9 17  1  0  0  0  0
 10 11  1  0  0  0  0
 10 18  1  0  0  0  0
 11 12  2  0  0  0  0
 11 19  1  0  0  0  0
 12 20  1  0  0  0  0
M  END
$$$$
