WW3
 OpenBabel04111921163D

 37 38  0  0  0  0  0  0  0  0999 V2000
   -7.4359    0.7850   16.6466 O   0  0  0  0  0  0  0  0  0  0  0  0
   -5.9735    0.8359   16.8193 S   0  0  0  0  0  0  0  0  0  0  0  0
   -5.3519    0.8640   18.1410 O   0  0  0  0  0  0  0  0  0  0  0  0
   -5.3419   -0.4560   16.0092 N   0  0  0  0  0  0  0  0  0  0  0  0
   -5.3771    2.2529   15.9366 C   0  0  0  0  0  0  0  0  0  0  0  0
   -6.2902    3.2333   15.5395 C   0  0  0  0  0  0  0  0  0  0  0  0
   -4.0181    2.3853   15.6570 C   0  0  0  0  0  0  0  0  0  0  0  0
   -3.5867    3.5236   14.9587 C   0  0  0  0  0  0  0  0  0  0  0  0
   -4.4898    4.5167   14.5263 C   0  0  0  0  0  0  0  0  0  0  0  0
   -5.8404    4.3549   14.8450 C   0  0  0  0  0  0  0  0  0  0  0  0
   -4.1224    5.6561   13.7685 N   0  0  0  0  0  0  0  0  0  0  0  0
   -2.9041    5.8310   13.8689 N   0  0  0  0  0  0  0  0  0  0  0  0
   -2.3593    6.9408   13.3067 N   0  0  0  0  0  0  0  0  0  0  0  0
   -1.3061    7.4145   14.2019 C   0  0  0  0  0  0  0  0  0  0  0  0
   -0.3404    8.5219   13.8265 C   0  0  0  0  0  0  0  0  0  0  0  0
   -1.0901    9.7994   14.1080 C   0  0  0  0  0  0  0  0  0  0  0  0
   -2.1639   10.0547   13.0505 C   0  0  0  0  0  0  0  0  0  0  0  0
   -2.3710    9.0212   11.9291 C   0  0  0  0  0  0  0  0  0  0  0  0
   -3.1206    7.7736   12.3710 C   0  0  0  0  0  0  0  0  0  0  0  0
   -5.7111   -0.7049   15.0928 H   0  0  0  0  0  0  0  0  0  0  0  0
   -4.7355   -1.0925   16.5211 H   0  0  0  0  0  0  0  0  0  0  0  0
   -7.3489    3.1452   15.7770 H   0  0  0  0  0  0  0  0  0  0  0  0
   -3.3022    1.6359   15.9790 H   0  0  0  0  0  0  0  0  0  0  0  0
   -2.5246    3.6364   14.7389 H   0  0  0  0  0  0  0  0  0  0  0  0
   -6.5519    5.1152   14.5352 H   0  0  0  0  0  0  0  0  0  0  0  0
   -0.7068    6.5308   14.4155 H   0  0  0  0  0  0  0  0  0  0  0  0
   -1.8265    7.7156   15.1194 H   0  0  0  0  0  0  0  0  0  0  0  0
    0.0294    8.4729   12.8040 H   0  0  0  0  0  0  0  0  0  0  0  0
    0.5453    8.4559   14.4730 H   0  0  0  0  0  0  0  0  0  0  0  0
   -0.4031   10.6479   14.1862 H   0  0  0  0  0  0  0  0  0  0  0  0
   -1.5709    9.7371   15.1003 H   0  0  0  0  0  0  0  0  0  0  0  0
   -1.8836   10.9947   12.5663 H   0  0  0  0  0  0  0  0  0  0  0  0
   -3.1153   10.1988   13.5679 H   0  0  0  0  0  0  0  0  0  0  0  0
   -1.4229    8.7222   11.4752 H   0  0  0  0  0  0  0  0  0  0  0  0
   -2.9500    9.5051   11.1333 H   0  0  0  0  0  0  0  0  0  0  0  0
   -4.0990    8.0428   12.7817 H   0  0  0  0  0  0  0  0  0  0  0  0
   -3.3049    7.1468   11.4806 H   0  0  0  0  0  0  0  0  0  0  0  0
  1  2  2  0  0  0  0
  2  3  2  0  0  0  0
  2  4  1  0  0  0  0
  2  5  1  0  0  0  0
  4 20  1  0  0  0  0
  4 21  1  0  0  0  0
  5  6  2  0  0  0  0
  5  7  1  0  0  0  0
  6 10  1  0  0  0  0
  6 22  1  0  0  0  0
  7  8  2  0  0  0  0
  7 23  1  0  0  0  0
  8  9  1  0  0  0  0
  8 24  1  0  0  0  0
  9 10  2  0  0  0  0
  9 11  1  0  0  0  0
 10 25  1  0  0  0  0
 11 12  2  0  0  0  0
 12 13  1  0  0  0  0
 13 14  1  0  0  0  0
 13 19  1  0  0  0  0
 14 15  1  0  0  0  0
 14 26  1  0  0  0  0
 14 27  1  0  0  0  0
 15 16  1  0  0  0  0
 15 28  1  0  0  0  0
 15 29  1  0  0  0  0
 16 17  1  0  0  0  0
 16 30  1  0  0  0  0
 16 31  1  0  0  0  0
 17 18  1  0  0  0  0
 17 32  1  0  0  0  0
 17 33  1  0  0  0  0
 18 19  1  0  0  0  0
 18 34  1  0  0  0  0
 18 35  1  0  0  0  0
 19 36  1  0  0  0  0
 19 37  1  0  0  0  0
M  END
$$$$
