WWO
 OpenBabel04111921313D

 42 43  0  0  0  0  0  0  0  0999 V2000
   -4.2315    0.6407   13.9808 F   0  0  0  0  0  0  0  0  0  0  0  0
   -4.7599    1.8536   14.2825 C   0  0  0  0  0  0  0  0  0  0  0  0
   -5.4093    2.0357   15.5458 C   0  0  0  0  0  0  0  0  0  0  0  0
   -5.7891    0.7576   16.7857 S   0  0  0  0  0  0  0  0  0  0  0  0
   -7.2722    0.6706   16.7666 O   0  0  0  0  0  0  0  0  0  0  0  0
   -5.1410   -0.6762   16.1343 N   0  0  0  0  0  0  0  0  0  0  0  0
   -5.2069    0.9824   18.0877 O   0  0  0  0  0  0  0  0  0  0  0  0
   -5.9323    3.2949   15.8226 C   0  0  0  0  0  0  0  0  0  0  0  0
   -6.5739    3.5157   16.9827 F   0  0  0  0  0  0  0  0  0  0  0  0
   -5.7892    4.3508   14.9348 C   0  0  0  0  0  0  0  0  0  0  0  0
   -6.3039    5.5360   15.3154 F   0  0  0  0  0  0  0  0  0  0  0  0
   -4.6098    2.9427   13.3097 C   0  0  0  0  0  0  0  0  0  0  0  0
   -5.1852    4.2108   13.6618 C   0  0  0  0  0  0  0  0  0  0  0  0
   -4.9671    5.8104   12.7282 S   0  0  0  0  0  0  0  0  0  0  0  0
   -3.8185    5.7297   11.8018 O   0  0  0  0  0  0  0  0  0  0  0  0
   -4.4791    6.7861   13.7639 O   0  0  0  0  0  0  0  0  0  0  0  0
   -6.4093    6.5575   11.8000 C   0  0  0  0  0  0  0  0  0  0  0  0
   -5.8618    7.6874   10.8822 C   0  0  0  0  0  0  0  0  0  0  0  0
   -6.7344    7.9910    9.7803 O   0  0  0  0  0  0  0  0  0  0  0  0
   -3.9476    2.7195   12.1024 N   0  0  0  0  0  0  0  0  0  0  0  0
   -4.0965    3.4183   10.8230 C   0  0  0  0  0  0  0  0  0  0  0  0
   -2.8047    3.5899   10.0782 C   0  0  0  0  0  0  0  0  0  0  0  0
   -1.6131    3.1402   10.6570 C   0  0  0  0  0  0  0  0  0  0  0  0
   -0.4078    3.2581    9.9797 C   0  0  0  0  0  0  0  0  0  0  0  0
   -0.3796    3.8375    8.7149 C   0  0  0  0  0  0  0  0  0  0  0  0
   -1.5577    4.2999    8.1253 C   0  0  0  0  0  0  0  0  0  0  0  0
   -2.7702    4.1798    8.8059 C   0  0  0  0  0  0  0  0  0  0  0  0
   -5.1953   -1.5599   16.6511 H   0  0  0  0  0  0  0  0  0  0  0  0
   -4.6754   -0.7101   15.2092 H   0  0  0  0  0  0  0  0  0  0  0  0
   -7.1263    7.0160   12.4957 H   0  0  0  0  0  0  0  0  0  0  0  0
   -6.9367    5.8298   11.1676 H   0  0  0  0  0  0  0  0  0  0  0  0
   -4.9030    7.3850   10.4557 H   0  0  0  0  0  0  0  0  0  0  0  0
   -5.7354    8.6081   11.4605 H   0  0  0  0  0  0  0  0  0  0  0  0
   -6.3222    8.6967    9.2545 H   0  0  0  0  0  0  0  0  0  0  0  0
   -3.2109    2.0169   12.0840 H   0  0  0  0  0  0  0  0  0  0  0  0
   -4.5483    4.3779   10.9459 H   0  0  0  0  0  0  0  0  0  0  0  0
   -4.8153    2.9142   10.1918 H   0  0  0  0  0  0  0  0  0  0  0  0
   -1.6235    2.6967   11.6449 H   0  0  0  0  0  0  0  0  0  0  0  0
    0.5038    2.8990   10.4429 H   0  0  0  0  0  0  0  0  0  0  0  0
    0.5662    3.9303    8.1859 H   0  0  0  0  0  0  0  0  0  0  0  0
   -1.5309    4.7522    7.1385 H   0  0  0  0  0  0  0  0  0  0  0  0
   -3.6878    4.5427    8.3468 H   0  0  0  0  0  0  0  0  0  0  0  0
  1  2  1  0  0  0  0
  2  3  2  0  0  0  0
  2 12  1  0  0  0  0
  3  4  1  0  0  0  0
  3  8  1  0  0  0  0
  4  5  2  0  0  0  0
  4  6  1  0  0  0  0
  4  7  2  0  0  0  0
  6 28  1  0  0  0  0
  6 29  1  0  0  0  0
  8  9  1  0  0  0  0
  8 10  2  0  0  0  0
 10 11  1  0  0  0  0
 10 13  1  0  0  0  0
 12 13  2  0  0  0  0
 12 20  1  0  0  0  0
 13 14  1  0  0  0  0
 14 15  2  0  0  0  0
 14 16  2  0  0  0  0
 14 17  1  0  0  0  0
 17 18  1  0  0  0  0
 17 30  1  0  0  0  0
 17 31  1  0  0  0  0
 18 19  1  0  0  0  0
 18 32  1  0  0  0  0
 18 33  1  0  0  0  0
 19 34  1  0  0  0  0
 20 21  1  0  0  0  0
 20 35  1  0  0  0  0
 21 22  1  0  0  0  0
 21 36  1  0  0  0  0
 21 37  1  0  0  0  0
 22 23  2  0  0  0  0
 22 27  1  0  0  0  0
 23 24  1  0  0  0  0
 23 38  1  0  0  0  0
 24 25  2  0  0  0  0
 24 39  1  0  0  0  0
 25 26  1  0  0  0  0
 25 40  1  0  0  0  0
 26 27  2  0  0  0  0
 26 41  1  0  0  0  0
 27 42  1  0  0  0  0
M  END
$$$$
