WWO
 OpenBabel04111921273D

 42 43  0  0  0  0  0  0  0  0999 V2000
   21.3075   -3.4678    1.5986 F   0  0  0  0  0  0  0  0  0  0  0  0
   21.6591   -2.8642    2.7448 C   0  0  0  0  0  0  0  0  0  0  0  0
   21.4743   -3.5253    3.9501 C   0  0  0  0  0  0  0  0  0  0  0  0
   20.7942   -5.1589    3.9048 S   0  0  0  0  0  0  0  0  0  0  0  0
   21.8243   -6.0381    3.4283 O   0  0  0  0  0  0  0  0  0  0  0  0
   20.4808   -5.6167    5.4744 N   0  0  0  0  0  0  0  0  0  0  0  0
   19.4910   -5.0889    3.2865 O   0  0  0  0  0  0  0  0  0  0  0  0
   21.8130   -2.8732    5.0993 C   0  0  0  0  0  0  0  0  0  0  0  0
   21.6369   -3.4570    6.2974 F   0  0  0  0  0  0  0  0  0  0  0  0
   22.3371   -1.5692    5.0695 C   0  0  0  0  0  0  0  0  0  0  0  0
   22.6096   -0.9915    6.2558 F   0  0  0  0  0  0  0  0  0  0  0  0
   22.2031   -1.5365    2.6576 C   0  0  0  0  0  0  0  0  0  0  0  0
   22.5453   -0.8676    3.8695 C   0  0  0  0  0  0  0  0  0  0  0  0
   22.8279    0.9107    3.9601 S   0  0  0  0  0  0  0  0  0  0  0  0
   22.3781    1.3665    5.2627 O   0  0  0  0  0  0  0  0  0  0  0  0
   22.1800    1.4724    2.7942 O   0  0  0  0  0  0  0  0  0  0  0  0
   24.5787    1.3374    3.8537 C   0  0  0  0  0  0  0  0  0  0  0  0
   24.7511    2.6571    3.0847 C   0  0  0  0  0  0  0  0  0  0  0  0
   26.0693    2.7883    2.5550 O   0  0  0  0  0  0  0  0  0  0  0  0
   22.2509   -0.9761    1.3636 N   0  0  0  0  0  0  0  0  0  0  0  0
   20.9296   -0.5602    0.8535 C   0  0  0  0  0  0  0  0  0  0  0  0
   20.9300   -0.3612   -0.6447 C   0  0  0  0  0  0  0  0  0  0  0  0
   21.2723   -1.4104   -1.5095 C   0  0  0  0  0  0  0  0  0  0  0  0
   21.1332   -1.2638   -2.8925 C   0  0  0  0  0  0  0  0  0  0  0  0
   20.6477   -0.0705   -3.4272 C   0  0  0  0  0  0  0  0  0  0  0  0
   20.3065    0.9786   -2.5804 C   0  0  0  0  0  0  0  0  0  0  0  0
   20.4458    0.8365   -1.1983 C   0  0  0  0  0  0  0  0  0  0  0  0
   20.2178   -6.5826    5.6340 H   0  0  0  0  0  0  0  0  0  0  0  0
   20.7872   -5.0446    6.2531 H   0  0  0  0  0  0  0  0  0  0  0  0
   25.1516    0.5372    3.3848 H   0  0  0  0  0  0  0  0  0  0  0  0
   24.9771    1.4751    4.8707 H   0  0  0  0  0  0  0  0  0  0  0  0
   24.5242    3.5298    3.7101 H   0  0  0  0  0  0  0  0  0  0  0  0
   24.0883    2.7058    2.2178 H   0  0  0  0  0  0  0  0  0  0  0  0
   26.6879    2.9855    3.2774 H   0  0  0  0  0  0  0  0  0  0  0  0
   22.9630   -0.2716    1.1810 H   0  0  0  0  0  0  0  0  0  0  0  0
   20.5921    0.3605    1.3436 H   0  0  0  0  0  0  0  0  0  0  0  0
   20.1664   -1.3166    1.0708 H   0  0  0  0  0  0  0  0  0  0  0  0
   21.6143   -2.3608   -1.1030 H   0  0  0  0  0  0  0  0  0  0  0  0
   21.3814   -2.0906   -3.5531 H   0  0  0  0  0  0  0  0  0  0  0  0
   20.5236    0.0335   -4.5018 H   0  0  0  0  0  0  0  0  0  0  0  0
   19.9009    1.9019   -2.9923 H   0  0  0  0  0  0  0  0  0  0  0  0
   20.1395    1.6565   -0.5519 H   0  0  0  0  0  0  0  0  0  0  0  0
  1  2  1  0  0  0  0
  2  3  2  0  0  0  0
  2 12  1  0  0  0  0
  3  4  1  0  0  0  0
  3  8  1  0  0  0  0
  4  5  2  0  0  0  0
  4  6  1  0  0  0  0
  4  7  2  0  0  0  0
  6 28  1  0  0  0  0
  6 29  1  0  0  0  0
  8  9  1  0  0  0  0
  8 10  2  0  0  0  0
 10 11  1  0  0  0  0
 10 13  1  0  0  0  0
 12 13  2  0  0  0  0
 12 20  1  0  0  0  0
 13 14  1  0  0  0  0
 14 15  2  0  0  0  0
 14 16  2  0  0  0  0
 14 17  1  0  0  0  0
 17 18  1  0  0  0  0
 17 30  1  0  0  0  0
 17 31  1  0  0  0  0
 18 19  1  0  0  0  0
 18 32  1  0  0  0  0
 18 33  1  0  0  0  0
 19 34  1  0  0  0  0
 20 21  1  0  0  0  0
 20 35  1  0  0  0  0
 21 22  1  0  0  0  0
 21 36  1  0  0  0  0
 21 37  1  0  0  0  0
 22 23  2  0  0  0  0
 22 27  1  0  0  0  0
 23 24  1  0  0  0  0
 23 38  1  0  0  0  0
 24 25  2  0  0  0  0
 24 39  1  0  0  0  0
 25 26  1  0  0  0  0
 25 40  1  0  0  0  0
 26 27  2  0  0  0  0
 26 41  1  0  0  0  0
 27 42  1  0  0  0  0
M  END
$$$$
