WWO
 OpenBabel04111921273D

 42 43  0  0  0  0  0  0  0  0999 V2000
   -5.8294   17.6616   -5.8082 F   0  0  0  0  0  0  0  0  0  0  0  0
   -4.6050   17.8204   -5.2851 C   0  0  0  0  0  0  0  0  0  0  0  0
   -3.7384   16.7294   -5.3091 C   0  0  0  0  0  0  0  0  0  0  0  0
   -4.3852   15.2295   -5.9555 S   0  0  0  0  0  0  0  0  0  0  0  0
   -4.4205   15.3613   -7.3895 O   0  0  0  0  0  0  0  0  0  0  0  0
   -3.3331   13.9767   -5.6302 N   0  0  0  0  0  0  0  0  0  0  0  0
   -5.5720   14.9022   -5.1837 O   0  0  0  0  0  0  0  0  0  0  0  0
   -2.4652   16.8724   -4.8027 C   0  0  0  0  0  0  0  0  0  0  0  0
   -1.6012   15.8496   -4.8134 F   0  0  0  0  0  0  0  0  0  0  0  0
   -2.0529   18.1131   -4.2920 C   0  0  0  0  0  0  0  0  0  0  0  0
   -0.8020   18.2184   -3.8194 F   0  0  0  0  0  0  0  0  0  0  0  0
   -4.2280   19.0974   -4.7804 C   0  0  0  0  0  0  0  0  0  0  0  0
   -2.9229   19.2209   -4.2718 C   0  0  0  0  0  0  0  0  0  0  0  0
   -2.2197   20.8094   -3.8440 S   0  0  0  0  0  0  0  0  0  0  0  0
   -3.2246   21.8151   -4.1460 O   0  0  0  0  0  0  0  0  0  0  0  0
   -0.9577   20.8806   -4.5493 O   0  0  0  0  0  0  0  0  0  0  0  0
   -1.8574   21.0109   -2.1179 C   0  0  0  0  0  0  0  0  0  0  0  0
   -2.2272   19.8748   -1.2072 C   0  0  0  0  0  0  0  0  0  0  0  0
   -3.6261   19.6474   -1.2075 O   0  0  0  0  0  0  0  0  0  0  0  0
   -5.1472   20.1437   -4.6681 N   0  0  0  0  0  0  0  0  0  0  0  0
   -6.3929   20.2021   -5.4236 C   0  0  0  0  0  0  0  0  0  0  0  0
   -7.0974   21.5016   -5.1055 C   0  0  0  0  0  0  0  0  0  0  0  0
   -7.8475   21.6127   -3.9248 C   0  0  0  0  0  0  0  0  0  0  0  0
   -8.5100   22.7994   -3.6122 C   0  0  0  0  0  0  0  0  0  0  0  0
   -8.4190   23.8931   -4.4701 C   0  0  0  0  0  0  0  0  0  0  0  0
   -7.6557   23.8052   -5.6337 C   0  0  0  0  0  0  0  0  0  0  0  0
   -6.9918   22.6165   -5.9491 C   0  0  0  0  0  0  0  0  0  0  0  0
   -3.4932   13.1677   -6.2379 H   0  0  0  0  0  0  0  0  0  0  0  0
   -2.3572   14.1877   -5.4174 H   0  0  0  0  0  0  0  0  0  0  0  0
   -2.3834   21.9181   -1.7997 H   0  0  0  0  0  0  0  0  0  0  0  0
   -0.7858   21.2180   -2.0370 H   0  0  0  0  0  0  0  0  0  0  0  0
   -1.9300   20.1187   -0.1796 H   0  0  0  0  0  0  0  0  0  0  0  0
   -1.7158   18.9495   -1.4797 H   0  0  0  0  0  0  0  0  0  0  0  0
   -4.0726   20.4382   -0.8491 H   0  0  0  0  0  0  0  0  0  0  0  0
   -4.7174   21.0758   -4.5752 H   0  0  0  0  0  0  0  0  0  0  0  0
   -7.0602   19.3830   -5.1342 H   0  0  0  0  0  0  0  0  0  0  0  0
   -6.2111   20.1291   -6.5030 H   0  0  0  0  0  0  0  0  0  0  0  0
   -7.9152   20.7656   -3.2451 H   0  0  0  0  0  0  0  0  0  0  0  0
   -9.0964   22.8676   -2.7005 H   0  0  0  0  0  0  0  0  0  0  0  0
   -8.9394   24.8162   -4.2291 H   0  0  0  0  0  0  0  0  0  0  0  0
   -7.5778   24.6639   -6.2959 H   0  0  0  0  0  0  0  0  0  0  0  0
   -6.3942   22.5681   -6.8567 H   0  0  0  0  0  0  0  0  0  0  0  0
  1  2  1  0  0  0  0
  2  3  2  0  0  0  0
  2 12  1  0  0  0  0
  3  4  1  0  0  0  0
  3  8  1  0  0  0  0
  4  5  2  0  0  0  0
  4  6  1  0  0  0  0
  4  7  2  0  0  0  0
  6 28  1  0  0  0  0
  6 29  1  0  0  0  0
  8  9  1  0  0  0  0
  8 10  2  0  0  0  0
 10 11  1  0  0  0  0
 10 13  1  0  0  0  0
 12 13  2  0  0  0  0
 12 20  1  0  0  0  0
 13 14  1  0  0  0  0
 14 15  2  0  0  0  0
 14 16  2  0  0  0  0
 14 17  1  0  0  0  0
 17 18  1  0  0  0  0
 17 30  1  0  0  0  0
 17 31  1  0  0  0  0
 18 19  1  0  0  0  0
 18 32  1  0  0  0  0
 18 33  1  0  0  0  0
 19 34  1  0  0  0  0
 20 21  1  0  0  0  0
 20 35  1  0  0  0  0
 21 22  1  0  0  0  0
 21 36  1  0  0  0  0
 21 37  1  0  0  0  0
 22 23  2  0  0  0  0
 22 27  1  0  0  0  0
 23 24  1  0  0  0  0
 23 38  1  0  0  0  0
 24 25  2  0  0  0  0
 24 39  1  0  0  0  0
 25 26  1  0  0  0  0
 25 40  1  0  0  0  0
 26 27  2  0  0  0  0
 26 41  1  0  0  0  0
 27 42  1  0  0  0  0
M  END
$$$$
