WWX
 OpenBabel04111921263D

 56 58  0  0  1  0  0  0  0  0999 V2000
   28.8072    7.2003   12.1356 O   0  0  0  0  0  0  0  0  0  0  0  0
   28.7876    6.5893   10.8164 S   0  0  0  0  0  0  0  0  0  0  0  0
   29.8540    5.6697   10.4534 O   0  0  0  0  0  0  0  0  0  0  0  0
   30.0662    8.6675    9.5945 C   0  0  0  0  0  0  0  0  0  0  0  0
   30.0125    9.7916   10.4711 O   0  0  0  0  0  0  0  0  0  0  0  0
   28.7539    7.8976    9.6063 C   0  0  0  0  0  0  0  0  0  0  0  0
   27.2724    5.6752   10.6464 C   0  0  0  0  0  0  0  0  0  0  0  0
   27.1385    4.9429    9.4663 C   0  0  0  0  0  0  0  0  0  0  0  0
   28.0251    5.0837    8.4755 F   0  0  0  0  0  0  0  0  0  0  0  0
   26.0880    4.0507    9.2927 C   0  0  0  0  0  0  0  0  0  0  0  0
   26.0360    3.3524    8.1559 F   0  0  0  0  0  0  0  0  0  0  0  0
   26.2967    5.5395   11.6651 C   0  0  0  0  0  0  0  0  0  0  0  0
   25.2149    4.6400   11.4295 C   0  0  0  0  0  0  0  0  0  0  0  0
   24.2626    4.5091   12.3776 F   0  0  0  0  0  0  0  0  0  0  0  0
   25.1281    3.8753   10.2804 C   0  0  0  0  0  0  0  0  0  0  0  0
   23.9354    2.6403    9.9676 S   0  0  0  0  0  0  0  0  0  0  0  0
   23.1345    3.0983    8.8551 O   0  0  0  0  0  0  0  0  0  0  0  0
   22.8812    2.5141   11.2387 N   0  0  0  0  0  0  0  0  0  0  0  0
   24.6331    1.3761    9.9354 O   0  0  0  0  0  0  0  0  0  0  0  0
   26.3291    6.2868   12.8469 N   0  0  0  0  0  0  0  0  0  0  0  0
   25.3349    7.3808   13.0214 C   0  0  2  0  0  0  0  0  0  0  0  0
   25.7551    8.5996   12.2064 C   0  0  0  0  0  0  0  0  0  0  0  0
   25.2664    8.7391   10.8955 C   0  0  0  0  0  0  0  0  0  0  0  0
   25.6349    9.8299   10.1093 C   0  0  0  0  0  0  0  0  0  0  0  0
   26.4896   10.8024   10.6247 C   0  0  0  0  0  0  0  0  0  0  0  0
   26.9715   10.6877   11.9261 C   0  0  0  0  0  0  0  0  0  0  0  0
   26.6185    9.5886   12.7083 C   0  0  0  0  0  0  0  0  0  0  0  0
   25.1131    7.7175   14.5420 C   0  0  1  0  0  0  0  0  0  0  0  0
   24.0951    8.7108   14.7243 O   0  0  0  0  0  0  0  0  0  0  0  0
   24.6791    6.4476   15.2546 C   0  0  0  0  0  0  0  0  0  0  0  0
   23.3562    6.0106   15.1829 C   0  0  0  0  0  0  0  0  0  0  0  0
   23.0176    4.7375   15.6270 C   0  0  0  0  0  0  0  0  0  0  0  0
   24.0001    3.9057   16.1586 C   0  0  0  0  0  0  0  0  0  0  0  0
   25.3127    4.3395   16.2730 C   0  0  0  0  0  0  0  0  0  0  0  0
   25.6621    5.6219   15.8248 C   0  0  0  0  0  0  0  0  0  0  0  0
   30.9340    8.0568    9.8583 H   0  0  0  0  0  0  0  0  0  0  0  0
   30.2430    9.0768    8.5930 H   0  0  0  0  0  0  0  0  0  0  0  0
   29.8316    9.4640   11.3722 H   0  0  0  0  0  0  0  0  0  0  0  0
   27.9307    8.5571    9.8558 H   0  0  0  0  0  0  0  0  0  0  0  0
   28.5766    7.4484    8.6265 H   0  0  0  0  0  0  0  0  0  0  0  0
   22.1015    1.8755   11.0964 H   0  0  0  0  0  0  0  0  0  0  0  0
   22.9421    3.0892   12.0775 H   0  0  0  0  0  0  0  0  0  0  0  0
   27.2692    6.5540   13.1638 H   0  0  0  0  0  0  0  0  0  0  0  0
   24.3585    7.0581   12.6350 H   0  0  0  0  0  0  0  0  0  0  0  0
   24.5977    7.9895   10.4766 H   0  0  0  0  0  0  0  0  0  0  0  0
   25.2766    9.9091    9.0860 H   0  0  0  0  0  0  0  0  0  0  0  0
   26.8019   11.6393   10.0056 H   0  0  0  0  0  0  0  0  0  0  0  0
   27.6402   11.4478   12.3258 H   0  0  0  0  0  0  0  0  0  0  0  0
   27.0364    9.5240   13.7109 H   0  0  0  0  0  0  0  0  0  0  0  0
   26.0258    8.0963   15.0173 H   0  0  0  0  0  0  0  0  0  0  0  0
   24.3492    9.4934   14.2041 H   0  0  0  0  0  0  0  0  0  0  0  0
   22.5946    6.6441   14.7291 H   0  0  0  0  0  0  0  0  0  0  0  0
   21.9957    4.3878   15.5289 H   0  0  0  0  0  0  0  0  0  0  0  0
   23.7393    2.8975   16.4763 H   0  0  0  0  0  0  0  0  0  0  0  0
   26.0825    3.6884   16.6703 H   0  0  0  0  0  0  0  0  0  0  0  0
   26.6991    5.9279   15.8586 H   0  0  0  0  0  0  0  0  0  0  0  0
  1  2  2  0  0  0  0
  2  3  2  0  0  0  0
  2  6  1  0  0  0  0
  2  7  1  0  0  0  0
  4  5  1  0  0  0  0
  4  6  1  0  0  0  0
  4 36  1  0  0  0  0
  4 37  1  0  0  0  0
  5 38  1  0  0  0  0
  6 39  1  0  0  0  0
  6 40  1  0  0  0  0
  7  8  2  0  0  0  0
  7 12  1  0  0  0  0
  8  9  1  0  0  0  0
  8 10  1  0  0  0  0
 10 11  1  0  0  0  0
 10 15  2  0  0  0  0
 12 13  2  0  0  0  0
 12 20  1  0  0  0  0
 13 14  1  0  0  0  0
 13 15  1  0  0  0  0
 15 16  1  0  0  0  0
 16 17  2  0  0  0  0
 16 18  1  0  0  0  0
 16 19  2  0  0  0  0
 18 41  1  0  0  0  0
 18 42  1  0  0  0  0
 20 21  1  0  0  0  0
 20 43  1  0  0  0  0
 21 22  1  0  0  0  0
 21 28  1  0  0  0  0
 21 44  1  6  0  0  0
 22 23  2  0  0  0  0
 22 27  1  0  0  0  0
 23 24  1  0  0  0  0
 23 45  1  0  0  0  0
 24 25  2  0  0  0  0
 24 46  1  0  0  0  0
 25 26  1  0  0  0  0
 25 47  1  0  0  0  0
 26 27  2  0  0  0  0
 26 48  1  0  0  0  0
 27 49  1  0  0  0  0
 28 29  1  0  0  0  0
 28 30  1  0  0  0  0
 28 50  1  1  0  0  0
 29 51  1  0  0  0  0
 30 31  2  0  0  0  0
 30 35  1  0  0  0  0
 31 32  1  0  0  0  0
 31 52  1  0  0  0  0
 32 33  2  0  0  0  0
 32 53  1  0  0  0  0
 33 34  1  0  0  0  0
 33 54  1  0  0  0  0
 34 35  2  0  0  0  0
 34 55  1  0  0  0  0
 35 56  1  0  0  0  0
M  END
$$$$
