X0D
 OpenBabel04111918123D

 62 63  0  0  1  0  0  0  0  0999 V2000
  -19.0562  -30.2156  -15.6482 O   0  0  0  0  0  0  0  0  0  0  0  0
  -18.6042  -29.3325  -14.8680 C   0  0  0  0  0  0  0  0  0  0  0  0
  -18.8245  -29.2336  -13.6273 O   0  0  0  0  0  0  0  0  0  0  0  0
  -17.6720  -28.2730  -15.4852 C   0  0  2  0  0  0  0  0  0  0  0  0
  -16.4963  -28.9297  -16.1795 C   0  0  0  0  0  0  0  0  0  0  0  0
  -15.2195  -29.3815  -14.9913 S   0  0  0  0  0  0  0  0  0  0  0  0
  -15.5927  -31.1350  -14.7674 C   0  0  0  0  0  0  0  0  0  0  0  0
  -14.2898  -31.9411  -14.8527 C   0  0  0  0  0  0  0  0  0  0  0  0
  -13.1171  -31.1938  -15.4901 C   0  0  0  0  0  0  0  0  0  0  0  0
  -14.5093  -33.2451  -15.6067 C   0  0  0  0  0  0  0  0  0  0  0  0
  -17.1797  -27.3088  -14.4968 N   0  0  0  0  0  0  0  0  0  0  0  0
  -17.8477  -26.1801  -14.2372 C   0  0  0  0  0  0  0  0  0  0  0  0
  -18.8349  -25.9069  -14.9174 O   0  0  0  0  0  0  0  0  0  0  0  0
  -17.3749  -25.2801  -13.3086 N   0  0  0  0  0  0  0  0  0  0  0  0
  -18.1669  -24.0747  -13.1304 C   0  0  0  0  0  0  0  0  0  0  0  0
  -17.7905  -23.0336  -14.1765 C   0  0  0  0  0  0  0  0  0  0  0  0
  -18.6194  -21.7841  -13.9816 C   0  0  0  0  0  0  0  0  0  0  0  0
  -16.1290  -25.4358  -12.7467 C   0  0  0  0  0  0  0  0  0  0  0  0
  -15.4580  -26.4554  -12.8767 O   0  0  0  0  0  0  0  0  0  0  0  0
  -15.4992  -24.3561  -11.9509 C   0  0  0  0  0  0  0  0  0  0  0  0
  -14.5925  -23.5043  -12.5618 C   0  0  0  0  0  0  0  0  0  0  0  0
  -15.7181  -24.2522  -10.5803 C   0  0  0  0  0  0  0  0  0  0  0  0
  -15.0518  -23.2608   -9.8459 C   0  0  0  0  0  0  0  0  0  0  0  0
  -14.1644  -22.3908  -10.4506 C   0  0  0  0  0  0  0  0  0  0  0  0
  -13.9494  -22.5380  -11.8032 C   0  0  0  0  0  0  0  0  0  0  0  0
  -13.0556  -21.6585  -12.4528 C   0  0  0  0  0  0  0  0  0  0  0  0
  -12.3566  -20.9391  -13.0072 C   0  0  0  0  0  0  0  0  0  0  0  0
  -11.4820  -20.1063  -13.7249 C   0  0  0  0  0  0  0  0  0  0  0  0
  -11.5866  -18.7357  -13.6346 C   0  0  0  0  0  0  0  0  0  0  0  0
  -10.6947  -17.9758  -14.3798 C   0  0  0  0  0  0  0  0  0  0  0  0
   -9.7293  -18.5772  -15.1906 C   0  0  0  0  0  0  0  0  0  0  0  0
   -8.8759  -17.8335  -15.9161 F   0  0  0  0  0  0  0  0  0  0  0  0
   -9.6545  -19.9583  -15.2472 C   0  0  0  0  0  0  0  0  0  0  0  0
  -10.5346  -20.7208  -14.5135 C   0  0  0  0  0  0  0  0  0  0  0  0
  -10.4812  -22.0598  -14.5514 F   0  0  0  0  0  0  0  0  0  0  0  0
  -18.2565  -27.7284  -16.2481 H   0  0  0  0  0  0  0  0  0  0  0  0
  -16.0296  -28.2109  -16.8690 H   0  0  0  0  0  0  0  0  0  0  0  0
  -16.8011  -29.8098  -16.7359 H   0  0  0  0  0  0  0  0  0  0  0  0
  -16.2987  -31.4697  -15.5294 H   0  0  0  0  0  0  0  0  0  0  0  0
  -16.0416  -31.2668  -13.7757 H   0  0  0  0  0  0  0  0  0  0  0  0
  -13.9988  -32.1933  -13.8289 H   0  0  0  0  0  0  0  0  0  0  0  0
  -12.2349  -31.8313  -15.5222 H   0  0  0  0  0  0  0  0  0  0  0  0
  -12.8769  -30.3019  -14.8931 H   0  0  0  0  0  0  0  0  0  0  0  0
  -13.3780  -30.8813  -16.5113 H   0  0  0  0  0  0  0  0  0  0  0  0
  -15.3450  -33.7961  -15.1640 H   0  0  0  0  0  0  0  0  0  0  0  0
  -13.6028  -33.8608  -15.5478 H   0  0  0  0  0  0  0  0  0  0  0  0
  -14.7310  -33.0392  -16.6617 H   0  0  0  0  0  0  0  0  0  0  0  0
  -16.3810  -27.5937  -13.9345 H   0  0  0  0  0  0  0  0  0  0  0  0
  -17.9890  -23.6691  -12.1281 H   0  0  0  0  0  0  0  0  0  0  0  0
  -19.2378  -24.3129  -13.2209 H   0  0  0  0  0  0  0  0  0  0  0  0
  -17.9655  -23.4397  -15.1812 H   0  0  0  0  0  0  0  0  0  0  0  0
  -16.7274  -22.7866  -14.0832 H   0  0  0  0  0  0  0  0  0  0  0  0
  -18.3470  -21.0358  -14.7326 H   0  0  0  0  0  0  0  0  0  0  0  0
  -18.4405  -21.3722  -12.9812 H   0  0  0  0  0  0  0  0  0  0  0  0
  -19.6842  -22.0258  -14.0837 H   0  0  0  0  0  0  0  0  0  0  0  0
  -14.3902  -23.5818  -13.6237 H   0  0  0  0  0  0  0  0  0  0  0  0
  -16.4010  -24.9316  -10.0808 H   0  0  0  0  0  0  0  0  0  0  0  0
  -15.2317  -23.1731   -8.7834 H   0  0  0  0  0  0  0  0  0  0  0  0
  -13.6544  -21.6184   -9.8782 H   0  0  0  0  0  0  0  0  0  0  0  0
  -12.3426  -18.2690  -13.0053 H   0  0  0  0  0  0  0  0  0  0  0  0
  -10.7552  -16.8994  -14.3268 H   0  0  0  0  0  0  0  0  0  0  0  0
   -8.9130  -20.4421  -15.8613 H   0  0  0  0  0  0  0  0  0  0  0  0
  1  2  2  0  0  0  0
  2  3  1  0  0  0  0
  2  4  1  0  0  0  0
  4  5  1  0  0  0  0
  4 11  1  0  0  0  0
  4 36  1  6  0  0  0
  5  6  1  0  0  0  0
  5 37  1  0  0  0  0
  5 38  1  0  0  0  0
  6  7  1  0  0  0  0
  7  8  1  0  0  0  0
  7 39  1  0  0  0  0
  7 40  1  0  0  0  0
  8  9  1  0  0  0  0
  8 10  1  0  0  0  0
  8 41  1  0  0  0  0
  9 42  1  0  0  0  0
  9 43  1  0  0  0  0
  9 44  1  0  0  0  0
 10 45  1  0  0  0  0
 10 46  1  0  0  0  0
 10 47  1  0  0  0  0
 11 12  1  0  0  0  0
 11 48  1  0  0  0  0
 12 13  2  0  0  0  0
 12 14  1  0  0  0  0
 14 15  1  0  0  0  0
 14 18  1  0  0  0  0
 15 16  1  0  0  0  0
 15 49  1  0  0  0  0
 15 50  1  0  0  0  0
 16 17  1  0  0  0  0
 16 51  1  0  0  0  0
 16 52  1  0  0  0  0
 17 53  1  0  0  0  0
 17 54  1  0  0  0  0
 17 55  1  0  0  0  0
 18 19  2  0  0  0  0
 18 20  1  0  0  0  0
 20 21  2  0  0  0  0
 20 22  1  0  0  0  0
 21 25  1  0  0  0  0
 21 56  1  0  0  0  0
 22 23  2  0  0  0  0
 22 57  1  0  0  0  0
 23 24  1  0  0  0  0
 23 58  1  0  0  0  0
 24 25  2  0  0  0  0
 24 59  1  0  0  0  0
 25 26  1  0  0  0  0
 26 27  3  0  0  0  0
 27 28  1  0  0  0  0
 28 29  2  0  0  0  0
 28 34  1  0  0  0  0
 29 30  1  0  0  0  0
 29 60  1  0  0  0  0
 30 31  2  0  0  0  0
 30 61  1  0  0  0  0
 31 32  1  0  0  0  0
 31 33  1  0  0  0  0
 33 34  2  0  0  0  0
 33 62  1  0  0  0  0
 34 35  1  0  0  0  0
M  END
$$$$
