X0R
 OpenBabel04111918123D

 63 65  0  0  1  0  0  0  0  0999 V2000
  -11.9600  -32.1311  -14.4792 Br  0  0  0  0  0  0  0  0  0  0  0  0
  -13.4456  -31.0444  -14.9116 C   0  0  0  0  0  0  0  0  0  0  0  0
  -14.3526  -31.5062  -15.8622 C   0  0  0  0  0  0  0  0  0  0  0  0
  -15.4303  -30.7072  -16.2058 C   0  0  0  0  0  0  0  0  0  0  0  0
  -13.6191  -29.8130  -14.2734 C   0  0  0  0  0  0  0  0  0  0  0  0
  -14.7149  -29.0197  -14.6029 C   0  0  0  0  0  0  0  0  0  0  0  0
  -15.6136  -29.4582  -15.5847 C   0  0  0  0  0  0  0  0  0  0  0  0
  -16.7843  -28.6032  -15.9786 C   0  0  0  0  0  0  0  0  0  0  0  0
  -18.2933  -29.5554  -15.8448 S   0  0  0  0  0  0  0  0  0  0  0  0
  -18.3358  -29.5195  -14.0420 C   0  0  0  0  0  0  0  0  0  0  0  0
  -19.1435  -28.3062  -13.6461 C   0  0  1  0  0  0  0  0  0  0  0  0
  -20.1205  -28.8797  -12.6194 C   0  0  0  0  0  0  0  0  0  0  0  0
  -21.3466  -28.7874  -12.8915 O   0  0  0  0  0  0  0  0  0  0  0  0
  -19.5958  -29.4248  -11.6052 O   0  0  0  0  0  0  0  0  0  0  0  0
  -18.2843  -27.2279  -13.1650 N   0  0  0  0  0  0  0  0  0  0  0  0
  -18.5708  -25.9479  -13.4856 C   0  0  0  0  0  0  0  0  0  0  0  0
  -19.5433  -25.7058  -14.1905 O   0  0  0  0  0  0  0  0  0  0  0  0
  -17.7658  -24.9551  -12.9816 N   0  0  0  0  0  0  0  0  0  0  0  0
  -18.3375  -23.6568  -12.7311 C   0  0  0  0  0  0  0  0  0  0  0  0
  -18.3474  -22.9154  -14.0425 C   0  0  0  0  0  0  0  0  0  0  0  0
  -19.2667  -21.7286  -13.9645 C   0  0  0  0  0  0  0  0  0  0  0  0
  -16.4854  -25.2435  -12.6255 C   0  0  0  0  0  0  0  0  0  0  0  0
  -15.9642  -26.3221  -12.8843 O   0  0  0  0  0  0  0  0  0  0  0  0
  -15.7036  -24.2466  -11.8569 C   0  0  0  0  0  0  0  0  0  0  0  0
  -14.7996  -23.4235  -12.4998 C   0  0  0  0  0  0  0  0  0  0  0  0
  -15.8615  -24.1513  -10.4717 C   0  0  0  0  0  0  0  0  0  0  0  0
  -15.1032  -23.2236   -9.7455 C   0  0  0  0  0  0  0  0  0  0  0  0
  -14.1882  -22.4026  -10.3759 C   0  0  0  0  0  0  0  0  0  0  0  0
  -14.0607  -22.5350  -11.7391 C   0  0  0  0  0  0  0  0  0  0  0  0
  -13.1453  -21.7009  -12.4072 C   0  0  0  0  0  0  0  0  0  0  0  0
  -12.4125  -21.0227  -12.9670 C   0  0  0  0  0  0  0  0  0  0  0  0
  -11.5101  -20.2152  -13.6792 C   0  0  0  0  0  0  0  0  0  0  0  0
  -11.6446  -18.8488  -13.6093 C   0  0  0  0  0  0  0  0  0  0  0  0
  -10.7093  -18.0831  -14.3012 C   0  0  0  0  0  0  0  0  0  0  0  0
   -9.6888  -18.6750  -15.0475 C   0  0  0  0  0  0  0  0  0  0  0  0
   -8.7857  -17.9531  -15.7384 F   0  0  0  0  0  0  0  0  0  0  0  0
   -9.5944  -20.0543  -15.0801 C   0  0  0  0  0  0  0  0  0  0  0  0
  -10.4980  -20.8268  -14.3858 C   0  0  0  0  0  0  0  0  0  0  0  0
  -10.3605  -22.1594  -14.4051 F   0  0  0  0  0  0  0  0  0  0  0  0
  -14.2255  -32.4769  -16.3334 H   0  0  0  0  0  0  0  0  0  0  0  0
  -16.1469  -31.0426  -16.9559 H   0  0  0  0  0  0  0  0  0  0  0  0
  -12.9091  -29.4736  -13.5234 H   0  0  0  0  0  0  0  0  0  0  0  0
  -14.8744  -28.0633  -14.1030 H   0  0  0  0  0  0  0  0  0  0  0  0
  -16.6804  -28.2808  -17.0145 H   0  0  0  0  0  0  0  0  0  0  0  0
  -16.8507  -27.7270  -15.3295 H   0  0  0  0  0  0  0  0  0  0  0  0
  -17.3137  -29.4508  -13.6534 H   0  0  0  0  0  0  0  0  0  0  0  0
  -18.7870  -30.4479  -13.7035 H   0  0  0  0  0  0  0  0  0  0  0  0
  -19.7182  -27.9274  -14.4963 H   0  0  0  0  0  0  0  0  0  0  0  0
  -17.4979  -27.4434  -12.5672 H   0  0  0  0  0  0  0  0  0  0  0  0
  -17.7354  -23.1152  -11.9864 H   0  0  0  0  0  0  0  0  0  0  0  0
  -19.3504  -23.7715  -12.3213 H   0  0  0  0  0  0  0  0  0  0  0  0
  -18.6900  -23.5954  -14.8344 H   0  0  0  0  0  0  0  0  0  0  0  0
  -17.3277  -22.5914  -14.2830 H   0  0  0  0  0  0  0  0  0  0  0  0
  -19.2722  -21.2070  -14.9254 H   0  0  0  0  0  0  0  0  0  0  0  0
  -18.9214  -21.0464  -13.1805 H   0  0  0  0  0  0  0  0  0  0  0  0
  -20.2847  -22.0630  -13.7287 H   0  0  0  0  0  0  0  0  0  0  0  0
  -14.6721  -23.4682  -13.5755 H   0  0  0  0  0  0  0  0  0  0  0  0
  -16.5726  -24.7919   -9.9558 H   0  0  0  0  0  0  0  0  0  0  0  0
  -15.2268  -23.1469   -8.6723 H   0  0  0  0  0  0  0  0  0  0  0  0
  -13.5978  -21.6795   -9.8121 H   0  0  0  0  0  0  0  0  0  0  0  0
  -12.4421  -18.3843  -13.0261 H   0  0  0  0  0  0  0  0  0  0  0  0
  -10.7849  -17.0076  -14.2492 H   0  0  0  0  0  0  0  0  0  0  0  0
   -8.8128  -20.5337  -15.6454 H   0  0  0  0  0  0  0  0  0  0  0  0
  1  2  1  0  0  0  0
  2  3  2  0  0  0  0
  2  5  1  0  0  0  0
  3  4  1  0  0  0  0
  3 40  1  0  0  0  0
  4  7  2  0  0  0  0
  4 41  1  0  0  0  0
  5  6  2  0  0  0  0
  5 42  1  0  0  0  0
  6  7  1  0  0  0  0
  6 43  1  0  0  0  0
  7  8  1  0  0  0  0
  8  9  1  0  0  0  0
  8 44  1  0  0  0  0
  8 45  1  0  0  0  0
  9 10  1  0  0  0  0
 10 11  1  0  0  0  0
 10 46  1  0  0  0  0
 10 47  1  0  0  0  0
 11 12  1  0  0  0  0
 11 15  1  0  0  0  0
 11 48  1  6  0  0  0
 12 13  2  0  0  0  0
 12 14  1  0  0  0  0
 15 16  1  0  0  0  0
 15 49  1  0  0  0  0
 16 17  2  0  0  0  0
 16 18  1  0  0  0  0
 18 19  1  0  0  0  0
 18 22  1  0  0  0  0
 19 20  1  0  0  0  0
 19 50  1  0  0  0  0
 19 51  1  0  0  0  0
 20 21  1  0  0  0  0
 20 52  1  0  0  0  0
 20 53  1  0  0  0  0
 21 54  1  0  0  0  0
 21 55  1  0  0  0  0
 21 56  1  0  0  0  0
 22 23  2  0  0  0  0
 22 24  1  0  0  0  0
 24 25  2  0  0  0  0
 24 26  1  0  0  0  0
 25 29  1  0  0  0  0
 25 57  1  0  0  0  0
 26 27  2  0  0  0  0
 26 58  1  0  0  0  0
 27 28  1  0  0  0  0
 27 59  1  0  0  0  0
 28 29  2  0  0  0  0
 28 60  1  0  0  0  0
 29 30  1  0  0  0  0
 30 31  3  0  0  0  0
 31 32  1  0  0  0  0
 32 33  2  0  0  0  0
 32 38  1  0  0  0  0
 33 34  1  0  0  0  0
 33 61  1  0  0  0  0
 34 35  2  0  0  0  0
 34 62  1  0  0  0  0
 35 36  1  0  0  0  0
 35 37  1  0  0  0  0
 37 38  2  0  0  0  0
 37 63  1  0  0  0  0
 38 39  1  0  0  0  0
M  END
$$$$
