X6C
 OpenBabel04111918083D

 43 45  0  0  1  0  0  0  0  0999 V2000
   -6.9544   33.6123   -2.3609 C   0  0  0  0  0  0  0  0  0  0  0  0
   -7.1719   34.1789   -0.9821 C   0  0  0  0  0  0  0  0  0  0  0  0
   -7.0861   35.3941   -0.7942 O   0  0  0  0  0  0  0  0  0  0  0  0
   -7.4409   33.3072    0.0443 N   0  0  0  0  0  0  0  0  0  0  0  0
   -7.8305   31.9093   -0.0469 C   0  0  0  0  0  0  0  0  0  0  0  0
   -8.6449   31.6563    1.2256 C   0  0  2  0  0  0  0  0  0  0  0  0
  -10.0095   32.0394    1.0536 O   0  0  0  0  0  0  0  0  0  0  0  0
   -8.0165   32.5957    2.2392 C   0  0  0  0  0  0  0  0  0  0  0  0
   -7.6301   33.8203    1.3965 C   0  0  1  0  0  0  0  0  0  0  0  0
   -6.3451   34.4170    1.9917 C   0  0  0  0  0  0  0  0  0  0  0  0
   -5.2237   33.9799    1.7441 O   0  0  0  0  0  0  0  0  0  0  0  0
   -6.5905   35.3850    2.9449 N   0  0  0  0  0  0  0  0  0  0  0  0
   -5.5353   35.9173    3.7715 C   0  0  0  0  0  0  0  0  0  0  0  0
   -5.2373   35.0590    4.9806 C   0  0  0  0  0  0  0  0  0  0  0  0
   -6.1245   34.0865    5.4639 C   0  0  0  0  0  0  0  0  0  0  0  0
   -5.7992   33.3092    6.5810 C   0  0  0  0  0  0  0  0  0  0  0  0
   -4.0331   35.2585    5.6662 C   0  0  0  0  0  0  0  0  0  0  0  0
   -3.7165   34.4921    6.7921 C   0  0  0  0  0  0  0  0  0  0  0  0
   -4.5934   33.5054    7.2613 C   0  0  0  0  0  0  0  0  0  0  0  0
   -4.2509   32.7226    8.4370 C   0  0  0  0  0  0  0  0  0  0  0  0
   -4.8985   31.5263    8.6152 O   0  0  0  0  0  0  0  0  0  0  0  0
   -4.3583   31.0292    9.7611 C   0  0  0  0  0  0  0  0  0  0  0  0
   -3.4497   31.7868   10.3300 N   0  0  0  0  0  0  0  0  0  0  0  0
   -3.3743   32.8688    9.4895 C   0  0  0  0  0  0  0  0  0  0  0  0
   -7.1112   32.5361   -2.4240 H   0  0  0  0  0  0  0  0  0  0  0  0
   -5.9245   33.8197   -2.6650 H   0  0  0  0  0  0  0  0  0  0  0  0
   -7.6447   34.1029   -3.0531 H   0  0  0  0  0  0  0  0  0  0  0  0
   -6.9109   31.3151   -0.0575 H   0  0  0  0  0  0  0  0  0  0  0  0
   -8.4152   31.7245   -0.9507 H   0  0  0  0  0  0  0  0  0  0  0  0
   -8.6218   30.6100    1.5428 H   0  0  0  0  0  0  0  0  0  0  0  0
  -10.3867   31.4926    0.3429 H   0  0  0  0  0  0  0  0  0  0  0  0
   -7.1293   32.1221    2.6795 H   0  0  0  0  0  0  0  0  0  0  0  0
   -8.6944   32.8730    3.0528 H   0  0  0  0  0  0  0  0  0  0  0  0
   -8.4338   34.5659    1.3745 H   0  0  0  0  0  0  0  0  0  0  0  0
   -7.5296   35.7324    3.0814 H   0  0  0  0  0  0  0  0  0  0  0  0
   -5.8539   36.9103    4.1064 H   0  0  0  0  0  0  0  0  0  0  0  0
   -4.6327   36.0264    3.1590 H   0  0  0  0  0  0  0  0  0  0  0  0
   -7.0761   33.9055    4.9718 H   0  0  0  0  0  0  0  0  0  0  0  0
   -6.5051   32.5515    6.9156 H   0  0  0  0  0  0  0  0  0  0  0  0
   -3.3225   36.0058    5.3200 H   0  0  0  0  0  0  0  0  0  0  0  0
   -2.7628   34.6693    7.2850 H   0  0  0  0  0  0  0  0  0  0  0  0
   -4.7248   30.0670   10.0911 H   0  0  0  0  0  0  0  0  0  0  0  0
   -2.7026   33.6938    9.6860 H   0  0  0  0  0  0  0  0  0  0  0  0
  1  2  1  0  0  0  0
  1 25  1  0  0  0  0
  1 26  1  0  0  0  0
  1 27  1  0  0  0  0
  2  3  2  0  0  0  0
  2  4  1  0  0  0  0
  4  5  1  0  0  0  0
  4  9  1  0  0  0  0
  5  6  1  0  0  0  0
  5 28  1  0  0  0  0
  5 29  1  0  0  0  0
  6  7  1  0  0  0  0
  6  8  1  0  0  0  0
  6 30  1  1  0  0  0
  7 31  1  0  0  0  0
  8  9  1  0  0  0  0
  8 32  1  0  0  0  0
  8 33  1  0  0  0  0
  9 10  1  0  0  0  0
  9 34  1  1  0  0  0
 10 11  2  0  0  0  0
 10 12  1  0  0  0  0
 12 13  1  0  0  0  0
 12 35  1  0  0  0  0
 13 14  1  0  0  0  0
 13 36  1  0  0  0  0
 13 37  1  0  0  0  0
 14 15  2  0  0  0  0
 14 17  1  0  0  0  0
 15 16  1  0  0  0  0
 15 38  1  0  0  0  0
 16 19  2  0  0  0  0
 16 39  1  0  0  0  0
 17 18  2  0  0  0  0
 17 40  1  0  0  0  0
 18 19  1  0  0  0  0
 18 41  1  0  0  0  0
 19 20  1  0  0  0  0
 20 21  1  0  0  0  0
 20 24  2  0  0  0  0
 21 22  1  0  0  0  0
 22 23  2  0  0  0  0
 22 42  1  0  0  0  0
 23 24  1  0  0  0  0
 24 43  1  0  0  0  0
M  END
$$$$
