X8Z
 OpenBabel04111921073D

 28 28  0  0  1  0  0  0  0  0999 V2000
   18.4294   20.8709   -8.4867 O   0  0  0  0  0  0  0  0  0  0  0  0
   18.2820   20.3615   -7.3744 C   0  0  0  0  0  0  0  0  0  0  0  0
   19.3655   19.4381   -6.8199 C   0  0  1  0  0  0  0  0  0  0  0  0
   19.1718   18.0932   -7.5257 C   0  0  0  0  0  0  0  0  0  0  0  0
   20.1405   16.7468   -6.7700 S   0  0  0  0  0  0  0  0  0  0  0  0
   20.7441   20.0547   -7.0707 C   0  0  0  0  0  0  0  0  0  0  0  0
   17.1205   20.4819   -6.6409 N   0  0  0  0  0  0  0  0  0  0  0  0
   16.0565   21.3901   -7.0954 C   0  0  2  0  0  0  0  0  0  0  0  0
   16.4379   22.8863   -7.3144 C   0  0  0  0  0  0  0  0  0  0  0  0
   15.7647   23.4769   -8.2082 O   0  0  0  0  0  0  0  0  0  0  0  0
   17.2978   23.3596   -6.5110 O   0  0  0  0  0  0  0  0  0  0  0  0
   16.7706   19.7959   -5.4205 C   0  0  0  0  0  0  0  0  0  0  0  0
   15.4714   20.3992   -4.9251 C   0  0  0  0  0  0  0  0  0  0  0  0
   15.0017   21.3839   -5.9867 C   0  0  0  0  0  0  0  0  0  0  0  0
   19.2568   19.3211   -5.7395 H   0  0  0  0  0  0  0  0  0  0  0  0
   19.4528   18.1686   -8.5830 H   0  0  0  0  0  0  0  0  0  0  0  0
   18.1196   17.7895   -7.4974 H   0  0  0  0  0  0  0  0  0  0  0  0
   19.5587   16.8086   -5.5637 H   0  0  0  0  0  0  0  0  0  0  0  0
   20.8120   21.0391   -6.5954 H   0  0  0  0  0  0  0  0  0  0  0  0
   20.9416   20.1924   -8.1389 H   0  0  0  0  0  0  0  0  0  0  0  0
   21.5429   19.4323   -6.6556 H   0  0  0  0  0  0  0  0  0  0  0  0
   15.6447   20.9714   -8.0243 H   0  0  0  0  0  0  0  0  0  0  0  0
   17.5611   19.9038   -4.6740 H   0  0  0  0  0  0  0  0  0  0  0  0
   16.6493   18.7303   -5.6459 H   0  0  0  0  0  0  0  0  0  0  0  0
   15.6350   20.9155   -3.9723 H   0  0  0  0  0  0  0  0  0  0  0  0
   14.7191   19.6249   -4.7376 H   0  0  0  0  0  0  0  0  0  0  0  0
   14.0273   21.0813   -6.3857 H   0  0  0  0  0  0  0  0  0  0  0  0
   14.8525   22.3711   -5.5313 H   0  0  0  0  0  0  0  0  0  0  0  0
  1  2  2  0  0  0  0
  2  3  1  0  0  0  0
  2  7  1  0  0  0  0
  3  4  1  0  0  0  0
  3  6  1  0  0  0  0
  3 15  1  1  0  0  0
  4  5  1  0  0  0  0
  4 16  1  0  0  0  0
  4 17  1  0  0  0  0
  5 18  1  0  0  0  0
  6 19  1  0  0  0  0
  6 20  1  0  0  0  0
  6 21  1  0  0  0  0
  7  8  1  0  0  0  0
  7 12  1  0  0  0  0
  8  9  1  0  0  0  0
  8 14  1  0  0  0  0
  8 22  1  6  0  0  0
  9 10  2  0  0  0  0
  9 11  1  0  0  0  0
 12 13  1  0  0  0  0
 12 23  1  0  0  0  0
 12 24  1  0  0  0  0
 13 14  1  0  0  0  0
 13 25  1  0  0  0  0
 13 26  1  0  0  0  0
 14 27  1  0  0  0  0
 14 28  1  0  0  0  0
M  END
$$$$
