XH2
 OpenBabel04111918183D

 28 28  0  0  1  0  0  0  0  0999 V2000
    3.7868   13.5823   21.0810 O   0  0  0  0  0  0  0  0  0  0  0  0
    2.7957   13.2249   22.0556 C   0  0  1  0  0  0  0  0  0  0  0  0
    2.6516   11.6873   21.9767 C   0  0  2  0  0  0  0  0  0  0  0  0
    2.0946   11.2906   20.7150 O   0  0  0  0  0  0  0  0  0  0  0  0
    1.7898   11.1944   23.1279 C   0  0  0  0  0  0  0  0  0  0  0  0
    2.4909   11.5095   24.4517 C   0  0  1  0  0  0  0  0  0  0  0  0
    1.5256   11.2411   25.6744 C   0  0  0  0  0  0  0  0  0  0  0  0
    2.0729   11.3200   26.8336 O   0  0  0  0  0  0  0  0  0  0  0  0
    0.3194   10.9731   25.4131 O   0  0  0  0  0  0  0  0  0  0  0  0
    3.7057   10.7078   24.5388 O   0  0  0  0  0  0  0  0  0  0  0  0
    3.0173   12.9055   24.5102 C   0  0  0  0  0  0  0  0  0  0  0  0
    3.1673   13.6962   23.4315 C   0  0  0  0  0  0  0  0  0  0  0  0
    3.6028   15.1190   23.6259 C   0  0  0  0  0  0  0  0  0  0  0  0
    3.0193   15.7365   24.9017 C   0  0  0  0  0  0  0  0  0  0  0  0
    3.0152   17.1618   24.8221 O   0  0  0  0  0  0  0  0  0  0  0  0
    3.9056   14.5428   21.1296 H   0  0  0  0  0  0  0  0  0  0  0  0
    1.8477   13.6986   21.7610 H   0  0  0  0  0  0  0  0  0  0  0  0
    3.6448   11.2262   22.0437 H   0  0  0  0  0  0  0  0  0  0  0  0
    2.7087   11.6408   20.0447 H   0  0  0  0  0  0  0  0  0  0  0  0
    1.6137   10.1154   23.0315 H   0  0  0  0  0  0  0  0  0  0  0  0
    0.8031   11.6776   23.0707 H   0  0  0  0  0  0  0  0  0  0  0  0
    3.4068    9.7887   24.6260 H   0  0  0  0  0  0  0  0  0  0  0  0
    3.2423   13.2429   25.5088 H   0  0  0  0  0  0  0  0  0  0  0  0
    3.3069   15.7251   22.7627 H   0  0  0  0  0  0  0  0  0  0  0  0
    4.6949   15.1236   23.6652 H   0  0  0  0  0  0  0  0  0  0  0  0
    3.6214   15.4345   25.7669 H   0  0  0  0  0  0  0  0  0  0  0  0
    1.9865   15.3969   25.0536 H   0  0  0  0  0  0  0  0  0  0  0  0
    2.6280   17.4819   25.6554 H   0  0  0  0  0  0  0  0  0  0  0  0
  1  2  1  0  0  0  0
  1 16  1  0  0  0  0
  2  3  1  0  0  0  0
  2 12  1  0  0  0  0
  2 17  1  6  0  0  0
  3  4  1  0  0  0  0
  3  5  1  0  0  0  0
  3 18  1  1  0  0  0
  4 19  1  0  0  0  0
  5  6  1  0  0  0  0
  5 20  1  0  0  0  0
  5 21  1  0  0  0  0
  6  7  1  1  0  0  0
  6 10  1  0  0  0  0
  6 11  1  0  0  0  0
  7  8  2  0  0  0  0
  7  9  1  0  0  0  0
 10 22  1  0  0  0  0
 11 12  2  0  0  0  0
 11 23  1  0  0  0  0
 12 13  1  0  0  0  0
 13 14  1  0  0  0  0
 13 24  1  0  0  0  0
 13 25  1  0  0  0  0
 14 15  1  0  0  0  0
 14 26  1  0  0  0  0
 14 27  1  0  0  0  0
 15 28  1  0  0  0  0
M  END
$$$$
