XJ8
 OpenBabel04111918223D

 62 66  0  0  1  0  0  0  0  0999 V2000
  -26.4025  -55.5520   -9.7593 C   0  0  0  0  0  0  0  0  0  0  0  0
  -25.4752  -56.2939  -10.0564 O   0  0  0  0  0  0  0  0  0  0  0  0
  -27.3097  -55.8301   -8.6020 C   0  0  0  0  0  0  0  0  0  0  0  0
  -28.5009  -55.1142   -8.4047 C   0  0  0  0  0  0  0  0  0  0  0  0
  -29.3546  -55.4181   -7.3481 C   0  0  0  0  0  0  0  0  0  0  0  0
  -29.0202  -56.4540   -6.4779 C   0  0  0  0  0  0  0  0  0  0  0  0
  -27.8367  -57.1930   -6.6464 C   0  0  0  0  0  0  0  0  0  0  0  0
  -26.9894  -56.8644   -7.7223 C   0  0  0  0  0  0  0  0  0  0  0  0
  -27.4771  -58.3209   -5.7140 C   0  0  0  0  0  0  0  0  0  0  0  0
  -28.4008  -58.5656   -4.7621 C   0  0  0  0  0  0  0  0  0  0  0  0
  -29.6499  -57.8050   -4.5783 C   0  0  0  0  0  0  0  0  0  0  0  0
  -30.4442  -58.0904   -3.6847 O   0  0  0  0  0  0  0  0  0  0  0  0
  -29.8858  -56.7672   -5.4322 N   0  3  0  0  0  0  0  0  0  0  0  0
  -26.3933  -58.9643   -5.8492 O   0  0  0  0  0  0  0  0  0  0  0  0
  -26.6903  -54.4313  -10.4981 N   0  0  0  0  0  0  0  0  0  0  0  0
  -25.9725  -54.0775  -11.7153 C   0  0  2  0  0  0  0  0  0  0  0  0
  -25.1143  -52.8325  -11.4889 C   0  0  0  0  0  0  0  0  0  0  0  0
  -25.2817  -52.1020  -10.5146 O   0  0  0  0  0  0  0  0  0  0  0  0
  -26.9999  -53.6698  -12.7656 C   0  0  0  0  0  0  0  0  0  0  0  0
  -27.9129  -54.7764  -13.2100 C   0  0  0  0  0  0  0  0  0  0  0  0
  -29.2944  -54.6489  -13.0257 C   0  0  0  0  0  0  0  0  0  0  0  0
  -27.4014  -55.9205  -13.8323 C   0  0  0  0  0  0  0  0  0  0  0  0
  -30.1517  -55.6609  -13.4460 C   0  0  0  0  0  0  0  0  0  0  0  0
  -28.2609  -56.9311  -14.2560 C   0  0  0  0  0  0  0  0  0  0  0  0
  -29.6351  -56.7996  -14.0624 C   0  0  0  0  0  0  0  0  0  0  0  0
  -19.7302  -50.7747  -11.7639 C   0  0  0  0  0  0  0  0  0  0  0  0
  -19.2919  -52.0977  -11.6983 C   0  0  0  0  0  0  0  0  0  0  0  0
  -20.1751  -53.1628  -11.8603 C   0  0  0  0  0  0  0  0  0  0  0  0
  -21.5156  -52.8992  -12.0991 C   0  0  0  0  0  0  0  0  0  0  0  0
  -21.9937  -51.5851  -12.1780 C   0  0  0  0  0  0  0  0  0  0  0  0
  -21.0955  -50.5097  -12.0112 C   0  0  0  0  0  0  0  0  0  0  0  0
  -18.8320  -49.7846  -11.5942 N   0  0  0  0  0  0  0  0  0  0  0  0
  -19.2536  -48.5098  -11.6637 C   0  0  0  0  0  0  0  0  0  0  0  0
  -20.5638  -48.1571  -11.9018 C   0  0  0  0  0  0  0  0  0  0  0  0
  -18.2939  -47.5389  -11.4790 N   0  0  0  0  0  0  0  0  0  0  0  0
  -21.5122  -49.1642  -12.0797 C   0  0  0  0  0  0  0  0  0  0  0  0
  -23.4514  -51.2982  -12.4203 C   0  0  0  0  0  0  0  0  0  0  0  0
  -24.2705  -52.4790  -12.5219 N   0  0  0  0  0  0  0  0  0  0  0  0
  -28.7986  -54.3252   -9.0796 H   0  0  0  0  0  0  0  0  0  0  0  0
  -30.2743  -54.8510   -7.2342 H   0  0  0  0  0  0  0  0  0  0  0  0
  -26.0777  -57.4443   -7.8684 H   0  0  0  0  0  0  0  0  0  0  0  0
  -28.2361  -59.3709   -4.0542 H   0  0  0  0  0  0  0  0  0  0  0  0
  -30.7351  -56.2528   -5.2778 H   0  0  0  0  0  0  0  0  0  0  0  0
  -27.4163  -53.7951  -10.2154 H   0  0  0  0  0  0  0  0  0  0  0  0
  -25.3250  -54.9003  -12.0369 H   0  0  0  0  0  0  0  0  0  0  0  0
  -26.5006  -53.2613  -13.6482 H   0  0  0  0  0  0  0  0  0  0  0  0
  -27.6096  -52.8570  -12.3406 H   0  0  0  0  0  0  0  0  0  0  0  0
  -29.7048  -53.7579  -12.5562 H   0  0  0  0  0  0  0  0  0  0  0  0
  -26.3310  -56.0291  -13.9875 H   0  0  0  0  0  0  0  0  0  0  0  0
  -31.2220  -55.5634  -13.2908 H   0  0  0  0  0  0  0  0  0  0  0  0
  -27.8603  -57.8225  -14.7323 H   0  0  0  0  0  0  0  0  0  0  0  0
  -30.3063  -57.5873  -14.3903 H   0  0  0  0  0  0  0  0  0  0  0  0
  -18.2427  -52.3209  -11.5114 H   0  0  0  0  0  0  0  0  0  0  0  0
  -19.8280  -54.1917  -11.7942 H   0  0  0  0  0  0  0  0  0  0  0  0
  -22.1996  -53.7342  -12.2064 H   0  0  0  0  0  0  0  0  0  0  0  0
  -20.8886  -47.1149  -11.9576 H   0  0  0  0  0  0  0  0  0  0  0  0
  -18.5288  -46.5637  -11.4937 H   0  0  0  0  0  0  0  0  0  0  0  0
  -17.3599  -47.8576  -11.2976 H   0  0  0  0  0  0  0  0  0  0  0  0
  -22.5477  -48.8931  -12.2611 H   0  0  0  0  0  0  0  0  0  0  0  0
  -23.5524  -50.7485  -13.3630 H   0  0  0  0  0  0  0  0  0  0  0  0
  -23.8156  -50.6648  -11.6031 H   0  0  0  0  0  0  0  0  0  0  0  0
  -24.1444  -53.0963  -13.3131 H   0  0  0  0  0  0  0  0  0  0  0  0
  1  2  2  0  0  0  0
  1  3  1  0  0  0  0
  1 15  1  0  0  0  0
  3  4  2  0  0  0  0
  3  8  1  0  0  0  0
  4  5  1  0  0  0  0
  4 39  1  0  0  0  0
  5  6  2  0  0  0  0
  5 40  1  0  0  0  0
  6  7  1  0  0  0  0
  6 13  1  0  0  0  0
  7  8  2  0  0  0  0
  7  9  1  0  0  0  0
  8 41  1  0  0  0  0
  9 10  2  0  0  0  0
  9 14  1  0  0  0  0
 10 11  1  0  0  0  0
 10 42  1  0  0  0  0
 11 12  2  0  0  0  0
 11 13  1  0  0  0  0
 13 43  1  0  0  0  0
 15 16  1  0  0  0  0
 15 44  1  0  0  0  0
 16 17  1  0  0  0  0
 16 19  1  0  0  0  0
 16 45  1  6  0  0  0
 17 18  2  0  0  0  0
 17 38  1  0  0  0  0
 19 20  1  0  0  0  0
 19 46  1  0  0  0  0
 19 47  1  0  0  0  0
 20 21  2  0  0  0  0
 20 22  1  0  0  0  0
 21 23  1  0  0  0  0
 21 48  1  0  0  0  0
 22 24  2  0  0  0  0
 22 49  1  0  0  0  0
 23 25  2  0  0  0  0
 23 50  1  0  0  0  0
 24 25  1  0  0  0  0
 24 51  1  0  0  0  0
 25 52  1  0  0  0  0
 26 27  2  0  0  0  0
 26 31  1  0  0  0  0
 26 32  1  0  0  0  0
 27 28  1  0  0  0  0
 27 53  1  0  0  0  0
 28 29  2  0  0  0  0
 28 54  1  0  0  0  0
 29 30  1  0  0  0  0
 29 55  1  0  0  0  0
 30 31  2  0  0  0  0
 30 37  1  0  0  0  0
 31 36  1  0  0  0  0
 32 33  2  0  0  0  0
 33 34  1  0  0  0  0
 33 35  1  0  0  0  0
 34 36  2  0  0  0  0
 34 56  1  0  0  0  0
 35 57  1  0  0  0  0
 35 58  1  0  0  0  0
 36 59  1  0  0  0  0
 37 38  1  0  0  0  0
 37 60  1  0  0  0  0
 37 61  1  0  0  0  0
 38 62  1  0  0  0  0
M  CHG  1  13   1
M  END
$$$$
