XNS
 OpenBabel04111917483D

 54 54  0  0  1  0  0  0  0  0999 V2000
   20.7959  -68.2956   20.7487 C   0  0  0  0  0  0  0  0  0  0  0  0
   20.8877  -68.0960   18.3484 O   0  0  0  0  0  0  0  0  0  0  0  0
   21.1698  -68.7483   19.3644 C   0  0  0  0  0  0  0  0  0  0  0  0
   21.7925  -69.9457   19.3490 O   0  0  0  0  0  0  0  0  0  0  0  0
   22.1438  -70.3806   18.0367 C   0  0  0  0  0  0  0  0  0  0  0  0
   20.7567  -66.7716   20.8933 C   0  0  0  0  0  0  0  0  0  0  0  0
   20.4461  -66.3774   22.3436 C   0  0  0  0  0  0  0  0  0  0  0  0
   19.0818  -66.8645   22.8340 C   0  0  0  0  0  0  0  0  0  0  0  0
   17.9021  -66.1684   22.1522 C   0  0  0  0  0  0  0  0  0  0  0  0
   16.5959  -66.7380   22.7040 C   0  0  0  0  0  0  0  0  0  0  0  0
   15.3405  -66.0019   22.2342 C   0  0  0  0  0  0  0  0  0  0  0  0
   15.2592  -64.5443   22.7272 C   0  0  0  0  0  0  0  0  0  0  0  0
   14.0460  -63.9884   22.2299 O   0  0  0  0  0  0  0  0  0  0  0  0
   13.7348  -62.6338   22.5922 C   0  0  2  0  0  0  0  0  0  0  0  0
   12.3738  -62.3124   21.9175 C   0  0  1  0  0  0  0  0  0  0  0  0
   11.8474  -61.0282   22.2943 O   0  0  0  0  0  0  0  0  0  0  0  0
   12.5619  -62.3554   20.4017 C   0  0  1  0  0  0  0  0  0  0  0  0
   11.3228  -62.0192   19.7555 O   0  0  0  0  0  0  0  0  0  0  0  0
   13.6118  -61.3311   20.0067 C   0  0  2  0  0  0  0  0  0  0  0  0
   13.8408  -61.4311   18.5921 O   0  0  0  0  0  0  0  0  0  0  0  0
   14.9072  -61.6131   20.7664 C   0  0  2  0  0  0  0  0  0  0  0  0
   14.7338  -61.6827   22.1916 O   0  0  0  0  0  0  0  0  0  0  0  0
   15.9474  -60.5432   20.4019 C   0  0  0  0  0  0  0  0  0  0  0  0
   15.4691  -59.2405   20.7249 O   0  0  0  0  0  0  0  0  0  0  0  0
   21.5223  -68.6956   21.4701 H   0  0  0  0  0  0  0  0  0  0  0  0
   19.8172  -68.7141   20.9604 H   0  0  0  0  0  0  0  0  0  0  0  0
   22.6594  -71.3476   18.0837 H   0  0  0  0  0  0  0  0  0  0  0  0
   22.8031  -69.6635   17.5572 H   0  0  0  0  0  0  0  0  0  0  0  0
   21.2253  -70.5231   17.4277 H   0  0  0  0  0  0  0  0  0  0  0  0
   20.0094  -66.3290   20.2185 H   0  0  0  0  0  0  0  0  0  0  0  0
   21.7181  -66.3310   20.5989 H   0  0  0  0  0  0  0  0  0  0  0  0
   20.5116  -65.2892   22.4638 H   0  0  0  0  0  0  0  0  0  0  0  0
   21.2191  -66.8130   22.9890 H   0  0  0  0  0  0  0  0  0  0  0  0
   19.0201  -66.6940   23.9153 H   0  0  0  0  0  0  0  0  0  0  0  0
   18.9886  -67.9462   22.7002 H   0  0  0  0  0  0  0  0  0  0  0  0
   17.9354  -66.3137   21.0667 H   0  0  0  0  0  0  0  0  0  0  0  0
   17.9701  -65.0921   22.3402 H   0  0  0  0  0  0  0  0  0  0  0  0
   16.6240  -66.7180   23.7999 H   0  0  0  0  0  0  0  0  0  0  0  0
   16.5262  -67.7936   22.4093 H   0  0  0  0  0  0  0  0  0  0  0  0
   14.4612  -66.5543   22.5947 H   0  0  0  0  0  0  0  0  0  0  0  0
   15.2738  -66.0387   21.1389 H   0  0  0  0  0  0  0  0  0  0  0  0
   16.1084  -63.9788   22.3358 H   0  0  0  0  0  0  0  0  0  0  0  0
   15.2812  -64.5212   23.8219 H   0  0  0  0  0  0  0  0  0  0  0  0
   13.6124  -62.5473   23.6831 H   0  0  0  0  0  0  0  0  0  0  0  0
   11.6191  -63.0477   22.2199 H   0  0  0  0  0  0  0  0  0  0  0  0
   11.1179  -60.8466   21.6690 H   0  0  0  0  0  0  0  0  0  0  0  0
   12.8659  -63.3567   20.0560 H   0  0  0  0  0  0  0  0  0  0  0  0
   10.6926  -62.7274   19.9547 H   0  0  0  0  0  0  0  0  0  0  0  0
   13.2213  -60.3256   20.2226 H   0  0  0  0  0  0  0  0  0  0  0  0
   14.4269  -60.7002   18.3430 H   0  0  0  0  0  0  0  0  0  0  0  0
   15.3145  -62.5755   20.4530 H   0  0  0  0  0  0  0  0  0  0  0  0
   16.1429  -60.5494   19.3257 H   0  0  0  0  0  0  0  0  0  0  0  0
   16.8958  -60.7224   20.9149 H   0  0  0  0  0  0  0  0  0  0  0  0
   16.1780  -58.6147   20.5179 H   0  0  0  0  0  0  0  0  0  0  0  0
  1  3  1  0  0  0  0
  1  6  1  0  0  0  0
  1 25  1  0  0  0  0
  1 26  1  0  0  0  0
  2  3  2  0  0  0  0
  3  4  1  0  0  0  0
  4  5  1  0  0  0  0
  5 27  1  0  0  0  0
  5 28  1  0  0  0  0
  5 29  1  0  0  0  0
  6  7  1  0  0  0  0
  6 30  1  0  0  0  0
  6 31  1  0  0  0  0
  7  8  1  0  0  0  0
  7 32  1  0  0  0  0
  7 33  1  0  0  0  0
  8  9  1  0  0  0  0
  8 34  1  0  0  0  0
  8 35  1  0  0  0  0
  9 10  1  0  0  0  0
  9 36  1  0  0  0  0
  9 37  1  0  0  0  0
 10 11  1  0  0  0  0
 10 38  1  0  0  0  0
 10 39  1  0  0  0  0
 11 12  1  0  0  0  0
 11 40  1  0  0  0  0
 11 41  1  0  0  0  0
 12 13  1  0  0  0  0
 12 42  1  0  0  0  0
 12 43  1  0  0  0  0
 13 14  1  0  0  0  0
 14 15  1  0  0  0  0
 14 22  1  0  0  0  0
 14 44  1  1  0  0  0
 15 16  1  0  0  0  0
 15 17  1  0  0  0  0
 15 45  1  1  0  0  0
 16 46  1  0  0  0  0
 17 18  1  0  0  0  0
 17 19  1  0  0  0  0
 17 47  1  6  0  0  0
 18 48  1  0  0  0  0
 19 20  1  0  0  0  0
 19 21  1  0  0  0  0
 19 49  1  1  0  0  0
 20 50  1  0  0  0  0
 21 22  1  0  0  0  0
 21 23  1  0  0  0  0
 21 51  1  6  0  0  0
 23 24  1  0  0  0  0
 23 52  1  0  0  0  0
 23 53  1  0  0  0  0
 24 54  1  0  0  0  0
M  END
$$$$
