XPF
 OpenBabel04111922243D

 46 48  0  0  1  0  0  0  0  0999 V2000
   62.4349   23.9305   42.4982 C   0  0  0  0  0  0  0  0  0  0  0  0
   61.1596   26.0494   42.5260 C   0  0  0  0  0  0  0  0  0  0  0  0
   63.5656   26.1187   42.4887 C   0  0  0  0  0  0  0  0  0  0  0  0
   61.1269   27.4356   42.5384 C   0  0  0  0  0  0  0  0  0  0  0  0
   62.8079   20.3101   41.1335 C   0  0  0  0  0  0  0  0  0  0  0  0
   62.3570   21.7067   43.1547 C   0  0  0  0  0  0  0  0  0  0  0  0
   63.5263   27.5053   42.4951 C   0  0  0  0  0  0  0  0  0  0  0  0
   62.2413   23.0681   43.5518 C   0  0  0  0  0  0  0  0  0  0  0  0
   62.6484   21.5668   41.8141 C   0  0  0  0  0  0  0  0  0  0  0  0
   62.3826   25.3825   42.4978 C   0  0  0  0  0  0  0  0  0  0  0  0
   62.3086   28.1624   42.5045 C   0  0  0  0  0  0  0  0  0  0  0  0
   61.3471   32.2731   43.1674 C   0  0  0  0  0  0  0  0  0  0  0  0
   61.6205   31.2394   41.1008 C   0  0  0  0  0  0  0  0  0  0  0  0
   60.6111   30.9467   43.2208 C   0  0  1  0  0  0  0  0  0  0  0  0
   61.1917   30.1687   42.0700 C   0  0  2  0  0  0  0  0  0  0  0  0
   59.6652   32.2640   46.5348 C   0  0  0  0  0  0  0  0  0  0  0  0
   57.4169   31.1821   46.2854 C   0  0  0  0  0  0  0  0  0  0  0  0
   58.7789   31.3973   45.6705 C   0  0  0  0  0  0  0  0  0  0  0  0
   62.9262   19.2857   40.6058 N   0  0  0  0  0  0  0  0  0  0  0  0
   60.8627   30.2867   44.5085 N   0  0  0  0  0  0  0  0  0  0  0  0
   59.9938   29.2699   46.6566 O   0  0  0  0  0  0  0  0  0  0  0  0
   58.6835   29.0371   44.5016 O   0  0  0  0  0  0  0  0  0  0  0  0
   61.9177   32.4201   41.8619 O   0  0  0  0  0  0  0  0  0  0  0  0
   62.3874   29.5180   42.5031 O   0  0  0  0  0  0  0  0  0  0  0  0
   62.7962   23.0914   41.0520 S   0  0  0  0  0  0  0  0  0  0  0  0
   59.5488   29.8036   45.4071 S   0  0  0  0  0  0  0  0  0  0  0  0
   60.2297   25.4896   42.5365 H   0  0  0  0  0  0  0  0  0  0  0  0
   64.5211   25.6032   42.4761 H   0  0  0  0  0  0  0  0  0  0  0  0
   60.1558   27.9225   42.5809 H   0  0  0  0  0  0  0  0  0  0  0  0
   62.2274   20.8741   43.8357 H   0  0  0  0  0  0  0  0  0  0  0  0
   64.4506   28.0703   42.4857 H   0  0  0  0  0  0  0  0  0  0  0  0
   62.0238   23.3903   44.5623 H   0  0  0  0  0  0  0  0  0  0  0  0
   62.1483   32.3016   43.9155 H   0  0  0  0  0  0  0  0  0  0  0  0
   60.6627   33.1072   43.3623 H   0  0  0  0  0  0  0  0  0  0  0  0
   60.8161   31.4708   40.3946 H   0  0  0  0  0  0  0  0  0  0  0  0
   62.5168   30.9313   40.5536 H   0  0  0  0  0  0  0  0  0  0  0  0
   59.5417   31.1082   43.0566 H   0  0  0  0  0  0  0  0  0  0  0  0
   60.4698   29.4989   41.5962 H   0  0  0  0  0  0  0  0  0  0  0  0
   59.1929   33.2353   46.6957 H   0  0  0  0  0  0  0  0  0  0  0  0
   60.6308   32.4191   46.0459 H   0  0  0  0  0  0  0  0  0  0  0  0
   59.8372   31.7809   47.4997 H   0  0  0  0  0  0  0  0  0  0  0  0
   56.9267   32.1417   46.4518 H   0  0  0  0  0  0  0  0  0  0  0  0
   57.5152   30.6513   47.2353 H   0  0  0  0  0  0  0  0  0  0  0  0
   56.7983   30.5795   45.6105 H   0  0  0  0  0  0  0  0  0  0  0  0
   58.6394   31.8916   44.7046 H   0  0  0  0  0  0  0  0  0  0  0  0
   61.8297   30.1282   44.8097 H   0  0  0  0  0  0  0  0  0  0  0  0
  1  8  2  0  0  0  0
  1 10  1  0  0  0  0
  1 25  1  0  0  0  0
  2  4  2  0  0  0  0
  2 10  1  0  0  0  0
  2 27  1  0  0  0  0
  3  7  1  0  0  0  0
  3 10  2  0  0  0  0
  3 28  1  0  0  0  0
  4 11  1  0  0  0  0
  4 29  1  0  0  0  0
  5  9  1  0  0  0  0
  5 19  3  0  0  0  0
  6  8  1  0  0  0  0
  6  9  2  0  0  0  0
  6 30  1  0  0  0  0
  7 11  2  0  0  0  0
  7 31  1  0  0  0  0
  8 32  1  0  0  0  0
  9 25  1  0  0  0  0
 11 24  1  0  0  0  0
 12 14  1  0  0  0  0
 12 23  1  0  0  0  0
 12 33  1  0  0  0  0
 12 34  1  0  0  0  0
 13 15  1  0  0  0  0
 13 23  1  0  0  0  0
 13 35  1  0  0  0  0
 13 36  1  0  0  0  0
 14 15  1  0  0  0  0
 14 20  1  0  0  0  0
 14 37  1  6  0  0  0
 15 24  1  0  0  0  0
 15 38  1  6  0  0  0
 16 18  1  0  0  0  0
 16 39  1  0  0  0  0
 16 40  1  0  0  0  0
 16 41  1  0  0  0  0
 17 18  1  0  0  0  0
 17 42  1  0  0  0  0
 17 43  1  0  0  0  0
 17 44  1  0  0  0  0
 18 26  1  0  0  0  0
 18 45  1  0  0  0  0
 20 26  1  0  0  0  0
 20 46  1  0  0  0  0
 21 26  2  0  0  0  0
 22 26  2  0  0  0  0
M  END
$$$$
