XX9
 OpenBabel04111920533D

 60 62  0  0  0  0  0  0  0  0999 V2000
    9.9891   11.0358  -20.0057 Cl  0  0  0  0  0  0  0  0  0  0  0  0
   10.4438   11.9529  -21.3880 C   0  0  0  0  0  0  0  0  0  0  0  0
   10.3977   11.3164  -22.6366 C   0  0  0  0  0  0  0  0  0  0  0  0
   10.7261   11.9622  -23.8266 C   0  0  0  0  0  0  0  0  0  0  0  0
   10.6755   11.3145  -25.0557 N   0  0  0  0  0  0  0  0  0  0  0  0
   10.8640   12.0691  -26.2913 C   0  0  0  0  0  0  0  0  0  0  0  0
   10.5996    9.8603  -25.1020 C   0  0  0  0  0  0  0  0  0  0  0  0
   11.1169   13.2964  -23.7076 C   0  0  0  0  0  0  0  0  0  0  0  0
   11.2273   13.9566  -22.4634 C   0  0  0  0  0  0  0  0  0  0  0  0
   11.7629   15.5929  -22.4460 Cl  0  0  0  0  0  0  0  0  0  0  0  0
   10.8688   13.2722  -21.3054 C   0  0  0  0  0  0  0  0  0  0  0  0
   10.8213   13.9501  -19.9927 C   0  0  0  0  0  0  0  0  0  0  0  0
    9.7742   14.3423  -19.5832 O   0  0  0  0  0  0  0  0  0  0  0  0
   12.0002   14.1167  -19.2745 N   0  0  0  0  0  0  0  0  0  0  0  0
   11.9186   14.8239  -18.0108 C   0  0  0  0  0  0  0  0  0  0  0  0
   12.4482   16.2244  -18.0556 C   0  0  0  0  0  0  0  0  0  0  0  0
   11.6428   17.2686  -18.5168 C   0  0  0  0  0  0  0  0  0  0  0  0
   12.1246   18.5665  -18.4812 C   0  0  0  0  0  0  0  0  0  0  0  0
   13.4412   18.8013  -18.0643 C   0  0  0  0  0  0  0  0  0  0  0  0
   14.2674   17.7607  -17.6291 C   0  0  0  0  0  0  0  0  0  0  0  0
   13.7610   16.4721  -17.6222 C   0  0  0  0  0  0  0  0  0  0  0  0
   13.2083   13.6083  -19.7137 C   0  0  0  0  0  0  0  0  0  0  0  0
   14.1485   14.4981  -20.2262 C   0  0  0  0  0  0  0  0  0  0  0  0
   13.4493   12.2297  -19.6537 C   0  0  0  0  0  0  0  0  0  0  0  0
   14.6921   11.7617  -20.0227 C   0  0  0  0  0  0  0  0  0  0  0  0
   15.6506   12.6590  -20.4798 C   0  0  0  0  0  0  0  0  0  0  0  0
   16.8496   12.0989  -20.7863 O   0  0  0  0  0  0  0  0  0  0  0  0
   15.3994   14.0299  -20.6083 C   0  0  0  0  0  0  0  0  0  0  0  0
   16.4848   14.9824  -21.0432 C   0  0  0  0  0  0  0  0  0  0  0  0
   16.9735   14.6496  -22.4581 C   0  0  0  0  0  0  0  0  0  0  0  0
   16.0654   16.4437  -20.9749 C   0  0  0  0  0  0  0  0  0  0  0  0
   17.6278   14.8927  -20.0357 C   0  0  0  0  0  0  0  0  0  0  0  0
   10.0876   10.2853  -22.6251 H   0  0  0  0  0  0  0  0  0  0  0  0
   10.8140   11.4183  -27.1700 H   0  0  0  0  0  0  0  0  0  0  0  0
   11.8390   12.5781  -26.3119 H   0  0  0  0  0  0  0  0  0  0  0  0
   10.0852   12.8396  -26.4027 H   0  0  0  0  0  0  0  0  0  0  0  0
   10.4730    9.3914  -24.1221 H   0  0  0  0  0  0  0  0  0  0  0  0
   11.5180    9.4327  -25.5080 H   0  0  0  0  0  0  0  0  0  0  0  0
    9.7452    9.5397  -25.6993 H   0  0  0  0  0  0  0  0  0  0  0  0
   11.3618   13.8531  -24.6033 H   0  0  0  0  0  0  0  0  0  0  0  0
   12.4783   14.2717  -17.2471 H   0  0  0  0  0  0  0  0  0  0  0  0
   10.8793   14.8813  -17.6692 H   0  0  0  0  0  0  0  0  0  0  0  0
   10.6485   17.0395  -18.8986 H   0  0  0  0  0  0  0  0  0  0  0  0
   11.4812   19.3945  -18.7727 H   0  0  0  0  0  0  0  0  0  0  0  0
   13.8303   19.8146  -18.0903 H   0  0  0  0  0  0  0  0  0  0  0  0
   15.2825   17.9645  -17.2941 H   0  0  0  0  0  0  0  0  0  0  0  0
   14.3630   15.6227  -17.3164 H   0  0  0  0  0  0  0  0  0  0  0  0
   13.8940   15.5543  -20.2771 H   0  0  0  0  0  0  0  0  0  0  0  0
   12.6821   11.5541  -19.2844 H   0  0  0  0  0  0  0  0  0  0  0  0
   14.9273   10.7063  -19.9653 H   0  0  0  0  0  0  0  0  0  0  0  0
   17.4502   12.8165  -21.0814 H   0  0  0  0  0  0  0  0  0  0  0  0
   17.7774   15.3245  -22.7482 H   0  0  0  0  0  0  0  0  0  0  0  0
   16.1641   14.7061  -23.1907 H   0  0  0  0  0  0  0  0  0  0  0  0
   17.3796   13.6425  -22.5388 H   0  0  0  0  0  0  0  0  0  0  0  0
   15.7069   16.6744  -19.9656 H   0  0  0  0  0  0  0  0  0  0  0  0
   15.2778   16.6563  -21.6990 H   0  0  0  0  0  0  0  0  0  0  0  0
   16.9326   17.0724  -21.1787 H   0  0  0  0  0  0  0  0  0  0  0  0
   18.0428   13.8988  -19.9493 H   0  0  0  0  0  0  0  0  0  0  0  0
   17.2790   15.1680  -19.0367 H   0  0  0  0  0  0  0  0  0  0  0  0
   18.4381   15.5487  -20.3382 H   0  0  0  0  0  0  0  0  0  0  0  0
  1  2  1  0  0  0  0
  2  3  2  0  0  0  0
  2 11  1  0  0  0  0
  3  4  1  0  0  0  0
  3 33  1  0  0  0  0
  4  5  1  0  0  0  0
  4  8  2  0  0  0  0
  5  6  1  0  0  0  0
  5  7  1  0  0  0  0
  6 34  1  0  0  0  0
  6 35  1  0  0  0  0
  6 36  1  0  0  0  0
  7 37  1  0  0  0  0
  7 38  1  0  0  0  0
  7 39  1  0  0  0  0
  8  9  1  0  0  0  0
  8 40  1  0  0  0  0
  9 10  1  0  0  0  0
  9 11  2  0  0  0  0
 11 12  1  0  0  0  0
 12 13  2  0  0  0  0
 12 14  1  0  0  0  0
 14 15  1  0  0  0  0
 14 22  1  0  0  0  0
 15 16  1  0  0  0  0
 15 41  1  0  0  0  0
 15 42  1  0  0  0  0
 16 17  2  0  0  0  0
 16 21  1  0  0  0  0
 17 18  1  0  0  0  0
 17 43  1  0  0  0  0
 18 19  2  0  0  0  0
 18 44  1  0  0  0  0
 19 20  1  0  0  0  0
 19 45  1  0  0  0  0
 20 21  2  0  0  0  0
 20 46  1  0  0  0  0
 21 47  1  0  0  0  0
 22 23  2  0  0  0  0
 22 24  1  0  0  0  0
 23 28  1  0  0  0  0
 23 48  1  0  0  0  0
 24 25  2  0  0  0  0
 24 49  1  0  0  0  0
 25 26  1  0  0  0  0
 25 50  1  0  0  0  0
 26 27  1  0  0  0  0
 26 28  2  0  0  0  0
 27 51  1  0  0  0  0
 28 29  1  0  0  0  0
 29 30  1  0  0  0  0
 29 31  1  0  0  0  0
 29 32  1  0  0  0  0
 30 52  1  0  0  0  0
 30 53  1  0  0  0  0
 30 54  1  0  0  0  0
 31 55  1  0  0  0  0
 31 56  1  0  0  0  0
 31 57  1  0  0  0  0
 32 58  1  0  0  0  0
 32 59  1  0  0  0  0
 32 60  1  0  0  0  0
M  END
$$$$
