Y30
 OpenBabel04111920233D

 64 69  0  0  1  0  0  0  0  0999 V2000
  -13.1830   -6.2034    1.7756 O   0  0  0  0  0  0  0  0  0  0  0  0
  -14.1040   -6.1027    2.6401 C   0  0  0  0  0  0  0  0  0  0  0  0
  -14.2365   -6.8145    3.6709 O   0  0  0  0  0  0  0  0  0  0  0  0
  -15.0869   -5.0255    2.4009 C   0  0  2  0  0  0  0  0  0  0  0  0
  -14.9875   -4.1793    1.3271 N   0  3  0  0  0  0  0  0  0  0  0  0
  -16.0382   -3.3029    1.3443 C   0  0  2  0  0  0  0  0  0  0  0  0
  -16.3572   -2.2814    0.4757 C   0  0  0  0  0  0  0  0  0  0  0  0
  -17.5032   -1.5456    0.7237 C   0  0  1  0  0  0  0  0  0  0  0  0
  -17.8731   -0.2919   -0.4010 Cl  0  0  0  0  0  0  0  0  0  0  0  0
  -18.3176   -1.8064    1.8238 C   0  0  0  0  0  0  0  0  0  0  0  0
  -17.9879   -2.8310    2.6979 C   0  0  0  0  0  0  0  0  0  0  0  0
  -16.8230   -3.5623    2.4497 C   0  0  1  0  0  0  0  0  0  0  0  0
  -16.2023   -4.6209    3.1197 C   0  0  1  0  0  0  0  0  0  0  0  0
  -16.9690   -5.2422    4.2513 C   0  0  2  0  0  0  0  0  0  0  0  0
  -17.2978   -4.3577    5.4633 C   0  0  0  0  0  0  0  0  0  0  0  0
  -16.3443   -3.4740    5.9310 N   0  0  0  0  0  0  0  0  0  0  0  0
  -16.5357   -2.5366    7.0464 C   0  0  0  0  0  0  0  0  0  0  0  0
  -17.7250   -1.6175    6.8094 C   0  0  0  0  0  0  0  0  0  0  0  0
  -15.3186   -1.6269    7.1222 C   0  0  0  0  0  0  0  0  0  0  0  0
  -16.7168   -3.2394    8.3904 C   0  0  0  0  0  0  0  0  0  0  0  0
  -18.4147   -4.4238    5.9684 O   0  0  0  0  0  0  0  0  0  0  0  0
  -16.9345   -6.6485    4.3347 N   0  0  0  0  0  0  0  0  0  0  0  0
  -17.9997   -7.4106    4.3925 C   0  0  0  0  0  0  0  0  0  0  0  0
  -18.4478   -8.5461    4.4112 O   0  0  0  0  0  0  0  0  0  0  0  0
  -18.1924   -6.1377    3.8013 C   0  0  1  0  0  0  0  0  0  0  0  0
  -18.5616   -6.2223    2.3025 C   0  0  1  0  0  0  0  0  0  0  0  0
  -17.6635   -6.7443    1.3627 C   0  0  0  0  0  0  0  0  0  0  0  0
  -17.9711   -6.8750   -0.0067 C   0  0  0  0  0  0  0  0  0  0  0  0
  -19.8209   -5.8852    1.7689 C   0  0  0  0  0  0  0  0  0  0  0  0
  -20.1371   -6.0190    0.3759 C   0  0  0  0  0  0  0  0  0  0  0  0
  -19.2129   -6.5109   -0.5372 C   0  0  2  0  0  0  0  0  0  0  0  0
  -19.3655   -6.7241   -1.8815 O   0  0  0  0  0  0  0  0  0  0  0  0
  -20.4827   -6.3394   -2.7062 C   0  0  0  0  0  0  0  0  0  0  0  0
  -20.0850   -6.6076   -4.1632 C   0  0  2  0  0  0  0  0  0  0  0  0
  -19.9205   -7.9251   -4.6234 C   0  0  0  0  0  0  0  0  0  0  0  0
  -19.8327   -5.5524   -5.0518 C   0  0  0  0  0  0  0  0  0  0  0  0
  -19.4157   -5.8084   -6.3643 C   0  0  0  0  0  0  0  0  0  0  0  0
  -19.2425   -7.1239   -6.8009 C   0  0  2  0  0  0  0  0  0  0  0  0
  -18.7138   -7.4281   -8.4219 Cl  0  0  0  0  0  0  0  0  0  0  0  0
  -19.4978   -8.1862   -5.9334 C   0  0  0  0  0  0  0  0  0  0  0  0
  -14.2441   -4.1998    0.6320 H   0  0  0  0  0  0  0  0  0  0  0  0
  -15.7245   -2.0689   -0.3677 H   0  0  0  0  0  0  0  0  0  0  0  0
  -19.2059   -1.2200    2.0111 H   0  0  0  0  0  0  0  0  0  0  0  0
  -18.6031   -3.0584    3.5676 H   0  0  0  0  0  0  0  0  0  0  0  0
  -15.4512   -3.4733    5.4537 H   0  0  0  0  0  0  0  0  0  0  0  0
  -17.8388   -0.9317    7.6590 H   0  0  0  0  0  0  0  0  0  0  0  0
  -18.6419   -2.1969    6.7016 H   0  0  0  0  0  0  0  0  0  0  0  0
  -17.5614   -1.0302    5.8998 H   0  0  0  0  0  0  0  0  0  0  0  0
  -15.4333   -0.9202    7.9512 H   0  0  0  0  0  0  0  0  0  0  0  0
  -15.2271   -1.0627    6.1850 H   0  0  0  0  0  0  0  0  0  0  0  0
  -14.4122   -2.2187    7.2716 H   0  0  0  0  0  0  0  0  0  0  0  0
  -16.8473   -2.4924    9.1884 H   0  0  0  0  0  0  0  0  0  0  0  0
  -15.8391   -3.8510    8.6257 H   0  0  0  0  0  0  0  0  0  0  0  0
  -17.6038   -3.8814    8.3710 H   0  0  0  0  0  0  0  0  0  0  0  0
  -16.6760   -7.0584    1.7117 H   0  0  0  0  0  0  0  0  0  0  0  0
  -17.1996   -7.2830   -0.6558 H   0  0  0  0  0  0  0  0  0  0  0  0
  -20.5869   -5.5168    2.4467 H   0  0  0  0  0  0  0  0  0  0  0  0
  -21.1256   -5.7328    0.0474 H   0  0  0  0  0  0  0  0  0  0  0  0
  -20.7230   -5.2740   -2.5999 H   0  0  0  0  0  0  0  0  0  0  0  0
  -21.3812   -6.9341   -2.4863 H   0  0  0  0  0  0  0  0  0  0  0  0
  -20.1201   -8.7507   -3.9453 H   0  0  0  0  0  0  0  0  0  0  0  0
  -19.9593   -4.5265   -4.7161 H   0  0  0  0  0  0  0  0  0  0  0  0
  -19.2249   -4.9786   -7.0378 H   0  0  0  0  0  0  0  0  0  0  0  0
  -19.3691   -9.2133   -6.2634 H   0  0  0  0  0  0  0  0  0  0  0  0
  1  2  2  0  0  0  0
  2  3  1  0  0  0  0
  4  2  1  1  0  0  0
  4  5  1  0  0  0  0
  4 13  1  0  0  0  0
  5 41  1  0  0  0  0
  6  5  1  1  0  0  0
  6  7  1  0  0  0  0
  6 12  1  0  0  0  0
  7  8  1  0  0  0  0
  7 42  1  0  0  0  0
  8  9  1  6  0  0  0
  8 10  1  0  0  0  0
 10 11  1  0  0  0  0
 10 43  1  0  0  0  0
 11 44  1  0  0  0  0
 12 11  1  6  0  0  0
 12 13  1  0  0  0  0
 13 14  1  6  0  0  0
 14 15  1  1  0  0  0
 14 22  1  0  0  0  0
 14 25  1  0  0  0  0
 15 16  1  0  0  0  0
 15 21  2  0  0  0  0
 16 17  1  0  0  0  0
 16 45  1  0  0  0  0
 17 18  1  0  0  0  0
 17 19  1  0  0  0  0
 17 20  1  0  0  0  0
 18 46  1  0  0  0  0
 18 47  1  0  0  0  0
 18 48  1  0  0  0  0
 19 49  1  0  0  0  0
 19 50  1  0  0  0  0
 19 51  1  0  0  0  0
 20 52  1  0  0  0  0
 20 53  1  0  0  0  0
 20 54  1  0  0  0  0
 22 23  1  0  0  0  0
 23 24  2  0  0  0  0
 23 25  1  0  0  0  0
 25 22  1  6  0  0  0
 25 26  1  0  0  0  0
 26 27  1  1  0  0  0
 26 29  1  0  0  0  0
 27 28  1  0  0  0  0
 27 55  1  0  0  0  0
 28 31  1  0  0  0  0
 28 56  1  0  0  0  0
 29 30  1  0  0  0  0
 29 57  1  0  0  0  0
 30 31  1  0  0  0  0
 30 58  1  0  0  0  0
 31 32  1  1  0  0  0
 32 33  1  0  0  0  0
 33 59  1  0  0  0  0
 33 60  1  0  0  0  0
 34 33  1  1  0  0  0
 34 35  1  0  0  0  0
 34 36  1  0  0  0  0
 35 40  1  0  0  0  0
 35 61  1  0  0  0  0
 36 37  1  0  0  0  0
 36 62  1  0  0  0  0
 37 38  1  0  0  0  0
 37 63  1  0  0  0  0
 38 39  1  6  0  0  0
 38 40  1  0  0  0  0
 40 64  1  0  0  0  0
M  CHG  1   5   1
M  END
$$$$
