YFB
 OpenBabel04111917363D

 61 62  0  0  0  0  0  0  0  0999 V2000
  -10.5332   15.8392  -13.2077 C   0  0  0  0  0  0  0  0  0  0  0  0
  -11.8929   15.8335  -13.8551 C   0  0  0  0  0  0  0  0  0  0  0  0
  -12.1525   14.7110  -14.8174 C   0  0  0  0  0  0  0  0  0  0  0  0
  -12.7728   16.8064  -13.5419 C   0  0  0  0  0  0  0  0  0  0  0  0
  -14.2027   16.9259  -14.0118 C   0  0  0  0  0  0  0  0  0  0  0  0
  -14.9329   18.1207  -13.3619 C   0  0  0  0  0  0  0  0  0  0  0  0
  -16.4023   17.8813  -13.0732 C   0  0  0  0  0  0  0  0  0  0  0  0
  -17.2914   17.5420  -14.2441 C   0  0  0  0  0  0  0  0  0  0  0  0
  -16.9530   17.9945  -11.8475 C   0  0  0  0  0  0  0  0  0  0  0  0
  -16.2775   18.3686  -10.5477 C   0  0  0  0  0  0  0  0  0  0  0  0
  -16.5633   19.7848  -10.0886 C   0  0  0  0  0  0  0  0  0  0  0  0
  -17.8681   20.2668   -9.9413 C   0  0  0  0  0  0  0  0  0  0  0  0
  -18.1022   21.5839   -9.5469 C   0  0  0  0  0  0  0  0  0  0  0  0
  -18.9426   19.4547  -10.2220 O   0  0  0  0  0  0  0  0  0  0  0  0
  -19.8482   19.4089   -9.1226 C   0  0  0  0  0  0  0  0  0  0  0  0
  -15.5170   20.6643   -9.7385 C   0  0  0  0  0  0  0  0  0  0  0  0
  -14.2310   20.1612   -9.8305 O   0  0  0  0  0  0  0  0  0  0  0  0
  -15.7262   21.9959   -9.2846 C   0  0  0  0  0  0  0  0  0  0  0  0
  -14.5301   22.8696   -8.9283 C   0  0  0  0  0  0  0  0  0  0  0  0
  -13.3914   22.2889   -8.9565 O   0  0  0  0  0  0  0  0  0  0  0  0
  -14.6863   24.0832   -8.6264 O   0  0  0  0  0  0  0  0  0  0  0  0
  -17.0597   22.4579   -9.2062 C   0  0  0  0  0  0  0  0  0  0  0  0
  -17.4874   23.8316   -8.7429 C   0  0  0  0  0  0  0  0  0  0  0  0
  -17.7360   23.8800   -7.2311 C   0  0  0  0  0  0  0  0  0  0  0  0
  -17.9330   25.2956   -6.7405 C   0  0  0  0  0  0  0  0  0  0  0  0
  -18.9613   26.1035   -7.2460 C   0  0  0  0  0  0  0  0  0  0  0  0
  -19.1056   27.4205   -6.8095 C   0  0  0  0  0  0  0  0  0  0  0  0
  -18.2309   27.9384   -5.8564 C   0  0  0  0  0  0  0  0  0  0  0  0
  -17.2112   27.1406   -5.3407 C   0  0  0  0  0  0  0  0  0  0  0  0
  -17.0620   25.8263   -5.7812 C   0  0  0  0  0  0  0  0  0  0  0  0
   -9.9303   14.9852  -13.5342 H   0  0  0  0  0  0  0  0  0  0  0  0
  -10.6261   15.7742  -12.1177 H   0  0  0  0  0  0  0  0  0  0  0  0
   -9.9863   16.7517  -13.4647 H   0  0  0  0  0  0  0  0  0  0  0  0
  -13.1553   14.7452  -15.2515 H   0  0  0  0  0  0  0  0  0  0  0  0
  -12.0358   13.7419  -14.3214 H   0  0  0  0  0  0  0  0  0  0  0  0
  -11.4346   14.7590  -15.6440 H   0  0  0  0  0  0  0  0  0  0  0  0
  -12.4387   17.5824  -12.8516 H   0  0  0  0  0  0  0  0  0  0  0  0
  -14.7267   15.9923  -13.7759 H   0  0  0  0  0  0  0  0  0  0  0  0
  -14.2145   17.0599  -15.1005 H   0  0  0  0  0  0  0  0  0  0  0  0
  -14.8345   18.9995  -14.0125 H   0  0  0  0  0  0  0  0  0  0  0  0
  -14.4118   18.3990  -12.4436 H   0  0  0  0  0  0  0  0  0  0  0  0
  -18.3337   17.3968  -13.9317 H   0  0  0  0  0  0  0  0  0  0  0  0
  -16.9643   16.6048  -14.7119 H   0  0  0  0  0  0  0  0  0  0  0  0
  -17.2774   18.3355  -14.9892 H   0  0  0  0  0  0  0  0  0  0  0  0
  -18.0193   17.8090  -11.7443 H   0  0  0  0  0  0  0  0  0  0  0  0
  -15.2025   18.1931  -10.6264 H   0  0  0  0  0  0  0  0  0  0  0  0
  -16.6002   17.6682   -9.7687 H   0  0  0  0  0  0  0  0  0  0  0  0
  -19.1207   21.9584   -9.5003 H   0  0  0  0  0  0  0  0  0  0  0  0
  -20.6816   18.7542   -9.3935 H   0  0  0  0  0  0  0  0  0  0  0  0
  -20.2824   20.3862   -8.8921 H   0  0  0  0  0  0  0  0  0  0  0  0
  -19.3463   19.0008   -8.2389 H   0  0  0  0  0  0  0  0  0  0  0  0
  -13.6288   20.8926   -9.5203 H   0  0  0  0  0  0  0  0  0  0  0  0
  -18.4168   24.0975   -9.2657 H   0  0  0  0  0  0  0  0  0  0  0  0
  -16.7922   24.6002   -9.0695 H   0  0  0  0  0  0  0  0  0  0  0  0
  -16.9021   23.4095   -6.6945 H   0  0  0  0  0  0  0  0  0  0  0  0
  -18.6289   23.2964   -6.9676 H   0  0  0  0  0  0  0  0  0  0  0  0
  -19.6399   25.7159   -8.0011 H   0  0  0  0  0  0  0  0  0  0  0  0
  -19.8933   28.0433   -7.2226 H   0  0  0  0  0  0  0  0  0  0  0  0
  -18.3352   28.9661   -5.5230 H   0  0  0  0  0  0  0  0  0  0  0  0
  -16.5176   27.5419   -4.6079 H   0  0  0  0  0  0  0  0  0  0  0  0
  -16.2426   25.2201   -5.3980 H   0  0  0  0  0  0  0  0  0  0  0  0
  1  2  1  0  0  0  0
  1 31  1  0  0  0  0
  1 32  1  0  0  0  0
  1 33  1  0  0  0  0
  2  3  1  0  0  0  0
  2  4  2  0  0  0  0
  3 34  1  0  0  0  0
  3 35  1  0  0  0  0
  3 36  1  0  0  0  0
  4  5  1  0  0  0  0
  4 37  1  0  0  0  0
  5  6  1  0  0  0  0
  5 38  1  0  0  0  0
  5 39  1  0  0  0  0
  6  7  1  0  0  0  0
  6 40  1  0  0  0  0
  6 41  1  0  0  0  0
  7  8  1  0  0  0  0
  7  9  2  0  0  0  0
  8 42  1  0  0  0  0
  8 43  1  0  0  0  0
  8 44  1  0  0  0  0
  9 10  1  0  0  0  0
  9 45  1  0  0  0  0
 10 11  1  0  0  0  0
 10 46  1  0  0  0  0
 10 47  1  0  0  0  0
 11 12  2  0  0  0  0
 11 16  1  0  0  0  0
 12 13  1  0  0  0  0
 12 14  1  0  0  0  0
 13 22  2  0  0  0  0
 13 48  1  0  0  0  0
 14 15  1  0  0  0  0
 15 49  1  0  0  0  0
 15 50  1  0  0  0  0
 15 51  1  0  0  0  0
 16 17  1  0  0  0  0
 16 18  2  0  0  0  0
 17 52  1  0  0  0  0
 18 19  1  0  0  0  0
 18 22  1  0  0  0  0
 19 20  2  0  0  0  0
 19 21  1  0  0  0  0
 22 23  1  0  0  0  0
 23 24  1  0  0  0  0
 23 53  1  0  0  0  0
 23 54  1  0  0  0  0
 24 25  1  0  0  0  0
 24 55  1  0  0  0  0
 24 56  1  0  0  0  0
 25 26  2  0  0  0  0
 25 30  1  0  0  0  0
 26 27  1  0  0  0  0
 26 57  1  0  0  0  0
 27 28  2  0  0  0  0
 27 58  1  0  0  0  0
 28 29  1  0  0  0  0
 28 59  1  0  0  0  0
 29 30  2  0  0  0  0
 29 60  1  0  0  0  0
 30 61  1  0  0  0  0
M  END
$$$$
