YPW
 OpenBabel04111918203D

 49 51  0  0  1  0  0  0  0  0999 V2000
   29.9868   44.6815    9.1966 C   0  0  0  0  0  0  0  0  0  0  0  0
   28.9045   44.3440   10.0301 C   0  0  0  0  0  0  0  0  0  0  0  0
   27.8557   45.1824   10.1571 N   0  0  0  0  0  0  0  0  0  0  0  0
   27.9154   46.3405    9.4350 C   0  0  0  0  0  0  0  0  0  0  0  0
   28.9755   46.6876    8.5868 C   0  0  0  0  0  0  0  0  0  0  0  0
   30.0422   45.8359    8.4776 N   0  0  0  0  0  0  0  0  0  0  0  0
   28.8885   43.1899   10.7916 N   0  0  0  0  0  0  0  0  0  0  0  0
   31.0435   43.7795    9.1730 O   0  0  0  0  0  0  0  0  0  0  0  0
   32.1243   44.0416    8.2507 C   0  0  1  0  0  0  0  0  0  0  0  0
   33.1401   45.0256    8.8297 C   0  0  0  0  0  0  0  0  0  0  0  0
   33.7677   46.0268    8.0497 C   0  0  0  0  0  0  0  0  0  0  0  0
   34.6955   46.9118    8.6480 C   0  0  0  0  0  0  0  0  0  0  0  0
   34.9966   46.8139   10.0001 C   0  0  0  0  0  0  0  0  0  0  0  0
   34.3906   45.8282   10.7765 C   0  0  0  0  0  0  0  0  0  0  0  0
   33.4805   44.9410   10.2013 C   0  0  0  0  0  0  0  0  0  0  0  0
   34.6945   45.7354   12.0684 F   0  0  0  0  0  0  0  0  0  0  0  0
   29.0761   47.9701    7.8341 C   0  0  0  0  0  0  0  0  0  0  0  0
   28.0091   48.7562    7.3571 C   0  0  0  0  0  0  0  0  0  0  0  0
   28.1623   49.9218    6.6545 N   0  0  0  0  0  0  0  0  0  0  0  0
   29.4175   50.3405    6.4035 C   0  0  0  0  0  0  0  0  0  0  0  0
   30.5417   49.6667    6.8273 C   0  0  0  0  0  0  0  0  0  0  0  0
   30.3592   48.4844    7.5430 C   0  0  0  0  0  0  0  0  0  0  0  0
   26.7163   48.3285    7.5962 O   0  0  0  0  0  0  0  0  0  0  0  0
   25.6887   49.1824    7.0866 C   0  0  0  0  0  0  0  0  0  0  0  0
   33.5260   46.1813    6.5777 C   0  0  0  0  0  0  0  0  0  0  0  0
   33.3807   47.4829    6.1323 N   0  0  0  0  0  0  0  0  0  0  0  0
   33.4858   45.2019    5.8448 O   0  0  0  0  0  0  0  0  0  0  0  0
   33.1093   47.8063    4.7496 C   0  0  0  0  0  0  0  0  0  0  0  0
   32.7970   42.6766    8.0108 C   0  0  0  0  0  0  0  0  0  0  0  0
   27.0691   47.0014    9.5954 H   0  0  0  0  0  0  0  0  0  0  0  0
   28.0664   42.9886   11.3426 H   0  0  0  0  0  0  0  0  0  0  0  0
   29.6161   42.5030   10.6667 H   0  0  0  0  0  0  0  0  0  0  0  0
   31.7104   44.3845    7.2999 H   0  0  0  0  0  0  0  0  0  0  0  0
   35.2055   47.6624    8.0526 H   0  0  0  0  0  0  0  0  0  0  0  0
   35.7155   47.4932   10.4647 H   0  0  0  0  0  0  0  0  0  0  0  0
   33.0335   44.1869   10.8417 H   0  0  0  0  0  0  0  0  0  0  0  0
   29.5087   51.2640    5.8337 H   0  0  0  0  0  0  0  0  0  0  0  0
   31.5336   50.0454    6.6085 H   0  0  0  0  0  0  0  0  0  0  0  0
   31.2344   47.9422    7.8903 H   0  0  0  0  0  0  0  0  0  0  0  0
   24.7242   48.7362    7.3541 H   0  0  0  0  0  0  0  0  0  0  0  0
   25.7229   49.2498    5.9936 H   0  0  0  0  0  0  0  0  0  0  0  0
   25.7212   50.1782    7.5435 H   0  0  0  0  0  0  0  0  0  0  0  0
   33.3664   48.2355    6.8048 H   0  0  0  0  0  0  0  0  0  0  0  0
   32.9931   48.8901    4.6612 H   0  0  0  0  0  0  0  0  0  0  0  0
   32.1908   47.3122    4.4220 H   0  0  0  0  0  0  0  0  0  0  0  0
   33.9466   47.4778    4.1288 H   0  0  0  0  0  0  0  0  0  0  0  0
   33.6695   42.7560    7.3547 H   0  0  0  0  0  0  0  0  0  0  0  0
   32.0878   41.9740    7.5564 H   0  0  0  0  0  0  0  0  0  0  0  0
   33.1199   42.2095    8.9504 H   0  0  0  0  0  0  0  0  0  0  0  0
  1  2  2  0  0  0  0
  1  6  1  0  0  0  0
  1  8  1  0  0  0  0
  2  3  1  0  0  0  0
  2  7  1  0  0  0  0
  3  4  2  0  0  0  0
  4  5  1  0  0  0  0
  4 30  1  0  0  0  0
  5  6  2  0  0  0  0
  5 17  1  0  0  0  0
  7 31  1  0  0  0  0
  7 32  1  0  0  0  0
  8  9  1  0  0  0  0
  9 10  1  0  0  0  0
  9 29  1  0  0  0  0
  9 33  1  6  0  0  0
 10 11  2  0  0  0  0
 10 15  1  0  0  0  0
 11 12  1  0  0  0  0
 11 25  1  0  0  0  0
 12 13  2  0  0  0  0
 12 34  1  0  0  0  0
 13 14  1  0  0  0  0
 13 35  1  0  0  0  0
 14 15  2  0  0  0  0
 14 16  1  0  0  0  0
 15 36  1  0  0  0  0
 17 18  2  0  0  0  0
 17 22  1  0  0  0  0
 18 19  1  0  0  0  0
 18 23  1  0  0  0  0
 19 20  2  0  0  0  0
 20 21  1  0  0  0  0
 20 37  1  0  0  0  0
 21 22  2  0  0  0  0
 21 38  1  0  0  0  0
 22 39  1  0  0  0  0
 23 24  1  0  0  0  0
 24 40  1  0  0  0  0
 24 41  1  0  0  0  0
 24 42  1  0  0  0  0
 25 26  1  0  0  0  0
 25 27  2  0  0  0  0
 26 28  1  0  0  0  0
 26 43  1  0  0  0  0
 28 44  1  0  0  0  0
 28 45  1  0  0  0  0
 28 46  1  0  0  0  0
 29 47  1  0  0  0  0
 29 48  1  0  0  0  0
 29 49  1  0  0  0  0
M  END
$$$$
