ZB6
 OpenBabel04111920013D

 31 31  0  0  1  0  0  0  0  0999 V2000
   77.4709    7.6999   27.7527 C   0  0  0  0  0  0  0  0  0  0  0  0
   78.6709    8.0622   28.6279 C   0  0  2  0  0  0  0  0  0  0  0  0
   79.7454    8.7942   27.8215 C   0  0  0  0  0  0  0  0  0  0  0  0
   80.5176    7.8622   26.8972 C   0  0  0  0  0  0  0  0  0  0  0  0
   81.0737    6.6632   27.6622 C   0  0  0  0  0  0  0  0  0  0  0  0
   80.0061    5.9219   28.4862 C   0  0  1  0  0  0  0  0  0  0  0  0
   79.2385    6.9080   29.3407 N   0  0  0  0  0  0  0  0  0  0  0  0
   78.8866    6.7508   30.6795 C   0  0  0  0  0  0  0  0  0  0  0  0
   78.1963    7.5888   31.2753 O   0  0  0  0  0  0  0  0  0  0  0  0
   79.3911    5.5522   31.4666 C   0  0  0  0  0  0  0  0  0  0  0  0
   79.6895    5.9560   32.9138 C   0  0  0  0  0  0  0  0  0  0  0  0
   80.7513    4.6984   33.7123 S   0  0  0  0  0  0  0  0  0  0  0  0
   79.1560    4.9298   27.6106 C   0  0  0  0  0  0  0  0  0  0  0  0
   79.4978    4.8036   26.4030 O   0  0  0  0  0  0  0  0  0  0  0  0
   78.2247    4.3331   28.2409 O   0  0  0  0  0  0  0  0  0  0  0  0
   77.0598    8.6050   27.2928 H   0  0  0  0  0  0  0  0  0  0  0  0
   76.6817    7.2252   28.3420 H   0  0  0  0  0  0  0  0  0  0  0  0
   77.7377    7.0223   26.9384 H   0  0  0  0  0  0  0  0  0  0  0  0
   78.2991    8.7847   29.3633 H   0  0  0  0  0  0  0  0  0  0  0  0
   80.4468    9.2745   28.5164 H   0  0  0  0  0  0  0  0  0  0  0  0
   79.2843    9.5986   27.2344 H   0  0  0  0  0  0  0  0  0  0  0  0
   81.3415    8.4111   26.4278 H   0  0  0  0  0  0  0  0  0  0  0  0
   79.8680    7.5227   26.0830 H   0  0  0  0  0  0  0  0  0  0  0  0
   81.8564    7.0173   28.3452 H   0  0  0  0  0  0  0  0  0  0  0  0
   81.5687    5.9865   26.9560 H   0  0  0  0  0  0  0  0  0  0  0  0
   80.5573    5.2473   29.1423 H   0  0  0  0  0  0  0  0  0  0  0  0
   80.2934    5.1378   31.0260 H   0  0  0  0  0  0  0  0  0  0  0  0
   78.6031    4.7910   31.4541 H   0  0  0  0  0  0  0  0  0  0  0  0
   78.7661    6.0469   33.4977 H   0  0  0  0  0  0  0  0  0  0  0  0
   80.2043    6.9231   32.9674 H   0  0  0  0  0  0  0  0  0  0  0  0
   80.8676    5.3026   34.9017 H   0  0  0  0  0  0  0  0  0  0  0  0
  1  2  1  0  0  0  0
  1 16  1  0  0  0  0
  1 17  1  0  0  0  0
  1 18  1  0  0  0  0
  2  3  1  0  0  0  0
  2  7  1  0  0  0  0
  2 19  1  1  0  0  0
  3  4  1  0  0  0  0
  3 20  1  0  0  0  0
  3 21  1  0  0  0  0
  4  5  1  0  0  0  0
  4 22  1  0  0  0  0
  4 23  1  0  0  0  0
  5  6  1  0  0  0  0
  5 24  1  0  0  0  0
  5 25  1  0  0  0  0
  6  7  1  0  0  0  0
  6 13  1  0  0  0  0
  6 26  1  1  0  0  0
  7  8  1  0  0  0  0
  8  9  2  0  0  0  0
  8 10  1  0  0  0  0
 10 11  1  0  0  0  0
 10 27  1  0  0  0  0
 10 28  1  0  0  0  0
 11 12  1  0  0  0  0
 11 29  1  0  0  0  0
 11 30  1  0  0  0  0
 12 31  1  0  0  0  0
 13 14  2  0  0  0  0
 13 15  1  0  0  0  0
M  END
$$$$
