ZBD
 OpenBabel04111922453D

 69 71  0  0  1  0  0  0  0  0999 V2000
   -6.7189   28.8908   15.9577 N   0  0  0  0  0  0  0  0  0  0  0  0
   -8.1714   28.9904   15.8455 C   0  0  0  0  0  0  0  0  0  0  0  0
   -8.8500   27.6608   15.6855 C   0  0  0  0  0  0  0  0  0  0  0  0
   -9.8118   25.6653   16.6262 C   0  0  0  0  0  0  0  0  0  0  0  0
   -9.0756   27.1507   14.4055 C   0  0  0  0  0  0  0  0  0  0  0  0
  -10.3067   22.8142   16.2611 C   0  0  0  0  0  0  0  0  0  0  0  0
   -5.9617   29.0086   17.1414 C   0  0  0  0  0  0  0  0  0  0  0  0
   -3.7213   28.9072   17.9989 C   0  0  0  0  0  0  0  0  0  0  0  0
   -5.5813   29.3752   19.4672 C   0  0  0  0  0  0  0  0  0  0  0  0
   -5.6432   29.6553   13.7915 O   0  0  0  0  0  0  0  0  0  0  0  0
   -5.6774   28.5123   14.6985 S   0  0  0  0  0  0  0  0  0  0  0  0
   -5.9058   27.1865   14.2571 O   0  0  0  0  0  0  0  0  0  0  0  0
   -4.5944   28.8303   16.9443 C   0  0  0  0  0  0  0  0  0  0  0  0
   -4.2552   28.5677   15.5989 N   0  0  0  0  0  0  0  0  0  0  0  0
   -2.9197   28.3130   15.0636 C   0  0  0  0  0  0  0  0  0  0  0  0
   -2.7718   26.8313   14.7251 C   0  0  0  0  0  0  0  0  0  0  0  0
   -1.4426   26.5627   14.0542 C   0  0  0  0  0  0  0  0  0  0  0  0
   -0.9782   25.1531   14.3168 C   0  0  0  0  0  0  0  0  0  0  0  0
    0.1191   24.9604   15.1215 N   0  0  0  0  0  0  0  0  0  0  0  0
    0.8237   26.0748   15.7221 C   0  0  0  0  0  0  0  0  0  0  0  0
    0.5720   23.5803   15.3782 C   0  0  2  0  0  0  0  0  0  0  0  0
   -0.0652   23.0566   16.6639 C   0  0  0  0  0  0  0  0  0  0  0  0
    2.1102   23.4657   15.3461 C   0  0  0  0  0  0  0  0  0  0  0  0
    2.7935   23.6132   16.7034 C   0  0  0  0  0  0  0  0  0  0  0  0
    3.3934   24.8957   16.8180 O   0  0  0  0  0  0  0  0  0  0  0  0
   -1.5973   24.2050   13.8196 O   0  0  0  0  0  0  0  0  0  0  0  0
   -4.2134   29.1702   19.2748 C   0  0  0  0  0  0  0  0  0  0  0  0
   -6.4576   29.2805   18.3905 C   0  0  0  0  0  0  0  0  0  0  0  0
   -9.6593   25.9121   14.2418 C   0  0  0  0  0  0  0  0  0  0  0  0
  -10.0325   25.1460   15.3482 C   0  0  0  0  0  0  0  0  0  0  0  0
   -9.2189   26.9032   16.7963 C   0  0  0  0  0  0  0  0  0  0  0  0
  -10.6659   23.7891   15.1440 C   0  0  0  0  0  0  0  0  0  0  0  0
  -10.1328   23.2707   13.8900 O   0  0  0  0  0  0  0  0  0  0  0  0
  -12.1923   23.9014   15.0525 C   0  0  0  0  0  0  0  0  0  0  0  0
  -12.8292   23.5612   16.1915 F   0  0  0  0  0  0  0  0  0  0  0  0
  -12.6676   23.0830   14.0743 F   0  0  0  0  0  0  0  0  0  0  0  0
  -12.6026   25.1534   14.7272 F   0  0  0  0  0  0  0  0  0  0  0  0
  -10.9150   23.0852   17.4375 F   0  0  0  0  0  0  0  0  0  0  0  0
  -10.6482   21.5531   15.9037 F   0  0  0  0  0  0  0  0  0  0  0  0
   -8.9709   22.8041   16.5069 F   0  0  0  0  0  0  0  0  0  0  0  0
   -8.4580   29.6344   15.0034 H   0  0  0  0  0  0  0  0  0  0  0  0
   -8.5956   29.4706   16.7379 H   0  0  0  0  0  0  0  0  0  0  0  0
  -10.0859   25.0962   17.5107 H   0  0  0  0  0  0  0  0  0  0  0  0
   -8.7784   27.7283   13.5330 H   0  0  0  0  0  0  0  0  0  0  0  0
   -2.6552   28.7614   17.8640 H   0  0  0  0  0  0  0  0  0  0  0  0
   -5.9588   29.6073   20.4553 H   0  0  0  0  0  0  0  0  0  0  0  0
   -2.1468   28.5937   15.7925 H   0  0  0  0  0  0  0  0  0  0  0  0
   -2.7327   28.9226   14.1681 H   0  0  0  0  0  0  0  0  0  0  0  0
   -3.5555   26.5297   14.0371 H   0  0  0  0  0  0  0  0  0  0  0  0
   -2.8600   26.2383   15.6399 H   0  0  0  0  0  0  0  0  0  0  0  0
   -0.7554   27.3252   14.3778 H   0  0  0  0  0  0  0  0  0  0  0  0
   -1.4932   26.7218   12.9658 H   0  0  0  0  0  0  0  0  0  0  0  0
    0.4023   27.0315   15.4889 H   0  0  0  0  0  0  0  0  0  0  0  0
    1.8538   26.1306   15.3394 H   0  0  0  0  0  0  0  0  0  0  0  0
    0.7827   26.0106   16.8151 H   0  0  0  0  0  0  0  0  0  0  0  0
    0.1925   22.9399   14.5677 H   0  0  0  0  0  0  0  0  0  0  0  0
    0.2645   22.0310   16.8701 H   0  0  0  0  0  0  0  0  0  0  0  0
   -1.1573   23.0690   16.5921 H   0  0  0  0  0  0  0  0  0  0  0  0
    0.2018   23.6956   17.5094 H   0  0  0  0  0  0  0  0  0  0  0  0
    2.5001   24.2200   14.6543 H   0  0  0  0  0  0  0  0  0  0  0  0
    2.3674   22.4793   14.9378 H   0  0  0  0  0  0  0  0  0  0  0  0
    3.5661   22.8498   16.8130 H   0  0  0  0  0  0  0  0  0  0  0  0
    2.0941   23.4960   17.5252 H   0  0  0  0  0  0  0  0  0  0  0  0
    3.8227   24.9614   17.6978 H   0  0  0  0  0  0  0  0  0  0  0  0
   -3.5384   29.2151   20.1204 H   0  0  0  0  0  0  0  0  0  0  0  0
   -7.5185   29.4181   18.5611 H   0  0  0  0  0  0  0  0  0  0  0  0
   -9.8167   25.5241   13.2339 H   0  0  0  0  0  0  0  0  0  0  0  0
   -9.0441   27.2869   17.7997 H   0  0  0  0  0  0  0  0  0  0  0  0
  -10.5462   22.3911   13.7518 H   0  0  0  0  0  0  0  0  0  0  0  0
  1  2  1  0  0  0  0
  1  7  1  0  0  0  0
  1 11  1  0  0  0  0
  2  3  1  0  0  0  0
  2 41  1  0  0  0  0
  2 42  1  0  0  0  0
  3  5  2  0  0  0  0
  3 31  1  0  0  0  0
  4 30  1  0  0  0  0
  4 31  2  0  0  0  0
  4 43  1  0  0  0  0
  5 29  1  0  0  0  0
  5 44  1  0  0  0  0
  6 32  1  0  0  0  0
  6 38  1  0  0  0  0
  6 39  1  0  0  0  0
  6 40  1  0  0  0  0
  7 13  2  0  0  0  0
  7 28  1  0  0  0  0
  8 13  1  0  0  0  0
  8 27  2  0  0  0  0
  8 45  1  0  0  0  0
  9 27  1  0  0  0  0
  9 28  2  0  0  0  0
  9 46  1  0  0  0  0
 10 11  2  0  0  0  0
 11 12  2  0  0  0  0
 11 14  1  0  0  0  0
 13 14  1  0  0  0  0
 14 15  1  0  0  0  0
 15 16  1  0  0  0  0
 15 47  1  0  0  0  0
 15 48  1  0  0  0  0
 16 17  1  0  0  0  0
 16 49  1  0  0  0  0
 16 50  1  0  0  0  0
 17 18  1  0  0  0  0
 17 51  1  0  0  0  0
 17 52  1  0  0  0  0
 18 19  1  0  0  0  0
 18 26  2  0  0  0  0
 19 20  1  0  0  0  0
 19 21  1  0  0  0  0
 20 53  1  0  0  0  0
 20 54  1  0  0  0  0
 20 55  1  0  0  0  0
 21 22  1  0  0  0  0
 21 23  1  0  0  0  0
 21 56  1  6  0  0  0
 22 57  1  0  0  0  0
 22 58  1  0  0  0  0
 22 59  1  0  0  0  0
 23 24  1  0  0  0  0
 23 60  1  0  0  0  0
 23 61  1  0  0  0  0
 24 25  1  0  0  0  0
 24 62  1  0  0  0  0
 24 63  1  0  0  0  0
 25 64  1  0  0  0  0
 27 65  1  0  0  0  0
 28 66  1  0  0  0  0
 29 30  2  0  0  0  0
 29 67  1  0  0  0  0
 30 32  1  0  0  0  0
 31 68  1  0  0  0  0
 32 33  1  0  0  0  0
 32 34  1  0  0  0  0
 33 69  1  0  0  0  0
 34 35  1  0  0  0  0
 34 36  1  0  0  0  0
 34 37  1  0  0  0  0
M  END
$$$$
