ZKW
 OpenBabel04111922053D

 26 27  0  0  0  0  0  0  0  0999 V2000
  -21.8494   17.8300  -15.8180 O   0  0  0  0  0  0  0  0  0  0  0  0
  -21.2043   17.6621  -16.9067 C   0  0  0  0  0  0  0  0  0  0  0  0
  -20.0159   17.2321  -16.9924 O   0  0  0  0  0  0  0  0  0  0  0  0
  -21.9031   17.9815  -18.1556 C   0  0  0  0  0  0  0  0  0  0  0  0
  -23.2051   18.4282  -18.2994 C   0  0  0  0  0  0  0  0  0  0  0  0
  -23.4216   18.5652  -19.7005 C   0  0  0  0  0  0  0  0  0  0  0  0
  -24.7324   19.0268  -20.3053 C   0  0  0  0  0  0  0  0  0  0  0  0
  -24.9296   18.8223  -21.5508 O   0  0  0  0  0  0  0  0  0  0  0  0
  -25.5732   19.5945  -19.5262 O   0  0  0  0  0  0  0  0  0  0  0  0
  -22.3131   18.2138  -20.3857 N   0  0  0  0  0  0  0  0  0  0  0  0
  -21.4112   17.8902  -19.4260 N   0  3  0  0  0  0  0  0  0  0  0  0
  -20.0935   17.4414  -19.8689 C   0  0  0  0  0  0  0  0  0  0  0  0
  -20.0101   15.9568  -20.1841 C   0  0  0  0  0  0  0  0  0  0  0  0
  -21.1495   15.1306  -20.1821 C   0  0  0  0  0  0  0  0  0  0  0  0
  -18.7786   15.3690  -20.5255 C   0  0  0  0  0  0  0  0  0  0  0  0
  -17.3237   16.2990  -20.6476 Cl  0  0  0  0  0  0  0  0  0  0  0  0
  -18.6867   14.0023  -20.8091 C   0  0  0  0  0  0  0  0  0  0  0  0
  -19.8320   13.2138  -20.7929 C   0  0  0  0  0  0  0  0  0  0  0  0
  -19.7260   11.5373  -21.1701 Cl  0  0  0  0  0  0  0  0  0  0  0  0
  -21.0629   13.7716  -20.4856 C   0  0  0  0  0  0  0  0  0  0  0  0
  -23.9189   18.6017  -17.5059 H   0  0  0  0  0  0  0  0  0  0  0  0
  -19.3552   17.7413  -19.1243 H   0  0  0  0  0  0  0  0  0  0  0  0
  -19.8722   18.0107  -20.7814 H   0  0  0  0  0  0  0  0  0  0  0  0
  -22.1361   15.5378  -19.9452 H   0  0  0  0  0  0  0  0  0  0  0  0
  -17.7262   13.5617  -21.0513 H   0  0  0  0  0  0  0  0  0  0  0  0
  -21.9704   13.1741  -20.4769 H   0  0  0  0  0  0  0  0  0  0  0  0
  1  2  2  0  0  0  0
  2  3  1  0  0  0  0
  2  4  1  0  0  0  0
  4  5  1  0  0  0  0
  4 11  2  0  0  0  0
  5  6  2  0  0  0  0
  5 21  1  0  0  0  0
  6  7  1  0  0  0  0
  6 10  1  0  0  0  0
  7  8  2  0  0  0  0
  7  9  1  0  0  0  0
 10 11  1  0  0  0  0
 11 12  1  0  0  0  0
 12 13  1  0  0  0  0
 12 22  1  0  0  0  0
 12 23  1  0  0  0  0
 13 14  2  0  0  0  0
 13 15  1  0  0  0  0
 14 20  1  0  0  0  0
 14 24  1  0  0  0  0
 15 16  1  0  0  0  0
 15 17  2  0  0  0  0
 17 18  1  0  0  0  0
 17 25  1  0  0  0  0
 18 19  1  0  0  0  0
 18 20  2  0  0  0  0
 20 26  1  0  0  0  0
M  CHG  1  11   1
M  END
$$$$
