ZMR
 OpenBabel04111918213D

 45 45  0  0  1  0  0  0  0  0999 V2000
   -6.6844   45.7962   56.1081 C   0  0  0  0  0  0  0  0  0  0  0  0
   -7.6607   46.5544   55.8602 O   0  0  0  0  0  0  0  0  0  0  0  0
   -6.6176   44.7843   56.8722 O   0  0  0  0  0  0  0  0  0  0  0  0
   -5.3390   46.1640   55.3948 C   0  0  1  0  0  0  0  0  0  0  0  0
   -4.4001   44.9619   55.2967 C   0  0  0  0  0  0  0  0  0  0  0  0
   -3.2437   45.1746   54.3243 C   0  0  1  0  0  0  0  0  0  0  0  0
   -3.2035   46.5848   53.7045 C   0  0  1  0  0  0  0  0  0  0  0  0
   -2.2208   46.6023   52.6081 N   0  0  0  0  0  0  0  0  0  0  0  0
   -1.0053   47.2241   52.7085 C   0  0  0  0  0  0  0  0  0  0  0  0
   -0.5670   47.7034   53.7529 O   0  0  0  0  0  0  0  0  0  0  0  0
   -0.1953   47.1488   51.4467 C   0  0  0  0  0  0  0  0  0  0  0  0
   -4.5964   46.9272   53.1823 C   0  0  1  0  0  0  0  0  0  0  0  0
   -5.6469   46.6838   54.1005 O   0  0  0  0  0  0  0  0  0  0  0  0
   -4.7070   48.3852   52.6973 C   0  0  2  0  0  0  0  0  0  0  0  0
   -4.4086   49.2825   53.7758 O   0  0  0  0  0  0  0  0  0  0  0  0
   -6.1207   48.6540   52.1480 C   0  0  2  0  0  0  0  0  0  0  0  0
   -6.4353   47.6942   51.1226 O   0  0  0  0  0  0  0  0  0  0  0  0
   -6.2508   50.0420   51.5240 C   0  0  0  0  0  0  0  0  0  0  0  0
   -5.3730   50.1826   50.4040 O   0  0  0  0  0  0  0  0  0  0  0  0
   -1.9272   44.8819   54.9735 N   0  0  0  0  0  0  0  0  0  0  0  0
   -0.8986   44.2458   54.4050 C   0  0  0  0  0  0  0  0  0  0  0  0
   -1.0210   43.5577   53.2561 N   0  0  0  0  0  0  0  0  0  0  0  0
    0.2976   44.2667   54.9848 N   0  0  0  0  0  0  0  0  0  0  0  0
   -4.8736   46.9544   55.9963 H   0  0  0  0  0  0  0  0  0  0  0  0
   -4.9673   44.0929   54.9336 H   0  0  0  0  0  0  0  0  0  0  0  0
   -4.0315   44.6800   56.2906 H   0  0  0  0  0  0  0  0  0  0  0  0
   -3.3884   44.4522   53.5164 H   0  0  0  0  0  0  0  0  0  0  0  0
   -2.8948   47.2965   54.4825 H   0  0  0  0  0  0  0  0  0  0  0  0
   -2.5083   46.2315   51.7093 H   0  0  0  0  0  0  0  0  0  0  0  0
    0.7498   47.6825   51.5846 H   0  0  0  0  0  0  0  0  0  0  0  0
   -0.7382   47.5996   50.6124 H   0  0  0  0  0  0  0  0  0  0  0  0
    0.0202   46.0992   51.2249 H   0  0  0  0  0  0  0  0  0  0  0  0
   -4.7988   46.2661   52.3309 H   0  0  0  0  0  0  0  0  0  0  0  0
   -3.9626   48.5518   51.9113 H   0  0  0  0  0  0  0  0  0  0  0  0
   -5.0743   49.1061   54.4719 H   0  0  0  0  0  0  0  0  0  0  0  0
   -6.8545   48.5688   52.9609 H   0  0  0  0  0  0  0  0  0  0  0  0
   -7.4082   47.7034   51.0445 H   0  0  0  0  0  0  0  0  0  0  0  0
   -6.0363   50.8322   52.2471 H   0  0  0  0  0  0  0  0  0  0  0  0
   -7.2692   50.1745   51.1448 H   0  0  0  0  0  0  0  0  0  0  0  0
   -5.5712   49.4305   49.8160 H   0  0  0  0  0  0  0  0  0  0  0  0
   -1.7713   45.3177   55.8682 H   0  0  0  0  0  0  0  0  0  0  0  0
   -0.2393   43.0616   52.8549 H   0  0  0  0  0  0  0  0  0  0  0  0
    0.4695   44.8572   55.7964 H   0  0  0  0  0  0  0  0  0  0  0  0
    1.0952   43.8074   54.5844 H   0  0  0  0  0  0  0  0  0  0  0  0
   -1.9172   43.4508   52.8082 H   0  0  0  0  0  0  0  0  0  0  0  0
  1  2  2  0  0  0  0
  1  3  1  0  0  0  0
  1  4  1  0  0  0  0
  4  5  1  0  0  0  0
  4 13  1  0  0  0  0
  4 24  1  1  0  0  0
  5  6  1  0  0  0  0
  5 25  1  0  0  0  0
  5 26  1  0  0  0  0
  6  7  1  0  0  0  0
  6 20  1  0  0  0  0
  6 27  1  6  0  0  0
  7  8  1  0  0  0  0
  7 12  1  0  0  0  0
  7 28  1  1  0  0  0
  8  9  1  0  0  0  0
  8 29  1  0  0  0  0
  9 10  2  0  0  0  0
  9 11  1  0  0  0  0
 11 30  1  0  0  0  0
 11 31  1  0  0  0  0
 11 32  1  0  0  0  0
 12 13  1  0  0  0  0
 12 14  1  0  0  0  0
 12 33  1  6  0  0  0
 14 15  1  0  0  0  0
 14 16  1  0  0  0  0
 14 34  1  6  0  0  0
 15 35  1  0  0  0  0
 16 17  1  0  0  0  0
 16 18  1  0  0  0  0
 16 36  1  1  0  0  0
 17 37  1  0  0  0  0
 18 19  1  0  0  0  0
 18 38  1  0  0  0  0
 18 39  1  0  0  0  0
 19 40  1  0  0  0  0
 20 21  1  0  0  0  0
 20 41  1  0  0  0  0
 21 22  2  0  0  0  0
 21 23  1  0  0  0  0
 22 42  1  0  0  0  0
 22 45  1  0  0  0  0
 23 43  1  0  0  0  0
 23 44  1  0  0  0  0
M  END
$$$$
