ZST
 OpenBabel04111920003D

 40 43  0  0  0  0  0  0  0  0999 V2000
   -5.0222   14.0741   -0.7488 C   0  0  0  0  0  0  0  0  0  0  0  0
   -6.1453   14.5988   -0.7227 O   0  0  0  0  0  0  0  0  0  0  0  0
   -4.7620   12.8919    0.1093 C   0  0  0  0  0  0  0  0  0  0  0  0
   -3.5390   12.2352    0.0175 C   0  0  0  0  0  0  0  0  0  0  0  0
   -2.5196   12.8190   -0.8977 C   0  0  0  0  0  0  0  0  0  0  0  0
   -5.7718   12.4010    0.9576 C   0  0  0  0  0  0  0  0  0  0  0  0
   -5.5591   11.2367    1.6891 C   0  0  0  0  0  0  0  0  0  0  0  0
   -4.3461   10.5628    1.5816 C   0  0  0  0  0  0  0  0  0  0  0  0
   -3.3327   11.0598    0.7562 C   0  0  0  0  0  0  0  0  0  0  0  0
   -3.9891   14.4807   -1.5746 N   0  3  0  0  0  0  0  0  0  0  0  0
   -2.7618   13.8577   -1.6497 N   0  0  0  0  0  0  0  0  0  0  0  0
   -4.1750   15.6502   -2.4398 C   0  0  0  0  0  0  0  0  0  0  0  0
   -4.0766   16.9135   -1.6341 C   0  0  0  0  0  0  0  0  0  0  0  0
   -3.3399   18.6449   -0.1112 C   0  0  0  0  0  0  0  0  0  0  0  0
   -4.5857   18.8424   -0.7078 C   0  0  0  0  0  0  0  0  0  0  0  0
   -2.7949   19.5584    0.7962 C   0  0  0  0  0  0  0  0  0  0  0  0
   -3.5206   20.7066    1.0731 C   0  0  0  0  0  0  0  0  0  0  0  0
   -4.7530   20.9414    0.4613 C   0  0  0  0  0  0  0  0  0  0  0  0
   -5.3021   20.0079   -0.4143 C   0  0  0  0  0  0  0  0  0  0  0  0
   -5.0009   17.8538   -1.5720 N   0  0  0  0  0  0  0  0  0  0  0  0
   -2.6634   17.1868   -0.6916 S   0  0  0  0  0  0  0  0  0  0  0  0
   -1.1319   12.2039   -1.0081 C   0  0  0  0  0  0  0  0  0  0  0  0
   -0.3388   12.3611    0.2985 C   0  0  0  0  0  0  0  0  0  0  0  0
   -0.8306   13.1349    1.1432 O   0  0  0  0  0  0  0  0  0  0  0  0
    0.7052   11.6533    0.3987 O   0  0  0  0  0  0  0  0  0  0  0  0
   -5.4853   22.1943    0.7703 C   0  0  0  0  0  0  0  0  0  0  0  0
   -6.5817   21.9687    1.5436 F   0  0  0  0  0  0  0  0  0  0  0  0
   -4.6918   23.0387    1.4710 F   0  0  0  0  0  0  0  0  0  0  0  0
   -5.8991   22.8960   -0.3206 F   0  0  0  0  0  0  0  0  0  0  0  0
   -6.7230   12.9217    1.0427 H   0  0  0  0  0  0  0  0  0  0  0  0
   -6.3369   10.8534    2.3413 H   0  0  0  0  0  0  0  0  0  0  0  0
   -4.1886    9.6479    2.1466 H   0  0  0  0  0  0  0  0  0  0  0  0
   -2.3896   10.5226    0.7006 H   0  0  0  0  0  0  0  0  0  0  0  0
   -5.1625   15.5860   -2.9161 H   0  0  0  0  0  0  0  0  0  0  0  0
   -3.4061   15.6645   -3.2261 H   0  0  0  0  0  0  0  0  0  0  0  0
   -1.8353   19.3806    1.2670 H   0  0  0  0  0  0  0  0  0  0  0  0
   -3.1130   21.4376    1.7723 H   0  0  0  0  0  0  0  0  0  0  0  0
   -6.2672   20.1914   -0.8737 H   0  0  0  0  0  0  0  0  0  0  0  0
   -0.5952   12.7262   -1.8143 H   0  0  0  0  0  0  0  0  0  0  0  0
   -1.2345   11.1491   -1.2798 H   0  0  0  0  0  0  0  0  0  0  0  0
  1  2  2  0  0  0  0
  1  3  1  0  0  0  0
  1 10  1  0  0  0  0
  3  4  2  0  0  0  0
  3  6  1  0  0  0  0
  4  5  1  0  0  0  0
  4  9  1  0  0  0  0
  5 11  2  0  0  0  0
  5 22  1  0  0  0  0
  6  7  2  0  0  0  0
  6 30  1  0  0  0  0
  7  8  1  0  0  0  0
  7 31  1  0  0  0  0
  8  9  2  0  0  0  0
  8 32  1  0  0  0  0
  9 33  1  0  0  0  0
 10 11  1  0  0  0  0
 10 12  1  0  0  0  0
 12 13  1  0  0  0  0
 12 34  1  0  0  0  0
 12 35  1  0  0  0  0
 13 20  2  0  0  0  0
 13 21  1  0  0  0  0
 14 15  2  0  0  0  0
 14 16  1  0  0  0  0
 14 21  1  0  0  0  0
 15 19  1  0  0  0  0
 15 20  1  0  0  0  0
 16 17  2  0  0  0  0
 16 36  1  0  0  0  0
 17 18  1  0  0  0  0
 17 37  1  0  0  0  0
 18 19  2  0  0  0  0
 18 26  1  0  0  0  0
 19 38  1  0  0  0  0
 22 23  1  0  0  0  0
 22 39  1  0  0  0  0
 22 40  1  0  0  0  0
 23 24  2  0  0  0  0
 23 25  1  0  0  0  0
 26 27  1  0  0  0  0
 26 28  1  0  0  0  0
 26 29  1  0  0  0  0
M  CHG  1  10   1
M  END
$$$$
