ZSV
 OpenBabel04111918153D

 75 78  0  0  1  0  0  0  0  0999 V2000
   11.6504   35.1279   -5.3978 C   0  0  0  0  0  0  0  0  0  0  0  0
   12.7478   34.6828   -4.6661 C   0  0  0  0  0  0  0  0  0  0  0  0
   10.5998   35.7703   -4.7435 C   0  0  0  0  0  0  0  0  0  0  0  0
   12.8064   34.8726   -3.2956 C   0  0  0  0  0  0  0  0  0  0  0  0
    9.4528   33.0038    1.8896 C   0  0  0  0  0  0  0  0  0  0  0  0
    6.9127   36.3293    0.1311 C   0  0  0  0  0  0  0  0  0  0  0  0
    6.4253   34.4205   -1.2650 C   0  0  0  0  0  0  0  0  0  0  0  0
    9.4289   32.0296    2.8784 C   0  0  0  0  0  0  0  0  0  0  0  0
    6.6483   35.5664    1.2686 C   0  0  0  0  0  0  0  0  0  0  0  0
    6.1694   33.6603   -0.1289 C   0  0  0  0  0  0  0  0  0  0  0  0
   10.6505   35.9731   -3.3569 C   0  0  0  0  0  0  0  0  0  0  0  0
   10.7527   31.5262    0.4350 C   0  0  0  0  0  0  0  0  0  0  0  0
    6.7970   35.7652   -1.1453 C   0  0  0  0  0  0  0  0  0  0  0  0
   11.7458   35.5259   -2.6221 C   0  0  0  0  0  0  0  0  0  0  0  0
   10.1081   32.7701    0.6692 C   0  0  0  0  0  0  0  0  0  0  0  0
   10.0910   30.8260    2.6677 C   0  0  0  0  0  0  0  0  0  0  0  0
   10.7505   30.5695    1.4561 C   0  0  0  0  0  0  0  0  0  0  0  0
    6.2703   34.2292    1.1436 C   0  0  0  0  0  0  0  0  0  0  0  0
   12.3883   36.8305    2.1388 C   0  0  0  0  0  0  0  0  0  0  0  0
   11.7684   35.6770    1.8567 C   0  0  0  0  0  0  0  0  0  0  0  0
    9.5043   36.6509   -2.6944 C   0  0  0  0  0  0  0  0  0  0  0  0
   11.4671   31.2600   -0.8664 C   0  0  0  0  0  0  0  0  0  0  0  0
   12.2812   28.7502    6.4745 C   0  0  0  0  0  0  0  0  0  0  0  0
   11.2040   28.4152    2.2067 C   0  0  0  0  0  0  0  0  0  0  0  0
   11.1493   28.9987    3.6093 C   0  0  2  0  0  0  0  0  0  0  0  0
    5.6481   32.2042    2.1709 C   0  0  0  0  0  0  0  0  0  0  0  0
    7.0675   36.5954   -2.3689 C   0  0  0  0  0  0  0  0  0  0  0  0
   11.8632   35.6978   -1.1402 C   0  0  0  0  0  0  0  0  0  0  0  0
   10.2506   33.9173   -0.3053 C   0  0  0  0  0  0  0  0  0  0  0  0
   12.3407   34.5904    0.9909 C   0  0  0  0  0  0  0  0  0  0  0  0
   10.8772   28.3350    6.0294 C   0  0  0  0  0  0  0  0  0  0  0  0
   10.9198   27.8495    4.5898 C   0  0  0  0  0  0  0  0  0  0  0  0
    8.2680   36.1689   -3.0448 N   0  0  0  0  0  0  0  0  0  0  0  0
   11.6559   34.4688   -0.3333 N   0  3  2  0  0  0  0  0  0  0  0  0
   11.2569   30.1777   -1.4755 O   0  0  0  0  0  0  0  0  0  0  0  0
   12.3318   29.8166    7.1461 O   0  0  0  0  0  0  0  0  0  0  0  0
    9.6896   37.5418   -1.8770 O   0  0  0  0  0  0  0  0  0  0  0  0
   12.1620   32.2481   -1.3078 O   0  0  0  0  0  0  0  0  0  0  0  0
   13.2221   27.9882    6.1105 O   0  0  0  0  0  0  0  0  0  0  0  0
   11.4728   29.4268    1.2469 O   0  0  0  0  0  0  0  0  0  0  0  0
   10.0545   29.9270    3.7012 O   0  0  0  0  0  0  0  0  0  0  0  0
    6.0468   33.5647    2.3193 O   0  0  0  0  0  0  0  0  0  0  0  0
   11.6023   34.9613   -6.4693 H   0  0  0  0  0  0  0  0  0  0  0  0
   13.5614   34.1558   -5.1782 H   0  0  0  0  0  0  0  0  0  0  0  0
    9.7458   36.1125   -5.3170 H   0  0  0  0  0  0  0  0  0  0  0  0
   13.6705   34.4823   -2.7414 H   0  0  0  0  0  0  0  0  0  0  0  0
    8.9808   33.9613    2.0914 H   0  0  0  0  0  0  0  0  0  0  0  0
    7.2146   37.3688    0.2430 H   0  0  0  0  0  0  0  0  0  0  0  0
    6.3315   33.9491   -2.2403 H   0  0  0  0  0  0  0  0  0  0  0  0
    8.9290   32.2228    3.8238 H   0  0  0  0  0  0  0  0  0  0  0  0
    6.7458   36.0145    2.2550 H   0  0  0  0  0  0  0  0  0  0  0  0
    5.8984   32.6186   -0.2696 H   0  0  0  0  0  0  0  0  0  0  0  0
   11.9240   37.5675    2.7887 H   0  0  0  0  0  0  0  0  0  0  0  0
   13.3741   37.0596    1.7464 H   0  0  0  0  0  0  0  0  0  0  0  0
   10.7915   35.4968    2.2978 H   0  0  0  0  0  0  0  0  0  0  0  0
   10.2595   27.9204    1.9459 H   0  0  0  0  0  0  0  0  0  0  0  0
   12.0077   27.6766    2.1371 H   0  0  0  0  0  0  0  0  0  0  0  0
   12.0760   29.5411    3.8411 H   0  0  0  0  0  0  0  0  0  0  0  0
    5.4944   31.7731    3.1631 H   0  0  0  0  0  0  0  0  0  0  0  0
    6.4261   31.6200    1.6671 H   0  0  0  0  0  0  0  0  0  0  0  0
    4.6983   32.1450    1.6276 H   0  0  0  0  0  0  0  0  0  0  0  0
    7.1555   37.6535   -2.1008 H   0  0  0  0  0  0  0  0  0  0  0  0
    6.2361   36.4929   -3.0736 H   0  0  0  0  0  0  0  0  0  0  0  0
   11.2086   36.4632   -0.7286 H   0  0  0  0  0  0  0  0  0  0  0  0
   12.8829   36.0523   -0.9413 H   0  0  0  0  0  0  0  0  0  0  0  0
    9.5736   34.7383   -0.0498 H   0  0  0  0  0  0  0  0  0  0  0  0
    9.9774   33.5843   -1.3161 H   0  0  0  0  0  0  0  0  0  0  0  0
   12.3305   33.6275    1.5063 H   0  0  0  0  0  0  0  0  0  0  0  0
   13.3961   34.7906    0.7683 H   0  0  0  0  0  0  0  0  0  0  0  0
   10.1753   29.1688    6.1344 H   0  0  0  0  0  0  0  0  0  0  0  0
   10.5253   27.5263    6.6792 H   0  0  0  0  0  0  0  0  0  0  0  0
   11.7095   27.1009    4.4511 H   0  0  0  0  0  0  0  0  0  0  0  0
    9.9710   27.3507    4.3544 H   0  0  0  0  0  0  0  0  0  0  0  0
    8.1971   35.4025   -3.7003 H   0  0  0  0  0  0  0  0  0  0  0  0
   12.1372   33.6657   -0.8274 H   0  0  0  0  0  0  0  0  0  0  0  0
  1  2  2  0  0  0  0
  1  3  1  0  0  0  0
  1 43  1  0  0  0  0
  2  4  1  0  0  0  0
  2 44  1  0  0  0  0
  3 11  2  0  0  0  0
  3 45  1  0  0  0  0
  4 14  2  0  0  0  0
  4 46  1  0  0  0  0
  5  8  2  0  0  0  0
  5 15  1  0  0  0  0
  5 47  1  0  0  0  0
  6  9  2  0  0  0  0
  6 13  1  0  0  0  0
  6 48  1  0  0  0  0
  7 10  1  0  0  0  0
  7 13  2  0  0  0  0
  7 49  1  0  0  0  0
  8 16  1  0  0  0  0
  8 50  1  0  0  0  0
  9 18  1  0  0  0  0
  9 51  1  0  0  0  0
 10 18  2  0  0  0  0
 10 52  1  0  0  0  0
 11 14  1  0  0  0  0
 11 21  1  0  0  0  0
 12 15  2  0  0  0  0
 12 17  1  0  0  0  0
 12 22  1  0  0  0  0
 13 27  1  0  0  0  0
 14 28  1  0  0  0  0
 15 29  1  0  0  0  0
 16 17  2  0  0  0  0
 16 41  1  0  0  0  0
 17 40  1  0  0  0  0
 18 42  1  0  0  0  0
 19 20  2  0  0  0  0
 19 53  1  0  0  0  0
 19 54  1  0  0  0  0
 20 30  1  0  0  0  0
 20 55  1  0  0  0  0
 21 33  1  0  0  0  0
 21 37  2  0  0  0  0
 22 35  2  0  0  0  0
 22 38  1  0  0  0  0
 23 31  1  0  0  0  0
 23 36  2  0  0  0  0
 23 39  1  0  0  0  0
 24 25  1  0  0  0  0
 24 40  1  0  0  0  0
 24 56  1  0  0  0  0
 24 57  1  0  0  0  0
 25 32  1  0  0  0  0
 25 41  1  0  0  0  0
 25 58  1  1  0  0  0
 26 42  1  0  0  0  0
 26 59  1  0  0  0  0
 26 60  1  0  0  0  0
 26 61  1  0  0  0  0
 27 33  1  0  0  0  0
 27 62  1  0  0  0  0
 27 63  1  0  0  0  0
 28 34  1  0  0  0  0
 28 64  1  0  0  0  0
 28 65  1  0  0  0  0
 29 34  1  0  0  0  0
 29 66  1  0  0  0  0
 29 67  1  0  0  0  0
 30 34  1  0  0  0  0
 30 68  1  0  0  0  0
 30 69  1  0  0  0  0
 31 32  1  0  0  0  0
 31 70  1  0  0  0  0
 31 71  1  0  0  0  0
 32 72  1  0  0  0  0
 32 73  1  0  0  0  0
 33 74  1  0  0  0  0
 34 75  1  6  0  0  0
M  CHG  1  34   1
M  END
$$$$
