4LWE_FJ2_A_301
 OpenBabel03301717323D

 41 43  0  0  0  0  0  0  0  0999 V2000
    0.5055  -32.7478  -22.8336 C   0  0  0  0  0  0  0  0  0  0  0  0
    1.6979  -33.1872  -23.4052 C   0  0  0  0  0  0  0  0  0  0  0  0
    1.6877  -33.8926  -24.6139 C   0  0  0  0  0  0  0  0  0  0  0  0
    0.4802  -34.2033  -25.2558 C   0  0  0  0  0  0  0  0  0  0  0  0
   -0.7142  -33.7312  -24.6823 C   0  0  0  0  0  0  0  0  0  0  0  0
   -0.7032  -33.0021  -23.4889 C   0  0  0  0  0  0  0  0  0  0  0  0
    2.8978  -34.2887  -25.1205 O   0  0  0  0  0  0  0  0  0  0  0  0
    0.5482  -32.0830  -21.6402 O   0  0  0  0  0  0  0  0  0  0  0  0
   -2.1862  -32.3971  -22.8509 Cl  0  0  0  0  0  0  0  0  0  0  0  0
    0.4195  -35.0697  -26.4387 C   0  0  0  0  0  0  0  0  0  0  0  0
    1.1623  -34.8639  -27.5372 N   0  0  0  0  0  0  0  0  0  0  0  0
    0.7218  -35.7988  -28.4775 O   0  0  0  0  0  0  0  0  0  0  0  0
   -0.1882  -36.6350  -27.9008 C   0  0  0  0  0  0  0  0  0  0  0  0
   -0.4044  -36.2256  -26.6014 C   0  0  0  0  0  0  0  0  0  0  0  0
   -1.3870  -36.7880  -25.7026 C   0  0  0  0  0  0  0  0  0  0  0  0
   -0.7342  -37.6535  -28.6582 N   0  0  0  0  0  0  0  0  0  0  0  0
   -0.8205  -38.9255  -28.1207 C   0  0  0  0  0  0  0  0  0  0  0  0
   -1.5737  -39.9319  -28.9557 C   0  0  0  0  0  0  0  0  0  0  0  0
   -0.3034  -39.2773  -27.0639 O   0  0  0  0  0  0  0  0  0  0  0  0
   -2.7326  -36.8533  -26.0691 C   0  0  0  0  0  0  0  0  0  0  0  0
   -3.6753  -37.3878  -25.1862 C   0  0  0  0  0  0  0  0  0  0  0  0
   -3.2826  -37.8515  -23.9291 C   0  0  0  0  0  0  0  0  0  0  0  0
   -1.9363  -37.7767  -23.5635 C   0  0  0  0  0  0  0  0  0  0  0  0
   -0.9934  -37.2424  -24.4411 C   0  0  0  0  0  0  0  0  0  0  0  0
   -4.2844  -38.3521  -23.1428 O   0  0  0  0  0  0  0  0  0  0  0  0
   -3.8976  -38.7760  -21.8378 C   0  0  0  0  0  0  0  0  0  0  0  0
    2.6406  -32.9752  -22.9070 H   0  0  0  0  0  0  0  0  0  0  0  0
   -1.6699  -33.9425  -25.1599 H   0  0  0  0  0  0  0  0  0  0  0  0
    2.7505  -34.6812  -26.0054 H   0  0  0  0  0  0  0  0  0  0  0  0
   -0.3635  -31.8863  -21.3912 H   0  0  0  0  0  0  0  0  0  0  0  0
   -0.9213  -37.4808  -29.6369 H   0  0  0  0  0  0  0  0  0  0  0  0
   -2.0682  -39.4729  -29.8144 H   0  0  0  0  0  0  0  0  0  0  0  0
   -2.3385  -40.4079  -28.3315 H   0  0  0  0  0  0  0  0  0  0  0  0
   -0.8803  -40.7012  -29.3079 H   0  0  0  0  0  0  0  0  0  0  0  0
   -3.0629  -36.4894  -27.0379 H   0  0  0  0  0  0  0  0  0  0  0  0
   -4.7208  -37.4387  -25.4806 H   0  0  0  0  0  0  0  0  0  0  0  0
   -1.5862  -38.1372  -22.6046 H   0  0  0  0  0  0  0  0  0  0  0  0
    0.0530  -37.2067  -24.1368 H   0  0  0  0  0  0  0  0  0  0  0  0
   -4.7873  -39.1415  -21.3186 H   0  0  0  0  0  0  0  0  0  0  0  0
   -3.4899  -37.9417  -21.2593 H   0  0  0  0  0  0  0  0  0  0  0  0
   -3.1807  -39.6045  -21.8910 H   0  0  0  0  0  0  0  0  0  0  0  0
  1  2  2  0  0  0  0
  1  6  1  0  0  0  0
  1  8  1  0  0  0  0
  2  3  1  0  0  0  0
  2 27  1  0  0  0  0
  3  4  2  0  0  0  0
  3  7  1  0  0  0  0
  4  5  1  0  0  0  0
  4 10  1  0  0  0  0
  5  6  2  0  0  0  0
  5 28  1  0  0  0  0
  6  9  1  0  0  0  0
  7 29  1  0  0  0  0
  8 30  1  0  0  0  0
 10 11  2  0  0  0  0
 10 14  1  0  0  0  0
 11 12  1  0  0  0  0
 12 13  1  0  0  0  0
 13 14  2  0  0  0  0
 13 16  1  0  0  0  0
 14 15  1  0  0  0  0
 15 20  2  0  0  0  0
 15 24  1  0  0  0  0
 16 17  1  0  0  0  0
 16 31  1  0  0  0  0
 17 18  1  0  0  0  0
 17 19  2  0  0  0  0
 18 32  1  0  0  0  0
 18 33  1  0  0  0  0
 18 34  1  0  0  0  0
 20 21  1  0  0  0  0
 20 35  1  0  0  0  0
 21 22  2  0  0  0  0
 21 36  1  0  0  0  0
 22 23  1  0  0  0  0
 22 25  1  0  0  0  0
 23 24  2  0  0  0  0
 23 37  1  0  0  0  0
 24 38  1  0  0  0  0
 25 26  1  0  0  0  0
 26 39  1  0  0  0  0
 26 40  1  0  0  0  0
 26 41  1  0  0  0  0
M  END
$$$$
