3HYY_37D_A_237
 OpenBabel03301717173D

 25 26  0  0  0  0  0  0  0  0999 V2000
    7.9641   10.9505   23.1436 C   0  0  0  0  0  0  0  0  0  0  0  0
    7.3277    9.7854   22.8515 C   0  0  0  0  0  0  0  0  0  0  0  0
    5.7198   11.2608   23.3254 C   0  0  0  0  0  0  0  0  0  0  0  0
    6.9419   11.8673   23.4298 C   0  0  0  0  0  0  0  0  0  0  0  0
    4.3517   11.8905   23.5392 C   0  0  0  0  0  0  0  0  0  0  0  0
    2.6362   13.2492   24.0179 C   0  0  0  0  0  0  0  0  0  0  0  0
    4.0384   13.2016   24.0762 C   0  0  0  0  0  0  0  0  0  0  0  0
    4.9338   14.2877   24.5965 C   0  0  0  0  0  0  0  0  0  0  0  0
    5.0742   16.4093   25.6755 C   0  0  0  0  0  0  0  0  0  0  0  0
    1.6448   14.3005   24.3822 C   0  0  0  0  0  0  0  0  0  0  0  0
    6.1625   14.3078   24.5411 O   0  0  0  0  0  0  0  0  0  0  0  0
    4.2697   15.3225   25.1719 O   0  0  0  0  0  0  0  0  0  0  0  0
    2.2227   12.0486   23.5040 N   0  3  0  0  0  0  0  0  0  0  0  0
    3.2301   11.2114   23.2233 N   0  0  0  0  0  0  0  0  0  0  0  0
    5.9678    9.9370   22.9436 O   0  0  0  0  0  0  0  0  0  0  0  0
    9.0275   11.1519   23.1425 H   0  0  0  0  0  0  0  0  0  0  0  0
    7.6999    8.8127   22.5594 H   0  0  0  0  0  0  0  0  0  0  0  0
    7.1660   12.8870   23.6623 H   0  0  0  0  0  0  0  0  0  0  0  0
    4.3919   17.1612   26.0850 H   0  0  0  0  0  0  0  0  0  0  0  0
    5.6597   16.8882   24.8804 H   0  0  0  0  0  0  0  0  0  0  0  0
    5.7310   16.0747   26.4868 H   0  0  0  0  0  0  0  0  0  0  0  0
    2.1282   15.1882   24.7718 H   0  0  0  0  0  0  0  0  0  0  0  0
    0.9505   13.9547   25.1559 H   0  0  0  0  0  0  0  0  0  0  0  0
    1.0629   14.6251   23.5115 H   0  0  0  0  0  0  0  0  0  0  0  0
    1.2702   11.7347   23.3186 H   0  0  0  0  0  0  0  0  0  0  0  0
  1  2  2  0  0  0  0
  1  4  1  0  0  0  0
  1 16  1  0  0  0  0
  2 15  1  0  0  0  0
  2 17  1  0  0  0  0
  3  4  2  0  0  0  0
  3  5  1  0  0  0  0
  3 15  1  0  0  0  0
  4 18  1  0  0  0  0
  5  7  2  0  0  0  0
  5 14  1  0  0  0  0
  6  7  1  0  0  0  0
  6 10  1  0  0  0  0
  6 13  2  0  0  0  0
  7  8  1  0  0  0  0
  8 11  2  0  0  0  0
  8 12  1  0  0  0  0
  9 12  1  0  0  0  0
  9 19  1  0  0  0  0
  9 20  1  0  0  0  0
  9 21  1  0  0  0  0
 10 22  1  0  0  0  0
 10 23  1  0  0  0  0
 10 24  1  0  0  0  0
 13 14  1  0  0  0  0
 13 25  1  0  0  0  0
M  CHG  1  13   1
M  END
$$$$
