2YE6_2AE_A_1224
 OpenBabel03301717083D

 18 18  0  0  0  0  0  0  0  0999 V2000
   63.9870   32.9068   25.7814 C   0  0  0  0  0  0  0  0  0  0  0  0
   64.9960   33.8133   25.4082 C   0  0  0  0  0  0  0  0  0  0  0  0
   66.3293   33.5083   25.7326 C   0  0  0  0  0  0  0  0  0  0  0  0
   66.6576   32.3189   26.3854 C   0  0  0  0  0  0  0  0  0  0  0  0
   65.6543   31.4200   26.7348 C   0  0  0  0  0  0  0  0  0  0  0  0
   64.3161   31.7152   26.4376 C   0  0  0  0  0  0  0  0  0  0  0  0
   62.5660   33.2032   25.4356 C   0  0  0  0  0  0  0  0  0  0  0  0
   62.2334   33.6467   24.3552 O   0  0  0  0  0  0  0  0  0  0  0  0
   61.6383   32.9963   26.4240 N   0  0  0  0  0  0  0  0  0  0  0  0
   64.7256   35.0260   24.7932 N   0  0  0  0  0  0  0  0  0  0  0  0
   67.1222   34.2021   25.4653 H   0  0  0  0  0  0  0  0  0  0  0  0
   67.6981   32.0971   26.6181 H   0  0  0  0  0  0  0  0  0  0  0  0
   65.9145   30.4921   27.2403 H   0  0  0  0  0  0  0  0  0  0  0  0
   63.5485   30.9955   26.7064 H   0  0  0  0  0  0  0  0  0  0  0  0
   60.6651   33.2257   26.2392 H   0  0  0  0  0  0  0  0  0  0  0  0
   61.8920   32.6786   27.3467 H   0  0  0  0  0  0  0  0  0  0  0  0
   65.4644   35.6522   24.5226 H   0  0  0  0  0  0  0  0  0  0  0  0
   63.7663   35.2394   24.5272 H   0  0  0  0  0  0  0  0  0  0  0  0
  1  2  2  0  0  0  0
  1  6  1  0  0  0  0
  1  7  1  0  0  0  0
  2  3  1  0  0  0  0
  2 10  1  0  0  0  0
  3  4  2  0  0  0  0
  3 11  1  0  0  0  0
  4  5  1  0  0  0  0
  4 12  1  0  0  0  0
  5  6  2  0  0  0  0
  5 13  1  0  0  0  0
  6 14  1  0  0  0  0
  7  8  2  0  0  0  0
  7  9  1  0  0  0  0
  9 15  1  0  0  0  0
  9 16  1  0  0  0  0
 10 17  1  0  0  0  0
 10 18  1  0  0  0  0
M  END
$$$$
