3FT8_MOJ_A_237
 OpenBabel03301717163D

 45 48  0  0  1  0  0  0  0  0999 V2000
    8.3289   10.2787   22.3333 F   0  0  0  0  0  0  0  0  0  0  0  0
    7.1446   10.4284   22.9385 C   0  0  0  0  0  0  0  0  0  0  0  0
    6.8584   11.6131   23.6059 C   0  0  0  0  0  0  0  0  0  0  0  0
    5.6303   11.8071   24.2860 C   0  0  0  0  0  0  0  0  0  0  0  0
    5.4412   13.0905   24.9964 C   0  0  0  0  0  0  0  0  0  0  0  0
    6.4013   13.5793   25.8899 C   0  0  0  0  0  0  0  0  0  0  0  0
    6.3227   14.7611   26.5515 N   0  0  0  0  0  0  0  0  0  0  0  0
    5.2269   15.5056   26.3265 C   0  0  0  0  0  0  0  0  0  0  0  0
    4.2099   15.1289   25.4667 C   0  0  0  0  0  0  0  0  0  0  0  0
    4.3308   13.9181   24.7849 C   0  0  0  0  0  0  0  0  0  0  0  0
    6.2215    9.4023   22.8960 C   0  0  0  0  0  0  0  0  0  0  0  0
    4.9947    9.5729   23.5314 C   0  0  0  0  0  0  0  0  0  0  0  0
    4.6792   10.7531   24.2506 C   0  0  0  0  0  0  0  0  0  0  0  0
    3.3429   10.7892   25.0079 C   0  0  2  0  0  0  0  0  0  0  0  0
    3.2740    9.6443   26.0232 C   0  0  0  0  0  0  0  0  0  0  0  0
    1.8948    9.4175   26.6098 C   0  0  0  0  0  0  0  0  0  0  0  0
    1.8461    8.5129   27.5587 N   0  0  0  0  0  0  0  0  0  0  0  0
    2.8728    8.0037   27.9796 O   0  0  0  0  0  0  0  0  0  0  0  0
    0.6942   10.0888   26.0458 C   0  0  0  0  0  0  0  0  0  0  0  0
    2.1409   10.7235   24.0567 C   0  0  0  0  0  0  0  0  0  0  0  0
    0.8310   10.7146   24.8028 C   0  0  0  0  0  0  0  0  0  0  0  0
   -0.1956   11.3264   24.1602 N   0  0  0  0  0  0  0  0  0  0  0  0
   -1.3735   11.3498   24.7731 C   0  0  0  0  0  0  0  0  0  0  0  0
   -2.4167   12.0079   24.1640 N   0  0  0  0  0  0  0  0  0  0  0  0
   -1.6063   10.7866   25.9561 N   0  0  0  0  0  0  0  0  0  0  0  0
   -0.5750   10.1862   26.6077 C   0  0  0  0  0  0  0  0  0  0  0  0
   -0.9958    9.6948   27.9581 C   0  0  0  0  0  0  0  0  0  0  0  0
    7.6179   12.3915   23.5939 H   0  0  0  0  0  0  0  0  0  0  0  0
    7.3059   13.0140   26.1052 H   0  0  0  0  0  0  0  0  0  0  0  0
    5.1837   16.4474   26.8685 H   0  0  0  0  0  0  0  0  0  0  0  0
    3.3445   15.7659   25.3215 H   0  0  0  0  0  0  0  0  0  0  0  0
    3.5499   13.6273   24.0877 H   0  0  0  0  0  0  0  0  0  0  0  0
    6.4607    8.4774   22.3835 H   0  0  0  0  0  0  0  0  0  0  0  0
    4.2911    8.7418   23.4896 H   0  0  0  0  0  0  0  0  0  0  0  0
    3.2568   11.7082   25.5912 H   0  0  0  0  0  0  0  0  0  0  0  0
    3.9948    9.8453   26.8262 H   0  0  0  0  0  0  0  0  0  0  0  0
    3.5604    8.6894   25.5658 H   0  0  0  0  0  0  0  0  0  0  0  0
    0.9969    8.1549   28.0024 H   0  0  0  0  0  0  0  0  0  0  0  0
    2.1713    9.8324   23.4220 H   0  0  0  0  0  0  0  0  0  0  0  0
    2.1658   11.5930   23.3828 H   0  0  0  0  0  0  0  0  0  0  0  0
   -2.2826   12.1067   23.1689 H   0  0  0  0  0  0  0  0  0  0  0  0
   -3.3144   11.6937   24.5028 H   0  0  0  0  0  0  0  0  0  0  0  0
   -0.1756    9.4810   28.6412 H   0  0  0  0  0  0  0  0  0  0  0  0
   -1.6253    8.8059   27.8484 H   0  0  0  0  0  0  0  0  0  0  0  0
   -1.5871   10.4713   28.4572 H   0  0  0  0  0  0  0  0  0  0  0  0
  1  2  1  0  0  0  0
  2  3  2  0  0  0  0
  2 11  1  0  0  0  0
  3  4  1  0  0  0  0
  3 28  1  0  0  0  0
  4  5  1  0  0  0  0
  4 13  2  0  0  0  0
  5  6  2  0  0  0  0
  5 10  1  0  0  0  0
  6  7  1  0  0  0  0
  6 29  1  0  0  0  0
  7  8  2  0  0  0  0
  8  9  1  0  0  0  0
  8 30  1  0  0  0  0
  9 10  2  0  0  0  0
  9 31  1  0  0  0  0
 10 32  1  0  0  0  0
 11 12  2  0  0  0  0
 11 33  1  0  0  0  0
 12 13  1  0  0  0  0
 12 34  1  0  0  0  0
 13 14  1  0  0  0  0
 14 15  1  0  0  0  0
 14 20  1  0  0  0  0
 14 35  1  1  0  0  0
 15 16  1  0  0  0  0
 15 36  1  0  0  0  0
 15 37  1  0  0  0  0
 16 17  2  0  0  0  0
 16 19  1  0  0  0  0
 17 18  2  0  0  0  0
 17 38  1  0  0  0  0
 19 21  2  0  0  0  0
 19 26  1  0  0  0  0
 20 21  1  0  0  0  0
 20 39  1  0  0  0  0
 20 40  1  0  0  0  0
 21 22  1  0  0  0  0
 22 23  2  0  0  0  0
 23 24  1  0  0  0  0
 23 25  1  0  0  0  0
 24 41  1  0  0  0  0
 24 42  1  0  0  0  0
 25 26  2  0  0  0  0
 26 27  1  0  0  0  0
 27 43  1  0  0  0  0
 27 44  1  0  0  0  0
 27 45  1  0  0  0  0
M  END
$$$$
