4CWF_H05_A_1224
 OpenBabel03301717263D

 30 32  0  0  0  0  0  0  0  0999 V2000
    6.3260   11.8932   24.0293 C   0  0  0  0  0  0  0  0  0  0  0  0
    5.2982   11.1074   23.5875 N   0  3  0  0  0  0  0  0  0  0  0  0
    7.4739   11.3209   23.7515 N   0  0  0  0  0  0  0  0  0  0  0  0
    5.7744    9.9967   22.9864 N   0  0  0  0  0  0  0  0  0  0  0  0
    3.9572   11.4611   23.7681 C   0  0  0  0  0  0  0  0  0  0  0  0
    3.6154   12.5744   24.3609 N   0  0  0  0  0  0  0  0  0  0  0  0
    7.0870   10.1772   23.1248 C   0  0  0  0  0  0  0  0  0  0  0  0
    6.0082   13.1368   24.6893 C   0  0  0  0  0  0  0  0  0  0  0  0
    4.6377   13.4421   24.8322 C   0  0  0  0  0  0  0  0  0  0  0  0
    8.0439    9.3561   22.7164 N   0  0  0  0  0  0  0  0  0  0  0  0
    6.9957   13.9992   25.1665 C   0  0  0  0  0  0  0  0  0  0  0  0
    2.9235   10.4835   23.2696 C   0  0  0  0  0  0  0  0  0  0  0  0
    4.2832   14.6358   25.4610 C   0  0  0  0  0  0  0  0  0  0  0  0
    2.7944    9.2468   24.1598 C   0  0  0  0  0  0  0  0  0  0  0  0
    6.6230   15.1861   25.7919 C   0  0  0  0  0  0  0  0  0  0  0  0
    5.2710   15.5045   25.9384 C   0  0  0  0  0  0  0  0  0  0  0  0
    2.2972    9.5760   25.5596 C   0  0  0  0  0  0  0  0  0  0  0  0
    7.8289    8.4898   22.2428 H   0  0  0  0  0  0  0  0  0  0  0  0
    9.0178    9.5838   22.8622 H   0  0  0  0  0  0  0  0  0  0  0  0
    8.0472   13.7454   25.0495 H   0  0  0  0  0  0  0  0  0  0  0  0
    3.1581   10.1897   22.2406 H   0  0  0  0  0  0  0  0  0  0  0  0
    1.9568   11.0013   23.2332 H   0  0  0  0  0  0  0  0  0  0  0  0
    3.2340   14.8913   25.5808 H   0  0  0  0  0  0  0  0  0  0  0  0
    3.7526    8.7253   24.2369 H   0  0  0  0  0  0  0  0  0  0  0  0
    2.0891    8.5481   23.6924 H   0  0  0  0  0  0  0  0  0  0  0  0
    7.3880   15.8633   26.1649 H   0  0  0  0  0  0  0  0  0  0  0  0
    4.9858   16.4326   26.4283 H   0  0  0  0  0  0  0  0  0  0  0  0
    2.9748   10.2645   26.0734 H   0  0  0  0  0  0  0  0  0  0  0  0
    2.2336    8.6625   26.1593 H   0  0  0  0  0  0  0  0  0  0  0  0
    1.3021   10.0307   25.5267 H   0  0  0  0  0  0  0  0  0  0  0  0
  1  2  2  0  0  0  0
  1  3  1  0  0  0  0
  1  8  1  0  0  0  0
  2  4  1  0  0  0  0
  2  5  1  0  0  0  0
  3  7  1  0  0  0  0
  4  7  2  0  0  0  0
  5  6  2  0  0  0  0
  5 12  1  0  0  0  0
  6  9  1  0  0  0  0
  7 10  1  0  0  0  0
  8  9  2  0  0  0  0
  8 11  1  0  0  0  0
  9 13  1  0  0  0  0
 10 18  1  0  0  0  0
 10 19  1  0  0  0  0
 11 15  2  0  0  0  0
 11 20  1  0  0  0  0
 12 14  1  0  0  0  0
 12 21  1  0  0  0  0
 12 22  1  0  0  0  0
 13 16  2  0  0  0  0
 13 23  1  0  0  0  0
 14 17  1  0  0  0  0
 14 24  1  0  0  0  0
 14 25  1  0  0  0  0
 15 16  1  0  0  0  0
 15 26  1  0  0  0  0
 16 27  1  0  0  0  0
 17 28  1  0  0  0  0
 17 29  1  0  0  0  0
 17 30  1  0  0  0  0
M  CHG  1   2   1
M  END
$$$$
