2WI4_ZZ4_A_1224
 OpenBabel03301717043D

 34 36  0  0  0  0  0  0  0  0999 V2000
    6.2391   11.1067   22.6999 Cl  0  0  0  0  0  0  0  0  0  0  0  0
    4.6301   11.0360   23.3024 C   0  0  0  0  0  0  0  0  0  0  0  0
    4.0092    9.8052   23.4735 C   0  0  0  0  0  0  0  0  0  0  0  0
    2.7062    9.7487   23.9770 C   0  0  0  0  0  0  0  0  0  0  0  0
    3.9571   12.2103   23.6259 C   0  0  0  0  0  0  0  0  0  0  0  0
    2.6430   12.1450   24.1323 C   0  0  0  0  0  0  0  0  0  0  0  0
    1.8934   13.6534   24.5388 Cl  0  0  0  0  0  0  0  0  0  0  0  0
    1.9926   10.9090   24.3294 C   0  0  0  0  0  0  0  0  0  0  0  0
    0.6305   10.7858   24.9100 C   0  0  0  0  0  0  0  0  0  0  0  0
   -0.3772   11.2910   24.1433 N   0  0  0  0  0  0  0  0  0  0  0  0
    0.4045   10.1658   26.1397 C   0  0  0  0  0  0  0  0  0  0  0  0
   -0.9208   10.1625   26.5315 C   0  0  0  0  0  0  0  0  0  0  0  0
   -1.9419   10.6667   25.8046 N   0  0  0  0  0  0  0  0  0  0  0  0
   -1.6225   11.2055   24.6241 C   0  0  0  0  0  0  0  0  0  0  0  0
   -2.6520   11.6748   23.8622 N   0  0  0  0  0  0  0  0  0  0  0  0
    1.4567    9.6721   26.9385 N   0  0  0  0  0  0  0  0  0  0  0  0
    1.1872    8.5811   27.4897 N   0  0  0  0  0  0  0  0  0  0  0  0
    2.2631    8.0838   28.2705 C   0  0  0  0  0  0  0  0  0  0  0  0
    3.5757    8.5764   28.1882 C   0  0  0  0  0  0  0  0  0  0  0  0
    4.6061    8.0388   28.9686 C   0  0  0  0  0  0  0  0  0  0  0  0
    4.3397    6.9930   29.8470 C   0  0  0  0  0  0  0  0  0  0  0  0
    3.0464    6.4834   29.9424 C   0  0  0  0  0  0  0  0  0  0  0  0
    2.0189    7.0239   29.1572 C   0  0  0  0  0  0  0  0  0  0  0  0
    4.5356    8.8848   23.2209 H   0  0  0  0  0  0  0  0  0  0  0  0
    2.2458    8.7640   24.1027 H   0  0  0  0  0  0  0  0  0  0  0  0
    4.4491   13.1687   23.4964 H   0  0  0  0  0  0  0  0  0  0  0  0
   -1.2146    9.7415   27.4900 H   0  0  0  0  0  0  0  0  0  0  0  0
   -3.5702   11.6853   24.2734 H   0  0  0  0  0  0  0  0  0  0  0  0
   -2.4317   12.1619   23.0115 H   0  0  0  0  0  0  0  0  0  0  0  0
    3.8153    9.3894   27.5096 H   0  0  0  0  0  0  0  0  0  0  0  0
    5.6124    8.4404   28.8808 H   0  0  0  0  0  0  0  0  0  0  0  0
    5.1393    6.5755   30.4558 H   0  0  0  0  0  0  0  0  0  0  0  0
    2.8389    5.6629   30.6250 H   0  0  0  0  0  0  0  0  0  0  0  0
    1.0175    6.6095   29.2420 H   0  0  0  0  0  0  0  0  0  0  0  0
  1  2  1  0  0  0  0
  2  3  2  0  0  0  0
  2  5  1  0  0  0  0
  3  4  1  0  0  0  0
  3 24  1  0  0  0  0
  4  8  2  0  0  0  0
  4 25  1  0  0  0  0
  5  6  2  0  0  0  0
  5 26  1  0  0  0  0
  6  7  1  0  0  0  0
  6  8  1  0  0  0  0
  8  9  1  0  0  0  0
  9 10  2  0  0  0  0
  9 11  1  0  0  0  0
 10 14  1  0  0  0  0
 11 12  2  0  0  0  0
 11 16  1  0  0  0  0
 12 13  1  0  0  0  0
 12 27  1  0  0  0  0
 13 14  2  0  0  0  0
 14 15  1  0  0  0  0
 15 28  1  0  0  0  0
 15 29  1  0  0  0  0
 16 17  2  0  0  0  0
 17 18  1  0  0  0  0
 18 19  2  0  0  0  0
 18 23  1  0  0  0  0
 19 20  1  0  0  0  0
 19 30  1  0  0  0  0
 20 21  2  0  0  0  0
 20 31  1  0  0  0  0
 21 22  1  0  0  0  0
 21 32  1  0  0  0  0
 22 23  2  0  0  0  0
 22 33  1  0  0  0  0
 23 34  1  0  0  0  0
M  END
$$$$
