017
 OpenBabel04051918113D

 75 78  0  0  1  0  0  0  0  0999 V2000
   -1.3031    8.2644   29.8314 N   0  0  0  0  0  0  0  0  0  0  0  0
   -0.8308    8.5480   31.0960 C   0  0  0  0  0  0  0  0  0  0  0  0
    0.4256    8.0838   31.4580 C   0  0  0  0  0  0  0  0  0  0  0  0
    0.9429    8.3391   32.7178 C   0  0  0  0  0  0  0  0  0  0  0  0
    0.1803    9.0395   33.6500 C   0  0  0  0  0  0  0  0  0  0  0  0
   -1.0588    9.5529   33.3034 C   0  0  0  0  0  0  0  0  0  0  0  0
   -1.5670    9.2858   32.0294 C   0  0  0  0  0  0  0  0  0  0  0  0
    0.8316    9.2677   35.2723 S   0  0  0  0  0  0  0  0  0  0  0  0
    2.2340    9.0691   35.1943 O   0  0  0  0  0  0  0  0  0  0  0  0
    0.2816   10.5035   35.7508 O   0  0  0  0  0  0  0  0  0  0  0  0
    0.1675    8.0502   36.2373 N   0  0  0  0  0  0  0  0  0  0  0  0
   -1.2978    8.0240   36.3808 C   0  0  0  0  0  0  0  0  0  0  0  0
   -1.7381    7.6600   37.7924 C   0  0  0  0  0  0  0  0  0  0  0  0
   -1.2449    8.6586   38.8224 C   0  0  0  0  0  0  0  0  0  0  0  0
   -3.2525    7.5474   37.8522 C   0  0  0  0  0  0  0  0  0  0  0  0
    0.8113    6.7351   36.2206 C   0  0  0  0  0  0  0  0  0  0  0  0
    1.5010    6.4337   37.5571 C   0  0  1  0  0  0  0  0  0  0  0  0
    1.8520    5.0394   37.6019 O   0  0  0  0  0  0  0  0  0  0  0  0
    2.7325    7.3083   37.8619 C   0  0  1  0  0  0  0  0  0  0  0  0
    3.0996    7.0883   39.2547 N   0  0  0  0  0  0  0  0  0  0  0  0
    2.9286    8.0462   40.2171 C   0  0  0  0  0  0  0  0  0  0  0  0
    2.5317    9.1782   40.0565 O   0  0  0  0  0  0  0  0  0  0  0  0
    3.3102    7.5243   41.4032 O   0  0  0  0  0  0  0  0  0  0  0  0
    3.4158    8.4390   42.5171 C   0  0  1  0  0  0  0  0  0  0  0  0
    2.9732    7.6627   43.7509 C   0  0  0  0  0  0  0  0  0  0  0  0
    4.0901    6.8211   44.0807 O   0  0  0  0  0  0  0  0  0  0  0  0
    5.2703    7.5579   43.7379 C   0  0  1  0  0  0  0  0  0  0  0  0
    6.1566    6.7177   42.9912 O   0  0  0  0  0  0  0  0  0  0  0  0
    6.2674    7.2159   41.6564 C   0  0  0  0  0  0  0  0  0  0  0  0
    5.8626    8.6692   41.6970 C   0  0  0  0  0  0  0  0  0  0  0  0
    4.8813    8.7288   42.8442 C   0  0  1  0  0  0  0  0  0  0  0  0
    3.9516    7.0524   36.9652 C   0  0  0  0  0  0  0  0  0  0  0  0
    6.2443    7.3640   37.9675 C   0  0  0  0  0  0  0  0  0  0  0  0
    7.3189    8.1591   38.3494 C   0  0  0  0  0  0  0  0  0  0  0  0
    7.2694    9.5270   38.1290 C   0  0  0  0  0  0  0  0  0  0  0  0
    6.1572   10.0963   37.5227 C   0  0  0  0  0  0  0  0  0  0  0  0
    5.0820    9.3060   37.1412 C   0  0  0  0  0  0  0  0  0  0  0  0
    5.1193    7.9274   37.3530 C   0  0  0  0  0  0  0  0  0  0  0  0
   -0.7299    7.7292   29.1889 H   0  0  0  0  0  0  0  0  0  0  0  0
   -2.2101    8.5898   29.5349 H   0  0  0  0  0  0  0  0  0  0  0  0
    1.0223    7.5104   30.7601 H   0  0  0  0  0  0  0  0  0  0  0  0
    1.9190    7.9688   32.9783 H   0  0  0  0  0  0  0  0  0  0  0  0
   -1.6282   10.1252   34.0319 H   0  0  0  0  0  0  0  0  0  0  0  0
   -2.5503    9.6629   31.7781 H   0  0  0  0  0  0  0  0  0  0  0  0
   -1.6925    7.2739   35.6894 H   0  0  0  0  0  0  0  0  0  0  0  0
   -1.7119    9.0009   36.1241 H   0  0  0  0  0  0  0  0  0  0  0  0
   -1.3304    6.6820   38.0450 H   0  0  0  0  0  0  0  0  0  0  0  0
   -1.5986    8.3680   39.8172 H   0  0  0  0  0  0  0  0  0  0  0  0
   -1.6117    9.6633   38.5899 H   0  0  0  0  0  0  0  0  0  0  0  0
   -0.1522    8.6705   38.8275 H   0  0  0  0  0  0  0  0  0  0  0  0
   -3.5995    6.8300   37.0995 H   0  0  0  0  0  0  0  0  0  0  0  0
   -3.7189    8.5198   37.6597 H   0  0  0  0  0  0  0  0  0  0  0  0
   -3.5577    7.1941   38.8431 H   0  0  0  0  0  0  0  0  0  0  0  0
    1.5412    6.6795   35.4171 H   0  0  0  0  0  0  0  0  0  0  0  0
    0.0480    5.9686   36.0379 H   0  0  0  0  0  0  0  0  0  0  0  0
    0.7749    6.5971   38.3605 H   0  0  0  0  0  0  0  0  0  0  0  0
    2.4576    4.8546   36.8638 H   0  0  0  0  0  0  0  0  0  0  0  0
    2.4411    8.3520   37.7507 H   0  0  0  0  0  0  0  0  0  0  0  0
    3.4854    6.1968   39.5284 H   0  0  0  0  0  0  0  0  0  0  0  0
    2.8445    9.3649   42.3471 H   0  0  0  0  0  0  0  0  0  0  0  0
    2.0871    7.0451   43.5646 H   0  0  0  0  0  0  0  0  0  0  0  0
    2.7807    8.3100   44.6190 H   0  0  0  0  0  0  0  0  0  0  0  0
    5.7730    7.8973   44.6597 H   0  0  0  0  0  0  0  0  0  0  0  0
    5.6101    6.6454   40.9868 H   0  0  0  0  0  0  0  0  0  0  0  0
    7.2993    7.0919   41.3123 H   0  0  0  0  0  0  0  0  0  0  0  0
    5.4216    8.9937   40.7545 H   0  0  0  0  0  0  0  0  0  0  0  0
    6.7413    9.2977   41.9058 H   0  0  0  0  0  0  0  0  0  0  0  0
    4.9638    9.6944   43.3594 H   0  0  0  0  0  0  0  0  0  0  0  0
    3.6930    7.2487   35.9194 H   0  0  0  0  0  0  0  0  0  0  0  0
    4.2637    6.0015   37.0388 H   0  0  0  0  0  0  0  0  0  0  0  0
    6.2750    6.2968   38.1473 H   0  0  0  0  0  0  0  0  0  0  0  0
    8.1971    7.7289   38.8185 H   0  0  0  0  0  0  0  0  0  0  0  0
    8.0983   10.1551   38.4289 H   0  0  0  0  0  0  0  0  0  0  0  0
    6.1239   11.1632   37.3421 H   0  0  0  0  0  0  0  0  0  0  0  0
    4.2194    9.7782   36.6789 H   0  0  0  0  0  0  0  0  0  0  0  0
  1  2  1  0  0  0  0
  1 39  1  0  0  0  0
  1 40  1  0  0  0  0
  2  3  2  0  0  0  0
  2  7  1  0  0  0  0
  3  4  1  0  0  0  0
  3 41  1  0  0  0  0
  4  5  2  0  0  0  0
  4 42  1  0  0  0  0
  5  6  1  0  0  0  0
  5  8  1  0  0  0  0
  6  7  2  0  0  0  0
  6 43  1  0  0  0  0
  7 44  1  0  0  0  0
  8  9  2  0  0  0  0
  8 10  2  0  0  0  0
  8 11  1  0  0  0  0
 11 12  1  0  0  0  0
 11 16  1  0  0  0  0
 12 13  1  0  0  0  0
 12 45  1  0  0  0  0
 12 46  1  0  0  0  0
 13 14  1  0  0  0  0
 13 15  1  0  0  0  0
 13 47  1  0  0  0  0
 14 48  1  0  0  0  0
 14 49  1  0  0  0  0
 14 50  1  0  0  0  0
 15 51  1  0  0  0  0
 15 52  1  0  0  0  0
 15 53  1  0  0  0  0
 16 17  1  0  0  0  0
 16 54  1  0  0  0  0
 16 55  1  0  0  0  0
 17 18  1  0  0  0  0
 17 19  1  0  0  0  0
 17 56  1  1  0  0  0
 18 57  1  0  0  0  0
 19 20  1  0  0  0  0
 19 32  1  0  0  0  0
 19 58  1  6  0  0  0
 20 21  1  0  0  0  0
 20 59  1  0  0  0  0
 21 22  2  0  0  0  0
 21 23  1  0  0  0  0
 23 24  1  0  0  0  0
 24 25  1  0  0  0  0
 24 31  1  0  0  0  0
 24 60  1  6  0  0  0
 25 26  1  0  0  0  0
 25 61  1  0  0  0  0
 25 62  1  0  0  0  0
 26 27  1  0  0  0  0
 27 28  1  0  0  0  0
 27 31  1  0  0  0  0
 27 63  1  1  0  0  0
 28 29  1  0  0  0  0
 29 30  1  0  0  0  0
 29 64  1  0  0  0  0
 29 65  1  0  0  0  0
 30 31  1  0  0  0  0
 30 66  1  0  0  0  0
 30 67  1  0  0  0  0
 31 68  1  1  0  0  0
 32 38  1  0  0  0  0
 32 69  1  0  0  0  0
 32 70  1  0  0  0  0
 33 34  2  0  0  0  0
 33 38  1  0  0  0  0
 33 71  1  0  0  0  0
 34 35  1  0  0  0  0
 34 72  1  0  0  0  0
 35 36  2  0  0  0  0
 35 73  1  0  0  0  0
 36 37  1  0  0  0  0
 36 74  1  0  0  0  0
 37 38  2  0  0  0  0
 37 75  1  0  0  0  0
M  END
$$$$
