017
 OpenBabel04051918153D

 75 78  0  0  1  0  0  0  0  0999 V2000
   15.2538   36.5187   17.8899 N   0  0  0  0  0  0  0  0  0  0  0  0
   16.0131   35.5240   17.2940 C   0  0  0  0  0  0  0  0  0  0  0  0
   15.6423   34.1688   17.3804 C   0  0  0  0  0  0  0  0  0  0  0  0
   16.3380   33.1795   16.6636 C   0  0  0  0  0  0  0  0  0  0  0  0
   17.4084   33.5536   15.8488 C   0  0  0  0  0  0  0  0  0  0  0  0
   17.7505   34.9020   15.7134 C   0  0  0  0  0  0  0  0  0  0  0  0
   17.0435   35.8765   16.4275 C   0  0  0  0  0  0  0  0  0  0  0  0
   18.2973   32.3785   14.8415 S   0  0  0  0  0  0  0  0  0  0  0  0
   17.3825   31.3171   14.4858 O   0  0  0  0  0  0  0  0  0  0  0  0
   18.9887   33.1358   13.8200 O   0  0  0  0  0  0  0  0  0  0  0  0
   19.4877   31.7452   15.8772 N   0  0  0  0  0  0  0  0  0  0  0  0
   20.3593   32.7287   16.5627 C   0  0  0  0  0  0  0  0  0  0  0  0
   21.8395   32.3269   16.5707 C   0  0  0  0  0  0  0  0  0  0  0  0
   22.4097   32.2787   15.1502 C   0  0  0  0  0  0  0  0  0  0  0  0
   22.6156   33.3412   17.4143 C   0  0  0  0  0  0  0  0  0  0  0  0
   19.2086   30.4905   16.6086 C   0  0  0  0  0  0  0  0  0  0  0  0
   20.0489   29.3219   16.0474 C   0  0  1  0  0  0  0  0  0  0  0  0
   20.0016   28.2054   16.9584 O   0  0  0  0  0  0  0  0  0  0  0  0
   19.6723   28.8701   14.6147 C   0  0  1  0  0  0  0  0  0  0  0  0
   20.7167   27.9746   14.1277 N   0  0  0  0  0  0  0  0  0  0  0  0
   21.5860   28.3090   13.1375 C   0  0  0  0  0  0  0  0  0  0  0  0
   21.6202   29.3755   12.5420 O   0  0  0  0  0  0  0  0  0  0  0  0
   22.3817   27.2426   12.8996 O   0  0  0  0  0  0  0  0  0  0  0  0
   23.2007   27.3065   11.7238 C   0  0  1  0  0  0  0  0  0  0  0  0
   24.5245   26.6423   12.0466 C   0  0  0  0  0  0  0  0  0  0  0  0
   24.3013   25.2321   11.9209 O   0  0  0  0  0  0  0  0  0  0  0  0
   23.2489   25.0417   10.9726 C   0  0  1  0  0  0  0  0  0  0  0  0
   22.2060   24.2170   11.4964 O   0  0  0  0  0  0  0  0  0  0  0  0
   20.9928   24.9714   11.5368 C   0  0  0  0  0  0  0  0  0  0  0  0
   21.1704   26.1598   10.6130 C   0  0  0  0  0  0  0  0  0  0  0  0
   22.6584   26.3953   10.6296 C   0  0  1  0  0  0  0  0  0  0  0  0
   18.3046   28.1747   14.5151 C   0  0  0  0  0  0  0  0  0  0  0  0
   17.8379   26.3625   12.8105 C   0  0  0  0  0  0  0  0  0  0  0  0
   17.5697   25.9474   11.5068 C   0  0  0  0  0  0  0  0  0  0  0  0
   17.4336   26.8884   10.4875 C   0  0  0  0  0  0  0  0  0  0  0  0
   17.5457   28.2468   10.7775 C   0  0  0  0  0  0  0  0  0  0  0  0
   17.8062   28.6647   12.0805 C   0  0  0  0  0  0  0  0  0  0  0  0
   17.9662   27.7263   13.1094 C   0  0  0  0  0  0  0  0  0  0  0  0
   14.6038   36.2820   18.6285 H   0  0  0  0  0  0  0  0  0  0  0  0
   15.6323   37.4609   17.9107 H   0  0  0  0  0  0  0  0  0  0  0  0
   14.8055   33.8825   17.9964 H   0  0  0  0  0  0  0  0  0  0  0  0
   16.0212   32.1431   16.7336 H   0  0  0  0  0  0  0  0  0  0  0  0
   18.5457   35.2148   15.0498 H   0  0  0  0  0  0  0  0  0  0  0  0
   17.3142   36.9230   16.2901 H   0  0  0  0  0  0  0  0  0  0  0  0
   19.9964   32.8691   17.5874 H   0  0  0  0  0  0  0  0  0  0  0  0
   20.2908   33.7052   16.0698 H   0  0  0  0  0  0  0  0  0  0  0  0
   21.9653   31.3446   17.0360 H   0  0  0  0  0  0  0  0  0  0  0  0
   23.4686   32.0001   15.1641 H   0  0  0  0  0  0  0  0  0  0  0  0
   22.3242   33.2534   14.6571 H   0  0  0  0  0  0  0  0  0  0  0  0
   21.8818   31.5445   14.5343 H   0  0  0  0  0  0  0  0  0  0  0  0
   22.2280   33.3637   18.4391 H   0  0  0  0  0  0  0  0  0  0  0  0
   22.5256   34.3517   16.9999 H   0  0  0  0  0  0  0  0  0  0  0  0
   23.6791   33.0855   17.4631 H   0  0  0  0  0  0  0  0  0  0  0  0
   18.1453   30.2334   16.5930 H   0  0  0  0  0  0  0  0  0  0  0  0
   19.4417   30.6133   17.6741 H   0  0  0  0  0  0  0  0  0  0  0  0
   21.1004   29.6215   16.0278 H   0  0  0  0  0  0  0  0  0  0  0  0
   19.0777   27.9237   17.0597 H   0  0  0  0  0  0  0  0  0  0  0  0
   19.6767   29.7595   13.9661 H   0  0  0  0  0  0  0  0  0  0  0  0
   20.8157   27.0463   14.5192 H   0  0  0  0  0  0  0  0  0  0  0  0
   23.3528   28.3372   11.3788 H   0  0  0  0  0  0  0  0  0  0  0  0
   24.8760   26.8614   13.0603 H   0  0  0  0  0  0  0  0  0  0  0  0
   25.3029   26.9208   11.3262 H   0  0  0  0  0  0  0  0  0  0  0  0
   23.6633   24.5396   10.0946 H   0  0  0  0  0  0  0  0  0  0  0  0
   20.8155   25.2776   12.5724 H   0  0  0  0  0  0  0  0  0  0  0  0
   20.1613   24.3310   11.2308 H   0  0  0  0  0  0  0  0  0  0  0  0
   20.5748   27.0236   10.9050 H   0  0  0  0  0  0  0  0  0  0  0  0
   20.8534   25.8754    9.6003 H   0  0  0  0  0  0  0  0  0  0  0  0
   23.0299   26.7415    9.6533 H   0  0  0  0  0  0  0  0  0  0  0  0
   17.4986   28.8279   14.8661 H   0  0  0  0  0  0  0  0  0  0  0  0
   18.2815   27.2963   15.1745 H   0  0  0  0  0  0  0  0  0  0  0  0
   17.9659   25.6132   13.5887 H   0  0  0  0  0  0  0  0  0  0  0  0
   17.4814   24.8876   11.2827 H   0  0  0  0  0  0  0  0  0  0  0  0
   17.2468   26.5641    9.4679 H   0  0  0  0  0  0  0  0  0  0  0  0
   17.4381   28.9853    9.9862 H   0  0  0  0  0  0  0  0  0  0  0  0
   17.9015   29.7295   12.2846 H   0  0  0  0  0  0  0  0  0  0  0  0
  1  2  1  0  0  0  0
  1 39  1  0  0  0  0
  1 40  1  0  0  0  0
  2  3  2  0  0  0  0
  2  7  1  0  0  0  0
  3  4  1  0  0  0  0
  3 41  1  0  0  0  0
  4  5  2  0  0  0  0
  4 42  1  0  0  0  0
  5  6  1  0  0  0  0
  5  8  1  0  0  0  0
  6  7  2  0  0  0  0
  6 43  1  0  0  0  0
  7 44  1  0  0  0  0
  8  9  2  0  0  0  0
  8 10  2  0  0  0  0
  8 11  1  0  0  0  0
 11 12  1  0  0  0  0
 11 16  1  0  0  0  0
 12 13  1  0  0  0  0
 12 45  1  0  0  0  0
 12 46  1  0  0  0  0
 13 14  1  0  0  0  0
 13 15  1  0  0  0  0
 13 47  1  0  0  0  0
 14 48  1  0  0  0  0
 14 49  1  0  0  0  0
 14 50  1  0  0  0  0
 15 51  1  0  0  0  0
 15 52  1  0  0  0  0
 15 53  1  0  0  0  0
 16 17  1  0  0  0  0
 16 54  1  0  0  0  0
 16 55  1  0  0  0  0
 17 18  1  0  0  0  0
 17 19  1  0  0  0  0
 17 56  1  6  0  0  0
 18 57  1  0  0  0  0
 19 20  1  0  0  0  0
 19 32  1  0  0  0  0
 19 58  1  6  0  0  0
 20 21  1  0  0  0  0
 20 59  1  0  0  0  0
 21 22  2  0  0  0  0
 21 23  1  0  0  0  0
 23 24  1  0  0  0  0
 24 25  1  0  0  0  0
 24 31  1  0  0  0  0
 24 60  1  6  0  0  0
 25 26  1  0  0  0  0
 25 61  1  0  0  0  0
 25 62  1  0  0  0  0
 26 27  1  0  0  0  0
 27 28  1  0  0  0  0
 27 31  1  0  0  0  0
 27 63  1  6  0  0  0
 28 29  1  0  0  0  0
 29 30  1  0  0  0  0
 29 64  1  0  0  0  0
 29 65  1  0  0  0  0
 30 31  1  0  0  0  0
 30 66  1  0  0  0  0
 30 67  1  0  0  0  0
 31 68  1  6  0  0  0
 32 38  1  0  0  0  0
 32 69  1  0  0  0  0
 32 70  1  0  0  0  0
 33 34  2  0  0  0  0
 33 38  1  0  0  0  0
 33 71  1  0  0  0  0
 34 35  1  0  0  0  0
 34 72  1  0  0  0  0
 35 36  2  0  0  0  0
 35 73  1  0  0  0  0
 36 37  1  0  0  0  0
 36 74  1  0  0  0  0
 37 38  2  0  0  0  0
 37 75  1  0  0  0  0
M  END
$$$$
