017
 OpenBabel04051917553D

 75 78  0  0  1  0  0  0  0  0999 V2000
    8.1604   57.2157   14.1093 N   0  0  0  0  0  0  0  0  0  0  0  0
    8.6677   58.4169   14.5733 C   0  0  0  0  0  0  0  0  0  0  0  0
   10.0037   58.6822   14.2843 C   0  0  0  0  0  0  0  0  0  0  0  0
   10.5816   59.8560   14.7218 C   0  0  0  0  0  0  0  0  0  0  0  0
    9.8138   60.7610   15.4696 C   0  0  0  0  0  0  0  0  0  0  0  0
    8.4625   60.5192   15.7465 C   0  0  0  0  0  0  0  0  0  0  0  0
    7.8686   59.3059   15.2982 C   0  0  0  0  0  0  0  0  0  0  0  0
   10.6289   62.2643   15.9831 S   0  0  0  0  0  0  0  0  0  0  0  0
   11.7486   62.4634   15.0750 O   0  0  0  0  0  0  0  0  0  0  0  0
    9.6485   63.3025   16.1627 O   0  0  0  0  0  0  0  0  0  0  0  0
   11.2832   61.8768   17.5244 N   0  0  0  0  0  0  0  0  0  0  0  0
   10.3163   61.5898   18.6190 C   0  0  0  0  0  0  0  0  0  0  0  0
   10.7897   62.1825   19.9545 C   0  0  0  0  0  0  0  0  0  0  0  0
   10.7831   63.7021   19.8564 C   0  0  0  0  0  0  0  0  0  0  0  0
    9.8740   61.7388   21.0901 C   0  0  0  0  0  0  0  0  0  0  0  0
   12.5916   61.1791   17.5645 C   0  0  0  0  0  0  0  0  0  0  0  0
   13.7370   62.0863   18.0648 C   0  0  1  0  0  0  0  0  0  0  0  0
   14.9022   61.2804   18.3289 O   0  0  0  0  0  0  0  0  0  0  0  0
   14.1133   63.2262   17.0800 C   0  0  1  0  0  0  0  0  0  0  0  0
   14.9770   64.1445   17.7903 N   0  0  0  0  0  0  0  0  0  0  0  0
   14.6231   65.4099   18.1129 C   0  0  0  0  0  0  0  0  0  0  0  0
   13.5794   65.9820   17.8559 O   0  0  0  0  0  0  0  0  0  0  0  0
   15.6817   65.9624   18.7670 O   0  0  0  0  0  0  0  0  0  0  0  0
   15.6565   67.3654   19.0173 C   0  0  1  0  0  0  0  0  0  0  0  0
   16.2507   67.5649   20.4019 C   0  0  0  0  0  0  0  0  0  0  0  0
   17.6769   67.4972   20.2280 O   0  0  0  0  0  0  0  0  0  0  0  0
   17.9683   67.9573   18.9097 C   0  0  1  0  0  0  0  0  0  0  0  0
   18.8169   67.0606   18.1877 O   0  0  0  0  0  0  0  0  0  0  0  0
   18.0657   66.5521   17.0843 C   0  0  0  0  0  0  0  0  0  0  0  0
   17.0136   67.5955   16.7798 C   0  0  0  0  0  0  0  0  0  0  0  0
   16.6628   68.1130   18.1500 C   0  0  1  0  0  0  0  0  0  0  0  0
   14.8307   62.7496   15.7865 C   0  0  0  0  0  0  0  0  0  0  0  0
   16.5938   64.3160   14.7870 C   0  0  0  0  0  0  0  0  0  0  0  0
   16.9388   65.4175   13.9903 C   0  0  0  0  0  0  0  0  0  0  0  0
   15.9473   66.1250   13.3120 C   0  0  0  0  0  0  0  0  0  0  0  0
   14.6177   65.7314   13.4227 C   0  0  0  0  0  0  0  0  0  0  0  0
   14.2777   64.6340   14.2130 C   0  0  0  0  0  0  0  0  0  0  0  0
   15.2545   63.9086   14.9025 C   0  0  0  0  0  0  0  0  0  0  0  0
    8.7697   56.6022   13.5788 H   0  0  0  0  0  0  0  0  0  0  0  0
    7.1979   56.9677   14.2768 H   0  0  0  0  0  0  0  0  0  0  0  0
   10.5962   57.9628   13.7123 H   0  0  0  0  0  0  0  0  0  0  0  0
   11.6237   60.0577   14.4898 H   0  0  0  0  0  0  0  0  0  0  0  0
    7.8508   61.2175   16.3004 H   0  0  0  0  0  0  0  0  0  0  0  0
    6.8184   59.0894   15.5157 H   0  0  0  0  0  0  0  0  0  0  0  0
   10.1479   60.5129   18.7231 H   0  0  0  0  0  0  0  0  0  0  0  0
    9.3463   62.0433   18.3737 H   0  0  0  0  0  0  0  0  0  0  0  0
   11.8005   61.8387   20.1964 H   0  0  0  0  0  0  0  0  0  0  0  0
   11.1322   64.1617   20.7844 H   0  0  0  0  0  0  0  0  0  0  0  0
    9.7696   64.0619   19.6474 H   0  0  0  0  0  0  0  0  0  0  0  0
   11.4354   64.0289   19.0424 H   0  0  0  0  0  0  0  0  0  0  0  0
    9.8907   60.6484   21.1859 H   0  0  0  0  0  0  0  0  0  0  0  0
    8.8438   62.0550   20.8967 H   0  0  0  0  0  0  0  0  0  0  0  0
   10.1942   62.1716   22.0453 H   0  0  0  0  0  0  0  0  0  0  0  0
   12.8596   60.8418   16.5608 H   0  0  0  0  0  0  0  0  0  0  0  0
   12.5468   60.2701   18.1748 H   0  0  0  0  0  0  0  0  0  0  0  0
   13.4644   62.5340   19.0309 H   0  0  0  0  0  0  0  0  0  0  0  0
   15.1782   60.8730   17.4913 H   0  0  0  0  0  0  0  0  0  0  0  0
   13.1930   63.7510   16.7969 H   0  0  0  0  0  0  0  0  0  0  0  0
   15.9014   63.8270   18.0582 H   0  0  0  0  0  0  0  0  0  0  0  0
   14.6426   67.7675   18.9317 H   0  0  0  0  0  0  0  0  0  0  0  0
   15.9508   66.7870   21.1096 H   0  0  0  0  0  0  0  0  0  0  0  0
   16.0132   68.5492   20.8218 H   0  0  0  0  0  0  0  0  0  0  0  0
   18.4699   68.9242   18.9703 H   0  0  0  0  0  0  0  0  0  0  0  0
   17.6087   65.6113   17.3984 H   0  0  0  0  0  0  0  0  0  0  0  0
   18.7284   66.3468   16.2404 H   0  0  0  0  0  0  0  0  0  0  0  0
   16.1586   67.2024   16.2325 H   0  0  0  0  0  0  0  0  0  0  0  0
   17.4588   68.4052   16.1800 H   0  0  0  0  0  0  0  0  0  0  0  0
   16.3823   69.1708   18.1116 H   0  0  0  0  0  0  0  0  0  0  0  0
   14.1734   62.0853   15.2074 H   0  0  0  0  0  0  0  0  0  0  0  0
   15.7113   62.1434   16.0323 H   0  0  0  0  0  0  0  0  0  0  0  0
   17.3736   63.7863   15.3288 H   0  0  0  0  0  0  0  0  0  0  0  0
   17.9758   65.7435   13.9027 H   0  0  0  0  0  0  0  0  0  0  0  0
   16.2020   66.9843   12.6977 H   0  0  0  0  0  0  0  0  0  0  0  0
   13.8384   66.2731   12.8924 H   0  0  0  0  0  0  0  0  0  0  0  0
   13.2322   64.3480   14.2953 H   0  0  0  0  0  0  0  0  0  0  0  0
  1  2  1  0  0  0  0
  1 39  1  0  0  0  0
  1 40  1  0  0  0  0
  2  3  2  0  0  0  0
  2  7  1  0  0  0  0
  3  4  1  0  0  0  0
  3 41  1  0  0  0  0
  4  5  2  0  0  0  0
  4 42  1  0  0  0  0
  5  6  1  0  0  0  0
  5  8  1  0  0  0  0
  6  7  2  0  0  0  0
  6 43  1  0  0  0  0
  7 44  1  0  0  0  0
  8  9  2  0  0  0  0
  8 10  2  0  0  0  0
  8 11  1  0  0  0  0
 11 12  1  0  0  0  0
 11 16  1  0  0  0  0
 12 13  1  0  0  0  0
 12 45  1  0  0  0  0
 12 46  1  0  0  0  0
 13 14  1  0  0  0  0
 13 15  1  0  0  0  0
 13 47  1  0  0  0  0
 14 48  1  0  0  0  0
 14 49  1  0  0  0  0
 14 50  1  0  0  0  0
 15 51  1  0  0  0  0
 15 52  1  0  0  0  0
 15 53  1  0  0  0  0
 16 17  1  0  0  0  0
 16 54  1  0  0  0  0
 16 55  1  0  0  0  0
 17 18  1  0  0  0  0
 17 19  1  0  0  0  0
 17 56  1  1  0  0  0
 18 57  1  0  0  0  0
 19 20  1  0  0  0  0
 19 32  1  0  0  0  0
 19 58  1  6  0  0  0
 20 21  1  0  0  0  0
 20 59  1  0  0  0  0
 21 22  2  0  0  0  0
 21 23  1  0  0  0  0
 23 24  1  0  0  0  0
 24 25  1  0  0  0  0
 24 31  1  0  0  0  0
 24 60  1  6  0  0  0
 25 26  1  0  0  0  0
 25 61  1  0  0  0  0
 25 62  1  0  0  0  0
 26 27  1  0  0  0  0
 27 28  1  0  0  0  0
 27 31  1  0  0  0  0
 27 63  1  1  0  0  0
 28 29  1  0  0  0  0
 29 30  1  0  0  0  0
 29 64  1  0  0  0  0
 29 65  1  0  0  0  0
 30 31  1  0  0  0  0
 30 66  1  0  0  0  0
 30 67  1  0  0  0  0
 31 68  1  6  0  0  0
 32 38  1  0  0  0  0
 32 69  1  0  0  0  0
 32 70  1  0  0  0  0
 33 34  2  0  0  0  0
 33 38  1  0  0  0  0
 33 71  1  0  0  0  0
 34 35  1  0  0  0  0
 34 72  1  0  0  0  0
 35 36  2  0  0  0  0
 35 73  1  0  0  0  0
 36 37  1  0  0  0  0
 36 74  1  0  0  0  0
 37 38  2  0  0  0  0
 37 75  1  0  0  0  0
M  END
$$$$
