01G
 OpenBabel04051919193D

 57 60  0  0  1  0  0  0  0  0999 V2000
   -8.7510   -2.9022   14.4176 C   0  0  0  0  0  0  0  0  0  0  0  0
  -10.1816   -3.4155   14.2514 C   0  0  0  0  0  0  0  0  0  0  0  0
  -11.0584   -2.8890   15.2739 O   0  0  0  0  0  0  0  0  0  0  0  0
  -10.6014   -3.2729   16.5704 C   0  0  0  0  0  0  0  0  0  0  0  0
   -9.1414   -2.8959   16.8434 C   0  0  0  0  0  0  0  0  0  0  0  0
   -8.2495   -3.3498   15.7561 N   0  0  0  0  0  0  0  0  0  0  0  0
   -6.9430   -3.0323   15.9501 C   0  0  0  0  0  0  0  0  0  0  0  0
   -6.5116   -2.0146   16.6682 N   0  0  0  0  0  0  0  0  0  0  0  0
   -5.1610   -2.1381   16.6717 C   0  0  0  0  0  0  0  0  0  0  0  0
   -4.1611   -1.3017   17.3061 C   0  0  0  0  0  0  0  0  0  0  0  0
   -4.3865   -0.2667   17.9392 O   0  0  0  0  0  0  0  0  0  0  0  0
   -2.8770   -1.8090   17.2101 N   0  3  0  0  0  0  0  0  0  0  0  0
   -2.5251   -2.9982   16.6071 C   0  0  0  0  0  0  0  0  0  0  0  0
   -1.2698   -3.2873   16.6652 N   0  0  0  0  0  0  0  0  0  0  0  0
   -3.4856   -3.7316   16.0231 N   0  3  0  0  0  0  0  0  0  0  0  0
   -4.7763   -3.2920   16.0557 C   0  0  0  0  0  0  0  0  0  0  0  0
   -5.9013   -3.8465   15.5238 N   0  3  0  0  0  0  0  0  0  0  0  0
   -5.9038   -5.1092   14.8217 C   0  0  2  0  0  0  0  0  0  0  0  0
   -5.7583   -4.9036   13.4191 O   0  0  0  0  0  0  0  0  0  0  0  0
   -7.0208   -6.1065   15.0853 C   0  0  2  0  0  0  0  0  0  0  0  0
   -6.4457   -7.3345   15.6057 O   0  0  0  0  0  0  0  0  0  0  0  0
   -7.6480   -6.2893   13.7060 C   0  0  2  0  0  0  0  0  0  0  0  0
   -8.1226   -7.6278   13.5365 O   0  0  0  0  0  0  0  0  0  0  0  0
   -6.5338   -5.9042   12.7345 C   0  0  1  0  0  0  0  0  0  0  0  0
   -7.0330   -5.4015   11.3695 C   0  0  0  0  0  0  0  0  0  0  0  0
   -7.9072   -4.3031   11.5386 O   0  0  0  0  0  0  0  0  0  0  0  0
   -7.4692   -2.8475   10.8934 P   0  0  1  0  0  0  0  0  0  0  0  0
   -8.2957   -1.8828   11.7247 O   0  0  0  0  0  0  0  0  0  0  0  0
   -5.9565   -2.8233   10.9913 O   0  0  0  0  0  0  0  0  0  0  0  0
   -8.0461   -3.0684    9.4166 O   0  0  0  0  0  0  0  0  0  0  0  0
   -7.5271   -2.3026    8.0878 P   0  0  1  0  0  0  0  0  0  0  0  0
   -7.3426   -0.8233    8.3570 O   0  0  0  0  0  0  0  0  0  0  0  0
   -6.2968   -3.0860    7.6067 O   0  0  0  0  0  0  0  0  0  0  0  0
   -8.7189   -2.6379    7.0596 O   0  0  0  0  0  0  0  0  0  0  0  0
  -10.0348   -1.8614    6.5353 P   0  0  0  0  0  0  0  0  0  0  0  0
  -10.6050   -1.0323    7.6770 O   0  0  0  0  0  0  0  0  0  0  0  0
   -9.6073   -1.0483    5.3081 O   0  0  0  0  0  0  0  0  0  0  0  0
  -11.0006   -2.9878    6.1277 O   0  0  0  0  0  0  0  0  0  0  0  0
   -8.7128   -1.8104   14.3086 H   0  0  0  0  0  0  0  0  0  0  0  0
   -8.1136   -3.3539   13.6637 H   0  0  0  0  0  0  0  0  0  0  0  0
  -10.1947   -4.5080   14.3450 H   0  0  0  0  0  0  0  0  0  0  0  0
  -10.5811   -3.1527   13.2699 H   0  0  0  0  0  0  0  0  0  0  0  0
  -10.7448   -4.3529   16.6896 H   0  0  0  0  0  0  0  0  0  0  0  0
  -11.2476   -2.7798   17.3054 H   0  0  0  0  0  0  0  0  0  0  0  0
   -8.8354   -3.4091   17.7647 H   0  0  0  0  0  0  0  0  0  0  0  0
   -9.0697   -1.8150   17.0247 H   0  0  0  0  0  0  0  0  0  0  0  0
   -2.1297   -1.2682   17.5961 H   0  0  0  0  0  0  0  0  0  0  0  0
   -1.1320   -4.1465   16.1460 H   0  0  0  0  0  0  0  0  0  0  0  0
   -3.2398   -4.5542   15.4696 H   0  0  0  0  0  0  0  0  0  0  0  0
   -4.9750   -5.6125   15.1187 H   0  0  0  0  0  0  0  0  0  0  0  0
   -7.7434   -5.7942   15.8389 H   0  0  0  0  0  0  0  0  0  0  0  0
   -7.1646   -7.9877   15.6162 H   0  0  0  0  0  0  0  0  0  0  0  0
   -8.4863   -5.6016   13.5944 H   0  0  0  0  0  0  0  0  0  0  0  0
   -8.9084   -7.7088   14.0998 H   0  0  0  0  0  0  0  0  0  0  0  0
   -5.8784   -6.7678   12.5686 H   0  0  0  0  0  0  0  0  0  0  0  0
   -7.6027   -6.1905   10.8701 H   0  0  0  0  0  0  0  0  0  0  0  0
   -6.1821   -5.1491   10.7321 H   0  0  0  0  0  0  0  0  0  0  0  0
  1  2  1  0  0  0  0
  1  6  1  0  0  0  0
  1 39  1  0  0  0  0
  1 40  1  0  0  0  0
  2  3  1  0  0  0  0
  2 41  1  0  0  0  0
  2 42  1  0  0  0  0
  3  4  1  0  0  0  0
  4  5  1  0  0  0  0
  4 43  1  0  0  0  0
  4 44  1  0  0  0  0
  5  6  1  0  0  0  0
  5 45  1  0  0  0  0
  5 46  1  0  0  0  0
  6  7  1  0  0  0  0
  7  8  1  0  0  0  0
  7 17  2  0  0  0  0
  8  9  2  0  0  0  0
  9 10  1  0  0  0  0
  9 16  1  0  0  0  0
 10 11  2  0  0  0  0
 10 12  1  0  0  0  0
 12 13  1  0  0  0  0
 12 47  1  0  0  0  0
 13 14  2  0  0  0  0
 13 15  1  0  0  0  0
 14 48  1  0  0  0  0
 15 16  2  0  0  0  0
 15 49  1  0  0  0  0
 16 17  1  0  0  0  0
 17 18  1  0  0  0  0
 18 19  1  0  0  0  0
 18 20  1  0  0  0  0
 18 50  1  1  0  0  0
 19 24  1  0  0  0  0
 20 21  1  0  0  0  0
 20 22  1  0  0  0  0
 20 51  1  1  0  0  0
 21 52  1  0  0  0  0
 22 23  1  0  0  0  0
 22 24  1  0  0  0  0
 22 53  1  6  0  0  0
 23 54  1  0  0  0  0
 24 25  1  0  0  0  0
 24 55  1  6  0  0  0
 25 26  1  0  0  0  0
 25 56  1  0  0  0  0
 25 57  1  0  0  0  0
 27 26  1  1  0  0  0
 27 28  2  0  0  0  0
 27 29  1  0  0  0  0
 27 30  1  0  0  0  0
 31 30  1  1  0  0  0
 31 32  2  0  0  0  0
 31 33  1  0  0  0  0
 31 34  1  0  0  0  0
 34 35  1  0  0  0  0
 35 36  2  0  0  0  0
 35 37  1  0  0  0  0
 35 38  1  0  0  0  0
M  CHG  3  12   1  15   1  17   1
M  END
$$$$
