024
 OpenBabel04051919003D

 45 47  0  0  0  0  0  0  0  0999 V2000
   44.8402   14.0882    0.5107 S   0  0  0  0  0  0  0  0  0  0  0  0
   44.8878   15.4651    1.5482 C   0  0  0  0  0  0  0  0  0  0  0  0
   45.7250   15.2305    2.6225 C   0  0  0  0  0  0  0  0  0  0  0  0
   46.2278   13.8830    2.6266 C   0  0  0  0  0  0  0  0  0  0  0  0
   45.8005   13.1101    1.5545 C   0  0  0  0  0  0  0  0  0  0  0  0
   44.0914   16.6862    1.2284 C   0  0  0  0  0  0  0  0  0  0  0  0
   43.4036   16.6487    0.1503 O   0  0  0  0  0  0  0  0  0  0  0  0
   44.1131   17.6816    2.0221 O   0  0  0  0  0  0  0  0  0  0  0  0
   46.0189   11.6884    1.1902 C   0  0  0  0  0  0  0  0  0  0  0  0
   47.2545   11.0553    1.3910 C   0  0  0  0  0  0  0  0  0  0  0  0
   47.4793    9.6955    1.0946 C   0  0  0  0  0  0  0  0  0  0  0  0
   46.4271    8.9541    0.5720 C   0  0  0  0  0  0  0  0  0  0  0  0
   45.1979    9.5650    0.3045 C   0  0  0  0  0  0  0  0  0  0  0  0
   44.9939   10.9119    0.6223 C   0  0  0  0  0  0  0  0  0  0  0  0
   47.3081   13.2724    4.0723 Br  0  0  0  0  0  0  0  0  0  0  0  0
   45.9450   16.1171    3.6322 O   0  0  0  0  0  0  0  0  0  0  0  0
   47.1459   16.8896    3.4239 C   0  0  0  0  0  0  0  0  0  0  0  0
   47.6767   17.5309    4.7330 C   0  0  0  0  0  0  0  0  0  0  0  0
   47.0057   17.4016    5.7968 O   0  0  0  0  0  0  0  0  0  0  0  0
   48.8107   18.1022    4.6044 O   0  0  0  0  0  0  0  0  0  0  0  0
   48.7233    9.1712    1.3855 N   0  0  0  0  0  0  0  0  0  0  0  0
   49.0646    7.8250    1.8254 C   0  0  0  0  0  0  0  0  0  0  0  0
   50.5982    7.7793    2.0088 C   0  0  0  0  0  0  0  0  0  0  0  0
   51.0944    6.4475    2.5608 C   0  0  0  0  0  0  0  0  0  0  0  0
   50.3950    6.0820    3.8666 C   0  0  0  0  0  0  0  0  0  0  0  0
   48.8742    6.1390    3.7286 C   0  0  0  0  0  0  0  0  0  0  0  0
   48.3903    7.4761    3.1635 C   0  0  0  0  0  0  0  0  0  0  0  0
   48.0800   11.6311    1.8083 H   0  0  0  0  0  0  0  0  0  0  0  0
   46.5579    7.9062    0.3158 H   0  0  0  0  0  0  0  0  0  0  0  0
   44.3930    9.0004   -0.1556 H   0  0  0  0  0  0  0  0  0  0  0  0
   44.0194   11.3503    0.4227 H   0  0  0  0  0  0  0  0  0  0  0  0
   46.9431   17.6875    2.7007 H   0  0  0  0  0  0  0  0  0  0  0  0
   47.9541   16.2557    3.0339 H   0  0  0  0  0  0  0  0  0  0  0  0
   49.4900    9.8180    1.2370 H   0  0  0  0  0  0  0  0  0  0  0  0
   48.7783    7.0954    1.0597 H   0  0  0  0  0  0  0  0  0  0  0  0
   50.9082    8.5820    2.6936 H   0  0  0  0  0  0  0  0  0  0  0  0
   51.0951    7.9849    1.0527 H   0  0  0  0  0  0  0  0  0  0  0  0
   52.1745    6.5035    2.7321 H   0  0  0  0  0  0  0  0  0  0  0  0
   50.9261    5.6590    1.8203 H   0  0  0  0  0  0  0  0  0  0  0  0
   50.7181    6.7673    4.6593 H   0  0  0  0  0  0  0  0  0  0  0  0
   50.7003    5.0764    4.1763 H   0  0  0  0  0  0  0  0  0  0  0  0
   48.4211    5.9722    4.7145 H   0  0  0  0  0  0  0  0  0  0  0  0
   48.5394    5.3236    3.0818 H   0  0  0  0  0  0  0  0  0  0  0  0
   47.3020    7.4341    3.0419 H   0  0  0  0  0  0  0  0  0  0  0  0
   48.5884    8.2691    3.8975 H   0  0  0  0  0  0  0  0  0  0  0  0
  1  2  1  0  0  0  0
  1  5  1  0  0  0  0
  2  3  2  0  0  0  0
  2  6  1  0  0  0  0
  3  4  1  0  0  0  0
  3 16  1  0  0  0  0
  4  5  2  0  0  0  0
  4 15  1  0  0  0  0
  5  9  1  0  0  0  0
  6  7  2  0  0  0  0
  6  8  1  0  0  0  0
  9 10  2  0  0  0  0
  9 14  1  0  0  0  0
 10 11  1  0  0  0  0
 10 28  1  0  0  0  0
 11 12  2  0  0  0  0
 11 21  1  0  0  0  0
 12 13  1  0  0  0  0
 12 29  1  0  0  0  0
 13 14  2  0  0  0  0
 13 30  1  0  0  0  0
 14 31  1  0  0  0  0
 16 17  1  0  0  0  0
 17 18  1  0  0  0  0
 17 32  1  0  0  0  0
 17 33  1  0  0  0  0
 18 19  2  0  0  0  0
 18 20  1  0  0  0  0
 21 22  1  0  0  0  0
 21 34  1  0  0  0  0
 22 23  1  0  0  0  0
 22 27  1  0  0  0  0
 22 35  1  0  0  0  0
 23 24  1  0  0  0  0
 23 36  1  0  0  0  0
 23 37  1  0  0  0  0
 24 25  1  0  0  0  0
 24 38  1  0  0  0  0
 24 39  1  0  0  0  0
 25 26  1  0  0  0  0
 25 40  1  0  0  0  0
 25 41  1  0  0  0  0
 26 27  1  0  0  0  0
 26 42  1  0  0  0  0
 26 43  1  0  0  0  0
 27 44  1  0  0  0  0
 27 45  1  0  0  0  0
M  END
$$$$
