065
 OpenBabel04051919013D

 76 80  0  0  1  0  0  0  0  0999 V2000
   20.7212   27.7120   14.8586 C   0  0  0  0  0  0  0  0  0  0  0  0
   21.5428   28.7863   14.6917 O   0  0  0  0  0  0  0  0  0  0  0  0
   22.8094   28.2539   15.1424 C   0  0  0  0  0  0  0  0  0  0  0  0
   22.6929   26.8906   15.6162 O   0  0  0  0  0  0  0  0  0  0  0  0
   21.3706   26.6365   15.4127 C   0  0  0  0  0  0  0  0  0  0  0  0
   20.7042   25.4574   15.6992 C   0  0  0  0  0  0  0  0  0  0  0  0
   19.3312   25.3981   15.4280 C   0  0  0  0  0  0  0  0  0  0  0  0
   18.6855   26.4682   14.7936 C   0  0  0  0  0  0  0  0  0  0  0  0
   19.3832   27.6494   14.5173 C   0  0  0  0  0  0  0  0  0  0  0  0
   18.4166   23.9318   15.8605 S   0  0  0  0  0  0  0  0  0  0  0  0
   17.2955   23.8219   14.9369 O   0  0  0  0  0  0  0  0  0  0  0  0
   19.3586   22.8606   16.0197 O   0  0  0  0  0  0  0  0  0  0  0  0
   17.7746   24.2246   17.3914 N   0  0  0  0  0  0  0  0  0  0  0  0
   18.7455   24.4701   18.4665 C   0  0  0  0  0  0  0  0  0  0  0  0
   18.3298   23.8930   19.8162 C   0  0  0  0  0  0  0  0  0  0  0  0
   18.2064   22.3774   19.7581 C   0  0  0  0  0  0  0  0  0  0  0  0
   19.3920   24.2805   20.8424 C   0  0  0  0  0  0  0  0  0  0  0  0
   16.5198   24.9758   17.4548 C   0  0  0  0  0  0  0  0  0  0  0  0
   15.3826   24.0869   17.9593 C   0  0  1  0  0  0  0  0  0  0  0  0
   14.2217   24.8746   18.2732 O   0  0  0  0  0  0  0  0  0  0  0  0
   14.9923   22.9393   17.0151 C   0  0  1  0  0  0  0  0  0  0  0  0
   14.1219   22.0489   17.7725 N   0  0  0  0  0  0  0  0  0  0  0  0
   14.4515   20.7745   18.0916 C   0  0  0  0  0  0  0  0  0  0  0  0
   15.4815   20.2301   17.8208 O   0  0  0  0  0  0  0  0  0  0  0  0
   13.4201   20.1988   18.7554 O   0  0  0  0  0  0  0  0  0  0  0  0
   13.5853   18.7933   19.0345 C   0  0  1  0  0  0  0  0  0  0  0  0
   13.0293   18.5855   20.4275 C   0  0  0  0  0  0  0  0  0  0  0  0
   11.6040   18.5638   20.2735 O   0  0  0  0  0  0  0  0  0  0  0  0
   11.3267   18.0065   18.9842 C   0  0  1  0  0  0  0  0  0  0  0  0
   10.3852   18.8252   18.2911 O   0  0  0  0  0  0  0  0  0  0  0  0
   11.0623   19.4427   17.1935 C   0  0  0  0  0  0  0  0  0  0  0  0
   12.2317   18.5465   16.8434 C   0  0  0  0  0  0  0  0  0  0  0  0
   12.6250   17.9707   18.1822 C   0  0  1  0  0  0  0  0  0  0  0  0
   14.2245   23.3953   15.7686 C   0  0  0  0  0  0  0  0  0  0  0  0
   12.5671   21.7673   14.7470 C   0  0  0  0  0  0  0  0  0  0  0  0
   12.2543   20.6513   13.9613 C   0  0  0  0  0  0  0  0  0  0  0  0
   13.2582   19.9648   13.3033 C   0  0  0  0  0  0  0  0  0  0  0  0
   14.5686   20.4093   13.4341 C   0  0  0  0  0  0  0  0  0  0  0  0
   14.8794   21.5282   14.2099 C   0  0  0  0  0  0  0  0  0  0  0  0
   13.8798   22.2215   14.8825 C   0  0  0  0  0  0  0  0  0  0  0  0
   23.1983   28.8849   15.9606 H   0  0  0  0  0  0  0  0  0  0  0  0
   23.5292   28.2881   14.3059 H   0  0  0  0  0  0  0  0  0  0  0  0
   21.2064   24.5986   16.1330 H   0  0  0  0  0  0  0  0  0  0  0  0
   17.6339   26.3843   14.5291 H   0  0  0  0  0  0  0  0  0  0  0  0
   18.8746   28.4840   14.0471 H   0  0  0  0  0  0  0  0  0  0  0  0
   18.8751   25.5507   18.5603 H   0  0  0  0  0  0  0  0  0  0  0  0
   19.6987   24.0207   18.1753 H   0  0  0  0  0  0  0  0  0  0  0  0
   17.3674   24.3109   20.1294 H   0  0  0  0  0  0  0  0  0  0  0  0
   17.9180   21.9828   20.7392 H   0  0  0  0  0  0  0  0  0  0  0  0
   19.1634   21.9321   19.4651 H   0  0  0  0  0  0  0  0  0  0  0  0
   17.4461   22.0889   19.0277 H   0  0  0  0  0  0  0  0  0  0  0  0
   19.4861   25.3717   20.8914 H   0  0  0  0  0  0  0  0  0  0  0  0
   20.3666   23.8608   20.5587 H   0  0  0  0  0  0  0  0  0  0  0  0
   19.1263   23.9059   21.8364 H   0  0  0  0  0  0  0  0  0  0  0  0
   16.2706   25.3595   16.4652 H   0  0  0  0  0  0  0  0  0  0  0  0
   16.6414   25.8295   18.1251 H   0  0  0  0  0  0  0  0  0  0  0  0
   15.7055   23.6370   18.9009 H   0  0  0  0  0  0  0  0  0  0  0  0
   13.9297   25.3243   17.4642 H   0  0  0  0  0  0  0  0  0  0  0  0
   15.9013   22.4139   16.7123 H   0  0  0  0  0  0  0  0  0  0  0  0
   13.2287   22.3992   18.0649 H   0  0  0  0  0  0  0  0  0  0  0  0
   14.6348   18.4707   18.9412 H   0  0  0  0  0  0  0  0  0  0  0  0
   13.3057   19.3961   21.1074 H   0  0  0  0  0  0  0  0  0  0  0  0
   13.3398   17.6255   20.8514 H   0  0  0  0  0  0  0  0  0  0  0  0
   10.9128   16.9961   19.1069 H   0  0  0  0  0  0  0  0  0  0  0  0
   11.4050   20.4376   17.5009 H   0  0  0  0  0  0  0  0  0  0  0  0
   10.3612   19.5564   16.3642 H   0  0  0  0  0  0  0  0  0  0  0  0
   13.0439   19.0992   16.3697 H   0  0  0  0  0  0  0  0  0  0  0  0
   11.9131   17.7499   16.1530 H   0  0  0  0  0  0  0  0  0  0  0  0
   13.0081   16.9491   18.0800 H   0  0  0  0  0  0  0  0  0  0  0  0
   14.8265   24.1098   15.2007 H   0  0  0  0  0  0  0  0  0  0  0  0
   13.2980   23.9036   16.0727 H   0  0  0  0  0  0  0  0  0  0  0  0
   11.7666   22.2801   15.2589 H   0  0  0  0  0  0  0  0  0  0  0  0
   11.2253   20.3198   13.8707 H   0  0  0  0  0  0  0  0  0  0  0  0
   13.0299   19.0963   12.6923 H   0  0  0  0  0  0  0  0  0  0  0  0
   15.3604   19.8797   12.9271 H   0  0  0  0  0  0  0  0  0  0  0  0
   15.9126   21.8515   14.2839 H   0  0  0  0  0  0  0  0  0  0  0  0
  1  2  1  0  0  0  0
  1  5  2  0  0  0  0
  1  9  1  0  0  0  0
  2  3  1  0  0  0  0
  3  4  1  0  0  0  0
  3 41  1  0  0  0  0
  3 42  1  0  0  0  0
  4  5  1  0  0  0  0
  5  6  1  0  0  0  0
  6  7  2  0  0  0  0
  6 43  1  0  0  0  0
  7  8  1  0  0  0  0
  7 10  1  0  0  0  0
  8  9  2  0  0  0  0
  8 44  1  0  0  0  0
  9 45  1  0  0  0  0
 10 11  2  0  0  0  0
 10 12  2  0  0  0  0
 10 13  1  0  0  0  0
 13 14  1  0  0  0  0
 13 18  1  0  0  0  0
 14 15  1  0  0  0  0
 14 46  1  0  0  0  0
 14 47  1  0  0  0  0
 15 16  1  0  0  0  0
 15 17  1  0  0  0  0
 15 48  1  0  0  0  0
 16 49  1  0  0  0  0
 16 50  1  0  0  0  0
 16 51  1  0  0  0  0
 17 52  1  0  0  0  0
 17 53  1  0  0  0  0
 17 54  1  0  0  0  0
 18 19  1  0  0  0  0
 18 55  1  0  0  0  0
 18 56  1  0  0  0  0
 19 20  1  0  0  0  0
 19 21  1  0  0  0  0
 19 57  1  1  0  0  0
 20 58  1  0  0  0  0
 21 22  1  0  0  0  0
 21 34  1  0  0  0  0
 21 59  1  6  0  0  0
 22 23  1  0  0  0  0
 22 60  1  0  0  0  0
 23 24  2  0  0  0  0
 23 25  1  0  0  0  0
 25 26  1  0  0  0  0
 26 27  1  0  0  0  0
 26 33  1  0  0  0  0
 26 61  1  6  0  0  0
 27 28  1  0  0  0  0
 27 62  1  0  0  0  0
 27 63  1  0  0  0  0
 28 29  1  0  0  0  0
 29 30  1  0  0  0  0
 29 33  1  0  0  0  0
 29 64  1  1  0  0  0
 30 31  1  0  0  0  0
 31 32  1  0  0  0  0
 31 65  1  0  0  0  0
 31 66  1  0  0  0  0
 32 33  1  0  0  0  0
 32 67  1  0  0  0  0
 32 68  1  0  0  0  0
 33 69  1  6  0  0  0
 34 40  1  0  0  0  0
 34 70  1  0  0  0  0
 34 71  1  0  0  0  0
 35 36  2  0  0  0  0
 35 40  1  0  0  0  0
 35 72  1  0  0  0  0
 36 37  1  0  0  0  0
 36 73  1  0  0  0  0
 37 38  2  0  0  0  0
 37 74  1  0  0  0  0
 38 39  1  0  0  0  0
 38 75  1  0  0  0  0
 39 40  2  0  0  0  0
 39 76  1  0  0  0  0
M  END
$$$$
