065
 OpenBabel04051920493D

 76 80  0  0  1  0  0  0  0  0999 V2000
   20.8060   27.5874   14.9650 C   0  0  0  0  0  0  0  0  0  0  0  0
   21.6588   28.6236   14.7406 O   0  0  0  0  0  0  0  0  0  0  0  0
   22.8803   28.1084   15.3170 C   0  0  0  0  0  0  0  0  0  0  0  0
   22.7476   26.7619   15.8165 O   0  0  0  0  0  0  0  0  0  0  0  0
   21.4306   26.5284   15.5790 C   0  0  0  0  0  0  0  0  0  0  0  0
   20.7518   25.3761   15.8990 C   0  0  0  0  0  0  0  0  0  0  0  0
   19.3866   25.3224   15.5971 C   0  0  0  0  0  0  0  0  0  0  0  0
   18.7369   26.3951   14.9556 C   0  0  0  0  0  0  0  0  0  0  0  0
   19.4636   27.5493   14.6343 C   0  0  0  0  0  0  0  0  0  0  0  0
   18.5074   23.8230   15.9754 S   0  0  0  0  0  0  0  0  0  0  0  0
   17.4323   23.6980   15.0139 O   0  0  0  0  0  0  0  0  0  0  0  0
   19.4850   22.7732   16.1411 O   0  0  0  0  0  0  0  0  0  0  0  0
   17.8260   24.1517   17.5023 N   0  0  0  0  0  0  0  0  0  0  0  0
   18.7822   24.4961   18.5854 C   0  0  0  0  0  0  0  0  0  0  0  0
   18.4167   23.8662   19.9342 C   0  0  0  0  0  0  0  0  0  0  0  0
   18.3364   22.3418   19.8564 C   0  0  0  0  0  0  0  0  0  0  0  0
   19.4731   24.2640   20.9682 C   0  0  0  0  0  0  0  0  0  0  0  0
   16.5477   24.8984   17.5342 C   0  0  0  0  0  0  0  0  0  0  0  0
   15.4139   23.9985   18.0495 C   0  0  1  0  0  0  0  0  0  0  0  0
   14.2502   24.7910   18.3436 O   0  0  0  0  0  0  0  0  0  0  0  0
   15.0615   22.8185   17.1125 C   0  0  1  0  0  0  0  0  0  0  0  0
   14.1768   21.9266   17.8547 N   0  0  0  0  0  0  0  0  0  0  0  0
   14.5319   20.6676   18.2170 C   0  0  0  0  0  0  0  0  0  0  0  0
   15.5729   20.1164   17.9381 O   0  0  0  0  0  0  0  0  0  0  0  0
   13.5123   20.1134   18.9060 O   0  0  0  0  0  0  0  0  0  0  0  0
   13.5785   18.6945   19.0930 C   0  0  1  0  0  0  0  0  0  0  0  0
   13.0055   18.3839   20.4579 C   0  0  0  0  0  0  0  0  0  0  0  0
   11.5813   18.4361   20.2925 O   0  0  0  0  0  0  0  0  0  0  0  0
   11.2933   18.0018   18.9596 C   0  0  1  0  0  0  0  0  0  0  0  0
   10.4003   18.8952   18.2854 O   0  0  0  0  0  0  0  0  0  0  0  0
   11.1485   19.5930   17.2863 C   0  0  0  0  0  0  0  0  0  0  0  0
   12.2559   18.6436   16.8774 C   0  0  0  0  0  0  0  0  0  0  0  0
   12.6018   17.9636   18.1792 C   0  0  1  0  0  0  0  0  0  0  0  0
   14.3759   23.2522   15.8009 C   0  0  0  0  0  0  0  0  0  0  0  0
   12.6642   21.7189   14.7573 C   0  0  0  0  0  0  0  0  0  0  0  0
   12.3203   20.6077   13.9869 C   0  0  0  0  0  0  0  0  0  0  0  0
   13.3127   19.8599   13.3568 C   0  0  0  0  0  0  0  0  0  0  0  0
   14.6499   20.2241   13.4957 C   0  0  0  0  0  0  0  0  0  0  0  0
   14.9965   21.3287   14.2740 C   0  0  0  0  0  0  0  0  0  0  0  0
   14.0064   22.0847   14.9143 C   0  0  0  0  0  0  0  0  0  0  0  0
   23.1808   28.7592   16.1471 H   0  0  0  0  0  0  0  0  0  0  0  0
   23.6716   28.1295   14.5582 H   0  0  0  0  0  0  0  0  0  0  0  0
   21.2640   24.5449   16.3720 H   0  0  0  0  0  0  0  0  0  0  0  0
   17.6805   26.3364   14.7011 H   0  0  0  0  0  0  0  0  0  0  0  0
   18.9904   28.3883   14.1354 H   0  0  0  0  0  0  0  0  0  0  0  0
   18.8210   25.5883   18.6815 H   0  0  0  0  0  0  0  0  0  0  0  0
   19.7898   24.1653   18.3177 H   0  0  0  0  0  0  0  0  0  0  0  0
   17.4500   24.2537   20.2746 H   0  0  0  0  0  0  0  0  0  0  0  0
   18.1020   21.9198   20.8396 H   0  0  0  0  0  0  0  0  0  0  0  0
   19.2870   21.9136   19.5215 H   0  0  0  0  0  0  0  0  0  0  0  0
   17.5562   22.0154   19.1635 H   0  0  0  0  0  0  0  0  0  0  0  0
   19.5543   25.3533   21.0441 H   0  0  0  0  0  0  0  0  0  0  0  0
   20.4584   23.8699   20.6939 H   0  0  0  0  0  0  0  0  0  0  0  0
   19.2163   23.8732   21.9575 H   0  0  0  0  0  0  0  0  0  0  0  0
   16.2867   25.3032   16.5526 H   0  0  0  0  0  0  0  0  0  0  0  0
   16.6328   25.7808   18.1791 H   0  0  0  0  0  0  0  0  0  0  0  0
   15.7159   23.5760   19.0143 H   0  0  0  0  0  0  0  0  0  0  0  0
   13.9518   25.2247   17.5277 H   0  0  0  0  0  0  0  0  0  0  0  0
   15.9790   22.2643   16.8811 H   0  0  0  0  0  0  0  0  0  0  0  0
   13.2761   22.2652   18.1608 H   0  0  0  0  0  0  0  0  0  0  0  0
   14.6025   18.3208   18.9966 H   0  0  0  0  0  0  0  0  0  0  0  0
   13.3111   19.1016   21.2237 H   0  0  0  0  0  0  0  0  0  0  0  0
   13.2671   17.3695   20.7782 H   0  0  0  0  0  0  0  0  0  0  0  0
   10.8166   17.0182   19.0163 H   0  0  0  0  0  0  0  0  0  0  0  0
   11.5251   20.5169   17.7345 H   0  0  0  0  0  0  0  0  0  0  0  0
   10.5003   19.8785   16.4557 H   0  0  0  0  0  0  0  0  0  0  0  0
   13.1080   19.1311   16.4014 H   0  0  0  0  0  0  0  0  0  0  0  0
   11.8550   17.9065   16.1713 H   0  0  0  0  0  0  0  0  0  0  0  0
   12.9370   16.9298   18.0324 H   0  0  0  0  0  0  0  0  0  0  0  0
   15.0052   23.9380   15.2274 H   0  0  0  0  0  0  0  0  0  0  0  0
   13.4643   23.8167   16.0307 H   0  0  0  0  0  0  0  0  0  0  0  0
   11.8790   22.2842   15.2530 H   0  0  0  0  0  0  0  0  0  0  0  0
   11.2785   20.3135   13.8966 H   0  0  0  0  0  0  0  0  0  0  0  0
   13.0456   18.9912   12.7621 H   0  0  0  0  0  0  0  0  0  0  0  0
   15.4287   19.6451   13.0065 H   0  0  0  0  0  0  0  0  0  0  0  0
   16.0483   21.5845   14.3868 H   0  0  0  0  0  0  0  0  0  0  0  0
  1  2  1  0  0  0  0
  1  5  2  0  0  0  0
  1  9  1  0  0  0  0
  2  3  1  0  0  0  0
  3  4  1  0  0  0  0
  3 41  1  0  0  0  0
  3 42  1  0  0  0  0
  4  5  1  0  0  0  0
  5  6  1  0  0  0  0
  6  7  2  0  0  0  0
  6 43  1  0  0  0  0
  7  8  1  0  0  0  0
  7 10  1  0  0  0  0
  8  9  2  0  0  0  0
  8 44  1  0  0  0  0
  9 45  1  0  0  0  0
 10 11  2  0  0  0  0
 10 12  2  0  0  0  0
 10 13  1  0  0  0  0
 13 14  1  0  0  0  0
 13 18  1  0  0  0  0
 14 15  1  0  0  0  0
 14 46  1  0  0  0  0
 14 47  1  0  0  0  0
 15 16  1  0  0  0  0
 15 17  1  0  0  0  0
 15 48  1  0  0  0  0
 16 49  1  0  0  0  0
 16 50  1  0  0  0  0
 16 51  1  0  0  0  0
 17 52  1  0  0  0  0
 17 53  1  0  0  0  0
 17 54  1  0  0  0  0
 18 19  1  0  0  0  0
 18 55  1  0  0  0  0
 18 56  1  0  0  0  0
 19 20  1  0  0  0  0
 19 21  1  0  0  0  0
 19 57  1  1  0  0  0
 20 58  1  0  0  0  0
 21 22  1  0  0  0  0
 21 34  1  0  0  0  0
 21 59  1  6  0  0  0
 22 23  1  0  0  0  0
 22 60  1  0  0  0  0
 23 24  2  0  0  0  0
 23 25  1  0  0  0  0
 25 26  1  0  0  0  0
 26 27  1  0  0  0  0
 26 33  1  0  0  0  0
 26 61  1  6  0  0  0
 27 28  1  0  0  0  0
 27 62  1  0  0  0  0
 27 63  1  0  0  0  0
 28 29  1  0  0  0  0
 29 30  1  0  0  0  0
 29 33  1  0  0  0  0
 29 64  1  1  0  0  0
 30 31  1  0  0  0  0
 31 32  1  0  0  0  0
 31 65  1  0  0  0  0
 31 66  1  0  0  0  0
 32 33  1  0  0  0  0
 32 67  1  0  0  0  0
 32 68  1  0  0  0  0
 33 69  1  6  0  0  0
 34 40  1  0  0  0  0
 34 70  1  0  0  0  0
 34 71  1  0  0  0  0
 35 36  2  0  0  0  0
 35 40  1  0  0  0  0
 35 72  1  0  0  0  0
 36 37  1  0  0  0  0
 36 73  1  0  0  0  0
 37 38  2  0  0  0  0
 37 74  1  0  0  0  0
 38 39  1  0  0  0  0
 38 75  1  0  0  0  0
 39 40  2  0  0  0  0
 39 76  1  0  0  0  0
M  END
$$$$
