065
 OpenBabel04051919013D

 76 80  0  0  1  0  0  0  0  0999 V2000
   20.8408   27.7227   14.8761 C   0  0  0  0  0  0  0  0  0  0  0  0
   21.6493   28.8000   14.6859 O   0  0  0  0  0  0  0  0  0  0  0  0
   22.8789   28.3398   15.2917 C   0  0  0  0  0  0  0  0  0  0  0  0
   22.8115   26.9525   15.6952 O   0  0  0  0  0  0  0  0  0  0  0  0
   21.4957   26.6773   15.4851 C   0  0  0  0  0  0  0  0  0  0  0  0
   20.8514   25.4989   15.8128 C   0  0  0  0  0  0  0  0  0  0  0  0
   19.4855   25.4122   15.5365 C   0  0  0  0  0  0  0  0  0  0  0  0
   18.8178   26.4695   14.9053 C   0  0  0  0  0  0  0  0  0  0  0  0
   19.5034   27.6351   14.5492 C   0  0  0  0  0  0  0  0  0  0  0  0
   18.5931   23.9415   15.9667 S   0  0  0  0  0  0  0  0  0  0  0  0
   17.4865   23.8161   15.0356 O   0  0  0  0  0  0  0  0  0  0  0  0
   19.5506   22.8889   16.1526 O   0  0  0  0  0  0  0  0  0  0  0  0
   17.9338   24.2779   17.4792 N   0  0  0  0  0  0  0  0  0  0  0  0
   18.8855   24.6189   18.5450 C   0  0  0  0  0  0  0  0  0  0  0  0
   18.5541   23.9321   19.8648 C   0  0  0  0  0  0  0  0  0  0  0  0
   18.6017   22.4166   19.7088 C   0  0  0  0  0  0  0  0  0  0  0  0
   19.5739   24.3918   20.9025 C   0  0  0  0  0  0  0  0  0  0  0  0
   16.6579   24.9896   17.5226 C   0  0  0  0  0  0  0  0  0  0  0  0
   15.5466   24.0964   18.0611 C   0  0  1  0  0  0  0  0  0  0  0  0
   14.4006   24.9210   18.3617 O   0  0  0  0  0  0  0  0  0  0  0  0
   15.1393   22.9741   17.0931 C   0  0  1  0  0  0  0  0  0  0  0  0
   14.2267   22.1003   17.8212 N   0  0  0  0  0  0  0  0  0  0  0  0
   14.5675   20.8377   18.1828 C   0  0  0  0  0  0  0  0  0  0  0  0
   15.6055   20.3048   17.9262 O   0  0  0  0  0  0  0  0  0  0  0  0
   13.5384   20.2585   18.8516 O   0  0  0  0  0  0  0  0  0  0  0  0
   13.6856   18.8396   19.0966 C   0  0  1  0  0  0  0  0  0  0  0  0
   13.0655   18.5822   20.4515 C   0  0  0  0  0  0  0  0  0  0  0  0
   11.6483   18.5860   20.2289 O   0  0  0  0  0  0  0  0  0  0  0  0
   11.4261   18.0371   18.9286 C   0  0  1  0  0  0  0  0  0  0  0  0
   10.4933   18.8472   18.2110 O   0  0  0  0  0  0  0  0  0  0  0  0
   11.2029   19.5420   17.1823 C   0  0  0  0  0  0  0  0  0  0  0  0
   12.4227   18.7058   16.8619 C   0  0  0  0  0  0  0  0  0  0  0  0
   12.7572   18.0520   18.1785 C   0  0  1  0  0  0  0  0  0  0  0  0
   14.4050   23.4876   15.8456 C   0  0  0  0  0  0  0  0  0  0  0  0
   12.6724   21.9628   14.7922 C   0  0  0  0  0  0  0  0  0  0  0  0
   12.3080   20.8874   13.9746 C   0  0  0  0  0  0  0  0  0  0  0  0
   13.2882   20.1575   13.3225 C   0  0  0  0  0  0  0  0  0  0  0  0
   14.6197   20.5446   13.4563 C   0  0  0  0  0  0  0  0  0  0  0  0
   14.9828   21.6239   14.2625 C   0  0  0  0  0  0  0  0  0  0  0  0
   14.0085   22.3477   14.9429 C   0  0  0  0  0  0  0  0  0  0  0  0
   23.0945   28.9478   16.1870 H   0  0  0  0  0  0  0  0  0  0  0  0
   23.7034   28.4623   14.5734 H   0  0  0  0  0  0  0  0  0  0  0  0
   21.3659   24.6674   16.2838 H   0  0  0  0  0  0  0  0  0  0  0  0
   17.7521   26.3834   14.7102 H   0  0  0  0  0  0  0  0  0  0  0  0
   18.9775   28.4403   14.0482 H   0  0  0  0  0  0  0  0  0  0  0  0
   18.8826   25.7046   18.6824 H   0  0  0  0  0  0  0  0  0  0  0  0
   19.8837   24.3090   18.2288 H   0  0  0  0  0  0  0  0  0  0  0  0
   17.5555   24.2241   20.2079 H   0  0  0  0  0  0  0  0  0  0  0  0
   18.3732   21.9237   20.6599 H   0  0  0  0  0  0  0  0  0  0  0  0
   19.5982   22.0997   19.3782 H   0  0  0  0  0  0  0  0  0  0  0  0
   17.8684   22.0903   18.9634 H   0  0  0  0  0  0  0  0  0  0  0  0
   19.5327   25.4829   21.0134 H   0  0  0  0  0  0  0  0  0  0  0  0
   20.5876   24.1140   20.5860 H   0  0  0  0  0  0  0  0  0  0  0  0
   19.3702   23.9324   21.8745 H   0  0  0  0  0  0  0  0  0  0  0  0
   16.3900   25.3260   16.5224 H   0  0  0  0  0  0  0  0  0  0  0  0
   16.7499   25.8749   18.1557 H   0  0  0  0  0  0  0  0  0  0  0  0
   15.8689   23.6300   19.0015 H   0  0  0  0  0  0  0  0  0  0  0  0
   14.1131   25.3537   17.5404 H   0  0  0  0  0  0  0  0  0  0  0  0
   16.0369   22.4256   16.7754 H   0  0  0  0  0  0  0  0  0  0  0  0
   13.3235   22.4526   18.0836 H   0  0  0  0  0  0  0  0  0  0  0  0
   14.7378   18.5172   19.0365 H   0  0  0  0  0  0  0  0  0  0  0  0
   13.3282   19.3553   21.1791 H   0  0  0  0  0  0  0  0  0  0  0  0
   13.3404   17.5970   20.8390 H   0  0  0  0  0  0  0  0  0  0  0  0
   11.0380   17.0081   19.0120 H   0  0  0  0  0  0  0  0  0  0  0  0
   11.4863   20.5391   17.5446 H   0  0  0  0  0  0  0  0  0  0  0  0
   10.5456   19.6642   16.3166 H   0  0  0  0  0  0  0  0  0  0  0  0
   13.2449   19.3135   16.4861 H   0  0  0  0  0  0  0  0  0  0  0  0
   12.1811   17.9510   16.1013 H   0  0  0  0  0  0  0  0  0  0  0  0
   13.1423   17.0345   18.0408 H   0  0  0  0  0  0  0  0  0  0  0  0
   15.0413   24.1861   15.2908 H   0  0  0  0  0  0  0  0  0  0  0  0
   13.5049   24.0344   16.1555 H   0  0  0  0  0  0  0  0  0  0  0  0
   11.8925   22.4956   15.3193 H   0  0  0  0  0  0  0  0  0  0  0  0
   11.2596   20.6291   13.8538 H   0  0  0  0  0  0  0  0  0  0  0  0
   13.0278   19.2965   12.7140 H   0  0  0  0  0  0  0  0  0  0  0  0
   15.3871   20.0036   12.9214 H   0  0  0  0  0  0  0  0  0  0  0  0
   16.0321   21.8939   14.3596 H   0  0  0  0  0  0  0  0  0  0  0  0
  1  2  1  0  0  0  0
  1  5  2  0  0  0  0
  1  9  1  0  0  0  0
  2  3  1  0  0  0  0
  3  4  1  0  0  0  0
  3 41  1  0  0  0  0
  3 42  1  0  0  0  0
  4  5  1  0  0  0  0
  5  6  1  0  0  0  0
  6  7  2  0  0  0  0
  6 43  1  0  0  0  0
  7  8  1  0  0  0  0
  7 10  1  0  0  0  0
  8  9  2  0  0  0  0
  8 44  1  0  0  0  0
  9 45  1  0  0  0  0
 10 11  2  0  0  0  0
 10 12  2  0  0  0  0
 10 13  1  0  0  0  0
 13 14  1  0  0  0  0
 13 18  1  0  0  0  0
 14 15  1  0  0  0  0
 14 46  1  0  0  0  0
 14 47  1  0  0  0  0
 15 16  1  0  0  0  0
 15 17  1  0  0  0  0
 15 48  1  0  0  0  0
 16 49  1  0  0  0  0
 16 50  1  0  0  0  0
 16 51  1  0  0  0  0
 17 52  1  0  0  0  0
 17 53  1  0  0  0  0
 17 54  1  0  0  0  0
 18 19  1  0  0  0  0
 18 55  1  0  0  0  0
 18 56  1  0  0  0  0
 19 20  1  0  0  0  0
 19 21  1  0  0  0  0
 19 57  1  1  0  0  0
 20 58  1  0  0  0  0
 21 22  1  0  0  0  0
 21 34  1  0  0  0  0
 21 59  1  6  0  0  0
 22 23  1  0  0  0  0
 22 60  1  0  0  0  0
 23 24  2  0  0  0  0
 23 25  1  0  0  0  0
 25 26  1  0  0  0  0
 26 27  1  0  0  0  0
 26 33  1  0  0  0  0
 26 61  1  6  0  0  0
 27 28  1  0  0  0  0
 27 62  1  0  0  0  0
 27 63  1  0  0  0  0
 28 29  1  0  0  0  0
 29 30  1  0  0  0  0
 29 33  1  0  0  0  0
 29 64  1  1  0  0  0
 30 31  1  0  0  0  0
 31 32  1  0  0  0  0
 31 65  1  0  0  0  0
 31 66  1  0  0  0  0
 32 33  1  0  0  0  0
 32 67  1  0  0  0  0
 32 68  1  0  0  0  0
 33 69  1  6  0  0  0
 34 40  1  0  0  0  0
 34 70  1  0  0  0  0
 34 71  1  0  0  0  0
 35 36  2  0  0  0  0
 35 40  1  0  0  0  0
 35 72  1  0  0  0  0
 36 37  1  0  0  0  0
 36 73  1  0  0  0  0
 37 38  2  0  0  0  0
 37 74  1  0  0  0  0
 38 39  1  0  0  0  0
 38 75  1  0  0  0  0
 39 40  2  0  0  0  0
 39 76  1  0  0  0  0
M  END
$$$$
