0FA
 OpenBabel04051919273D

 26 25  0  0  1  0  0  0  0  0999 V2000
   51.7505   18.9317   -6.2126 P   0  0  0  0  0  0  0  0  0  0  0  0
   51.6615   20.4092   -5.9435 O   0  0  0  0  0  0  0  0  0  0  0  0
   53.0784   18.3973   -6.6894 O   0  0  0  0  0  0  0  0  0  0  0  0
   50.5019   18.2682   -6.7811 O   0  0  0  0  0  0  0  0  0  0  0  0
   51.6647   18.2686   -4.6323 N   0  0  0  0  0  0  0  0  0  0  0  0
   52.8610   18.2991   -3.8132 C   0  0  2  0  0  0  0  0  0  0  0  0
   53.6869   17.0254   -4.0887 C   0  0  0  0  0  0  0  0  0  0  0  0
   54.9095   16.9508   -3.9623 O   0  0  0  0  0  0  0  0  0  0  0  0
   52.4461   18.2763   -2.3320 C   0  0  0  0  0  0  0  0  0  0  0  0
   53.5941   18.2590   -1.3014 C   0  0  0  0  0  0  0  0  0  0  0  0
   54.5383   19.4533   -1.4769 C   0  0  0  0  0  0  0  0  0  0  0  0
   52.9293   18.2227    0.0793 C   0  0  0  0  0  0  0  0  0  0  0  0
   52.9566   15.8773   -4.1967 N   0  0  0  0  0  0  0  0  0  0  0  0
   50.7171   18.1271   -4.3249 H   0  0  0  0  0  0  0  0  0  0  0  0
   53.4621   19.1821   -4.0402 H   0  0  0  0  0  0  0  0  0  0  0  0
   51.8192   17.3921   -2.1439 H   0  0  0  0  0  0  0  0  0  0  0  0
   51.8077   19.1469   -2.1258 H   0  0  0  0  0  0  0  0  0  0  0  0
   54.1903   17.3432   -1.4022 H   0  0  0  0  0  0  0  0  0  0  0  0
   55.3556   19.4281   -0.7523 H   0  0  0  0  0  0  0  0  0  0  0  0
   54.0034   20.3996   -1.3616 H   0  0  0  0  0  0  0  0  0  0  0  0
   55.0022   19.4482   -2.4690 H   0  0  0  0  0  0  0  0  0  0  0  0
   52.3277   17.3094    0.1708 H   0  0  0  0  0  0  0  0  0  0  0  0
   52.2472   19.0705    0.2050 H   0  0  0  0  0  0  0  0  0  0  0  0
   53.6526   18.2297    0.8962 H   0  0  0  0  0  0  0  0  0  0  0  0
   53.4895   15.1282   -4.6330 H   0  0  0  0  0  0  0  0  0  0  0  0
   52.0431   16.0652   -4.6288 H   0  0  0  0  0  0  0  0  0  0  0  0
  1  2  2  0  0  0  0
  1  3  1  0  0  0  0
  1  4  1  0  0  0  0
  1  5  1  0  0  0  0
  5  6  1  0  0  0  0
  5 14  1  0  0  0  0
  6  9  1  0  0  0  0
  6  7  1  0  0  0  0
  6 15  1  6  0  0  0
  7  8  2  0  0  0  0
  7 13  1  0  0  0  0
  9 10  1  0  0  0  0
  9 16  1  0  0  0  0
  9 17  1  0  0  0  0
 10 11  1  0  0  0  0
 10 12  1  0  0  0  0
 10 18  1  0  0  0  0
 11 19  1  0  0  0  0
 11 20  1  0  0  0  0
 11 21  1  0  0  0  0
 12 22  1  0  0  0  0
 12 23  1  0  0  0  0
 12 24  1  0  0  0  0
 13 25  1  0  0  0  0
 13 26  1  0  0  0  0
M  END
$$$$
