15A
 OpenBabel04051919473D

 33 33  0  0  1  0  0  0  0  0999 V2000
   26.9633   49.7846   -3.5965 O   0  0  0  0  0  0  0  0  0  0  0  0
   25.9937   49.6384   -2.5511 C   0  0  0  0  0  0  0  0  0  0  0  0
   26.2932   48.3714   -1.7233 C   0  0  2  0  0  0  0  0  0  0  0  0
   27.5062   48.5590   -0.7731 C   0  0  1  0  0  0  0  0  0  0  0  0
   27.1938   49.5282    0.2353 O   0  0  0  0  0  0  0  0  0  0  0  0
   27.9221   47.2312   -0.0696 C   0  0  2  0  0  0  0  0  0  0  0  0
   29.3529   47.2233    0.0815 O   0  0  0  0  0  0  0  0  0  0  0  0
   27.4012   45.9601   -0.7901 C   0  0  2  0  0  0  0  0  0  0  0  0
   28.1192   44.7912   -0.4618 O   0  0  0  0  0  0  0  0  0  0  0  0
   26.5499   47.2654   -2.6582 N   0  0  0  0  0  0  0  0  0  0  0  0
   27.3650   46.2236   -2.3125 C   0  0  0  0  0  0  0  0  0  0  0  0
   28.0849   45.4896   -3.0934 N   0  0  0  0  0  0  0  0  0  0  0  0
   28.0917   45.7361   -4.5383 C   0  0  0  0  0  0  0  0  0  0  0  0
   29.2663   46.6658   -4.8924 C   0  0  0  0  0  0  0  0  0  0  0  0
   30.5420   45.9696   -4.6284 N   0  3  0  0  0  0  0  0  0  0  0  0
   26.7101   50.5863   -4.0940 H   0  0  0  0  0  0  0  0  0  0  0  0
   25.0115   49.5384   -3.0258 H   0  0  0  0  0  0  0  0  0  0  0  0
   25.9918   50.5485   -1.9438 H   0  0  0  0  0  0  0  0  0  0  0  0
   25.4087   48.1468   -1.1159 H   0  0  0  0  0  0  0  0  0  0  0  0
   28.3707   48.9441   -1.3295 H   0  0  0  0  0  0  0  0  0  0  0  0
   27.1773   50.4161   -0.1619 H   0  0  0  0  0  0  0  0  0  0  0  0
   27.5343   47.2154    0.9604 H   0  0  0  0  0  0  0  0  0  0  0  0
   29.7445   47.0679   -0.7889 H   0  0  0  0  0  0  0  0  0  0  0  0
   26.3569   45.8083   -0.4834 H   0  0  0  0  0  0  0  0  0  0  0  0
   27.6951   44.0665   -0.9601 H   0  0  0  0  0  0  0  0  0  0  0  0
   26.2684   47.4361   -3.6159 H   0  0  0  0  0  0  0  0  0  0  0  0
   27.1505   46.1507   -4.9131 H   0  0  0  0  0  0  0  0  0  0  0  0
   28.2219   44.7777   -5.0468 H   0  0  0  0  0  0  0  0  0  0  0  0
   29.2660   47.5742   -4.2823 H   0  0  0  0  0  0  0  0  0  0  0  0
   29.2560   46.9295   -5.9567 H   0  0  0  0  0  0  0  0  0  0  0  0
   31.3655   46.5666   -4.8283 H   0  0  0  0  0  0  0  0  0  0  0  0
   30.5836   45.6755   -3.6431 H   0  0  0  0  0  0  0  0  0  0  0  0
   30.6436   45.1142   -5.1878 H   0  0  0  0  0  0  0  0  0  0  0  0
  1  2  1  0  0  0  0
  1 16  1  0  0  0  0
  2  3  1  0  0  0  0
  2 17  1  0  0  0  0
  2 18  1  0  0  0  0
  3  4  1  0  0  0  0
  3 10  1  0  0  0  0
  3 19  1  1  0  0  0
  4  5  1  0  0  0  0
  4  6  1  0  0  0  0
  4 20  1  6  0  0  0
  5 21  1  0  0  0  0
  6  7  1  0  0  0  0
  6  8  1  0  0  0  0
  6 22  1  1  0  0  0
  7 23  1  0  0  0  0
  8  9  1  0  0  0  0
  8 11  1  0  0  0  0
  8 24  1  1  0  0  0
  9 25  1  0  0  0  0
 10 11  1  0  0  0  0
 10 26  1  0  0  0  0
 11 12  2  0  0  0  0
 12 13  1  0  0  0  0
 13 14  1  0  0  0  0
 13 27  1  0  0  0  0
 13 28  1  0  0  0  0
 14 15  1  0  0  0  0
 14 29  1  0  0  0  0
 14 30  1  0  0  0  0
 15 31  1  0  0  0  0
 15 32  1  0  0  0  0
 15 33  1  0  0  0  0
M  CHG  1  15   1
M  END
$$$$
