19U
 OpenBabel04051920523D

 45 46  0  0  1  0  0  0  0  0999 V2000
   18.1213  -13.1254   21.4823 N   0  0  0  0  0  0  0  0  0  0  0  0
   19.4245  -13.6213   21.0416 C   0  0  0  0  0  0  0  0  0  0  0  0
   16.3238  -11.6556   20.5614 C   0  0  0  0  0  0  0  0  0  0  0  0
   17.7757  -14.9924   23.1018 C   0  0  1  0  0  0  0  0  0  0  0  0
   19.8012  -14.1877   24.3093 C   0  0  0  0  0  0  0  0  0  0  0  0
   14.2939  -10.3465   20.3735 C   0  0  0  0  0  0  0  0  0  0  0  0
   12.4593  -11.4558   21.6775 C   0  0  0  0  0  0  0  0  0  0  0  0
   11.4464  -10.4403   23.6279 C   0  0  0  0  0  0  0  0  0  0  0  0
   18.3896  -14.7234   24.4753 C   0  0  0  0  0  0  0  0  0  0  0  0
   16.5562  -15.8372   23.3089 N   0  3  0  0  0  0  0  0  0  0  0  0
   17.3663  -13.6662   22.4819 C   0  0  0  0  0  0  0  0  0  0  0  0
   16.3476  -13.1235   22.9273 O   0  0  0  0  0  0  0  0  0  0  0  0
   19.9832  -12.4515   20.2479 C   0  0  0  0  0  0  0  0  0  0  0  0
   18.7144  -11.7879   19.6933 C   0  0  0  0  0  0  0  0  0  0  0  0
   17.8022  -11.7860   20.9234 C   0  0  2  0  0  0  0  0  0  0  0  0
   15.6903  -10.4547   20.7860 N   0  0  0  0  0  0  0  0  0  0  0  0
   13.3156  -10.3560   21.5247 C   0  0  0  0  0  0  0  0  0  0  0  0
   13.2141   -9.2927   22.4403 C   0  0  0  0  0  0  0  0  0  0  0  0
   12.2852   -9.3333   23.4891 C   0  0  0  0  0  0  0  0  0  0  0  0
   11.5320  -11.5017   22.7214 C   0  0  0  0  0  0  0  0  0  0  0  0
   15.7361  -12.6454   20.0713 O   0  0  0  0  0  0  0  0  0  0  0  0
   12.1649   -8.0287   24.6222 Cl  0  0  0  0  0  0  0  0  0  0  0  0
   19.3015  -14.5267   20.4392 H   0  0  0  0  0  0  0  0  0  0  0  0
   20.0406  -13.8803   21.9009 H   0  0  0  0  0  0  0  0  0  0  0  0
   18.4471  -15.5595   22.4545 H   0  0  0  0  0  0  0  0  0  0  0  0
   20.2643  -13.9806   25.2758 H   0  0  0  0  0  0  0  0  0  0  0  0
   19.7864  -13.2499   23.7397 H   0  0  0  0  0  0  0  0  0  0  0  0
   20.4200  -14.9194   23.7718 H   0  0  0  0  0  0  0  0  0  0  0  0
   14.0674  -11.1891   19.7051 H   0  0  0  0  0  0  0  0  0  0  0  0
   14.1823   -9.4265   19.7918 H   0  0  0  0  0  0  0  0  0  0  0  0
   12.5176  -12.2861   20.9752 H   0  0  0  0  0  0  0  0  0  0  0  0
   10.7229  -10.4837   24.4363 H   0  0  0  0  0  0  0  0  0  0  0  0
   18.4208  -15.6453   25.0711 H   0  0  0  0  0  0  0  0  0  0  0  0
   17.7853  -13.9855   25.0254 H   0  0  0  0  0  0  0  0  0  0  0  0
   16.0920  -16.0309   22.4123 H   0  0  0  0  0  0  0  0  0  0  0  0
   16.7925  -16.7198   23.7647 H   0  0  0  0  0  0  0  0  0  0  0  0
   20.6683  -12.7849   19.4663 H   0  0  0  0  0  0  0  0  0  0  0  0
   20.5204  -11.7551   20.9140 H   0  0  0  0  0  0  0  0  0  0  0  0
   18.2850  -12.4024   18.8804 H   0  0  0  0  0  0  0  0  0  0  0  0
   18.8957  -10.7838   19.3073 H   0  0  0  0  0  0  0  0  0  0  0  0
   18.0721  -10.9989   21.6391 H   0  0  0  0  0  0  0  0  0  0  0  0
   16.1496   -9.6843   21.2502 H   0  0  0  0  0  0  0  0  0  0  0  0
   13.8637   -8.4289   22.3311 H   0  0  0  0  0  0  0  0  0  0  0  0
   10.8779  -12.3650   22.8248 H   0  0  0  0  0  0  0  0  0  0  0  0
   15.8762  -15.3262   23.8934 H   0  0  0  0  0  0  0  0  0  0  0  0
  1  2  1  0  0  0  0
  1 11  1  0  0  0  0
  1 15  1  0  0  0  0
  2 13  1  0  0  0  0
  2 23  1  0  0  0  0
  2 24  1  0  0  0  0
  3 15  1  0  0  0  0
  3 16  1  0  0  0  0
  3 21  2  0  0  0  0
  4  9  1  0  0  0  0
  4 10  1  0  0  0  0
  4 11  1  0  0  0  0
  4 25  1  6  0  0  0
  5  9  1  0  0  0  0
  5 26  1  0  0  0  0
  5 27  1  0  0  0  0
  5 28  1  0  0  0  0
  6 16  1  0  0  0  0
  6 17  1  0  0  0  0
  6 29  1  0  0  0  0
  6 30  1  0  0  0  0
  7 17  2  0  0  0  0
  7 20  1  0  0  0  0
  7 31  1  0  0  0  0
  8 19  1  0  0  0  0
  8 20  2  0  0  0  0
  8 32  1  0  0  0  0
  9 33  1  0  0  0  0
  9 34  1  0  0  0  0
 10 35  1  0  0  0  0
 10 36  1  0  0  0  0
 10 45  1  0  0  0  0
 11 12  2  0  0  0  0
 13 14  1  0  0  0  0
 13 37  1  0  0  0  0
 13 38  1  0  0  0  0
 14 15  1  0  0  0  0
 14 39  1  0  0  0  0
 14 40  1  0  0  0  0
 15 41  1  1  0  0  0
 16 42  1  0  0  0  0
 17 18  1  0  0  0  0
 18 19  2  0  0  0  0
 18 43  1  0  0  0  0
 19 22  1  0  0  0  0
 20 44  1  0  0  0  0
M  CHG  1  10   1
M  END
$$$$
