1AH
 OpenBabel04051917343D

 86 89  0  0  1  0  0  0  0  0999 V2000
   14.8122   22.1094    7.9188 C   0  0  0  0  0  0  0  0  0  0  0  0
   14.3110   20.9840    8.6231 C   0  0  0  0  0  0  0  0  0  0  0  0
   15.1706   20.1859    9.4089 C   0  0  0  0  0  0  0  0  0  0  0  0
   16.5385   20.5055    9.4992 C   0  0  0  0  0  0  0  0  0  0  0  0
   17.0485   21.6213    8.8069 C   0  0  0  0  0  0  0  0  0  0  0  0
   16.1899   22.4213    8.0206 C   0  0  0  0  0  0  0  0  0  0  0  0
    9.8075   23.8167    2.8677 C   0  0  0  0  0  0  0  0  0  0  0  0
   10.3185   24.5211    1.7652 C   0  0  0  0  0  0  0  0  0  0  0  0
    9.4697   25.3499    1.0324 C   0  0  0  0  0  0  0  0  0  0  0  0
    8.1214   25.4595    1.4055 C   0  0  0  0  0  0  0  0  0  0  0  0
    7.6040   24.7412    2.4921 C   0  0  0  0  0  0  0  0  0  0  0  0
    8.4528   23.9118    3.2266 C   0  0  0  0  0  0  0  0  0  0  0  0
   10.7160   22.9637    3.6790 C   0  0  0  0  0  0  0  0  0  0  0  0
    5.5688   27.2907    4.6233 C   0  0  0  0  0  0  0  0  0  0  0  0
   12.7122   22.6452    4.6871 C   0  0  0  0  0  0  0  0  0  0  0  0
    8.2444   27.6502    5.1878 O   0  0  0  0  0  0  0  0  0  0  0  0
    8.2910   25.7689    6.4408 N   0  0  0  0  0  0  0  0  0  0  0  0
   13.8755   22.9308    7.0058 C   0  0  0  0  0  0  0  0  0  0  0  0
   14.9666   23.5247    4.9054 O   0  0  0  0  0  0  0  0  0  0  0  0
    6.3515   26.3933    5.4568 O   0  0  0  0  0  0  0  0  0  0  0  0
   14.4143   21.1362    5.2326 C   0  0  0  0  0  0  0  0  0  0  0  0
   13.5503   20.2610    5.1425 O   0  0  0  0  0  0  0  0  0  0  0  0
   15.7301   20.8068    5.1107 N   0  0  0  0  0  0  0  0  0  0  0  0
   16.1059   19.4159    4.9523 C   0  0  1  0  0  0  0  0  0  0  0  0
   16.1064   18.8668    3.5300 C   0  0  0  0  0  0  0  0  0  0  0  0
   17.1267   17.8964    3.4101 C   0  0  0  0  0  0  0  0  0  0  0  0
   15.2632   19.1610    2.4505 C   0  0  0  0  0  0  0  0  0  0  0  0
   15.4684   18.4920    1.2254 C   0  0  0  0  0  0  0  0  0  0  0  0
   16.5005   17.5311    1.1047 C   0  0  0  0  0  0  0  0  0  0  0  0
   17.5522   19.0925    5.4161 C   0  0  2  0  0  0  0  0  0  0  0  0
   18.5113   20.0584    4.9351 O   0  0  0  0  0  0  0  0  0  0  0  0
    7.6797   26.7090    5.6359 C   0  0  0  0  0  0  0  0  0  0  0  0
   17.3342   17.2243    2.2041 C   0  0  0  0  0  0  0  0  0  0  0  0
   17.8862   17.7555    4.7216 C   0  0  0  0  0  0  0  0  0  0  0  0
    9.7133   25.8192    6.8502 C   0  0  1  0  0  0  0  0  0  0  0  0
    9.7944   26.0545    8.3967 C   0  0  0  0  0  0  0  0  0  0  0  0
    9.1555   27.4014    8.8009 C   0  0  0  0  0  0  0  0  0  0  0  0
   14.0194   22.6254    5.4934 C   0  0  2  0  0  0  0  0  0  0  0  0
   11.2365   26.0894    8.9130 C   0  0  0  0  0  0  0  0  0  0  0  0
   10.3732   24.4725    6.3549 C   0  0  0  0  0  0  0  0  0  0  0  0
   11.7779   23.7206    4.3895 N   0  0  0  0  0  0  0  0  0  0  0  0
    9.9966   23.3703    6.7276 O   0  0  0  0  0  0  0  0  0  0  0  0
   11.3859   24.6333    5.4049 N   0  0  0  0  0  0  0  0  0  0  0  0
    6.9746   26.6123    0.4204 Br  0  0  0  0  0  0  0  0  0  0  0  0
    9.0296   24.9575    9.1385 C   0  0  0  0  0  0  0  0  0  0  0  0
   13.2465   20.7229    8.5561 H   0  0  0  0  0  0  0  0  0  0  0  0
   14.7718   19.3176    9.9489 H   0  0  0  0  0  0  0  0  0  0  0  0
   17.2070   19.8880   10.1100 H   0  0  0  0  0  0  0  0  0  0  0  0
   18.1147   21.8684    8.8824 H   0  0  0  0  0  0  0  0  0  0  0  0
   16.6001   23.2854    7.4857 H   0  0  0  0  0  0  0  0  0  0  0  0
   11.3763   24.4231    1.4962 H   0  0  0  0  0  0  0  0  0  0  0  0
    9.8615   25.9055    0.1803 H   0  0  0  0  0  0  0  0  0  0  0  0
    6.5529   24.8256    2.7721 H   0  0  0  0  0  0  0  0  0  0  0  0
    8.0661   23.3469    4.0828 H   0  0  0  0  0  0  0  0  0  0  0  0
   11.2199   22.2606    2.9731 H   0  0  0  0  0  0  0  0  0  0  0  0
   10.1492   22.3364    4.3782 H   0  0  0  0  0  0  0  0  0  0  0  0
    4.5350   26.9041    4.5708 H   0  0  0  0  0  0  0  0  0  0  0  0
    5.9698   27.3289    3.6059 H   0  0  0  0  0  0  0  0  0  0  0  0
    5.5356   28.2966    5.0545 H   0  0  0  0  0  0  0  0  0  0  0  0
   12.0857   21.8311    5.0761 H   0  0  0  0  0  0  0  0  0  0  0  0
   13.0347   22.3641    3.6532 H   0  0  0  0  0  0  0  0  0  0  0  0
    7.7352   25.0065    6.7835 H   0  0  0  0  0  0  0  0  0  0  0  0
   14.0920   24.0017    7.1884 H   0  0  0  0  0  0  0  0  0  0  0  0
   12.8368   22.7625    7.3368 H   0  0  0  0  0  0  0  0  0  0  0  0
   14.6321   24.4284    5.0376 H   0  0  0  0  0  0  0  0  0  0  0  0
   16.4233   21.5347    5.1494 H   0  0  0  0  0  0  0  0  0  0  0  0
   15.4236   18.8024    5.5518 H   0  0  0  0  0  0  0  0  0  0  0  0
   14.4663   19.9017    2.5505 H   0  0  0  0  0  0  0  0  0  0  0  0
   14.8278   18.7150    0.3639 H   0  0  0  0  0  0  0  0  0  0  0  0
   16.6520   17.0188    0.1485 H   0  0  0  0  0  0  0  0  0  0  0  0
   17.6323   19.0443    6.5158 H   0  0  0  0  0  0  0  0  0  0  0  0
   18.2436   20.9369    5.2342 H   0  0  0  0  0  0  0  0  0  0  0  0
   18.1313   16.4841    2.1090 H   0  0  0  0  0  0  0  0  0  0  0  0
   18.9613   17.6489    4.5588 H   0  0  0  0  0  0  0  0  0  0  0  0
   17.5069   16.9132    5.3108 H   0  0  0  0  0  0  0  0  0  0  0  0
   10.2158   26.6469    6.3448 H   0  0  0  0  0  0  0  0  0  0  0  0
    9.2322   27.5515    9.8904 H   0  0  0  0  0  0  0  0  0  0  0  0
    8.0929   27.4240    8.5358 H   0  0  0  0  0  0  0  0  0  0  0  0
    9.6600   28.2408    8.3079 H   0  0  0  0  0  0  0  0  0  0  0  0
   11.7587   25.1631    8.6639 H   0  0  0  0  0  0  0  0  0  0  0  0
   11.2430   26.2050   10.0086 H   0  0  0  0  0  0  0  0  0  0  0  0
   11.7823   26.9359    8.4800 H   0  0  0  0  0  0  0  0  0  0  0  0
   11.8449   25.5341    5.3816 H   0  0  0  0  0  0  0  0  0  0  0  0
    7.9928   24.9137    8.7901 H   0  0  0  0  0  0  0  0  0  0  0  0
    9.0157   25.1575   10.2141 H   0  0  0  0  0  0  0  0  0  0  0  0
    9.4976   23.9857    8.9730 H   0  0  0  0  0  0  0  0  0  0  0  0
  1  2  2  0  0  0  0
  1  6  1  0  0  0  0
  1 18  1  0  0  0  0
  2  3  1  0  0  0  0
  2 46  1  0  0  0  0
  3  4  2  0  0  0  0
  3 47  1  0  0  0  0
  4  5  1  0  0  0  0
  4 48  1  0  0  0  0
  5  6  2  0  0  0  0
  5 49  1  0  0  0  0
  6 50  1  0  0  0  0
  7  8  2  0  0  0  0
  7 12  1  0  0  0  0
  7 13  1  0  0  0  0
  8  9  1  0  0  0  0
  8 51  1  0  0  0  0
  9 10  2  0  0  0  0
  9 52  1  0  0  0  0
 10 11  1  0  0  0  0
 10 44  1  0  0  0  0
 11 12  2  0  0  0  0
 11 53  1  0  0  0  0
 12 54  1  0  0  0  0
 13 41  1  0  0  0  0
 13 55  1  0  0  0  0
 13 56  1  0  0  0  0
 14 20  1  0  0  0  0
 14 57  1  0  0  0  0
 14 58  1  0  0  0  0
 14 59  1  0  0  0  0
 15 41  1  0  0  0  0
 15 60  1  0  0  0  0
 15 61  1  0  0  0  0
 16 32  2  0  0  0  0
 17 32  1  0  0  0  0
 17 35  1  0  0  0  0
 17 62  1  0  0  0  0
 18 38  1  0  0  0  0
 18 63  1  0  0  0  0
 18 64  1  0  0  0  0
 19 38  1  0  0  0  0
 19 65  1  0  0  0  0
 20 32  1  0  0  0  0
 21 22  2  0  0  0  0
 21 23  1  0  0  0  0
 21 38  1  0  0  0  0
 23 24  1  0  0  0  0
 23 66  1  0  0  0  0
 24 25  1  0  0  0  0
 24 30  1  0  0  0  0
 24 67  1  1  0  0  0
 25 26  2  0  0  0  0
 25 27  1  0  0  0  0
 26 33  1  0  0  0  0
 26 34  1  0  0  0  0
 27 28  2  0  0  0  0
 27 68  1  0  0  0  0
 28 29  1  0  0  0  0
 28 69  1  0  0  0  0
 29 33  2  0  0  0  0
 29 70  1  0  0  0  0
 30 31  1  0  0  0  0
 30 34  1  0  0  0  0
 30 71  1  1  0  0  0
 31 72  1  0  0  0  0
 33 73  1  0  0  0  0
 34 74  1  0  0  0  0
 34 75  1  0  0  0  0
 35 36  1  0  0  0  0
 35 40  1  0  0  0  0
 35 76  1  6  0  0  0
 36 37  1  0  0  0  0
 36 39  1  0  0  0  0
 36 45  1  0  0  0  0
 37 77  1  0  0  0  0
 37 78  1  0  0  0  0
 37 79  1  0  0  0  0
 38 15  1  6  0  0  0
 39 80  1  0  0  0  0
 39 81  1  0  0  0  0
 39 82  1  0  0  0  0
 40 42  2  0  0  0  0
 40 43  1  0  0  0  0
 41 43  1  0  0  0  0
 43 83  1  0  0  0  0
 45 84  1  0  0  0  0
 45 85  1  0  0  0  0
 45 86  1  0  0  0  0
M  END
$$$$
