1B0
 OpenBabel04051920223D

 59 62  0  0  1  0  0  0  0  0999 V2000
    1.2292    4.6206   18.6196 O   0  0  0  0  0  0  0  0  0  0  0  0
    0.1041    4.1701   18.4147 C   0  0  0  0  0  0  0  0  0  0  0  0
   -0.1174    2.8500   18.1531 N   0  0  0  0  0  0  0  0  0  0  0  0
    0.9875    1.9210   17.9362 C   0  0  2  0  0  0  0  0  0  0  0  0
    1.4642    2.0548   16.4872 C   0  0  0  0  0  0  0  0  0  0  0  0
    2.8259    2.0930   16.2618 N   0  0  0  0  0  0  0  0  0  0  0  0
    3.7505    1.9355   17.3016 C   0  0  0  0  0  0  0  0  0  0  0  0
    4.1536    0.6500   17.6576 C   0  0  0  0  0  0  0  0  0  0  0  0
    5.0656    0.4883   18.6914 C   0  0  0  0  0  0  0  0  0  0  0  0
    5.5631    1.6050   19.3655 C   0  0  0  0  0  0  0  0  0  0  0  0
    5.1500    2.8882   19.0088 C   0  0  0  0  0  0  0  0  0  0  0  0
    4.2380    3.0574   17.9724 C   0  0  0  0  0  0  0  0  0  0  0  0
    3.3716    2.3463   14.9396 C   0  0  0  0  0  0  0  0  0  0  0  0
    0.6280    2.1137   15.5562 O   0  0  0  0  0  0  0  0  0  0  0  0
    0.5645    0.4862   18.2057 C   0  0  0  0  0  0  0  0  0  0  0  0
    0.2649    0.3168   19.6739 C   0  0  0  0  0  0  0  0  0  0  0  0
    1.2821    0.0107   20.5818 C   0  0  0  0  0  0  0  0  0  0  0  0
    1.0025   -0.1172   21.9418 C   0  0  0  0  0  0  0  0  0  0  0  0
   -0.2949    0.0780   22.4044 C   0  0  0  0  0  0  0  0  0  0  0  0
   -1.3101    0.3942   21.5050 C   0  0  0  0  0  0  0  0  0  0  0  0
   -1.0341    0.5134   20.1457 C   0  0  0  0  0  0  0  0  0  0  0  0
   -1.1275    5.0487   18.4615 C   0  0  0  0  0  0  0  0  0  0  0  0
   -1.0793    5.8411   19.7387 C   0  0  1  0  0  0  0  0  0  0  0  0
   -1.0272    5.2981   21.0637 C   0  0  2  0  0  0  0  0  0  0  0  0
   -1.0328    3.9825   21.5704 C   0  0  0  0  0  0  0  0  0  0  0  0
   -0.9853    3.7607   22.9483 C   0  0  0  0  0  0  0  0  0  0  0  0
   -0.9296    4.8409   23.8211 C   0  0  0  0  0  0  0  0  0  0  0  0
   -0.9204    6.1576   23.3432 C   0  0  0  0  0  0  0  0  0  0  0  0
   -0.9653    6.3647   21.9550 C   0  0  2  0  0  0  0  0  0  0  0  0
   -0.9650    7.5219   21.2047 N   0  3  0  0  0  0  0  0  0  0  0  0
   -1.0289    7.2211   19.8626 C   0  0  1  0  0  0  0  0  0  0  0  0
   -1.0380    8.2511   18.7900 C   0  0  0  0  0  0  0  0  0  0  0  0
   -1.0617    2.5028   18.1322 H   0  0  0  0  0  0  0  0  0  0  0  0
    1.7975    2.1916   18.6083 H   0  0  0  0  0  0  0  0  0  0  0  0
    3.7692   -0.2190   17.1299 H   0  0  0  0  0  0  0  0  0  0  0  0
    5.3956   -0.5066   18.9743 H   0  0  0  0  0  0  0  0  0  0  0  0
    6.2775    1.4747   20.1729 H   0  0  0  0  0  0  0  0  0  0  0  0
    5.5428    3.7532   19.5371 H   0  0  0  0  0  0  0  0  0  0  0  0
    3.9038    4.0545   17.6964 H   0  0  0  0  0  0  0  0  0  0  0  0
    2.5720    2.4593   14.2009 H   0  0  0  0  0  0  0  0  0  0  0  0
    4.0115    1.5044   14.6525 H   0  0  0  0  0  0  0  0  0  0  0  0
    3.9692    3.2651   14.9652 H   0  0  0  0  0  0  0  0  0  0  0  0
    1.3623   -0.2080   17.9145 H   0  0  0  0  0  0  0  0  0  0  0  0
   -0.3330    0.2332   17.6204 H   0  0  0  0  0  0  0  0  0  0  0  0
    2.2991   -0.1338   20.2292 H   0  0  0  0  0  0  0  0  0  0  0  0
    1.7971   -0.3708   22.6375 H   0  0  0  0  0  0  0  0  0  0  0  0
   -0.5177   -0.0135   23.4636 H   0  0  0  0  0  0  0  0  0  0  0  0
   -2.3206    0.5555   21.8640 H   0  0  0  0  0  0  0  0  0  0  0  0
   -1.8319    0.7638   19.4523 H   0  0  0  0  0  0  0  0  0  0  0  0
   -2.0403    4.4413   18.4147 H   0  0  0  0  0  0  0  0  0  0  0  0
   -1.1111    5.7024   17.5756 H   0  0  0  0  0  0  0  0  0  0  0  0
   -1.0718    3.1501   20.8797 H   0  0  0  0  0  0  0  0  0  0  0  0
   -0.9917    2.7461   23.3303 H   0  0  0  0  0  0  0  0  0  0  0  0
   -0.8917    4.6645   24.8931 H   0  0  0  0  0  0  0  0  0  0  0  0
   -0.8817    6.9909   24.0306 H   0  0  0  0  0  0  0  0  0  0  0  0
   -0.9273    8.4603   21.5929 H   0  0  0  0  0  0  0  0  0  0  0  0
   -1.0885    7.7658   17.8056 H   0  0  0  0  0  0  0  0  0  0  0  0
   -0.1272    8.8589   18.8243 H   0  0  0  0  0  0  0  0  0  0  0  0
   -1.9122    8.9042   18.8922 H   0  0  0  0  0  0  0  0  0  0  0  0
  1  2  2  0  0  0  0
  2  3  1  0  0  0  0
  2 22  1  0  0  0  0
  3  4  1  0  0  0  0
  3 33  1  0  0  0  0
  4  5  1  0  0  0  0
  4 15  1  0  0  0  0
  4 34  1  1  0  0  0
  5  6  1  0  0  0  0
  5 14  2  0  0  0  0
  6  7  1  0  0  0  0
  6 13  1  0  0  0  0
  7  8  2  0  0  0  0
  7 12  1  0  0  0  0
  8  9  1  0  0  0  0
  8 35  1  0  0  0  0
  9 10  2  0  0  0  0
  9 36  1  0  0  0  0
 10 11  1  0  0  0  0
 10 37  1  0  0  0  0
 11 12  2  0  0  0  0
 11 38  1  0  0  0  0
 12 39  1  0  0  0  0
 13 40  1  0  0  0  0
 13 41  1  0  0  0  0
 13 42  1  0  0  0  0
 15 16  1  0  0  0  0
 15 43  1  0  0  0  0
 15 44  1  0  0  0  0
 16 17  2  0  0  0  0
 16 21  1  0  0  0  0
 17 18  1  0  0  0  0
 17 45  1  0  0  0  0
 18 19  2  0  0  0  0
 18 46  1  0  0  0  0
 19 20  1  0  0  0  0
 19 47  1  0  0  0  0
 20 21  2  0  0  0  0
 20 48  1  0  0  0  0
 21 49  1  0  0  0  0
 22 50  1  0  0  0  0
 22 51  1  0  0  0  0
 23 22  1  6  0  0  0
 23 24  1  0  0  0  0
 23 31  1  0  0  0  0
 24 25  1  1  0  0  0
 24 29  1  0  0  0  0
 25 26  1  0  0  0  0
 25 52  1  0  0  0  0
 26 27  1  0  0  0  0
 26 53  1  0  0  0  0
 27 28  1  0  0  0  0
 27 54  1  0  0  0  0
 28 55  1  0  0  0  0
 29 28  1  1  0  0  0
 29 30  1  0  0  0  0
 30 31  1  0  0  0  0
 30 56  1  0  0  0  0
 31 32  1  6  0  0  0
 32 57  1  0  0  0  0
 32 58  1  0  0  0  0
 32 59  1  0  0  0  0
M  CHG  1  30   1
M  END
$$$$
