1BN
 OpenBabel04051917173D

 22 23  0  0  0  0  0  0  0  0999 V2000
  -15.9172    2.1644   21.6925 C   0  0  0  0  0  0  0  0  0  0  0  0
  -17.1510    2.7373   21.4898 C   0  0  0  0  0  0  0  0  0  0  0  0
  -15.2231    3.0741   22.4445 N   0  3  0  0  0  0  0  0  0  0  0  0
  -16.0356    4.1585   22.6290 C   0  0  0  0  0  0  0  0  0  0  0  0
  -17.2097    3.9804   22.0641 N   0  0  0  0  0  0  0  0  0  0  0  0
  -13.9304    2.8452   23.0719 C   0  0  0  0  0  0  0  0  0  0  0  0
  -12.9051    3.9244   22.8215 C   0  0  0  0  0  0  0  0  0  0  0  0
  -12.7416    4.5235   21.5639 C   0  0  0  0  0  0  0  0  0  0  0  0
  -12.0415    4.2966   23.8628 C   0  0  0  0  0  0  0  0  0  0  0  0
  -11.7771    5.5193   21.3763 C   0  0  0  0  0  0  0  0  0  0  0  0
  -11.0769    5.2890   23.6721 C   0  0  0  0  0  0  0  0  0  0  0  0
  -10.9553    5.9059   22.4285 C   0  0  0  0  0  0  0  0  0  0  0  0
  -15.5057    1.2085   21.4001 H   0  0  0  0  0  0  0  0  0  0  0  0
  -18.0023    2.3179   20.9688 H   0  0  0  0  0  0  0  0  0  0  0  0
  -15.7301    5.0379   23.1819 H   0  0  0  0  0  0  0  0  0  0  0  0
  -13.5426    1.8826   22.7227 H   0  0  0  0  0  0  0  0  0  0  0  0
  -14.1452    2.7579   24.1468 H   0  0  0  0  0  0  0  0  0  0  0  0
  -13.3672    4.2358   20.7222 H   0  0  0  0  0  0  0  0  0  0  0  0
  -12.1138    3.8232   24.8381 H   0  0  0  0  0  0  0  0  0  0  0  0
  -11.6733    5.9926   20.4011 H   0  0  0  0  0  0  0  0  0  0  0  0
  -10.4263    5.5803   24.4907 H   0  0  0  0  0  0  0  0  0  0  0  0
  -10.2122    6.6859   22.2815 H   0  0  0  0  0  0  0  0  0  0  0  0
  1  2  2  0  0  0  0
  1  3  1  0  0  0  0
  1 13  1  0  0  0  0
  2  5  1  0  0  0  0
  2 14  1  0  0  0  0
  3  4  2  0  0  0  0
  3  6  1  0  0  0  0
  4  5  1  0  0  0  0
  4 15  1  0  0  0  0
  6  7  1  0  0  0  0
  6 16  1  0  0  0  0
  6 17  1  0  0  0  0
  7  8  2  0  0  0  0
  7  9  1  0  0  0  0
  8 10  1  0  0  0  0
  8 18  1  0  0  0  0
  9 11  2  0  0  0  0
  9 19  1  0  0  0  0
 10 12  2  0  0  0  0
 10 20  1  0  0  0  0
 11 12  1  0  0  0  0
 11 21  1  0  0  0  0
 12 22  1  0  0  0  0
M  CHG  1   3   1
M  END
$$$$
