1IN
 OpenBabel04051917273D

 95 98  0  0  1  0  0  0  0  0999 V2000
    9.1813   24.0717    4.2190 C   0  0  0  0  0  0  0  0  0  0  0  0
   10.3207   24.9876    4.6306 C   0  0  1  0  0  0  0  0  0  0  0  0
   10.3711   24.9655    6.1337 C   0  0  0  0  0  0  0  0  0  0  0  0
   18.5576   19.9368    4.8794 O   0  0  0  0  0  0  0  0  0  0  0  0
    8.0406   24.6703    0.8204 O   0  0  0  0  0  0  0  0  0  0  0  0
    8.9398   25.4063    8.7454 C   0  0  0  0  0  0  0  0  0  0  0  0
   11.5156   24.4153    2.4934 C   0  0  0  0  0  0  0  0  0  0  0  0
   10.2716   23.6217    2.0716 C   0  0  0  0  0  0  0  0  0  0  0  0
   12.8127   25.2863    4.4614 C   0  0  0  0  0  0  0  0  0  0  0  0
   13.9789   24.3164    4.6836 C   0  0  2  0  0  0  0  0  0  0  0  0
   14.0104   23.8399    6.1333 C   0  0  0  0  0  0  0  0  0  0  0  0
   15.1833   22.9050    6.4347 C   0  0  1  0  0  0  0  0  0  0  0  0
   15.2694   22.7500    7.9607 C   0  0  0  0  0  0  0  0  0  0  0  0
   16.3670   21.8330    8.4348 C   0  0  0  0  0  0  0  0  0  0  0  0
   17.7096   22.1398    8.1675 C   0  0  0  0  0  0  0  0  0  0  0  0
   17.0443   19.8335    9.5991 C   0  0  0  0  0  0  0  0  0  0  0  0
   16.0391   20.6824    9.1380 C   0  0  0  0  0  0  0  0  0  0  0  0
   14.9471   21.5441    5.7965 C   0  0  0  0  0  0  0  0  0  0  0  0
   16.1557   19.5346    5.0664 C   0  0  2  0  0  0  0  0  0  0  0  0
   17.6340   17.7176    4.5715 C   0  0  0  0  0  0  0  0  0  0  0  0
    5.6043   25.1985    2.1558 C   0  0  0  0  0  0  0  0  0  0  0  0
   15.7816   19.0344    3.6547 C   0  0  2  0  0  0  0  0  0  0  0  0
    7.9954   24.6063    2.0347 C   0  0  0  0  0  0  0  0  0  0  0  0
    3.1090   25.0167    2.1333 C   0  0  0  0  0  0  0  0  0  0  0  0
    1.8893   24.9497    2.8095 C   0  0  0  0  0  0  0  0  0  0  0  0
    1.9054   24.9652    4.1948 C   0  0  0  0  0  0  0  0  0  0  0  0
    4.1936   25.0927    4.2390 C   0  0  0  0  0  0  0  0  0  0  0  0
    9.0662   24.1026    2.7658 N   0  0  0  0  0  0  0  0  0  0  0  0
   10.7365   23.9579    6.7275 O   0  0  0  0  0  0  0  0  0  0  0  0
   10.0348   26.1689    6.6965 N   0  0  0  0  0  0  0  0  0  0  0  0
    9.9529   26.3794    8.1379 C   0  0  0  0  0  0  0  0  0  0  0  0
    9.4677   27.8138    8.3701 C   0  0  0  0  0  0  0  0  0  0  0  0
   11.3305   26.2073    8.7831 C   0  0  0  0  0  0  0  0  0  0  0  0
   11.6171   24.4940    4.0058 N   0  3  1  0  0  0  0  0  0  0  0  0
   15.1874   24.9795    4.3724 O   0  0  0  0  0  0  0  0  0  0  0  0
   18.7188   21.2825    8.6185 C   0  0  0  0  0  0  0  0  0  0  0  0
   18.3762   20.1401    9.3368 C   0  0  0  0  0  0  0  0  0  0  0  0
   13.8380   21.0048    5.7955 O   0  0  0  0  0  0  0  0  0  0  0  0
   16.0638   20.9659    5.2719 N   0  0  0  0  0  0  0  0  0  0  0  0
   17.5733   19.0135    5.3591 C   0  0  1  0  0  0  0  0  0  0  0  0
   16.8558   18.0002    3.2941 C   0  0  0  0  0  0  0  0  0  0  0  0
   15.7268   20.1261    2.5974 C   0  0  0  0  0  0  0  0  0  0  0  0
    6.7765   25.0101    2.7887 C   0  0  0  0  0  0  0  0  0  0  0  0
    4.3061   25.1242    2.8517 C   0  0  0  0  0  0  0  0  0  0  0  0
    3.0347   25.0203    4.9275 N   0  0  0  0  0  0  0  0  0  0  0  0
    9.3409   23.0317    4.5296 H   0  0  0  0  0  0  0  0  0  0  0  0
    8.2760   24.4067    4.7183 H   0  0  0  0  0  0  0  0  0  0  0  0
   10.1689   26.0063    4.2535 H   0  0  0  0  0  0  0  0  0  0  0  0
   19.4273   19.5048    4.9710 H   0  0  0  0  0  0  0  0  0  0  0  0
    8.8579   25.5467    9.8261 H   0  0  0  0  0  0  0  0  0  0  0  0
    9.2221   24.3642    8.5698 H   0  0  0  0  0  0  0  0  0  0  0  0
    7.9496   25.5513    8.2979 H   0  0  0  0  0  0  0  0  0  0  0  0
   12.4368   23.9465    2.1357 H   0  0  0  0  0  0  0  0  0  0  0  0
   11.4476   25.4464    2.1284 H   0  0  0  0  0  0  0  0  0  0  0  0
   10.4078   22.5639    2.3316 H   0  0  0  0  0  0  0  0  0  0  0  0
   10.1773   23.6796    0.9838 H   0  0  0  0  0  0  0  0  0  0  0  0
   12.5682   25.8400    5.3754 H   0  0  0  0  0  0  0  0  0  0  0  0
   13.0377   26.0353    3.6934 H   0  0  0  0  0  0  0  0  0  0  0  0
   13.8773   23.4503    4.0162 H   0  0  0  0  0  0  0  0  0  0  0  0
   13.0727   23.3327    6.3828 H   0  0  0  0  0  0  0  0  0  0  0  0
   14.0942   24.7178    6.7852 H   0  0  0  0  0  0  0  0  0  0  0  0
   16.1195   23.3334    6.0588 H   0  0  0  0  0  0  0  0  0  0  0  0
   14.3094   22.3830    8.3501 H   0  0  0  0  0  0  0  0  0  0  0  0
   15.4262   23.7340    8.4223 H   0  0  0  0  0  0  0  0  0  0  0  0
   17.9840   23.0269    7.6096 H   0  0  0  0  0  0  0  0  0  0  0  0
   16.7782   18.9467   10.1628 H   0  0  0  0  0  0  0  0  0  0  0  0
   14.9977   20.4362    9.3321 H   0  0  0  0  0  0  0  0  0  0  0  0
   15.4718   19.0426    5.7676 H   0  0  0  0  0  0  0  0  0  0  0  0
   18.6588   17.4225    4.3322 H   0  0  0  0  0  0  0  0  0  0  0  0
   17.1409   16.9116    5.1250 H   0  0  0  0  0  0  0  0  0  0  0  0
    5.5696   25.3076    1.0761 H   0  0  0  0  0  0  0  0  0  0  0  0
   14.7968   18.5454    3.6881 H   0  0  0  0  0  0  0  0  0  0  0  0
    3.1105   24.9841    1.0463 H   0  0  0  0  0  0  0  0  0  0  0  0
    0.9500   24.8974    2.2672 H   0  0  0  0  0  0  0  0  0  0  0  0
    0.9857   24.9370    4.7711 H   0  0  0  0  0  0  0  0  0  0  0  0
    5.0661   25.1250    4.8787 H   0  0  0  0  0  0  0  0  0  0  0  0
    9.8054   26.9641    6.1092 H   0  0  0  0  0  0  0  0  0  0  0  0
    9.3836   28.0328    9.4380 H   0  0  0  0  0  0  0  0  0  0  0  0
    8.4863   27.9697    7.9062 H   0  0  0  0  0  0  0  0  0  0  0  0
   10.1589   28.5370    7.9206 H   0  0  0  0  0  0  0  0  0  0  0  0
   11.2766   26.3659    9.8643 H   0  0  0  0  0  0  0  0  0  0  0  0
   12.0484   26.9224    8.3649 H   0  0  0  0  0  0  0  0  0  0  0  0
   11.7350   25.2050    8.6147 H   0  0  0  0  0  0  0  0  0  0  0  0
   15.1671   25.2629    3.4410 H   0  0  0  0  0  0  0  0  0  0  0  0
   19.7542   21.5129    8.4126 H   0  0  0  0  0  0  0  0  0  0  0  0
   19.1589   19.4794    9.6973 H   0  0  0  0  0  0  0  0  0  0  0  0
   16.8857   21.5148    5.0368 H   0  0  0  0  0  0  0  0  0  0  0  0
   17.7342   18.8556    6.4316 H   0  0  0  0  0  0  0  0  0  0  0  0
   17.5344   18.3980    2.5313 H   0  0  0  0  0  0  0  0  0  0  0  0
   16.4154   17.0788    2.8988 H   0  0  0  0  0  0  0  0  0  0  0  0
   14.9279   20.8395    2.8186 H   0  0  0  0  0  0  0  0  0  0  0  0
   15.5407   19.7030    1.6048 H   0  0  0  0  0  0  0  0  0  0  0  0
   16.6795   20.6637    2.5672 H   0  0  0  0  0  0  0  0  0  0  0  0
    6.8107   25.0117    3.8488 H   0  0  0  0  0  0  0  0  0  0  0  0
   11.7308   23.5350    4.3787 H   0  0  0  0  0  0  0  0  0  0  0  0
  1 28  1  0  0  0  0
  1  2  1  0  0  0  0
  1 46  1  0  0  0  0
  1 47  1  0  0  0  0
  2 34  1  0  0  0  0
  2  3  1  0  0  0  0
  2 48  1  6  0  0  0
  3 30  1  0  0  0  0
  3 29  2  0  0  0  0
  4 40  1  0  0  0  0
  4 49  1  0  0  0  0
  5 23  2  0  0  0  0
  6 31  1  0  0  0  0
  6 50  1  0  0  0  0
  6 51  1  0  0  0  0
  6 52  1  0  0  0  0
  7 34  1  0  0  0  0
  7  8  1  0  0  0  0
  7 53  1  0  0  0  0
  7 54  1  0  0  0  0
  8 28  1  0  0  0  0
  8 55  1  0  0  0  0
  8 56  1  0  0  0  0
  9 34  1  0  0  0  0
  9 10  1  0  0  0  0
  9 57  1  0  0  0  0
  9 58  1  0  0  0  0
 10 35  1  0  0  0  0
 10 11  1  0  0  0  0
 10 59  1  6  0  0  0
 11 12  1  0  0  0  0
 11 60  1  0  0  0  0
 11 61  1  0  0  0  0
 12 18  1  0  0  0  0
 12 13  1  0  0  0  0
 12 62  1  6  0  0  0
 13 14  1  0  0  0  0
 13 63  1  0  0  0  0
 13 64  1  0  0  0  0
 14 17  2  0  0  0  0
 14 15  1  0  0  0  0
 15 36  2  0  0  0  0
 15 65  1  0  0  0  0
 16 37  2  0  0  0  0
 16 17  1  0  0  0  0
 16 66  1  0  0  0  0
 17 67  1  0  0  0  0
 18 38  2  0  0  0  0
 18 39  1  0  0  0  0
 19 39  1  0  0  0  0
 19 40  1  0  0  0  0
 19 22  1  0  0  0  0
 19 68  1  1  0  0  0
 20 41  1  0  0  0  0
 20 40  1  0  0  0  0
 20 69  1  0  0  0  0
 20 70  1  0  0  0  0
 21 43  2  0  0  0  0
 21 44  1  0  0  0  0
 21 71  1  0  0  0  0
 22 41  1  0  0  0  0
 22 42  1  0  0  0  0
 22 72  1  1  0  0  0
 23 28  1  0  0  0  0
 23 43  1  0  0  0  0
 24 44  2  0  0  0  0
 24 25  1  0  0  0  0
 24 73  1  0  0  0  0
 25 26  2  0  0  0  0
 25 74  1  0  0  0  0
 26 45  1  0  0  0  0
 26 75  1  0  0  0  0
 27 44  1  0  0  0  0
 27 45  2  0  0  0  0
 27 76  1  0  0  0  0
 30 31  1  0  0  0  0
 30 77  1  0  0  0  0
 31 33  1  0  0  0  0
 31 32  1  0  0  0  0
 32 78  1  0  0  0  0
 32 79  1  0  0  0  0
 32 80  1  0  0  0  0
 33 81  1  0  0  0  0
 33 82  1  0  0  0  0
 33 83  1  0  0  0  0
 34 95  1  1  0  0  0
 35 84  1  0  0  0  0
 36 37  1  0  0  0  0
 36 85  1  0  0  0  0
 37 86  1  0  0  0  0
 39 87  1  0  0  0  0
 40 88  1  1  0  0  0
 41 89  1  0  0  0  0
 41 90  1  0  0  0  0
 42 91  1  0  0  0  0
 42 92  1  0  0  0  0
 42 93  1  0  0  0  0
 43 94  1  0  0  0  0
M  CHG  1  34   1
M  END
$$$$
