1SA
 OpenBabel04051918103D

 14 14  0  0  1  0  0  0  0  0999 V2000
   -5.8378    1.0055   16.6171 S   0  0  0  0  0  0  0  0  0  0  0  0
   -7.2554    0.9967   16.3592 O   0  0  0  0  0  0  0  0  0  0  0  0
   -5.2978    1.1437   17.9526 O   0  0  0  0  0  0  0  0  0  0  0  0
   -5.2220   -0.4475   16.0282 N   0  0  0  0  0  0  0  0  0  0  0  0
   -3.8249    2.3041   15.3608 N   0  0  0  0  0  0  0  0  0  0  0  0
   -3.5669    3.4101   14.6139 N   0  3  0  0  0  0  0  0  0  0  0  0
   -6.0804    3.5963   14.9203 S   0  0  0  0  0  0  0  0  0  0  0  0
   -5.1105    2.2876   15.6195 C   0  0  1  0  0  0  0  0  0  0  0  0
   -4.5926    4.2357   14.2892 C   0  0  0  0  0  0  0  0  0  0  0  0
   -4.5593    5.3156   13.6138 N   0  0  0  0  0  0  0  0  0  0  0  0
   -5.6167   -0.8199   15.1599 H   0  0  0  0  0  0  0  0  0  0  0  0
   -4.8187   -1.0724   16.7251 H   0  0  0  0  0  0  0  0  0  0  0  0
   -2.6337    3.6285   14.2585 H   0  0  0  0  0  0  0  0  0  0  0  0
   -5.5278    5.6835   13.5526 H   0  0  0  0  0  0  0  0  0  0  0  0
  1  2  2  0  0  0  0
  1  3  2  0  0  0  0
  1  4  1  0  0  0  0
  4 11  1  0  0  0  0
  4 12  1  0  0  0  0
  5  6  1  0  0  0  0
  5  8  1  0  0  0  0
  6  9  1  0  0  0  0
  6 13  1  0  0  0  0
  7  8  1  0  0  0  0
  7  9  1  0  0  0  0
  8  1  1  6  0  0  0
  9 10  2  0  0  0  0
 10 14  1  0  0  0  0
M  CHG  1   6   1
M  END
$$$$
