1UN
 OpenBabel04051918543D

 86 89  0  0  1  0  0  0  0  0999 V2000
  -12.8822   13.7619   27.6063 C   0  0  2  0  0  0  0  0  0  0  0  0
  -12.6950   12.9597   28.9146 C   0  0  1  0  0  0  0  0  0  0  0  0
  -12.9067   11.4506   28.7279 C   0  0  0  0  0  0  0  0  0  0  0  0
  -12.2011   10.8976   27.4918 C   0  0  0  0  0  0  0  0  0  0  0  0
  -12.6069   11.6776   26.2504 C   0  0  0  0  0  0  0  0  0  0  0  0
  -12.1807   13.1278   26.3985 C   0  0  0  0  0  0  0  0  0  0  0  0
  -11.1076   15.3477   28.3620 N   0  3  1  0  0  0  0  0  0  0  0  0
  -11.0636   14.6825   29.7290 C   0  0  1  0  0  0  0  0  0  0  0  0
  -11.3321   13.2027   29.5576 C   0  0  0  0  0  0  0  0  0  0  0  0
  -12.4649   15.2186   27.7374 C   0  0  0  0  0  0  0  0  0  0  0  0
   -9.6848   14.8030   30.3684 C   0  0  0  0  0  0  0  0  0  0  0  0
   -9.7168   15.1639   31.6878 N   0  0  0  0  0  0  0  0  0  0  0  0
   -8.5131   15.3495   32.5028 C   0  0  0  0  0  0  0  0  0  0  0  0
   -7.6319   16.4484   31.8909 C   0  0  0  0  0  0  0  0  0  0  0  0
   -7.7430   14.0286   32.6235 C   0  0  0  0  0  0  0  0  0  0  0  0
   -8.9586   15.7865   33.9032 C   0  0  0  0  0  0  0  0  0  0  0  0
   -8.6801   14.6624   29.6762 O   0  0  0  0  0  0  0  0  0  0  0  0
  -10.6734   16.7944   28.4133 C   0  0  0  0  0  0  0  0  0  0  0  0
  -10.0933   17.2436   27.0626 C   0  0  2  0  0  0  0  0  0  0  0  0
   -8.6041   16.8521   26.9017 C   0  0  1  0  0  0  0  0  0  0  0  0
  -10.2529   18.6595   26.9352 O   0  0  0  0  0  0  0  0  0  0  0  0
   -8.2205   17.0794   25.5004 N   0  0  0  0  0  0  0  0  0  0  0  0
   -7.6985   17.6545   27.8471 C   0  0  0  0  0  0  0  0  0  0  0  0
   -8.0204   16.0433   24.6168 C   0  0  0  0  0  0  0  0  0  0  0  0
   -8.1837   14.8658   24.9106 O   0  0  0  0  0  0  0  0  0  0  0  0
   -7.6420   16.4654   23.2426 C   0  0  0  0  0  0  0  0  0  0  0  0
   -6.4439   17.1732   23.0892 C   0  0  0  0  0  0  0  0  0  0  0  0
   -6.0213   17.6102   21.8388 C   0  0  0  0  0  0  0  0  0  0  0  0
   -6.7981   17.3356   20.7213 C   0  0  0  0  0  0  0  0  0  0  0  0
   -7.9898   16.6216   20.8720 C   0  0  0  0  0  0  0  0  0  0  0  0
   -8.4368   16.1738   22.1261 C   0  0  0  0  0  0  0  0  0  0  0  0
   -8.7513   16.3533   19.7672 O   0  0  0  0  0  0  0  0  0  0  0  0
   -9.7272   15.4124   22.2384 C   0  0  0  0  0  0  0  0  0  0  0  0
   -6.0638   16.8695   28.0518 S   0  0  0  0  0  0  0  0  0  0  0  0
   -5.0930   17.5932   26.7502 C   0  0  0  0  0  0  0  0  0  0  0  0
   -3.9926   16.8595   26.2816 C   0  0  0  0  0  0  0  0  0  0  0  0
   -3.1578   17.3987   25.2947 C   0  0  0  0  0  0  0  0  0  0  0  0
   -3.4070   18.6527   24.7712 C   0  0  0  0  0  0  0  0  0  0  0  0
   -4.5050   19.3894   25.2281 C   0  0  0  0  0  0  0  0  0  0  0  0
   -5.3291   18.8571   26.2128 C   0  0  0  0  0  0  0  0  0  0  0  0
  -13.9574   13.7661   27.3811 H   0  0  0  0  0  0  0  0  0  0  0  0
  -13.4479   13.3165   29.6323 H   0  0  0  0  0  0  0  0  0  0  0  0
  -13.9814   11.2535   28.6459 H   0  0  0  0  0  0  0  0  0  0  0  0
  -12.5576   10.9083   29.6158 H   0  0  0  0  0  0  0  0  0  0  0  0
  -12.4518    9.8396   27.3672 H   0  0  0  0  0  0  0  0  0  0  0  0
  -11.1129   10.9537   27.6191 H   0  0  0  0  0  0  0  0  0  0  0  0
  -13.6951   11.6263   26.1173 H   0  0  0  0  0  0  0  0  0  0  0  0
  -12.1478   11.2435   25.3577 H   0  0  0  0  0  0  0  0  0  0  0  0
  -11.0898   13.1858   26.4979 H   0  0  0  0  0  0  0  0  0  0  0  0
  -12.4424   13.6803   25.4878 H   0  0  0  0  0  0  0  0  0  0  0  0
  -11.8206   15.1762   30.3449 H   0  0  0  0  0  0  0  0  0  0  0  0
  -10.5334   12.7354   28.9672 H   0  0  0  0  0  0  0  0  0  0  0  0
  -11.2992   12.7134   30.5424 H   0  0  0  0  0  0  0  0  0  0  0  0
  -13.1635   15.7744   28.3735 H   0  0  0  0  0  0  0  0  0  0  0  0
  -12.4321   15.7040   26.7565 H   0  0  0  0  0  0  0  0  0  0  0  0
  -10.6037   15.2244   32.1793 H   0  0  0  0  0  0  0  0  0  0  0  0
   -6.7436   16.6335   32.5004 H   0  0  0  0  0  0  0  0  0  0  0  0
   -8.1900   17.3885   31.7956 H   0  0  0  0  0  0  0  0  0  0  0  0
   -7.2850   16.1836   30.8895 H   0  0  0  0  0  0  0  0  0  0  0  0
   -6.8542   14.1473   33.2494 H   0  0  0  0  0  0  0  0  0  0  0  0
   -7.4168   13.6495   31.6495 H   0  0  0  0  0  0  0  0  0  0  0  0
   -8.3753   13.2536   33.0735 H   0  0  0  0  0  0  0  0  0  0  0  0
   -8.0986   15.9467   34.5611 H   0  0  0  0  0  0  0  0  0  0  0  0
   -9.6019   15.0263   34.3628 H   0  0  0  0  0  0  0  0  0  0  0  0
   -9.5389   16.7164   33.8625 H   0  0  0  0  0  0  0  0  0  0  0  0
   -9.9598   16.9333   29.2263 H   0  0  0  0  0  0  0  0  0  0  0  0
  -11.5530   17.3872   28.6933 H   0  0  0  0  0  0  0  0  0  0  0  0
  -10.6587   16.7892   26.2414 H   0  0  0  0  0  0  0  0  0  0  0  0
   -8.5105   15.7836   27.1138 H   0  0  0  0  0  0  0  0  0  0  0  0
  -11.2037   18.8715   26.9018 H   0  0  0  0  0  0  0  0  0  0  0  0
   -8.2045   18.0313   25.1550 H   0  0  0  0  0  0  0  0  0  0  0  0
   -8.1124   17.6942   28.8571 H   0  0  0  0  0  0  0  0  0  0  0  0
   -7.6389   18.6963   27.5310 H   0  0  0  0  0  0  0  0  0  0  0  0
   -5.8185   17.3564   23.9508 H   0  0  0  0  0  0  0  0  0  0  0  0
   -5.0795   18.1502   21.7367 H   0  0  0  0  0  0  0  0  0  0  0  0
   -6.4594   17.6726   19.7437 H   0  0  0  0  0  0  0  0  0  0  0  0
   -8.2868   16.6781   18.9775 H   0  0  0  0  0  0  0  0  0  0  0  0
   -9.9780   15.1479   23.2691 H   0  0  0  0  0  0  0  0  0  0  0  0
   -9.6672   14.4791   21.6707 H   0  0  0  0  0  0  0  0  0  0  0  0
  -10.5567   16.0196   21.8654 H   0  0  0  0  0  0  0  0  0  0  0  0
   -3.7766   15.8683   26.6736 H   0  0  0  0  0  0  0  0  0  0  0  0
   -2.3022   16.8177   24.9270 H   0  0  0  0  0  0  0  0  0  0  0  0
   -2.7639   19.0685   24.0037 H   0  0  0  0  0  0  0  0  0  0  0  0
   -4.7232   20.3644   24.8071 H   0  0  0  0  0  0  0  0  0  0  0  0
   -6.1538   19.4795   26.5433 H   0  0  0  0  0  0  0  0  0  0  0  0
  -10.3981   14.8333   27.8041 H   0  0  0  0  0  0  0  0  0  0  0  0
  1  2  1  0  0  0  0
  1  6  1  0  0  0  0
  1 10  1  0  0  0  0
  1 41  1  6  0  0  0
  2  3  1  0  0  0  0
  2  9  1  0  0  0  0
  2 42  1  1  0  0  0
  3  4  1  0  0  0  0
  3 43  1  0  0  0  0
  3 44  1  0  0  0  0
  4  5  1  0  0  0  0
  4 45  1  0  0  0  0
  4 46  1  0  0  0  0
  5  6  1  0  0  0  0
  5 47  1  0  0  0  0
  5 48  1  0  0  0  0
  6 49  1  0  0  0  0
  6 50  1  0  0  0  0
  7  8  1  0  0  0  0
  7 10  1  0  0  0  0
  7 18  1  0  0  0  0
  7 86  1  6  0  0  0
  8  9  1  0  0  0  0
  8 11  1  0  0  0  0
  8 51  1  1  0  0  0
  9 52  1  0  0  0  0
  9 53  1  0  0  0  0
 10 54  1  0  0  0  0
 10 55  1  0  0  0  0
 11 12  1  0  0  0  0
 11 17  2  0  0  0  0
 12 13  1  0  0  0  0
 12 56  1  0  0  0  0
 13 14  1  0  0  0  0
 13 15  1  0  0  0  0
 13 16  1  0  0  0  0
 14 57  1  0  0  0  0
 14 58  1  0  0  0  0
 14 59  1  0  0  0  0
 15 60  1  0  0  0  0
 15 61  1  0  0  0  0
 15 62  1  0  0  0  0
 16 63  1  0  0  0  0
 16 64  1  0  0  0  0
 16 65  1  0  0  0  0
 18 19  1  0  0  0  0
 18 66  1  0  0  0  0
 18 67  1  0  0  0  0
 19 20  1  0  0  0  0
 19 21  1  0  0  0  0
 19 68  1  6  0  0  0
 20 22  1  0  0  0  0
 20 23  1  0  0  0  0
 20 69  1  1  0  0  0
 21 70  1  0  0  0  0
 22 24  1  0  0  0  0
 22 71  1  0  0  0  0
 23 34  1  0  0  0  0
 23 72  1  0  0  0  0
 23 73  1  0  0  0  0
 24 25  2  0  0  0  0
 24 26  1  0  0  0  0
 26 27  2  0  0  0  0
 26 31  1  0  0  0  0
 27 28  1  0  0  0  0
 27 74  1  0  0  0  0
 28 29  2  0  0  0  0
 28 75  1  0  0  0  0
 29 30  1  0  0  0  0
 29 76  1  0  0  0  0
 30 31  2  0  0  0  0
 30 32  1  0  0  0  0
 31 33  1  0  0  0  0
 32 77  1  0  0  0  0
 33 78  1  0  0  0  0
 33 79  1  0  0  0  0
 33 80  1  0  0  0  0
 34 35  1  0  0  0  0
 35 36  2  0  0  0  0
 35 40  1  0  0  0  0
 36 37  1  0  0  0  0
 36 81  1  0  0  0  0
 37 38  2  0  0  0  0
 37 82  1  0  0  0  0
 38 39  1  0  0  0  0
 38 83  1  0  0  0  0
 39 40  2  0  0  0  0
 39 84  1  0  0  0  0
 40 85  1  0  0  0  0
M  CHG  1   7   1
M  END
$$$$
