1UN
 OpenBabel04051918563D

 86 89  0  0  1  0  0  0  0  0999 V2000
  -12.8635   58.3474    4.1941 C   0  0  2  0  0  0  0  0  0  0  0  0
  -13.3983   58.7102    5.5908 C   0  0  1  0  0  0  0  0  0  0  0  0
  -14.4893   59.7811    5.5178 C   0  0  0  0  0  0  0  0  0  0  0  0
  -15.5652   59.4800    4.4770 C   0  0  0  0  0  0  0  0  0  0  0  0
  -14.9648   59.1413    3.1155 C   0  0  0  0  0  0  0  0  0  0  0  0
  -13.9921   57.9820    3.2226 C   0  0  0  0  0  0  0  0  0  0  0  0
  -12.3047   56.0605    5.0308 N   0  3  1  0  0  0  0  0  0  0  0  0
  -12.7942   56.4271    6.4278 C   0  0  1  0  0  0  0  0  0  0  0  0
  -13.8972   57.4695    6.3279 C   0  0  0  0  0  0  0  0  0  0  0  0
  -11.8133   57.2555    4.2667 C   0  0  0  0  0  0  0  0  0  0  0  0
  -13.3762   55.2157    7.1502 C   0  0  0  0  0  0  0  0  0  0  0  0
  -13.0281   55.1630    8.4781 N   0  0  0  0  0  0  0  0  0  0  0  0
  -13.4645   54.1219    9.4031 C   0  0  0  0  0  0  0  0  0  0  0  0
  -13.0218   52.7359    8.9199 C   0  0  0  0  0  0  0  0  0  0  0  0
  -14.9858   54.1623    9.5765 C   0  0  0  0  0  0  0  0  0  0  0  0
  -12.7905   54.4163   10.7505 C   0  0  0  0  0  0  0  0  0  0  0  0
  -14.0072   54.3772    6.5229 O   0  0  0  0  0  0  0  0  0  0  0  0
  -11.2379   54.9872    5.0802 C   0  0  0  0  0  0  0  0  0  0  0  0
  -11.1790   54.1919    3.7676 C   0  0  2  0  0  0  0  0  0  0  0  0
  -12.3066   53.1326    3.6334 C   0  0  1  0  0  0  0  0  0  0  0  0
   -9.8957   53.5679    3.6594 O   0  0  0  0  0  0  0  0  0  0  0  0
  -12.2633   52.6025    2.2734 N   0  0  0  0  0  0  0  0  0  0  0  0
  -12.2191   52.0083    4.6786 C   0  0  0  0  0  0  0  0  0  0  0  0
  -13.2941   52.8441    1.3828 C   0  0  0  0  0  0  0  0  0  0  0  0
  -14.3042   53.4563    1.6882 O   0  0  0  0  0  0  0  0  0  0  0  0
  -13.0563   52.3899    0.0007 C   0  0  0  0  0  0  0  0  0  0  0  0
  -12.9440   51.0212   -0.2542 C   0  0  0  0  0  0  0  0  0  0  0  0
  -12.7524   50.5448   -1.5476 C   0  0  0  0  0  0  0  0  0  0  0  0
  -12.6743   51.4434   -2.6005 C   0  0  0  0  0  0  0  0  0  0  0  0
  -12.7750   52.8152   -2.3520 C   0  0  0  0  0  0  0  0  0  0  0  0
  -12.9665   53.3193   -1.0543 C   0  0  0  0  0  0  0  0  0  0  0  0
  -12.6879   53.6905   -3.3961 O   0  0  0  0  0  0  0  0  0  0  0  0
  -13.0639   54.7962   -0.8080 C   0  0  0  0  0  0  0  0  0  0  0  0
  -13.7065   50.9382    4.7282 S   0  0  0  0  0  0  0  0  0  0  0  0
  -13.5111   49.7640    3.3965 C   0  0  0  0  0  0  0  0  0  0  0  0
  -14.6890   49.3024    2.7860 C   0  0  0  0  0  0  0  0  0  0  0  0
  -14.6539   48.3100    1.8006 C   0  0  0  0  0  0  0  0  0  0  0  0
  -13.4353   47.7613    1.4146 C   0  0  0  0  0  0  0  0  0  0  0  0
  -12.2548   48.2118    2.0099 C   0  0  0  0  0  0  0  0  0  0  0  0
  -12.2915   49.2079    2.9976 C   0  0  0  0  0  0  0  0  0  0  0  0
  -12.3597   59.2348    3.7872 H   0  0  0  0  0  0  0  0  0  0  0  0
  -12.5658   59.1229    6.1788 H   0  0  0  0  0  0  0  0  0  0  0  0
  -14.0165   60.7400    5.2726 H   0  0  0  0  0  0  0  0  0  0  0  0
  -14.9577   59.9061    6.5019 H   0  0  0  0  0  0  0  0  0  0  0  0
  -16.2253   60.3481    4.3794 H   0  0  0  0  0  0  0  0  0  0  0  0
  -16.1858   58.6437    4.8173 H   0  0  0  0  0  0  0  0  0  0  0  0
  -14.4359   60.0184    2.7205 H   0  0  0  0  0  0  0  0  0  0  0  0
  -15.7613   58.8964    2.4059 H   0  0  0  0  0  0  0  0  0  0  0  0
  -14.5264   57.0776    3.5488 H   0  0  0  0  0  0  0  0  0  0  0  0
  -13.5764   57.7518    2.2316 H   0  0  0  0  0  0  0  0  0  0  0  0
  -11.9187   56.8187    6.9650 H   0  0  0  0  0  0  0  0  0  0  0  0
  -14.7734   57.0366    5.8310 H   0  0  0  0  0  0  0  0  0  0  0  0
  -14.2310   57.7416    7.3376 H   0  0  0  0  0  0  0  0  0  0  0  0
  -10.9166   57.6168    4.7828 H   0  0  0  0  0  0  0  0  0  0  0  0
  -11.5321   56.9272    3.2629 H   0  0  0  0  0  0  0  0  0  0  0  0
  -12.5291   55.9427    8.8895 H   0  0  0  0  0  0  0  0  0  0  0  0
  -13.3301   51.9614    9.6283 H   0  0  0  0  0  0  0  0  0  0  0  0
  -11.9330   52.6890    8.8090 H   0  0  0  0  0  0  0  0  0  0  0  0
  -13.4605   52.4814    7.9511 H   0  0  0  0  0  0  0  0  0  0  0  0
  -15.3176   53.3911   10.2777 H   0  0  0  0  0  0  0  0  0  0  0  0
  -15.5053   53.9958    8.6270 H   0  0  0  0  0  0  0  0  0  0  0  0
  -15.3120   55.1363    9.9603 H   0  0  0  0  0  0  0  0  0  0  0  0
  -13.0636   53.6660   11.5070 H   0  0  0  0  0  0  0  0  0  0  0  0
  -13.0823   55.4013   11.1268 H   0  0  0  0  0  0  0  0  0  0  0  0
  -11.7026   54.4181   10.6476 H   0  0  0  0  0  0  0  0  0  0  0  0
  -11.4055   54.3368    5.9391 H   0  0  0  0  0  0  0  0  0  0  0  0
  -10.2848   55.4933    5.2824 H   0  0  0  0  0  0  0  0  0  0  0  0
  -11.2610   54.8784    2.9180 H   0  0  0  0  0  0  0  0  0  0  0  0
  -13.2572   53.6602    3.7756 H   0  0  0  0  0  0  0  0  0  0  0  0
   -9.2052   54.2568    3.6329 H   0  0  0  0  0  0  0  0  0  0  0  0
  -11.4208   52.1356    1.9567 H   0  0  0  0  0  0  0  0  0  0  0  0
  -12.2032   52.4540    5.6765 H   0  0  0  0  0  0  0  0  0  0  0  0
  -11.2945   51.4355    4.5851 H   0  0  0  0  0  0  0  0  0  0  0  0
  -13.0439   50.3179    0.5547 H   0  0  0  0  0  0  0  0  0  0  0  0
  -12.6938   49.4733   -1.7318 H   0  0  0  0  0  0  0  0  0  0  0  0
  -12.5503   51.0627   -3.6110 H   0  0  0  0  0  0  0  0  0  0  0  0
  -12.5946   53.1825   -4.2224 H   0  0  0  0  0  0  0  0  0  0  0  0
  -13.1840   55.0463    0.2498 H   0  0  0  0  0  0  0  0  0  0  0  0
  -13.9255   55.2150   -1.3354 H   0  0  0  0  0  0  0  0  0  0  0  0
  -12.1459   55.2942   -1.1331 H   0  0  0  0  0  0  0  0  0  0  0  0
  -15.6548   49.7113    3.0789 H   0  0  0  0  0  0  0  0  0  0  0  0
  -15.5802   47.9698    1.3411 H   0  0  0  0  0  0  0  0  0  0  0  0
  -13.4052   46.9945    0.6439 H   0  0  0  0  0  0  0  0  0  0  0  0
  -11.3029   47.7871    1.6983 H   0  0  0  0  0  0  0  0  0  0  0  0
  -11.3565   49.5176    3.4512 H   0  0  0  0  0  0  0  0  0  0  0  0
  -13.1397   55.6559    4.5698 H   0  0  0  0  0  0  0  0  0  0  0  0
  1  2  1  0  0  0  0
  1  6  1  0  0  0  0
  1 10  1  0  0  0  0
  1 41  1  6  0  0  0
  2  3  1  0  0  0  0
  2  9  1  0  0  0  0
  2 42  1  1  0  0  0
  3  4  1  0  0  0  0
  3 43  1  0  0  0  0
  3 44  1  0  0  0  0
  4  5  1  0  0  0  0
  4 45  1  0  0  0  0
  4 46  1  0  0  0  0
  5  6  1  0  0  0  0
  5 47  1  0  0  0  0
  5 48  1  0  0  0  0
  6 49  1  0  0  0  0
  6 50  1  0  0  0  0
  7  8  1  0  0  0  0
  7 10  1  0  0  0  0
  7 18  1  0  0  0  0
  7 86  1  6  0  0  0
  8  9  1  0  0  0  0
  8 11  1  0  0  0  0
  8 51  1  1  0  0  0
  9 52  1  0  0  0  0
  9 53  1  0  0  0  0
 10 54  1  0  0  0  0
 10 55  1  0  0  0  0
 11 12  1  0  0  0  0
 11 17  2  0  0  0  0
 12 13  1  0  0  0  0
 12 56  1  0  0  0  0
 13 14  1  0  0  0  0
 13 15  1  0  0  0  0
 13 16  1  0  0  0  0
 14 57  1  0  0  0  0
 14 58  1  0  0  0  0
 14 59  1  0  0  0  0
 15 60  1  0  0  0  0
 15 61  1  0  0  0  0
 15 62  1  0  0  0  0
 16 63  1  0  0  0  0
 16 64  1  0  0  0  0
 16 65  1  0  0  0  0
 18 19  1  0  0  0  0
 18 66  1  0  0  0  0
 18 67  1  0  0  0  0
 19 20  1  0  0  0  0
 19 21  1  0  0  0  0
 19 68  1  6  0  0  0
 20 22  1  0  0  0  0
 20 23  1  0  0  0  0
 20 69  1  1  0  0  0
 21 70  1  0  0  0  0
 22 24  1  0  0  0  0
 22 71  1  0  0  0  0
 23 34  1  0  0  0  0
 23 72  1  0  0  0  0
 23 73  1  0  0  0  0
 24 25  2  0  0  0  0
 24 26  1  0  0  0  0
 26 27  2  0  0  0  0
 26 31  1  0  0  0  0
 27 28  1  0  0  0  0
 27 74  1  0  0  0  0
 28 29  2  0  0  0  0
 28 75  1  0  0  0  0
 29 30  1  0  0  0  0
 29 76  1  0  0  0  0
 30 31  2  0  0  0  0
 30 32  1  0  0  0  0
 31 33  1  0  0  0  0
 32 77  1  0  0  0  0
 33 78  1  0  0  0  0
 33 79  1  0  0  0  0
 33 80  1  0  0  0  0
 34 35  1  0  0  0  0
 35 36  2  0  0  0  0
 35 40  1  0  0  0  0
 36 37  1  0  0  0  0
 36 81  1  0  0  0  0
 37 38  2  0  0  0  0
 37 82  1  0  0  0  0
 38 39  1  0  0  0  0
 38 83  1  0  0  0  0
 39 40  2  0  0  0  0
 39 84  1  0  0  0  0
 40 85  1  0  0  0  0
M  CHG  1   7   1
M  END
$$$$
