1UN
 OpenBabel04051918543D

 86 89  0  0  1  0  0  0  0  0999 V2000
  -12.5472   13.3318   27.2382 C   0  0  2  0  0  0  0  0  0  0  0  0
  -12.4545   12.6142   28.5912 C   0  0  1  0  0  0  0  0  0  0  0  0
  -12.7686   11.1188   28.4846 C   0  0  0  0  0  0  0  0  0  0  0  0
  -11.9875   10.4316   27.3696 C   0  0  0  0  0  0  0  0  0  0  0  0
  -12.2130   11.1386   26.0415 C   0  0  0  0  0  0  0  0  0  0  0  0
  -11.7962   12.6008   26.1214 C   0  0  0  0  0  0  0  0  0  0  0  0
  -10.7362   14.8896   27.9482 N   0  3  1  0  0  0  0  0  0  0  0  0
  -10.6813   14.2487   29.3061 C   0  0  1  0  0  0  0  0  0  0  0  0
  -11.0899   12.7976   29.2415 C   0  0  0  0  0  0  0  0  0  0  0  0
  -12.0965   14.7794   27.3390 C   0  0  0  0  0  0  0  0  0  0  0  0
   -9.2545   14.2583   29.8560 C   0  0  0  0  0  0  0  0  0  0  0  0
   -9.2336   14.7704   31.1133 N   0  0  0  0  0  0  0  0  0  0  0  0
   -8.0615   14.8177   31.9779 C   0  0  0  0  0  0  0  0  0  0  0  0
   -7.0669   15.8321   31.4451 C   0  0  0  0  0  0  0  0  0  0  0  0
   -7.4269   13.4415   32.1172 C   0  0  0  0  0  0  0  0  0  0  0  0
   -8.5433   15.2490   33.3604 C   0  0  0  0  0  0  0  0  0  0  0  0
   -8.3325   13.8989   29.1829 O   0  0  0  0  0  0  0  0  0  0  0  0
  -10.2783   16.3225   28.0172 C   0  0  0  0  0  0  0  0  0  0  0  0
   -9.7602   16.7676   26.6604 C   0  0  2  0  0  0  0  0  0  0  0  0
   -8.2828   16.4239   26.4716 C   0  0  1  0  0  0  0  0  0  0  0  0
   -9.9994   18.1610   26.4834 O   0  0  0  0  0  0  0  0  0  0  0  0
   -7.9564   16.6372   25.0634 N   0  0  0  0  0  0  0  0  0  0  0  0
   -7.3516   17.2610   27.3406 C   0  0  0  0  0  0  0  0  0  0  0  0
   -7.8677   15.6257   24.1368 C   0  0  0  0  0  0  0  0  0  0  0  0
   -8.0850   14.4572   24.4358 O   0  0  0  0  0  0  0  0  0  0  0  0
   -7.5048   16.0412   22.7589 C   0  0  0  0  0  0  0  0  0  0  0  0
   -6.2870   16.7262   22.6097 C   0  0  0  0  0  0  0  0  0  0  0  0
   -5.8626   17.1300   21.3456 C   0  0  0  0  0  0  0  0  0  0  0  0
   -6.6385   16.8617   20.2191 C   0  0  0  0  0  0  0  0  0  0  0  0
   -7.8545   16.1813   20.3566 C   0  0  0  0  0  0  0  0  0  0  0  0
   -8.3137   15.7526   21.6282 C   0  0  0  0  0  0  0  0  0  0  0  0
   -8.5793   15.9508   19.2187 O   0  0  0  0  0  0  0  0  0  0  0  0
   -9.6260   15.0168   21.7644 C   0  0  0  0  0  0  0  0  0  0  0  0
   -5.7415   16.4148   27.5192 S   0  0  0  0  0  0  0  0  0  0  0  0
   -4.7876   17.1152   26.1902 C   0  0  0  0  0  0  0  0  0  0  0  0
   -3.7169   16.3710   25.6896 C   0  0  0  0  0  0  0  0  0  0  0  0
   -2.9208   16.8942   24.6688 C   0  0  0  0  0  0  0  0  0  0  0  0
   -3.1970   18.1617   24.1531 C   0  0  0  0  0  0  0  0  0  0  0  0
   -4.2577   18.9090   24.6491 C   0  0  0  0  0  0  0  0  0  0  0  0
   -5.0418   18.3826   25.6721 C   0  0  0  0  0  0  0  0  0  0  0  0
  -13.6036   13.3595   26.9547 H   0  0  0  0  0  0  0  0  0  0  0  0
  -13.1997   13.0673   29.2572 H   0  0  0  0  0  0  0  0  0  0  0  0
  -13.8411   10.9963   28.2924 H   0  0  0  0  0  0  0  0  0  0  0  0
  -12.5392   10.6293   29.4392 H   0  0  0  0  0  0  0  0  0  0  0  0
  -12.3037    9.3853   27.2904 H   0  0  0  0  0  0  0  0  0  0  0  0
  -10.9177   10.4379   27.6089 H   0  0  0  0  0  0  0  0  0  0  0  0
  -13.2763   11.0796   25.7790 H   0  0  0  0  0  0  0  0  0  0  0  0
  -11.6381   10.6364   25.2561 H   0  0  0  0  0  0  0  0  0  0  0  0
  -10.7150   12.6555   26.2924 H   0  0  0  0  0  0  0  0  0  0  0  0
  -12.0082   13.0895   25.1614 H   0  0  0  0  0  0  0  0  0  0  0  0
  -11.3582   14.8224   29.9485 H   0  0  0  0  0  0  0  0  0  0  0  0
  -10.3285   12.2312   28.6923 H   0  0  0  0  0  0  0  0  0  0  0  0
  -11.1165   12.4007   30.2646 H   0  0  0  0  0  0  0  0  0  0  0  0
  -12.7709   15.3538   27.9803 H   0  0  0  0  0  0  0  0  0  0  0  0
  -12.0523   15.2416   26.3532 H   0  0  0  0  0  0  0  0  0  0  0  0
  -10.0750   15.1687   31.4922 H   0  0  0  0  0  0  0  0  0  0  0  0
   -6.1891   15.8869   32.0984 H   0  0  0  0  0  0  0  0  0  0  0  0
   -7.5313   16.8238   31.3977 H   0  0  0  0  0  0  0  0  0  0  0  0
   -6.7409   15.5561   30.4412 H   0  0  0  0  0  0  0  0  0  0  0  0
   -6.5649   13.4855   32.7904 H   0  0  0  0  0  0  0  0  0  0  0  0
   -7.0890   13.0700   31.1468 H   0  0  0  0  0  0  0  0  0  0  0  0
   -8.1535   12.7295   32.5258 H   0  0  0  0  0  0  0  0  0  0  0  0
   -7.7071   15.2909   34.0633 H   0  0  0  0  0  0  0  0  0  0  0  0
   -9.2868   14.5363   33.7392 H   0  0  0  0  0  0  0  0  0  0  0  0
   -9.0140   16.2366   33.3072 H   0  0  0  0  0  0  0  0  0  0  0  0
   -9.5092   16.4120   28.7850 H   0  0  0  0  0  0  0  0  0  0  0  0
  -11.1421   16.9181   28.3275 H   0  0  0  0  0  0  0  0  0  0  0  0
  -10.3160   16.2421   25.8793 H   0  0  0  0  0  0  0  0  0  0  0  0
   -8.1383   15.3638   26.7209 H   0  0  0  0  0  0  0  0  0  0  0  0
  -10.9540   18.3457   26.5943 H   0  0  0  0  0  0  0  0  0  0  0  0
   -7.8323   17.5851   24.7472 H   0  0  0  0  0  0  0  0  0  0  0  0
   -7.7438   17.3730   28.3489 H   0  0  0  0  0  0  0  0  0  0  0  0
   -7.2511   18.2596   26.9277 H   0  0  0  0  0  0  0  0  0  0  0  0
   -5.6577   16.9297   23.4653 H   0  0  0  0  0  0  0  0  0  0  0  0
   -4.9152   17.6562   21.2361 H   0  0  0  0  0  0  0  0  0  0  0  0
   -6.2806   17.1916   19.2454 H   0  0  0  0  0  0  0  0  0  0  0  0
   -8.1154   16.2996   18.4368 H   0  0  0  0  0  0  0  0  0  0  0  0
   -9.8499   14.7654   22.8078 H   0  0  0  0  0  0  0  0  0  0  0  0
   -9.6084   14.0759   21.2009 H   0  0  0  0  0  0  0  0  0  0  0  0
  -10.4635   15.6251   21.3994 H   0  0  0  0  0  0  0  0  0  0  0  0
   -3.4986   15.3838   26.0877 H   0  0  0  0  0  0  0  0  0  0  0  0
   -2.0947   16.3152   24.2773 H   0  0  0  0  0  0  0  0  0  0  0  0
   -2.5780   18.5693   23.3596 H   0  0  0  0  0  0  0  0  0  0  0  0
   -4.4883   19.8850   24.2475 H   0  0  0  0  0  0  0  0  0  0  0  0
   -5.8449   18.9893   26.0504 H   0  0  0  0  0  0  0  0  0  0  0  0
  -10.0528   14.3756   27.3590 H   0  0  0  0  0  0  0  0  0  0  0  0
  1  2  1  0  0  0  0
  1  6  1  0  0  0  0
  1 10  1  0  0  0  0
  1 41  1  6  0  0  0
  2  3  1  0  0  0  0
  2  9  1  0  0  0  0
  2 42  1  1  0  0  0
  3  4  1  0  0  0  0
  3 43  1  0  0  0  0
  3 44  1  0  0  0  0
  4  5  1  0  0  0  0
  4 45  1  0  0  0  0
  4 46  1  0  0  0  0
  5  6  1  0  0  0  0
  5 47  1  0  0  0  0
  5 48  1  0  0  0  0
  6 49  1  0  0  0  0
  6 50  1  0  0  0  0
  7  8  1  0  0  0  0
  7 10  1  0  0  0  0
  7 18  1  0  0  0  0
  7 86  1  6  0  0  0
  8  9  1  0  0  0  0
  8 11  1  0  0  0  0
  8 51  1  1  0  0  0
  9 52  1  0  0  0  0
  9 53  1  0  0  0  0
 10 54  1  0  0  0  0
 10 55  1  0  0  0  0
 11 12  1  0  0  0  0
 11 17  2  0  0  0  0
 12 13  1  0  0  0  0
 12 56  1  0  0  0  0
 13 14  1  0  0  0  0
 13 15  1  0  0  0  0
 13 16  1  0  0  0  0
 14 57  1  0  0  0  0
 14 58  1  0  0  0  0
 14 59  1  0  0  0  0
 15 60  1  0  0  0  0
 15 61  1  0  0  0  0
 15 62  1  0  0  0  0
 16 63  1  0  0  0  0
 16 64  1  0  0  0  0
 16 65  1  0  0  0  0
 18 19  1  0  0  0  0
 18 66  1  0  0  0  0
 18 67  1  0  0  0  0
 19 20  1  0  0  0  0
 19 21  1  0  0  0  0
 19 68  1  6  0  0  0
 20 22  1  0  0  0  0
 20 23  1  0  0  0  0
 20 69  1  1  0  0  0
 21 70  1  0  0  0  0
 22 24  1  0  0  0  0
 22 71  1  0  0  0  0
 23 34  1  0  0  0  0
 23 72  1  0  0  0  0
 23 73  1  0  0  0  0
 24 25  2  0  0  0  0
 24 26  1  0  0  0  0
 26 27  2  0  0  0  0
 26 31  1  0  0  0  0
 27 28  1  0  0  0  0
 27 74  1  0  0  0  0
 28 29  2  0  0  0  0
 28 75  1  0  0  0  0
 29 30  1  0  0  0  0
 29 76  1  0  0  0  0
 30 31  2  0  0  0  0
 30 32  1  0  0  0  0
 31 33  1  0  0  0  0
 32 77  1  0  0  0  0
 33 78  1  0  0  0  0
 33 79  1  0  0  0  0
 33 80  1  0  0  0  0
 34 35  1  0  0  0  0
 35 36  2  0  0  0  0
 35 40  1  0  0  0  0
 36 37  1  0  0  0  0
 36 81  1  0  0  0  0
 37 38  2  0  0  0  0
 37 82  1  0  0  0  0
 38 39  1  0  0  0  0
 38 83  1  0  0  0  0
 39 40  2  0  0  0  0
 39 84  1  0  0  0  0
 40 85  1  0  0  0  0
M  CHG  1   7   1
M  END
$$$$
