227
 OpenBabel04051918353D

 64 68  0  0  0  0  0  0  0  0999 V2000
    7.8900   24.8395   36.5839 C   0  0  0  0  0  0  0  0  0  0  0  0
   10.1107   25.2500   37.6038 C   0  0  0  0  0  0  0  0  0  0  0  0
   11.7639   18.4962   42.1874 C   0  0  0  0  0  0  0  0  0  0  0  0
   13.4417   16.9024   43.6981 C   0  0  0  0  0  0  0  0  0  0  0  0
   12.3707   17.3902   41.5917 C   0  0  0  0  0  0  0  0  0  0  0  0
   13.2352   16.5790   42.3539 C   0  0  0  0  0  0  0  0  0  0  0  0
   11.3462   23.7030   43.5936 C   0  0  0  0  0  0  0  0  0  0  0  0
   14.8536   14.7963   42.3305 C   0  0  0  0  0  0  0  0  0  0  0  0
   10.5920   20.9376   43.5466 N   0  0  0  0  0  0  0  0  0  0  0  0
   11.2526   17.8394   39.5159 C   0  0  0  0  0  0  0  0  0  0  0  0
   10.6367   23.0874   44.7792 C   0  0  0  0  0  0  0  0  0  0  0  0
   13.7702   15.4839   41.7161 O   0  0  0  0  0  0  0  0  0  0  0  0
   12.2251   23.5919   41.3374 C   0  0  0  0  0  0  0  0  0  0  0  0
   12.3964   21.3931   39.8029 O   0  0  0  0  0  0  0  0  0  0  0  0
   12.5384   22.8167   39.7372 S   0  0  0  0  0  0  0  0  0  0  0  0
   13.7366   23.4374   39.1982 O   0  0  0  0  0  0  0  0  0  0  0  0
   11.2311   23.3862   38.7886 N   0  0  0  0  0  0  0  0  0  0  0  0
   11.0640   24.8631   38.7357 C   0  0  0  0  0  0  0  0  0  0  0  0
    8.7712   24.5374   37.7584 N   0  3  0  0  0  0  0  0  0  0  0  0
    8.9212   23.0319   37.9200 C   0  0  0  0  0  0  0  0  0  0  0  0
    9.9432   22.6816   39.0065 C   0  0  0  0  0  0  0  0  0  0  0  0
   12.7145   24.9033   41.4887 C   0  0  0  0  0  0  0  0  0  0  0  0
   12.5309   25.6056   42.6738 C   0  0  0  0  0  0  0  0  0  0  0  0
   11.5531   22.9617   42.4056 C   0  0  0  0  0  0  0  0  0  0  0  0
   11.0426   21.5410   42.2935 C   0  0  0  0  0  0  0  0  0  0  0  0
   11.8529   25.0095   43.7249 C   0  0  0  0  0  0  0  0  0  0  0  0
    9.8096   21.8688   44.3725 C   0  0  0  0  0  0  0  0  0  0  0  0
   11.4195   19.9960   44.1948 C   0  0  0  0  0  0  0  0  0  0  0  0
   11.9998   18.8666   43.5345 C   0  0  0  0  0  0  0  0  0  0  0  0
   11.5782   20.1297   45.5234 N   0  0  0  0  0  0  0  0  0  0  0  0
   12.3201   19.2094   46.1537 C   0  0  0  0  0  0  0  0  0  0  0  0
   12.9927   18.1923   45.6015 N   0  0  0  0  0  0  0  0  0  0  0  0
   12.8217   18.0088   44.2912 C   0  0  0  0  0  0  0  0  0  0  0  0
   12.1670   17.0523   40.2725 O   0  0  0  0  0  0  0  0  0  0  0  0
    7.8057   25.9240   36.4956 H   0  0  0  0  0  0  0  0  0  0  0  0
    6.9151   24.3863   36.7730 H   0  0  0  0  0  0  0  0  0  0  0  0
    8.3575   24.4095   35.6932 H   0  0  0  0  0  0  0  0  0  0  0  0
   10.5187   24.9691   36.6303 H   0  0  0  0  0  0  0  0  0  0  0  0
    9.8997   26.3247   37.6338 H   0  0  0  0  0  0  0  0  0  0  0  0
   11.0706   19.0885   41.6148 H   0  0  0  0  0  0  0  0  0  0  0  0
   14.0591   16.2791   44.3317 H   0  0  0  0  0  0  0  0  0  0  0  0
   15.1524   13.9814   41.6620 H   0  0  0  0  0  0  0  0  0  0  0  0
   14.5675   14.3389   43.2841 H   0  0  0  0  0  0  0  0  0  0  0  0
   15.7206   15.4537   42.4554 H   0  0  0  0  0  0  0  0  0  0  0  0
   11.2440   17.4572   38.4917 H   0  0  0  0  0  0  0  0  0  0  0  0
   11.5555   18.8916   39.4610 H   0  0  0  0  0  0  0  0  0  0  0  0
   10.2325   17.7559   39.9095 H   0  0  0  0  0  0  0  0  0  0  0  0
    9.9696   23.8386   45.2243 H   0  0  0  0  0  0  0  0  0  0  0  0
   11.3826   22.8137   45.5292 H   0  0  0  0  0  0  0  0  0  0  0  0
   10.6375   25.2018   39.6857 H   0  0  0  0  0  0  0  0  0  0  0  0
   12.0221   25.3629   38.5708 H   0  0  0  0  0  0  0  0  0  0  0  0
    9.2174   22.6267   36.9466 H   0  0  0  0  0  0  0  0  0  0  0  0
    7.9336   22.6457   38.1965 H   0  0  0  0  0  0  0  0  0  0  0  0
    9.5464   22.9730   39.9810 H   0  0  0  0  0  0  0  0  0  0  0  0
   10.0888   21.5973   38.9763 H   0  0  0  0  0  0  0  0  0  0  0  0
   13.2570   25.3888   40.6804 H   0  0  0  0  0  0  0  0  0  0  0  0
   12.9352   26.6085   42.7869 H   0  0  0  0  0  0  0  0  0  0  0  0
   10.1710   21.5648   41.6230 H   0  0  0  0  0  0  0  0  0  0  0  0
   11.8307   20.9551   41.8485 H   0  0  0  0  0  0  0  0  0  0  0  0
   11.7366   25.5508   44.6619 H   0  0  0  0  0  0  0  0  0  0  0  0
    9.3598   21.3826   45.2480 H   0  0  0  0  0  0  0  0  0  0  0  0
    8.9618   22.2198   43.7649 H   0  0  0  0  0  0  0  0  0  0  0  0
   12.3549   19.2669   47.2380 H   0  0  0  0  0  0  0  0  0  0  0  0
    8.3156   24.9023   38.6055 H   0  0  0  0  0  0  0  0  0  0  0  0
  1 19  1  0  0  0  0
  1 35  1  0  0  0  0
  1 36  1  0  0  0  0
  1 37  1  0  0  0  0
  2 18  1  0  0  0  0
  2 19  1  0  0  0  0
  2 38  1  0  0  0  0
  2 39  1  0  0  0  0
  3  5  2  0  0  0  0
  3 29  1  0  0  0  0
  3 40  1  0  0  0  0
  4  6  2  0  0  0  0
  4 33  1  0  0  0  0
  4 41  1  0  0  0  0
  5  6  1  0  0  0  0
  5 34  1  0  0  0  0
  6 12  1  0  0  0  0
  7 11  1  0  0  0  0
  7 24  2  0  0  0  0
  7 26  1  0  0  0  0
  8 12  1  0  0  0  0
  8 42  1  0  0  0  0
  8 43  1  0  0  0  0
  8 44  1  0  0  0  0
  9 25  1  0  0  0  0
  9 27  1  0  0  0  0
  9 28  1  0  0  0  0
 10 34  1  0  0  0  0
 10 45  1  0  0  0  0
 10 46  1  0  0  0  0
 10 47  1  0  0  0  0
 11 27  1  0  0  0  0
 11 48  1  0  0  0  0
 11 49  1  0  0  0  0
 13 15  1  0  0  0  0
 13 22  2  0  0  0  0
 13 24  1  0  0  0  0
 14 15  2  0  0  0  0
 15 16  2  0  0  0  0
 15 17  1  0  0  0  0
 17 18  1  0  0  0  0
 17 21  1  0  0  0  0
 18 50  1  0  0  0  0
 18 51  1  0  0  0  0
 19 20  1  0  0  0  0
 19 64  1  0  0  0  0
 20 21  1  0  0  0  0
 20 52  1  0  0  0  0
 20 53  1  0  0  0  0
 21 54  1  0  0  0  0
 21 55  1  0  0  0  0
 22 23  1  0  0  0  0
 22 56  1  0  0  0  0
 23 26  2  0  0  0  0
 23 57  1  0  0  0  0
 24 25  1  0  0  0  0
 25 58  1  0  0  0  0
 25 59  1  0  0  0  0
 26 60  1  0  0  0  0
 27 61  1  0  0  0  0
 27 62  1  0  0  0  0
 28 29  2  0  0  0  0
 28 30  1  0  0  0  0
 29 33  1  0  0  0  0
 30 31  2  0  0  0  0
 31 32  1  0  0  0  0
 31 63  1  0  0  0  0
 32 33  2  0  0  0  0
M  CHG  1  19   1
M  END
$$$$
