23C
 OpenBabel04051919193D

 42 45  0  0  1  0  0  0  0  0999 V2000
   22.9481    9.3470   15.7119 C   0  0  0  0  0  0  0  0  0  0  0  0
   22.4094    9.3147   17.0150 C   0  0  0  0  0  0  0  0  0  0  0  0
   21.3190   10.1060   17.3783 C   0  0  0  0  0  0  0  0  0  0  0  0
   20.7364   10.9568   16.4482 C   0  0  0  0  0  0  0  0  0  0  0  0
   21.2455   11.0132   15.1524 C   0  0  0  0  0  0  0  0  0  0  0  0
   22.3408   10.2220   14.7715 C   0  0  0  0  0  0  0  0  0  0  0  0
   22.8238   10.2811   13.4566 C   0  0  0  0  0  0  0  0  0  0  0  0
   23.9001    9.4943   13.0595 C   0  0  0  0  0  0  0  0  0  0  0  0
   24.5059    8.6382   13.9736 C   0  0  0  0  0  0  0  0  0  0  0  0
   24.0427    8.5402   15.2985 C   0  0  0  0  0  0  0  0  0  0  0  0
   24.6763    7.4765   16.2010 C   0  0  0  0  0  0  0  0  0  0  0  0
   23.7795    6.2353   16.3474 C   0  0  2  0  0  0  0  0  0  0  0  0
   24.3817    5.2201   17.3455 C   0  0  0  0  0  0  0  0  0  0  0  0
   24.1826    5.5003   18.5683 O   0  0  0  0  0  0  0  0  0  0  0  0
   24.9810    4.2189   16.8628 O   0  0  0  0  0  0  0  0  0  0  0  0
   23.3595    5.6745   15.0524 N   0  0  0  0  0  0  0  0  0  0  0  0
   22.0432    5.5815   14.6996 C   0  0  0  0  0  0  0  0  0  0  0  0
   21.0398    5.8829   15.3290 O   0  0  0  0  0  0  0  0  0  0  0  0
   22.0085    5.0809   13.3335 C   0  0  0  0  0  0  0  0  0  0  0  0
   20.9312    4.8195   12.5068 C   0  0  0  0  0  0  0  0  0  0  0  0
   21.2004    4.3500   11.2094 C   0  0  0  0  0  0  0  0  0  0  0  0
   20.0707    4.0037   10.2640 C   0  0  0  0  0  0  0  0  0  0  0  0
   18.9690    3.6448   10.7820 O   0  0  0  0  0  0  0  0  0  0  0  0
   20.3197    4.0879    9.0202 O   0  0  0  0  0  0  0  0  0  0  0  0
   22.5497    4.1868   10.7948 C   0  0  0  0  0  0  0  0  0  0  0  0
   23.6221    4.4697   11.6491 C   0  0  0  0  0  0  0  0  0  0  0  0
   23.3145    4.9064   12.9212 C   0  0  0  0  0  0  0  0  0  0  0  0
   24.1905    5.3155   14.0199 C   0  0  0  0  0  0  0  0  0  0  0  0
   25.4002    5.4011   13.8857 O   0  0  0  0  0  0  0  0  0  0  0  0
   22.8229    8.6469   17.7688 H   0  0  0  0  0  0  0  0  0  0  0  0
   20.9221   10.0328   18.3864 H   0  0  0  0  0  0  0  0  0  0  0  0
   19.8797   11.5609   16.7246 H   0  0  0  0  0  0  0  0  0  0  0  0
   20.7665   11.6707   14.4293 H   0  0  0  0  0  0  0  0  0  0  0  0
   22.3516   10.9312   12.7244 H   0  0  0  0  0  0  0  0  0  0  0  0
   24.2536    9.5262   12.0335 H   0  0  0  0  0  0  0  0  0  0  0  0
   25.3229    8.0024   13.6366 H   0  0  0  0  0  0  0  0  0  0  0  0
   24.8996    7.9221   17.1798 H   0  0  0  0  0  0  0  0  0  0  0  0
   25.6602    7.1982   15.8012 H   0  0  0  0  0  0  0  0  0  0  0  0
   22.8520    6.5576   16.8363 H   0  0  0  0  0  0  0  0  0  0  0  0
   19.9119    4.9727   12.8489 H   0  0  0  0  0  0  0  0  0  0  0  0
   22.7411    3.8212    9.7866 H   0  0  0  0  0  0  0  0  0  0  0  0
   24.6500    4.3462   11.3299 H   0  0  0  0  0  0  0  0  0  0  0  0
  1  2  2  0  0  0  0
  1  6  1  0  0  0  0
  1 10  1  0  0  0  0
  2  3  1  0  0  0  0
  2 30  1  0  0  0  0
  3  4  2  0  0  0  0
  3 31  1  0  0  0  0
  4  5  1  0  0  0  0
  4 32  1  0  0  0  0
  5  6  2  0  0  0  0
  5 33  1  0  0  0  0
  6  7  1  0  0  0  0
  7  8  2  0  0  0  0
  7 34  1  0  0  0  0
  8  9  1  0  0  0  0
  8 35  1  0  0  0  0
  9 10  2  0  0  0  0
  9 36  1  0  0  0  0
 10 11  1  0  0  0  0
 11 12  1  0  0  0  0
 11 37  1  0  0  0  0
 11 38  1  0  0  0  0
 12 13  1  0  0  0  0
 12 16  1  0  0  0  0
 12 39  1  1  0  0  0
 13 14  2  0  0  0  0
 13 15  1  0  0  0  0
 16 17  1  0  0  0  0
 16 28  1  0  0  0  0
 17 18  2  0  0  0  0
 17 19  1  0  0  0  0
 19 20  2  0  0  0  0
 19 27  1  0  0  0  0
 20 21  1  0  0  0  0
 20 40  1  0  0  0  0
 21 22  1  0  0  0  0
 21 25  2  0  0  0  0
 22 23  2  0  0  0  0
 22 24  1  0  0  0  0
 25 26  1  0  0  0  0
 25 41  1  0  0  0  0
 26 27  2  0  0  0  0
 26 42  1  0  0  0  0
 27 28  1  0  0  0  0
 28 29  2  0  0  0  0
M  END
$$$$
