23I
 OpenBabel04051918433D

104105  0  0  1  0  0  0  0  0999 V2000
  -10.8308   -0.4716   31.5318 O   0  0  0  0  0  0  0  0  0  0  0  0
    4.8774   -5.4296   32.8232 C   0  0  0  0  0  0  0  0  0  0  0  0
    5.7461   -4.6726   33.6280 C   0  0  0  0  0  0  0  0  0  0  0  0
    5.2187   -3.8055   34.5907 C   0  0  0  0  0  0  0  0  0  0  0  0
    3.8299   -3.6927   34.7488 C   0  0  0  0  0  0  0  0  0  0  0  0
    2.9611   -4.4509   33.9415 C   0  0  0  0  0  0  0  0  0  0  0  0
    3.4710   -5.3331   32.9656 C   0  0  0  0  0  0  0  0  0  0  0  0
    2.5486   -1.5734   25.9413 C   0  0  0  0  0  0  0  0  0  0  0  0
    1.5668   -5.1722   30.0016 C   0  0  0  0  0  0  0  0  0  0  0  0
   -3.3374   -3.9349   30.0474 C   0  0  0  0  0  0  0  0  0  0  0  0
    0.6499   -3.3662   28.4753 C   0  0  0  0  0  0  0  0  0  0  0  0
   -1.9346   -3.7098   29.5060 C   0  0  0  0  0  0  0  0  0  0  0  0
   -7.9530   -2.1297   32.1016 C   0  0  0  0  0  0  0  0  0  0  0  0
   -4.5703   -4.6519   32.1199 C   0  0  2  0  0  0  0  0  0  0  0  0
   -5.0575   -3.4866   33.0614 C   0  0  2  0  0  0  0  0  0  0  0  0
   -4.2610   -5.9781   32.8725 C   0  0  0  0  0  0  0  0  0  0  0  0
   -3.3572   -6.9928   32.1075 C   0  0  0  0  0  0  0  0  0  0  0  0
   -2.8062   -8.0763   33.0368 C   0  0  0  0  0  0  0  0  0  0  0  0
    2.5654   -6.1794   32.0612 C   0  0  1  0  0  0  0  0  0  0  0  0
    1.7787   -7.2622   32.7980 C   0  0  0  0  0  0  0  0  0  0  0  0
    1.5694   -5.3638   31.3666 N   0  0  0  0  0  0  0  0  0  0  0  0
    2.3909   -5.6527   29.2681 O   0  0  0  0  0  0  0  0  0  0  0  0
    0.4301   -4.3103   29.4865 C   0  0  0  0  0  0  0  0  0  0  0  0
   -0.3906   -2.5419   27.9976 C   0  0  0  0  0  0  0  0  0  0  0  0
   -1.7015   -2.7618   28.5010 C   0  0  0  0  0  0  0  0  0  0  0  0
   -0.8613   -4.4709   29.9954 C   0  0  0  0  0  0  0  0  0  0  0  0
   -0.1085   -1.5462   26.9219 N   0  0  0  0  0  0  0  0  0  0  0  0
   -1.2161   -0.5787   26.5719 C   0  0  0  0  0  0  0  0  0  0  0  0
    1.4480   -0.6424   27.0463 S   0  0  0  0  0  0  0  0  0  0  0  0
    1.2669    0.6635   26.4408 O   0  0  0  0  0  0  0  0  0  0  0  0
    1.9535   -0.6977   28.4034 O   0  0  0  0  0  0  0  0  0  0  0  0
   -4.3176   -3.8347   29.3682 O   0  0  0  0  0  0  0  0  0  0  0  0
   -3.3631   -4.2762   31.3840 N   0  0  0  0  0  0  0  0  0  0  0  0
   -4.0993   -7.6859   30.9723 C   0  0  0  0  0  0  0  0  0  0  0  0
   -5.4163   -2.2082   32.2840 C   0  0  0  0  0  0  0  0  0  0  0  0
   -6.7038   -1.5044   32.7655 C   0  0  1  0  0  0  0  0  0  0  0  0
   -6.6021   -0.0126   32.4136 C   0  0  0  0  0  0  0  0  0  0  0  0
   -4.0132   -3.1429   33.9953 O   0  0  0  0  0  0  0  0  0  0  0  0
   -7.9761   -2.5302   30.9499 O   0  0  0  0  0  0  0  0  0  0  0  0
   -9.0671   -2.2029   32.9032 N   0  0  0  0  0  0  0  0  0  0  0  0
  -10.3666   -2.7143   32.4155 C   0  0  1  0  0  0  0  0  0  0  0  0
  -11.3155   -3.0039   33.6234 C   0  0  0  0  0  0  0  0  0  0  0  0
  -12.6263   -3.6586   33.1923 C   0  0  0  0  0  0  0  0  0  0  0  0
  -11.6828   -1.7748   34.4619 C   0  0  0  0  0  0  0  0  0  0  0  0
  -10.8869   -1.6790   31.3630 C   0  0  0  0  0  0  0  0  0  0  0  0
  -11.4103   -2.2330   30.2197 N   0  0  0  0  0  0  0  0  0  0  0  0
  -11.9114   -1.4571   29.0923 C   0  0  0  0  0  0  0  0  0  0  0  0
  -13.3159   -1.9556   28.7922 C   0  0  0  0  0  0  0  0  0  0  0  0
  -10.9947   -1.6636   27.8949 C   0  0  0  0  0  0  0  0  0  0  0  0
    5.3025   -6.1015   32.0732 H   0  0  0  0  0  0  0  0  0  0  0  0
    6.8284   -4.7612   33.5012 H   0  0  0  0  0  0  0  0  0  0  0  0
    5.8905   -3.2173   35.2171 H   0  0  0  0  0  0  0  0  0  0  0  0
    3.4233   -3.0130   35.5020 H   0  0  0  0  0  0  0  0  0  0  0  0
    1.8843   -4.3472   34.0772 H   0  0  0  0  0  0  0  0  0  0  0  0
    3.5287   -1.0771   25.9886 H   0  0  0  0  0  0  0  0  0  0  0  0
    2.1874   -1.5336   24.9065 H   0  0  0  0  0  0  0  0  0  0  0  0
    2.6670   -2.6137   26.2548 H   0  0  0  0  0  0  0  0  0  0  0  0
    1.6596   -3.2453   28.1008 H   0  0  0  0  0  0  0  0  0  0  0  0
   -5.3916   -4.8224   31.4170 H   0  0  0  0  0  0  0  0  0  0  0  0
   -5.9210   -3.8379   33.6391 H   0  0  0  0  0  0  0  0  0  0  0  0
   -5.2127   -6.4726   33.1020 H   0  0  0  0  0  0  0  0  0  0  0  0
   -3.7635   -5.7339   33.8193 H   0  0  0  0  0  0  0  0  0  0  0  0
   -2.4975   -6.4682   31.6852 H   0  0  0  0  0  0  0  0  0  0  0  0
   -2.1705   -8.7786   32.4771 H   0  0  0  0  0  0  0  0  0  0  0  0
   -3.6277   -8.6437   33.4893 H   0  0  0  0  0  0  0  0  0  0  0  0
   -2.2036   -7.6298   33.8343 H   0  0  0  0  0  0  0  0  0  0  0  0
    3.2053   -6.6746   31.3182 H   0  0  0  0  0  0  0  0  0  0  0  0
    1.1508   -7.8256   32.0876 H   0  0  0  0  0  0  0  0  0  0  0  0
    1.1090   -6.8120   33.5430 H   0  0  0  0  0  0  0  0  0  0  0  0
    2.4469   -7.9641   33.3009 H   0  0  0  0  0  0  0  0  0  0  0  0
    0.8490   -4.9399   31.9230 H   0  0  0  0  0  0  0  0  0  0  0  0
   -2.5476   -2.1773   28.1524 H   0  0  0  0  0  0  0  0  0  0  0  0
   -1.0364   -5.2223   30.7580 H   0  0  0  0  0  0  0  0  0  0  0  0
   -2.1948   -1.0640   26.4850 H   0  0  0  0  0  0  0  0  0  0  0  0
   -1.0069   -0.1005   25.6051 H   0  0  0  0  0  0  0  0  0  0  0  0
   -1.2746    0.1970   27.3460 H   0  0  0  0  0  0  0  0  0  0  0  0
   -2.4988   -4.3283   31.8926 H   0  0  0  0  0  0  0  0  0  0  0  0
   -4.5048   -6.9500   30.2759 H   0  0  0  0  0  0  0  0  0  0  0  0
   -4.9228   -8.2895   31.3728 H   0  0  0  0  0  0  0  0  0  0  0  0
   -3.4216   -8.3532   30.4212 H   0  0  0  0  0  0  0  0  0  0  0  0
   -5.5408   -2.4651   31.2331 H   0  0  0  0  0  0  0  0  0  0  0  0
   -4.5816   -1.5018   32.3786 H   0  0  0  0  0  0  0  0  0  0  0  0
   -6.7801   -1.6008   33.8545 H   0  0  0  0  0  0  0  0  0  0  0  0
   -7.4980    0.5302   32.7331 H   0  0  0  0  0  0  0  0  0  0  0  0
   -6.4813    0.1298   31.3297 H   0  0  0  0  0  0  0  0  0  0  0  0
   -5.7310    0.4468   32.9090 H   0  0  0  0  0  0  0  0  0  0  0  0
   -4.3551   -2.4398   34.5740 H   0  0  0  0  0  0  0  0  0  0  0  0
   -9.0115   -1.8490   33.8440 H   0  0  0  0  0  0  0  0  0  0  0  0
  -10.1822   -3.6712   31.8991 H   0  0  0  0  0  0  0  0  0  0  0  0
  -10.7868   -3.7079   34.2912 H   0  0  0  0  0  0  0  0  0  0  0  0
  -13.2685   -3.8498   34.0651 H   0  0  0  0  0  0  0  0  0  0  0  0
  -12.4387   -4.6110   32.6889 H   0  0  0  0  0  0  0  0  0  0  0  0
  -13.1713   -2.9969   32.5101 H   0  0  0  0  0  0  0  0  0  0  0  0
  -10.7909   -1.2583   34.8256 H   0  0  0  0  0  0  0  0  0  0  0  0
  -12.2822   -2.0696   35.3387 H   0  0  0  0  0  0  0  0  0  0  0  0
  -12.2808   -1.0739   33.8690 H   0  0  0  0  0  0  0  0  0  0  0  0
  -11.4061   -3.2369   30.1246 H   0  0  0  0  0  0  0  0  0  0  0  0
  -11.9503   -0.3852   29.3371 H   0  0  0  0  0  0  0  0  0  0  0  0
  -13.7579   -1.4070   27.9567 H   0  0  0  0  0  0  0  0  0  0  0  0
  -13.9542   -1.8327   29.6767 H   0  0  0  0  0  0  0  0  0  0  0  0
  -13.2867   -3.0239   28.5396 H   0  0  0  0  0  0  0  0  0  0  0  0
  -11.3485   -1.0969   27.0271 H   0  0  0  0  0  0  0  0  0  0  0  0
  -10.9592   -2.7280   27.6285 H   0  0  0  0  0  0  0  0  0  0  0  0
   -9.9760   -1.3381   28.1380 H   0  0  0  0  0  0  0  0  0  0  0  0
  1 45  2  0  0  0  0
  2  3  2  0  0  0  0
  2  7  1  0  0  0  0
  2 50  1  0  0  0  0
  3  4  1  0  0  0  0
  3 51  1  0  0  0  0
  4  5  2  0  0  0  0
  4 52  1  0  0  0  0
  5  6  1  0  0  0  0
  5 53  1  0  0  0  0
  6  7  2  0  0  0  0
  6 54  1  0  0  0  0
  7 19  1  0  0  0  0
  8 29  1  0  0  0  0
  8 55  1  0  0  0  0
  8 56  1  0  0  0  0
  8 57  1  0  0  0  0
  9 21  1  0  0  0  0
  9 22  2  0  0  0  0
  9 23  1  0  0  0  0
 10 12  1  0  0  0  0
 10 32  2  0  0  0  0
 10 33  1  0  0  0  0
 11 23  2  0  0  0  0
 11 24  1  0  0  0  0
 11 58  1  0  0  0  0
 12 25  1  0  0  0  0
 12 26  2  0  0  0  0
 13 36  1  0  0  0  0
 13 39  2  0  0  0  0
 13 40  1  0  0  0  0
 14 15  1  0  0  0  0
 14 16  1  0  0  0  0
 14 33  1  0  0  0  0
 14 59  1  6  0  0  0
 15 35  1  0  0  0  0
 15 38  1  0  0  0  0
 15 60  1  1  0  0  0
 16 17  1  0  0  0  0
 16 61  1  0  0  0  0
 16 62  1  0  0  0  0
 17 18  1  0  0  0  0
 17 34  1  0  0  0  0
 17 63  1  0  0  0  0
 18 64  1  0  0  0  0
 18 65  1  0  0  0  0
 18 66  1  0  0  0  0
 19 20  1  0  0  0  0
 19 21  1  0  0  0  0
 19 67  1  6  0  0  0
 20 68  1  0  0  0  0
 20 69  1  0  0  0  0
 20 70  1  0  0  0  0
 21 71  1  0  0  0  0
 23 26  1  0  0  0  0
 24 25  2  0  0  0  0
 24 27  1  0  0  0  0
 25 72  1  0  0  0  0
 26 73  1  0  0  0  0
 27 28  1  0  0  0  0
 27 29  1  0  0  0  0
 28 74  1  0  0  0  0
 28 75  1  0  0  0  0
 28 76  1  0  0  0  0
 29 30  2  0  0  0  0
 29 31  2  0  0  0  0
 33 77  1  0  0  0  0
 34 78  1  0  0  0  0
 34 79  1  0  0  0  0
 34 80  1  0  0  0  0
 35 36  1  0  0  0  0
 35 81  1  0  0  0  0
 35 82  1  0  0  0  0
 36 37  1  0  0  0  0
 36 83  1  1  0  0  0
 37 84  1  0  0  0  0
 37 85  1  0  0  0  0
 37 86  1  0  0  0  0
 38 87  1  0  0  0  0
 40 41  1  0  0  0  0
 40 88  1  0  0  0  0
 41 42  1  0  0  0  0
 41 45  1  0  0  0  0
 41 89  1  6  0  0  0
 42 43  1  0  0  0  0
 42 44  1  0  0  0  0
 42 90  1  0  0  0  0
 43 91  1  0  0  0  0
 43 92  1  0  0  0  0
 43 93  1  0  0  0  0
 44 94  1  0  0  0  0
 44 95  1  0  0  0  0
 44 96  1  0  0  0  0
 45 46  1  0  0  0  0
 46 47  1  0  0  0  0
 46 97  1  0  0  0  0
 47 48  1  0  0  0  0
 47 49  1  0  0  0  0
 47 98  1  0  0  0  0
 48 99  1  0  0  0  0
 48100  1  0  0  0  0
 48101  1  0  0  0  0
 49102  1  0  0  0  0
 49103  1  0  0  0  0
 49104  1  0  0  0  0
M  END
$$$$
