23N
 OpenBabel04051919223D

 25 25  0  0  1  0  0  0  0  0999 V2000
    9.4598  -10.1069   20.3056 C   0  0  0  0  0  0  0  0  0  0  0  0
    8.3043   -9.4005   19.9714 C   0  0  0  0  0  0  0  0  0  0  0  0
    7.3743   -9.0801   20.9612 C   0  0  0  0  0  0  0  0  0  0  0  0
    7.5985   -9.4638   22.2805 C   0  0  0  0  0  0  0  0  0  0  0  0
    8.7543  -10.1637   22.6201 C   0  0  0  0  0  0  0  0  0  0  0  0
    9.6949  -10.4850   21.6306 C   0  0  0  0  0  0  0  0  0  0  0  0
   11.0292  -11.0796   22.0372 C   0  0  0  0  0  0  0  0  0  0  0  0
   11.9947   -9.9292   22.3874 C   0  0  1  0  0  0  0  0  0  0  0  0
   12.3775  -10.0275   23.8502 C   0  0  0  0  0  0  0  0  0  0  0  0
   12.1837   -8.9644   24.5139 O   0  0  0  0  0  0  0  0  0  0  0  0
   12.8069  -11.1516   24.2370 O   0  0  0  0  0  0  0  0  0  0  0  0
   13.2486   -9.9999   21.5290 C   0  0  0  0  0  0  0  0  0  0  0  0
   14.0594   -8.7300   21.6375 N   0  0  0  0  0  0  0  0  0  0  0  0
   14.7602   -8.5600   22.6353 O   0  0  0  0  0  0  0  0  0  0  0  0
   14.0562   -7.9946   20.6320 O   0  0  0  0  0  0  0  0  0  0  0  0
   10.2016  -10.3185   19.5376 H   0  0  0  0  0  0  0  0  0  0  0  0
    8.1454   -9.0830   18.9498 H   0  0  0  0  0  0  0  0  0  0  0  0
    6.4855   -8.5053   20.7042 H   0  0  0  0  0  0  0  0  0  0  0  0
    6.8913   -9.1844   23.0624 H   0  0  0  0  0  0  0  0  0  0  0  0
    8.9505  -10.4127   23.6629 H   0  0  0  0  0  0  0  0  0  0  0  0
   11.4001  -11.6993   21.2142 H   0  0  0  0  0  0  0  0  0  0  0  0
   10.8538  -11.7798   22.8697 H   0  0  0  0  0  0  0  0  0  0  0  0
   11.5121   -8.9526   22.2165 H   0  0  0  0  0  0  0  0  0  0  0  0
   12.9733  -10.0770   20.4687 H   0  0  0  0  0  0  0  0  0  0  0  0
   13.9223  -10.8279   21.7686 H   0  0  0  0  0  0  0  0  0  0  0  0
  1  2  2  0  0  0  0
  1  6  1  0  0  0  0
  1 16  1  0  0  0  0
  2  3  1  0  0  0  0
  2 17  1  0  0  0  0
  3  4  2  0  0  0  0
  3 18  1  0  0  0  0
  4  5  1  0  0  0  0
  4 19  1  0  0  0  0
  5  6  2  0  0  0  0
  5 20  1  0  0  0  0
  6  7  1  0  0  0  0
  7  8  1  0  0  0  0
  7 21  1  0  0  0  0
  7 22  1  0  0  0  0
  8  9  1  0  0  0  0
  8 12  1  0  0  0  0
  8 23  1  6  0  0  0
  9 10  2  0  0  0  0
  9 11  1  0  0  0  0
 12 13  1  0  0  0  0
 12 24  1  0  0  0  0
 12 25  1  0  0  0  0
 13 14  2  0  0  0  0
 13 15  2  0  0  0  0
M  END
$$$$
