270
 OpenBabel04051918003D

 17 18  0  0  0  0  0  0  0  0999 V2000
   44.4490   -2.3540   25.5997 N   0  0  0  0  0  0  0  0  0  0  0  0
   44.1545   -3.5814   25.2618 C   0  0  0  0  0  0  0  0  0  0  0  0
   44.1468   -2.2642   26.9371 C   0  0  0  0  0  0  0  0  0  0  0  0
   44.2640   -1.1733   27.8093 C   0  0  0  0  0  0  0  0  0  0  0  0
   43.8904   -1.3441   29.1485 C   0  0  0  0  0  0  0  0  0  0  0  0
   43.4077   -2.5740   29.6065 C   0  0  0  0  0  0  0  0  0  0  0  0
   43.2788   -3.6730   28.7485 C   0  0  0  0  0  0  0  0  0  0  0  0
   43.6625   -3.4738   27.4213 C   0  0  0  0  0  0  0  0  0  0  0  0
   43.6789   -4.2983   26.3265 N   0  3  0  0  0  0  0  0  0  0  0  0
   44.2678   -4.1338   24.0499 N   0  0  0  0  0  0  0  0  0  0  0  0
   44.6390   -0.2235   27.4455 H   0  0  0  0  0  0  0  0  0  0  0  0
   43.9783   -0.5075   29.8392 H   0  0  0  0  0  0  0  0  0  0  0  0
   43.1263   -2.6789   30.6531 H   0  0  0  0  0  0  0  0  0  0  0  0
   42.9022   -4.6252   29.1048 H   0  0  0  0  0  0  0  0  0  0  0  0
   43.3821   -5.2594   26.2979 H   0  0  0  0  0  0  0  0  0  0  0  0
   44.7589   -3.5896   23.3473 H   0  0  0  0  0  0  0  0  0  0  0  0
   44.2524   -5.1304   23.8812 H   0  0  0  0  0  0  0  0  0  0  0  0
  1  2  1  0  0  0  0
  1  3  1  0  0  0  0
  2  9  2  0  0  0  0
  2 10  1  0  0  0  0
  3  4  2  0  0  0  0
  3  8  1  0  0  0  0
  4  5  1  0  0  0  0
  4 11  1  0  0  0  0
  5  6  2  0  0  0  0
  5 12  1  0  0  0  0
  6  7  1  0  0  0  0
  6 13  1  0  0  0  0
  7  8  2  0  0  0  0
  7 14  1  0  0  0  0
  8  9  1  0  0  0  0
  9 15  1  0  0  0  0
 10 16  1  0  0  0  0
 10 17  1  0  0  0  0
M  CHG  1   9   1
M  END
$$$$
