270
 OpenBabel04051917573D

 17 18  0  0  0  0  0  0  0  0999 V2000
   32.0706   20.7920   83.2142 N   0  0  0  0  0  0  0  0  0  0  0  0
   32.8522   21.5305   83.9666 C   0  0  0  0  0  0  0  0  0  0  0  0
   30.8363   20.8152   83.8237 C   0  0  0  0  0  0  0  0  0  0  0  0
   29.6242   20.1990   83.4555 C   0  0  0  0  0  0  0  0  0  0  0  0
   28.4918   20.3864   84.2645 C   0  0  0  0  0  0  0  0  0  0  0  0
   28.5678   21.1718   85.4181 C   0  0  0  0  0  0  0  0  0  0  0  0
   29.7658   21.7925   85.8011 C   0  0  0  0  0  0  0  0  0  0  0  0
   30.8767   21.5915   84.9792 C   0  0  0  0  0  0  0  0  0  0  0  0
   32.1753   22.0346   85.0444 N   0  3  0  0  0  0  0  0  0  0  0  0
   34.1413   21.7928   83.7618 N   0  0  0  0  0  0  0  0  0  0  0  0
   29.5668   19.5879   82.5583 H   0  0  0  0  0  0  0  0  0  0  0  0
   27.5489   19.9159   83.9894 H   0  0  0  0  0  0  0  0  0  0  0  0
   27.6785   21.3054   86.0334 H   0  0  0  0  0  0  0  0  0  0  0  0
   29.8234   22.4009   86.6959 H   0  0  0  0  0  0  0  0  0  0  0  0
   32.5719   22.6280   85.7560 H   0  0  0  0  0  0  0  0  0  0  0  0
   34.5894   21.3897   82.9433 H   0  0  0  0  0  0  0  0  0  0  0  0
   34.7249   22.3647   84.3544 H   0  0  0  0  0  0  0  0  0  0  0  0
  1  2  1  0  0  0  0
  1  3  1  0  0  0  0
  2  9  2  0  0  0  0
  2 10  1  0  0  0  0
  3  4  2  0  0  0  0
  3  8  1  0  0  0  0
  4  5  1  0  0  0  0
  4 11  1  0  0  0  0
  5  6  2  0  0  0  0
  5 12  1  0  0  0  0
  6  7  1  0  0  0  0
  6 13  1  0  0  0  0
  7  8  2  0  0  0  0
  7 14  1  0  0  0  0
  8  9  1  0  0  0  0
  9 15  1  0  0  0  0
 10 16  1  0  0  0  0
 10 17  1  0  0  0  0
M  CHG  1   9   1
M  END
$$$$
