29U
 OpenBabel04051920533D

 51 52  0  0  1  0  0  0  0  0999 V2000
   18.4024  -13.3552   21.6684 N   0  0  0  0  0  0  0  0  0  0  0  0
   18.3457  -12.0306   21.0009 C   0  0  2  0  0  0  0  0  0  0  0  0
   17.0302  -11.9392   20.2348 C   0  0  0  0  0  0  0  0  0  0  0  0
   16.5685  -12.9169   19.6524 O   0  0  0  0  0  0  0  0  0  0  0  0
   16.3775  -10.7231   20.2756 N   0  0  0  0  0  0  0  0  0  0  0  0
   15.0627  -10.6233   19.6892 C   0  0  0  0  0  0  0  0  0  0  0  0
   13.9879  -10.6338   20.7502 C   0  0  0  0  0  0  0  0  0  0  0  0
   13.3940   -9.4436   21.1729 C   0  0  0  0  0  0  0  0  0  0  0  0
   12.4044   -9.4496   22.1681 C   0  0  0  0  0  0  0  0  0  0  0  0
   11.9788  -10.6429   22.7812 C   0  0  0  0  0  0  0  0  0  0  0  0
   10.9276  -10.6479   23.8341 C   0  0  0  0  0  0  0  0  0  0  0  0
   10.2378  -11.7460   24.0850 N   0  0  0  0  0  0  0  0  0  0  0  0
   10.6662   -9.5612   24.5352 N   0  0  0  0  0  0  0  0  0  0  0  0
   12.5918  -11.8342   22.3498 C   0  0  0  0  0  0  0  0  0  0  0  0
   13.5790  -11.8290   21.3518 C   0  0  0  0  0  0  0  0  0  0  0  0
   19.5133  -12.0718   20.0139 C   0  0  0  0  0  0  0  0  0  0  0  0
   20.4804  -13.0499   20.6718 C   0  0  0  0  0  0  0  0  0  0  0  0
   19.5502  -14.1237   21.2043 C   0  0  0  0  0  0  0  0  0  0  0  0
   17.4419  -13.7242   22.5548 C   0  0  0  0  0  0  0  0  0  0  0  0
   17.4898  -15.0911   23.2331 C   0  0  2  0  0  0  0  0  0  0  0  0
   16.1259  -15.7556   23.0646 N   0  3  0  0  0  0  0  0  0  0  0  0
   17.6208  -14.8984   24.7498 C   0  0  0  0  0  0  0  0  0  0  0  0
   18.9673  -14.4570   25.2956 C   0  0  0  0  0  0  0  0  0  0  0  0
   16.4502  -13.0083   22.8046 O   0  0  0  0  0  0  0  0  0  0  0  0
   18.4524  -11.2427   21.7554 H   0  0  0  0  0  0  0  0  0  0  0  0
   16.7396   -9.9489   20.8205 H   0  0  0  0  0  0  0  0  0  0  0  0
   14.8967  -11.4523   18.9927 H   0  0  0  0  0  0  0  0  0  0  0  0
   15.0345   -9.7051   19.0965 H   0  0  0  0  0  0  0  0  0  0  0  0
   13.6955   -8.5001   20.7183 H   0  0  0  0  0  0  0  0  0  0  0  0
   11.9671   -8.4903   22.4323 H   0  0  0  0  0  0  0  0  0  0  0  0
    9.5102  -11.7760   24.7817 H   0  0  0  0  0  0  0  0  0  0  0  0
   11.1788   -8.7011   24.3884 H   0  0  0  0  0  0  0  0  0  0  0  0
    9.9479   -9.5268   25.2506 H   0  0  0  0  0  0  0  0  0  0  0  0
   12.3291  -12.7935   22.7848 H   0  0  0  0  0  0  0  0  0  0  0  0
   14.0426  -12.7659   21.0434 H   0  0  0  0  0  0  0  0  0  0  0  0
   19.9511  -11.0862   19.8356 H   0  0  0  0  0  0  0  0  0  0  0  0
   19.1912  -12.4696   19.0409 H   0  0  0  0  0  0  0  0  0  0  0  0
   20.9807  -12.5541   21.5126 H   0  0  0  0  0  0  0  0  0  0  0  0
   21.2392  -13.4375   19.9885 H   0  0  0  0  0  0  0  0  0  0  0  0
   19.2171  -14.8013   20.4068 H   0  0  0  0  0  0  0  0  0  0  0  0
   19.9866  -14.7181   22.0103 H   0  0  0  0  0  0  0  0  0  0  0  0
   18.2066  -15.7776   22.7854 H   0  0  0  0  0  0  0  0  0  0  0  0
   16.0927  -16.6690   23.5303 H   0  0  0  0  0  0  0  0  0  0  0  0
   15.4111  -15.1410   23.4800 H   0  0  0  0  0  0  0  0  0  0  0  0
   17.3560  -15.8344   25.2414 H   0  0  0  0  0  0  0  0  0  0  0  0
   16.8892  -14.1425   25.0652 H   0  0  0  0  0  0  0  0  0  0  0  0
   18.8766  -14.3616   26.3864 H   0  0  0  0  0  0  0  0  0  0  0  0
   19.2801  -13.4834   24.9096 H   0  0  0  0  0  0  0  0  0  0  0  0
   19.7464  -15.1959   25.0955 H   0  0  0  0  0  0  0  0  0  0  0  0
   10.3787  -12.5900   23.5434 H   0  0  0  0  0  0  0  0  0  0  0  0
   15.8737  -15.8688   22.0743 H   0  0  0  0  0  0  0  0  0  0  0  0
  1  2  1  0  0  0  0
  1 18  1  0  0  0  0
  1 19  1  0  0  0  0
  2  3  1  0  0  0  0
  2 16  1  0  0  0  0
  2 25  1  1  0  0  0
  3  4  2  0  0  0  0
  3  5  1  0  0  0  0
  5  6  1  0  0  0  0
  5 26  1  0  0  0  0
  6  7  1  0  0  0  0
  6 27  1  0  0  0  0
  6 28  1  0  0  0  0
  7  8  2  0  0  0  0
  7 15  1  0  0  0  0
  8  9  1  0  0  0  0
  8 29  1  0  0  0  0
  9 10  2  0  0  0  0
  9 30  1  0  0  0  0
 10 11  1  0  0  0  0
 10 14  1  0  0  0  0
 11 12  2  0  0  0  0
 11 13  1  0  0  0  0
 12 31  1  0  0  0  0
 12 50  1  0  0  0  0
 13 32  1  0  0  0  0
 13 33  1  0  0  0  0
 14 15  2  0  0  0  0
 14 34  1  0  0  0  0
 15 35  1  0  0  0  0
 16 17  1  0  0  0  0
 16 36  1  0  0  0  0
 16 37  1  0  0  0  0
 17 18  1  0  0  0  0
 17 38  1  0  0  0  0
 17 39  1  0  0  0  0
 18 40  1  0  0  0  0
 18 41  1  0  0  0  0
 19 20  1  0  0  0  0
 19 24  2  0  0  0  0
 20 21  1  0  0  0  0
 20 22  1  0  0  0  0
 20 42  1  6  0  0  0
 21 43  1  0  0  0  0
 21 44  1  0  0  0  0
 21 51  1  0  0  0  0
 22 23  1  0  0  0  0
 22 45  1  0  0  0  0
 22 46  1  0  0  0  0
 23 47  1  0  0  0  0
 23 48  1  0  0  0  0
 23 49  1  0  0  0  0
M  CHG  1  21   1
M  END
$$$$
