2AA
 OpenBabel04051918063D

 73 76  0  0  1  0  0  0  0  0999 V2000
    1.9154   21.1810   38.9478 C   0  0  0  0  0  0  0  0  0  0  0  0
    3.2453   21.0190   38.4049 N   0  0  0  0  0  0  0  0  0  0  0  0
    4.4267   21.3858   39.1553 C   0  0  0  0  0  0  0  0  0  0  0  0
    3.3806   20.5074   37.1192 C   0  0  0  0  0  0  0  0  0  0  0  0
    3.0912   21.3544   36.0398 C   0  0  0  0  0  0  0  0  0  0  0  0
    3.2348   20.9211   34.7361 C   0  0  0  0  0  0  0  0  0  0  0  0
    3.6660   19.6249   34.4947 C   0  0  0  0  0  0  0  0  0  0  0  0
    3.9375   18.6971   35.5380 C   0  0  0  0  0  0  0  0  0  0  0  0
    3.8015   19.1674   36.8746 C   0  0  0  0  0  0  0  0  0  0  0  0
    4.0746   18.2823   37.9449 C   0  0  0  0  0  0  0  0  0  0  0  0
    4.4817   16.9687   37.7399 C   0  0  0  0  0  0  0  0  0  0  0  0
    4.6028   16.4946   36.4470 C   0  0  0  0  0  0  0  0  0  0  0  0
    4.3297   17.3381   35.3544 C   0  0  0  0  0  0  0  0  0  0  0  0
    4.4322   16.5418   33.7556 S   0  0  0  0  0  0  0  0  0  0  0  0
    4.2471   15.1309   33.9820 O   0  0  0  0  0  0  0  0  0  0  0  0
    3.6089   17.2535   32.7996 O   0  0  0  0  0  0  0  0  0  0  0  0
    6.0725   16.7864   33.3979 N   0  0  0  0  0  0  0  0  0  0  0  0
    6.4111   16.8445   31.9333 C   0  0  0  0  0  0  0  0  0  0  0  0
    5.9981   15.5916   31.1517 C   0  0  0  0  0  0  0  0  0  0  0  0
    7.1324   14.7972   30.8546 O   0  0  0  0  0  0  0  0  0  0  0  0
    7.7177   14.7990   29.3251 P   0  0  1  0  0  0  0  0  0  0  0  0
    6.7814   15.6425   28.4806 O   0  0  0  0  0  0  0  0  0  0  0  0
    9.1634   15.2089   29.4600 O   0  0  0  0  0  0  0  0  0  0  0  0
    7.5007   13.2528   28.9893 O   0  0  0  0  0  0  0  0  0  0  0  0
    8.4931   12.0148   28.8186 P   0  0  1  0  0  0  0  0  0  0  0  0
    7.6878   10.7292   28.8455 O   0  0  0  0  0  0  0  0  0  0  0  0
    9.4672   12.2074   27.6782 O   0  0  0  0  0  0  0  0  0  0  0  0
    9.3486   12.0835   30.1872 O   0  0  0  0  0  0  0  0  0  0  0  0
    8.9125   11.4509   31.3705 C   0  0  0  0  0  0  0  0  0  0  0  0
   10.1488   11.0273   32.1861 C   0  0  1  0  0  0  0  0  0  0  0  0
   10.4442    9.6416   31.8947 O   0  0  0  0  0  0  0  0  0  0  0  0
   11.4310   11.8119   31.8837 C   0  0  1  0  0  0  0  0  0  0  0  0
   11.6364   12.9522   32.7304 O   0  0  0  0  0  0  0  0  0  0  0  0
   12.5451   10.8070   32.1349 C   0  0  1  0  0  0  0  0  0  0  0  0
   13.0803   10.9854   33.4637 O   0  0  0  0  0  0  0  0  0  0  0  0
   11.8635    9.4414   31.9688 C   0  0  2  0  0  0  0  0  0  0  0  0
   12.3024    8.6829   30.7975 N   0  3  0  0  0  0  0  0  0  0  0  0
   11.9192    9.0673   29.5287 C   0  0  0  0  0  0  0  0  0  0  0  0
   12.3082    8.3801   28.4560 C   0  0  0  0  0  0  0  0  0  0  0  0
   13.1651    7.2082   28.7135 C   0  0  0  0  0  0  0  0  0  0  0  0
   13.6436    6.4703   27.6651 N   0  0  0  0  0  0  0  0  0  0  0  0
   13.5131    6.8282   29.9036 N   0  0  0  0  0  0  0  0  0  0  0  0
   13.1056    7.5581   31.0010 C   0  0  0  0  0  0  0  0  0  0  0  0
   13.4687    7.2138   32.1250 O   0  0  0  0  0  0  0  0  0  0  0  0
    1.9560   21.5860   39.9638 H   0  0  0  0  0  0  0  0  0  0  0  0
    1.4002   20.2152   38.9949 H   0  0  0  0  0  0  0  0  0  0  0  0
    1.3179   21.8665   38.3379 H   0  0  0  0  0  0  0  0  0  0  0  0
    5.3521   21.1945   38.6003 H   0  0  0  0  0  0  0  0  0  0  0  0
    4.4670   20.8164   40.0889 H   0  0  0  0  0  0  0  0  0  0  0  0
    4.3995   22.4520   39.4025 H   0  0  0  0  0  0  0  0  0  0  0  0
    2.7681   22.3738   36.2292 H   0  0  0  0  0  0  0  0  0  0  0  0
    3.0267   21.5857   33.9046 H   0  0  0  0  0  0  0  0  0  0  0  0
    3.7950   19.3556   33.4497 H   0  0  0  0  0  0  0  0  0  0  0  0
    3.9569   18.6251   38.9699 H   0  0  0  0  0  0  0  0  0  0  0  0
    4.6877   16.3156   38.5826 H   0  0  0  0  0  0  0  0  0  0  0  0
    4.9023   15.4595   36.2883 H   0  0  0  0  0  0  0  0  0  0  0  0
    6.6430   16.0631   33.8444 H   0  0  0  0  0  0  0  0  0  0  0  0
    7.4922   17.0133   31.8663 H   0  0  0  0  0  0  0  0  0  0  0  0
    5.9156   17.7325   31.5276 H   0  0  0  0  0  0  0  0  0  0  0  0
    5.4566   15.9001   30.2558 H   0  0  0  0  0  0  0  0  0  0  0  0
    5.3143   14.9469   31.7043 H   0  0  0  0  0  0  0  0  0  0  0  0
    8.2995   10.5714   31.1470 H   0  0  0  0  0  0  0  0  0  0  0  0
    8.3017   12.1593   31.9403 H   0  0  0  0  0  0  0  0  0  0  0  0
    9.8963   11.0692   33.2527 H   0  0  0  0  0  0  0  0  0  0  0  0
   11.4879   12.1266   30.8370 H   0  0  0  0  0  0  0  0  0  0  0  0
   11.9932   13.6471   32.1426 H   0  0  0  0  0  0  0  0  0  0  0  0
   13.3857   10.9617   31.4516 H   0  0  0  0  0  0  0  0  0  0  0  0
   12.9565   11.9417   33.6427 H   0  0  0  0  0  0  0  0  0  0  0  0
   12.0350    8.8489   32.8734 H   0  0  0  0  0  0  0  0  0  0  0  0
   11.2747    9.9398   29.4230 H   0  0  0  0  0  0  0  0  0  0  0  0
   12.0129    8.6491   27.4521 H   0  0  0  0  0  0  0  0  0  0  0  0
   14.0062    5.5599   27.9207 H   0  0  0  0  0  0  0  0  0  0  0  0
   13.1951    6.5445   26.7621 H   0  0  0  0  0  0  0  0  0  0  0  0
  1  2  1  0  0  0  0
  1 45  1  0  0  0  0
  1 46  1  0  0  0  0
  1 47  1  0  0  0  0
  2  3  1  0  0  0  0
  2  4  1  0  0  0  0
  3 48  1  0  0  0  0
  3 49  1  0  0  0  0
  3 50  1  0  0  0  0
  4  5  2  0  0  0  0
  4  9  1  0  0  0  0
  5  6  1  0  0  0  0
  5 51  1  0  0  0  0
  6  7  2  0  0  0  0
  6 52  1  0  0  0  0
  7  8  1  0  0  0  0
  7 53  1  0  0  0  0
  8  9  2  0  0  0  0
  8 13  1  0  0  0  0
  9 10  1  0  0  0  0
 10 11  2  0  0  0  0
 10 54  1  0  0  0  0
 11 12  1  0  0  0  0
 11 55  1  0  0  0  0
 12 13  2  0  0  0  0
 12 56  1  0  0  0  0
 13 14  1  0  0  0  0
 14 15  2  0  0  0  0
 14 16  2  0  0  0  0
 14 17  1  0  0  0  0
 17 18  1  0  0  0  0
 17 57  1  0  0  0  0
 18 19  1  0  0  0  0
 18 58  1  0  0  0  0
 18 59  1  0  0  0  0
 19 20  1  0  0  0  0
 19 60  1  0  0  0  0
 19 61  1  0  0  0  0
 21 20  1  1  0  0  0
 21 22  2  0  0  0  0
 21 23  1  0  0  0  0
 21 24  1  0  0  0  0
 25 24  1  6  0  0  0
 25 26  2  0  0  0  0
 25 27  1  0  0  0  0
 25 28  1  0  0  0  0
 28 29  1  0  0  0  0
 29 30  1  0  0  0  0
 29 62  1  0  0  0  0
 29 63  1  0  0  0  0
 30 31  1  0  0  0  0
 30 32  1  0  0  0  0
 30 64  1  1  0  0  0
 31 36  1  0  0  0  0
 32 33  1  0  0  0  0
 32 34  1  0  0  0  0
 32 65  1  6  0  0  0
 33 66  1  0  0  0  0
 34 35  1  0  0  0  0
 34 36  1  0  0  0  0
 34 67  1  6  0  0  0
 35 68  1  0  0  0  0
 36 37  1  0  0  0  0
 36 69  1  1  0  0  0
 37 38  1  0  0  0  0
 37 43  1  0  0  0  0
 38 39  2  0  0  0  0
 38 70  1  0  0  0  0
 39 40  1  0  0  0  0
 39 71  1  0  0  0  0
 40 41  1  0  0  0  0
 40 42  2  0  0  0  0
 41 72  1  0  0  0  0
 41 73  1  0  0  0  0
 42 43  1  0  0  0  0
 43 44  2  0  0  0  0
M  CHG  1  37   1
M  END
$$$$
