2AN
 OpenBabel04051920063D

 33 35  0  0  0  0  0  0  0  0999 V2000
    2.7607    5.4192    6.9759 C   0  0  0  0  0  0  0  0  0  0  0  0
    4.0907    5.6831    7.4127 C   0  0  0  0  0  0  0  0  0  0  0  0
    5.1343    5.8746    6.5170 C   0  0  0  0  0  0  0  0  0  0  0  0
    4.8460    5.8230    5.1652 C   0  0  0  0  0  0  0  0  0  0  0  0
    3.5036    5.6200    4.7007 C   0  0  0  0  0  0  0  0  0  0  0  0
    3.2981    5.5999    3.3197 C   0  0  0  0  0  0  0  0  0  0  0  0
    2.0283    5.3891    2.7790 C   0  0  0  0  0  0  0  0  0  0  0  0
    0.9281    5.2511    3.6072 C   0  0  0  0  0  0  0  0  0  0  0  0
    1.8365    5.0997    7.9886 N   0  0  0  0  0  0  0  0  0  0  0  0
   -0.5223    5.3871    5.9410 S   0  0  0  0  0  0  0  0  0  0  0  0
    1.0766    5.3147    4.9962 C   0  0  0  0  0  0  0  0  0  0  0  0
    2.4012    5.4505    5.5970 C   0  0  0  0  0  0  0  0  0  0  0  0
    1.4206    5.8953    9.0681 C   0  0  0  0  0  0  0  0  0  0  0  0
    0.5908    5.3065   10.0299 C   0  0  0  0  0  0  0  0  0  0  0  0
    0.2468    6.0069   11.1740 C   0  0  0  0  0  0  0  0  0  0  0  0
    0.6760    7.3263   11.3312 C   0  0  0  0  0  0  0  0  0  0  0  0
    1.4836    7.9330   10.3719 C   0  0  0  0  0  0  0  0  0  0  0  0
    1.8738    7.2093    9.2523 C   0  0  0  0  0  0  0  0  0  0  0  0
   -1.5457    5.3690    4.9015 O   0  0  0  0  0  0  0  0  0  0  0  0
   -0.4248    6.6555    6.6471 O   0  0  0  0  0  0  0  0  0  0  0  0
   -0.4744    4.1732    6.7560 O   0  0  0  0  0  0  0  0  0  0  0  0
    4.3045    5.6802    8.4703 H   0  0  0  0  0  0  0  0  0  0  0  0
    6.1442    6.0321    6.8812 H   0  0  0  0  0  0  0  0  0  0  0  0
    5.6670    5.9280    4.4632 H   0  0  0  0  0  0  0  0  0  0  0  0
    4.1280    5.7469    2.6318 H   0  0  0  0  0  0  0  0  0  0  0  0
    1.8941    5.3660    1.7034 H   0  0  0  0  0  0  0  0  0  0  0  0
   -0.0706    5.1318    3.1682 H   0  0  0  0  0  0  0  0  0  0  0  0
    1.1438    4.3823    7.7386 H   0  0  0  0  0  0  0  0  0  0  0  0
    0.1988    4.3059    9.8531 H   0  0  0  0  0  0  0  0  0  0  0  0
   -0.3647    5.5381   11.9427 H   0  0  0  0  0  0  0  0  0  0  0  0
    0.3579    7.8875   12.1994 H   0  0  0  0  0  0  0  0  0  0  0  0
    1.8004    8.9672   10.4829 H   0  0  0  0  0  0  0  0  0  0  0  0
    2.4882    7.6824    8.4905 H   0  0  0  0  0  0  0  0  0  0  0  0
  1  2  2  0  0  0  0
  1  9  1  0  0  0  0
  1 12  1  0  0  0  0
  2  3  1  0  0  0  0
  2 22  1  0  0  0  0
  3  4  2  0  0  0  0
  3 23  1  0  0  0  0
  4  5  1  0  0  0  0
  4 24  1  0  0  0  0
  5  6  2  0  0  0  0
  5 12  1  0  0  0  0
  6  7  1  0  0  0  0
  6 25  1  0  0  0  0
  7  8  2  0  0  0  0
  7 26  1  0  0  0  0
  8 11  1  0  0  0  0
  8 27  1  0  0  0  0
  9 13  1  0  0  0  0
  9 28  1  0  0  0  0
 10 11  1  0  0  0  0
 10 19  2  0  0  0  0
 10 20  2  0  0  0  0
 10 21  1  0  0  0  0
 11 12  2  0  0  0  0
 13 14  2  0  0  0  0
 13 18  1  0  0  0  0
 14 15  1  0  0  0  0
 14 29  1  0  0  0  0
 15 16  2  0  0  0  0
 15 30  1  0  0  0  0
 16 17  1  0  0  0  0
 16 31  1  0  0  0  0
 17 18  2  0  0  0  0
 17 32  1  0  0  0  0
 18 33  1  0  0  0  0
M  END
$$$$
