2CE
 OpenBabel04051917293D

 69 70  0  0  1  0  0  0  0  0999 V2000
   16.6189   -9.8050   12.1874 C   0  0  0  0  0  0  0  0  0  0  0  0
   15.7095   -9.7870   13.2392 C   0  0  0  0  0  0  0  0  0  0  0  0
   15.7366  -10.8080   14.1993 C   0  0  0  0  0  0  0  0  0  0  0  0
   16.6573  -11.8672   14.1131 C   0  0  0  0  0  0  0  0  0  0  0  0
   17.5774  -11.8597   13.0576 C   0  0  0  0  0  0  0  0  0  0  0  0
   17.5565  -10.8350   12.0927 C   0  0  0  0  0  0  0  0  0  0  0  0
   16.5863   -8.5555   11.0043 Cl  0  0  0  0  0  0  0  0  0  0  0  0
   16.6600  -13.0508   15.4629 S   0  0  0  0  0  0  0  0  0  0  0  0
   16.9686  -14.6949   14.7155 C   0  0  0  0  0  0  0  0  0  0  0  0
   15.7153  -15.5076   14.4039 C   0  0  0  0  0  0  0  0  0  0  0  0
   15.8452  -16.6797   14.0017 O   0  0  0  0  0  0  0  0  0  0  0  0
   14.4760  -14.9692   14.5835 N   0  0  0  0  0  0  0  0  0  0  0  0
   13.2208  -15.6780   14.2275 C   0  0  1  0  0  0  0  0  0  0  0  0
   12.4571  -16.0862   15.4957 C   0  0  0  0  0  0  0  0  0  0  0  0
   13.1698  -17.0466   16.4257 C   0  0  0  0  0  0  0  0  0  0  0  0
   13.5682  -16.6217   17.6909 C   0  0  0  0  0  0  0  0  0  0  0  0
   14.2082  -17.5007   18.5673 C   0  0  0  0  0  0  0  0  0  0  0  0
   14.4885  -18.8379   18.2561 C   0  0  0  0  0  0  0  0  0  0  0  0
   14.0730  -19.2594   16.9825 C   0  0  0  0  0  0  0  0  0  0  0  0
   13.4284  -18.3822   16.0901 C   0  0  0  0  0  0  0  0  0  0  0  0
   15.1376  -19.7608   19.1135 N   0  0  0  0  0  0  0  0  0  0  0  0
   15.6556  -19.6447   20.4093 C   0  0  0  0  0  0  0  0  0  0  0  0
   15.6108  -18.5134   21.1288 N   0  0  0  0  0  0  0  0  0  0  0  0
   16.2405  -20.6883   21.0237 N   0  0  0  0  0  0  0  0  0  0  0  0
   12.3652  -14.7350   13.3392 C   0  0  0  0  0  0  0  0  0  0  0  0
   12.6931  -13.5329   13.2100 O   0  0  0  0  0  0  0  0  0  0  0  0
   11.2483  -15.2336   12.7132 N   0  0  0  0  0  0  0  0  0  0  0  0
   10.4074  -14.3914   11.8461 C   0  0  0  0  0  0  0  0  0  0  0  0
    8.9269  -14.8099   11.8132 C   0  0  0  0  0  0  0  0  0  0  0  0
    8.4530  -15.2942   13.0750 O   0  0  0  0  0  0  0  0  0  0  0  0
    8.6192  -14.3242   14.1126 C   0  0  0  0  0  0  0  0  0  0  0  0
    8.2043  -14.9037   15.4685 C   0  0  0  0  0  0  0  0  0  0  0  0
    7.0803  -14.1813   15.9987 O   0  0  0  0  0  0  0  0  0  0  0  0
    7.4389  -13.3122   17.0783 C   0  0  0  0  0  0  0  0  0  0  0  0
    8.8145  -12.6280   16.9241 C   0  0  0  0  0  0  0  0  0  0  0  0
    9.4283  -12.5297   15.8677 O   0  0  0  0  0  0  0  0  0  0  0  0
    9.4394  -12.1856   18.0313 N   0  0  0  0  0  0  0  0  0  0  0  0
   14.9751   -8.9877   13.3178 H   0  0  0  0  0  0  0  0  0  0  0  0
   15.0233  -10.7677   15.0207 H   0  0  0  0  0  0  0  0  0  0  0  0
   18.3355  -12.6312   12.9725 H   0  0  0  0  0  0  0  0  0  0  0  0
   18.2708  -10.8432   11.2727 H   0  0  0  0  0  0  0  0  0  0  0  0
   17.5243  -15.2735   15.4639 H   0  0  0  0  0  0  0  0  0  0  0  0
   17.6010  -14.6497   13.8244 H   0  0  0  0  0  0  0  0  0  0  0  0
   14.3821  -13.9893   14.8576 H   0  0  0  0  0  0  0  0  0  0  0  0
   13.4615  -16.5621   13.6219 H   0  0  0  0  0  0  0  0  0  0  0  0
   11.4973  -16.5351   15.2279 H   0  0  0  0  0  0  0  0  0  0  0  0
   12.2173  -15.1696   16.0564 H   0  0  0  0  0  0  0  0  0  0  0  0
   13.3915  -15.5969   18.0197 H   0  0  0  0  0  0  0  0  0  0  0  0
   14.4515  -17.0151   19.4875 H   0  0  0  0  0  0  0  0  0  0  0  0
   14.2586  -20.2826   16.6593 H   0  0  0  0  0  0  0  0  0  0  0  0
   13.1273  -18.7510   15.1127 H   0  0  0  0  0  0  0  0  0  0  0  0
   15.2540  -20.6643   18.7151 H   0  0  0  0  0  0  0  0  0  0  0  0
   15.9748  -18.4177   22.0487 H   0  0  0  0  0  0  0  0  0  0  0  0
   16.3386  -21.5958   20.5917 H   0  0  0  0  0  0  0  0  0  0  0  0
   16.6147  -20.5977   21.9673 H   0  0  0  0  0  0  0  0  0  0  0  0
   10.9243  -16.1782   12.8839 H   0  0  0  0  0  0  0  0  0  0  0  0
   10.8183  -14.4351   10.8336 H   0  0  0  0  0  0  0  0  0  0  0  0
   10.4660  -13.3450   12.1741 H   0  0  0  0  0  0  0  0  0  0  0  0
    8.7941  -15.6211   11.0905 H   0  0  0  0  0  0  0  0  0  0  0  0
    8.2999  -13.9725   11.4769 H   0  0  0  0  0  0  0  0  0  0  0  0
    8.0600  -13.4134   13.8645 H   0  0  0  0  0  0  0  0  0  0  0  0
    9.6793  -14.0723   14.1736 H   0  0  0  0  0  0  0  0  0  0  0  0
    9.0496  -14.8673   16.1706 H   0  0  0  0  0  0  0  0  0  0  0  0
    7.9430  -15.9595   15.3919 H   0  0  0  0  0  0  0  0  0  0  0  0
    7.3997  -13.9038   18.0010 H   0  0  0  0  0  0  0  0  0  0  0  0
    6.6754  -12.5283   17.1513 H   0  0  0  0  0  0  0  0  0  0  0  0
   10.3617  -11.7796   17.8712 H   0  0  0  0  0  0  0  0  0  0  0  0
    9.0244  -12.1439   18.9532 H   0  0  0  0  0  0  0  0  0  0  0  0
   15.1962  -17.6896   20.7472 H   0  0  0  0  0  0  0  0  0  0  0  0
  1  2  2  0  0  0  0
  1  6  1  0  0  0  0
  1  7  1  0  0  0  0
  2  3  1  0  0  0  0
  2 38  1  0  0  0  0
  3  4  2  0  0  0  0
  3 39  1  0  0  0  0
  4  5  1  0  0  0  0
  4  8  1  0  0  0  0
  5  6  2  0  0  0  0
  5 40  1  0  0  0  0
  6 41  1  0  0  0  0
  8  9  1  0  0  0  0
  9 10  1  0  0  0  0
  9 42  1  0  0  0  0
  9 43  1  0  0  0  0
 10 11  2  0  0  0  0
 10 12  1  0  0  0  0
 12 13  1  0  0  0  0
 12 44  1  0  0  0  0
 13 14  1  0  0  0  0
 13 25  1  0  0  0  0
 13 45  1  6  0  0  0
 14 15  1  0  0  0  0
 14 46  1  0  0  0  0
 14 47  1  0  0  0  0
 15 16  2  0  0  0  0
 15 20  1  0  0  0  0
 16 17  1  0  0  0  0
 16 48  1  0  0  0  0
 17 18  2  0  0  0  0
 17 49  1  0  0  0  0
 18 19  1  0  0  0  0
 18 21  1  0  0  0  0
 19 20  2  0  0  0  0
 19 50  1  0  0  0  0
 20 51  1  0  0  0  0
 21 22  1  0  0  0  0
 21 52  1  0  0  0  0
 22 23  2  0  0  0  0
 22 24  1  0  0  0  0
 23 53  1  0  0  0  0
 23 69  1  0  0  0  0
 24 54  1  0  0  0  0
 24 55  1  0  0  0  0
 25 26  2  0  0  0  0
 25 27  1  0  0  0  0
 27 28  1  0  0  0  0
 27 56  1  0  0  0  0
 28 29  1  0  0  0  0
 28 57  1  0  0  0  0
 28 58  1  0  0  0  0
 29 30  1  0  0  0  0
 29 59  1  0  0  0  0
 29 60  1  0  0  0  0
 30 31  1  0  0  0  0
 31 32  1  0  0  0  0
 31 61  1  0  0  0  0
 31 62  1  0  0  0  0
 32 33  1  0  0  0  0
 32 63  1  0  0  0  0
 32 64  1  0  0  0  0
 33 34  1  0  0  0  0
 34 35  1  0  0  0  0
 34 65  1  0  0  0  0
 34 66  1  0  0  0  0
 35 36  2  0  0  0  0
 35 37  1  0  0  0  0
 37 67  1  0  0  0  0
 37 68  1  0  0  0  0
M  END
$$$$
