2FF
 OpenBabel04051920503D

 56 60  0  0  0  0  0  0  0  0999 V2000
   22.2014   77.6579   83.0338 C   0  0  0  0  0  0  0  0  0  0  0  0
   22.6826   78.2644   84.1845 C   0  0  0  0  0  0  0  0  0  0  0  0
   21.8184   78.7293   85.1594 C   0  0  0  0  0  0  0  0  0  0  0  0
   20.4516   78.6259   85.0233 C   0  0  0  0  0  0  0  0  0  0  0  0
   19.9460   78.0398   83.8581 C   0  0  0  0  0  0  0  0  0  0  0  0
   20.8130   77.5437   82.8599 C   0  0  0  0  0  0  0  0  0  0  0  0
   22.4474   79.2423   86.2600 O   0  0  0  0  0  0  0  0  0  0  0  0
   23.8276   79.3803   85.8459 C   0  0  0  0  0  0  0  0  0  0  0  0
   24.0925   78.4363   84.6463 C   0  0  0  0  0  0  0  0  0  0  0  0
   24.6545   77.0651   85.0794 C   0  0  0  0  0  0  0  0  0  0  0  0
   26.1451   77.1007   85.4296 C   0  0  0  0  0  0  0  0  0  0  0  0
   26.9124   77.8243   84.4144 N   0  0  0  0  0  0  0  0  0  0  0  0
   26.4273   79.1819   84.1433 C   0  0  0  0  0  0  0  0  0  0  0  0
   25.0030   79.0984   83.6017 C   0  0  0  0  0  0  0  0  0  0  0  0
   27.7456   77.2299   83.4372 C   0  0  0  0  0  0  0  0  0  0  0  0
   28.2270   75.8612   83.5978 C   0  0  0  0  0  0  0  0  0  0  0  0
   28.3831   75.1028   82.4507 O   0  0  0  0  0  0  0  0  0  0  0  0
   28.9017   73.8963   82.8112 C   0  0  0  0  0  0  0  0  0  0  0  0
   29.0859   73.8499   84.1729 C   0  0  0  0  0  0  0  0  0  0  0  0
   28.6659   75.1119   84.6779 C   0  0  0  0  0  0  0  0  0  0  0  0
   29.1627   72.9338   81.7781 C   0  0  0  0  0  0  0  0  0  0  0  0
   29.4061   72.1067   80.9391 C   0  0  0  0  0  0  0  0  0  0  0  0
   29.6930   71.1041   79.9438 C   0  0  0  0  0  0  0  0  0  0  0  0
   29.8634   71.4626   78.5992 C   0  0  0  0  0  0  0  0  0  0  0  0
   30.1408   70.4906   77.6251 C   0  0  0  0  0  0  0  0  0  0  0  0
   30.2520   69.1479   77.9863 C   0  0  0  0  0  0  0  0  0  0  0  0
   30.0851   68.7798   79.3203 C   0  0  0  0  0  0  0  0  0  0  0  0
   29.8073   69.7525   80.2925 C   0  0  0  0  0  0  0  0  0  0  0  0
   28.0443   77.8840   82.4347 O   0  0  0  0  0  0  0  0  0  0  0  0
   20.2679   76.9482   81.5959 C   0  0  0  0  0  0  0  0  0  0  0  0
   20.4177   77.9049   80.4781 N   0  3  0  0  0  0  0  0  0  0  0  0
   22.9038   77.2601   82.3052 H   0  0  0  0  0  0  0  0  0  0  0  0
   19.7922   78.9891   85.8061 H   0  0  0  0  0  0  0  0  0  0  0  0
   18.8647   77.9649   83.7501 H   0  0  0  0  0  0  0  0  0  0  0  0
   24.4770   79.1672   86.7016 H   0  0  0  0  0  0  0  0  0  0  0  0
   23.9765   80.4362   85.5800 H   0  0  0  0  0  0  0  0  0  0  0  0
   24.5191   76.3466   84.2592 H   0  0  0  0  0  0  0  0  0  0  0  0
   24.0888   76.6639   85.9309 H   0  0  0  0  0  0  0  0  0  0  0  0
   26.4823   76.0717   85.5382 H   0  0  0  0  0  0  0  0  0  0  0  0
   26.2997   77.6027   86.3912 H   0  0  0  0  0  0  0  0  0  0  0  0
   27.0640   79.7077   83.4252 H   0  0  0  0  0  0  0  0  0  0  0  0
   26.4598   79.7594   85.0752 H   0  0  0  0  0  0  0  0  0  0  0  0
   24.6325   80.0953   83.3305 H   0  0  0  0  0  0  0  0  0  0  0  0
   25.0035   78.5092   82.6745 H   0  0  0  0  0  0  0  0  0  0  0  0
   29.4959   73.0223   84.7358 H   0  0  0  0  0  0  0  0  0  0  0  0
   28.7122   75.4428   85.7080 H   0  0  0  0  0  0  0  0  0  0  0  0
   29.7882   72.5029   78.2963 H   0  0  0  0  0  0  0  0  0  0  0  0
   30.2751   70.7808   76.5876 H   0  0  0  0  0  0  0  0  0  0  0  0
   30.4711   68.3944   77.2319 H   0  0  0  0  0  0  0  0  0  0  0  0
   30.1754   67.7330   79.6023 H   0  0  0  0  0  0  0  0  0  0  0  0
   29.6862   69.4386   81.3260 H   0  0  0  0  0  0  0  0  0  0  0  0
   19.2014   76.7155   81.6770 H   0  0  0  0  0  0  0  0  0  0  0  0
   20.8026   76.0333   81.3190 H   0  0  0  0  0  0  0  0  0  0  0  0
   20.0411   77.5352   79.5988 H   0  0  0  0  0  0  0  0  0  0  0  0
   19.9335   78.7838   80.6987 H   0  0  0  0  0  0  0  0  0  0  0  0
   21.4078   78.1370   80.3321 H   0  0  0  0  0  0  0  0  0  0  0  0
  1  2  2  0  0  0  0
  1  6  1  0  0  0  0
  1 32  1  0  0  0  0
  2  3  1  0  0  0  0
  2  9  1  0  0  0  0
  3  4  2  0  0  0  0
  3  7  1  0  0  0  0
  4  5  1  0  0  0  0
  4 33  1  0  0  0  0
  5  6  2  0  0  0  0
  5 34  1  0  0  0  0
  6 30  1  0  0  0  0
  7  8  1  0  0  0  0
  8  9  1  0  0  0  0
  8 35  1  0  0  0  0
  8 36  1  0  0  0  0
  9 10  1  0  0  0  0
  9 14  1  0  0  0  0
 10 11  1  0  0  0  0
 10 37  1  0  0  0  0
 10 38  1  0  0  0  0
 11 12  1  0  0  0  0
 11 39  1  0  0  0  0
 11 40  1  0  0  0  0
 12 13  1  0  0  0  0
 12 15  1  0  0  0  0
 13 14  1  0  0  0  0
 13 41  1  0  0  0  0
 13 42  1  0  0  0  0
 14 43  1  0  0  0  0
 14 44  1  0  0  0  0
 15 16  1  0  0  0  0
 15 29  2  0  0  0  0
 16 17  1  0  0  0  0
 16 20  2  0  0  0  0
 17 18  1  0  0  0  0
 18 19  2  0  0  0  0
 18 21  1  0  0  0  0
 19 20  1  0  0  0  0
 19 45  1  0  0  0  0
 20 46  1  0  0  0  0
 21 22  3  0  0  0  0
 22 23  1  0  0  0  0
 23 24  2  0  0  0  0
 23 28  1  0  0  0  0
 24 25  1  0  0  0  0
 24 47  1  0  0  0  0
 25 26  2  0  0  0  0
 25 48  1  0  0  0  0
 26 27  1  0  0  0  0
 26 49  1  0  0  0  0
 27 28  2  0  0  0  0
 27 50  1  0  0  0  0
 28 51  1  0  0  0  0
 30 31  1  0  0  0  0
 30 52  1  0  0  0  0
 30 53  1  0  0  0  0
 31 54  1  0  0  0  0
 31 55  1  0  0  0  0
 31 56  1  0  0  0  0
M  CHG  1  31   1
M  END
$$$$
