2GG
 OpenBabel04051919283D

 44 46  0  0  0  0  0  0  0  0999 V2000
   35.0925    5.6333   21.6656 C   0  0  0  0  0  0  0  0  0  0  0  0
   35.4312    6.2393   22.9094 O   0  0  0  0  0  0  0  0  0  0  0  0
   34.4028    6.7646   23.6447 C   0  0  0  0  0  0  0  0  0  0  0  0
   33.0569    6.7642   23.2765 C   0  0  0  0  0  0  0  0  0  0  0  0
   32.0922    7.3277   24.1200 C   0  0  0  0  0  0  0  0  0  0  0  0
   34.7747    7.3413   24.8633 C   0  0  0  0  0  0  0  0  0  0  0  0
   33.8142    7.9029   25.7100 C   0  0  0  0  0  0  0  0  0  0  0  0
   32.4661    7.8869   25.3450 C   0  0  0  0  0  0  0  0  0  0  0  0
   31.4671    8.4521   26.2286 C   0  0  0  0  0  0  0  0  0  0  0  0
   31.0659    8.0616   27.5353 C   0  0  0  0  0  0  0  0  0  0  0  0
   31.5668    6.9087   28.2897 C   0  0  0  0  0  0  0  0  0  0  0  0
   32.0566    5.9267   27.7385 O   0  0  0  0  0  0  0  0  0  0  0  0
   31.4942    7.0293   29.6608 N   0  0  0  0  0  0  0  0  0  0  0  0
   32.0079    6.0028   30.5369 C   0  0  0  0  0  0  0  0  0  0  0  0
   33.4728    6.2219   30.8798 C   0  0  0  0  0  0  0  0  0  0  0  0
   30.1503    8.9138   28.0278 N   0  0  0  0  0  0  0  0  0  0  0  0
   30.7355    9.5779   25.9630 C   0  0  0  0  0  0  0  0  0  0  0  0
   30.7222   10.5170   24.8490 C   0  0  0  0  0  0  0  0  0  0  0  0
   31.9442   11.0345   24.3941 C   0  0  0  0  0  0  0  0  0  0  0  0
   31.9964   11.8406   23.2588 C   0  0  0  0  0  0  0  0  0  0  0  0
   33.5316   12.4258   22.7328 Cl  0  0  0  0  0  0  0  0  0  0  0  0
   30.8203   12.1389   22.5684 C   0  0  0  0  0  0  0  0  0  0  0  0
   30.8734   12.9086   21.4406 O   0  0  0  0  0  0  0  0  0  0  0  0
   29.5928   11.6478   23.0170 C   0  0  0  0  0  0  0  0  0  0  0  0
   29.5510   10.8500   24.1609 C   0  0  0  0  0  0  0  0  0  0  0  0
   28.3476   10.3442   24.5650 O   0  0  0  0  0  0  0  0  0  0  0  0
   29.9186    9.8489   27.0199 O   0  0  0  0  0  0  0  0  0  0  0  0
   36.0150    5.2615   21.2070 H   0  0  0  0  0  0  0  0  0  0  0  0
   34.6530    6.3620   20.9765 H   0  0  0  0  0  0  0  0  0  0  0  0
   34.4274    4.7753   21.8093 H   0  0  0  0  0  0  0  0  0  0  0  0
   32.7208    6.3234   22.3446 H   0  0  0  0  0  0  0  0  0  0  0  0
   31.0475    7.3105   23.8168 H   0  0  0  0  0  0  0  0  0  0  0  0
   35.8183    7.3445   25.1653 H   0  0  0  0  0  0  0  0  0  0  0  0
   34.1302    8.3450   26.6525 H   0  0  0  0  0  0  0  0  0  0  0  0
   31.1494    7.9040   30.0376 H   0  0  0  0  0  0  0  0  0  0  0  0
   31.8885    5.0232   30.0604 H   0  0  0  0  0  0  0  0  0  0  0  0
   31.4015    6.0140   31.4474 H   0  0  0  0  0  0  0  0  0  0  0  0
   33.8297    5.4322   31.5498 H   0  0  0  0  0  0  0  0  0  0  0  0
   33.6169    7.1847   31.3801 H   0  0  0  0  0  0  0  0  0  0  0  0
   34.0978    6.2136   29.9812 H   0  0  0  0  0  0  0  0  0  0  0  0
   32.8694   10.7904   24.9138 H   0  0  0  0  0  0  0  0  0  0  0  0
   29.9791   13.0237   21.0838 H   0  0  0  0  0  0  0  0  0  0  0  0
   28.6811   11.8447   22.4643 H   0  0  0  0  0  0  0  0  0  0  0  0
   27.7401   11.0934   24.6885 H   0  0  0  0  0  0  0  0  0  0  0  0
  1  2  1  0  0  0  0
  1 28  1  0  0  0  0
  1 29  1  0  0  0  0
  1 30  1  0  0  0  0
  2  3  1  0  0  0  0
  3  4  2  0  0  0  0
  3  6  1  0  0  0  0
  4  5  1  0  0  0  0
  4 31  1  0  0  0  0
  5  8  2  0  0  0  0
  5 32  1  0  0  0  0
  6  7  2  0  0  0  0
  6 33  1  0  0  0  0
  7  8  1  0  0  0  0
  7 34  1  0  0  0  0
  8  9  1  0  0  0  0
  9 10  1  0  0  0  0
  9 17  2  0  0  0  0
 10 11  1  0  0  0  0
 10 16  2  0  0  0  0
 11 12  2  0  0  0  0
 11 13  1  0  0  0  0
 13 14  1  0  0  0  0
 13 35  1  0  0  0  0
 14 15  1  0  0  0  0
 14 36  1  0  0  0  0
 14 37  1  0  0  0  0
 15 38  1  0  0  0  0
 15 39  1  0  0  0  0
 15 40  1  0  0  0  0
 16 27  1  0  0  0  0
 17 18  1  0  0  0  0
 17 27  1  0  0  0  0
 18 19  2  0  0  0  0
 18 25  1  0  0  0  0
 19 20  1  0  0  0  0
 19 41  1  0  0  0  0
 20 21  1  0  0  0  0
 20 22  2  0  0  0  0
 22 23  1  0  0  0  0
 22 24  1  0  0  0  0
 23 42  1  0  0  0  0
 24 25  2  0  0  0  0
 24 43  1  0  0  0  0
 25 26  1  0  0  0  0
 26 44  1  0  0  0  0
M  END
$$$$
