2NC
 OpenBabel04051917203D

123122  0  0  1  0  0  0  0  0999 V2000
   23.3955   24.3300   19.8590 C   0  0  0  0  0  0  0  0  0  0  0  0
   22.9538   24.7066   20.9380 O   0  0  0  0  0  0  0  0  0  0  0  0
   24.0769   23.0049   19.6880 C   0  0  0  0  0  0  0  0  0  0  0  0
   23.2924   25.0653   18.7049 N   0  0  0  0  0  0  0  0  0  0  0  0
   22.7824   26.4313   18.7383 C   0  0  2  0  0  0  0  0  0  0  0  0
   21.3824   26.5454   18.1327 C   0  0  0  0  0  0  0  0  0  0  0  0
   20.7267   27.5923   18.2169 O   0  0  0  0  0  0  0  0  0  0  0  0
   23.7196   27.4098   18.0134 C   0  0  2  0  0  0  0  0  0  0  0  0
   23.9224   26.9528   16.6686 O   0  0  0  0  0  0  0  0  0  0  0  0
   25.0722   27.4978   18.7115 C   0  0  0  0  0  0  0  0  0  0  0  0
   20.9008   25.4592   17.4377 N   0  0  0  0  0  0  0  0  0  0  0  0
   19.6386   25.5209   16.7186 C   0  0  2  0  0  0  0  0  0  0  0  0
   18.7392   24.4251   17.2738 C   0  0  0  0  0  0  0  0  0  0  0  0
   18.6014   23.2966   16.7995 O   0  0  0  0  0  0  0  0  0  0  0  0
   19.8084   25.2994   15.2080 C   0  0  2  0  0  0  0  0  0  0  0  0
   20.9062   26.1752   14.5876 C   0  0  0  0  0  0  0  0  0  0  0  0
   18.4669   25.5019   14.4977 C   0  0  0  0  0  0  0  0  0  0  0  0
   20.6564   27.6717   14.6690 C   0  0  0  0  0  0  0  0  0  0  0  0
   18.0136   24.7982   18.3941 N   0  0  0  0  0  0  0  0  0  0  0  0
   17.2918   23.8128   19.1940 C   0  0  2  0  0  0  0  0  0  0  0  0
   15.7775   23.9145   18.9463 C   0  0  0  0  0  0  0  0  0  0  0  0
   17.5714   23.9975   20.6817 C   0  0  0  0  0  0  0  0  0  0  0  0
   19.0532   24.0062   21.0574 C   0  0  0  0  0  0  0  0  0  0  0  0
   19.7930   22.7228   20.6971 C   0  0  0  0  0  0  0  0  0  0  0  0
   19.1873   21.4863   21.3370 C   0  0  0  0  0  0  0  0  0  0  0  0
   15.4885   23.7772   17.4854 N   0  3  0  0  0  0  0  0  0  0  0  0
   14.2346   23.0240   17.1077 C   0  0  2  0  0  0  0  0  0  0  0  0
   14.2956   21.5986   17.6151 C   0  0  0  0  0  0  0  0  0  0  0  0
   15.3546   20.9517   17.5586 O   0  0  0  0  0  0  0  0  0  0  0  0
   14.2224   22.9874   15.5799 C   0  0  0  0  0  0  0  0  0  0  0  0
   12.9391   22.4332   14.9541 C   0  0  0  0  0  0  0  0  0  0  0  0
   13.0920   20.9982   14.4472 C   0  0  0  0  0  0  0  0  0  0  0  0
   14.1923   20.8251   13.4108 C   0  0  0  0  0  0  0  0  0  0  0  0
   13.1282   21.0885   18.0826 N   0  0  0  0  0  0  0  0  0  0  0  0
   13.0371   19.7049   18.5085 C   0  0  2  0  0  0  0  0  0  0  0  0
   11.6202   19.2499   18.1824 C   0  0  0  0  0  0  0  0  0  0  0  0
   10.6432   19.9847   18.3582 O   0  0  0  0  0  0  0  0  0  0  0  0
   13.3876   19.5690   19.9851 C   0  0  0  0  0  0  0  0  0  0  0  0
   13.2121   18.1520   20.5087 C   0  0  0  0  0  0  0  0  0  0  0  0
   11.8151   17.9122   21.0139 C   0  0  0  0  0  0  0  0  0  0  0  0
   11.0696   18.7976   21.4188 O   0  0  0  0  0  0  0  0  0  0  0  0
   11.3878   16.6209   20.9569 N   0  0  0  0  0  0  0  0  0  0  0  0
   11.5582   18.0147   17.6232 N   0  0  0  0  0  0  0  0  0  0  0  0
   10.2861   17.4022   17.2771 C   0  0  2  0  0  0  0  0  0  0  0  0
   10.1906   16.0432   17.9807 C   0  0  0  0  0  0  0  0  0  0  0  0
   11.1356   15.2668   18.0396 O   0  0  0  0  0  0  0  0  0  0  0  0
   10.2333   17.1607   15.7804 C   0  0  0  0  0  0  0  0  0  0  0  0
   10.1649   18.4698   15.0122 C   0  0  0  0  0  0  0  0  0  0  0  0
   10.3274   18.2257   13.5293 C   0  0  0  0  0  0  0  0  0  0  0  0
    9.8081   19.3802   12.7956 N   0  0  0  0  0  0  0  0  0  0  0  0
    9.6304   19.3837   11.4753 C   0  0  0  0  0  0  0  0  0  0  0  0
   10.0016   18.3402   10.7411 N   0  0  0  0  0  0  0  0  0  0  0  0
    9.0667   20.4414   10.8875 N   0  0  0  0  0  0  0  0  0  0  0  0
    8.9505   15.7340   18.4463 N   0  0  0  0  0  0  0  0  0  0  0  0
   24.3962   22.8528   18.6532 H   0  0  0  0  0  0  0  0  0  0  0  0
   23.3743   22.2131   19.9591 H   0  0  0  0  0  0  0  0  0  0  0  0
   24.9554   22.9680   20.3351 H   0  0  0  0  0  0  0  0  0  0  0  0
   23.7185   24.7496   17.8385 H   0  0  0  0  0  0  0  0  0  0  0  0
   22.6711   26.7518   19.7844 H   0  0  0  0  0  0  0  0  0  0  0  0
   23.2674   28.4074   17.9779 H   0  0  0  0  0  0  0  0  0  0  0  0
   24.4885   27.6088   16.2210 H   0  0  0  0  0  0  0  0  0  0  0  0
   25.7303   28.1976   18.1862 H   0  0  0  0  0  0  0  0  0  0  0  0
   25.5816   26.5283   18.7126 H   0  0  0  0  0  0  0  0  0  0  0  0
   24.9577   27.8339   19.7464 H   0  0  0  0  0  0  0  0  0  0  0  0
   21.4716   24.6212   17.3963 H   0  0  0  0  0  0  0  0  0  0  0  0
   19.1533   26.4856   16.8937 H   0  0  0  0  0  0  0  0  0  0  0  0
   20.1078   24.2552   15.0444 H   0  0  0  0  0  0  0  0  0  0  0  0
   21.0225   25.8947   13.5361 H   0  0  0  0  0  0  0  0  0  0  0  0
   21.8597   25.9507   15.0779 H   0  0  0  0  0  0  0  0  0  0  0  0
   17.6822   24.8774   14.9362 H   0  0  0  0  0  0  0  0  0  0  0  0
   18.5549   25.2292   13.4435 H   0  0  0  0  0  0  0  0  0  0  0  0
   18.1240   26.5393   14.5666 H   0  0  0  0  0  0  0  0  0  0  0  0
   21.4940   28.2104   14.2165 H   0  0  0  0  0  0  0  0  0  0  0  0
   20.5628   28.0109   15.7020 H   0  0  0  0  0  0  0  0  0  0  0  0
   19.7481   27.9570   14.1322 H   0  0  0  0  0  0  0  0  0  0  0  0
   18.1689   25.7361   18.7688 H   0  0  0  0  0  0  0  0  0  0  0  0
   17.6113   22.8059   18.8894 H   0  0  0  0  0  0  0  0  0  0  0  0
   15.4033   24.9028   19.2316 H   0  0  0  0  0  0  0  0  0  0  0  0
   15.2427   23.1390   19.5004 H   0  0  0  0  0  0  0  0  0  0  0  0
   17.0605   23.1992   21.2331 H   0  0  0  0  0  0  0  0  0  0  0  0
   17.1294   24.9410   21.0168 H   0  0  0  0  0  0  0  0  0  0  0  0
   19.1322   24.1808   22.1369 H   0  0  0  0  0  0  0  0  0  0  0  0
   19.5549   24.8500   20.5680 H   0  0  0  0  0  0  0  0  0  0  0  0
   20.8338   22.8162   21.0239 H   0  0  0  0  0  0  0  0  0  0  0  0
   19.8074   22.5947   19.6100 H   0  0  0  0  0  0  0  0  0  0  0  0
   19.7605   20.6009   21.0503 H   0  0  0  0  0  0  0  0  0  0  0  0
   18.1560   21.3277   21.0088 H   0  0  0  0  0  0  0  0  0  0  0  0
   19.1952   21.5705   22.4282 H   0  0  0  0  0  0  0  0  0  0  0  0
   15.4762   24.7084   17.0640 H   0  0  0  0  0  0  0  0  0  0  0  0
   13.3805   23.5702   17.5185 H   0  0  0  0  0  0  0  0  0  0  0  0
   15.0803   22.3844   15.2691 H   0  0  0  0  0  0  0  0  0  0  0  0
   14.3874   23.9905   15.1888 H   0  0  0  0  0  0  0  0  0  0  0  0
   12.6705   23.0731   14.1042 H   0  0  0  0  0  0  0  0  0  0  0  0
   12.1025   22.4824   15.6614 H   0  0  0  0  0  0  0  0  0  0  0  0
   12.1445   20.6862   13.9971 H   0  0  0  0  0  0  0  0  0  0  0  0
   13.2923   20.3303   15.2903 H   0  0  0  0  0  0  0  0  0  0  0  0
   14.2443   19.7806   13.0930 H   0  0  0  0  0  0  0  0  0  0  0  0
   15.1790   21.0780   13.8059 H   0  0  0  0  0  0  0  0  0  0  0  0
   14.0055   21.4538   12.5356 H   0  0  0  0  0  0  0  0  0  0  0  0
   12.2713   21.6449   18.1447 H   0  0  0  0  0  0  0  0  0  0  0  0
   13.7338   19.1140   17.9087 H   0  0  0  0  0  0  0  0  0  0  0  0
   12.7983   20.2898   20.5674 H   0  0  0  0  0  0  0  0  0  0  0  0
   14.4387   19.8570   20.0997 H   0  0  0  0  0  0  0  0  0  0  0  0
   13.8773   18.0019   21.3672 H   0  0  0  0  0  0  0  0  0  0  0  0
   13.4726   17.4158   19.7435 H   0  0  0  0  0  0  0  0  0  0  0  0
   10.4506   16.4113   21.2766 H   0  0  0  0  0  0  0  0  0  0  0  0
   11.9455   15.8592   20.5916 H   0  0  0  0  0  0  0  0  0  0  0  0
   12.3808   17.4254   17.5558 H   0  0  0  0  0  0  0  0  0  0  0  0
    9.4543   18.0415   17.6001 H   0  0  0  0  0  0  0  0  0  0  0  0
    9.3591   16.5532   15.5301 H   0  0  0  0  0  0  0  0  0  0  0  0
   11.1242   16.6001   15.4602 H   0  0  0  0  0  0  0  0  0  0  0  0
   10.9448   19.1648   15.3366 H   0  0  0  0  0  0  0  0  0  0  0  0
    9.2004   18.9535   15.2069 H   0  0  0  0  0  0  0  0  0  0  0  0
    9.7747   17.3270   13.2325 H   0  0  0  0  0  0  0  0  0  0  0  0
   11.3882   18.1021   13.2812 H   0  0  0  0  0  0  0  0  0  0  0  0
    9.5152   20.2020   13.3129 H   0  0  0  0  0  0  0  0  0  0  0  0
    9.8701   18.3080    9.7416 H   0  0  0  0  0  0  0  0  0  0  0  0
    8.7450   21.2401   11.4125 H   0  0  0  0  0  0  0  0  0  0  0  0
    8.9242   20.4621    9.8854 H   0  0  0  0  0  0  0  0  0  0  0  0
    8.8092   14.8494   18.9184 H   0  0  0  0  0  0  0  0  0  0  0  0
    8.1747   16.3831   18.4265 H   0  0  0  0  0  0  0  0  0  0  0  0
   16.2903   23.2704   17.0613 H   0  0  0  0  0  0  0  0  0  0  0  0
   10.4108   17.5174   11.1699 H   0  0  0  0  0  0  0  0  0  0  0  0
  1  2  2  0  0  0  0
  1  3  1  0  0  0  0
  1  4  1  0  0  0  0
  3 55  1  0  0  0  0
  3 56  1  0  0  0  0
  3 57  1  0  0  0  0
  4  5  1  0  0  0  0
  4 58  1  0  0  0  0
  5  6  1  0  0  0  0
  5  8  1  0  0  0  0
  5 59  1  1  0  0  0
  6  7  2  0  0  0  0
  6 11  1  0  0  0  0
  8  9  1  0  0  0  0
  8 10  1  0  0  0  0
  8 60  1  6  0  0  0
  9 61  1  0  0  0  0
 10 62  1  0  0  0  0
 10 63  1  0  0  0  0
 10 64  1  0  0  0  0
 11 12  1  0  0  0  0
 11 65  1  0  0  0  0
 12 13  1  0  0  0  0
 12 15  1  0  0  0  0
 12 66  1  1  0  0  0
 13 14  2  0  0  0  0
 13 19  1  0  0  0  0
 15 16  1  0  0  0  0
 15 17  1  0  0  0  0
 15 67  1  6  0  0  0
 16 18  1  0  0  0  0
 16 68  1  0  0  0  0
 16 69  1  0  0  0  0
 17 70  1  0  0  0  0
 17 71  1  0  0  0  0
 17 72  1  0  0  0  0
 18 73  1  0  0  0  0
 18 74  1  0  0  0  0
 18 75  1  0  0  0  0
 19 20  1  0  0  0  0
 19 76  1  0  0  0  0
 20 21  1  0  0  0  0
 20 22  1  0  0  0  0
 20 77  1  6  0  0  0
 21 26  1  0  0  0  0
 21 78  1  0  0  0  0
 21 79  1  0  0  0  0
 22 23  1  0  0  0  0
 22 80  1  0  0  0  0
 22 81  1  0  0  0  0
 23 24  1  0  0  0  0
 23 82  1  0  0  0  0
 23 83  1  0  0  0  0
 24 25  1  0  0  0  0
 24 84  1  0  0  0  0
 24 85  1  0  0  0  0
 25 86  1  0  0  0  0
 25 87  1  0  0  0  0
 25 88  1  0  0  0  0
 26 27  1  0  0  0  0
 26 89  1  0  0  0  0
 26122  1  0  0  0  0
 27 28  1  0  0  0  0
 27 30  1  0  0  0  0
 27 90  1  1  0  0  0
 28 29  2  0  0  0  0
 28 34  1  0  0  0  0
 30 31  1  0  0  0  0
 30 91  1  0  0  0  0
 30 92  1  0  0  0  0
 31 32  1  0  0  0  0
 31 93  1  0  0  0  0
 31 94  1  0  0  0  0
 32 33  1  0  0  0  0
 32 95  1  0  0  0  0
 32 96  1  0  0  0  0
 33 97  1  0  0  0  0
 33 98  1  0  0  0  0
 33 99  1  0  0  0  0
 34 35  1  0  0  0  0
 34100  1  0  0  0  0
 35 36  1  0  0  0  0
 35 38  1  0  0  0  0
 35101  1  6  0  0  0
 36 37  2  0  0  0  0
 36 43  1  0  0  0  0
 38 39  1  0  0  0  0
 38102  1  0  0  0  0
 38103  1  0  0  0  0
 39 40  1  0  0  0  0
 39104  1  0  0  0  0
 39105  1  0  0  0  0
 40 41  2  0  0  0  0
 40 42  1  0  0  0  0
 42106  1  0  0  0  0
 42107  1  0  0  0  0
 43 44  1  0  0  0  0
 43108  1  0  0  0  0
 44 45  1  0  0  0  0
 44 47  1  0  0  0  0
 44109  1  1  0  0  0
 45 46  2  0  0  0  0
 45 54  1  0  0  0  0
 47 48  1  0  0  0  0
 47110  1  0  0  0  0
 47111  1  0  0  0  0
 48 49  1  0  0  0  0
 48112  1  0  0  0  0
 48113  1  0  0  0  0
 49 50  1  0  0  0  0
 49114  1  0  0  0  0
 49115  1  0  0  0  0
 50 51  1  0  0  0  0
 50116  1  0  0  0  0
 51 52  2  0  0  0  0
 51 53  1  0  0  0  0
 52117  1  0  0  0  0
 52123  1  0  0  0  0
 53118  1  0  0  0  0
 53119  1  0  0  0  0
 54120  1  0  0  0  0
 54121  1  0  0  0  0
M  CHG  1  26   1
M  END
$$$$
