2NC
 OpenBabel04051917203D

126125  0  0  1  0  0  0  0  0999 V2000
   23.6459   24.4644   19.8141 C   0  0  0  0  0  0  0  0  0  0  0  0
   23.3277   24.9240   20.9072 O   0  0  0  0  0  0  0  0  0  0  0  0
   24.3479   23.1385   19.6718 C   0  0  0  0  0  0  0  0  0  0  0  0
   23.4010   25.0942   18.6189 N   0  0  0  0  0  0  0  0  0  0  0  0
   22.9387   26.4839   18.5558 C   0  0  2  0  0  0  0  0  0  0  0  0
   21.5001   26.6165   18.0233 C   0  0  0  0  0  0  0  0  0  0  0  0
   20.8447   27.6510   18.1434 O   0  0  0  0  0  0  0  0  0  0  0  0
   23.9067   27.3916   17.7566 C   0  0  2  0  0  0  0  0  0  0  0  0
   23.9175   27.1950   16.3374 O   0  0  0  0  0  0  0  0  0  0  0  0
   25.2801   27.4598   18.4265 C   0  0  0  0  0  0  0  0  0  0  0  0
   24.6188   26.1493   15.6947 C   0  0  0  0  0  0  0  0  0  0  0  0
   21.0123   25.5296   17.3281 N   0  0  0  0  0  0  0  0  0  0  0  0
   19.7263   25.5690   16.6442 C   0  0  2  0  0  0  0  0  0  0  0  0
   18.8365   24.4648   17.2448 C   0  0  0  0  0  0  0  0  0  0  0  0
   18.7785   23.3146   16.8125 O   0  0  0  0  0  0  0  0  0  0  0  0
   19.8674   25.3482   15.1251 C   0  0  2  0  0  0  0  0  0  0  0  0
   20.9178   26.2576   14.4606 C   0  0  0  0  0  0  0  0  0  0  0  0
   18.4982   25.4947   14.4434 C   0  0  0  0  0  0  0  0  0  0  0  0
   20.6766   27.7550   14.5844 C   0  0  0  0  0  0  0  0  0  0  0  0
   18.0743   24.8475   18.3303 N   0  0  0  0  0  0  0  0  0  0  0  0
   17.3933   23.8406   19.1458 C   0  0  2  0  0  0  0  0  0  0  0  0
   15.8725   23.8649   18.8994 C   0  0  0  0  0  0  0  0  0  0  0  0
   17.6957   24.0230   20.6334 C   0  0  0  0  0  0  0  0  0  0  0  0
   19.1927   24.0694   20.9563 C   0  0  0  0  0  0  0  0  0  0  0  0
   19.9770   22.8180   20.5520 C   0  0  0  0  0  0  0  0  0  0  0  0
   19.3860   21.5280   21.1003 C   0  0  0  0  0  0  0  0  0  0  0  0
   15.6022   23.6951   17.4309 N   0  3  0  0  0  0  0  0  0  0  0  0
   14.2981   23.0111   17.0643 C   0  0  2  0  0  0  0  0  0  0  0  0
   14.3398   21.5536   17.5275 C   0  0  0  0  0  0  0  0  0  0  0  0
   15.3926   20.9198   17.4971 O   0  0  0  0  0  0  0  0  0  0  0  0
   14.1677   23.0962   15.5371 C   0  0  0  0  0  0  0  0  0  0  0  0
   13.0522   22.2597   14.8814 C   0  0  0  0  0  0  0  0  0  0  0  0
   13.5698   21.0640   14.0613 C   0  0  0  0  0  0  0  0  0  0  0  0
   14.5138   21.4357   12.9225 C   0  0  0  0  0  0  0  0  0  0  0  0
   13.1578   21.0449   17.9814 N   0  0  0  0  0  0  0  0  0  0  0  0
   13.0334   19.6504   18.3876 C   0  0  2  0  0  0  0  0  0  0  0  0
   11.5946   19.2653   18.0246 C   0  0  0  0  0  0  0  0  0  0  0  0
   10.6525   20.0440   18.1571 O   0  0  0  0  0  0  0  0  0  0  0  0
   13.3912   19.4841   19.8634 C   0  0  0  0  0  0  0  0  0  0  0  0
   13.2137   18.0535   20.3754 C   0  0  0  0  0  0  0  0  0  0  0  0
   11.8118   17.8123   20.8836 C   0  0  0  0  0  0  0  0  0  0  0  0
   11.0542   18.7060   21.2762 O   0  0  0  0  0  0  0  0  0  0  0  0
   11.4051   16.5137   20.8980 N   0  0  0  0  0  0  0  0  0  0  0  0
   11.4791   18.0335   17.4328 N   0  0  0  0  0  0  0  0  0  0  0  0
   10.1894   17.4608   17.0852 C   0  0  2  0  0  0  0  0  0  0  0  0
   10.1514   16.0657   17.7383 C   0  0  0  0  0  0  0  0  0  0  0  0
   11.1350   15.3264   17.7606 O   0  0  0  0  0  0  0  0  0  0  0  0
   10.0618   17.3047   15.5658 C   0  0  0  0  0  0  0  0  0  0  0  0
   10.1264   18.6093   14.7504 C   0  0  0  0  0  0  0  0  0  0  0  0
    9.9240   18.2981   13.2588 C   0  0  0  0  0  0  0  0  0  0  0  0
    8.7430   18.9576   12.6735 N   0  0  0  0  0  0  0  0  0  0  0  0
    8.1689   18.5467   11.5205 C   0  0  0  0  0  0  0  0  0  0  0  0
    8.6338   17.5172   10.8160 N   0  0  0  0  0  0  0  0  0  0  0  0
    7.1063   19.2072   11.0390 N   0  0  0  0  0  0  0  0  0  0  0  0
    8.9569   15.6531   18.2477 N   0  0  0  0  0  0  0  0  0  0  0  0
   24.5738   22.9155   18.6249 H   0  0  0  0  0  0  0  0  0  0  0  0
   23.7082   22.3491   20.0684 H   0  0  0  0  0  0  0  0  0  0  0  0
   25.2938   23.1683   20.2244 H   0  0  0  0  0  0  0  0  0  0  0  0
   23.7792   24.6895   17.7762 H   0  0  0  0  0  0  0  0  0  0  0  0
   22.8853   26.8686   19.5844 H   0  0  0  0  0  0  0  0  0  0  0  0
   23.4971   28.4094   17.8437 H   0  0  0  0  0  0  0  0  0  0  0  0
   25.9504   28.1319   17.8850 H   0  0  0  0  0  0  0  0  0  0  0  0
   25.7644   26.4805   18.4771 H   0  0  0  0  0  0  0  0  0  0  0  0
   25.1765   27.8330   19.4535 H   0  0  0  0  0  0  0  0  0  0  0  0
   24.4986   26.3202   14.6162 H   0  0  0  0  0  0  0  0  0  0  0  0
   24.1766   25.1691   15.8875 H   0  0  0  0  0  0  0  0  0  0  0  0
   25.6918   26.1476   15.9012 H   0  0  0  0  0  0  0  0  0  0  0  0
   21.5843   24.6953   17.2837 H   0  0  0  0  0  0  0  0  0  0  0  0
   19.2351   26.5316   16.8283 H   0  0  0  0  0  0  0  0  0  0  0  0
   20.2058   24.3165   14.9553 H   0  0  0  0  0  0  0  0  0  0  0  0
   20.9819   26.0022   13.3964 H   0  0  0  0  0  0  0  0  0  0  0  0
   21.9006   26.0263   14.8823 H   0  0  0  0  0  0  0  0  0  0  0  0
   17.7542   24.8207   14.8815 H   0  0  0  0  0  0  0  0  0  0  0  0
   18.5700   25.2482   13.3807 H   0  0  0  0  0  0  0  0  0  0  0  0
   18.1057   26.5116   14.5399 H   0  0  0  0  0  0  0  0  0  0  0  0
   21.4905   28.3005   14.0969 H   0  0  0  0  0  0  0  0  0  0  0  0
   20.6440   28.0813   15.6254 H   0  0  0  0  0  0  0  0  0  0  0  0
   19.7416   28.0549   14.1039 H   0  0  0  0  0  0  0  0  0  0  0  0
   18.2376   25.7789   18.7124 H   0  0  0  0  0  0  0  0  0  0  0  0
   17.7480   22.8466   18.8455 H   0  0  0  0  0  0  0  0  0  0  0  0
   15.4359   24.8283   19.1818 H   0  0  0  0  0  0  0  0  0  0  0  0
   15.3768   23.0605   19.4513 H   0  0  0  0  0  0  0  0  0  0  0  0
   17.2234   23.2069   21.1935 H   0  0  0  0  0  0  0  0  0  0  0  0
   17.2287   24.9470   20.9929 H   0  0  0  0  0  0  0  0  0  0  0  0
   19.3066   24.2347   22.0336 H   0  0  0  0  0  0  0  0  0  0  0  0
   19.6483   24.9401   20.4678 H   0  0  0  0  0  0  0  0  0  0  0  0
   21.0059   22.9207   20.9149 H   0  0  0  0  0  0  0  0  0  0  0  0
   20.0422   22.7493   19.4606 H   0  0  0  0  0  0  0  0  0  0  0  0
   20.0033   20.6748   20.8049 H   0  0  0  0  0  0  0  0  0  0  0  0
   18.3789   21.3458   20.7129 H   0  0  0  0  0  0  0  0  0  0  0  0
   19.3339   21.5567   22.1928 H   0  0  0  0  0  0  0  0  0  0  0  0
   15.7008   24.6048   16.9670 H   0  0  0  0  0  0  0  0  0  0  0  0
   13.4960   23.5583   17.5704 H   0  0  0  0  0  0  0  0  0  0  0  0
   15.1357   22.8360   15.1011 H   0  0  0  0  0  0  0  0  0  0  0  0
   13.9936   24.1474   15.2779 H   0  0  0  0  0  0  0  0  0  0  0  0
   12.4827   22.9078   14.2083 H   0  0  0  0  0  0  0  0  0  0  0  0
   12.3313   21.8957   15.6201 H   0  0  0  0  0  0  0  0  0  0  0  0
   12.7066   20.5469   13.6247 H   0  0  0  0  0  0  0  0  0  0  0  0
   14.0671   20.3447   14.7217 H   0  0  0  0  0  0  0  0  0  0  0  0
   14.8063   20.5358   12.3715 H   0  0  0  0  0  0  0  0  0  0  0  0
   15.4363   21.9000   13.2804 H   0  0  0  0  0  0  0  0  0  0  0  0
   14.0348   22.1235   12.2189 H   0  0  0  0  0  0  0  0  0  0  0  0
   12.3043   21.5986   18.0519 H   0  0  0  0  0  0  0  0  0  0  0  0
   13.7219   19.0607   17.7718 H   0  0  0  0  0  0  0  0  0  0  0  0
   12.8247   20.1989   20.4718 H   0  0  0  0  0  0  0  0  0  0  0  0
   14.4483   19.7699   19.9853 H   0  0  0  0  0  0  0  0  0  0  0  0
   13.8938   17.8949   21.2209 H   0  0  0  0  0  0  0  0  0  0  0  0
   13.4769   17.3257   19.6055 H   0  0  0  0  0  0  0  0  0  0  0  0
   10.4736   16.3143   21.2438 H   0  0  0  0  0  0  0  0  0  0  0  0
   11.9462   15.7434   20.5193 H   0  0  0  0  0  0  0  0  0  0  0  0
   12.2820   17.4128   17.3673 H   0  0  0  0  0  0  0  0  0  0  0  0
    9.3767   18.0758   17.4845 H   0  0  0  0  0  0  0  0  0  0  0  0
    9.1172   16.7945   15.3451 H   0  0  0  0  0  0  0  0  0  0  0  0
   10.8656   16.6454   15.2077 H   0  0  0  0  0  0  0  0  0  0  0  0
   11.1175   19.0631   14.8768 H   0  0  0  0  0  0  0  0  0  0  0  0
    9.3920   19.3341   15.1180 H   0  0  0  0  0  0  0  0  0  0  0  0
    9.8056   17.2186   13.1256 H   0  0  0  0  0  0  0  0  0  0  0  0
   10.7967   18.6336   12.6889 H   0  0  0  0  0  0  0  0  0  0  0  0
    8.3108   19.7345   13.1608 H   0  0  0  0  0  0  0  0  0  0  0  0
    8.1840   17.2089    9.9613 H   0  0  0  0  0  0  0  0  0  0  0  0
    6.7029   20.0109   11.5003 H   0  0  0  0  0  0  0  0  0  0  0  0
    6.6687   18.9177   10.1706 H   0  0  0  0  0  0  0  0  0  0  0  0
    8.9373   14.7544   18.7188 H   0  0  0  0  0  0  0  0  0  0  0  0
    8.1729   16.2723   18.4112 H   0  0  0  0  0  0  0  0  0  0  0  0
   16.3712   23.1073   17.0481 H   0  0  0  0  0  0  0  0  0  0  0  0
    9.4452   16.9895   11.1072 H   0  0  0  0  0  0  0  0  0  0  0  0
  1  2  2  0  0  0  0
  1  3  1  0  0  0  0
  1  4  1  0  0  0  0
  3 56  1  0  0  0  0
  3 57  1  0  0  0  0
  3 58  1  0  0  0  0
  4  5  1  0  0  0  0
  4 59  1  0  0  0  0
  5  6  1  0  0  0  0
  5  8  1  0  0  0  0
  5 60  1  1  0  0  0
  6  7  2  0  0  0  0
  6 12  1  0  0  0  0
  8  9  1  0  0  0  0
  8 10  1  0  0  0  0
  8 61  1  1  0  0  0
  9 11  1  0  0  0  0
 10 62  1  0  0  0  0
 10 63  1  0  0  0  0
 10 64  1  0  0  0  0
 11 65  1  0  0  0  0
 11 66  1  0  0  0  0
 11 67  1  0  0  0  0
 12 13  1  0  0  0  0
 12 68  1  0  0  0  0
 13 14  1  0  0  0  0
 13 16  1  0  0  0  0
 13 69  1  1  0  0  0
 14 15  2  0  0  0  0
 14 20  1  0  0  0  0
 16 17  1  0  0  0  0
 16 18  1  0  0  0  0
 16 70  1  6  0  0  0
 17 19  1  0  0  0  0
 17 71  1  0  0  0  0
 17 72  1  0  0  0  0
 18 73  1  0  0  0  0
 18 74  1  0  0  0  0
 18 75  1  0  0  0  0
 19 76  1  0  0  0  0
 19 77  1  0  0  0  0
 19 78  1  0  0  0  0
 20 21  1  0  0  0  0
 20 79  1  0  0  0  0
 21 22  1  0  0  0  0
 21 23  1  0  0  0  0
 21 80  1  6  0  0  0
 22 27  1  0  0  0  0
 22 81  1  0  0  0  0
 22 82  1  0  0  0  0
 23 24  1  0  0  0  0
 23 83  1  0  0  0  0
 23 84  1  0  0  0  0
 24 25  1  0  0  0  0
 24 85  1  0  0  0  0
 24 86  1  0  0  0  0
 25 26  1  0  0  0  0
 25 87  1  0  0  0  0
 25 88  1  0  0  0  0
 26 89  1  0  0  0  0
 26 90  1  0  0  0  0
 26 91  1  0  0  0  0
 27 28  1  0  0  0  0
 27 92  1  0  0  0  0
 27125  1  0  0  0  0
 28 29  1  0  0  0  0
 28 31  1  0  0  0  0
 28 93  1  1  0  0  0
 29 30  2  0  0  0  0
 29 35  1  0  0  0  0
 31 32  1  0  0  0  0
 31 94  1  0  0  0  0
 31 95  1  0  0  0  0
 32 33  1  0  0  0  0
 32 96  1  0  0  0  0
 32 97  1  0  0  0  0
 33 34  1  0  0  0  0
 33 98  1  0  0  0  0
 33 99  1  0  0  0  0
 34100  1  0  0  0  0
 34101  1  0  0  0  0
 34102  1  0  0  0  0
 35 36  1  0  0  0  0
 35103  1  0  0  0  0
 36 37  1  0  0  0  0
 36 39  1  0  0  0  0
 36104  1  6  0  0  0
 37 38  2  0  0  0  0
 37 44  1  0  0  0  0
 39 40  1  0  0  0  0
 39105  1  0  0  0  0
 39106  1  0  0  0  0
 40 41  1  0  0  0  0
 40107  1  0  0  0  0
 40108  1  0  0  0  0
 41 42  2  0  0  0  0
 41 43  1  0  0  0  0
 43109  1  0  0  0  0
 43110  1  0  0  0  0
 44 45  1  0  0  0  0
 44111  1  0  0  0  0
 45 46  1  0  0  0  0
 45 48  1  0  0  0  0
 45112  1  1  0  0  0
 46 47  2  0  0  0  0
 46 55  1  0  0  0  0
 48 49  1  0  0  0  0
 48113  1  0  0  0  0
 48114  1  0  0  0  0
 49 50  1  0  0  0  0
 49115  1  0  0  0  0
 49116  1  0  0  0  0
 50 51  1  0  0  0  0
 50117  1  0  0  0  0
 50118  1  0  0  0  0
 51 52  1  0  0  0  0
 51119  1  0  0  0  0
 52 53  2  0  0  0  0
 52 54  1  0  0  0  0
 53120  1  0  0  0  0
 53126  1  0  0  0  0
 54121  1  0  0  0  0
 54122  1  0  0  0  0
 55123  1  0  0  0  0
 55124  1  0  0  0  0
M  CHG  1  27   1
M  END
$$$$
