2NC
 OpenBabel04051917193D

126125  0  0  1  0  0  0  0  0999 V2000
   23.5502   24.2912   19.6325 C   0  0  0  0  0  0  0  0  0  0  0  0
   23.2767   24.6988   20.7554 O   0  0  0  0  0  0  0  0  0  0  0  0
   24.2335   22.9672   19.4103 C   0  0  0  0  0  0  0  0  0  0  0  0
   23.2522   24.9704   18.4805 N   0  0  0  0  0  0  0  0  0  0  0  0
   22.7717   26.3506   18.4929 C   0  0  2  0  0  0  0  0  0  0  0  0
   21.3555   26.4996   17.8947 C   0  0  0  0  0  0  0  0  0  0  0  0
   20.7354   27.5473   18.0296 O   0  0  0  0  0  0  0  0  0  0  0  0
   23.7511   27.3034   17.7708 C   0  0  2  0  0  0  0  0  0  0  0  0
   23.8206   27.1133   16.3473 O   0  0  0  0  0  0  0  0  0  0  0  0
   25.1024   27.3183   18.4802 C   0  0  0  0  0  0  0  0  0  0  0  0
   24.5618   26.0859   15.7135 C   0  0  0  0  0  0  0  0  0  0  0  0
   20.8515   25.4366   17.2084 N   0  0  0  0  0  0  0  0  0  0  0  0
   19.5539   25.5252   16.5271 C   0  0  2  0  0  0  0  0  0  0  0  0
   18.6400   24.4565   17.1320 C   0  0  0  0  0  0  0  0  0  0  0  0
   18.4790   23.3323   16.6622 O   0  0  0  0  0  0  0  0  0  0  0  0
   19.6597   25.2991   15.0112 C   0  0  2  0  0  0  0  0  0  0  0  0
   20.7932   26.1246   14.3874 C   0  0  0  0  0  0  0  0  0  0  0  0
   18.3006   25.5557   14.3447 C   0  0  0  0  0  0  0  0  0  0  0  0
   20.6277   27.6330   14.4630 C   0  0  0  0  0  0  0  0  0  0  0  0
   17.9834   24.8436   18.2760 N   0  0  0  0  0  0  0  0  0  0  0  0
   17.3198   23.8462   19.1003 C   0  0  2  0  0  0  0  0  0  0  0  0
   15.8020   23.8819   18.9077 C   0  0  0  0  0  0  0  0  0  0  0  0
   17.6289   24.0542   20.5795 C   0  0  0  0  0  0  0  0  0  0  0  0
   19.1175   24.0627   20.9233 C   0  0  0  0  0  0  0  0  0  0  0  0
   19.8941   22.8506   20.4150 C   0  0  0  0  0  0  0  0  0  0  0  0
   19.3363   21.5343   20.9260 C   0  0  0  0  0  0  0  0  0  0  0  0
   15.4405   23.7842   17.4557 N   0  3  0  0  0  0  0  0  0  0  0  0
   14.1290   23.1013   17.2314 C   0  0  2  0  0  0  0  0  0  0  0  0
   14.2094   21.6315   17.6403 C   0  0  0  0  0  0  0  0  0  0  0  0
   15.2810   21.0378   17.7059 O   0  0  0  0  0  0  0  0  0  0  0  0
   13.6976   23.1792   15.7715 C   0  0  0  0  0  0  0  0  0  0  0  0
   14.6990   22.5124   14.8315 C   0  0  0  0  0  0  0  0  0  0  0  0
   14.1386   22.4406   13.4230 C   0  0  0  0  0  0  0  0  0  0  0  0
   15.1686   21.9054   12.4511 C   0  0  0  0  0  0  0  0  0  0  0  0
   13.0017   21.0634   17.8977 N   0  0  0  0  0  0  0  0  0  0  0  0
   12.9060   19.6783   18.3175 C   0  0  2  0  0  0  0  0  0  0  0  0
   11.4694   19.2767   18.0081 C   0  0  0  0  0  0  0  0  0  0  0  0
   10.5134   20.0235   18.2082 O   0  0  0  0  0  0  0  0  0  0  0  0
   13.2605   19.5112   19.7900 C   0  0  0  0  0  0  0  0  0  0  0  0
   13.0686   18.0787   20.3016 C   0  0  0  0  0  0  0  0  0  0  0  0
   11.6798   17.8647   20.8282 C   0  0  0  0  0  0  0  0  0  0  0  0
   10.9600   18.7819   21.2774 O   0  0  0  0  0  0  0  0  0  0  0  0
   11.2183   16.5883   20.7989 N   0  0  0  0  0  0  0  0  0  0  0  0
   11.3696   18.0408   17.4188 N   0  0  0  0  0  0  0  0  0  0  0  0
   10.0793   17.4505   17.1412 C   0  0  2  0  0  0  0  0  0  0  0  0
   10.0455   16.0533   17.7828 C   0  0  0  0  0  0  0  0  0  0  0  0
   11.0305   15.3171   17.8127 O   0  0  0  0  0  0  0  0  0  0  0  0
    9.9212   17.2859   15.6405 C   0  0  0  0  0  0  0  0  0  0  0  0
    9.5592   18.5617   14.8820 C   0  0  0  0  0  0  0  0  0  0  0  0
    9.3744   18.1562   13.4261 C   0  0  0  0  0  0  0  0  0  0  0  0
    8.7025   19.1660   12.6265 N   0  0  0  0  0  0  0  0  0  0  0  0
    8.4933   18.9900   11.3124 C   0  0  0  0  0  0  0  0  0  0  0  0
    8.8968   17.8895   10.6719 N   0  0  0  0  0  0  0  0  0  0  0  0
    7.8723   19.9403   10.6170 N   0  0  0  0  0  0  0  0  0  0  0  0
    8.8304   15.6356   18.2458 N   0  0  0  0  0  0  0  0  0  0  0  0
   24.4147   22.7762   18.3486 H   0  0  0  0  0  0  0  0  0  0  0  0
   23.5818   22.1813   19.7949 H   0  0  0  0  0  0  0  0  0  0  0  0
   25.1928   22.9599   19.9369 H   0  0  0  0  0  0  0  0  0  0  0  0
   23.5853   24.6058   17.6072 H   0  0  0  0  0  0  0  0  0  0  0  0
   22.6576   26.6736   19.5367 H   0  0  0  0  0  0  0  0  0  0  0  0
   23.3367   28.3174   17.8709 H   0  0  0  0  0  0  0  0  0  0  0  0
   25.7881   28.0276   18.0114 H   0  0  0  0  0  0  0  0  0  0  0  0
   25.5681   26.3309   18.4397 H   0  0  0  0  0  0  0  0  0  0  0  0
   24.9910   27.5935   19.5389 H   0  0  0  0  0  0  0  0  0  0  0  0
   24.4034   26.2301   14.6383 H   0  0  0  0  0  0  0  0  0  0  0  0
   24.1917   25.0786   15.9155 H   0  0  0  0  0  0  0  0  0  0  0  0
   25.6395   26.1414   15.8899 H   0  0  0  0  0  0  0  0  0  0  0  0
   21.3977   24.5883   17.1215 H   0  0  0  0  0  0  0  0  0  0  0  0
   19.0966   26.5045   16.7172 H   0  0  0  0  0  0  0  0  0  0  0  0
   19.9063   24.2447   14.8273 H   0  0  0  0  0  0  0  0  0  0  0  0
   20.9126   25.8320   13.3396 H   0  0  0  0  0  0  0  0  0  0  0  0
   21.7300   25.8577   14.8869 H   0  0  0  0  0  0  0  0  0  0  0  0
   17.5154   24.9364   14.7937 H   0  0  0  0  0  0  0  0  0  0  0  0
   18.3387   25.3046   13.2815 H   0  0  0  0  0  0  0  0  0  0  0  0
   17.9837   26.5978   14.4498 H   0  0  0  0  0  0  0  0  0  0  0  0
   21.5079   28.1167   14.0290 H   0  0  0  0  0  0  0  0  0  0  0  0
   20.5359   27.9857   15.4923 H   0  0  0  0  0  0  0  0  0  0  0  0
   19.7490   27.9663   13.9061 H   0  0  0  0  0  0  0  0  0  0  0  0
   18.1378   25.7878   18.6284 H   0  0  0  0  0  0  0  0  0  0  0  0
   17.6604   22.8468   18.7957 H   0  0  0  0  0  0  0  0  0  0  0  0
   15.3764   24.8248   19.2605 H   0  0  0  0  0  0  0  0  0  0  0  0
   15.3429   23.0490   19.4494 H   0  0  0  0  0  0  0  0  0  0  0  0
   17.1267   23.2674   21.1550 H   0  0  0  0  0  0  0  0  0  0  0  0
   17.1939   25.0063   20.9043 H   0  0  0  0  0  0  0  0  0  0  0  0
   19.2132   24.1243   22.0136 H   0  0  0  0  0  0  0  0  0  0  0  0
   19.5790   24.9702   20.5165 H   0  0  0  0  0  0  0  0  0  0  0  0
   20.9375   22.9430   20.7330 H   0  0  0  0  0  0  0  0  0  0  0  0
   19.9003   22.8390   19.3204 H   0  0  0  0  0  0  0  0  0  0  0  0
   19.9279   20.7020   20.5358 H   0  0  0  0  0  0  0  0  0  0  0  0
   18.3023   21.3831   20.6027 H   0  0  0  0  0  0  0  0  0  0  0  0
   19.3640   21.5013   22.0191 H   0  0  0  0  0  0  0  0  0  0  0  0
   15.4525   24.7213   17.0404 H   0  0  0  0  0  0  0  0  0  0  0  0
   13.3940   23.6189   17.8567 H   0  0  0  0  0  0  0  0  0  0  0  0
   13.5531   24.2256   15.4780 H   0  0  0  0  0  0  0  0  0  0  0  0
   12.7214   22.6861   15.6611 H   0  0  0  0  0  0  0  0  0  0  0  0
   14.9240   21.4941   15.1685 H   0  0  0  0  0  0  0  0  0  0  0  0
   15.6373   23.0766   14.8369 H   0  0  0  0  0  0  0  0  0  0  0  0
   13.8228   23.4379   13.1020 H   0  0  0  0  0  0  0  0  0  0  0  0
   13.2602   21.7848   13.4133 H   0  0  0  0  0  0  0  0  0  0  0  0
   14.7363   21.8676   11.4481 H   0  0  0  0  0  0  0  0  0  0  0  0
   15.4859   20.8962   12.7323 H   0  0  0  0  0  0  0  0  0  0  0  0
   16.0499   22.5540   12.4255 H   0  0  0  0  0  0  0  0  0  0  0  0
   12.1390   21.6069   17.9081 H   0  0  0  0  0  0  0  0  0  0  0  0
   13.5969   19.0975   17.6951 H   0  0  0  0  0  0  0  0  0  0  0  0
   12.6824   20.2275   20.3855 H   0  0  0  0  0  0  0  0  0  0  0  0
   14.3156   19.7819   19.9173 H   0  0  0  0  0  0  0  0  0  0  0  0
   13.7539   17.9192   21.1422 H   0  0  0  0  0  0  0  0  0  0  0  0
   13.2989   17.3504   19.5261 H   0  0  0  0  0  0  0  0  0  0  0  0
   10.2800   16.4155   21.1489 H   0  0  0  0  0  0  0  0  0  0  0  0
   11.7431   15.8145   20.4180 H   0  0  0  0  0  0  0  0  0  0  0  0
   12.1884   17.4582   17.3101 H   0  0  0  0  0  0  0  0  0  0  0  0
    9.2735   18.0580   17.5605 H   0  0  0  0  0  0  0  0  0  0  0  0
    9.1413   16.5411   15.4480 H   0  0  0  0  0  0  0  0  0  0  0  0
   10.8537   16.8892   15.2124 H   0  0  0  0  0  0  0  0  0  0  0  0
   10.3498   19.3187   14.9624 H   0  0  0  0  0  0  0  0  0  0  0  0
    8.6407   19.0059   15.2823 H   0  0  0  0  0  0  0  0  0  0  0  0
    8.7654   17.2466   13.3749 H   0  0  0  0  0  0  0  0  0  0  0  0
   10.3583   17.9642   12.9847 H   0  0  0  0  0  0  0  0  0  0  0  0
    8.3546   20.0134   13.0577 H   0  0  0  0  0  0  0  0  0  0  0  0
    8.7392   17.7643    9.6790 H   0  0  0  0  0  0  0  0  0  0  0  0
    7.5397   20.7854   11.0605 H   0  0  0  0  0  0  0  0  0  0  0  0
    7.7059   19.8358    9.6250 H   0  0  0  0  0  0  0  0  0  0  0  0
    8.7621   14.7236   18.6852 H   0  0  0  0  0  0  0  0  0  0  0  0
    8.0054   16.2216   18.2717 H   0  0  0  0  0  0  0  0  0  0  0  0
   16.1917   23.2389   16.9863 H   0  0  0  0  0  0  0  0  0  0  0  0
    9.3615   17.1292   11.1508 H   0  0  0  0  0  0  0  0  0  0  0  0
  1  2  2  0  0  0  0
  1  3  1  0  0  0  0
  1  4  1  0  0  0  0
  3 56  1  0  0  0  0
  3 57  1  0  0  0  0
  3 58  1  0  0  0  0
  4  5  1  0  0  0  0
  4 59  1  0  0  0  0
  5  6  1  0  0  0  0
  5  8  1  0  0  0  0
  5 60  1  1  0  0  0
  6  7  2  0  0  0  0
  6 12  1  0  0  0  0
  8  9  1  0  0  0  0
  8 10  1  0  0  0  0
  8 61  1  1  0  0  0
  9 11  1  0  0  0  0
 10 62  1  0  0  0  0
 10 63  1  0  0  0  0
 10 64  1  0  0  0  0
 11 65  1  0  0  0  0
 11 66  1  0  0  0  0
 11 67  1  0  0  0  0
 12 13  1  0  0  0  0
 12 68  1  0  0  0  0
 13 14  1  0  0  0  0
 13 16  1  0  0  0  0
 13 69  1  1  0  0  0
 14 15  2  0  0  0  0
 14 20  1  0  0  0  0
 16 17  1  0  0  0  0
 16 18  1  0  0  0  0
 16 70  1  6  0  0  0
 17 19  1  0  0  0  0
 17 71  1  0  0  0  0
 17 72  1  0  0  0  0
 18 73  1  0  0  0  0
 18 74  1  0  0  0  0
 18 75  1  0  0  0  0
 19 76  1  0  0  0  0
 19 77  1  0  0  0  0
 19 78  1  0  0  0  0
 20 21  1  0  0  0  0
 20 79  1  0  0  0  0
 21 22  1  0  0  0  0
 21 23  1  0  0  0  0
 21 80  1  6  0  0  0
 22 27  1  0  0  0  0
 22 81  1  0  0  0  0
 22 82  1  0  0  0  0
 23 24  1  0  0  0  0
 23 83  1  0  0  0  0
 23 84  1  0  0  0  0
 24 25  1  0  0  0  0
 24 85  1  0  0  0  0
 24 86  1  0  0  0  0
 25 26  1  0  0  0  0
 25 87  1  0  0  0  0
 25 88  1  0  0  0  0
 26 89  1  0  0  0  0
 26 90  1  0  0  0  0
 26 91  1  0  0  0  0
 27 28  1  0  0  0  0
 27 92  1  0  0  0  0
 27125  1  0  0  0  0
 28 29  1  0  0  0  0
 28 31  1  0  0  0  0
 28 93  1  1  0  0  0
 29 30  2  0  0  0  0
 29 35  1  0  0  0  0
 31 32  1  0  0  0  0
 31 94  1  0  0  0  0
 31 95  1  0  0  0  0
 32 33  1  0  0  0  0
 32 96  1  0  0  0  0
 32 97  1  0  0  0  0
 33 34  1  0  0  0  0
 33 98  1  0  0  0  0
 33 99  1  0  0  0  0
 34100  1  0  0  0  0
 34101  1  0  0  0  0
 34102  1  0  0  0  0
 35 36  1  0  0  0  0
 35103  1  0  0  0  0
 36 37  1  0  0  0  0
 36 39  1  0  0  0  0
 36104  1  6  0  0  0
 37 38  2  0  0  0  0
 37 44  1  0  0  0  0
 39 40  1  0  0  0  0
 39105  1  0  0  0  0
 39106  1  0  0  0  0
 40 41  1  0  0  0  0
 40107  1  0  0  0  0
 40108  1  0  0  0  0
 41 42  2  0  0  0  0
 41 43  1  0  0  0  0
 43109  1  0  0  0  0
 43110  1  0  0  0  0
 44 45  1  0  0  0  0
 44111  1  0  0  0  0
 45 46  1  0  0  0  0
 45 48  1  0  0  0  0
 45112  1  1  0  0  0
 46 47  2  0  0  0  0
 46 55  1  0  0  0  0
 48 49  1  0  0  0  0
 48113  1  0  0  0  0
 48114  1  0  0  0  0
 49 50  1  0  0  0  0
 49115  1  0  0  0  0
 49116  1  0  0  0  0
 50 51  1  0  0  0  0
 50117  1  0  0  0  0
 50118  1  0  0  0  0
 51 52  1  0  0  0  0
 51119  1  0  0  0  0
 52 53  2  0  0  0  0
 52 54  1  0  0  0  0
 53120  1  0  0  0  0
 53126  1  0  0  0  0
 54121  1  0  0  0  0
 54122  1  0  0  0  0
 55123  1  0  0  0  0
 55124  1  0  0  0  0
M  CHG  1  27   1
M  END
$$$$
