2NC
 OpenBabel04051917203D

123122  0  0  1  0  0  0  0  0999 V2000
   23.6101   24.5012   19.8728 C   0  0  0  0  0  0  0  0  0  0  0  0
   23.2871   24.9698   20.9589 O   0  0  0  0  0  0  0  0  0  0  0  0
   24.2715   23.1597   19.7480 C   0  0  0  0  0  0  0  0  0  0  0  0
   23.3841   25.1425   18.6803 N   0  0  0  0  0  0  0  0  0  0  0  0
   22.8878   26.5227   18.6572 C   0  0  2  0  0  0  0  0  0  0  0  0
   21.4808   26.6135   18.0541 C   0  0  0  0  0  0  0  0  0  0  0  0
   20.8149   27.6470   18.1096 O   0  0  0  0  0  0  0  0  0  0  0  0
   23.8459   27.4572   17.8954 C   0  0  2  0  0  0  0  0  0  0  0  0
   24.0753   26.9328   16.5800 O   0  0  0  0  0  0  0  0  0  0  0  0
   25.1821   27.5693   18.6247 C   0  0  0  0  0  0  0  0  0  0  0  0
   21.0236   25.5002   17.3860 N   0  0  0  0  0  0  0  0  0  0  0  0
   19.7672   25.5178   16.6527 C   0  0  2  0  0  0  0  0  0  0  0  0
   18.8816   24.4137   17.2453 C   0  0  0  0  0  0  0  0  0  0  0  0
   18.8170   23.2667   16.8081 O   0  0  0  0  0  0  0  0  0  0  0  0
   19.9505   25.2899   15.1416 C   0  0  2  0  0  0  0  0  0  0  0  0
   20.9965   26.2198   14.5013 C   0  0  0  0  0  0  0  0  0  0  0  0
   18.5943   25.4204   14.4317 C   0  0  0  0  0  0  0  0  0  0  0  0
   20.6704   27.7059   14.5556 C   0  0  0  0  0  0  0  0  0  0  0  0
   18.1356   24.7977   18.3374 N   0  0  0  0  0  0  0  0  0  0  0  0
   17.4622   23.7992   19.1580 C   0  0  2  0  0  0  0  0  0  0  0  0
   15.9495   23.8114   18.9073 C   0  0  0  0  0  0  0  0  0  0  0  0
   17.7363   24.0219   20.6462 C   0  0  0  0  0  0  0  0  0  0  0  0
   19.2204   24.0499   21.0171 C   0  0  0  0  0  0  0  0  0  0  0  0
   20.0207   22.8226   20.5828 C   0  0  0  0  0  0  0  0  0  0  0  0
   19.4554   21.5169   21.1159 C   0  0  0  0  0  0  0  0  0  0  0  0
   15.6402   23.6946   17.4409 N   0  3  0  0  0  0  0  0  0  0  0  0
   14.3361   23.0040   17.1696 C   0  0  2  0  0  0  0  0  0  0  0  0
   14.3784   21.5381   17.6243 C   0  0  0  0  0  0  0  0  0  0  0  0
   15.4312   20.9030   17.6363 O   0  0  0  0  0  0  0  0  0  0  0  0
   13.9938   23.0949   15.6911 C   0  0  0  0  0  0  0  0  0  0  0  0
   14.7978   22.1416   14.8109 C   0  0  0  0  0  0  0  0  0  0  0  0
   13.9223   21.6742   13.6607 C   0  0  0  0  0  0  0  0  0  0  0  0
   14.7885   21.2455   12.5024 C   0  0  0  0  0  0  0  0  0  0  0  0
   13.1796   21.0054   17.9886 N   0  0  0  0  0  0  0  0  0  0  0  0
   13.0857   19.6261   18.4388 C   0  0  2  0  0  0  0  0  0  0  0  0
   11.6600   19.1987   18.1190 C   0  0  0  0  0  0  0  0  0  0  0  0
   10.6955   19.9425   18.2748 O   0  0  0  0  0  0  0  0  0  0  0  0
   13.4360   19.4946   19.9177 C   0  0  0  0  0  0  0  0  0  0  0  0
   13.2457   18.0701   20.4372 C   0  0  0  0  0  0  0  0  0  0  0  0
   11.8332   17.8364   20.9288 C   0  0  0  0  0  0  0  0  0  0  0  0
   11.0992   18.7224   21.3464 O   0  0  0  0  0  0  0  0  0  0  0  0
   11.4175   16.5446   20.8744 N   0  0  0  0  0  0  0  0  0  0  0  0
   11.5836   17.9528   17.5525 N   0  0  0  0  0  0  0  0  0  0  0  0
   10.3151   17.3742   17.1723 C   0  0  2  0  0  0  0  0  0  0  0  0
   10.2374   15.9932   17.8304 C   0  0  0  0  0  0  0  0  0  0  0  0
   11.2092   15.2447   17.9214 O   0  0  0  0  0  0  0  0  0  0  0  0
   10.2326   17.2403   15.6519 C   0  0  0  0  0  0  0  0  0  0  0  0
   10.4412   18.5757   14.9233 C   0  0  0  0  0  0  0  0  0  0  0  0
   10.5457   18.3966   13.4108 C   0  0  0  0  0  0  0  0  0  0  0  0
    9.3090   17.7980   12.8784 N   0  0  0  0  0  0  0  0  0  0  0  0
    9.0519   17.5457   11.5902 C   0  0  0  0  0  0  0  0  0  0  0  0
    9.9270   17.8140   10.6330 N   0  0  0  0  0  0  0  0  0  0  0  0
    7.8690   16.9868   11.2725 N   0  0  0  0  0  0  0  0  0  0  0  0
    9.0032   15.6180   18.2685 N   0  0  0  0  0  0  0  0  0  0  0  0
   24.4596   22.8992   18.7036 H   0  0  0  0  0  0  0  0  0  0  0  0
   23.6155   22.4031   20.1859 H   0  0  0  0  0  0  0  0  0  0  0  0
   25.2250   23.1815   20.2826 H   0  0  0  0  0  0  0  0  0  0  0  0
   23.7547   24.7739   17.8105 H   0  0  0  0  0  0  0  0  0  0  0  0
   22.7854   26.8878   19.6859 H   0  0  0  0  0  0  0  0  0  0  0  0
   23.4042   28.4569   17.7933 H   0  0  0  0  0  0  0  0  0  0  0  0
   24.6220   27.5834   16.1006 H   0  0  0  0  0  0  0  0  0  0  0  0
   25.8654   28.2409   18.0952 H   0  0  0  0  0  0  0  0  0  0  0  0
   25.6817   26.5962   18.6795 H   0  0  0  0  0  0  0  0  0  0  0  0
   25.0413   27.9453   19.6428 H   0  0  0  0  0  0  0  0  0  0  0  0
   21.5863   24.6534   17.4171 H   0  0  0  0  0  0  0  0  0  0  0  0
   19.2589   26.4758   16.8117 H   0  0  0  0  0  0  0  0  0  0  0  0
   20.3074   24.2629   14.9834 H   0  0  0  0  0  0  0  0  0  0  0  0
   21.1222   25.9312   13.4512 H   0  0  0  0  0  0  0  0  0  0  0  0
   21.9670   26.0554   14.9816 H   0  0  0  0  0  0  0  0  0  0  0  0
   17.8459   24.7488   14.8638 H   0  0  0  0  0  0  0  0  0  0  0  0
   18.6900   25.1666   13.3727 H   0  0  0  0  0  0  0  0  0  0  0  0
   18.1930   26.4356   14.5127 H   0  0  0  0  0  0  0  0  0  0  0  0
   21.4774   28.2751   14.0846 H   0  0  0  0  0  0  0  0  0  0  0  0
   20.5667   28.0620   15.5806 H   0  0  0  0  0  0  0  0  0  0  0  0
   19.7474   27.9364   14.0166 H   0  0  0  0  0  0  0  0  0  0  0  0
   18.2432   25.7516   18.6805 H   0  0  0  0  0  0  0  0  0  0  0  0
   17.8270   22.8008   18.8790 H   0  0  0  0  0  0  0  0  0  0  0  0
   15.5001   24.7548   19.2312 H   0  0  0  0  0  0  0  0  0  0  0  0
   15.4762   22.9802   19.4380 H   0  0  0  0  0  0  0  0  0  0  0  0
   17.2321   23.2378   21.2247 H   0  0  0  0  0  0  0  0  0  0  0  0
   17.2890   24.9729   20.9607 H   0  0  0  0  0  0  0  0  0  0  0  0
   19.2964   24.1627   22.1049 H   0  0  0  0  0  0  0  0  0  0  0  0
   19.6850   24.9420   20.5802 H   0  0  0  0  0  0  0  0  0  0  0  0
   21.0496   22.9366   20.9409 H   0  0  0  0  0  0  0  0  0  0  0  0
   20.0767   22.7735   19.4903 H   0  0  0  0  0  0  0  0  0  0  0  0
   20.0780   20.6788   20.7895 H   0  0  0  0  0  0  0  0  0  0  0  0
   18.4415   21.3348   20.7477 H   0  0  0  0  0  0  0  0  0  0  0  0
   19.4287   21.5230   22.2097 H   0  0  0  0  0  0  0  0  0  0  0  0
   15.6495   24.6331   17.0264 H   0  0  0  0  0  0  0  0  0  0  0  0
   13.5722   23.5426   17.7412 H   0  0  0  0  0  0  0  0  0  0  0  0
   14.1381   24.1183   15.3179 H   0  0  0  0  0  0  0  0  0  0  0  0
   12.9222   22.8852   15.5782 H   0  0  0  0  0  0  0  0  0  0  0  0
   15.1309   21.2423   15.3345 H   0  0  0  0  0  0  0  0  0  0  0  0
   15.7125   22.6390   14.4683 H   0  0  0  0  0  0  0  0  0  0  0  0
   13.2481   22.4748   13.3389 H   0  0  0  0  0  0  0  0  0  0  0  0
   13.2952   20.8389   14.0013 H   0  0  0  0  0  0  0  0  0  0  0  0
   14.1641   20.9214   11.6682 H   0  0  0  0  0  0  0  0  0  0  0  0
   15.4509   20.4264   12.7970 H   0  0  0  0  0  0  0  0  0  0  0  0
   15.4047   22.0878   12.1718 H   0  0  0  0  0  0  0  0  0  0  0  0
   12.3367   21.5679   18.0923 H   0  0  0  0  0  0  0  0  0  0  0  0
   13.7840   19.0284   17.8396 H   0  0  0  0  0  0  0  0  0  0  0  0
   12.8514   20.2143   20.5034 H   0  0  0  0  0  0  0  0  0  0  0  0
   14.4881   19.7767   20.0472 H   0  0  0  0  0  0  0  0  0  0  0  0
   13.9116   17.9076   21.2908 H   0  0  0  0  0  0  0  0  0  0  0  0
   13.5075   17.3374   19.6651 H   0  0  0  0  0  0  0  0  0  0  0  0
   10.4823   16.3337   21.1979 H   0  0  0  0  0  0  0  0  0  0  0  0
   11.9804   15.7847   20.5125 H   0  0  0  0  0  0  0  0  0  0  0  0
   12.4107   17.3722   17.4407 H   0  0  0  0  0  0  0  0  0  0  0  0
    9.4915   17.9958   17.5391 H   0  0  0  0  0  0  0  0  0  0  0  0
    9.2509   16.8242   15.3994 H   0  0  0  0  0  0  0  0  0  0  0  0
   10.9779   16.5136   15.3032 H   0  0  0  0  0  0  0  0  0  0  0  0
   11.3614   19.0632   15.2648 H   0  0  0  0  0  0  0  0  0  0  0  0
    9.6080   19.2480   15.1603 H   0  0  0  0  0  0  0  0  0  0  0  0
   11.3964   17.7508   13.1716 H   0  0  0  0  0  0  0  0  0  0  0  0
   10.6888   19.3798   12.9501 H   0  0  0  0  0  0  0  0  0  0  0  0
    8.5733   17.5751   13.5257 H   0  0  0  0  0  0  0  0  0  0  0  0
    9.7396   17.6295    9.6648 H   0  0  0  0  0  0  0  0  0  0  0  0
    7.1838   16.7251   11.9588 H   0  0  0  0  0  0  0  0  0  0  0  0
    7.6494   16.7524   10.3150 H   0  0  0  0  0  0  0  0  0  0  0  0
    8.9201   14.7308   18.7530 H   0  0  0  0  0  0  0  0  0  0  0  0
    8.2207   16.2589   18.3290 H   0  0  0  0  0  0  0  0  0  0  0  0
   16.4095   23.1657   16.9852 H   0  0  0  0  0  0  0  0  0  0  0  0
   10.8228   18.2467   10.8557 H   0  0  0  0  0  0  0  0  0  0  0  0
  1  2  2  0  0  0  0
  1  3  1  0  0  0  0
  1  4  1  0  0  0  0
  3 55  1  0  0  0  0
  3 56  1  0  0  0  0
  3 57  1  0  0  0  0
  4  5  1  0  0  0  0
  4 58  1  0  0  0  0
  5  6  1  0  0  0  0
  5  8  1  0  0  0  0
  5 59  1  1  0  0  0
  6  7  2  0  0  0  0
  6 11  1  0  0  0  0
  8  9  1  0  0  0  0
  8 10  1  0  0  0  0
  8 60  1  6  0  0  0
  9 61  1  0  0  0  0
 10 62  1  0  0  0  0
 10 63  1  0  0  0  0
 10 64  1  0  0  0  0
 11 12  1  0  0  0  0
 11 65  1  0  0  0  0
 12 13  1  0  0  0  0
 12 15  1  0  0  0  0
 12 66  1  1  0  0  0
 13 14  2  0  0  0  0
 13 19  1  0  0  0  0
 15 16  1  0  0  0  0
 15 17  1  0  0  0  0
 15 67  1  6  0  0  0
 16 18  1  0  0  0  0
 16 68  1  0  0  0  0
 16 69  1  0  0  0  0
 17 70  1  0  0  0  0
 17 71  1  0  0  0  0
 17 72  1  0  0  0  0
 18 73  1  0  0  0  0
 18 74  1  0  0  0  0
 18 75  1  0  0  0  0
 19 20  1  0  0  0  0
 19 76  1  0  0  0  0
 20 21  1  0  0  0  0
 20 22  1  0  0  0  0
 20 77  1  6  0  0  0
 21 26  1  0  0  0  0
 21 78  1  0  0  0  0
 21 79  1  0  0  0  0
 22 23  1  0  0  0  0
 22 80  1  0  0  0  0
 22 81  1  0  0  0  0
 23 24  1  0  0  0  0
 23 82  1  0  0  0  0
 23 83  1  0  0  0  0
 24 25  1  0  0  0  0
 24 84  1  0  0  0  0
 24 85  1  0  0  0  0
 25 86  1  0  0  0  0
 25 87  1  0  0  0  0
 25 88  1  0  0  0  0
 26 27  1  0  0  0  0
 26 89  1  0  0  0  0
 26122  1  0  0  0  0
 27 28  1  0  0  0  0
 27 30  1  0  0  0  0
 27 90  1  1  0  0  0
 28 29  2  0  0  0  0
 28 34  1  0  0  0  0
 30 31  1  0  0  0  0
 30 91  1  0  0  0  0
 30 92  1  0  0  0  0
 31 32  1  0  0  0  0
 31 93  1  0  0  0  0
 31 94  1  0  0  0  0
 32 33  1  0  0  0  0
 32 95  1  0  0  0  0
 32 96  1  0  0  0  0
 33 97  1  0  0  0  0
 33 98  1  0  0  0  0
 33 99  1  0  0  0  0
 34 35  1  0  0  0  0
 34100  1  0  0  0  0
 35 36  1  0  0  0  0
 35 38  1  0  0  0  0
 35101  1  6  0  0  0
 36 37  2  0  0  0  0
 36 43  1  0  0  0  0
 38 39  1  0  0  0  0
 38102  1  0  0  0  0
 38103  1  0  0  0  0
 39 40  1  0  0  0  0
 39104  1  0  0  0  0
 39105  1  0  0  0  0
 40 41  2  0  0  0  0
 40 42  1  0  0  0  0
 42106  1  0  0  0  0
 42107  1  0  0  0  0
 43 44  1  0  0  0  0
 43108  1  0  0  0  0
 44 45  1  0  0  0  0
 44 47  1  0  0  0  0
 44109  1  1  0  0  0
 45 46  2  0  0  0  0
 45 54  1  0  0  0  0
 47 48  1  0  0  0  0
 47110  1  0  0  0  0
 47111  1  0  0  0  0
 48 49  1  0  0  0  0
 48112  1  0  0  0  0
 48113  1  0  0  0  0
 49 50  1  0  0  0  0
 49114  1  0  0  0  0
 49115  1  0  0  0  0
 50 51  1  0  0  0  0
 50116  1  0  0  0  0
 51 52  2  0  0  0  0
 51 53  1  0  0  0  0
 52117  1  0  0  0  0
 52123  1  0  0  0  0
 53118  1  0  0  0  0
 53119  1  0  0  0  0
 54120  1  0  0  0  0
 54121  1  0  0  0  0
M  CHG  1  26   1
M  END
$$$$
