2NC
 OpenBabel04051917213D

123122  0  0  1  0  0  0  0  0999 V2000
   23.5486   24.5453   19.7994 C   0  0  0  0  0  0  0  0  0  0  0  0
   23.2573   25.0109   20.8966 O   0  0  0  0  0  0  0  0  0  0  0  0
   24.1709   23.1889   19.6585 C   0  0  0  0  0  0  0  0  0  0  0  0
   23.2999   25.2025   18.6179 N   0  0  0  0  0  0  0  0  0  0  0  0
   22.8085   26.5866   18.6416 C   0  0  2  0  0  0  0  0  0  0  0  0
   21.4083   26.7299   18.0384 C   0  0  0  0  0  0  0  0  0  0  0  0
   20.7687   27.7777   18.1283 O   0  0  0  0  0  0  0  0  0  0  0  0
   23.7720   27.5446   17.9208 C   0  0  2  0  0  0  0  0  0  0  0  0
   23.9993   27.0650   16.5872 O   0  0  0  0  0  0  0  0  0  0  0  0
   25.1098   27.6388   18.6439 C   0  0  0  0  0  0  0  0  0  0  0  0
   20.9224   25.6510   17.3339 N   0  0  0  0  0  0  0  0  0  0  0  0
   19.6681   25.7203   16.5989 C   0  0  2  0  0  0  0  0  0  0  0  0
   18.7470   24.6298   17.1711 C   0  0  0  0  0  0  0  0  0  0  0  0
   18.6572   23.4978   16.7041 O   0  0  0  0  0  0  0  0  0  0  0  0
   19.8560   25.5021   15.0855 C   0  0  2  0  0  0  0  0  0  0  0  0
   20.9292   26.4083   14.4537 C   0  0  0  0  0  0  0  0  0  0  0  0
   18.5104   25.6574   14.3598 C   0  0  0  0  0  0  0  0  0  0  0  0
   20.6881   27.9043   14.5905 C   0  0  0  0  0  0  0  0  0  0  0  0
   18.0101   24.9902   18.2772 N   0  0  0  0  0  0  0  0  0  0  0  0
   17.3402   23.9564   19.0665 C   0  0  2  0  0  0  0  0  0  0  0  0
   15.8167   23.9725   18.8347 C   0  0  0  0  0  0  0  0  0  0  0  0
   17.6229   24.1335   20.5584 C   0  0  0  0  0  0  0  0  0  0  0  0
   19.1068   24.1709   20.9277 C   0  0  0  0  0  0  0  0  0  0  0  0
   19.9108   22.9377   20.5197 C   0  0  0  0  0  0  0  0  0  0  0  0
   19.3403   21.6409   21.0694 C   0  0  0  0  0  0  0  0  0  0  0  0
   15.5179   23.8704   17.3701 N   0  3  0  0  0  0  0  0  0  0  0  0
   14.2456   23.1373   16.9883 C   0  0  2  0  0  0  0  0  0  0  0  0
   14.3272   21.6878   17.4384 C   0  0  0  0  0  0  0  0  0  0  0  0
   15.3812   21.0591   17.3716 O   0  0  0  0  0  0  0  0  0  0  0  0
   14.1370   23.2237   15.4635 C   0  0  0  0  0  0  0  0  0  0  0  0
   12.9596   22.4811   14.8100 C   0  0  0  0  0  0  0  0  0  0  0  0
   13.3133   21.0661   14.3427 C   0  0  0  0  0  0  0  0  0  0  0  0
   14.3095   21.0578   13.1912 C   0  0  0  0  0  0  0  0  0  0  0  0
   13.1611   21.1688   17.9139 N   0  0  0  0  0  0  0  0  0  0  0  0
   13.0896   19.7822   18.3299 C   0  0  2  0  0  0  0  0  0  0  0  0
   11.6628   19.3670   18.0347 C   0  0  0  0  0  0  0  0  0  0  0  0
   10.6936   20.0899   18.2477 O   0  0  0  0  0  0  0  0  0  0  0  0
   13.4874   19.6226   19.7902 C   0  0  0  0  0  0  0  0  0  0  0  0
   13.2991   18.2008   20.3160 C   0  0  0  0  0  0  0  0  0  0  0  0
   11.8979   17.9810   20.8606 C   0  0  0  0  0  0  0  0  0  0  0  0
   11.2242   18.8737   21.3630 O   0  0  0  0  0  0  0  0  0  0  0  0
   11.4343   16.7187   20.7581 N   0  0  0  0  0  0  0  0  0  0  0  0
   11.5933   18.1667   17.3856 N   0  0  0  0  0  0  0  0  0  0  0  0
   10.3223   17.5634   17.0696 C   0  0  2  0  0  0  0  0  0  0  0  0
   10.3732   16.1908   17.7045 C   0  0  0  0  0  0  0  0  0  0  0  0
   11.3947   15.5125   17.7655 O   0  0  0  0  0  0  0  0  0  0  0  0
   10.1930   17.4006   15.5709 C   0  0  0  0  0  0  0  0  0  0  0  0
    9.9338   18.7489   14.9114 C   0  0  0  0  0  0  0  0  0  0  0  0
   10.4728   18.7644   13.4933 C   0  0  0  0  0  0  0  0  0  0  0  0
    9.7026   17.9010   12.6093 N   0  0  0  0  0  0  0  0  0  0  0  0
    8.5087   18.2345   12.0863 C   0  0  0  0  0  0  0  0  0  0  0  0
    7.9273   19.4015   12.4001 N   0  0  0  0  0  0  0  0  0  0  0  0
    7.8899   17.4024   11.2640 N   0  0  0  0  0  0  0  0  0  0  0  0
    9.1695   15.7360   18.1347 N   0  0  0  0  0  0  0  0  0  0  0  0
   24.3491   22.9289   18.6146 H   0  0  0  0  0  0  0  0  0  0  0  0
   23.4876   22.4540   20.0944 H   0  0  0  0  0  0  0  0  0  0  0  0
   25.1232   23.1740   20.1971 H   0  0  0  0  0  0  0  0  0  0  0  0
   23.7082   24.8789   17.7460 H   0  0  0  0  0  0  0  0  0  0  0  0
   22.7015   26.9104   19.6845 H   0  0  0  0  0  0  0  0  0  0  0  0
   23.3263   28.5444   17.8544 H   0  0  0  0  0  0  0  0  0  0  0  0
   24.5578   27.7253   16.1360 H   0  0  0  0  0  0  0  0  0  0  0  0
   25.7790   28.3340   18.1263 H   0  0  0  0  0  0  0  0  0  0  0  0
   25.6208   26.6688   18.6604 H   0  0  0  0  0  0  0  0  0  0  0  0
   24.9780   27.9820   19.6741 H   0  0  0  0  0  0  0  0  0  0  0  0
   21.4694   24.7952   17.3349 H   0  0  0  0  0  0  0  0  0  0  0  0
   19.1885   26.6953   16.7721 H   0  0  0  0  0  0  0  0  0  0  0  0
   20.1952   24.4699   14.9241 H   0  0  0  0  0  0  0  0  0  0  0  0
   21.0066   26.1658   13.3873 H   0  0  0  0  0  0  0  0  0  0  0  0
   21.9043   26.1680   14.8926 H   0  0  0  0  0  0  0  0  0  0  0  0
   17.7423   25.0069   14.7896 H   0  0  0  0  0  0  0  0  0  0  0  0
   18.6119   25.3851   13.3060 H   0  0  0  0  0  0  0  0  0  0  0  0
   18.1323   26.6821   14.4207 H   0  0  0  0  0  0  0  0  0  0  0  0
   21.5074   28.4530   14.1164 H   0  0  0  0  0  0  0  0  0  0  0  0
   20.6479   28.2174   15.6347 H   0  0  0  0  0  0  0  0  0  0  0  0
   19.7571   28.2110   14.1070 H   0  0  0  0  0  0  0  0  0  0  0  0
   18.1474   25.9143   18.6589 H   0  0  0  0  0  0  0  0  0  0  0  0
   17.7069   22.9689   18.7587 H   0  0  0  0  0  0  0  0  0  0  0  0
   15.3787   24.9170   19.1645 H   0  0  0  0  0  0  0  0  0  0  0  0
   15.3389   23.1407   19.3651 H   0  0  0  0  0  0  0  0  0  0  0  0
   17.1290   23.3219   21.1061 H   0  0  0  0  0  0  0  0  0  0  0  0
   17.1617   25.0662   20.9026 H   0  0  0  0  0  0  0  0  0  0  0  0
   19.1775   24.3002   22.0139 H   0  0  0  0  0  0  0  0  0  0  0  0
   19.5753   25.0558   20.4806 H   0  0  0  0  0  0  0  0  0  0  0  0
   20.9356   23.0588   20.8889 H   0  0  0  0  0  0  0  0  0  0  0  0
   19.9785   22.8731   19.4284 H   0  0  0  0  0  0  0  0  0  0  0  0
   19.9691   20.7971   20.7704 H   0  0  0  0  0  0  0  0  0  0  0  0
   18.3330   21.4490   20.6884 H   0  0  0  0  0  0  0  0  0  0  0  0
   19.2954   21.6678   22.1627 H   0  0  0  0  0  0  0  0  0  0  0  0
   15.5227   24.8139   16.9693 H   0  0  0  0  0  0  0  0  0  0  0  0
   13.4180   23.6553   17.4839 H   0  0  0  0  0  0  0  0  0  0  0  0
   15.0779   22.8599   15.0357 H   0  0  0  0  0  0  0  0  0  0  0  0
   14.0561   24.2763   15.1917 H   0  0  0  0  0  0  0  0  0  0  0  0
   12.6516   23.0520   13.9256 H   0  0  0  0  0  0  0  0  0  0  0  0
   12.0892   22.4525   15.4747 H   0  0  0  0  0  0  0  0  0  0  0  0
   12.3981   20.5772   14.0043 H   0  0  0  0  0  0  0  0  0  0  0  0
   13.7030   20.4624   15.1656 H   0  0  0  0  0  0  0  0  0  0  0  0
   14.5262   20.0310   12.8811 H   0  0  0  0  0  0  0  0  0  0  0  0
   15.2599   21.5184   13.4711 H   0  0  0  0  0  0  0  0  0  0  0  0
   13.9102   21.6008   12.3287 H   0  0  0  0  0  0  0  0  0  0  0  0
   12.3097   21.7167   18.0346 H   0  0  0  0  0  0  0  0  0  0  0  0
   13.7684   19.2003   17.6931 H   0  0  0  0  0  0  0  0  0  0  0  0
   12.9367   20.3476   20.3996 H   0  0  0  0  0  0  0  0  0  0  0  0
   14.5473   19.8878   19.8726 H   0  0  0  0  0  0  0  0  0  0  0  0
   13.9914   18.0448   21.1512 H   0  0  0  0  0  0  0  0  0  0  0  0
   13.5342   17.4578   19.5464 H   0  0  0  0  0  0  0  0  0  0  0  0
   10.5193   16.5125   21.1539 H   0  0  0  0  0  0  0  0  0  0  0  0
   11.9545   15.9517   20.3489 H   0  0  0  0  0  0  0  0  0  0  0  0
   12.4065   17.5537   17.3339 H   0  0  0  0  0  0  0  0  0  0  0  0
    9.4966   18.1485   17.4884 H   0  0  0  0  0  0  0  0  0  0  0  0
    9.3793   16.7086   15.3279 H   0  0  0  0  0  0  0  0  0  0  0  0
   11.1147   16.9479   15.1805 H   0  0  0  0  0  0  0  0  0  0  0  0
   10.4132   19.5614   15.4670 H   0  0  0  0  0  0  0  0  0  0  0  0
    8.8562   18.9472   14.9341 H   0  0  0  0  0  0  0  0  0  0  0  0
   11.5177   18.4323   13.4679 H   0  0  0  0  0  0  0  0  0  0  0  0
   10.4646   19.7849   13.0905 H   0  0  0  0  0  0  0  0  0  0  0  0
   10.1164   17.0237   12.3021 H   0  0  0  0  0  0  0  0  0  0  0  0
    7.0228   19.6658   12.0125 H   0  0  0  0  0  0  0  0  0  0  0  0
    8.2801   16.5058   11.0034 H   0  0  0  0  0  0  0  0  0  0  0  0
    6.9827   17.6304   10.8598 H   0  0  0  0  0  0  0  0  0  0  0  0
    9.1885   14.8666   18.6549 H   0  0  0  0  0  0  0  0  0  0  0  0
    8.3974   16.3732   18.3160 H   0  0  0  0  0  0  0  0  0  0  0  0
   16.3152   23.3697   16.9278 H   0  0  0  0  0  0  0  0  0  0  0  0
    8.3627   20.0688   13.0114 H   0  0  0  0  0  0  0  0  0  0  0  0
  1  2  2  0  0  0  0
  1  3  1  0  0  0  0
  1  4  1  0  0  0  0
  3 55  1  0  0  0  0
  3 56  1  0  0  0  0
  3 57  1  0  0  0  0
  4  5  1  0  0  0  0
  4 58  1  0  0  0  0
  5  6  1  0  0  0  0
  5  8  1  0  0  0  0
  5 59  1  1  0  0  0
  6  7  2  0  0  0  0
  6 11  1  0  0  0  0
  8  9  1  0  0  0  0
  8 10  1  0  0  0  0
  8 60  1  6  0  0  0
  9 61  1  0  0  0  0
 10 62  1  0  0  0  0
 10 63  1  0  0  0  0
 10 64  1  0  0  0  0
 11 12  1  0  0  0  0
 11 65  1  0  0  0  0
 12 13  1  0  0  0  0
 12 15  1  0  0  0  0
 12 66  1  1  0  0  0
 13 14  2  0  0  0  0
 13 19  1  0  0  0  0
 15 16  1  0  0  0  0
 15 17  1  0  0  0  0
 15 67  1  6  0  0  0
 16 18  1  0  0  0  0
 16 68  1  0  0  0  0
 16 69  1  0  0  0  0
 17 70  1  0  0  0  0
 17 71  1  0  0  0  0
 17 72  1  0  0  0  0
 18 73  1  0  0  0  0
 18 74  1  0  0  0  0
 18 75  1  0  0  0  0
 19 20  1  0  0  0  0
 19 76  1  0  0  0  0
 20 21  1  0  0  0  0
 20 22  1  0  0  0  0
 20 77  1  6  0  0  0
 21 26  1  0  0  0  0
 21 78  1  0  0  0  0
 21 79  1  0  0  0  0
 22 23  1  0  0  0  0
 22 80  1  0  0  0  0
 22 81  1  0  0  0  0
 23 24  1  0  0  0  0
 23 82  1  0  0  0  0
 23 83  1  0  0  0  0
 24 25  1  0  0  0  0
 24 84  1  0  0  0  0
 24 85  1  0  0  0  0
 25 86  1  0  0  0  0
 25 87  1  0  0  0  0
 25 88  1  0  0  0  0
 26 27  1  0  0  0  0
 26 89  1  0  0  0  0
 26122  1  0  0  0  0
 27 28  1  0  0  0  0
 27 30  1  0  0  0  0
 27 90  1  1  0  0  0
 28 29  2  0  0  0  0
 28 34  1  0  0  0  0
 30 31  1  0  0  0  0
 30 91  1  0  0  0  0
 30 92  1  0  0  0  0
 31 32  1  0  0  0  0
 31 93  1  0  0  0  0
 31 94  1  0  0  0  0
 32 33  1  0  0  0  0
 32 95  1  0  0  0  0
 32 96  1  0  0  0  0
 33 97  1  0  0  0  0
 33 98  1  0  0  0  0
 33 99  1  0  0  0  0
 34 35  1  0  0  0  0
 34100  1  0  0  0  0
 35 36  1  0  0  0  0
 35 38  1  0  0  0  0
 35101  1  6  0  0  0
 36 37  2  0  0  0  0
 36 43  1  0  0  0  0
 38 39  1  0  0  0  0
 38102  1  0  0  0  0
 38103  1  0  0  0  0
 39 40  1  0  0  0  0
 39104  1  0  0  0  0
 39105  1  0  0  0  0
 40 41  2  0  0  0  0
 40 42  1  0  0  0  0
 42106  1  0  0  0  0
 42107  1  0  0  0  0
 43 44  1  0  0  0  0
 43108  1  0  0  0  0
 44 45  1  0  0  0  0
 44 47  1  0  0  0  0
 44109  1  1  0  0  0
 45 46  2  0  0  0  0
 45 54  1  0  0  0  0
 47 48  1  0  0  0  0
 47110  1  0  0  0  0
 47111  1  0  0  0  0
 48 49  1  0  0  0  0
 48112  1  0  0  0  0
 48113  1  0  0  0  0
 49 50  1  0  0  0  0
 49114  1  0  0  0  0
 49115  1  0  0  0  0
 50 51  1  0  0  0  0
 50116  1  0  0  0  0
 51 52  2  0  0  0  0
 51 53  1  0  0  0  0
 52117  1  0  0  0  0
 52123  1  0  0  0  0
 53118  1  0  0  0  0
 53119  1  0  0  0  0
 54120  1  0  0  0  0
 54121  1  0  0  0  0
M  CHG  1  26   1
M  END
$$$$
