2OH
 OpenBabel04051917423D

 33 34  0  0  0  0  0  0  0  0999 V2000
  -15.4380   -8.5279  -26.1125 O   0  0  0  0  0  0  0  0  0  0  0  0
  -15.7238   -7.2218  -26.3989 C   0  0  0  0  0  0  0  0  0  0  0  0
  -14.9224   -6.5699  -27.3199 C   0  0  0  0  0  0  0  0  0  0  0  0
  -15.1722   -5.2296  -27.6208 C   0  0  0  0  0  0  0  0  0  0  0  0
  -16.7781   -6.5681  -25.7817 C   0  0  0  0  0  0  0  0  0  0  0  0
  -17.0357   -5.2291  -26.0896 C   0  0  0  0  0  0  0  0  0  0  0  0
  -16.2411   -4.5329  -27.0141 C   0  0  0  0  0  0  0  0  0  0  0  0
  -16.4682   -3.0427  -27.3421 C   0  0  0  0  0  0  0  0  0  0  0  0
  -17.8233   -2.4899  -26.8205 C   0  0  0  0  0  0  0  0  0  0  0  0
  -15.3809   -2.2502  -26.5798 C   0  0  0  0  0  0  0  0  0  0  0  0
  -16.4322   -2.8149  -28.8664 C   0  0  0  0  0  0  0  0  0  0  0  0
  -17.4840   -3.3186  -29.6607 C   0  0  0  0  0  0  0  0  0  0  0  0
  -17.4866   -3.1595  -31.0434 C   0  0  0  0  0  0  0  0  0  0  0  0
  -15.3666   -2.1718  -29.5182 C   0  0  0  0  0  0  0  0  0  0  0  0
  -15.3592   -2.0224  -30.9057 C   0  0  0  0  0  0  0  0  0  0  0  0
  -16.4227   -2.5125  -31.6535 C   0  0  0  0  0  0  0  0  0  0  0  0
  -16.3876   -2.3518  -33.0055 O   0  0  0  0  0  0  0  0  0  0  0  0
  -16.0651   -8.8334  -25.4388 H   0  0  0  0  0  0  0  0  0  0  0  0
  -14.1011   -7.0908  -27.8024 H   0  0  0  0  0  0  0  0  0  0  0  0
  -14.5216   -4.7326  -28.3365 H   0  0  0  0  0  0  0  0  0  0  0  0
  -17.4110   -7.0671  -25.0543 H   0  0  0  0  0  0  0  0  0  0  0  0
  -17.8660   -4.7453  -25.5812 H   0  0  0  0  0  0  0  0  0  0  0  0
  -17.9050   -2.5754  -25.7318 H   0  0  0  0  0  0  0  0  0  0  0  0
  -18.6859   -3.0154  -27.2453 H   0  0  0  0  0  0  0  0  0  0  0  0
  -17.9340   -1.4272  -27.0681 H   0  0  0  0  0  0  0  0  0  0  0  0
  -14.3677   -2.5577  -26.8620 H   0  0  0  0  0  0  0  0  0  0  0  0
  -15.4702   -2.4073  -25.4981 H   0  0  0  0  0  0  0  0  0  0  0  0
  -15.4708   -1.1738  -26.7675 H   0  0  0  0  0  0  0  0  0  0  0  0
  -18.3106   -3.8580  -29.2025 H   0  0  0  0  0  0  0  0  0  0  0  0
  -18.3185   -3.5562  -31.6158 H   0  0  0  0  0  0  0  0  0  0  0  0
  -14.5073   -1.7928  -28.9696 H   0  0  0  0  0  0  0  0  0  0  0  0
  -14.5252   -1.5356  -31.3990 H   0  0  0  0  0  0  0  0  0  0  0  0
  -17.1891   -2.7571  -33.3743 H   0  0  0  0  0  0  0  0  0  0  0  0
  1  2  1  0  0  0  0
  1 18  1  0  0  0  0
  2  3  2  0  0  0  0
  2  5  1  0  0  0  0
  3  4  1  0  0  0  0
  3 19  1  0  0  0  0
  4  7  2  0  0  0  0
  4 20  1  0  0  0  0
  5  6  2  0  0  0  0
  5 21  1  0  0  0  0
  6  7  1  0  0  0  0
  6 22  1  0  0  0  0
  7  8  1  0  0  0  0
  8  9  1  0  0  0  0
  8 10  1  0  0  0  0
  8 11  1  0  0  0  0
  9 23  1  0  0  0  0
  9 24  1  0  0  0  0
  9 25  1  0  0  0  0
 10 26  1  0  0  0  0
 10 27  1  0  0  0  0
 10 28  1  0  0  0  0
 11 12  2  0  0  0  0
 11 14  1  0  0  0  0
 12 13  1  0  0  0  0
 12 29  1  0  0  0  0
 13 16  2  0  0  0  0
 13 30  1  0  0  0  0
 14 15  2  0  0  0  0
 14 31  1  0  0  0  0
 15 16  1  0  0  0  0
 15 32  1  0  0  0  0
 16 17  1  0  0  0  0
 17 33  1  0  0  0  0
M  END
$$$$
