2OH
 OpenBabel04051918453D

 33 34  0  0  0  0  0  0  0  0999 V2000
   48.5740  -29.6495 -101.1900 O   0  0  0  0  0  0  0  0  0  0  0  0
   48.5650  -29.4748  -99.8389 C   0  0  0  0  0  0  0  0  0  0  0  0
   47.5357  -30.0777  -99.1097 C   0  0  0  0  0  0  0  0  0  0  0  0
   47.4899  -29.9203  -97.7046 C   0  0  0  0  0  0  0  0  0  0  0  0
   49.5384  -28.7270  -99.1797 C   0  0  0  0  0  0  0  0  0  0  0  0
   49.4906  -28.5700  -97.7842 C   0  0  0  0  0  0  0  0  0  0  0  0
   48.4592  -29.1603  -97.0066 C   0  0  0  0  0  0  0  0  0  0  0  0
   48.4194  -28.9427  -95.4436 C   0  0  0  0  0  0  0  0  0  0  0  0
   49.7032  -29.5899  -94.8428 C   0  0  0  0  0  0  0  0  0  0  0  0
   47.2454  -29.7027  -94.7660 C   0  0  0  0  0  0  0  0  0  0  0  0
   48.2143  -27.4237  -95.0804 C   0  0  0  0  0  0  0  0  0  0  0  0
   49.0941  -26.6687  -94.2626 C   0  0  0  0  0  0  0  0  0  0  0  0
   48.8432  -25.3142  -93.9817 C   0  0  0  0  0  0  0  0  0  0  0  0
   47.0738  -26.7479  -95.5777 C   0  0  0  0  0  0  0  0  0  0  0  0
   46.8081  -25.3904  -95.3072 C   0  0  0  0  0  0  0  0  0  0  0  0
   47.7048  -24.6844  -94.5058 C   0  0  0  0  0  0  0  0  0  0  0  0
   47.4514  -23.3665  -94.2399 O   0  0  0  0  0  0  0  0  0  0  0  0
   49.3357  -29.1820 -101.5776 H   0  0  0  0  0  0  0  0  0  0  0  0
   46.7804  -30.6608  -99.6331 H   0  0  0  0  0  0  0  0  0  0  0  0
   46.6685  -30.4078  -97.1751 H   0  0  0  0  0  0  0  0  0  0  0  0
   50.3479  -28.2532  -99.7549 H   0  0  0  0  0  0  0  0  0  0  0  0
   50.2637  -27.9742  -97.2950 H   0  0  0  0  0  0  0  0  0  0  0  0
   49.7845  -30.6541  -95.1198 H   0  0  0  0  0  0  0  0  0  0  0  0
   49.7115  -29.5427  -93.7433 H   0  0  0  0  0  0  0  0  0  0  0  0
   50.6061  -29.0872  -95.2046 H   0  0  0  0  0  0  0  0  0  0  0  0
   46.2803  -29.3213  -95.1172 H   0  0  0  0  0  0  0  0  0  0  0  0
   47.2702  -29.5827  -93.6723 H   0  0  0  0  0  0  0  0  0  0  0  0
   47.2812  -30.7793  -94.9830 H   0  0  0  0  0  0  0  0  0  0  0  0
   49.9901  -27.1232  -93.8390 H   0  0  0  0  0  0  0  0  0  0  0  0
   49.5267  -24.7326  -93.3568 H   0  0  0  0  0  0  0  0  0  0  0  0
   46.3557  -27.2886  -96.2054 H   0  0  0  0  0  0  0  0  0  0  0  0
   45.9334  -24.9097  -95.7150 H   0  0  0  0  0  0  0  0  0  0  0  0
   48.1572  -23.0071  -93.6717 H   0  0  0  0  0  0  0  0  0  0  0  0
  1  2  1  0  0  0  0
  1 18  1  0  0  0  0
  2  3  2  0  0  0  0
  2  5  1  0  0  0  0
  3  4  1  0  0  0  0
  3 19  1  0  0  0  0
  4  7  2  0  0  0  0
  4 20  1  0  0  0  0
  5  6  2  0  0  0  0
  5 21  1  0  0  0  0
  6  7  1  0  0  0  0
  6 22  1  0  0  0  0
  7  8  1  0  0  0  0
  8  9  1  0  0  0  0
  8 10  1  0  0  0  0
  8 11  1  0  0  0  0
  9 23  1  0  0  0  0
  9 24  1  0  0  0  0
  9 25  1  0  0  0  0
 10 26  1  0  0  0  0
 10 27  1  0  0  0  0
 10 28  1  0  0  0  0
 11 12  2  0  0  0  0
 11 14  1  0  0  0  0
 12 13  1  0  0  0  0
 12 29  1  0  0  0  0
 13 16  2  0  0  0  0
 13 30  1  0  0  0  0
 14 15  2  0  0  0  0
 14 31  1  0  0  0  0
 15 16  1  0  0  0  0
 15 32  1  0  0  0  0
 16 17  1  0  0  0  0
 17 33  1  0  0  0  0
M  END
$$$$
