2PN
 OpenBabel04051918093D

 10  9  0  0  0  0  0  0  0  0999 V2000
  -10.7793   -7.7191  125.3446 P   0  0  0  0  0  0  0  0  0  0  0  0
  -10.4849   -8.3346  123.9633 O   0  0  0  0  0  0  0  0  0  0  0  0
  -10.1401   -8.6035  126.4339 O   0  0  0  0  0  0  0  0  0  0  0  0
  -10.3449   -6.2732  125.4696 O   0  0  0  0  0  0  0  0  0  0  0  0
  -12.4317   -7.9454  125.6224 N   0  0  0  0  0  0  0  0  0  0  0  0
  -13.8625   -7.0470  125.5847 P   0  0  0  0  0  0  0  0  0  0  0  0
  -14.7540   -7.8535  124.6246 O   0  0  0  0  0  0  0  0  0  0  0  0
  -14.4056   -7.1746  127.0194 O   0  0  0  0  0  0  0  0  0  0  0  0
  -13.6811   -5.6048  125.1467 O   0  0  0  0  0  0  0  0  0  0  0  0
  -12.6626   -8.9069  125.5632 H   0  0  0  0  0  0  0  0  0  0  0  0
  1  2  2  0  0  0  0
  1  3  1  0  0  0  0
  1  4  1  0  0  0  0
  1  5  1  0  0  0  0
  5  6  1  0  0  0  0
  5 10  1  0  0  0  0
  6  7  2  0  0  0  0
  6  8  1  0  0  0  0
  6  9  1  0  0  0  0
M  END
$$$$
