2SK
 OpenBabel04051917553D

 38 39  0  0  1  0  0  0  0  0999 V2000
   31.2337   66.2130    9.0663 C   0  0  1  0  0  0  0  0  0  0  0  0
   31.1001   64.8375    9.6641 N   0  3  0  0  0  0  0  0  0  0  0  0
   32.7323   66.6502    9.1417 C   0  0  1  0  0  0  0  0  0  0  0  0
   33.5423   65.5651    9.6212 O   0  0  0  0  0  0  0  0  0  0  0  0
   33.1108   67.1314    7.7295 C   0  0  1  0  0  0  0  0  0  0  0  0
   33.7669   66.0807    7.0159 O   0  0  0  0  0  0  0  0  0  0  0  0
   31.7590   67.4654    7.0843 C   0  0  1  0  0  0  0  0  0  0  0  0
   31.8722   67.5139    5.6728 O   0  0  0  0  0  0  0  0  0  0  0  0
   30.8887   66.2918    7.5627 C   0  0  2  0  0  0  0  0  0  0  0  0
   29.1005   66.3690    7.1359 S   0  0  0  0  0  0  0  0  0  0  0  0
   28.6269   68.0534    7.5910 C   0  0  0  0  0  0  0  0  0  0  0  0
   29.7586   64.2056    9.7986 C   0  0  0  0  0  0  0  0  0  0  0  0
   29.0228   64.5822   11.0560 C   0  0  0  0  0  0  0  0  0  0  0  0
   28.2491   65.7453   11.1247 C   0  0  0  0  0  0  0  0  0  0  0  0
   27.5310   66.0524   12.2909 C   0  0  0  0  0  0  0  0  0  0  0  0
   29.0775   63.7375   12.1759 C   0  0  0  0  0  0  0  0  0  0  0  0
   28.3566   64.0444   13.3342 C   0  0  0  0  0  0  0  0  0  0  0  0
   27.5862   65.1978   13.3898 C   0  0  0  0  0  0  0  0  0  0  0  0
   30.6333   66.9014    9.6701 H   0  0  0  0  0  0  0  0  0  0  0  0
   31.7309   64.2188    9.1351 H   0  0  0  0  0  0  0  0  0  0  0  0
   32.8305   67.4755    9.8537 H   0  0  0  0  0  0  0  0  0  0  0  0
   34.4545   65.7202    9.2913 H   0  0  0  0  0  0  0  0  0  0  0  0
   33.7900   67.9888    7.7423 H   0  0  0  0  0  0  0  0  0  0  0  0
   33.7949   66.3488    6.0709 H   0  0  0  0  0  0  0  0  0  0  0  0
   31.3848   68.4225    7.4643 H   0  0  0  0  0  0  0  0  0  0  0  0
   32.2266   68.3837    5.4092 H   0  0  0  0  0  0  0  0  0  0  0  0
   31.2283   65.3737    7.0646 H   0  0  0  0  0  0  0  0  0  0  0  0
   27.5388   68.1347    7.4998 H   0  0  0  0  0  0  0  0  0  0  0  0
   29.0771   68.7778    6.9102 H   0  0  0  0  0  0  0  0  0  0  0  0
   28.8965   68.2798    8.6246 H   0  0  0  0  0  0  0  0  0  0  0  0
   29.9404   63.1237    9.7921 H   0  0  0  0  0  0  0  0  0  0  0  0
   29.1602   64.4065    8.9147 H   0  0  0  0  0  0  0  0  0  0  0  0
   28.1519   66.4162   10.2758 H   0  0  0  0  0  0  0  0  0  0  0  0
   26.9133   66.9479   12.3339 H   0  0  0  0  0  0  0  0  0  0  0  0
   29.6464   62.8113   12.1558 H   0  0  0  0  0  0  0  0  0  0  0  0
   28.3757   63.3661   14.1838 H   0  0  0  0  0  0  0  0  0  0  0  0
   27.0079   65.4272   14.2832 H   0  0  0  0  0  0  0  0  0  0  0  0
   31.5536   64.8554   10.5900 H   0  0  0  0  0  0  0  0  0  0  0  0
  1  2  1  0  0  0  0
  1  3  1  0  0  0  0
  1  9  1  0  0  0  0
  1 19  1  1  0  0  0
  2 12  1  0  0  0  0
  2 20  1  0  0  0  0
  2 38  1  0  0  0  0
  3  4  1  0  0  0  0
  3  5  1  0  0  0  0
  3 21  1  1  0  0  0
  4 22  1  0  0  0  0
  5  6  1  0  0  0  0
  5  7  1  0  0  0  0
  5 23  1  1  0  0  0
  6 24  1  0  0  0  0
  7  8  1  0  0  0  0
  7  9  1  0  0  0  0
  7 25  1  1  0  0  0
  8 26  1  0  0  0  0
  9 10  1  0  0  0  0
  9 27  1  6  0  0  0
 10 11  1  0  0  0  0
 11 28  1  0  0  0  0
 11 29  1  0  0  0  0
 11 30  1  0  0  0  0
 12 13  1  0  0  0  0
 12 31  1  0  0  0  0
 12 32  1  0  0  0  0
 13 14  2  0  0  0  0
 13 16  1  0  0  0  0
 14 15  1  0  0  0  0
 14 33  1  0  0  0  0
 15 18  2  0  0  0  0
 15 34  1  0  0  0  0
 16 17  2  0  0  0  0
 16 35  1  0  0  0  0
 17 18  1  0  0  0  0
 17 36  1  0  0  0  0
 18 37  1  0  0  0  0
M  CHG  1   2   1
M  END
$$$$
