302
 OpenBabel04051918113D

 38 39  0  0  0  0  0  0  0  0999 V2000
    6.0563   -0.8754   -3.0364 C   0  0  0  0  0  0  0  0  0  0  0  0
    6.8223    1.1268   -4.1388 C   0  0  0  0  0  0  0  0  0  0  0  0
    5.9253   -0.7185   -5.4342 C   0  0  0  0  0  0  0  0  0  0  0  0
    5.7044   -1.4650   -4.1783 C   0  0  0  0  0  0  0  0  0  0  0  0
    6.5947    0.3813   -3.0164 N   0  3  0  0  0  0  0  0  0  0  0  0
    6.4626    0.5319   -5.3127 N   0  3  0  0  0  0  0  0  0  0  0  0
    8.8484    8.5367    3.3996 O   0  0  0  0  0  0  0  0  0  0  0  0
    9.4853    7.8167    2.5667 C   0  0  0  0  0  0  0  0  0  0  0  0
   10.3136    8.2313    1.6975 O   0  0  0  0  0  0  0  0  0  0  0  0
    9.2397    6.3229    2.6248 C   0  0  0  0  0  0  0  0  0  0  0  0
    9.5401    5.5033    1.5170 C   0  0  0  0  0  0  0  0  0  0  0  0
    9.3264    4.1183    1.5569 C   0  0  0  0  0  0  0  0  0  0  0  0
    8.7187    5.7275    3.7792 C   0  0  0  0  0  0  0  0  0  0  0  0
    8.5173    4.3490    3.8303 C   0  0  0  0  0  0  0  0  0  0  0  0
    8.8217    3.5457    2.7224 C   0  0  0  0  0  0  0  0  0  0  0  0
    8.6340    2.0975    2.9142 C   0  0  0  0  0  0  0  0  0  0  0  0
    8.6415    1.1708    2.0030 N   0  0  0  0  0  0  0  0  0  0  0  0
    8.4588   -0.0538    2.6920 O   0  0  0  0  0  0  0  0  0  0  0  0
    8.0618   -1.0893    1.7956 C   0  0  0  0  0  0  0  0  0  0  0  0
    6.5448   -1.0961    1.6346 C   0  0  0  0  0  0  0  0  0  0  0  0
    6.1356   -1.8249    0.4685 O   0  0  0  0  0  0  0  0  0  0  0  0
    6.3371   -0.9959   -0.6435 N   0  0  0  0  0  0  0  0  0  0  0  0
    5.9008   -1.5596   -1.7234 C   0  0  0  0  0  0  0  0  0  0  0  0
    5.6381   -1.2193   -6.5161 O   0  0  0  0  0  0  0  0  0  0  0  0
    7.3131    2.2420   -4.1010 O   0  0  0  0  0  0  0  0  0  0  0  0
    5.2848   -2.4589   -4.2597 H   0  0  0  0  0  0  0  0  0  0  0  0
    6.8574    0.7860   -2.1204 H   0  0  0  0  0  0  0  0  0  0  0  0
    6.6312    1.0614   -6.1555 H   0  0  0  0  0  0  0  0  0  0  0  0
    9.9524    5.9712    0.6226 H   0  0  0  0  0  0  0  0  0  0  0  0
    9.5778    3.5136    0.6919 H   0  0  0  0  0  0  0  0  0  0  0  0
    8.4862    6.3486    4.6429 H   0  0  0  0  0  0  0  0  0  0  0  0
    8.1253    3.9145    4.7451 H   0  0  0  0  0  0  0  0  0  0  0  0
    8.4622    1.7994    3.9615 H   0  0  0  0  0  0  0  0  0  0  0  0
    8.3661   -2.0361    2.2588 H   0  0  0  0  0  0  0  0  0  0  0  0
    8.6030   -1.0215    0.8465 H   0  0  0  0  0  0  0  0  0  0  0  0
    6.1318   -0.0806    1.6130 H   0  0  0  0  0  0  0  0  0  0  0  0
    6.0902   -1.5894    2.5022 H   0  0  0  0  0  0  0  0  0  0  0  0
    5.4177   -2.5524   -1.7269 H   0  0  0  0  0  0  0  0  0  0  0  0
  1  4  2  0  0  0  0
  1  5  1  0  0  0  0
  1 23  1  0  0  0  0
  2  5  1  0  0  0  0
  2  6  1  0  0  0  0
  2 25  2  0  0  0  0
  3  4  1  0  0  0  0
  3  6  1  0  0  0  0
  3 24  2  0  0  0  0
  4 26  1  0  0  0  0
  5 27  1  0  0  0  0
  6 28  1  0  0  0  0
  7  8  2  0  0  0  0
  8  9  1  0  0  0  0
  8 10  1  0  0  0  0
 10 11  2  0  0  0  0
 10 13  1  0  0  0  0
 11 12  1  0  0  0  0
 11 29  1  0  0  0  0
 12 15  2  0  0  0  0
 12 30  1  0  0  0  0
 13 14  2  0  0  0  0
 13 31  1  0  0  0  0
 14 15  1  0  0  0  0
 14 32  1  0  0  0  0
 15 16  1  0  0  0  0
 16 17  2  0  0  0  0
 16 33  1  0  0  0  0
 17 18  1  0  0  0  0
 18 19  1  0  0  0  0
 19 20  1  0  0  0  0
 19 34  1  0  0  0  0
 19 35  1  0  0  0  0
 20 21  1  0  0  0  0
 20 36  1  0  0  0  0
 20 37  1  0  0  0  0
 21 22  1  0  0  0  0
 22 23  2  0  0  0  0
 23 38  1  0  0  0  0
M  CHG  2   5   1   6   1
M  END
$$$$
