346
 OpenBabel04051917293D

 54 56  0  0  1  0  0  0  0  0999 V2000
    9.1082   41.7010   30.0854 F   0  0  0  0  0  0  0  0  0  0  0  0
    9.9427   42.3222   30.9366 C   0  0  0  0  0  0  0  0  0  0  0  0
   10.3306   43.6314   30.6639 C   0  0  0  0  0  0  0  0  0  0  0  0
    9.7919   44.1756   29.5280 O   0  0  0  0  0  0  0  0  0  0  0  0
   10.1991   45.5042   29.2060 C   0  0  2  0  0  0  0  0  0  0  0  0
    9.3400   45.9761   28.0577 C   0  0  0  0  0  0  0  0  0  0  0  0
   10.1316   45.5463   26.8451 C   0  0  0  0  0  0  0  0  0  0  0  0
   11.5167   45.5674   27.2034 O   0  0  0  0  0  0  0  0  0  0  0  0
   11.6119   45.5045   28.6326 C   0  0  0  0  0  0  0  0  0  0  0  0
   11.2345   44.2697   31.5193 C   0  0  0  0  0  0  0  0  0  0  0  0
   11.7522   43.6100   32.6295 C   0  0  0  0  0  0  0  0  0  0  0  0
   12.6405   44.3401   33.3789 O   0  0  0  0  0  0  0  0  0  0  0  0
   13.1836   43.6424   34.5007 C   0  0  0  0  0  0  0  0  0  0  0  0
   14.1831   44.5246   35.2204 C   0  0  0  0  0  0  0  0  0  0  0  0
   11.3541   42.2990   32.8870 C   0  0  0  0  0  0  0  0  0  0  0  0
   10.4443   41.6401   32.0420 C   0  0  0  0  0  0  0  0  0  0  0  0
   10.0331   40.2106   32.3054 C   0  0  2  0  0  0  0  0  0  0  0  0
    9.2107   40.1378   33.6329 C   0  0  0  0  0  0  0  0  0  0  0  0
    8.0716   40.6873   33.6032 O   0  0  0  0  0  0  0  0  0  0  0  0
    9.7848   39.5177   34.5860 O   0  0  0  0  0  0  0  0  0  0  0  0
   11.2483   39.3782   32.3588 N   0  0  0  0  0  0  0  0  0  0  0  0
   11.9283   38.9079   31.2764 C   0  0  0  0  0  0  0  0  0  0  0  0
   11.5245   39.1519   29.9665 C   0  0  0  0  0  0  0  0  0  0  0  0
   12.2772   38.6951   28.8915 C   0  0  0  0  0  0  0  0  0  0  0  0
   13.4655   37.9789   29.0937 C   0  0  0  0  0  0  0  0  0  0  0  0
   14.2416   37.4651   27.9510 C   0  0  0  0  0  0  0  0  0  0  0  0
   13.8004   37.6386   26.7210 N   0  0  0  0  0  0  0  0  0  0  0  0
   15.3902   36.8598   28.1318 N   0  0  0  0  0  0  0  0  0  0  0  0
   13.8757   37.7452   30.4167 C   0  0  0  0  0  0  0  0  0  0  0  0
   13.1183   38.2096   31.4734 C   0  0  0  0  0  0  0  0  0  0  0  0
   10.0741   46.1634   30.0722 H   0  0  0  0  0  0  0  0  0  0  0  0
    9.2462   47.0674   28.0736 H   0  0  0  0  0  0  0  0  0  0  0  0
    8.3356   45.5406   28.0539 H   0  0  0  0  0  0  0  0  0  0  0  0
    9.9730   46.2139   25.9944 H   0  0  0  0  0  0  0  0  0  0  0  0
    9.8664   44.5279   26.5434 H   0  0  0  0  0  0  0  0  0  0  0  0
   12.1801   44.6053   28.8960 H   0  0  0  0  0  0  0  0  0  0  0  0
   12.1755   46.3759   28.9791 H   0  0  0  0  0  0  0  0  0  0  0  0
   11.5712   45.2857   31.3428 H   0  0  0  0  0  0  0  0  0  0  0  0
   13.7063   42.7438   34.1553 H   0  0  0  0  0  0  0  0  0  0  0  0
   12.3811   43.3791   35.1983 H   0  0  0  0  0  0  0  0  0  0  0  0
   14.6062   43.9876   36.0748 H   0  0  0  0  0  0  0  0  0  0  0  0
   13.7068   45.4411   35.5806 H   0  0  0  0  0  0  0  0  0  0  0  0
   14.9977   44.8173   34.5509 H   0  0  0  0  0  0  0  0  0  0  0  0
   11.7279   41.7443   33.7433 H   0  0  0  0  0  0  0  0  0  0  0  0
    9.3611   39.8402   31.5217 H   0  0  0  0  0  0  0  0  0  0  0  0
   11.4500   39.0694   33.3116 H   0  0  0  0  0  0  0  0  0  0  0  0
   10.6080   39.6982   29.7509 H   0  0  0  0  0  0  0  0  0  0  0  0
   11.8825   38.9231   27.9093 H   0  0  0  0  0  0  0  0  0  0  0  0
   14.3158   37.3041   25.9245 H   0  0  0  0  0  0  0  0  0  0  0  0
   15.7871   36.7233   29.0462 H   0  0  0  0  0  0  0  0  0  0  0  0
   15.9178   36.4997   27.3485 H   0  0  0  0  0  0  0  0  0  0  0  0
   14.7714   37.1948   30.6648 H   0  0  0  0  0  0  0  0  0  0  0  0
   13.4516   38.0326   32.4955 H   0  0  0  0  0  0  0  0  0  0  0  0
   12.9364   38.1079   26.5182 H   0  0  0  0  0  0  0  0  0  0  0  0
  1  2  1  0  0  0  0
  2  3  2  0  0  0  0
  2 16  1  0  0  0  0
  3  4  1  0  0  0  0
  3 10  1  0  0  0  0
  4  5  1  0  0  0  0
  5  6  1  0  0  0  0
  5  9  1  0  0  0  0
  5 31  1  1  0  0  0
  6  7  1  0  0  0  0
  6 32  1  0  0  0  0
  6 33  1  0  0  0  0
  7  8  1  0  0  0  0
  7 34  1  0  0  0  0
  7 35  1  0  0  0  0
  8  9  1  0  0  0  0
  9 36  1  0  0  0  0
  9 37  1  0  0  0  0
 10 11  2  0  0  0  0
 10 38  1  0  0  0  0
 11 12  1  0  0  0  0
 11 15  1  0  0  0  0
 12 13  1  0  0  0  0
 13 14  1  0  0  0  0
 13 39  1  0  0  0  0
 13 40  1  0  0  0  0
 14 41  1  0  0  0  0
 14 42  1  0  0  0  0
 14 43  1  0  0  0  0
 15 16  2  0  0  0  0
 15 44  1  0  0  0  0
 16 17  1  0  0  0  0
 17 18  1  0  0  0  0
 17 21  1  0  0  0  0
 17 45  1  6  0  0  0
 18 19  2  0  0  0  0
 18 20  1  0  0  0  0
 21 22  1  0  0  0  0
 21 46  1  0  0  0  0
 22 23  2  0  0  0  0
 22 30  1  0  0  0  0
 23 24  1  0  0  0  0
 23 47  1  0  0  0  0
 24 25  2  0  0  0  0
 24 48  1  0  0  0  0
 25 26  1  0  0  0  0
 25 29  1  0  0  0  0
 26 27  2  0  0  0  0
 26 28  1  0  0  0  0
 27 49  1  0  0  0  0
 27 54  1  0  0  0  0
 28 50  1  0  0  0  0
 28 51  1  0  0  0  0
 29 30  2  0  0  0  0
 29 52  1  0  0  0  0
 30 53  1  0  0  0  0
M  END
$$$$
