348
 OpenBabel04051917363D

 69 73  0  0  1  0  0  0  0  0999 V2000
   10.5885  -12.1277   24.1348 N   0  0  0  0  0  0  0  0  0  0  0  0
   11.3611  -11.0866   23.9338 C   0  0  0  0  0  0  0  0  0  0  0  0
   11.1226   -9.9803   24.6150 N   0  0  0  0  0  0  0  0  0  0  0  0
   12.4718  -11.1432   22.9545 C   0  0  0  0  0  0  0  0  0  0  0  0
   12.7239  -12.3158   22.2228 C   0  0  0  0  0  0  0  0  0  0  0  0
   13.7706  -12.3838   21.3022 C   0  0  0  0  0  0  0  0  0  0  0  0
   14.6048  -11.2840   21.0848 C   0  0  0  0  0  0  0  0  0  0  0  0
   14.3635  -10.1055   21.7979 C   0  0  0  0  0  0  0  0  0  0  0  0
   13.3102  -10.0418   22.7150 C   0  0  0  0  0  0  0  0  0  0  0  0
   15.7506  -11.3302   20.1164 C   0  0  2  0  0  0  0  0  0  0  0  0
   15.5695  -12.2967   18.9643 N   0  3  1  0  0  0  0  0  0  0  0  0
   14.6664  -11.7763   17.8820 C   0  0  0  0  0  0  0  0  0  0  0  0
   15.4959  -11.7642   16.6193 C   0  0  0  0  0  0  0  0  0  0  0  0
   16.9496  -11.8283   17.0529 C   0  0  0  0  0  0  0  0  0  0  0  0
   16.9371  -12.5497   18.3861 C   0  0  1  0  0  0  0  0  0  0  0  0
   17.9438  -12.0528   19.4143 C   0  0  2  0  0  0  0  0  0  0  0  0
   18.8846  -13.1874   19.8471 C   0  0  2  0  0  0  0  0  0  0  0  0
   18.3020  -13.6378   21.0988 N   0  0  0  0  0  0  0  0  0  0  0  0
   17.2947  -12.8252   21.5985 C   0  0  0  0  0  0  0  0  0  0  0  0
   16.6493  -13.0157   22.5870 O   0  0  0  0  0  0  0  0  0  0  0  0
   17.1380  -11.6350   20.6532 C   0  0  2  0  0  0  0  0  0  0  0  0
   18.7711  -14.8471   21.7968 C   0  0  0  0  0  0  0  0  0  0  0  0
   19.6418  -14.5122   22.9811 C   0  0  0  0  0  0  0  0  0  0  0  0
   21.0284  -14.3988   22.8350 C   0  0  0  0  0  0  0  0  0  0  0  0
   21.8441  -14.0389   23.9144 C   0  0  0  0  0  0  0  0  0  0  0  0
   21.2713  -13.7781   25.1649 C   0  0  0  0  0  0  0  0  0  0  0  0
   22.1129  -13.4526   26.1973 O   0  0  0  0  0  0  0  0  0  0  0  0
   21.6064  -12.5606   27.2029 C   0  0  0  0  0  0  0  0  0  0  0  0
   19.8953  -13.9169   25.3191 C   0  0  0  0  0  0  0  0  0  0  0  0
   19.0822  -14.2724   24.2398 C   0  0  0  0  0  0  0  0  0  0  0  0
   20.3570  -12.7419   19.9440 C   0  0  0  0  0  0  0  0  0  0  0  0
   21.0005  -12.4704   18.5850 C   0  0  0  0  0  0  0  0  0  0  0  0
   20.6003  -11.5364   20.8414 C   0  0  0  0  0  0  0  0  0  0  0  0
   10.7253  -12.9966   23.6348 H   0  0  0  0  0  0  0  0  0  0  0  0
   11.6892   -9.1587   24.4947 H   0  0  0  0  0  0  0  0  0  0  0  0
   10.3639   -9.9293   25.2795 H   0  0  0  0  0  0  0  0  0  0  0  0
   12.1092  -13.1976   22.3631 H   0  0  0  0  0  0  0  0  0  0  0  0
   13.9311  -13.3131   20.7671 H   0  0  0  0  0  0  0  0  0  0  0  0
   14.9958   -9.2301   21.6413 H   0  0  0  0  0  0  0  0  0  0  0  0
   13.1547   -9.1090   23.2493 H   0  0  0  0  0  0  0  0  0  0  0  0
   15.7844  -10.3368   19.6412 H   0  0  0  0  0  0  0  0  0  0  0  0
   14.3399  -10.7736   18.1625 H   0  0  0  0  0  0  0  0  0  0  0  0
   13.8005  -12.4401   17.8062 H   0  0  0  0  0  0  0  0  0  0  0  0
   15.2958  -10.8519   16.0478 H   0  0  0  0  0  0  0  0  0  0  0  0
   15.2398  -12.6261   15.9902 H   0  0  0  0  0  0  0  0  0  0  0  0
   17.3733  -10.8214   17.1381 H   0  0  0  0  0  0  0  0  0  0  0  0
   17.5491  -12.3907   16.3253 H   0  0  0  0  0  0  0  0  0  0  0  0
   17.0353  -13.6229   18.2162 H   0  0  0  0  0  0  0  0  0  0  0  0
   18.5067  -11.2127   19.0249 H   0  0  0  0  0  0  0  0  0  0  0  0
   18.8287  -14.0320   19.1427 H   0  0  0  0  0  0  0  0  0  0  0  0
   17.5471  -10.7445   21.1432 H   0  0  0  0  0  0  0  0  0  0  0  0
   19.3347  -15.4525   21.0773 H   0  0  0  0  0  0  0  0  0  0  0  0
   17.9056  -15.4399   22.1294 H   0  0  0  0  0  0  0  0  0  0  0  0
   21.4857  -14.5917   21.8678 H   0  0  0  0  0  0  0  0  0  0  0  0
   22.9208  -13.9544   23.7660 H   0  0  0  0  0  0  0  0  0  0  0  0
   22.3886  -12.4095   27.9625 H   0  0  0  0  0  0  0  0  0  0  0  0
   20.7253  -12.9655   27.7132 H   0  0  0  0  0  0  0  0  0  0  0  0
   21.3664  -11.5844   26.7646 H   0  0  0  0  0  0  0  0  0  0  0  0
   19.4444  -13.7524   26.2873 H   0  0  0  0  0  0  0  0  0  0  0  0
   18.0080  -14.3579   24.3883 H   0  0  0  0  0  0  0  0  0  0  0  0
   20.9072  -13.5748   20.3636 H   0  0  0  0  0  0  0  0  0  0  0  0
   22.0415  -12.1432   18.7211 H   0  0  0  0  0  0  0  0  0  0  0  0
   20.4645  -11.6839   18.0443 H   0  0  0  0  0  0  0  0  0  0  0  0
   21.0058  -13.3799   17.9755 H   0  0  0  0  0  0  0  0  0  0  0  0
   20.1491  -11.6940   21.8226 H   0  0  0  0  0  0  0  0  0  0  0  0
   20.1804  -10.6273   20.3983 H   0  0  0  0  0  0  0  0  0  0  0  0
   21.6790  -11.3844   20.9763 H   0  0  0  0  0  0  0  0  0  0  0  0
    9.8267  -12.1131   24.8000 H   0  0  0  0  0  0  0  0  0  0  0  0
   15.2068  -13.1862   19.3237 H   0  0  0  0  0  0  0  0  0  0  0  0
  1  2  2  0  0  0  0
  1 34  1  0  0  0  0
  1 68  1  0  0  0  0
  2  3  1  0  0  0  0
  2  4  1  0  0  0  0
  3 35  1  0  0  0  0
  3 36  1  0  0  0  0
  4  5  2  0  0  0  0
  4  9  1  0  0  0  0
  5  6  1  0  0  0  0
  5 37  1  0  0  0  0
  6  7  2  0  0  0  0
  6 38  1  0  0  0  0
  7  8  1  0  0  0  0
  7 10  1  0  0  0  0
  8  9  2  0  0  0  0
  8 39  1  0  0  0  0
  9 40  1  0  0  0  0
 10 11  1  0  0  0  0
 10 21  1  0  0  0  0
 10 41  1  6  0  0  0
 11 12  1  0  0  0  0
 11 15  1  0  0  0  0
 11 69  1  1  0  0  0
 12 13  1  0  0  0  0
 12 42  1  0  0  0  0
 12 43  1  0  0  0  0
 13 14  1  0  0  0  0
 13 44  1  0  0  0  0
 13 45  1  0  0  0  0
 14 15  1  0  0  0  0
 14 46  1  0  0  0  0
 14 47  1  0  0  0  0
 15 16  1  0  0  0  0
 15 48  1  6  0  0  0
 16 17  1  0  0  0  0
 16 21  1  0  0  0  0
 16 49  1  6  0  0  0
 17 18  1  0  0  0  0
 17 31  1  0  0  0  0
 17 50  1  6  0  0  0
 18 19  1  0  0  0  0
 18 22  1  0  0  0  0
 19 20  2  0  0  0  0
 19 21  1  0  0  0  0
 21 51  1  1  0  0  0
 22 23  1  0  0  0  0
 22 52  1  0  0  0  0
 22 53  1  0  0  0  0
 23 24  2  0  0  0  0
 23 30  1  0  0  0  0
 24 25  1  0  0  0  0
 24 54  1  0  0  0  0
 25 26  2  0  0  0  0
 25 55  1  0  0  0  0
 26 27  1  0  0  0  0
 26 29  1  0  0  0  0
 27 28  1  0  0  0  0
 28 56  1  0  0  0  0
 28 57  1  0  0  0  0
 28 58  1  0  0  0  0
 29 30  2  0  0  0  0
 29 59  1  0  0  0  0
 30 60  1  0  0  0  0
 31 32  1  0  0  0  0
 31 33  1  0  0  0  0
 31 61  1  0  0  0  0
 32 62  1  0  0  0  0
 32 63  1  0  0  0  0
 32 64  1  0  0  0  0
 33 65  1  0  0  0  0
 33 66  1  0  0  0  0
 33 67  1  0  0  0  0
M  CHG  1  11   1
M  END
$$$$
