35B
 OpenBabel04051920543D

 52 54  0  0  0  0  0  0  0  0999 V2000
   50.0601   10.7489   -2.5038 C   0  0  0  0  0  0  0  0  0  0  0  0
   49.6399    9.2745   -0.5558 C   0  0  0  0  0  0  0  0  0  0  0  0
   47.3205    9.3985    0.3604 C   0  0  0  0  0  0  0  0  0  0  0  0
   46.2419    8.6604   -0.1251 C   0  0  0  0  0  0  0  0  0  0  0  0
   44.9612    9.2171   -0.1520 C   0  0  0  0  0  0  0  0  0  0  0  0
   44.7505   10.5119    0.3263 C   0  0  0  0  0  0  0  0  0  0  0  0
   49.2000   10.1962   -1.4898 N   0  0  0  0  0  0  0  0  0  0  0  0
   45.8204   11.2703    0.8184 C   0  0  0  0  0  0  0  0  0  0  0  0
   50.7739    8.8467   -0.5481 O   0  0  0  0  0  0  0  0  0  0  0  0
   47.1030   10.7023    0.8171 C   0  0  0  0  0  0  0  0  0  0  0  0
   45.6138   12.6435    1.3079 C   0  0  0  0  0  0  0  0  0  0  0  0
   46.1649   13.3240    2.3751 C   0  0  0  0  0  0  0  0  0  0  0  0
   45.6947   14.6687    2.4903 C   0  0  0  0  0  0  0  0  0  0  0  0
   44.7855   14.9995    1.4993 C   0  0  0  0  0  0  0  0  0  0  0  0
   44.0694   16.2847    1.2745 C   0  0  0  0  0  0  0  0  0  0  0  0
   47.2926   16.1828    3.2637 C   0  0  0  0  0  0  0  0  0  0  0  0
   47.6280   17.0222    4.5239 C   0  0  0  0  0  0  0  0  0  0  0  0
   49.0040    7.8927    1.4367 C   0  0  0  0  0  0  0  0  0  0  0  0
   48.8584    6.4170    1.0066 C   0  0  0  0  0  0  0  0  0  0  0  0
   48.0779    5.5696    2.0141 C   0  0  0  0  0  0  0  0  0  0  0  0
   48.6016    5.7221    3.4378 C   0  0  0  0  0  0  0  0  0  0  0  0
   48.7789    7.1792    3.8525 C   0  0  0  0  0  0  0  0  0  0  0  0
   48.2987    8.1529    2.7811 C   0  0  0  0  0  0  0  0  0  0  0  0
   48.6429    8.8591    0.3621 N   0  0  0  0  0  0  0  0  0  0  0  0
   44.5390   13.6671    0.4470 S   0  0  0  0  0  0  0  0  0  0  0  0
   43.9150   17.0937    2.2342 O   0  0  0  0  0  0  0  0  0  0  0  0
   43.6178   16.4753    0.0933 O   0  0  0  0  0  0  0  0  0  0  0  0
   46.0446   15.5047    3.4886 O   0  0  0  0  0  0  0  0  0  0  0  0
   46.7922   17.0277    5.4731 O   0  0  0  0  0  0  0  0  0  0  0  0
   48.7749   17.5768    4.4978 O   0  0  0  0  0  0  0  0  0  0  0  0
   47.4100   12.5922    3.6232 Br  0  0  0  0  0  0  0  0  0  0  0  0
   49.4910   11.4606   -3.1093 H   0  0  0  0  0  0  0  0  0  0  0  0
   50.4262    9.9394   -3.1394 H   0  0  0  0  0  0  0  0  0  0  0  0
   50.9069   11.2584   -2.0368 H   0  0  0  0  0  0  0  0  0  0  0  0
   46.3883    7.6568   -0.5128 H   0  0  0  0  0  0  0  0  0  0  0  0
   44.1185    8.6524   -0.5393 H   0  0  0  0  0  0  0  0  0  0  0  0
   43.7434   10.9310    0.3118 H   0  0  0  0  0  0  0  0  0  0  0  0
   48.2484   10.5316   -1.4447 H   0  0  0  0  0  0  0  0  0  0  0  0
   47.9483   11.2766    1.1873 H   0  0  0  0  0  0  0  0  0  0  0  0
   48.1092   15.4683    3.0864 H   0  0  0  0  0  0  0  0  0  0  0  0
   47.2218   16.8512    2.3956 H   0  0  0  0  0  0  0  0  0  0  0  0
   50.0757    8.0367    1.6339 H   0  0  0  0  0  0  0  0  0  0  0  0
   49.8591    5.9778    0.8934 H   0  0  0  0  0  0  0  0  0  0  0  0
   48.3680    6.3443    0.0313 H   0  0  0  0  0  0  0  0  0  0  0  0
   48.1168    4.5141    1.7260 H   0  0  0  0  0  0  0  0  0  0  0  0
   47.0243    5.8743    1.9906 H   0  0  0  0  0  0  0  0  0  0  0  0
   49.5633    5.2025    3.5295 H   0  0  0  0  0  0  0  0  0  0  0  0
   47.9067    5.2318    4.1317 H   0  0  0  0  0  0  0  0  0  0  0  0
   49.8402    7.3642    4.0607 H   0  0  0  0  0  0  0  0  0  0  0  0
   48.2331    7.3618    4.7861 H   0  0  0  0  0  0  0  0  0  0  0  0
   47.2124    8.0434    2.6724 H   0  0  0  0  0  0  0  0  0  0  0  0
   48.4958    9.1773    3.1093 H   0  0  0  0  0  0  0  0  0  0  0  0
  1  7  1  0  0  0  0
  1 32  1  0  0  0  0
  1 33  1  0  0  0  0
  1 34  1  0  0  0  0
  2  7  1  0  0  0  0
  2  9  2  0  0  0  0
  2 24  1  0  0  0  0
  3  4  2  0  0  0  0
  3 10  1  0  0  0  0
  3 24  1  0  0  0  0
  4  5  1  0  0  0  0
  4 35  1  0  0  0  0
  5  6  2  0  0  0  0
  5 36  1  0  0  0  0
  6  8  1  0  0  0  0
  6 37  1  0  0  0  0
  7 38  1  0  0  0  0
  8 10  2  0  0  0  0
  8 11  1  0  0  0  0
 10 39  1  0  0  0  0
 11 12  2  0  0  0  0
 11 25  1  0  0  0  0
 12 13  1  0  0  0  0
 12 31  1  0  0  0  0
 13 14  2  0  0  0  0
 13 28  1  0  0  0  0
 14 15  1  0  0  0  0
 14 25  1  0  0  0  0
 15 26  2  0  0  0  0
 15 27  1  0  0  0  0
 16 17  1  0  0  0  0
 16 28  1  0  0  0  0
 16 40  1  0  0  0  0
 16 41  1  0  0  0  0
 17 29  2  0  0  0  0
 17 30  1  0  0  0  0
 18 19  1  0  0  0  0
 18 23  1  0  0  0  0
 18 24  1  0  0  0  0
 18 42  1  0  0  0  0
 19 20  1  0  0  0  0
 19 43  1  0  0  0  0
 19 44  1  0  0  0  0
 20 21  1  0  0  0  0
 20 45  1  0  0  0  0
 20 46  1  0  0  0  0
 21 22  1  0  0  0  0
 21 47  1  0  0  0  0
 21 48  1  0  0  0  0
 22 23  1  0  0  0  0
 22 49  1  0  0  0  0
 22 50  1  0  0  0  0
 23 51  1  0  0  0  0
 23 52  1  0  0  0  0
M  END
$$$$
