364
 OpenBabel04051917433D

 45 47  0  0  0  0  0  0  0  0999 V2000
   35.3429   53.0964   10.5875 C   0  0  0  0  0  0  0  0  0  0  0  0
   36.1446   53.5433   11.6008 C   0  0  0  0  0  0  0  0  0  0  0  0
   36.4962   52.6880   12.6413 C   0  0  0  0  0  0  0  0  0  0  0  0
   36.0239   51.3773   12.6688 C   0  0  0  0  0  0  0  0  0  0  0  0
   35.2242   50.9157   11.6505 C   0  0  0  0  0  0  0  0  0  0  0  0
   34.8855   51.7624   10.5970 C   0  0  0  0  0  0  0  0  0  0  0  0
   34.0870   51.2697    9.4887 C   0  0  0  0  0  0  0  0  0  0  0  0
   33.0221   50.4191    9.7166 C   0  0  0  0  0  0  0  0  0  0  0  0
   34.3994   51.6534    8.1827 C   0  0  0  0  0  0  0  0  0  0  0  0
   33.6719   51.1898    7.1165 C   0  0  0  0  0  0  0  0  0  0  0  0
   32.5953   50.3289    7.3501 C   0  0  0  0  0  0  0  0  0  0  0  0
   32.2691   49.9424    8.6533 C   0  0  0  0  0  0  0  0  0  0  0  0
   31.1559   49.0573    8.8987 C   0  0  0  0  0  0  0  0  0  0  0  0
   30.8928   47.9859    8.0488 C   0  0  0  0  0  0  0  0  0  0  0  0
   30.3491   49.2722   10.0157 C   0  0  0  0  0  0  0  0  0  0  0  0
   29.2991   48.4052   10.2520 C   0  0  0  0  0  0  0  0  0  0  0  0
   29.0634   47.3411    9.3590 C   0  0  0  0  0  0  0  0  0  0  0  0
   29.8624   47.1417    8.2925 N   0  3  0  0  0  0  0  0  0  0  0  0
   29.6298   45.9244    7.3929 C   0  0  0  0  0  0  0  0  0  0  0  0
   29.2227   46.2453    5.9663 C   0  0  0  0  0  0  0  0  0  0  0  0
   29.3195   44.5158    5.0004 P   0  0  0  0  0  0  0  0  0  0  0  0
   29.0965   44.8134    3.5233 O   0  0  0  0  0  0  0  0  0  0  0  0
   30.7889   44.0486    5.3127 O   0  0  0  0  0  0  0  0  0  0  0  0
   28.3305   43.5700    5.6989 O   0  0  0  0  0  0  0  0  0  0  0  0
   27.4740   47.0874    5.9662 P   0  0  0  0  0  0  0  0  0  0  0  0
   26.4767   46.1152    6.5863 O   0  0  0  0  0  0  0  0  0  0  0  0
   27.7248   48.3047    6.9780 O   0  0  0  0  0  0  0  0  0  0  0  0
   27.2142   47.6148    4.5690 O   0  0  0  0  0  0  0  0  0  0  0  0
   30.2575   47.1288    5.3747 O   0  0  0  0  0  0  0  0  0  0  0  0
   35.0522   53.7525    9.7725 H   0  0  0  0  0  0  0  0  0  0  0  0
   36.5080   54.5656   11.5726 H   0  0  0  0  0  0  0  0  0  0  0  0
   37.1376   53.0450   13.4391 H   0  0  0  0  0  0  0  0  0  0  0  0
   36.2943   50.7061   13.4756 H   0  0  0  0  0  0  0  0  0  0  0  0
   34.8593   49.8898   11.6601 H   0  0  0  0  0  0  0  0  0  0  0  0
   32.7774   50.1218   10.7131 H   0  0  0  0  0  0  0  0  0  0  0  0
   35.2484   52.3233    7.9992 H   0  0  0  0  0  0  0  0  0  0  0  0
   33.9154   51.4789    6.0915 H   0  0  0  0  0  0  0  0  0  0  0  0
   32.0212   49.9718    6.5008 H   0  0  0  0  0  0  0  0  0  0  0  0
   31.5121   47.8116    7.1805 H   0  0  0  0  0  0  0  0  0  0  0  0
   30.5153   50.1108   10.6693 H   0  0  0  0  0  0  0  0  0  0  0  0
   28.6597   48.5650   11.1118 H   0  0  0  0  0  0  0  0  0  0  0  0
   28.2458   46.6639    9.5318 H   0  0  0  0  0  0  0  0  0  0  0  0
   28.9024   45.3025    7.9146 H   0  0  0  0  0  0  0  0  0  0  0  0
   30.6062   45.4173    7.4273 H   0  0  0  0  0  0  0  0  0  0  0  0
   30.0100   47.9900    5.7288 H   0  0  0  0  0  0  0  0  0  0  0  0
  1  2  2  0  0  0  0
  1  6  1  0  0  0  0
  1 30  1  0  0  0  0
  2  3  1  0  0  0  0
  2 31  1  0  0  0  0
  3  4  2  0  0  0  0
  3 32  1  0  0  0  0
  4  5  1  0  0  0  0
  4 33  1  0  0  0  0
  5  6  2  0  0  0  0
  5 34  1  0  0  0  0
  6  7  1  0  0  0  0
  7  8  2  0  0  0  0
  7  9  1  0  0  0  0
  8 12  1  0  0  0  0
  8 35  1  0  0  0  0
  9 10  2  0  0  0  0
  9 36  1  0  0  0  0
 10 11  1  0  0  0  0
 10 37  1  0  0  0  0
 11 12  2  0  0  0  0
 11 38  1  0  0  0  0
 12 13  1  0  0  0  0
 13 14  2  0  0  0  0
 13 15  1  0  0  0  0
 14 18  1  0  0  0  0
 14 39  1  0  0  0  0
 15 16  2  0  0  0  0
 15 40  1  0  0  0  0
 16 17  1  0  0  0  0
 16 41  1  0  0  0  0
 17 18  2  0  0  0  0
 17 42  1  0  0  0  0
 18 19  1  0  0  0  0
 19 20  1  0  0  0  0
 19 43  1  0  0  0  0
 19 44  1  0  0  0  0
 20 21  1  0  0  0  0
 20 25  1  0  0  0  0
 20 29  1  0  0  0  0
 21 22  2  0  0  0  0
 21 23  1  0  0  0  0
 21 24  1  0  0  0  0
 25 26  2  0  0  0  0
 25 27  1  0  0  0  0
 25 28  1  0  0  0  0
 29 45  1  0  0  0  0
M  CHG  1  18   1
M  END
$$$$
