3ES
 OpenBabel04051920343D

 87 91  0  0  1  0  0  0  0  0999 V2000
   -4.2441  -20.8088  -19.6635 C   0  0  0  0  0  0  0  0  0  0  0  0
   -4.8851  -21.2245  -18.4969 C   0  0  0  0  0  0  0  0  0  0  0  0
   -6.0175  -22.0309  -18.5766 C   0  0  0  0  0  0  0  0  0  0  0  0
   -6.5079  -22.4201  -19.8232 C   0  0  0  0  0  0  0  0  0  0  0  0
   -5.8691  -21.9990  -20.9934 C   0  0  0  0  0  0  0  0  0  0  0  0
   -4.7323  -21.1822  -20.9263 C   0  0  0  0  0  0  0  0  0  0  0  0
   -4.0140  -20.7279  -22.1798 C   0  0  0  0  0  0  0  0  0  0  0  0
   -3.7109  -19.3454  -22.0232 O   0  0  0  0  0  0  0  0  0  0  0  0
   -3.1322  -18.7549  -23.0980 C   0  0  0  0  0  0  0  0  0  0  0  0
   -3.1355  -19.2027  -24.2276 O   0  0  0  0  0  0  0  0  0  0  0  0
   -2.6381  -17.5774  -22.6646 N   0  0  0  0  0  0  0  0  0  0  0  0
   -1.7576  -16.6896  -23.4353 C   0  0  1  0  0  0  0  0  0  0  0  0
   -2.0906  -15.2334  -23.0633 C   0  0  0  0  0  0  0  0  0  0  0  0
   -3.5523  -14.8698  -23.2978 C   0  0  0  0  0  0  0  0  0  0  0  0
   -3.9924  -14.4583  -24.5659 C   0  0  0  0  0  0  0  0  0  0  0  0
   -5.3385  -14.1550  -24.7848 C   0  0  0  0  0  0  0  0  0  0  0  0
   -6.2581  -14.2822  -23.7501 C   0  0  0  0  0  0  0  0  0  0  0  0
   -5.8405  -14.7002  -22.4915 C   0  0  0  0  0  0  0  0  0  0  0  0
   -4.4903  -14.9906  -22.2676 C   0  0  0  0  0  0  0  0  0  0  0  0
   -0.0094  -17.1899  -22.9584 P   0  0  2  0  0  0  0  0  0  0  0  0
    0.2640  -18.5750  -23.5113 O   0  0  0  0  0  0  0  0  0  0  0  0
    0.1427  -16.9480  -21.4731 O   0  0  0  0  0  0  0  0  0  0  0  0
    3.1651  -14.6936  -21.1614 N   0  0  0  0  0  0  0  0  0  0  0  0
    3.3150  -13.5590  -20.2321 C   0  0  2  0  0  0  0  0  0  0  0  0
    3.9503  -12.2647  -20.8381 C   0  0  0  0  0  0  0  0  0  0  0  0
    4.5022  -12.3873  -21.9752 O   0  0  0  0  0  0  0  0  0  0  0  0
    3.8913  -11.2346  -20.0979 O   0  0  0  0  0  0  0  0  0  0  0  0
    4.1236  -13.9370  -18.9716 C   0  0  0  0  0  0  0  0  0  0  0  0
    5.2721  -14.9162  -19.1602 C   0  0  0  0  0  0  0  0  0  0  0  0
    6.5819  -14.4712  -19.3795 C   0  0  0  0  0  0  0  0  0  0  0  0
    7.6242  -15.3922  -19.5354 C   0  0  0  0  0  0  0  0  0  0  0  0
    7.3541  -16.7551  -19.4947 C   0  0  0  0  0  0  0  0  0  0  0  0
    8.3900  -17.6299  -19.6607 O   0  0  0  0  0  0  0  0  0  0  0  0
    6.0563  -17.2172  -19.3061 C   0  0  0  0  0  0  0  0  0  0  0  0
    5.0215  -16.2977  -19.1321 C   0  0  0  0  0  0  0  0  0  0  0  0
    1.0385  -16.0420  -23.9161 C   0  0  0  0  0  0  0  0  0  0  0  0
    2.4063  -15.7172  -23.2836 C   0  0  1  0  0  0  0  0  0  0  0  0
    2.1906  -14.7149  -22.1317 C   0  0  0  0  0  0  0  0  0  0  0  0
    1.2709  -13.8934  -22.1614 O   0  0  0  0  0  0  0  0  0  0  0  0
    3.1886  -16.9998  -22.9388 C   0  0  0  0  0  0  0  0  0  0  0  0
    4.6799  -16.8500  -23.0413 C   0  0  0  0  0  0  0  0  0  0  0  0
    5.5411  -15.7913  -23.2012 C   0  0  0  0  0  0  0  0  0  0  0  0
    5.4198  -17.9877  -22.9219 O   0  0  0  0  0  0  0  0  0  0  0  0
    6.7701  -17.6794  -22.9881 N   0  0  0  0  0  0  0  0  0  0  0  0
    6.8468  -16.3419  -23.1232 C   0  0  0  0  0  0  0  0  0  0  0  0
    8.1254  -15.6197  -23.1686 C   0  0  0  0  0  0  0  0  0  0  0  0
    8.1549  -14.2277  -23.3544 C   0  0  0  0  0  0  0  0  0  0  0  0
    9.3668  -13.5317  -23.3904 C   0  0  0  0  0  0  0  0  0  0  0  0
   10.5689  -14.2158  -23.2336 C   0  0  0  0  0  0  0  0  0  0  0  0
   10.5594  -15.5942  -23.0354 C   0  0  0  0  0  0  0  0  0  0  0  0
    9.3466  -16.2918  -23.0041 C   0  0  0  0  0  0  0  0  0  0  0  0
   -3.3600  -20.1750  -19.5917 H   0  0  0  0  0  0  0  0  0  0  0  0
   -4.4967  -20.9112  -17.5315 H   0  0  0  0  0  0  0  0  0  0  0  0
   -6.5160  -22.3532  -17.6671 H   0  0  0  0  0  0  0  0  0  0  0  0
   -7.3913  -23.0487  -19.8845 H   0  0  0  0  0  0  0  0  0  0  0  0
   -6.2663  -22.3053  -21.9578 H   0  0  0  0  0  0  0  0  0  0  0  0
   -4.6362  -20.8983  -23.0665 H   0  0  0  0  0  0  0  0  0  0  0  0
   -3.0767  -21.2869  -22.2701 H   0  0  0  0  0  0  0  0  0  0  0  0
   -2.4893  -17.5346  -21.6663 H   0  0  0  0  0  0  0  0  0  0  0  0
   -1.8831  -16.8795  -24.5067 H   0  0  0  0  0  0  0  0  0  0  0  0
   -1.4690  -14.5371  -23.6334 H   0  0  0  0  0  0  0  0  0  0  0  0
   -1.8444  -15.0498  -22.0090 H   0  0  0  0  0  0  0  0  0  0  0  0
   -3.2775  -14.3672  -25.3777 H   0  0  0  0  0  0  0  0  0  0  0  0
   -5.6574  -13.8365  -25.7715 H   0  0  0  0  0  0  0  0  0  0  0  0
   -7.3101  -14.0604  -23.9300 H   0  0  0  0  0  0  0  0  0  0  0  0
   -6.5557  -14.8130  -21.6843 H   0  0  0  0  0  0  0  0  0  0  0  0
   -4.1753  -15.3331  -21.2826 H   0  0  0  0  0  0  0  0  0  0  0  0
    4.0430  -15.1336  -21.3802 H   0  0  0  0  0  0  0  0  0  0  0  0
    2.3030  -13.2747  -19.9139 H   0  0  0  0  0  0  0  0  0  0  0  0
    3.4336  -14.3930  -18.2486 H   0  0  0  0  0  0  0  0  0  0  0  0
    4.5101  -13.0477  -18.4575 H   0  0  0  0  0  0  0  0  0  0  0  0
    6.7918  -13.4053  -19.4439 H   0  0  0  0  0  0  0  0  0  0  0  0
    8.6355  -15.0436  -19.7198 H   0  0  0  0  0  0  0  0  0  0  0  0
    7.9915  -18.4968  -19.8483 H   0  0  0  0  0  0  0  0  0  0  0  0
    5.8237  -18.2759  -19.3084 H   0  0  0  0  0  0  0  0  0  0  0  0
    4.0008  -16.6581  -19.0055 H   0  0  0  0  0  0  0  0  0  0  0  0
    0.4943  -15.1155  -24.1112 H   0  0  0  0  0  0  0  0  0  0  0  0
    1.1965  -16.4970  -24.9019 H   0  0  0  0  0  0  0  0  0  0  0  0
    2.9604  -15.1526  -24.0471 H   0  0  0  0  0  0  0  0  0  0  0  0
    2.9124  -17.7993  -23.6373 H   0  0  0  0  0  0  0  0  0  0  0  0
    2.9391  -17.3484  -21.9303 H   0  0  0  0  0  0  0  0  0  0  0  0
    5.2651  -14.7493  -23.2966 H   0  0  0  0  0  0  0  0  0  0  0  0
    7.2344  -13.6537  -23.4541 H   0  0  0  0  0  0  0  0  0  0  0  0
    9.3569  -12.4537  -23.5279 H   0  0  0  0  0  0  0  0  0  0  0  0
   11.5082  -13.6702  -23.2511 H   0  0  0  0  0  0  0  0  0  0  0  0
   11.4926  -16.1305  -22.8924 H   0  0  0  0  0  0  0  0  0  0  0  0
    9.3591  -17.3648  -22.8279 H   0  0  0  0  0  0  0  0  0  0  0  0
  1  2  2  0  0  0  0
  1  6  1  0  0  0  0
  1 52  1  0  0  0  0
  2  3  1  0  0  0  0
  2 53  1  0  0  0  0
  3  4  2  0  0  0  0
  3 54  1  0  0  0  0
  4  5  1  0  0  0  0
  4 55  1  0  0  0  0
  5  6  2  0  0  0  0
  5 56  1  0  0  0  0
  6  7  1  0  0  0  0
  7  8  1  0  0  0  0
  7 57  1  0  0  0  0
  7 58  1  0  0  0  0
  8  9  1  0  0  0  0
  9 10  2  0  0  0  0
  9 11  1  0  0  0  0
 11 12  1  0  0  0  0
 11 59  1  0  0  0  0
 12 13  1  0  0  0  0
 12 20  1  0  0  0  0
 12 60  1  6  0  0  0
 13 14  1  0  0  0  0
 13 61  1  0  0  0  0
 13 62  1  0  0  0  0
 14 15  2  0  0  0  0
 14 19  1  0  0  0  0
 15 16  1  0  0  0  0
 15 63  1  0  0  0  0
 16 17  2  0  0  0  0
 16 64  1  0  0  0  0
 17 18  1  0  0  0  0
 17 65  1  0  0  0  0
 18 19  2  0  0  0  0
 18 66  1  0  0  0  0
 19 67  1  0  0  0  0
 20 21  2  6  0  0  0
 20 22  1  0  0  0  0
 20 36  1  0  0  0  0
 23 24  1  0  0  0  0
 23 38  1  0  0  0  0
 23 68  1  0  0  0  0
 24 25  1  0  0  0  0
 24 28  1  0  0  0  0
 24 69  1  1  0  0  0
 25 26  2  0  0  0  0
 25 27  1  0  0  0  0
 28 29  1  0  0  0  0
 28 70  1  0  0  0  0
 28 71  1  0  0  0  0
 29 30  2  0  0  0  0
 29 35  1  0  0  0  0
 30 31  1  0  0  0  0
 30 72  1  0  0  0  0
 31 32  2  0  0  0  0
 31 73  1  0  0  0  0
 32 33  1  0  0  0  0
 32 34  1  0  0  0  0
 33 74  1  0  0  0  0
 34 35  2  0  0  0  0
 34 75  1  0  0  0  0
 35 76  1  0  0  0  0
 36 37  1  0  0  0  0
 36 77  1  0  0  0  0
 36 78  1  0  0  0  0
 37 38  1  0  0  0  0
 37 40  1  0  0  0  0
 37 79  1  6  0  0  0
 38 39  2  0  0  0  0
 40 41  1  0  0  0  0
 40 80  1  0  0  0  0
 40 81  1  0  0  0  0
 41 42  2  0  0  0  0
 41 43  1  0  0  0  0
 42 45  1  0  0  0  0
 42 82  1  0  0  0  0
 43 44  1  0  0  0  0
 44 45  2  0  0  0  0
 45 46  1  0  0  0  0
 46 47  2  0  0  0  0
 46 51  1  0  0  0  0
 47 48  1  0  0  0  0
 47 83  1  0  0  0  0
 48 49  2  0  0  0  0
 48 84  1  0  0  0  0
 49 50  1  0  0  0  0
 49 85  1  0  0  0  0
 50 51  2  0  0  0  0
 50 86  1  0  0  0  0
 51 87  1  0  0  0  0
M  END
$$$$
