3MG
 OpenBabel04051919093D

 27 27  0  0  1  0  0  0  0  0999 V2000
   -4.6556   22.1856  -14.7966 O   0  0  0  0  0  0  0  0  0  0  0  0
   -6.0157   21.7515  -14.7459 C   0  0  0  0  0  0  0  0  0  0  0  0
   -6.2630   20.7015  -15.8382 C   0  0  1  0  0  0  0  0  0  0  0  0
   -6.2563   19.4041  -15.2142 O   0  0  0  0  0  0  0  0  0  0  0  0
   -7.5987   20.9745  -16.5399 C   0  0  1  0  0  0  0  0  0  0  0  0
   -7.5369   22.2292  -17.2299 O   0  0  0  0  0  0  0  0  0  0  0  0
   -7.8998   19.8495  -17.5312 C   0  0  2  0  0  0  0  0  0  0  0  0
   -9.1772   20.1129  -18.1415 O   0  0  0  0  0  0  0  0  0  0  0  0
   -9.0530   20.2592  -19.5577 C   0  0  0  0  0  0  0  0  0  0  0  0
   -7.8942   18.5101  -16.7875 C   0  0  1  0  0  0  0  0  0  0  0  0
   -8.1433   17.4310  -17.6998 O   0  0  0  0  0  0  0  0  0  0  0  0
   -6.5120   18.3485  -16.1253 C   0  0  2  0  0  0  0  0  0  0  0  0
   -6.4866   17.1305  -15.3924 O   0  0  0  0  0  0  0  0  0  0  0  0
   -4.5596   22.8812  -14.1246 H   0  0  0  0  0  0  0  0  0  0  0  0
   -6.6526   22.6331  -14.8685 H   0  0  0  0  0  0  0  0  0  0  0  0
   -6.1906   21.3285  -13.7509 H   0  0  0  0  0  0  0  0  0  0  0  0
   -5.4444   20.7394  -16.5689 H   0  0  0  0  0  0  0  0  0  0  0  0
   -8.4118   21.0476  -15.8050 H   0  0  0  0  0  0  0  0  0  0  0  0
   -8.4078   22.3440  -17.6484 H   0  0  0  0  0  0  0  0  0  0  0  0
   -7.1255   19.8312  -18.3103 H   0  0  0  0  0  0  0  0  0  0  0  0
  -10.0440   20.4100  -19.9773 H   0  0  0  0  0  0  0  0  0  0  0  0
   -8.6093   19.3589  -19.9987 H   0  0  0  0  0  0  0  0  0  0  0  0
   -8.4326   21.1356  -19.7818 H   0  0  0  0  0  0  0  0  0  0  0  0
   -8.6908   18.4887  -16.0332 H   0  0  0  0  0  0  0  0  0  0  0  0
   -8.1279   16.6233  -17.1497 H   0  0  0  0  0  0  0  0  0  0  0  0
   -5.7226   18.2898  -16.8859 H   0  0  0  0  0  0  0  0  0  0  0  0
   -5.5836   17.0837  -15.0386 H   0  0  0  0  0  0  0  0  0  0  0  0
  1  2  1  0  0  0  0
  1 14  1  0  0  0  0
  2  3  1  0  0  0  0
  2 15  1  0  0  0  0
  2 16  1  0  0  0  0
  3  4  1  0  0  0  0
  3  5  1  0  0  0  0
  3 17  1  6  0  0  0
  4 12  1  0  0  0  0
  5  6  1  0  0  0  0
  5  7  1  0  0  0  0
  5 18  1  1  0  0  0
  6 19  1  0  0  0  0
  7  8  1  0  0  0  0
  7 10  1  0  0  0  0
  7 20  1  6  0  0  0
  8  9  1  0  0  0  0
  9 21  1  0  0  0  0
  9 22  1  0  0  0  0
  9 23  1  0  0  0  0
 10 11  1  0  0  0  0
 10 12  1  0  0  0  0
 10 24  1  1  0  0  0
 11 25  1  0  0  0  0
 12 13  1  0  0  0  0
 12 26  1  6  0  0  0
 13 27  1  0  0  0  0
M  END
$$$$
