3PP
 OpenBabel04051919253D

 13 12  0  0  0  0  0  0  0  0999 V2000
    0.5237   -4.6073    9.2389 C   0  0  0  0  0  0  0  0  0  0  0  0
    1.8111   -5.4136    9.3575 C   0  0  0  0  0  0  0  0  0  0  0  0
    0.3308   -3.4032   10.6622 P   0  0  0  0  0  0  0  0  0  0  0  0
    2.3549   -5.8068    8.0125 C   0  0  0  0  0  0  0  0  0  0  0  0
    2.8978   -6.9685    7.9484 O   0  0  0  0  0  0  0  0  0  0  0  0
    2.2539   -4.9996    7.0494 O   0  0  0  0  0  0  0  0  0  0  0  0
    1.6729   -2.7013   10.7642 O   0  0  0  0  0  0  0  0  0  0  0  0
   -0.8327   -2.5161   10.2138 O   0  0  0  0  0  0  0  0  0  0  0  0
   -0.0063   -4.3193   11.8429 O   0  0  0  0  0  0  0  0  0  0  0  0
   -0.3485   -5.2718    9.2331 H   0  0  0  0  0  0  0  0  0  0  0  0
    0.5029   -4.0183    8.3160 H   0  0  0  0  0  0  0  0  0  0  0  0
    1.6048   -6.3017    9.9833 H   0  0  0  0  0  0  0  0  0  0  0  0
    2.5584   -4.8155    9.8833 H   0  0  0  0  0  0  0  0  0  0  0  0
  1  2  1  0  0  0  0
  1  3  1  0  0  0  0
  1 10  1  0  0  0  0
  1 11  1  0  0  0  0
  2  4  1  0  0  0  0
  2 12  1  0  0  0  0
  2 13  1  0  0  0  0
  3  7  2  0  0  0  0
  3  8  1  0  0  0  0
  3  9  1  0  0  0  0
  4  5  2  0  0  0  0
  4  6  1  0  0  0  0
M  END
$$$$
