3TL
 OpenBabel04051918433D

130133  0  0  1  0  0  0  0  0999 V2000
   19.1137    1.4813    2.5625 N   0  0  0  0  0  0  0  0  0  0  0  0
   18.9699    1.3860    1.1050 C   0  0  2  0  0  0  0  0  0  0  0  0
   17.7687    2.3784    5.5250 N   0  0  0  0  0  0  0  0  0  0  0  0
   19.9247    0.3148    0.5537 C   0  0  1  0  0  0  0  0  0  0  0  0
   19.2968    2.7232    0.4108 C   0  0  0  0  0  0  0  0  0  0  0  0
   18.4996    3.8727    0.9569 C   0  0  0  0  0  0  0  0  0  0  0  0
   19.0793    4.7470    1.8808 C   0  0  0  0  0  0  0  0  0  0  0  0
   21.2804    0.6512    0.9347 O   0  0  0  0  0  0  0  0  0  0  0  0
   18.3336    5.7989    2.3998 C   0  0  0  0  0  0  0  0  0  0  0  0
   16.9944    5.9517    2.0447 C   0  0  0  0  0  0  0  0  0  0  0  0
   16.9294    0.9646    3.0565 O   0  0  0  0  0  0  0  0  0  0  0  0
   16.4087    5.0739    1.1362 C   0  0  0  0  0  0  0  0  0  0  0  0
   17.1617    4.0405    0.5850 C   0  0  0  0  0  0  0  0  0  0  0  0
   18.4645    1.2515    4.9182 C   0  0  2  0  0  0  0  0  0  0  0  0
   18.0753    1.2176    3.4286 C   0  0  0  0  0  0  0  0  0  0  0  0
   18.0833   -0.0696    5.6170 C   0  0  0  0  0  0  0  0  0  0  0  0
   13.3868    6.4489   11.4249 C   0  0  0  0  0  0  0  0  0  0  0  0
   12.4496    7.4446   11.1269 C   0  0  0  0  0  0  0  0  0  0  0  0
   17.6474    4.8554    8.1471 N   0  0  0  0  0  0  0  0  0  0  0  0
   12.7155    8.3776   10.1284 C   0  0  0  0  0  0  0  0  0  0  0  0
   13.9239    8.3259    9.4386 C   0  0  0  0  0  0  0  0  0  0  0  0
   14.8641    7.3418    9.7455 C   0  0  0  0  0  0  0  0  0  0  0  0
   19.5946    3.1726    6.6661 O   0  0  0  0  0  0  0  0  0  0  0  0
   17.5515    4.4855    6.7379 C   0  0  2  0  0  0  0  0  0  0  0  0
   18.4116    3.2771    6.3522 C   0  0  0  0  0  0  0  0  0  0  0  0
   17.9492    5.6456    5.8421 C   0  0  0  0  0  0  0  0  0  0  0  0
   14.5178   -4.2858   -7.2926 O   0  0  0  0  0  0  0  0  0  0  0  0
   15.6842   -4.4276   -7.6341 C   0  0  0  0  0  0  0  0  0  0  0  0
   16.1044   -4.9663   -8.8036 O   0  0  0  0  0  0  0  0  0  0  0  0
   15.0867   -5.3746   -9.7523 C   0  0  0  0  0  0  0  0  0  0  0  0
   14.2076   -6.5528   -9.3655 C   0  0  0  0  0  0  0  0  0  0  0  0
   13.0662   -6.8574  -10.1306 C   0  0  0  0  0  0  0  0  0  0  0  0
   12.2174   -7.9098   -9.7662 C   0  0  0  0  0  0  0  0  0  0  0  0
   12.5077   -8.6741   -8.6386 C   0  0  0  0  0  0  0  0  0  0  0  0
   13.6486   -8.3996   -7.8884 C   0  0  0  0  0  0  0  0  0  0  0  0
   14.4998   -7.3583   -8.2596 C   0  0  0  0  0  0  0  0  0  0  0  0
   16.7498   -4.1301   -6.8285 N   0  0  0  0  0  0  0  0  0  0  0  0
   16.6897   -4.2140   -5.3745 C   0  0  1  0  0  0  0  0  0  0  0  0
   17.1003   -5.6115   -4.9214 C   0  0  0  0  0  0  0  0  0  0  0  0
   17.6697   -3.2043   -4.7552 C   0  0  0  0  0  0  0  0  0  0  0  0
   18.8594   -3.1599   -5.0746 O   0  0  0  0  0  0  0  0  0  0  0  0
   17.1106   -2.3473   -3.8342 N   0  0  0  0  0  0  0  0  0  0  0  0
   17.8314   -1.2128   -3.2676 C   0  0  1  0  0  0  0  0  0  0  0  0
   17.4146    0.1098   -3.9475 C   0  0  0  0  0  0  0  0  0  0  0  0
   17.6838    0.0630   -5.4524 C   0  0  0  0  0  0  0  0  0  0  0  0
   18.1587    1.3064   -3.3461 C   0  0  0  0  0  0  0  0  0  0  0  0
   17.4977   -1.1793   -1.7696 C   0  0  0  0  0  0  0  0  0  0  0  0
   16.4337   -0.7205   -1.3262 O   0  0  0  0  0  0  0  0  0  0  0  0
   18.4668   -1.7431   -0.9784 N   0  0  0  0  0  0  0  0  0  0  0  0
   18.4010   -1.7947    0.4804 C   0  0  1  0  0  0  0  0  0  0  0  0
   18.4238   -3.2557    0.9840 C   0  0  0  0  0  0  0  0  0  0  0  0
   17.3060   -4.1087    0.4745 C   0  0  0  0  0  0  0  0  0  0  0  0
   17.3719   -4.6959   -0.7896 C   0  0  0  0  0  0  0  0  0  0  0  0
   16.3228   -5.4992   -1.2286 C   0  0  0  0  0  0  0  0  0  0  0  0
   15.2124   -5.7227   -0.4246 C   0  0  0  0  0  0  0  0  0  0  0  0
   15.1512   -5.1485    0.8401 C   0  0  0  0  0  0  0  0  0  0  0  0
   16.1910   -4.3399    1.2894 C   0  0  0  0  0  0  0  0  0  0  0  0
   19.6576   -1.1076    1.0559 C   0  0  1  0  0  0  0  0  0  0  0  0
   20.8085   -1.8963    0.6595 O   0  0  0  0  0  0  0  0  0  0  0  0
   18.6136   -0.0904    7.0512 C   0  0  0  0  0  0  0  0  0  0  0  0
   18.6407   -1.2901    4.8827 C   0  0  0  0  0  0  0  0  0  0  0  0
   16.5754    4.6682    8.9767 C   0  0  0  0  0  0  0  0  0  0  0  0
   15.5492    4.0725    8.6546 O   0  0  0  0  0  0  0  0  0  0  0  0
   16.7672    5.2542   10.1925 O   0  0  0  0  0  0  0  0  0  0  0  0
   15.6090    5.2815   11.0568 C   0  0  0  0  0  0  0  0  0  0  0  0
   14.6092    6.3770   10.7284 C   0  0  0  0  0  0  0  0  0  0  0  0
   19.9996    1.8273    2.9210 H   0  0  0  0  0  0  0  0  0  0  0  0
   17.9353    1.1125    0.8693 H   0  0  0  0  0  0  0  0  0  0  0  0
   16.7585    2.4128    5.4167 H   0  0  0  0  0  0  0  0  0  0  0  0
   19.9017    0.3339   -0.5421 H   0  0  0  0  0  0  0  0  0  0  0  0
   19.0934    2.6365   -0.6636 H   0  0  0  0  0  0  0  0  0  0  0  0
   20.3659    2.9607    0.4843 H   0  0  0  0  0  0  0  0  0  0  0  0
   20.1065    4.6050    2.2086 H   0  0  0  0  0  0  0  0  0  0  0  0
   21.8508    0.0432    0.4284 H   0  0  0  0  0  0  0  0  0  0  0  0
   18.7902    6.4778    3.1147 H   0  0  0  0  0  0  0  0  0  0  0  0
   16.4043    6.7508    2.4839 H   0  0  0  0  0  0  0  0  0  0  0  0
   15.3650    5.1877    0.8585 H   0  0  0  0  0  0  0  0  0  0  0  0
   16.6964    3.3569   -0.1221 H   0  0  0  0  0  0  0  0  0  0  0  0
   19.5449    1.4097    4.9966 H   0  0  0  0  0  0  0  0  0  0  0  0
   16.9892   -0.1640    5.6485 H   0  0  0  0  0  0  0  0  0  0  0  0
   13.1494    5.7255   12.2039 H   0  0  0  0  0  0  0  0  0  0  0  0
   11.5058    7.4909   11.6696 H   0  0  0  0  0  0  0  0  0  0  0  0
   18.5267    5.2177    8.5144 H   0  0  0  0  0  0  0  0  0  0  0  0
   11.9838    9.1442    9.8826 H   0  0  0  0  0  0  0  0  0  0  0  0
   14.1373    9.0493    8.6575 H   0  0  0  0  0  0  0  0  0  0  0  0
   15.8000    7.3286    9.1922 H   0  0  0  0  0  0  0  0  0  0  0  0
   16.5064    4.2517    6.5111 H   0  0  0  0  0  0  0  0  0  0  0  0
   17.8448    5.3307    4.8067 H   0  0  0  0  0  0  0  0  0  0  0  0
   18.9880    5.9553    5.9976 H   0  0  0  0  0  0  0  0  0  0  0  0
   17.3046    6.5152    6.0011 H   0  0  0  0  0  0  0  0  0  0  0  0
   15.6218   -5.6616  -10.6678 H   0  0  0  0  0  0  0  0  0  0  0  0
   14.4691   -4.5032   -9.9961 H   0  0  0  0  0  0  0  0  0  0  0  0
   12.8150   -6.2685  -11.0119 H   0  0  0  0  0  0  0  0  0  0  0  0
   11.3230   -8.1223  -10.3488 H   0  0  0  0  0  0  0  0  0  0  0  0
   11.8462   -9.4827   -8.3400 H   0  0  0  0  0  0  0  0  0  0  0  0
   13.8759   -8.9875   -7.0032 H   0  0  0  0  0  0  0  0  0  0  0  0
   15.3806   -7.1634   -7.6557 H   0  0  0  0  0  0  0  0  0  0  0  0
   17.6626   -4.0567   -7.2581 H   0  0  0  0  0  0  0  0  0  0  0  0
   15.6691   -4.0092   -5.0291 H   0  0  0  0  0  0  0  0  0  0  0  0
   17.1634   -5.6552   -3.8403 H   0  0  0  0  0  0  0  0  0  0  0  0
   18.0990   -5.8861   -5.2765 H   0  0  0  0  0  0  0  0  0  0  0  0
   16.3921   -6.3723   -5.2624 H   0  0  0  0  0  0  0  0  0  0  0  0
   16.1115   -2.3855   -3.6566 H   0  0  0  0  0  0  0  0  0  0  0  0
   18.9100   -1.3616   -3.3975 H   0  0  0  0  0  0  0  0  0  0  0  0
   16.3394    0.2717   -3.7980 H   0  0  0  0  0  0  0  0  0  0  0  0
   17.4092    1.0101   -5.9251 H   0  0  0  0  0  0  0  0  0  0  0  0
   17.0966   -0.7241   -5.9331 H   0  0  0  0  0  0  0  0  0  0  0  0
   18.7436   -0.1279   -5.6522 H   0  0  0  0  0  0  0  0  0  0  0  0
   17.9813    1.3888   -2.2700 H   0  0  0  0  0  0  0  0  0  0  0  0
   17.8160    2.2414   -3.8018 H   0  0  0  0  0  0  0  0  0  0  0  0
   19.2395    1.2268   -3.5068 H   0  0  0  0  0  0  0  0  0  0  0  0
   19.2772   -2.1681   -1.4109 H   0  0  0  0  0  0  0  0  0  0  0  0
   17.4895   -1.2927    0.8228 H   0  0  0  0  0  0  0  0  0  0  0  0
   18.4093   -3.2511    2.0826 H   0  0  0  0  0  0  0  0  0  0  0  0
   19.3595   -3.7549    0.7067 H   0  0  0  0  0  0  0  0  0  0  0  0
   18.2275   -4.5236   -1.4377 H   0  0  0  0  0  0  0  0  0  0  0  0
   16.3481   -5.9800   -2.1919 H   0  0  0  0  0  0  0  0  0  0  0  0
   14.4034   -6.3448   -0.7915 H   0  0  0  0  0  0  0  0  0  0  0  0
   14.2906   -5.3355    1.4710 H   0  0  0  0  0  0  0  0  0  0  0  0
   16.1391   -3.9170    2.2818 H   0  0  0  0  0  0  0  0  0  0  0  0
   19.6206   -1.1286    2.1489 H   0  0  0  0  0  0  0  0  0  0  0  0
   21.5368   -1.6296    1.2474 H   0  0  0  0  0  0  0  0  0  0  0  0
   18.3639   -1.0364    7.5409 H   0  0  0  0  0  0  0  0  0  0  0  0
   18.1819    0.7167    7.6491 H   0  0  0  0  0  0  0  0  0  0  0  0
   19.7039    0.0201    7.0619 H   0  0  0  0  0  0  0  0  0  0  0  0
   18.2616   -1.3470    3.8603 H   0  0  0  0  0  0  0  0  0  0  0  0
   18.3352   -2.2137    5.3844 H   0  0  0  0  0  0  0  0  0  0  0  0
   19.7353   -1.2639    4.8501 H   0  0  0  0  0  0  0  0  0  0  0  0
   15.9780    5.4594   12.0733 H   0  0  0  0  0  0  0  0  0  0  0  0
   15.1148    4.3013   11.0618 H   0  0  0  0  0  0  0  0  0  0  0  0
  1  2  1  0  0  0  0
  1 15  1  0  0  0  0
  1 67  1  0  0  0  0
  2  4  1  0  0  0  0
  2  5  1  0  0  0  0
  2 68  1  6  0  0  0
  3 14  1  0  0  0  0
  3 25  1  0  0  0  0
  3 69  1  0  0  0  0
  4  8  1  0  0  0  0
  4 58  1  0  0  0  0
  4 70  1  6  0  0  0
  5  6  1  0  0  0  0
  5 71  1  0  0  0  0
  5 72  1  0  0  0  0
  6  7  2  0  0  0  0
  6 13  1  0  0  0  0
  7  9  1  0  0  0  0
  7 73  1  0  0  0  0
  8 74  1  0  0  0  0
  9 10  2  0  0  0  0
  9 75  1  0  0  0  0
 10 12  1  0  0  0  0
 10 76  1  0  0  0  0
 11 15  2  0  0  0  0
 12 13  2  0  0  0  0
 12 77  1  0  0  0  0
 13 78  1  0  0  0  0
 14 15  1  0  0  0  0
 14 16  1  0  0  0  0
 14 79  1  1  0  0  0
 16 60  1  0  0  0  0
 16 61  1  0  0  0  0
 16 80  1  0  0  0  0
 17 18  2  0  0  0  0
 17 66  1  0  0  0  0
 17 81  1  0  0  0  0
 18 20  1  0  0  0  0
 18 82  1  0  0  0  0
 19 24  1  0  0  0  0
 19 62  1  0  0  0  0
 19 83  1  0  0  0  0
 20 21  2  0  0  0  0
 20 84  1  0  0  0  0
 21 22  1  0  0  0  0
 21 85  1  0  0  0  0
 22 66  2  0  0  0  0
 22 86  1  0  0  0  0
 23 25  2  0  0  0  0
 24 25  1  0  0  0  0
 24 26  1  0  0  0  0
 24 87  1  6  0  0  0
 26 88  1  0  0  0  0
 26 89  1  0  0  0  0
 26 90  1  0  0  0  0
 27 28  2  0  0  0  0
 28 29  1  0  0  0  0
 28 37  1  0  0  0  0
 29 30  1  0  0  0  0
 30 31  1  0  0  0  0
 30 91  1  0  0  0  0
 30 92  1  0  0  0  0
 31 32  2  0  0  0  0
 31 36  1  0  0  0  0
 32 33  1  0  0  0  0
 32 93  1  0  0  0  0
 33 34  2  0  0  0  0
 33 94  1  0  0  0  0
 34 35  1  0  0  0  0
 34 95  1  0  0  0  0
 35 36  2  0  0  0  0
 35 96  1  0  0  0  0
 36 97  1  0  0  0  0
 37 38  1  0  0  0  0
 37 98  1  0  0  0  0
 38 39  1  0  0  0  0
 38 40  1  0  0  0  0
 38 99  1  1  0  0  0
 39100  1  0  0  0  0
 39101  1  0  0  0  0
 39102  1  0  0  0  0
 40 41  2  0  0  0  0
 40 42  1  0  0  0  0
 42 43  1  0  0  0  0
 42103  1  0  0  0  0
 43 44  1  0  0  0  0
 43 47  1  0  0  0  0
 43104  1  6  0  0  0
 44 45  1  0  0  0  0
 44 46  1  0  0  0  0
 44105  1  0  0  0  0
 45106  1  0  0  0  0
 45107  1  0  0  0  0
 45108  1  0  0  0  0
 46109  1  0  0  0  0
 46110  1  0  0  0  0
 46111  1  0  0  0  0
 47 48  2  0  0  0  0
 47 49  1  0  0  0  0
 49 50  1  0  0  0  0
 49112  1  0  0  0  0
 50 51  1  0  0  0  0
 50 58  1  0  0  0  0
 50113  1  1  0  0  0
 51 52  1  0  0  0  0
 51114  1  0  0  0  0
 51115  1  0  0  0  0
 52 53  2  0  0  0  0
 52 57  1  0  0  0  0
 53 54  1  0  0  0  0
 53116  1  0  0  0  0
 54 55  2  0  0  0  0
 54117  1  0  0  0  0
 55 56  1  0  0  0  0
 55118  1  0  0  0  0
 56 57  2  0  0  0  0
 56119  1  0  0  0  0
 57120  1  0  0  0  0
 58 59  1  0  0  0  0
 58121  1  1  0  0  0
 59122  1  0  0  0  0
 60123  1  0  0  0  0
 60124  1  0  0  0  0
 60125  1  0  0  0  0
 61126  1  0  0  0  0
 61127  1  0  0  0  0
 61128  1  0  0  0  0
 62 63  2  0  0  0  0
 62 64  1  0  0  0  0
 64 65  1  0  0  0  0
 65 66  1  0  0  0  0
 65129  1  0  0  0  0
 65130  1  0  0  0  0
M  END
$$$$
