439
 OpenBabel04051920383D

 60 64  0  0  1  0  0  0  0  0999 V2000
    7.9932    6.7088   21.5275 O   0  0  0  0  0  0  0  0  0  0  0  0
    6.9106    6.1755   21.7272 C   0  0  0  0  0  0  0  0  0  0  0  0
    6.4087    5.0239   21.1115 N   0  0  0  0  0  0  0  0  0  0  0  0
    7.1679    4.1927   20.2676 C   0  0  0  0  0  0  0  0  0  0  0  0
    7.1556    2.8054   20.4497 C   0  0  0  0  0  0  0  0  0  0  0  0
    7.9495    4.7575   19.2450 C   0  0  0  0  0  0  0  0  0  0  0  0
    8.7038    3.9533   18.3885 C   0  0  0  0  0  0  0  0  0  0  0  0
    8.6942    2.5816   18.5891 C   0  0  0  0  0  0  0  0  0  0  0  0
    7.9468    2.0186   19.6281 C   0  0  0  0  0  0  0  0  0  0  0  0
    8.1080    0.5310   19.6871 C   0  0  0  0  0  0  0  0  0  0  0  0
    9.3008    0.3037   18.7454 C   0  0  0  0  0  0  0  0  0  0  0  0
    9.3875    1.5181   17.7947 C   0  0  1  0  0  0  0  0  0  0  0  0
    8.7626    1.2152   16.4399 N   0  3  0  0  0  0  0  0  0  0  0  0
    9.1631    2.2392   15.4091 C   0  0  0  0  0  0  0  0  0  0  0  0
    7.2700    1.0188   16.4348 C   0  0  0  0  0  0  0  0  0  0  0  0
    5.8817    6.6269   22.7514 C   0  0  2  0  0  0  0  0  0  0  0  0
    4.6058    5.9430   22.2631 C   0  0  0  0  0  0  0  0  0  0  0  0
    5.1061    4.6700   21.6067 C   0  0  0  0  0  0  0  0  0  0  0  0
    5.7228    8.0691   22.7514 N   0  0  0  0  0  0  0  0  0  0  0  0
    6.1632    8.9958   24.0611 S   0  0  0  0  0  0  0  0  0  0  0  0
    6.0283   10.3660   23.6432 O   0  0  0  0  0  0  0  0  0  0  0  0
    5.4186    8.4733   25.1951 O   0  0  0  0  0  0  0  0  0  0  0  0
    7.8825    8.6669   24.3279 C   0  0  0  0  0  0  0  0  0  0  0  0
    8.2960    8.0312   25.5039 C   0  0  0  0  0  0  0  0  0  0  0  0
    9.6625    7.8130   25.7501 C   0  0  0  0  0  0  0  0  0  0  0  0
   10.6148    8.2479   24.7968 C   0  0  0  0  0  0  0  0  0  0  0  0
   10.1760    8.9019   23.6315 C   0  0  0  0  0  0  0  0  0  0  0  0
    8.8174    9.1206   23.4027 C   0  0  0  0  0  0  0  0  0  0  0  0
   10.1032    7.1804   26.9238 C   0  0  0  0  0  0  0  0  0  0  0  0
   11.4659    6.9672   27.1500 C   0  0  0  0  0  0  0  0  0  0  0  0
   12.3962    7.3878   26.2053 C   0  0  0  0  0  0  0  0  0  0  0  0
   14.0734    7.1163   26.4775 Cl  0  0  0  0  0  0  0  0  0  0  0  0
   11.9804    8.0261   25.0375 C   0  0  0  0  0  0  0  0  0  0  0  0
    6.6030    2.3478   21.2644 H   0  0  0  0  0  0  0  0  0  0  0  0
    7.9484    5.8360   19.0897 H   0  0  0  0  0  0  0  0  0  0  0  0
    9.2819    4.4197   17.5964 H   0  0  0  0  0  0  0  0  0  0  0  0
    7.2029    0.0368   19.3202 H   0  0  0  0  0  0  0  0  0  0  0  0
    8.3299    0.1801   20.6986 H   0  0  0  0  0  0  0  0  0  0  0  0
    9.2515   -0.6638   18.2344 H   0  0  0  0  0  0  0  0  0  0  0  0
   10.2148    0.2825   19.3579 H   0  0  0  0  0  0  0  0  0  0  0  0
   10.4412    1.7600   17.6166 H   0  0  0  0  0  0  0  0  0  0  0  0
    8.7907    1.9054   14.4368 H   0  0  0  0  0  0  0  0  0  0  0  0
   10.2533    2.2984   15.3894 H   0  0  0  0  0  0  0  0  0  0  0  0
    8.7180    3.1995   15.6726 H   0  0  0  0  0  0  0  0  0  0  0  0
    7.0251    0.1757   17.0815 H   0  0  0  0  0  0  0  0  0  0  0  0
    6.9652    0.7802   15.4118 H   0  0  0  0  0  0  0  0  0  0  0  0
    6.7820    1.9396   16.7660 H   0  0  0  0  0  0  0  0  0  0  0  0
    6.1691    6.2299   23.7323 H   0  0  0  0  0  0  0  0  0  0  0  0
    4.0847    6.5685   21.5264 H   0  0  0  0  0  0  0  0  0  0  0  0
    3.8989    5.7363   23.0738 H   0  0  0  0  0  0  0  0  0  0  0  0
    5.1810    3.8499   22.3234 H   0  0  0  0  0  0  0  0  0  0  0  0
    4.4573    4.3802   20.7695 H   0  0  0  0  0  0  0  0  0  0  0  0
    5.6002    8.5823   21.8804 H   0  0  0  0  0  0  0  0  0  0  0  0
    7.5565    7.7175   26.2427 H   0  0  0  0  0  0  0  0  0  0  0  0
   10.9009    9.2512   22.8959 H   0  0  0  0  0  0  0  0  0  0  0  0
    8.5034    9.6393   22.4985 H   0  0  0  0  0  0  0  0  0  0  0  0
    9.3898    6.8507   27.6777 H   0  0  0  0  0  0  0  0  0  0  0  0
   11.7915    6.4770   28.0642 H   0  0  0  0  0  0  0  0  0  0  0  0
   12.7239    8.3546   24.3147 H   0  0  0  0  0  0  0  0  0  0  0  0
    9.1765    0.3284   16.1283 H   0  0  0  0  0  0  0  0  0  0  0  0
  1  2  2  0  0  0  0
  2  3  1  0  0  0  0
  2 16  1  0  0  0  0
  3  4  1  0  0  0  0
  3 18  1  0  0  0  0
  4  5  2  0  0  0  0
  4  6  1  0  0  0  0
  5  9  1  0  0  0  0
  5 34  1  0  0  0  0
  6  7  2  0  0  0  0
  6 35  1  0  0  0  0
  7  8  1  0  0  0  0
  7 36  1  0  0  0  0
  8  9  2  0  0  0  0
  8 12  1  0  0  0  0
  9 10  1  0  0  0  0
 10 11  1  0  0  0  0
 10 37  1  0  0  0  0
 10 38  1  0  0  0  0
 11 12  1  0  0  0  0
 11 39  1  0  0  0  0
 11 40  1  0  0  0  0
 12 13  1  0  0  0  0
 12 41  1  6  0  0  0
 13 14  1  0  0  0  0
 13 15  1  0  0  0  0
 13 60  1  0  0  0  0
 14 42  1  0  0  0  0
 14 43  1  0  0  0  0
 14 44  1  0  0  0  0
 15 45  1  0  0  0  0
 15 46  1  0  0  0  0
 15 47  1  0  0  0  0
 16 17  1  0  0  0  0
 16 19  1  0  0  0  0
 16 48  1  1  0  0  0
 17 18  1  0  0  0  0
 17 49  1  0  0  0  0
 17 50  1  0  0  0  0
 18 51  1  0  0  0  0
 18 52  1  0  0  0  0
 19 20  1  0  0  0  0
 19 53  1  0  0  0  0
 20 21  2  0  0  0  0
 20 22  2  0  0  0  0
 20 23  1  0  0  0  0
 23 24  2  0  0  0  0
 23 28  1  0  0  0  0
 24 25  1  0  0  0  0
 24 54  1  0  0  0  0
 25 26  2  0  0  0  0
 25 29  1  0  0  0  0
 26 27  1  0  0  0  0
 26 33  1  0  0  0  0
 27 28  2  0  0  0  0
 27 55  1  0  0  0  0
 28 56  1  0  0  0  0
 29 30  2  0  0  0  0
 29 57  1  0  0  0  0
 30 31  1  0  0  0  0
 30 58  1  0  0  0  0
 31 32  1  0  0  0  0
 31 33  2  0  0  0  0
 33 59  1  0  0  0  0
M  CHG  1  13   1
M  END
$$$$
