455
 OpenBabel04051920193D

 57 60  0  0  1  0  0  0  0  0999 V2000
    9.2643   70.4221    3.5301 S   0  0  0  0  0  0  0  0  0  0  0  0
    9.3746   66.5031    3.2230 C   0  0  1  0  0  0  0  0  0  0  0  0
   10.1761   66.7638    4.4976 C   0  0  1  0  0  0  0  0  0  0  0  0
    9.6587   68.8124    3.3198 N   0  0  0  0  0  0  0  0  0  0  0  0
    8.4492   65.3374    3.4600 C   0  0  0  0  0  0  0  0  0  0  0  0
    6.8351   58.9859    3.4010 N   0  3  0  0  0  0  0  0  0  0  0  0
   11.4742   65.9790    4.4949 C   0  0  0  0  0  0  0  0  0  0  0  0
   10.4024   68.2684    4.4974 C   0  0  0  0  0  0  0  0  0  0  0  0
    8.6222   67.8043    2.9936 C   0  0  0  0  0  0  0  0  0  0  0  0
    5.7935   58.6424    2.5285 C   0  0  0  0  0  0  0  0  0  0  0  0
    7.3327   60.3121    3.3359 C   0  0  0  0  0  0  0  0  0  0  0  0
    9.0402   64.1359    3.1415 N   0  0  0  0  0  0  0  0  0  0  0  0
    8.1418   60.6778    2.2650 C   0  0  0  0  0  0  0  0  0  0  0  0
   12.1679   66.0708    5.6925 N   0  0  0  0  0  0  0  0  0  0  0  0
    8.4032   62.8870    3.2350 C   0  0  0  0  0  0  0  0  0  0  0  0
    8.6954   61.9517    2.2367 C   0  0  0  0  0  0  0  0  0  0  0  0
    8.1215   70.5017    4.4022 O   0  0  0  0  0  0  0  0  0  0  0  0
   10.4877   71.1219    3.8077 O   0  0  0  0  0  0  0  0  0  0  0  0
    7.3574   58.0818    4.3118 C   0  0  0  0  0  0  0  0  0  0  0  0
    7.3249   65.4839    3.9167 O   0  0  0  0  0  0  0  0  0  0  0  0
   11.7843   65.2743    3.5406 O   0  0  0  0  0  0  0  0  0  0  0  0
    5.3290   57.2285    2.5998 C   0  0  0  0  0  0  0  0  0  0  0  0
    5.2502   59.4011    1.7295 O   0  0  0  0  0  0  0  0  0  0  0  0
    7.0159   61.2476    4.3323 C   0  0  0  0  0  0  0  0  0  0  0  0
    7.5338   62.5433    4.2730 C   0  0  0  0  0  0  0  0  0  0  0  0
    6.8565   56.8451    4.4319 C   0  0  0  0  0  0  0  0  0  0  0  0
    5.8224   56.4013    3.5372 C   0  0  0  0  0  0  0  0  0  0  0  0
   13.3073   65.3235    6.0499 C   0  0  0  0  0  0  0  0  0  0  0  0
    8.7691   70.8487    2.0285 N   0  0  0  0  0  0  0  0  0  0  0  0
    9.4710   62.3091    1.2096 F   0  0  0  0  0  0  0  0  0  0  0  0
   15.4650   63.7869    6.9497 C   0  0  0  0  0  0  0  0  0  0  0  0
   16.7188   62.7524    7.5098 Cl  0  0  0  0  0  0  0  0  0  0  0  0
   13.6823   65.3530    7.3980 C   0  0  0  0  0  0  0  0  0  0  0  0
   14.0471   64.5495    5.1534 C   0  0  0  0  0  0  0  0  0  0  0  0
   15.1259   63.7844    5.5995 C   0  0  0  0  0  0  0  0  0  0  0  0
   14.7591   64.5781    7.8502 C   0  0  0  0  0  0  0  0  0  0  0  0
   10.0260   66.3099    2.3590 H   0  0  0  0  0  0  0  0  0  0  0  0
    9.6115   66.4671    5.3947 H   0  0  0  0  0  0  0  0  0  0  0  0
   11.4620   68.5469    4.4170 H   0  0  0  0  0  0  0  0  0  0  0  0
    9.9929   68.6922    5.4224 H   0  0  0  0  0  0  0  0  0  0  0  0
    7.7471   67.8968    3.6396 H   0  0  0  0  0  0  0  0  0  0  0  0
    8.3051   67.8702    1.9469 H   0  0  0  0  0  0  0  0  0  0  0  0
    9.8791   64.1589    2.5593 H   0  0  0  0  0  0  0  0  0  0  0  0
    8.3518   59.9912    1.4540 H   0  0  0  0  0  0  0  0  0  0  0  0
   11.7549   66.6264    6.4334 H   0  0  0  0  0  0  0  0  0  0  0  0
    8.2060   58.4090    4.9117 H   0  0  0  0  0  0  0  0  0  0  0  0
    4.5910   56.9117    1.8739 H   0  0  0  0  0  0  0  0  0  0  0  0
    6.3324   60.9724    5.1352 H   0  0  0  0  0  0  0  0  0  0  0  0
    7.2810   63.2553    5.0541 H   0  0  0  0  0  0  0  0  0  0  0  0
    7.2467   56.1511    5.1689 H   0  0  0  0  0  0  0  0  0  0  0  0
    5.4946   55.3546    3.6024 H   0  0  0  0  0  0  0  0  0  0  0  0
    8.5458   71.8285    1.8789 H   0  0  0  0  0  0  0  0  0  0  0  0
    8.7969   70.1872    1.2660 H   0  0  0  0  0  0  0  0  0  0  0  0
   13.1166   65.9273    8.1242 H   0  0  0  0  0  0  0  0  0  0  0  0
   13.8003   64.5059    4.0958 H   0  0  0  0  0  0  0  0  0  0  0  0
   15.6793   63.1746    4.8918 H   0  0  0  0  0  0  0  0  0  0  0  0
   15.0193   64.5794    8.9071 H   0  0  0  0  0  0  0  0  0  0  0  0
  1  4  1  0  0  0  0
  1 17  2  0  0  0  0
  1 18  2  0  0  0  0
  1 29  1  0  0  0  0
  2  3  1  0  0  0  0
  2  5  1  0  0  0  0
  2  9  1  0  0  0  0
  2 37  1  6  0  0  0
  3  7  1  0  0  0  0
  3  8  1  0  0  0  0
  3 38  1  1  0  0  0
  4  8  1  0  0  0  0
  4  9  1  0  0  0  0
  5 12  1  0  0  0  0
  5 20  2  0  0  0  0
  6 10  1  0  0  0  0
  6 11  1  0  0  0  0
  6 19  1  0  0  0  0
  7 14  1  0  0  0  0
  7 21  2  0  0  0  0
  8 39  1  0  0  0  0
  8 40  1  0  0  0  0
  9 41  1  0  0  0  0
  9 42  1  0  0  0  0
 10 22  1  0  0  0  0
 10 23  2  0  0  0  0
 11 13  2  0  0  0  0
 11 24  1  0  0  0  0
 12 15  1  0  0  0  0
 12 43  1  0  0  0  0
 13 16  1  0  0  0  0
 13 44  1  0  0  0  0
 14 28  1  0  0  0  0
 14 45  1  0  0  0  0
 15 16  2  0  0  0  0
 15 25  1  0  0  0  0
 16 30  1  0  0  0  0
 19 26  2  0  0  0  0
 19 46  1  0  0  0  0
 22 27  2  0  0  0  0
 22 47  1  0  0  0  0
 24 25  2  0  0  0  0
 24 48  1  0  0  0  0
 25 49  1  0  0  0  0
 26 27  1  0  0  0  0
 26 50  1  0  0  0  0
 27 51  1  0  0  0  0
 28 33  2  0  0  0  0
 28 34  1  0  0  0  0
 29 52  1  0  0  0  0
 29 53  1  0  0  0  0
 31 32  1  0  0  0  0
 31 35  1  0  0  0  0
 31 36  2  0  0  0  0
 33 36  1  0  0  0  0
 33 54  1  0  0  0  0
 34 35  2  0  0  0  0
 34 55  1  0  0  0  0
 35 56  1  0  0  0  0
 36 57  1  0  0  0  0
M  CHG  1   6   1
M  END
$$$$
