45U
 OpenBabel04051920523D

 56 58  0  0  1  0  0  0  0  0999 V2000
  -27.0529    1.2137   17.2809 O   0  0  0  0  0  0  0  0  0  0  0  0
  -28.2704    1.2611   17.0128 C   0  0  0  0  0  0  0  0  0  0  0  0
  -29.2384    1.5008   18.1724 C   0  0  0  0  0  0  0  0  0  0  0  0
  -30.3300    0.5777   18.2239 O   0  0  0  0  0  0  0  0  0  0  0  0
  -30.3784   -0.5217   19.1338 C   0  0  0  0  0  0  0  0  0  0  0  0
  -29.0330   -1.2250   19.2338 C   0  0  0  0  0  0  0  0  0  0  0  0
  -29.2726   -2.6949   19.5340 C   0  0  0  0  0  0  0  0  0  0  0  0
  -30.7294   -2.9732   19.2144 C   0  0  0  0  0  0  0  0  0  0  0  0
  -31.2280   -1.6931   18.5314 C   0  0  0  0  0  0  0  0  0  0  0  0
  -28.6673    1.0448   15.7246 N   0  0  0  0  0  0  0  0  0  0  0  0
  -27.6772    0.5638   14.7572 C   0  0  1  0  0  0  0  0  0  0  0  0
  -28.4391    0.4125   13.4439 C   0  0  0  0  0  0  0  0  0  0  0  0
  -29.8105    1.0461   13.6619 C   0  0  0  0  0  0  0  0  0  0  0  0
  -30.0181    1.0782   15.1678 C   0  0  0  0  0  0  0  0  0  0  0  0
  -26.5958    1.6399   14.5751 C   0  0  0  0  0  0  0  0  0  0  0  0
  -26.7814    2.8362   14.7943 O   0  0  0  0  0  0  0  0  0  0  0  0
  -25.4307    1.1647   14.0184 N   0  0  0  0  0  0  0  0  0  0  0  0
  -24.3395    2.0249   13.6192 C   0  0  0  0  0  0  0  0  0  0  0  0
  -23.2262    1.9159   14.6566 C   0  0  0  0  0  0  0  0  0  0  0  0
  -21.9873    1.3692   14.3352 C   0  0  0  0  0  0  0  0  0  0  0  0
  -20.9409    1.1942   15.2993 C   0  0  0  0  0  0  0  0  0  0  0  0
  -21.0545    1.5131   16.6522 C   0  0  0  0  0  0  0  0  0  0  0  0
  -19.9161    1.2916   17.6123 C   0  0  0  0  0  0  0  0  0  0  0  0
  -19.0680    0.3100   17.3325 N   0  0  0  0  0  0  0  0  0  0  0  0
  -19.7222    2.0370   18.7067 N   0  0  0  0  0  0  0  0  0  0  0  0
  -22.3073    1.9989   16.9604 C   0  0  0  0  0  0  0  0  0  0  0  0
  -23.3673    2.1742   16.0028 C   0  0  0  0  0  0  0  0  0  0  0  0
  -29.6557    2.5098   18.0455 H   0  0  0  0  0  0  0  0  0  0  0  0
  -28.6179    1.5176   19.0880 H   0  0  0  0  0  0  0  0  0  0  0  0
  -30.8048   -0.2067   20.1047 H   0  0  0  0  0  0  0  0  0  0  0  0
  -28.4169   -0.7624   20.0048 H   0  0  0  0  0  0  0  0  0  0  0  0
  -28.5228   -1.1314   18.2699 H   0  0  0  0  0  0  0  0  0  0  0  0
  -29.0618   -2.9055   20.5874 H   0  0  0  0  0  0  0  0  0  0  0  0
  -28.6183   -3.3200   18.9152 H   0  0  0  0  0  0  0  0  0  0  0  0
  -31.2782   -3.1779   20.1442 H   0  0  0  0  0  0  0  0  0  0  0  0
  -30.8152   -3.8638   18.5746 H   0  0  0  0  0  0  0  0  0  0  0  0
  -31.0575   -1.7682   17.4444 H   0  0  0  0  0  0  0  0  0  0  0  0
  -32.3083   -1.5745   18.6854 H   0  0  0  0  0  0  0  0  0  0  0  0
  -27.2140   -0.3945   15.0707 H   0  0  0  0  0  0  0  0  0  0  0  0
  -28.5599   -0.6446   13.1910 H   0  0  0  0  0  0  0  0  0  0  0  0
  -27.9221    0.9214   12.6223 H   0  0  0  0  0  0  0  0  0  0  0  0
  -30.5905    0.4641   13.1593 H   0  0  0  0  0  0  0  0  0  0  0  0
  -29.8225    2.0670   13.2572 H   0  0  0  0  0  0  0  0  0  0  0  0
  -30.5712    1.9717   15.4773 H   0  0  0  0  0  0  0  0  0  0  0  0
  -30.5743    0.1938   15.5008 H   0  0  0  0  0  0  0  0  0  0  0  0
  -25.2773    0.1801   14.0726 H   0  0  0  0  0  0  0  0  0  0  0  0
  -24.6722    3.0658   13.4890 H   0  0  0  0  0  0  0  0  0  0  0  0
  -24.0309    1.6719   12.6146 H   0  0  0  0  0  0  0  0  0  0  0  0
  -21.7812    1.0948   13.3133 H   0  0  0  0  0  0  0  0  0  0  0  0
  -20.0096    0.8069   14.9198 H   0  0  0  0  0  0  0  0  0  0  0  0
  -18.2663    0.0702   17.9013 H   0  0  0  0  0  0  0  0  0  0  0  0
  -20.3620    2.7939   18.9139 H   0  0  0  0  0  0  0  0  0  0  0  0
  -18.9806    1.9124   19.3330 H   0  0  0  0  0  0  0  0  0  0  0  0
  -22.5156    2.2594   17.9879 H   0  0  0  0  0  0  0  0  0  0  0  0
  -24.3147    2.5621   16.3691 H   0  0  0  0  0  0  0  0  0  0  0  0
  -19.2293   -0.2641   16.5021 H   0  0  0  0  0  0  0  0  0  0  0  0
  1  2  2  0  0  0  0
  2  3  1  0  0  0  0
  2 10  1  0  0  0  0
  3  4  1  0  0  0  0
  3 28  1  0  0  0  0
  3 29  1  0  0  0  0
  4  5  1  0  0  0  0
  5  6  1  0  0  0  0
  5  9  1  0  0  0  0
  5 30  1  0  0  0  0
  6  7  1  0  0  0  0
  6 31  1  0  0  0  0
  6 32  1  0  0  0  0
  7  8  1  0  0  0  0
  7 33  1  0  0  0  0
  7 34  1  0  0  0  0
  8  9  1  0  0  0  0
  8 35  1  0  0  0  0
  8 36  1  0  0  0  0
  9 37  1  0  0  0  0
  9 38  1  0  0  0  0
 10 11  1  0  0  0  0
 10 14  1  0  0  0  0
 11 12  1  0  0  0  0
 11 15  1  0  0  0  0
 11 39  1  1  0  0  0
 12 13  1  0  0  0  0
 12 40  1  0  0  0  0
 12 41  1  0  0  0  0
 13 14  1  0  0  0  0
 13 42  1  0  0  0  0
 13 43  1  0  0  0  0
 14 44  1  0  0  0  0
 14 45  1  0  0  0  0
 15 16  2  0  0  0  0
 15 17  1  0  0  0  0
 17 18  1  0  0  0  0
 17 46  1  0  0  0  0
 18 19  1  0  0  0  0
 18 47  1  0  0  0  0
 18 48  1  0  0  0  0
 19 20  2  0  0  0  0
 19 27  1  0  0  0  0
 20 21  1  0  0  0  0
 20 49  1  0  0  0  0
 21 22  2  0  0  0  0
 21 50  1  0  0  0  0
 22 23  1  0  0  0  0
 22 26  1  0  0  0  0
 23 24  2  0  0  0  0
 23 25  1  0  0  0  0
 24 51  1  0  0  0  0
 24 56  1  0  0  0  0
 25 52  1  0  0  0  0
 25 53  1  0  0  0  0
 26 27  2  0  0  0  0
 26 54  1  0  0  0  0
 27 55  1  0  0  0  0
M  END
$$$$
