461
 OpenBabel04051920093D

 54 56  0  0  1  0  0  0  0  0999 V2000
   13.8208    7.4365   26.1746 Cl  0  0  0  0  0  0  0  0  0  0  0  0
   12.1107    7.5903   26.3180 C   0  0  0  0  0  0  0  0  0  0  0  0
   11.3594    7.1130   27.3535 C   0  0  0  0  0  0  0  0  0  0  0  0
    9.9807    7.4050   27.1499 C   0  0  0  0  0  0  0  0  0  0  0  0
   11.2046    8.3762   25.1259 S   0  0  0  0  0  0  0  0  0  0  0  0
    9.7234    8.0934   25.9677 C   0  0  0  0  0  0  0  0  0  0  0  0
    8.4343    8.5359   25.5439 C   0  0  0  0  0  0  0  0  0  0  0  0
    8.1050    8.9809   24.3179 C   0  0  0  0  0  0  0  0  0  0  0  0
    6.4421    9.4485   24.0508 S   0  0  0  0  0  0  0  0  0  0  0  0
    6.4008   10.7299   23.3665 O   0  0  0  0  0  0  0  0  0  0  0  0
    5.6708    9.2382   25.2525 O   0  0  0  0  0  0  0  0  0  0  0  0
    5.7979    8.3766   22.9561 N   0  0  0  0  0  0  0  0  0  0  0  0
    5.9601    6.9547   23.1579 C   0  0  1  0  0  0  0  0  0  0  0  0
    4.6495    6.2107   22.9259 C   0  0  0  0  0  0  0  0  0  0  0  0
    4.9680    5.0695   21.9674 C   0  0  0  0  0  0  0  0  0  0  0  0
    6.9105    6.4197   22.1066 C   0  0  0  0  0  0  0  0  0  0  0  0
    8.0160    6.8733   21.8608 O   0  0  0  0  0  0  0  0  0  0  0  0
    6.3119    5.3092   21.5207 N   0  0  0  0  0  0  0  0  0  0  0  0
    6.9746    4.5467   20.5483 C   0  0  0  0  0  0  0  0  0  0  0  0
    7.5597    5.1801   19.4494 C   0  0  0  0  0  0  0  0  0  0  0  0
    7.3910    6.4948   19.2499 F   0  0  0  0  0  0  0  0  0  0  0  0
    7.1338    3.1713   20.7097 C   0  0  0  0  0  0  0  0  0  0  0  0
    7.8705    2.4495   19.7668 C   0  0  0  0  0  0  0  0  0  0  0  0
    8.4365    3.0868   18.6478 C   0  0  0  0  0  0  0  0  0  0  0  0
    8.2616    4.4651   18.4965 C   0  0  0  0  0  0  0  0  0  0  0  0
    9.1676    2.3426   17.5591 C   0  0  1  0  0  0  0  0  0  0  0  0
   10.0476    1.1961   18.0588 C   0  0  0  0  0  0  0  0  0  0  0  0
    8.2298    1.8348   16.4724 N   0  3  0  0  0  0  0  0  0  0  0  0
    7.1902    0.8558   16.9371 C   0  0  0  0  0  0  0  0  0  0  0  0
    7.6020    2.9346   15.6567 C   0  0  0  0  0  0  0  0  0  0  0  0
   11.7566    6.5891   28.2121 H   0  0  0  0  0  0  0  0  0  0  0  0
    9.2086    7.1245   27.8504 H   0  0  0  0  0  0  0  0  0  0  0  0
    7.6527    8.4839   26.3001 H   0  0  0  0  0  0  0  0  0  0  0  0
    8.7905    9.0448   23.4842 H   0  0  0  0  0  0  0  0  0  0  0  0
    5.3865    8.7689   22.1128 H   0  0  0  0  0  0  0  0  0  0  0  0
    6.3511    6.7248   24.1523 H   0  0  0  0  0  0  0  0  0  0  0  0
    3.8752    6.8703   22.5143 H   0  0  0  0  0  0  0  0  0  0  0  0
    4.2560    5.8166   23.8718 H   0  0  0  0  0  0  0  0  0  0  0  0
    4.2797    5.0924   21.1123 H   0  0  0  0  0  0  0  0  0  0  0  0
    4.8945    4.0958   22.4570 H   0  0  0  0  0  0  0  0  0  0  0  0
    6.7515    2.6671   21.5945 H   0  0  0  0  0  0  0  0  0  0  0  0
    7.9849    1.3774   19.9142 H   0  0  0  0  0  0  0  0  0  0  0  0
    8.6603    4.9995   17.6379 H   0  0  0  0  0  0  0  0  0  0  0  0
    9.8479    3.0429   17.0552 H   0  0  0  0  0  0  0  0  0  0  0  0
   10.7451    1.5565   18.8231 H   0  0  0  0  0  0  0  0  0  0  0  0
   10.6376    0.7701   17.2402 H   0  0  0  0  0  0  0  0  0  0  0  0
    9.4647    0.3867   18.5059 H   0  0  0  0  0  0  0  0  0  0  0  0
    6.5703    0.5955   16.0779 H   0  0  0  0  0  0  0  0  0  0  0  0
    6.5745    1.3089   17.7175 H   0  0  0  0  0  0  0  0  0  0  0  0
    7.7027   -0.0352   17.3013 H   0  0  0  0  0  0  0  0  0  0  0  0
    8.3867    3.6328   15.3559 H   0  0  0  0  0  0  0  0  0  0  0  0
    6.8282    3.4330   16.2476 H   0  0  0  0  0  0  0  0  0  0  0  0
    7.1623    2.4681   14.7721 H   0  0  0  0  0  0  0  0  0  0  0  0
    8.8324    1.3249   15.8191 H   0  0  0  0  0  0  0  0  0  0  0  0
  1  2  1  0  0  0  0
  2  3  2  0  0  0  0
  2  5  1  0  0  0  0
  3  4  1  0  0  0  0
  3 31  1  0  0  0  0
  4  6  2  0  0  0  0
  4 32  1  0  0  0  0
  5  6  1  0  0  0  0
  6  7  1  0  0  0  0
  7  8  2  0  0  0  0
  7 33  1  0  0  0  0
  8  9  1  0  0  0  0
  8 34  1  0  0  0  0
  9 10  2  0  0  0  0
  9 11  2  0  0  0  0
  9 12  1  0  0  0  0
 12 13  1  0  0  0  0
 12 35  1  0  0  0  0
 13 14  1  0  0  0  0
 13 16  1  0  0  0  0
 13 36  1  1  0  0  0
 14 15  1  0  0  0  0
 14 37  1  0  0  0  0
 14 38  1  0  0  0  0
 15 18  1  0  0  0  0
 15 39  1  0  0  0  0
 15 40  1  0  0  0  0
 16 17  2  0  0  0  0
 16 18  1  0  0  0  0
 18 19  1  0  0  0  0
 19 20  2  0  0  0  0
 19 22  1  0  0  0  0
 20 21  1  0  0  0  0
 20 25  1  0  0  0  0
 22 23  2  0  0  0  0
 22 41  1  0  0  0  0
 23 24  1  0  0  0  0
 23 42  1  0  0  0  0
 24 25  2  0  0  0  0
 24 26  1  0  0  0  0
 25 43  1  0  0  0  0
 26 27  1  0  0  0  0
 26 28  1  0  0  0  0
 26 44  1  6  0  0  0
 27 45  1  0  0  0  0
 27 46  1  0  0  0  0
 27 47  1  0  0  0  0
 28 29  1  0  0  0  0
 28 30  1  0  0  0  0
 28 54  1  0  0  0  0
 29 48  1  0  0  0  0
 29 49  1  0  0  0  0
 29 50  1  0  0  0  0
 30 51  1  0  0  0  0
 30 52  1  0  0  0  0
 30 53  1  0  0  0  0
M  CHG  1  28   1
M  END
$$$$
