46U
 OpenBabel04051920523D

 59 61  0  0  1  0  0  0  0  0999 V2000
  -26.6101    0.9342   17.2298 O   0  0  0  0  0  0  0  0  0  0  0  0
  -27.7712    1.1300   16.8539 C   0  0  0  0  0  0  0  0  0  0  0  0
  -28.8350    1.6114   17.8567 C   0  0  0  0  0  0  0  0  0  0  0  0
  -29.7884    0.7260   18.3991 O   0  0  0  0  0  0  0  0  0  0  0  0
  -29.3694   -0.6097   18.6788 C   0  0  0  0  0  0  0  0  0  0  0  0
  -30.6692   -1.4211   18.6777 C   0  0  0  0  0  0  0  0  0  0  0  0
  -30.4368   -2.8873   18.9996 C   0  0  0  0  0  0  0  0  0  0  0  0
  -29.7555   -3.0299   20.3540 C   0  0  0  0  0  0  0  0  0  0  0  0
  -28.4432   -2.2474   20.3881 C   0  0  0  0  0  0  0  0  0  0  0  0
  -28.6531   -0.7670   20.0294 C   0  0  0  0  0  0  0  0  0  0  0  0
  -28.1333    0.9392   15.5330 N   0  0  0  0  0  0  0  0  0  0  0  0
  -27.1164    0.5071   14.5821 C   0  0  1  0  0  0  0  0  0  0  0  0
  -27.8538    0.2408   13.2690 C   0  0  0  0  0  0  0  0  0  0  0  0
  -29.2432    0.8445   13.4594 C   0  0  0  0  0  0  0  0  0  0  0  0
  -29.4652    0.8685   14.9665 C   0  0  0  0  0  0  0  0  0  0  0  0
  -26.0299    1.5794   14.3683 C   0  0  0  0  0  0  0  0  0  0  0  0
  -26.2449    2.7903   14.4847 O   0  0  0  0  0  0  0  0  0  0  0  0
  -24.8181    1.0739   13.9531 N   0  0  0  0  0  0  0  0  0  0  0  0
  -23.6946    1.9505   13.6856 C   0  0  0  0  0  0  0  0  0  0  0  0
  -22.5697    1.7280   14.6723 C   0  0  0  0  0  0  0  0  0  0  0  0
  -21.3390    1.2399   14.2365 C   0  0  0  0  0  0  0  0  0  0  0  0
  -20.2835    1.0626   15.1366 C   0  0  0  0  0  0  0  0  0  0  0  0
  -20.4370    1.3569   16.5025 C   0  0  0  0  0  0  0  0  0  0  0  0
  -19.3215    1.1406   17.4480 C   0  0  0  0  0  0  0  0  0  0  0  0
  -18.4906    0.1372   17.2565 N   0  0  0  0  0  0  0  0  0  0  0  0
  -19.1560    1.9421   18.4798 N   0  0  0  0  0  0  0  0  0  0  0  0
  -21.6804    1.8524   16.9341 C   0  0  0  0  0  0  0  0  0  0  0  0
  -22.7328    2.0375   16.0253 C   0  0  0  0  0  0  0  0  0  0  0  0
  -29.3994    2.4218   17.3785 H   0  0  0  0  0  0  0  0  0  0  0  0
  -28.3006    2.0977   18.6817 H   0  0  0  0  0  0  0  0  0  0  0  0
  -28.7266   -0.9851   17.8747 H   0  0  0  0  0  0  0  0  0  0  0  0
  -31.1643   -1.3169   17.7060 H   0  0  0  0  0  0  0  0  0  0  0  0
  -31.3636   -0.9900   19.4132 H   0  0  0  0  0  0  0  0  0  0  0  0
  -29.8165   -3.3458   18.2187 H   0  0  0  0  0  0  0  0  0  0  0  0
  -31.3953   -3.4190   19.0036 H   0  0  0  0  0  0  0  0  0  0  0  0
  -29.5732   -4.0891   20.5693 H   0  0  0  0  0  0  0  0  0  0  0  0
  -30.4246   -2.6555   21.1394 H   0  0  0  0  0  0  0  0  0  0  0  0
  -27.7368   -2.6994   19.6806 H   0  0  0  0  0  0  0  0  0  0  0  0
  -27.9943   -2.3337   21.3842 H   0  0  0  0  0  0  0  0  0  0  0  0
  -29.2379   -0.2826   20.8217 H   0  0  0  0  0  0  0  0  0  0  0  0
  -27.6859   -0.2522   20.0141 H   0  0  0  0  0  0  0  0  0  0  0  0
  -26.6504   -0.4103   14.9621 H   0  0  0  0  0  0  0  0  0  0  0  0
  -27.9271   -0.8366   13.0881 H   0  0  0  0  0  0  0  0  0  0  0  0
  -27.3541    0.6832   12.3987 H   0  0  0  0  0  0  0  0  0  0  0  0
  -30.0126    0.2721   12.9290 H   0  0  0  0  0  0  0  0  0  0  0  0
  -29.2591    1.8652   13.0596 H   0  0  0  0  0  0  0  0  0  0  0  0
  -30.0865    1.7105   15.2824 H   0  0  0  0  0  0  0  0  0  0  0  0
  -29.9325   -0.0624   15.3069 H   0  0  0  0  0  0  0  0  0  0  0  0
  -24.6675    0.0793   13.9330 H   0  0  0  0  0  0  0  0  0  0  0  0
  -23.9894    3.0015   13.6966 H   0  0  0  0  0  0  0  0  0  0  0  0
  -23.3634    1.7143   12.6694 H   0  0  0  0  0  0  0  0  0  0  0  0
  -21.1838    1.0007   13.1838 H   0  0  0  0  0  0  0  0  0  0  0  0
  -19.3348    0.7081   14.7387 H   0  0  0  0  0  0  0  0  0  0  0  0
  -17.7088   -0.0481   17.8693 H   0  0  0  0  0  0  0  0  0  0  0  0
  -19.7732    2.7355   18.6174 H   0  0  0  0  0  0  0  0  0  0  0  0
  -18.4115    1.8173   19.1486 H   0  0  0  0  0  0  0  0  0  0  0  0
  -21.8668    2.0859   17.9789 H   0  0  0  0  0  0  0  0  0  0  0  0
  -23.6902    2.4226   16.3865 H   0  0  0  0  0  0  0  0  0  0  0  0
  -18.6311   -0.5052   16.4836 H   0  0  0  0  0  0  0  0  0  0  0  0
  1  2  2  0  0  0  0
  2  3  1  0  0  0  0
  2 11  1  0  0  0  0
  3  4  1  0  0  0  0
  3 29  1  0  0  0  0
  3 30  1  0  0  0  0
  4  5  1  0  0  0  0
  5  6  1  0  0  0  0
  5 10  1  0  0  0  0
  5 31  1  0  0  0  0
  6  7  1  0  0  0  0
  6 32  1  0  0  0  0
  6 33  1  0  0  0  0
  7  8  1  0  0  0  0
  7 34  1  0  0  0  0
  7 35  1  0  0  0  0
  8  9  1  0  0  0  0
  8 36  1  0  0  0  0
  8 37  1  0  0  0  0
  9 10  1  0  0  0  0
  9 38  1  0  0  0  0
  9 39  1  0  0  0  0
 10 40  1  0  0  0  0
 10 41  1  0  0  0  0
 11 12  1  0  0  0  0
 11 15  1  0  0  0  0
 12 13  1  0  0  0  0
 12 16  1  0  0  0  0
 12 42  1  1  0  0  0
 13 14  1  0  0  0  0
 13 43  1  0  0  0  0
 13 44  1  0  0  0  0
 14 15  1  0  0  0  0
 14 45  1  0  0  0  0
 14 46  1  0  0  0  0
 15 47  1  0  0  0  0
 15 48  1  0  0  0  0
 16 17  2  0  0  0  0
 16 18  1  0  0  0  0
 18 19  1  0  0  0  0
 18 49  1  0  0  0  0
 19 20  1  0  0  0  0
 19 50  1  0  0  0  0
 19 51  1  0  0  0  0
 20 21  2  0  0  0  0
 20 28  1  0  0  0  0
 21 22  1  0  0  0  0
 21 52  1  0  0  0  0
 22 23  2  0  0  0  0
 22 53  1  0  0  0  0
 23 24  1  0  0  0  0
 23 27  1  0  0  0  0
 24 25  2  0  0  0  0
 24 26  1  0  0  0  0
 25 54  1  0  0  0  0
 25 59  1  0  0  0  0
 26 55  1  0  0  0  0
 26 56  1  0  0  0  0
 27 28  2  0  0  0  0
 27 57  1  0  0  0  0
 28 58  1  0  0  0  0
M  END
$$$$
