486
 OpenBabel04051919563D

 67 71  0  0  1  0  0  0  0  0999 V2000
   13.5917    7.4081    2.9039 O   0  0  0  0  0  0  0  0  0  0  0  0
   13.0319    6.7986    3.8144 C   0  0  0  0  0  0  0  0  0  0  0  0
   11.5466    6.8331    3.9560 C   0  0  0  0  0  0  0  0  0  0  0  0
   13.8587    6.0133    4.7332 C   0  0  0  0  0  0  0  0  0  0  0  0
   13.3142    5.4124    5.7936 C   0  0  0  0  0  0  0  0  0  0  0  0
   14.2252    4.5526    6.6244 C   0  0  0  0  0  0  0  0  0  0  0  0
   11.9220    5.5847    6.1801 C   0  0  0  0  0  0  0  0  0  0  0  0
   11.0088    6.3998    5.2931 C   0  0  0  0  0  0  0  0  0  0  0  0
   11.4325    5.0722    7.3338 C   0  0  0  0  0  0  0  0  0  0  0  0
    9.9579    5.2943    7.7314 C   0  0  1  0  0  0  0  0  0  0  0  0
    8.9903    4.3214    7.0387 C   0  0  0  0  0  0  0  0  0  0  0  0
    9.4153    3.3384    6.1359 C   0  0  0  0  0  0  0  0  0  0  0  0
    8.4964    2.4813    5.5165 C   0  0  0  0  0  0  0  0  0  0  0  0
    7.1237    2.5676    5.7583 C   0  0  0  0  0  0  0  0  0  0  0  0
    6.2035    1.7344    5.1436 N   0  0  0  0  0  0  0  0  0  0  0  0
    6.5794    0.4501    4.5675 C   0  0  0  0  0  0  0  0  0  0  0  0
    4.9167    2.2819    4.7414 C   0  0  0  0  0  0  0  0  0  0  0  0
    6.7120    3.5547    6.6635 C   0  0  0  0  0  0  0  0  0  0  0  0
    7.6215    4.4138    7.2816 C   0  0  0  0  0  0  0  0  0  0  0  0
    9.7284    5.4022    9.2668 C   0  0  0  0  0  0  0  0  0  0  0  0
   10.5000    4.3335   10.0326 C   0  0  2  0  0  0  0  0  0  0  0  0
   10.0046    2.9419    9.6024 C   0  0  0  0  0  0  0  0  0  0  0  0
   10.5035    4.4306   11.5708 C   0  0  1  0  0  0  0  0  0  0  0  0
   10.7046    5.7751   12.0745 C   0  0  0  0  0  0  0  0  0  0  0  0
   10.9439    6.8821   12.5300 C   0  0  0  0  0  0  0  0  0  0  0  0
   11.2479    8.1649   13.1130 C   0  0  0  0  0  0  0  0  0  0  0  0
    9.3405    3.8860   12.1709 O   0  0  0  0  0  0  0  0  0  0  0  0
   11.7238    3.5779   11.9589 C   0  0  0  0  0  0  0  0  0  0  0  0
   12.6618    3.6016   10.7365 C   0  0  0  0  0  0  0  0  0  0  0  0
   11.9829    4.5294    9.7228 C   0  0  1  0  0  0  0  0  0  0  0  0
   12.3165    4.2550    8.2613 C   0  0  2  0  0  0  0  0  0  0  0  0
   13.7994    4.5805    8.0713 C   0  0  0  0  0  0  0  0  0  0  0  0
   11.1249    6.2012    3.1701 H   0  0  0  0  0  0  0  0  0  0  0  0
   11.2506    7.8743    3.7732 H   0  0  0  0  0  0  0  0  0  0  0  0
   14.9177    5.9474    4.5093 H   0  0  0  0  0  0  0  0  0  0  0  0
   15.2676    4.9125    6.5502 H   0  0  0  0  0  0  0  0  0  0  0  0
   14.2005    3.5197    6.2463 H   0  0  0  0  0  0  0  0  0  0  0  0
   10.0891    5.8238    5.0944 H   0  0  0  0  0  0  0  0  0  0  0  0
   10.7163    7.3075    5.8472 H   0  0  0  0  0  0  0  0  0  0  0  0
    9.6769    6.2841    7.3470 H   0  0  0  0  0  0  0  0  0  0  0  0
   10.4712    3.2267    5.9091 H   0  0  0  0  0  0  0  0  0  0  0  0
    8.8701    1.7517    4.8096 H   0  0  0  0  0  0  0  0  0  0  0  0
    5.6981   -0.0404    4.1231 H   0  0  0  0  0  0  0  0  0  0  0  0
    6.9761   -0.2137    5.3480 H   0  0  0  0  0  0  0  0  0  0  0  0
    7.3319    0.5721    3.7822 H   0  0  0  0  0  0  0  0  0  0  0  0
    4.7283    3.2483    5.2103 H   0  0  0  0  0  0  0  0  0  0  0  0
    4.1100    1.5964    5.0331 H   0  0  0  0  0  0  0  0  0  0  0  0
    4.8820    2.4226    3.6528 H   0  0  0  0  0  0  0  0  0  0  0  0
    5.6557    3.6639    6.9024 H   0  0  0  0  0  0  0  0  0  0  0  0
    7.2538    5.1728    7.9568 H   0  0  0  0  0  0  0  0  0  0  0  0
    8.6664    5.3171    9.5044 H   0  0  0  0  0  0  0  0  0  0  0  0
   10.0744    6.3907    9.6057 H   0  0  0  0  0  0  0  0  0  0  0  0
   10.0067    2.8514    8.5222 H   0  0  0  0  0  0  0  0  0  0  0  0
    8.9901    2.7627    9.9627 H   0  0  0  0  0  0  0  0  0  0  0  0
   10.6630    2.1620    9.9845 H   0  0  0  0  0  0  0  0  0  0  0  0
   10.9653    8.9659   12.4229 H   0  0  0  0  0  0  0  0  0  0  0  0
   12.3209    8.2355   13.3240 H   0  0  0  0  0  0  0  0  0  0  0  0
   10.6923    8.2857   14.0495 H   0  0  0  0  0  0  0  0  0  0  0  0
    8.5880    4.4589   11.9413 H   0  0  0  0  0  0  0  0  0  0  0  0
   11.4184    2.5497   12.1965 H   0  0  0  0  0  0  0  0  0  0  0  0
   12.2298    3.9964   12.8383 H   0  0  0  0  0  0  0  0  0  0  0  0
   12.7641    2.5912   10.3144 H   0  0  0  0  0  0  0  0  0  0  0  0
   13.6533    3.9680   11.0084 H   0  0  0  0  0  0  0  0  0  0  0  0
   12.2804    5.5730    9.9435 H   0  0  0  0  0  0  0  0  0  0  0  0
   12.1612    3.1919    8.0382 H   0  0  0  0  0  0  0  0  0  0  0  0
   13.9864    5.5853    8.4751 H   0  0  0  0  0  0  0  0  0  0  0  0
   14.3887    3.8565    8.6399 H   0  0  0  0  0  0  0  0  0  0  0  0
  1  2  2  0  0  0  0
  2  3  1  0  0  0  0
  2  4  1  0  0  0  0
  3  8  1  0  0  0  0
  3 33  1  0  0  0  0
  3 34  1  0  0  0  0
  4  5  2  0  0  0  0
  4 35  1  0  0  0  0
  5  6  1  0  0  0  0
  5  7  1  0  0  0  0
  6 32  1  0  0  0  0
  6 36  1  0  0  0  0
  6 37  1  0  0  0  0
  7  8  1  0  0  0  0
  7  9  2  0  0  0  0
  8 38  1  0  0  0  0
  8 39  1  0  0  0  0
  9 10  1  0  0  0  0
  9 31  1  0  0  0  0
 10 11  1  0  0  0  0
 10 20  1  0  0  0  0
 10 40  1  6  0  0  0
 11 12  2  0  0  0  0
 11 19  1  0  0  0  0
 12 13  1  0  0  0  0
 12 41  1  0  0  0  0
 13 14  2  0  0  0  0
 13 42  1  0  0  0  0
 14 15  1  0  0  0  0
 14 18  1  0  0  0  0
 15 16  1  0  0  0  0
 15 17  1  0  0  0  0
 16 43  1  0  0  0  0
 16 44  1  0  0  0  0
 16 45  1  0  0  0  0
 17 46  1  0  0  0  0
 17 47  1  0  0  0  0
 17 48  1  0  0  0  0
 18 19  2  0  0  0  0
 18 49  1  0  0  0  0
 19 50  1  0  0  0  0
 20 21  1  0  0  0  0
 20 51  1  0  0  0  0
 20 52  1  0  0  0  0
 21 22  1  6  0  0  0
 21 23  1  0  0  0  0
 21 30  1  0  0  0  0
 22 53  1  0  0  0  0
 22 54  1  0  0  0  0
 22 55  1  0  0  0  0
 23 24  1  1  0  0  0
 23 27  1  0  0  0  0
 23 28  1  0  0  0  0
 24 25  3  0  0  0  0
 25 26  1  0  0  0  0
 26 56  1  0  0  0  0
 26 57  1  0  0  0  0
 26 58  1  0  0  0  0
 27 59  1  0  0  0  0
 28 29  1  0  0  0  0
 28 60  1  0  0  0  0
 28 61  1  0  0  0  0
 29 30  1  0  0  0  0
 29 62  1  0  0  0  0
 29 63  1  0  0  0  0
 30 31  1  0  0  0  0
 30 64  1  1  0  0  0
 31 32  1  0  0  0  0
 31 65  1  6  0  0  0
 32 66  1  0  0  0  0
 32 67  1  0  0  0  0
M  END
$$$$
