49U
 OpenBabel04051920523D

 58 60  0  0  1  0  0  0  0  0999 V2000
  -31.2882   -1.9082   18.7350 C   0  0  0  0  0  0  0  0  0  0  0  0
  -30.6567   -0.5851   18.3256 C   0  0  0  0  0  0  0  0  0  0  0  0
  -29.1668   -0.6834   18.6662 C   0  0  0  0  0  0  0  0  0  0  0  0
  -29.1173   -1.6967   19.7989 C   0  0  0  0  0  0  0  0  0  0  0  0
  -30.2225   -2.6882   19.4880 C   0  0  0  0  0  0  0  0  0  0  0  0
  -28.5013    0.6268   19.1175 C   0  0  0  0  0  0  0  0  0  0  0  0
  -28.5479    1.7152   18.0599 C   0  0  0  0  0  0  0  0  0  0  0  0
  -27.6285    1.3422   16.9186 C   0  0  0  0  0  0  0  0  0  0  0  0
  -26.4313    1.1289   17.1035 O   0  0  0  0  0  0  0  0  0  0  0  0
  -28.2179    1.2277   15.6760 N   0  0  0  0  0  0  0  0  0  0  0  0
  -27.4475    0.8024   14.5236 C   0  0  2  0  0  0  0  0  0  0  0  0
  -26.2413    1.7315   14.2846 C   0  0  0  0  0  0  0  0  0  0  0  0
  -26.3083    2.9570   14.4264 O   0  0  0  0  0  0  0  0  0  0  0  0
  -28.4236    0.9418   13.3490 C   0  0  0  0  0  0  0  0  0  0  0  0
  -29.8129    0.9255   13.9672 C   0  0  0  0  0  0  0  0  0  0  0  0
  -29.6038    1.4871   15.3516 C   0  0  0  0  0  0  0  0  0  0  0  0
  -25.1049    1.1017   13.8327 N   0  0  0  0  0  0  0  0  0  0  0  0
  -23.9042    1.8516   13.5483 C   0  0  0  0  0  0  0  0  0  0  0  0
  -22.8261    1.6536   14.5866 C   0  0  0  0  0  0  0  0  0  0  0  0
  -23.0295    1.9626   15.9372 C   0  0  0  0  0  0  0  0  0  0  0  0
  -21.9955    1.8137   16.8699 C   0  0  0  0  0  0  0  0  0  0  0  0
  -20.7243    1.3574   16.4707 C   0  0  0  0  0  0  0  0  0  0  0  0
  -19.6276    1.1876   17.4438 C   0  0  0  0  0  0  0  0  0  0  0  0
  -19.4959    2.0304   18.4427 N   0  0  0  0  0  0  0  0  0  0  0  0
  -18.7817    0.1838   17.2933 N   0  0  0  0  0  0  0  0  0  0  0  0
  -20.5289    1.0656   15.1136 C   0  0  0  0  0  0  0  0  0  0  0  0
  -21.5605    1.2095   14.1858 C   0  0  0  0  0  0  0  0  0  0  0  0
  -31.6234   -2.4701   17.8555 H   0  0  0  0  0  0  0  0  0  0  0  0
  -32.1709   -1.7272   19.3565 H   0  0  0  0  0  0  0  0  0  0  0  0
  -31.1429    0.2522   18.8375 H   0  0  0  0  0  0  0  0  0  0  0  0
  -30.8146   -0.4537   17.2549 H   0  0  0  0  0  0  0  0  0  0  0  0
  -28.6383   -1.0867   17.7905 H   0  0  0  0  0  0  0  0  0  0  0  0
  -29.3157   -1.2082   20.7600 H   0  0  0  0  0  0  0  0  0  0  0  0
  -28.1374   -2.1790   19.8598 H   0  0  0  0  0  0  0  0  0  0  0  0
  -29.8385   -3.4999   18.8615 H   0  0  0  0  0  0  0  0  0  0  0  0
  -30.6249   -3.1319   20.4041 H   0  0  0  0  0  0  0  0  0  0  0  0
  -27.4598    0.4187   19.3946 H   0  0  0  0  0  0  0  0  0  0  0  0
  -28.9959    1.0050   20.0207 H   0  0  0  0  0  0  0  0  0  0  0  0
  -28.2142    2.6789   18.4619 H   0  0  0  0  0  0  0  0  0  0  0  0
  -29.5812    1.8671   17.7521 H   0  0  0  0  0  0  0  0  0  0  0  0
  -27.1279   -0.2354   14.6766 H   0  0  0  0  0  0  0  0  0  0  0  0
  -28.3014    0.1403   12.6152 H   0  0  0  0  0  0  0  0  0  0  0  0
  -28.2801    1.8953   12.8291 H   0  0  0  0  0  0  0  0  0  0  0  0
  -30.1963   -0.0991   14.0265 H   0  0  0  0  0  0  0  0  0  0  0  0
  -30.5366    1.5222   13.4053 H   0  0  0  0  0  0  0  0  0  0  0  0
  -29.7785    2.5623   15.4126 H   0  0  0  0  0  0  0  0  0  0  0  0
  -30.2771    0.9912   16.0483 H   0  0  0  0  0  0  0  0  0  0  0  0
  -25.0468    0.0905   13.8607 H   0  0  0  0  0  0  0  0  0  0  0  0
  -24.1156    2.9217   13.4462 H   0  0  0  0  0  0  0  0  0  0  0  0
  -23.5539    1.4943   12.5752 H   0  0  0  0  0  0  0  0  0  0  0  0
  -24.0062    2.3248   16.2715 H   0  0  0  0  0  0  0  0  0  0  0  0
  -22.2159    2.0415   17.9100 H   0  0  0  0  0  0  0  0  0  0  0  0
  -18.7634    1.9448   19.1313 H   0  0  0  0  0  0  0  0  0  0  0  0
  -18.9150   -0.4910   16.5559 H   0  0  0  0  0  0  0  0  0  0  0  0
  -18.0087    0.0272   17.9268 H   0  0  0  0  0  0  0  0  0  0  0  0
  -19.5578    0.7372   14.7424 H   0  0  0  0  0  0  0  0  0  0  0  0
  -21.3689    0.9881   13.1375 H   0  0  0  0  0  0  0  0  0  0  0  0
  -20.1351    2.8119   18.5418 H   0  0  0  0  0  0  0  0  0  0  0  0
  1  2  1  0  0  0  0
  1  5  1  0  0  0  0
  1 28  1  0  0  0  0
  1 29  1  0  0  0  0
  2  3  1  0  0  0  0
  2 30  1  0  0  0  0
  2 31  1  0  0  0  0
  3  4  1  0  0  0  0
  3  6  1  0  0  0  0
  3 32  1  0  0  0  0
  4  5  1  0  0  0  0
  4 33  1  0  0  0  0
  4 34  1  0  0  0  0
  5 35  1  0  0  0  0
  5 36  1  0  0  0  0
  6  7  1  0  0  0  0
  6 37  1  0  0  0  0
  6 38  1  0  0  0  0
  7  8  1  0  0  0  0
  7 39  1  0  0  0  0
  7 40  1  0  0  0  0
  8  9  2  0  0  0  0
  8 10  1  0  0  0  0
 10 11  1  0  0  0  0
 10 16  1  0  0  0  0
 11 12  1  0  0  0  0
 11 14  1  0  0  0  0
 11 41  1  1  0  0  0
 12 13  2  0  0  0  0
 12 17  1  0  0  0  0
 14 15  1  0  0  0  0
 14 42  1  0  0  0  0
 14 43  1  0  0  0  0
 15 16  1  0  0  0  0
 15 44  1  0  0  0  0
 15 45  1  0  0  0  0
 16 46  1  0  0  0  0
 16 47  1  0  0  0  0
 17 18  1  0  0  0  0
 17 48  1  0  0  0  0
 18 19  1  0  0  0  0
 18 49  1  0  0  0  0
 18 50  1  0  0  0  0
 19 20  2  0  0  0  0
 19 27  1  0  0  0  0
 20 21  1  0  0  0  0
 20 51  1  0  0  0  0
 21 22  2  0  0  0  0
 21 52  1  0  0  0  0
 22 23  1  0  0  0  0
 22 26  1  0  0  0  0
 23 24  2  0  0  0  0
 23 25  1  0  0  0  0
 24 53  1  0  0  0  0
 24 58  1  0  0  0  0
 25 54  1  0  0  0  0
 25 55  1  0  0  0  0
 26 27  2  0  0  0  0
 26 56  1  0  0  0  0
 27 57  1  0  0  0  0
M  END
$$$$
