4AH
 OpenBabel04051917343D

 95 99  0  0  1  0  0  0  0  0999 V2000
   14.3252   22.8817    5.6651 C   0  0  1  0  0  0  0  0  0  0  0  0
   14.5794   21.3504    5.4158 C   0  0  0  0  0  0  0  0  0  0  0  0
   13.6508   20.5418    5.4133 O   0  0  0  0  0  0  0  0  0  0  0  0
   15.8543   20.9267    5.1970 N   0  0  0  0  0  0  0  0  0  0  0  0
   16.1131   19.5041    4.9956 C   0  0  1  0  0  0  0  0  0  0  0  0
   16.0946   19.0064    3.5578 C   0  0  0  0  0  0  0  0  0  0  0  0
   15.2742   19.3896    2.4946 C   0  0  0  0  0  0  0  0  0  0  0  0
   15.4395   18.7536    1.2425 C   0  0  0  0  0  0  0  0  0  0  0  0
   16.4101   17.7351    1.0848 C   0  0  0  0  0  0  0  0  0  0  0  0
   17.2176   17.3357    2.1722 C   0  0  0  0  0  0  0  0  0  0  0  0
   17.0505   17.9786    3.3992 C   0  0  0  0  0  0  0  0  0  0  0  0
   17.7969   17.7249    4.6959 C   0  0  0  0  0  0  0  0  0  0  0  0
   17.5081   19.0140    5.4961 C   0  0  1  0  0  0  0  0  0  0  0  0
   18.5821   19.9185    5.1698 O   0  0  0  0  0  0  0  0  0  0  0  0
   14.1097   23.1684    7.1638 C   0  0  0  0  0  0  0  0  0  0  0  0
   14.9809   22.3405    8.1231 C   0  0  0  0  0  0  0  0  0  0  0  0
   14.3990   21.2905    8.8756 C   0  0  0  0  0  0  0  0  0  0  0  0
   15.1874   20.4976    9.7310 C   0  0  0  0  0  0  0  0  0  0  0  0
   16.5645   20.7495    9.8426 C   0  0  0  0  0  0  0  0  0  0  0  0
   17.1534   21.7920    9.1039 C   0  0  0  0  0  0  0  0  0  0  0  0
   16.3656   22.5867    8.2475 C   0  0  0  0  0  0  0  0  0  0  0  0
   15.4075   23.7045    5.1911 O   0  0  0  0  0  0  0  0  0  0  0  0
   13.0505   22.9352    4.7866 C   0  0  0  0  0  0  0  0  0  0  0  0
   12.1295   23.9632    4.3756 N   0  0  0  0  0  0  0  0  0  0  0  0
   11.4107   24.7551    5.2748 N   0  0  0  0  0  0  0  0  0  0  0  0
   11.4976   23.4552    3.1214 C   0  0  0  0  0  0  0  0  0  0  0  0
   10.5460   24.4012    6.3279 C   0  0  0  0  0  0  0  0  0  0  0  0
   10.3562   23.2938    6.7522 O   0  0  0  0  0  0  0  0  0  0  0  0
    9.7463   25.6790    6.8339 C   0  0  2  0  0  0  0  0  0  0  0  0
    9.6843   25.8964    8.3759 C   0  0  0  0  0  0  0  0  0  0  0  0
    8.9338   27.2003    8.7206 C   0  0  0  0  0  0  0  0  0  0  0  0
   11.0720   25.9977    9.0180 C   0  0  0  0  0  0  0  0  0  0  0  0
    8.3836   25.5735    6.2881 N   0  0  0  0  0  0  0  0  0  0  0  0
    7.8461   26.5253    5.4487 C   0  0  0  0  0  0  0  0  0  0  0  0
    8.4471   27.4818    5.0989 O   0  0  0  0  0  0  0  0  0  0  0  0
    6.5479   26.2155    5.1182 O   0  0  0  0  0  0  0  0  0  0  0  0
   10.0045   23.4791    3.0008 C   0  0  0  0  0  0  0  0  0  0  0  0
    9.4072   24.4359    2.1714 C   0  0  0  0  0  0  0  0  0  0  0  0
    8.0083   24.4947    2.0698 C   0  0  0  0  0  0  0  0  0  0  0  0
    7.1719   23.6048    2.7892 C   0  0  0  0  0  0  0  0  0  0  0  0
    9.2086   22.5663    3.7119 C   0  0  0  0  0  0  0  0  0  0  0  0
    7.8073   22.6406    3.6118 C   0  0  0  0  0  0  0  0  0  0  0  0
    5.8732   27.1567    4.2411 C   0  0  0  0  0  0  0  0  0  0  0  0
    8.9166   24.7634    9.0476 C   0  0  0  0  0  0  0  0  0  0  0  0
    3.4330   22.8682    3.3291 C   0  0  0  0  0  0  0  0  0  0  0  0
    4.8306   22.8057    3.4150 C   0  0  0  0  0  0  0  0  0  0  0  0
    5.6759   23.6800    2.6849 C   0  0  0  0  0  0  0  0  0  0  0  0
    5.0072   24.6095    1.8696 C   0  0  0  0  0  0  0  0  0  0  0  0
    3.6398   24.7025    1.7626 N   0  0  0  0  0  0  0  0  0  0  0  0
    2.8767   23.8307    2.4907 C   0  0  0  0  0  0  0  0  0  0  0  0
   16.5973   21.6004    5.1653 H   0  0  0  0  0  0  0  0  0  0  0  0
   15.3546   18.9411    5.5526 H   0  0  0  0  0  0  0  0  0  0  0  0
   14.5208   20.1749    2.6179 H   0  0  0  0  0  0  0  0  0  0  0  0
   14.8185   19.0450    0.3886 H   0  0  0  0  0  0  0  0  0  0  0  0
   16.5313   17.2495    0.1115 H   0  0  0  0  0  0  0  0  0  0  0  0
   17.9706   16.5533    2.0467 H   0  0  0  0  0  0  0  0  0  0  0  0
   18.8719   17.5998    4.5187 H   0  0  0  0  0  0  0  0  0  0  0  0
   17.4000   16.8482    5.2165 H   0  0  0  0  0  0  0  0  0  0  0  0
   17.5137   18.8518    6.5876 H   0  0  0  0  0  0  0  0  0  0  0  0
   18.4487   20.7435    5.6558 H   0  0  0  0  0  0  0  0  0  0  0  0
   13.0581   22.9922    7.4254 H   0  0  0  0  0  0  0  0  0  0  0  0
   14.3229   24.2320    7.3701 H   0  0  0  0  0  0  0  0  0  0  0  0
   13.3261   21.0842    8.7902 H   0  0  0  0  0  0  0  0  0  0  0  0
   14.7257   19.6872   10.3068 H   0  0  0  0  0  0  0  0  0  0  0  0
   17.1782   20.1347   10.5069 H   0  0  0  0  0  0  0  0  0  0  0  0
   18.2264   21.9874    9.1972 H   0  0  0  0  0  0  0  0  0  0  0  0
   16.8334   23.3944    7.6766 H   0  0  0  0  0  0  0  0  0  0  0  0
   15.2018   24.6346    5.3795 H   0  0  0  0  0  0  0  0  0  0  0  0
   12.3743   22.1708    5.1760 H   0  0  0  0  0  0  0  0  0  0  0  0
   13.4501   22.6037    3.8051 H   0  0  0  0  0  0  0  0  0  0  0  0
   11.6315   25.7281    5.2320 H   0  0  0  0  0  0  0  0  0  0  0  0
   11.8168   22.3996    2.9593 H   0  0  0  0  0  0  0  0  0  0  0  0
   11.9684   24.0138    2.2929 H   0  0  0  0  0  0  0  0  0  0  0  0
   10.2473   26.5550    6.4010 H   0  0  0  0  0  0  0  0  0  0  0  0
    8.8978   27.3452    9.8108 H   0  0  0  0  0  0  0  0  0  0  0  0
    7.9007   27.1607    8.3562 H   0  0  0  0  0  0  0  0  0  0  0  0
    9.4297   28.0708    8.2767 H   0  0  0  0  0  0  0  0  0  0  0  0
   11.6605   25.1003    8.8106 H   0  0  0  0  0  0  0  0  0  0  0  0
   10.9764   26.0998   10.1103 H   0  0  0  0  0  0  0  0  0  0  0  0
   11.6127   26.8738    8.6423 H   0  0  0  0  0  0  0  0  0  0  0  0
    7.8249   24.7835    6.5510 H   0  0  0  0  0  0  0  0  0  0  0  0
   10.0264   25.1414    1.6070 H   0  0  0  0  0  0  0  0  0  0  0  0
    7.5778   25.2550    1.4173 H   0  0  0  0  0  0  0  0  0  0  0  0
    9.6710   21.8106    4.3576 H   0  0  0  0  0  0  0  0  0  0  0  0
    7.2163   21.9258    4.1909 H   0  0  0  0  0  0  0  0  0  0  0  0
    4.8527   26.7885    4.0509 H   0  0  0  0  0  0  0  0  0  0  0  0
    6.3943   27.2403    3.2786 H   0  0  0  0  0  0  0  0  0  0  0  0
    5.7989   28.1450    4.7116 H   0  0  0  0  0  0  0  0  0  0  0  0
    7.9179   24.6720    8.6110 H   0  0  0  0  0  0  0  0  0  0  0  0
    8.8013   24.9643   10.1171 H   0  0  0  0  0  0  0  0  0  0  0  0
    9.4459   23.8186    8.9252 H   0  0  0  0  0  0  0  0  0  0  0  0
    2.8087   22.1808    3.9040 H   0  0  0  0  0  0  0  0  0  0  0  0
    5.2633   22.0524    4.0707 H   0  0  0  0  0  0  0  0  0  0  0  0
    5.5951   25.3273    1.2727 H   0  0  0  0  0  0  0  0  0  0  0  0
    1.7808   23.8987    2.4070 H   0  0  0  0  0  0  0  0  0  0  0  0
  1  2  1  6  0  0  0
  1 15  1  0  0  0  0
  1 22  1  0  0  0  0
  1 23  1  0  0  0  0
  2  3  2  0  0  0  0
  2  4  1  0  0  0  0
  4  5  1  0  0  0  0
  4 51  1  0  0  0  0
  5  6  1  0  0  0  0
  5 13  1  0  0  0  0
  5 52  1  1  0  0  0
  6  7  2  0  0  0  0
  6 11  1  0  0  0  0
  7  8  1  0  0  0  0
  7 53  1  0  0  0  0
  8  9  2  0  0  0  0
  8 54  1  0  0  0  0
  9 10  1  0  0  0  0
  9 55  1  0  0  0  0
 10 11  2  0  0  0  0
 10 56  1  0  0  0  0
 11 12  1  0  0  0  0
 12 13  1  0  0  0  0
 12 57  1  0  0  0  0
 12 58  1  0  0  0  0
 13 14  1  0  0  0  0
 13 59  1  1  0  0  0
 14 60  1  0  0  0  0
 15 16  1  0  0  0  0
 15 61  1  0  0  0  0
 15 62  1  0  0  0  0
 16 17  2  0  0  0  0
 16 21  1  0  0  0  0
 17 18  1  0  0  0  0
 17 63  1  0  0  0  0
 18 19  2  0  0  0  0
 18 64  1  0  0  0  0
 19 20  1  0  0  0  0
 19 65  1  0  0  0  0
 20 21  2  0  0  0  0
 20 66  1  0  0  0  0
 21 67  1  0  0  0  0
 22 68  1  0  0  0  0
 23 24  1  0  0  0  0
 23 69  1  0  0  0  0
 23 70  1  0  0  0  0
 24 25  1  0  0  0  0
 24 26  1  0  0  0  0
 25 27  1  0  0  0  0
 25 71  1  0  0  0  0
 26 37  1  0  0  0  0
 26 72  1  0  0  0  0
 26 73  1  0  0  0  0
 27 28  2  0  0  0  0
 27 29  1  0  0  0  0
 29 30  1  0  0  0  0
 29 33  1  0  0  0  0
 29 74  1  6  0  0  0
 30 31  1  0  0  0  0
 30 32  1  0  0  0  0
 30 44  1  0  0  0  0
 31 75  1  0  0  0  0
 31 76  1  0  0  0  0
 31 77  1  0  0  0  0
 32 78  1  0  0  0  0
 32 79  1  0  0  0  0
 32 80  1  0  0  0  0
 33 34  1  0  0  0  0
 33 81  1  0  0  0  0
 34 35  2  0  0  0  0
 34 36  1  0  0  0  0
 36 43  1  0  0  0  0
 37 38  2  0  0  0  0
 37 41  1  0  0  0  0
 38 39  1  0  0  0  0
 38 82  1  0  0  0  0
 39 40  2  0  0  0  0
 39 83  1  0  0  0  0
 40 42  1  0  0  0  0
 40 47  1  0  0  0  0
 41 42  2  0  0  0  0
 41 84  1  0  0  0  0
 42 85  1  0  0  0  0
 43 86  1  0  0  0  0
 43 87  1  0  0  0  0
 43 88  1  0  0  0  0
 44 89  1  0  0  0  0
 44 90  1  0  0  0  0
 44 91  1  0  0  0  0
 45 46  2  0  0  0  0
 45 50  1  0  0  0  0
 45 92  1  0  0  0  0
 46 47  1  0  0  0  0
 46 93  1  0  0  0  0
 47 48  2  0  0  0  0
 48 49  1  0  0  0  0
 48 94  1  0  0  0  0
 49 50  2  0  0  0  0
 50 95  1  0  0  0  0
M  END
$$$$
