4B3
 OpenBabel04051919003D

 57 59  0  0  0  0  0  0  0  0999 V2000
   44.7028   14.0042    0.4912 S   0  0  0  0  0  0  0  0  0  0  0  0
   44.8013   15.3891    1.5089 C   0  0  0  0  0  0  0  0  0  0  0  0
   45.6430   15.1506    2.5715 C   0  0  0  0  0  0  0  0  0  0  0  0
   46.1934   13.8275    2.5447 C   0  0  0  0  0  0  0  0  0  0  0  0
   45.7516   13.0571    1.4840 C   0  0  0  0  0  0  0  0  0  0  0  0
   44.0409   16.6452    1.2079 C   0  0  0  0  0  0  0  0  0  0  0  0
   43.4666   16.6985    0.0662 O   0  0  0  0  0  0  0  0  0  0  0  0
   43.9730   17.5678    2.0730 O   0  0  0  0  0  0  0  0  0  0  0  0
   46.0330   11.6540    1.0948 C   0  0  0  0  0  0  0  0  0  0  0  0
   47.3352   11.1185    1.1516 C   0  0  0  0  0  0  0  0  0  0  0  0
   47.6298    9.7959    0.7669 C   0  0  0  0  0  0  0  0  0  0  0  0
   46.5724    8.9981    0.3189 C   0  0  0  0  0  0  0  0  0  0  0  0
   45.2704    9.5005    0.2474 C   0  0  0  0  0  0  0  0  0  0  0  0
   45.0044   10.8118    0.6454 C   0  0  0  0  0  0  0  0  0  0  0  0
   47.3631   13.2381    3.9269 Br  0  0  0  0  0  0  0  0  0  0  0  0
   45.8472   16.0245    3.5870 O   0  0  0  0  0  0  0  0  0  0  0  0
   47.0174   16.8375    3.3991 C   0  0  0  0  0  0  0  0  0  0  0  0
   47.4587   17.4760    4.7381 C   0  0  0  0  0  0  0  0  0  0  0  0
   46.6948   17.3919    5.7402 O   0  0  0  0  0  0  0  0  0  0  0  0
   48.6286   18.0068    4.7014 O   0  0  0  0  0  0  0  0  0  0  0  0
   48.9302    9.3219    0.9022 N   0  0  0  0  0  0  0  0  0  0  0  0
   49.2543    7.9533    1.2933 C   0  0  0  0  0  0  0  0  0  0  0  0
   50.7817    7.7358    1.2593 C   0  0  0  0  0  0  0  0  0  0  0  0
   51.1920    6.2888    1.6319 C   0  0  0  0  0  0  0  0  0  0  0  0
   50.5088    5.8339    2.9406 C   0  0  0  0  0  0  0  0  0  0  0  0
   49.0063    6.1595    3.1006 C   0  0  0  0  0  0  0  0  0  0  0  0
   48.7280    7.6244    2.7013 C   0  0  0  0  0  0  0  0  0  0  0  0
   52.7189    6.2157    1.8538 C   0  0  0  0  0  0  0  0  0  0  0  0
   50.8678    5.3226    0.4812 C   0  0  0  0  0  0  0  0  0  0  0  0
   48.6677    5.9613    4.5906 C   0  0  0  0  0  0  0  0  0  0  0  0
   48.0922    5.2118    2.2980 C   0  0  0  0  0  0  0  0  0  0  0  0
   48.1482   11.7422    1.5149 H   0  0  0  0  0  0  0  0  0  0  0  0
   46.7504    7.9808   -0.0138 H   0  0  0  0  0  0  0  0  0  0  0  0
   44.4634    8.8778   -0.1259 H   0  0  0  0  0  0  0  0  0  0  0  0
   43.9788   11.1737    0.6002 H   0  0  0  0  0  0  0  0  0  0  0  0
   46.8045   17.6357    2.6746 H   0  0  0  0  0  0  0  0  0  0  0  0
   47.8580   16.2413    3.0183 H   0  0  0  0  0  0  0  0  0  0  0  0
   49.6636   10.0213    0.9347 H   0  0  0  0  0  0  0  0  0  0  0  0
   48.8048    7.2869    0.5547 H   0  0  0  0  0  0  0  0  0  0  0  0
   51.2661    8.4465    1.9447 H   0  0  0  0  0  0  0  0  0  0  0  0
   51.1628    7.9823    0.2594 H   0  0  0  0  0  0  0  0  0  0  0  0
   51.0420    6.3179    3.7738 H   0  0  0  0  0  0  0  0  0  0  0  0
   50.6684    4.7563    3.0868 H   0  0  0  0  0  0  0  0  0  0  0  0
   47.6492    7.8129    2.7628 H   0  0  0  0  0  0  0  0  0  0  0  0
   49.1899    8.3030    3.4325 H   0  0  0  0  0  0  0  0  0  0  0  0
   53.2684    6.5282    0.9601 H   0  0  0  0  0  0  0  0  0  0  0  0
   53.0262    5.1895    2.0935 H   0  0  0  0  0  0  0  0  0  0  0  0
   53.0386    6.8539    2.6854 H   0  0  0  0  0  0  0  0  0  0  0  0
   49.8206    5.3402    0.1930 H   0  0  0  0  0  0  0  0  0  0  0  0
   51.1160    4.2913    0.7551 H   0  0  0  0  0  0  0  0  0  0  0  0
   51.4287    5.5819   -0.4217 H   0  0  0  0  0  0  0  0  0  0  0  0
   48.8594    4.9260    4.8967 H   0  0  0  0  0  0  0  0  0  0  0  0
   47.6170    6.1891    4.7974 H   0  0  0  0  0  0  0  0  0  0  0  0
   49.2820    6.6109    5.2244 H   0  0  0  0  0  0  0  0  0  0  0  0
   48.1923    5.3170    1.2196 H   0  0  0  0  0  0  0  0  0  0  0  0
   47.0366    5.4206    2.5052 H   0  0  0  0  0  0  0  0  0  0  0  0
   48.2863    4.1632    2.5451 H   0  0  0  0  0  0  0  0  0  0  0  0
  1  2  1  0  0  0  0
  1  5  1  0  0  0  0
  2  3  2  0  0  0  0
  2  6  1  0  0  0  0
  3  4  1  0  0  0  0
  3 16  1  0  0  0  0
  4  5  2  0  0  0  0
  4 15  1  0  0  0  0
  5  9  1  0  0  0  0
  6  7  2  0  0  0  0
  6  8  1  0  0  0  0
  9 10  2  0  0  0  0
  9 14  1  0  0  0  0
 10 11  1  0  0  0  0
 10 32  1  0  0  0  0
 11 12  2  0  0  0  0
 11 21  1  0  0  0  0
 12 13  1  0  0  0  0
 12 33  1  0  0  0  0
 13 14  2  0  0  0  0
 13 34  1  0  0  0  0
 14 35  1  0  0  0  0
 16 17  1  0  0  0  0
 17 18  1  0  0  0  0
 17 36  1  0  0  0  0
 17 37  1  0  0  0  0
 18 19  2  0  0  0  0
 18 20  1  0  0  0  0
 21 22  1  0  0  0  0
 21 38  1  0  0  0  0
 22 23  1  0  0  0  0
 22 27  1  0  0  0  0
 22 39  1  0  0  0  0
 23 24  1  0  0  0  0
 23 40  1  0  0  0  0
 23 41  1  0  0  0  0
 24 25  1  0  0  0  0
 24 28  1  0  0  0  0
 24 29  1  0  0  0  0
 25 26  1  0  0  0  0
 25 42  1  0  0  0  0
 25 43  1  0  0  0  0
 26 27  1  0  0  0  0
 26 30  1  0  0  0  0
 26 31  1  0  0  0  0
 27 44  1  0  0  0  0
 27 45  1  0  0  0  0
 28 46  1  0  0  0  0
 28 47  1  0  0  0  0
 28 48  1  0  0  0  0
 29 49  1  0  0  0  0
 29 50  1  0  0  0  0
 29 51  1  0  0  0  0
 30 52  1  0  0  0  0
 30 53  1  0  0  0  0
 30 54  1  0  0  0  0
 31 55  1  0  0  0  0
 31 56  1  0  0  0  0
 31 57  1  0  0  0  0
M  END
$$$$
