4CS
 OpenBabel04051919463D

 20 20  0  0  1  0  0  0  0  0999 V2000
   43.8409   31.4602   35.0988 O   0  0  0  0  0  0  0  0  0  0  0  0
   43.5369   31.1242   33.9167 C   0  0  0  0  0  0  0  0  0  0  0  0
   43.4250   29.9856   33.3806 O   0  0  0  0  0  0  0  0  0  0  0  0
   43.2964   32.2893   32.9356 C   0  0  2  0  0  0  0  0  0  0  0  0
   42.3915   33.3567   33.5075 C   0  0  0  0  0  0  0  0  0  0  0  0
   42.2027   34.4368   32.4668 C   0  0  0  0  0  0  0  0  0  0  0  0
   41.8300   33.8730   31.1554 N   0  0  0  0  0  0  0  0  0  0  0  0
   42.0603   32.6139   30.8440 C   0  0  0  0  0  0  0  0  0  0  0  0
   41.5565   32.1178   29.5493 C   0  0  0  0  0  0  0  0  0  0  0  0
   42.7144   31.8148   31.6495 N   0  0  0  0  0  0  0  0  0  0  0  0
   44.2770   32.7154   32.6970 H   0  0  0  0  0  0  0  0  0  0  0  0
   42.8311   33.7983   34.4074 H   0  0  0  0  0  0  0  0  0  0  0  0
   41.4209   32.9308   33.7901 H   0  0  0  0  0  0  0  0  0  0  0  0
   43.1169   35.0232   32.3344 H   0  0  0  0  0  0  0  0  0  0  0  0
   41.4000   35.1157   32.7719 H   0  0  0  0  0  0  0  0  0  0  0  0
   41.0521   32.9144   28.9899 H   0  0  0  0  0  0  0  0  0  0  0  0
   40.8297   31.3132   29.6972 H   0  0  0  0  0  0  0  0  0  0  0  0
   42.3723   31.7452   28.9221 H   0  0  0  0  0  0  0  0  0  0  0  0
   42.8367   30.8088   31.4753 H   0  0  0  0  0  0  0  0  0  0  0  0
   41.3660   34.4603   30.4767 H   0  0  0  0  0  0  0  0  0  0  0  0
  1  2  2  0  0  0  0
  2  3  1  0  0  0  0
  2  4  1  0  0  0  0
  4  5  1  0  0  0  0
  4 10  1  0  0  0  0
  4 11  1  6  0  0  0
  5  6  1  0  0  0  0
  5 12  1  0  0  0  0
  5 13  1  0  0  0  0
  6  7  1  0  0  0  0
  6 14  1  0  0  0  0
  6 15  1  0  0  0  0
  7  8  2  0  0  0  0
  7 20  1  0  0  0  0
  8  9  1  0  0  0  0
  8 10  1  0  0  0  0
  9 16  1  0  0  0  0
  9 17  1  0  0  0  0
  9 18  1  0  0  0  0
 10 19  1  0  0  0  0
M  END
$$$$
