4CS
 OpenBabel04051918573D

 20 20  0  0  1  0  0  0  0  0999 V2000
   24.0447   41.6437   73.4606 O   0  0  0  0  0  0  0  0  0  0  0  0
   23.5543   40.8501   72.5990 C   0  0  0  0  0  0  0  0  0  0  0  0
   23.9508   40.5330   71.4465 O   0  0  0  0  0  0  0  0  0  0  0  0
   22.2206   40.1708   73.0154 C   0  0  2  0  0  0  0  0  0  0  0  0
   22.2081   39.7511   74.4697 C   0  0  0  0  0  0  0  0  0  0  0  0
   20.8656   39.1219   74.7719 C   0  0  0  0  0  0  0  0  0  0  0  0
   20.6020   38.0015   73.8299 N   0  0  0  0  0  0  0  0  0  0  0  0
   21.1356   37.9909   72.6000 C   0  0  0  0  0  0  0  0  0  0  0  0
   20.8658   36.8390   71.6882 C   0  0  0  0  0  0  0  0  0  0  0  0
   21.9107   38.9658   72.1714 N   0  0  0  0  0  0  0  0  0  0  0  0
   21.4208   40.8988   72.8401 H   0  0  0  0  0  0  0  0  0  0  0  0
   22.3686   40.6128   75.1258 H   0  0  0  0  0  0  0  0  0  0  0  0
   23.0035   39.0224   74.6662 H   0  0  0  0  0  0  0  0  0  0  0  0
   20.0532   39.8530   74.6902 H   0  0  0  0  0  0  0  0  0  0  0  0
   20.8490   38.7325   75.7972 H   0  0  0  0  0  0  0  0  0  0  0  0
   20.1984   36.0945   72.1431 H   0  0  0  0  0  0  0  0  0  0  0  0
   21.7894   36.3160   71.4104 H   0  0  0  0  0  0  0  0  0  0  0  0
   20.3884   37.1669   70.7556 H   0  0  0  0  0  0  0  0  0  0  0  0
   22.3901   38.9732   71.2618 H   0  0  0  0  0  0  0  0  0  0  0  0
   20.0167   37.2389   74.1233 H   0  0  0  0  0  0  0  0  0  0  0  0
  1  2  2  0  0  0  0
  2  3  1  0  0  0  0
  2  4  1  0  0  0  0
  4  5  1  0  0  0  0
  4 10  1  0  0  0  0
  4 11  1  6  0  0  0
  5  6  1  0  0  0  0
  5 12  1  0  0  0  0
  5 13  1  0  0  0  0
  6  7  1  0  0  0  0
  6 14  1  0  0  0  0
  6 15  1  0  0  0  0
  7  8  2  0  0  0  0
  7 20  1  0  0  0  0
  8  9  1  0  0  0  0
  8 10  1  0  0  0  0
  9 16  1  0  0  0  0
  9 17  1  0  0  0  0
  9 18  1  0  0  0  0
 10 19  1  0  0  0  0
M  END
$$$$
