4F8
 OpenBabel04051920323D

 23 24  0  0  0  0  0  0  0  0999 V2000
  -40.8715   18.4215   16.0536 N   0  3  0  0  0  0  0  0  0  0  0  0
  -42.1020   18.9005   15.6761 C   0  0  0  0  0  0  0  0  0  0  0  0
  -42.2819   18.4670   14.3721 C   0  0  0  0  0  0  0  0  0  0  0  0
  -43.5078   18.5593   13.4899 C   0  0  0  0  0  0  0  0  0  0  0  0
  -44.6677   18.5601   14.0225 O   0  0  0  0  0  0  0  0  0  0  0  0
  -43.3038   18.4966   12.2269 O   0  0  0  0  0  0  0  0  0  0  0  0
  -38.9990   17.0850   14.9975 C   0  0  0  0  0  0  0  0  0  0  0  0
  -38.4418   16.5204   16.1503 C   0  0  0  0  0  0  0  0  0  0  0  0
  -37.2329   15.8170   16.0853 C   0  0  0  0  0  0  0  0  0  0  0  0
  -36.5692   15.6723   14.8671 C   0  0  0  0  0  0  0  0  0  0  0  0
  -37.1137   16.2265   13.7117 C   0  0  0  0  0  0  0  0  0  0  0  0
  -38.3205   16.9224   13.7782 C   0  0  0  0  0  0  0  0  0  0  0  0
  -40.2986   17.7619   14.9943 C   0  0  0  0  0  0  0  0  0  0  0  0
  -43.7906   20.5133   16.1148 O   0  0  0  0  0  0  0  0  0  0  0  0
  -42.4834   19.7253   17.7824 O   0  0  0  0  0  0  0  0  0  0  0  0
  -41.1027   17.8225   13.9513 N   0  0  0  0  0  0  0  0  0  0  0  0
  -42.8956   19.7488   16.5667 C   0  0  0  0  0  0  0  0  0  0  0  0
  -40.4578   18.6289   16.9493 H   0  0  0  0  0  0  0  0  0  0  0  0
  -38.9625   16.5931   17.1009 H   0  0  0  0  0  0  0  0  0  0  0  0
  -36.8218   15.3683   16.9852 H   0  0  0  0  0  0  0  0  0  0  0  0
  -35.6403   15.1139   14.8141 H   0  0  0  0  0  0  0  0  0  0  0  0
  -36.6176   16.1058   12.7519 H   0  0  0  0  0  0  0  0  0  0  0  0
  -38.7639   17.3318   12.8699 H   0  0  0  0  0  0  0  0  0  0  0  0
  1  2  1  0  0  0  0
  1 13  2  0  0  0  0
  1 18  1  0  0  0  0
  2  3  2  0  0  0  0
  2 17  1  0  0  0  0
  3  4  1  0  0  0  0
  3 16  1  0  0  0  0
  4  5  2  0  0  0  0
  4  6  1  0  0  0  0
  7  8  2  0  0  0  0
  7 12  1  0  0  0  0
  7 13  1  0  0  0  0
  8  9  1  0  0  0  0
  8 19  1  0  0  0  0
  9 10  2  0  0  0  0
  9 20  1  0  0  0  0
 10 11  1  0  0  0  0
 10 21  1  0  0  0  0
 11 12  2  0  0  0  0
 11 22  1  0  0  0  0
 12 23  1  0  0  0  0
 13 16  1  0  0  0  0
 14 17  2  0  0  0  0
 15 17  1  0  0  0  0
M  CHG  1   1   1
M  END
$$$$
