4PG
 OpenBabel04051919163D

 35 36  0  0  0  0  0  0  0  0999 V2000
   33.8986    4.6736   27.9184 C   0  0  0  0  0  0  0  0  0  0  0  0
   31.8747    5.9839   28.4727 C   0  0  0  0  0  0  0  0  0  0  0  0
   31.2894    5.2115   29.4720 C   0  0  0  0  0  0  0  0  0  0  0  0
   31.1431    7.0203   27.8953 C   0  0  0  0  0  0  0  0  0  0  0  0
   27.7737    6.6893   29.7082 C   0  0  0  0  0  0  0  0  0  0  0  0
   27.1144    7.9614   29.2053 C   0  0  0  0  0  0  0  0  0  0  0  0
   27.1804    9.2230   30.0096 C   0  0  0  0  0  0  0  0  0  0  0  0
   26.5342   10.3604   29.5007 C   0  0  0  0  0  0  0  0  0  0  0  0
   26.5700   11.5712   30.1955 C   0  0  0  0  0  0  0  0  0  0  0  0
   27.2502   11.6560   31.4072 C   0  0  0  0  0  0  0  0  0  0  0  0
   27.8984   10.5341   31.9206 C   0  0  0  0  0  0  0  0  0  0  0  0
   27.8703    9.3206   31.2250 C   0  0  0  0  0  0  0  0  0  0  0  0
   33.2146    5.8250   28.0259 N   0  0  0  0  0  0  0  0  0  0  0  0
   35.2011    4.7327   27.6034 N   0  0  0  0  0  0  0  0  0  0  0  0
   33.3430    3.4641   28.0407 N   0  0  0  0  0  0  0  0  0  0  0  0
   29.9666    5.4568   29.8652 C   0  0  0  0  0  0  0  0  0  0  0  0
   29.2140    6.4861   29.2752 C   0  0  0  0  0  0  0  0  0  0  0  0
   29.8172    7.2539   28.2722 C   0  0  0  0  0  0  0  0  0  0  0  0
   26.5632    7.9810   28.1034 O   0  0  0  0  0  0  0  0  0  0  0  0
   31.8479    4.4449   30.0023 H   0  0  0  0  0  0  0  0  0  0  0  0
   31.5733    7.6419   27.1130 H   0  0  0  0  0  0  0  0  0  0  0  0
   27.1775    5.8514   29.3233 H   0  0  0  0  0  0  0  0  0  0  0  0
   27.6899    6.6304   30.7982 H   0  0  0  0  0  0  0  0  0  0  0  0
   25.9947   10.3122   28.5558 H   0  0  0  0  0  0  0  0  0  0  0  0
   26.0635   12.4449   29.7909 H   0  0  0  0  0  0  0  0  0  0  0  0
   27.2737   12.5978   31.9514 H   0  0  0  0  0  0  0  0  0  0  0  0
   28.4270   10.6068   32.8688 H   0  0  0  0  0  0  0  0  0  0  0  0
   28.3964    8.4778   31.6591 H   0  0  0  0  0  0  0  0  0  0  0  0
   33.6600    6.6555   27.6489 H   0  0  0  0  0  0  0  0  0  0  0  0
   35.7501    3.8947   27.4609 H   0  0  0  0  0  0  0  0  0  0  0  0
   32.3380    3.3628   28.1186 H   0  0  0  0  0  0  0  0  0  0  0  0
   33.8815    2.6179   27.9331 H   0  0  0  0  0  0  0  0  0  0  0  0
   29.5217    4.8421   30.6482 H   0  0  0  0  0  0  0  0  0  0  0  0
   29.2672    8.0408   27.7562 H   0  0  0  0  0  0  0  0  0  0  0  0
   35.6838    5.6166   27.5064 H   0  0  0  0  0  0  0  0  0  0  0  0
  1 13  1  0  0  0  0
  1 14  2  0  0  0  0
  1 15  1  0  0  0  0
  2  3  2  0  0  0  0
  2  4  1  0  0  0  0
  2 13  1  0  0  0  0
  3 16  1  0  0  0  0
  3 20  1  0  0  0  0
  4 18  2  0  0  0  0
  4 21  1  0  0  0  0
  5  6  1  0  0  0  0
  5 17  1  0  0  0  0
  5 22  1  0  0  0  0
  5 23  1  0  0  0  0
  6  7  1  0  0  0  0
  6 19  2  0  0  0  0
  7  8  2  0  0  0  0
  7 12  1  0  0  0  0
  8  9  1  0  0  0  0
  8 24  1  0  0  0  0
  9 10  2  0  0  0  0
  9 25  1  0  0  0  0
 10 11  1  0  0  0  0
 10 26  1  0  0  0  0
 11 12  2  0  0  0  0
 11 27  1  0  0  0  0
 12 28  1  0  0  0  0
 13 29  1  0  0  0  0
 14 30  1  0  0  0  0
 14 35  1  0  0  0  0
 15 31  1  0  0  0  0
 15 32  1  0  0  0  0
 16 17  2  0  0  0  0
 16 33  1  0  0  0  0
 17 18  1  0  0  0  0
 18 34  1  0  0  0  0
M  END
$$$$
