509
 OpenBabel04051918073D

 27 28  0  0  0  0  0  0  0  0999 V2000
   46.3128    8.7151   -0.0010 C   0  0  0  0  0  0  0  0  0  0  0  0
   45.0122    9.2096   -0.0446 C   0  0  0  0  0  0  0  0  0  0  0  0
   44.7558   10.5336    0.3173 C   0  0  0  0  0  0  0  0  0  0  0  0
   45.8043   11.3757    0.7182 C   0  0  0  0  0  0  0  0  0  0  0  0
   47.1094   10.8532    0.7442 C   0  0  0  0  0  0  0  0  0  0  0  0
   47.3601    9.5286    0.3985 C   0  0  0  0  0  0  0  0  0  0  0  0
   45.5496   12.7529    1.1632 C   0  0  0  0  0  0  0  0  0  0  0  0
   46.0366   13.4138    2.2710 C   0  0  0  0  0  0  0  0  0  0  0  0
   45.5712   14.7540    2.3874 C   0  0  0  0  0  0  0  0  0  0  0  0
   44.7163   15.1034    1.3582 C   0  0  0  0  0  0  0  0  0  0  0  0
   44.5255   13.7898    0.2589 S   0  0  0  0  0  0  0  0  0  0  0  0
   44.0204   16.4214    1.1587 C   0  0  0  0  0  0  0  0  0  0  0  0
   43.5169   16.6080   -0.0038 O   0  0  0  0  0  0  0  0  0  0  0  0
   43.9528   17.2410    2.1185 O   0  0  0  0  0  0  0  0  0  0  0  0
   45.8793   15.5546    3.4296 O   0  0  0  0  0  0  0  0  0  0  0  0
   47.0994   16.2839    3.2162 C   0  0  0  0  0  0  0  0  0  0  0  0
   47.5318   17.0135    4.5086 C   0  0  0  0  0  0  0  0  0  0  0  0
   48.6382   17.6322    4.4121 O   0  0  0  0  0  0  0  0  0  0  0  0
   46.8098   16.8940    5.5455 O   0  0  0  0  0  0  0  0  0  0  0  0
   47.1926   12.6617    3.5901 Br  0  0  0  0  0  0  0  0  0  0  0  0
   46.5056    7.6786   -0.2768 H   0  0  0  0  0  0  0  0  0  0  0  0
   44.1913    8.5686   -0.3536 H   0  0  0  0  0  0  0  0  0  0  0  0
   43.7335   10.9007    0.3124 H   0  0  0  0  0  0  0  0  0  0  0  0
   47.9420   11.4789    1.0600 H   0  0  0  0  0  0  0  0  0  0  0  0
   48.3778    9.1449    0.4529 H   0  0  0  0  0  0  0  0  0  0  0  0
   46.9577   17.0196    2.4154 H   0  0  0  0  0  0  0  0  0  0  0  0
   47.9203   15.6124    2.9266 H   0  0  0  0  0  0  0  0  0  0  0  0
  1  2  2  0  0  0  0
  1  6  1  0  0  0  0
  1 21  1  0  0  0  0
  2  3  1  0  0  0  0
  2 22  1  0  0  0  0
  3  4  2  0  0  0  0
  3 23  1  0  0  0  0
  4  5  1  0  0  0  0
  4  7  1  0  0  0  0
  5  6  2  0  0  0  0
  5 24  1  0  0  0  0
  6 25  1  0  0  0  0
  7  8  2  0  0  0  0
  7 11  1  0  0  0  0
  8  9  1  0  0  0  0
  8 20  1  0  0  0  0
  9 10  2  0  0  0  0
  9 15  1  0  0  0  0
 10 11  1  0  0  0  0
 10 12  1  0  0  0  0
 12 13  2  0  0  0  0
 12 14  1  0  0  0  0
 15 16  1  0  0  0  0
 16 17  1  0  0  0  0
 16 26  1  0  0  0  0
 16 27  1  0  0  0  0
 17 18  2  0  0  0  0
 17 19  1  0  0  0  0
M  END
$$$$
