598
 OpenBabel04051917223D

 59 63  0  0  0  0  0  0  0  0999 V2000
   44.3554   14.1320    0.5190 S   0  0  0  0  0  0  0  0  0  0  0  0
   44.6733   15.3704    1.6617 C   0  0  0  0  0  0  0  0  0  0  0  0
   45.5912   14.9842    2.6132 C   0  0  0  0  0  0  0  0  0  0  0  0
   46.0186   13.6354    2.4266 C   0  0  0  0  0  0  0  0  0  0  0  0
   45.4355   13.0586    1.3352 C   0  0  0  0  0  0  0  0  0  0  0  0
   43.9876   16.7005    1.5207 C   0  0  0  0  0  0  0  0  0  0  0  0
   44.0532   17.5428    2.4425 O   0  0  0  0  0  0  0  0  0  0  0  0
   43.3632   16.8644    0.4345 O   0  0  0  0  0  0  0  0  0  0  0  0
   45.9920   15.7147    3.6728 O   0  0  0  0  0  0  0  0  0  0  0  0
   47.2305   16.4039    3.4581 C   0  0  0  0  0  0  0  0  0  0  0  0
   47.5681   17.2129    4.7351 C   0  0  0  0  0  0  0  0  0  0  0  0
   46.7374   17.1787    5.6945 O   0  0  0  0  0  0  0  0  0  0  0  0
   48.7094   17.7843    4.7261 O   0  0  0  0  0  0  0  0  0  0  0  0
   47.1098   12.5341    3.2235 S   0  0  0  0  0  0  0  0  0  0  0  0
   46.7588   11.3202    2.0545 C   0  0  0  0  0  0  0  0  0  0  0  0
   45.8431   11.7106    1.0937 C   0  0  0  0  0  0  0  0  0  0  0  0
   47.3088   10.0358    2.0163 C   0  0  0  0  0  0  0  0  0  0  0  0
   46.9460    9.1086    1.0314 C   0  0  0  0  0  0  0  0  0  0  0  0
   46.0304    9.5093    0.0575 C   0  0  0  0  0  0  0  0  0  0  0  0
   45.4728   10.7981    0.0763 C   0  0  0  0  0  0  0  0  0  0  0  0
   47.5267    7.8457    0.9961 N   0  0  0  0  0  0  0  0  0  0  0  0
   48.5658    7.4438    1.9440 C   0  0  0  0  0  0  0  0  0  0  0  0
   47.9505    6.9461    3.2566 C   0  0  0  0  0  0  0  0  0  0  0  0
   49.0299    6.4758    4.2245 C   0  0  0  0  0  0  0  0  0  0  0  0
   49.8715    5.4617    3.5646 N   0  0  0  0  0  0  0  0  0  0  0  0
   50.5241    5.9271    2.3199 C   0  0  0  0  0  0  0  0  0  0  0  0
   49.4640    6.3832    1.3202 C   0  0  0  0  0  0  0  0  0  0  0  0
   50.6753    4.3172    4.5306 S   0  0  0  0  0  0  0  0  0  0  0  0
   49.6546    2.8336    4.2938 C   0  0  0  0  0  0  0  0  0  0  0  0
   49.3091    2.6589    2.8372 C   0  0  0  0  0  0  0  0  0  0  0  0
   48.0231    2.9800    2.3781 C   0  0  0  0  0  0  0  0  0  0  0  0
   47.7004    2.8470    1.0289 C   0  0  0  0  0  0  0  0  0  0  0  0
   48.6605    2.3956    0.1255 C   0  0  0  0  0  0  0  0  0  0  0  0
   49.9416    2.0753    0.5711 C   0  0  0  0  0  0  0  0  0  0  0  0
   50.2653    2.2023    1.9213 C   0  0  0  0  0  0  0  0  0  0  0  0
   50.5502    4.7183    5.9105 O   0  0  0  0  0  0  0  0  0  0  0  0
   51.9774    4.0629    3.9555 O   0  0  0  0  0  0  0  0  0  0  0  0
   47.1659   17.0964    2.6050 H   0  0  0  0  0  0  0  0  0  0  0  0
   48.0516   15.6919    3.2649 H   0  0  0  0  0  0  0  0  0  0  0  0
   48.0194    9.7774    2.7867 H   0  0  0  0  0  0  0  0  0  0  0  0
   45.7274    8.8356   -0.7434 H   0  0  0  0  0  0  0  0  0  0  0  0
   44.7580   11.1109   -0.6831 H   0  0  0  0  0  0  0  0  0  0  0  0
   47.1600    7.1573    0.3488 H   0  0  0  0  0  0  0  0  0  0  0  0
   49.2249    8.2982    2.1585 H   0  0  0  0  0  0  0  0  0  0  0  0
   47.2558    6.1240    3.0507 H   0  0  0  0  0  0  0  0  0  0  0  0
   47.3649    7.7418    3.7320 H   0  0  0  0  0  0  0  0  0  0  0  0
   48.5505    6.0682    5.1202 H   0  0  0  0  0  0  0  0  0  0  0  0
   49.6598    7.3182    4.5270 H   0  0  0  0  0  0  0  0  0  0  0  0
   51.1264    5.1392    1.8579 H   0  0  0  0  0  0  0  0  0  0  0  0
   51.1914    6.7620    2.5577 H   0  0  0  0  0  0  0  0  0  0  0  0
   49.9451    6.7833    0.4167 H   0  0  0  0  0  0  0  0  0  0  0  0
   48.8609    5.5287    1.0011 H   0  0  0  0  0  0  0  0  0  0  0  0
   48.7508    2.9377    4.9047 H   0  0  0  0  0  0  0  0  0  0  0  0
   50.2126    1.9642    4.6628 H   0  0  0  0  0  0  0  0  0  0  0  0
   47.2710    3.3535    3.0716 H   0  0  0  0  0  0  0  0  0  0  0  0
   46.7024    3.1021    0.6817 H   0  0  0  0  0  0  0  0  0  0  0  0
   48.4083    2.2928   -0.9271 H   0  0  0  0  0  0  0  0  0  0  0  0
   50.6908    1.7245   -0.1341 H   0  0  0  0  0  0  0  0  0  0  0  0
   51.2741    1.9603    2.2562 H   0  0  0  0  0  0  0  0  0  0  0  0
  1  2  1  0  0  0  0
  1  5  1  0  0  0  0
  2  3  2  0  0  0  0
  2  6  1  0  0  0  0
  3  4  1  0  0  0  0
  3  9  1  0  0  0  0
  4  5  2  0  0  0  0
  4 14  1  0  0  0  0
  5 16  1  0  0  0  0
  6  7  2  0  0  0  0
  6  8  1  0  0  0  0
  9 10  1  0  0  0  0
 10 11  1  0  0  0  0
 10 38  1  0  0  0  0
 10 39  1  0  0  0  0
 11 12  2  0  0  0  0
 11 13  1  0  0  0  0
 14 15  1  0  0  0  0
 15 16  2  0  0  0  0
 15 17  1  0  0  0  0
 16 20  1  0  0  0  0
 17 18  2  0  0  0  0
 17 40  1  0  0  0  0
 18 19  1  0  0  0  0
 18 21  1  0  0  0  0
 19 20  2  0  0  0  0
 19 41  1  0  0  0  0
 20 42  1  0  0  0  0
 21 22  1  0  0  0  0
 21 43  1  0  0  0  0
 22 23  1  0  0  0  0
 22 27  1  0  0  0  0
 22 44  1  0  0  0  0
 23 24  1  0  0  0  0
 23 45  1  0  0  0  0
 23 46  1  0  0  0  0
 24 25  1  0  0  0  0
 24 47  1  0  0  0  0
 24 48  1  0  0  0  0
 25 26  1  0  0  0  0
 25 28  1  0  0  0  0
 26 27  1  0  0  0  0
 26 49  1  0  0  0  0
 26 50  1  0  0  0  0
 27 51  1  0  0  0  0
 27 52  1  0  0  0  0
 28 29  1  0  0  0  0
 28 36  2  0  0  0  0
 28 37  2  0  0  0  0
 29 30  1  0  0  0  0
 29 53  1  0  0  0  0
 29 54  1  0  0  0  0
 30 31  2  0  0  0  0
 30 35  1  0  0  0  0
 31 32  1  0  0  0  0
 31 55  1  0  0  0  0
 32 33  2  0  0  0  0
 32 56  1  0  0  0  0
 33 34  1  0  0  0  0
 33 57  1  0  0  0  0
 34 35  2  0  0  0  0
 34 58  1  0  0  0  0
 35 59  1  0  0  0  0
M  END
$$$$
