5GP
 OpenBabel04051918003D

 36 38  0  0  1  0  0  0  0  0999 V2000
   12.5936   14.4407    3.5609 P   0  0  0  0  0  0  0  0  0  0  0  0
   12.2988   13.9531    4.9722 O   0  0  0  0  0  0  0  0  0  0  0  0
   13.2093   13.3901    2.6466 O   0  0  0  0  0  0  0  0  0  0  0  0
   11.4543   15.2417    2.9457 O   0  0  0  0  0  0  0  0  0  0  0  0
   13.7983   15.5419    3.7638 O   0  0  0  0  0  0  0  0  0  0  0  0
   13.4978   16.7297    4.4852 C   0  0  0  0  0  0  0  0  0  0  0  0
   14.5795   17.0311    5.5318 C   0  0  1  0  0  0  0  0  0  0  0  0
   15.8595   17.1243    4.8577 O   0  0  0  0  0  0  0  0  0  0  0  0
   14.3799   18.3502    6.3007 C   0  0  1  0  0  0  0  0  0  0  0  0
   14.3800   18.1450    7.7288 O   0  0  0  0  0  0  0  0  0  0  0  0
   15.5298   19.2656    5.8588 C   0  0  1  0  0  0  0  0  0  0  0  0
   16.3768   19.6815    6.9584 O   0  0  0  0  0  0  0  0  0  0  0  0
   16.3123   18.4730    4.8046 C   0  0  2  0  0  0  0  0  0  0  0  0
   16.2695   18.9824    3.4349 N   0  3  0  0  0  0  0  0  0  0  0  0
   15.7244   18.3999    2.3053 C   0  0  0  0  0  0  0  0  0  0  0  0
   15.9036   19.1458    1.2222 N   0  0  0  0  0  0  0  0  0  0  0  0
   16.6115   20.2448    1.6659 C   0  0  0  0  0  0  0  0  0  0  0  0
   17.0998   21.3890    0.9480 C   0  0  0  0  0  0  0  0  0  0  0  0
   16.9742   21.6051   -0.2487 O   0  0  0  0  0  0  0  0  0  0  0  0
   17.7748   22.2927    1.7612 N   0  3  0  0  0  0  0  0  0  0  0  0
   17.9733   22.1169    3.1408 C   0  0  0  0  0  0  0  0  0  0  0  0
   18.6605   23.0998    3.7990 N   0  0  0  0  0  0  0  0  0  0  0  0
   17.5323   21.0714    3.7900 N   0  0  0  0  0  0  0  0  0  0  0  0
   16.8564   20.1618    3.0207 C   0  0  0  0  0  0  0  0  0  0  0  0
   12.5242   16.6556    4.9730 H   0  0  0  0  0  0  0  0  0  0  0  0
   13.4846   17.5570    3.7681 H   0  0  0  0  0  0  0  0  0  0  0  0
   14.6419   16.1954    6.2345 H   0  0  0  0  0  0  0  0  0  0  0  0
   13.4281   18.8342    6.0514 H   0  0  0  0  0  0  0  0  0  0  0  0
   15.1923   17.6729    7.9765 H   0  0  0  0  0  0  0  0  0  0  0  0
   15.1235   20.1837    5.4307 H   0  0  0  0  0  0  0  0  0  0  0  0
   16.7673   18.8900    7.3647 H   0  0  0  0  0  0  0  0  0  0  0  0
   17.3705   18.4600    5.1047 H   0  0  0  0  0  0  0  0  0  0  0  0
   15.1948   17.4352    2.2846 H   0  0  0  0  0  0  0  0  0  0  0  0
   18.1283   23.0970    1.2940 H   0  0  0  0  0  0  0  0  0  0  0  0
   18.7991   22.9863    4.7862 H   0  0  0  0  0  0  0  0  0  0  0  0
   19.0288   23.9313    3.3737 H   0  0  0  0  0  0  0  0  0  0  0  0
  1  2  2  0  0  0  0
  1  3  1  0  0  0  0
  1  4  1  0  0  0  0
  1  5  1  0  0  0  0
  5  6  1  0  0  0  0
  6  7  1  0  0  0  0
  6 25  1  0  0  0  0
  6 26  1  0  0  0  0
  7  8  1  0  0  0  0
  7  9  1  0  0  0  0
  7 27  1  1  0  0  0
  8 13  1  0  0  0  0
  9 10  1  0  0  0  0
  9 11  1  0  0  0  0
  9 28  1  6  0  0  0
 10 29  1  0  0  0  0
 11 12  1  0  0  0  0
 11 13  1  0  0  0  0
 11 30  1  6  0  0  0
 12 31  1  0  0  0  0
 13 14  1  0  0  0  0
 13 32  1  1  0  0  0
 14 15  2  0  0  0  0
 14 24  1  0  0  0  0
 15 16  1  0  0  0  0
 15 33  1  0  0  0  0
 16 17  1  0  0  0  0
 17 18  1  0  0  0  0
 17 24  2  0  0  0  0
 18 19  2  0  0  0  0
 18 20  1  0  0  0  0
 20 21  1  0  0  0  0
 20 34  1  0  0  0  0
 21 22  1  0  0  0  0
 21 23  2  0  0  0  0
 22 35  1  0  0  0  0
 22 36  1  0  0  0  0
 23 24  1  0  0  0  0
M  CHG  2  14   1  20   1
M  END
$$$$
