694
 OpenBabel04051918073D

 28 29  0  0  0  0  0  0  0  0999 V2000
   47.2467   11.0879    0.5057 C   0  0  0  0  0  0  0  0  0  0  0  0
   47.4921    9.8006   -0.0197 C   0  0  0  0  0  0  0  0  0  0  0  0
   46.4193    9.0183   -0.4489 C   0  0  0  0  0  0  0  0  0  0  0  0
   45.1136    9.4944   -0.3520 C   0  0  0  0  0  0  0  0  0  0  0  0
   44.8733   10.7762    0.1816 C   0  0  0  0  0  0  0  0  0  0  0  0
   45.9346   11.6011    0.6233 C   0  0  0  0  0  0  0  0  0  0  0  0
   45.6662   12.9636    1.1880 C   0  0  0  0  0  0  0  0  0  0  0  0
   46.0981   13.5960    2.3453 C   0  0  0  0  0  0  0  0  0  0  0  0
   45.6109   14.9482    2.5071 C   0  0  0  0  0  0  0  0  0  0  0  0
   44.7943   15.3376    1.4648 C   0  0  0  0  0  0  0  0  0  0  0  0
   44.6477   14.0552    0.3101 S   0  0  0  0  0  0  0  0  0  0  0  0
   44.1240   16.6790    1.2541 C   0  0  0  0  0  0  0  0  0  0  0  0
   43.9327   17.4398    2.2598 O   0  0  0  0  0  0  0  0  0  0  0  0
   43.7697   16.9480    0.0706 O   0  0  0  0  0  0  0  0  0  0  0  0
   45.8810   15.7316    3.5805 O   0  0  0  0  0  0  0  0  0  0  0  0
   47.0892   16.5073    3.4304 C   0  0  0  0  0  0  0  0  0  0  0  0
   47.4763   17.1692    4.7796 C   0  0  0  0  0  0  0  0  0  0  0  0
   46.5732   17.2654    5.6724 O   0  0  0  0  0  0  0  0  0  0  0  0
   48.6893   17.5262    4.8790 O   0  0  0  0  0  0  0  0  0  0  0  0
   47.2428   12.7926    3.6424 Br  0  0  0  0  0  0  0  0  0  0  0  0
   46.6676    7.7700   -0.9522 O   0  0  0  0  0  0  0  0  0  0  0  0
   48.0969   11.6942    0.8226 H   0  0  0  0  0  0  0  0  0  0  0  0
   48.5142    9.4268   -0.0959 H   0  0  0  0  0  0  0  0  0  0  0  0
   44.2775    8.8755   -0.6716 H   0  0  0  0  0  0  0  0  0  0  0  0
   43.8441   11.1351    0.2581 H   0  0  0  0  0  0  0  0  0  0  0  0
   46.9550   17.3047    2.6885 H   0  0  0  0  0  0  0  0  0  0  0  0
   47.9199   15.8619    3.1130 H   0  0  0  0  0  0  0  0  0  0  0  0
   46.2859    7.7328   -1.8498 H   0  0  0  0  0  0  0  0  0  0  0  0
  1  2  2  0  0  0  0
  1  6  1  0  0  0  0
  1 22  1  0  0  0  0
  2  3  1  0  0  0  0
  2 23  1  0  0  0  0
  3  4  2  0  0  0  0
  3 21  1  0  0  0  0
  4  5  1  0  0  0  0
  4 24  1  0  0  0  0
  5  6  2  0  0  0  0
  5 25  1  0  0  0  0
  6  7  1  0  0  0  0
  7  8  2  0  0  0  0
  7 11  1  0  0  0  0
  8  9  1  0  0  0  0
  8 20  1  0  0  0  0
  9 10  2  0  0  0  0
  9 15  1  0  0  0  0
 10 11  1  0  0  0  0
 10 12  1  0  0  0  0
 12 13  2  0  0  0  0
 12 14  1  0  0  0  0
 15 16  1  0  0  0  0
 16 17  1  0  0  0  0
 16 26  1  0  0  0  0
 16 27  1  0  0  0  0
 17 18  2  0  0  0  0
 17 19  1  0  0  0  0
 21 28  1  0  0  0  0
M  END
$$$$
