6AN
 OpenBabel04051920063D

 33 35  0  0  0  0  0  0  0  0999 V2000
   21.7594   20.1601    3.6269 C   0  0  0  0  0  0  0  0  0  0  0  0
   23.1161   20.4791    3.4440 C   0  0  0  0  0  0  0  0  0  0  0  0
   23.6289   20.7965    2.1725 C   0  0  0  0  0  0  0  0  0  0  0  0
   24.9839   21.0827    2.0041 C   0  0  0  0  0  0  0  0  0  0  0  0
   25.8321   21.0484    3.1114 C   0  0  0  0  0  0  0  0  0  0  0  0
   27.5932   21.4051    2.8801 S   0  0  0  0  0  0  0  0  0  0  0  0
   27.5729   22.5130    1.9276 O   0  0  0  0  0  0  0  0  0  0  0  0
   28.0886   20.1337    2.3616 O   0  0  0  0  0  0  0  0  0  0  0  0
   28.0448   21.7553    4.2250 O   0  0  0  0  0  0  0  0  0  0  0  0
   25.3396   20.7630    4.3863 C   0  0  0  0  0  0  0  0  0  0  0  0
   23.9804   20.4713    4.5624 C   0  0  0  0  0  0  0  0  0  0  0  0
   23.4585   20.1628    5.8257 C   0  0  0  0  0  0  0  0  0  0  0  0
   22.1071   19.8380    5.9806 C   0  0  0  0  0  0  0  0  0  0  0  0
   21.2377   19.8249    4.8837 C   0  0  0  0  0  0  0  0  0  0  0  0
   19.9034   19.4162    5.0763 N   0  0  0  0  0  0  0  0  0  0  0  0
   18.9422   18.9191    4.1784 C   0  0  0  0  0  0  0  0  0  0  0  0
   17.5847   19.1655    4.4234 C   0  0  0  0  0  0  0  0  0  0  0  0
   16.6024   18.7659    3.5108 C   0  0  0  0  0  0  0  0  0  0  0  0
   16.9659   18.1192    2.3329 C   0  0  0  0  0  0  0  0  0  0  0  0
   18.3081   17.8580    2.0762 C   0  0  0  0  0  0  0  0  0  0  0  0
   19.2839   18.2485    2.9969 C   0  0  0  0  0  0  0  0  0  0  0  0
   21.1003   20.1950    2.7643 H   0  0  0  0  0  0  0  0  0  0  0  0
   22.9793   20.8143    1.3013 H   0  0  0  0  0  0  0  0  0  0  0  0
   25.3885   21.3225    1.0241 H   0  0  0  0  0  0  0  0  0  0  0  0
   26.0292   20.7575    5.2281 H   0  0  0  0  0  0  0  0  0  0  0  0
   24.1104   20.1594    6.6963 H   0  0  0  0  0  0  0  0  0  0  0  0
   21.7464   19.5803    6.9725 H   0  0  0  0  0  0  0  0  0  0  0  0
   19.5677   19.5406    6.0230 H   0  0  0  0  0  0  0  0  0  0  0  0
   17.2804   19.6957    5.3220 H   0  0  0  0  0  0  0  0  0  0  0  0
   15.5560   18.9745    3.7153 H   0  0  0  0  0  0  0  0  0  0  0  0
   16.2082   17.8230    1.6134 H   0  0  0  0  0  0  0  0  0  0  0  0
   18.6054   17.3550    1.1604 H   0  0  0  0  0  0  0  0  0  0  0  0
   20.3215   18.0053    2.7856 H   0  0  0  0  0  0  0  0  0  0  0  0
  1  2  2  0  0  0  0
  1 14  1  0  0  0  0
  1 22  1  0  0  0  0
  2  3  1  0  0  0  0
  2 11  1  0  0  0  0
  3  4  2  0  0  0  0
  3 23  1  0  0  0  0
  4  5  1  0  0  0  0
  4 24  1  0  0  0  0
  5  6  1  0  0  0  0
  5 10  2  0  0  0  0
  6  7  2  0  0  0  0
  6  8  2  0  0  0  0
  6  9  1  0  0  0  0
 10 11  1  0  0  0  0
 10 25  1  0  0  0  0
 11 12  2  0  0  0  0
 12 13  1  0  0  0  0
 12 26  1  0  0  0  0
 13 14  2  0  0  0  0
 13 27  1  0  0  0  0
 14 15  1  0  0  0  0
 15 16  1  0  0  0  0
 15 28  1  0  0  0  0
 16 17  2  0  0  0  0
 16 21  1  0  0  0  0
 17 18  1  0  0  0  0
 17 29  1  0  0  0  0
 18 19  2  0  0  0  0
 18 30  1  0  0  0  0
 19 20  1  0  0  0  0
 19 31  1  0  0  0  0
 20 21  2  0  0  0  0
 20 32  1  0  0  0  0
 21 33  1  0  0  0  0
M  END
$$$$
