6CN
 OpenBabel04051921103D

 35 36  0  0  1  0  0  0  0  0999 V2000
   25.8068  -15.4519    9.1251 O   0  0  0  0  0  0  0  0  0  0  0  0
   24.4949  -16.1525    8.8101 P   0  0  0  0  0  0  0  0  0  0  0  0
   23.2919  -15.2257    8.7097 O   0  0  0  0  0  0  0  0  0  0  0  0
   24.5829  -17.2014    7.7131 O   0  0  0  0  0  0  0  0  0  0  0  0
   24.1306  -17.0116   10.1512 O   0  0  0  0  0  0  0  0  0  0  0  0
   25.1446  -17.6183   10.9170 C   0  0  0  0  0  0  0  0  0  0  0  0
   24.4442  -18.2778   12.1070 C   0  0  2  0  0  0  0  0  0  0  0  0
   23.8757  -17.2522   13.0953 C   0  0  1  0  0  0  0  0  0  0  0  0
   22.7501  -17.8440   13.7936 O   0  0  0  0  0  0  0  0  0  0  0  0
   25.0112  -17.0776   14.0869 C   0  0  1  0  0  0  0  0  0  0  0  0
   24.5602  -16.6327   15.3746 O   0  0  0  0  0  0  0  0  0  0  0  0
   25.3521  -19.1231   12.8664 O   0  0  0  0  0  0  0  0  0  0  0  0
   25.5639  -18.4920   14.1220 C   0  0  1  0  0  0  0  0  0  0  0  0
   26.9970  -18.5761   14.4755 N   0  0  0  0  0  0  0  0  0  0  0  0
   27.3164  -19.3061   15.6546 C   0  0  2  0  0  0  0  0  0  0  0  0
   28.7662  -19.4479   16.0157 C   0  0  0  0  0  0  0  0  0  0  0  0
   29.7132  -18.8031   15.0879 C   0  0  0  0  0  0  0  0  0  0  0  0
   30.9234  -18.8418   15.3264 O   0  0  0  0  0  0  0  0  0  0  0  0
   29.2321  -18.1385   14.0293 N   0  0  0  0  0  0  0  0  0  0  0  0
   27.9506  -18.0046   13.6909 C   0  0  0  0  0  0  0  0  0  0  0  0
   27.6924  -17.3671   12.6889 O   0  0  0  0  0  0  0  0  0  0  0  0
   26.7640  -20.6684   15.5942 C   0  0  0  0  0  0  0  0  0  0  0  0
   26.3605  -21.7412   15.5636 N   0  0  0  0  0  0  0  0  0  0  0  0
   25.8562  -16.8686   11.2685 H   0  0  0  0  0  0  0  0  0  0  0  0
   25.6893  -18.3757   10.3428 H   0  0  0  0  0  0  0  0  0  0  0  0
   23.6236  -18.9083   11.7397 H   0  0  0  0  0  0  0  0  0  0  0  0
   23.5640  -16.3055   12.6463 H   0  0  0  0  0  0  0  0  0  0  0  0
   22.0992  -18.0766   13.1064 H   0  0  0  0  0  0  0  0  0  0  0  0
   25.7644  -16.3729   13.7220 H   0  0  0  0  0  0  0  0  0  0  0  0
   25.3293  -16.5729   15.9560 H   0  0  0  0  0  0  0  0  0  0  0  0
   24.9946  -19.0663   14.8797 H   0  0  0  0  0  0  0  0  0  0  0  0
   26.8526  -18.7496   16.4783 H   0  0  0  0  0  0  0  0  0  0  0  0
   29.0544  -20.4964   16.0588 H   0  0  0  0  0  0  0  0  0  0  0  0
   28.9079  -18.9851   17.0021 H   0  0  0  0  0  0  0  0  0  0  0  0
   29.9098  -17.7002   13.4076 H   0  0  0  0  0  0  0  0  0  0  0  0
  1  2  2  0  0  0  0
  2  3  1  0  0  0  0
  2  4  1  0  0  0  0
  2  5  1  0  0  0  0
  5  6  1  0  0  0  0
  6  7  1  0  0  0  0
  6 24  1  0  0  0  0
  6 25  1  0  0  0  0
  7  8  1  0  0  0  0
  7 12  1  0  0  0  0
  7 26  1  6  0  0  0
  8  9  1  0  0  0  0
  8 10  1  0  0  0  0
  8 27  1  6  0  0  0
  9 28  1  0  0  0  0
 10 11  1  0  0  0  0
 10 13  1  0  0  0  0
 10 29  1  6  0  0  0
 11 30  1  0  0  0  0
 12 13  1  0  0  0  0
 13 14  1  0  0  0  0
 13 31  1  1  0  0  0
 14 15  1  0  0  0  0
 14 20  1  0  0  0  0
 15 16  1  0  0  0  0
 15 22  1  0  0  0  0
 15 32  1  1  0  0  0
 16 17  1  0  0  0  0
 16 33  1  0  0  0  0
 16 34  1  0  0  0  0
 17 18  2  0  0  0  0
 17 19  1  0  0  0  0
 19 20  1  0  0  0  0
 19 35  1  0  0  0  0
 20 21  2  0  0  0  0
 22 23  3  0  0  0  0
M  END
$$$$
