6CS
 OpenBabel04051918573D

 21 21  0  0  1  0  0  0  0  0999 V2000
   15.6591   24.2172   32.7181 O   0  0  0  0  0  0  0  0  0  0  0  0
   16.4320   23.6220   31.9049 C   0  0  0  0  0  0  0  0  0  0  0  0
   16.7761   23.9301   30.7237 O   0  0  0  0  0  0  0  0  0  0  0  0
   17.0353   22.2763   32.3807 C   0  0  1  0  0  0  0  0  0  0  0  0
   18.2159   21.9598   31.5161 N   0  0  0  0  0  0  0  0  0  0  0  0
   19.2523   21.2658   31.9191 C   0  0  0  0  0  0  0  0  0  0  0  0
   20.3824   20.9908   31.0064 C   0  0  0  0  0  0  0  0  0  0  0  0
   19.3234   20.7924   33.1453 N   0  0  0  0  0  0  0  0  0  0  0  0
   18.2533   21.0107   34.1157 C   0  0  0  0  0  0  0  0  0  0  0  0
   17.4454   22.2739   33.8476 C   0  0  2  0  0  0  0  0  0  0  0  0
   16.3630   22.2144   34.7830 O   0  0  0  0  0  0  0  0  0  0  0  0
   16.2758   21.5127   32.1782 H   0  0  0  0  0  0  0  0  0  0  0  0
   20.2296   21.4271   30.0162 H   0  0  0  0  0  0  0  0  0  0  0  0
   20.5162   19.9092   30.8808 H   0  0  0  0  0  0  0  0  0  0  0  0
   21.3143   21.3930   31.4179 H   0  0  0  0  0  0  0  0  0  0  0  0
   20.1413   20.2578   33.4169 H   0  0  0  0  0  0  0  0  0  0  0  0
   18.6892   21.0616   35.1197 H   0  0  0  0  0  0  0  0  0  0  0  0
   17.6005   20.1284   34.1110 H   0  0  0  0  0  0  0  0  0  0  0  0
   18.0552   23.1579   34.0720 H   0  0  0  0  0  0  0  0  0  0  0  0
   15.6855   21.5985   34.4536 H   0  0  0  0  0  0  0  0  0  0  0  0
   18.1650   22.4239   30.5972 H   0  0  0  0  0  0  0  0  0  0  0  0
  1  2  2  0  0  0  0
  2  3  1  0  0  0  0
  2  4  1  0  0  0  0
  4  5  1  0  0  0  0
  4 10  1  0  0  0  0
  4 12  1  6  0  0  0
  5  6  2  0  0  0  0
  5 21  1  0  0  0  0
  6  7  1  0  0  0  0
  6  8  1  0  0  0  0
  7 13  1  0  0  0  0
  7 14  1  0  0  0  0
  7 15  1  0  0  0  0
  8  9  1  0  0  0  0
  8 16  1  0  0  0  0
  9 10  1  0  0  0  0
  9 17  1  0  0  0  0
  9 18  1  0  0  0  0
 10 11  1  0  0  0  0
 10 19  1  1  0  0  0
 11 20  1  0  0  0  0
M  END
$$$$
