701
 OpenBabel04051918253D

 53 55  0  0  1  0  0  0  0  0999 V2000
   10.2934   25.3888   46.1472 Cl  0  0  0  0  0  0  0  0  0  0  0  0
   10.5410   23.8953   46.9294 C   0  0  0  0  0  0  0  0  0  0  0  0
   11.4690   22.9364   46.5739 C   0  0  0  0  0  0  0  0  0  0  0  0
   11.3811   21.8071   47.4514 C   0  0  0  0  0  0  0  0  0  0  0  0
   10.4010   21.9337   48.4370 C   0  0  0  0  0  0  0  0  0  0  0  0
   10.0019   21.0061   49.4816 C   0  0  0  0  0  0  0  0  0  0  0  0
    9.3728   21.4938   50.7735 C   0  0  0  0  0  0  0  0  0  0  0  0
    9.9091   18.3612   50.2406 S   0  0  0  0  0  0  0  0  0  0  0  0
   10.5460   18.5679   51.5163 O   0  0  0  0  0  0  0  0  0  0  0  0
   10.1862   17.1632   49.4762 O   0  0  0  0  0  0  0  0  0  0  0  0
    8.2782   18.3105   50.5622 N   0  0  0  0  0  0  0  0  0  0  0  0
    7.3656   17.9078   49.5010 C   0  0  1  0  0  0  0  0  0  0  0  0
    6.4048   16.8226   49.9895 C   0  0  0  0  0  0  0  0  0  0  0  0
    5.0628   17.1423   49.3637 C   0  0  0  0  0  0  0  0  0  0  0  0
    6.4694   19.0184   49.0326 C   0  0  0  0  0  0  0  0  0  0  0  0
    6.8024   20.1714   48.8078 O   0  0  0  0  0  0  0  0  0  0  0  0
    5.1995   18.4989   48.8925 N   0  0  0  0  0  0  0  0  0  0  0  0
    4.1092   19.2353   48.2638 C   0  0  1  0  0  0  0  0  0  0  0  0
    3.9656   18.8151   46.8107 C   0  0  0  0  0  0  0  0  0  0  0  0
    2.8069   19.0245   49.0336 C   0  0  0  0  0  0  0  0  0  0  0  0
    1.8206   18.5101   48.4998 O   0  0  0  0  0  0  0  0  0  0  0  0
    2.7859   19.4476   50.3511 N   0  0  0  0  0  0  0  0  0  0  0  0
    3.8882   20.0871   51.0804 C   0  0  0  0  0  0  0  0  0  0  0  0
    3.4648   21.4563   51.6023 C   0  0  0  0  0  0  0  0  0  0  0  0
    2.2493   21.3639   52.3572 O   0  0  0  0  0  0  0  0  0  0  0  0
    1.1946   20.8547   51.5193 C   0  0  0  0  0  0  0  0  0  0  0  0
    1.5213   19.4286   51.0799 C   0  0  0  0  0  0  0  0  0  0  0  0
    9.6139   23.4663   48.2681 S   0  0  0  0  0  0  0  0  0  0  0  0
   10.2317   19.7067   49.2109 C   0  0  0  0  0  0  0  0  0  0  0  0
   12.1560   23.0243   45.7534 H   0  0  0  0  0  0  0  0  0  0  0  0
   12.0190   20.9425   47.3454 H   0  0  0  0  0  0  0  0  0  0  0  0
    9.1175   20.7029   51.4778 H   0  0  0  0  0  0  0  0  0  0  0  0
    8.4429   22.0351   50.5621 H   0  0  0  0  0  0  0  0  0  0  0  0
   10.0568   22.1778   51.2889 H   0  0  0  0  0  0  0  0  0  0  0  0
    7.9584   18.6479   51.4639 H   0  0  0  0  0  0  0  0  0  0  0  0
    7.8918   17.5560   48.6091 H   0  0  0  0  0  0  0  0  0  0  0  0
    6.3198   16.8076   51.0833 H   0  0  0  0  0  0  0  0  0  0  0  0
    6.7473   15.8307   49.6775 H   0  0  0  0  0  0  0  0  0  0  0  0
    4.2656   17.0821   50.1138 H   0  0  0  0  0  0  0  0  0  0  0  0
    4.8094   16.4802   48.5325 H   0  0  0  0  0  0  0  0  0  0  0  0
    4.3422   20.3070   48.2759 H   0  0  0  0  0  0  0  0  0  0  0  0
    3.1346   19.3471   46.3369 H   0  0  0  0  0  0  0  0  0  0  0  0
    3.7669   17.7410   46.7328 H   0  0  0  0  0  0  0  0  0  0  0  0
    4.8838   19.0308   46.2551 H   0  0  0  0  0  0  0  0  0  0  0  0
    4.7710   20.2385   50.4702 H   0  0  0  0  0  0  0  0  0  0  0  0
    4.1556   19.4125   51.9014 H   0  0  0  0  0  0  0  0  0  0  0  0
    3.3092   22.1454   50.7638 H   0  0  0  0  0  0  0  0  0  0  0  0
    4.2504   21.8706   52.2407 H   0  0  0  0  0  0  0  0  0  0  0  0
    1.0908   21.5151   50.6484 H   0  0  0  0  0  0  0  0  0  0  0  0
    0.2604   20.8805   52.0831 H   0  0  0  0  0  0  0  0  0  0  0  0
    1.6642   18.7755   51.9472 H   0  0  0  0  0  0  0  0  0  0  0  0
    0.7098   19.0249   50.4682 H   0  0  0  0  0  0  0  0  0  0  0  0
   10.6778   19.3942   48.2735 H   0  0  0  0  0  0  0  0  0  0  0  0
  1  2  1  0  0  0  0
  2  3  2  0  0  0  0
  2 28  1  0  0  0  0
  3  4  1  0  0  0  0
  3 30  1  0  0  0  0
  4  5  2  0  0  0  0
  4 31  1  0  0  0  0
  5  6  1  0  0  0  0
  5 28  1  0  0  0  0
  6  7  1  0  0  0  0
  6 29  2  0  0  0  0
  7 32  1  0  0  0  0
  7 33  1  0  0  0  0
  7 34  1  0  0  0  0
  8  9  2  0  0  0  0
  8 10  2  0  0  0  0
  8 11  1  0  0  0  0
  8 29  1  0  0  0  0
 11 12  1  0  0  0  0
 11 35  1  0  0  0  0
 12 13  1  0  0  0  0
 12 15  1  0  0  0  0
 12 36  1  6  0  0  0
 13 14  1  0  0  0  0
 13 37  1  0  0  0  0
 13 38  1  0  0  0  0
 14 17  1  0  0  0  0
 14 39  1  0  0  0  0
 14 40  1  0  0  0  0
 15 16  2  0  0  0  0
 15 17  1  0  0  0  0
 17 18  1  0  0  0  0
 18 19  1  0  0  0  0
 18 20  1  0  0  0  0
 18 41  1  1  0  0  0
 19 42  1  0  0  0  0
 19 43  1  0  0  0  0
 19 44  1  0  0  0  0
 20 21  2  0  0  0  0
 20 22  1  0  0  0  0
 22 23  1  0  0  0  0
 22 27  1  0  0  0  0
 23 24  1  0  0  0  0
 23 45  1  0  0  0  0
 23 46  1  0  0  0  0
 24 25  1  0  0  0  0
 24 47  1  0  0  0  0
 24 48  1  0  0  0  0
 25 26  1  0  0  0  0
 26 27  1  0  0  0  0
 26 49  1  0  0  0  0
 26 50  1  0  0  0  0
 27 51  1  0  0  0  0
 27 52  1  0  0  0  0
 29 53  1  0  0  0  0
M  END
$$$$
