701
 OpenBabel04051919283D

 53 55  0  0  1  0  0  0  0  0999 V2000
   13.9286    7.3967   26.4442 Cl  0  0  0  0  0  0  0  0  0  0  0  0
   12.2203    7.5444   26.3480 C   0  0  0  0  0  0  0  0  0  0  0  0
   11.3063    7.0385   27.2283 C   0  0  0  0  0  0  0  0  0  0  0  0
    9.9723    7.3642   26.8240 C   0  0  0  0  0  0  0  0  0  0  0  0
    9.9036    8.0878   25.6369 C   0  0  0  0  0  0  0  0  0  0  0  0
    8.7559    8.6127   24.8949 C   0  0  0  0  0  0  0  0  0  0  0  0
    8.9480    9.7049   23.8514 C   0  0  0  0  0  0  0  0  0  0  0  0
    6.0246    8.5840   24.5498 S   0  0  0  0  0  0  0  0  0  0  0  0
    4.9993    7.8885   25.3045 O   0  0  0  0  0  0  0  0  0  0  0  0
    5.9655   10.0257   24.4354 O   0  0  0  0  0  0  0  0  0  0  0  0
    5.9029    7.9837   22.9994 N   0  0  0  0  0  0  0  0  0  0  0  0
    5.8457    6.5385   22.8183 C   0  0  1  0  0  0  0  0  0  0  0  0
    4.5522    6.0892   22.1530 C   0  0  0  0  0  0  0  0  0  0  0  0
    4.9257    4.7576   21.5174 C   0  0  0  0  0  0  0  0  0  0  0  0
    6.9156    5.9455   21.9381 C   0  0  0  0  0  0  0  0  0  0  0  0
    8.0722    6.3209   21.8496 O   0  0  0  0  0  0  0  0  0  0  0  0
    6.3647    4.8159   21.3497 N   0  0  0  0  0  0  0  0  0  0  0  0
    7.1564    3.8181   20.6122 C   0  0  1  0  0  0  0  0  0  0  0  0
    6.8175    2.4010   21.0700 C   0  0  0  0  0  0  0  0  0  0  0  0
    6.9737    3.9759   19.0868 C   0  0  0  0  0  0  0  0  0  0  0  0
    5.9286    4.4513   18.6310 O   0  0  0  0  0  0  0  0  0  0  0  0
    7.9684    3.5136   18.2360 N   0  0  0  0  0  0  0  0  0  0  0  0
    7.8650    3.8485   16.8121 C   0  0  0  0  0  0  0  0  0  0  0  0
    8.2729    2.6677   15.9329 C   0  0  0  0  0  0  0  0  0  0  0  0
    9.5719    2.1745   16.2923 O   0  0  0  0  0  0  0  0  0  0  0  0
    9.5874    1.7418   17.6601 C   0  0  0  0  0  0  0  0  0  0  0  0
    9.2502    2.8976   18.6140 C   0  0  0  0  0  0  0  0  0  0  0  0
   11.5229    8.3869   25.0687 S   0  0  0  0  0  0  0  0  0  0  0  0
    7.5530    8.0817   25.1906 C   0  0  0  0  0  0  0  0  0  0  0  0
   11.5679    6.4737   28.1140 H   0  0  0  0  0  0  0  0  0  0  0  0
    9.1062    7.0715   27.4064 H   0  0  0  0  0  0  0  0  0  0  0  0
    8.0377   10.0313   23.3502 H   0  0  0  0  0  0  0  0  0  0  0  0
    9.6142    9.3515   23.0565 H   0  0  0  0  0  0  0  0  0  0  0  0
    9.3996   10.5863   24.3181 H   0  0  0  0  0  0  0  0  0  0  0  0
    6.0188    8.6227   22.2135 H   0  0  0  0  0  0  0  0  0  0  0  0
    5.9423    6.0240   23.7784 H   0  0  0  0  0  0  0  0  0  0  0  0
    4.2138    6.8017   21.3882 H   0  0  0  0  0  0  0  0  0  0  0  0
    3.7395    5.9771   22.8741 H   0  0  0  0  0  0  0  0  0  0  0  0
    4.4179    4.6262   20.5562 H   0  0  0  0  0  0  0  0  0  0  0  0
    4.6753    3.9171   22.1732 H   0  0  0  0  0  0  0  0  0  0  0  0
    8.2067    4.0264   20.8461 H   0  0  0  0  0  0  0  0  0  0  0  0
    7.4188    1.6466   20.5573 H   0  0  0  0  0  0  0  0  0  0  0  0
    5.7675    2.1580   20.8753 H   0  0  0  0  0  0  0  0  0  0  0  0
    6.9889    2.2958   22.1478 H   0  0  0  0  0  0  0  0  0  0  0  0
    8.5368    4.6987   16.6392 H   0  0  0  0  0  0  0  0  0  0  0  0
    6.8528    4.1669   16.5476 H   0  0  0  0  0  0  0  0  0  0  0  0
    8.3086    2.9800   14.8845 H   0  0  0  0  0  0  0  0  0  0  0  0
    7.5446    1.8523   16.0162 H   0  0  0  0  0  0  0  0  0  0  0  0
   10.5864    1.3500   17.8743 H   0  0  0  0  0  0  0  0  0  0  0  0
    8.8728    0.9175   17.7793 H   0  0  0  0  0  0  0  0  0  0  0  0
    9.2381    2.5309   19.6412 H   0  0  0  0  0  0  0  0  0  0  0  0
   10.0187    3.6759   18.5424 H   0  0  0  0  0  0  0  0  0  0  0  0
    7.4457    7.2790   25.9099 H   0  0  0  0  0  0  0  0  0  0  0  0
  1  2  1  0  0  0  0
  2  3  2  0  0  0  0
  2 28  1  0  0  0  0
  3  4  1  0  0  0  0
  3 30  1  0  0  0  0
  4  5  2  0  0  0  0
  4 31  1  0  0  0  0
  5  6  1  0  0  0  0
  5 28  1  0  0  0  0
  6  7  1  0  0  0  0
  6 29  2  0  0  0  0
  7 32  1  0  0  0  0
  7 33  1  0  0  0  0
  7 34  1  0  0  0  0
  8  9  2  0  0  0  0
  8 10  2  0  0  0  0
  8 11  1  0  0  0  0
  8 29  1  0  0  0  0
 11 12  1  0  0  0  0
 11 35  1  0  0  0  0
 12 13  1  0  0  0  0
 12 15  1  0  0  0  0
 12 36  1  1  0  0  0
 13 14  1  0  0  0  0
 13 37  1  0  0  0  0
 13 38  1  0  0  0  0
 14 17  1  0  0  0  0
 14 39  1  0  0  0  0
 14 40  1  0  0  0  0
 15 16  2  0  0  0  0
 15 17  1  0  0  0  0
 17 18  1  0  0  0  0
 18 19  1  0  0  0  0
 18 20  1  0  0  0  0
 18 41  1  1  0  0  0
 19 42  1  0  0  0  0
 19 43  1  0  0  0  0
 19 44  1  0  0  0  0
 20 21  2  0  0  0  0
 20 22  1  0  0  0  0
 22 23  1  0  0  0  0
 22 27  1  0  0  0  0
 23 24  1  0  0  0  0
 23 45  1  0  0  0  0
 23 46  1  0  0  0  0
 24 25  1  0  0  0  0
 24 47  1  0  0  0  0
 24 48  1  0  0  0  0
 25 26  1  0  0  0  0
 26 27  1  0  0  0  0
 26 49  1  0  0  0  0
 26 50  1  0  0  0  0
 27 51  1  0  0  0  0
 27 52  1  0  0  0  0
 29 53  1  0  0  0  0
M  END
$$$$
