730
 OpenBabel04051918043D

 76 79  0  0  1  0  0  0  0  0999 V2000
   18.5011   64.1496   28.8188 S   0  0  0  0  0  0  0  0  0  0  0  0
   18.2396   63.4287   30.0430 O   0  0  0  0  0  0  0  0  0  0  0  0
   19.7261   64.8889   28.6187 O   0  0  0  0  0  0  0  0  0  0  0  0
   18.4539   63.0276   27.5833 N   0  0  0  0  0  0  0  0  0  0  0  0
   18.3839   63.4542   26.1596 C   0  0  2  0  0  0  0  0  0  0  0  0
   16.9992   63.0481   25.6097 C   0  0  0  0  0  0  0  0  0  0  0  0
   16.4209   63.7125   24.5308 N   0  0  0  0  0  0  0  0  0  0  0  0
   15.1335   63.2128   24.0348 C   0  0  0  0  0  0  0  0  0  0  0  0
   14.0735   64.3132   23.8870 C   0  0  0  0  0  0  0  0  0  0  0  0
   14.5570   65.6909   24.3686 C   0  0  2  0  0  0  0  0  0  0  0  0
   13.4330   66.7598   24.2406 C   0  0  0  0  0  0  0  0  0  0  0  0
   13.5422   67.8444   23.1577 C   0  0  0  0  0  0  0  0  0  0  0  0
   12.3508   68.7427   23.1893 N   0  0  0  0  0  0  0  0  0  0  0  0
   12.1297   69.7926   22.3768 C   0  0  0  0  0  0  0  0  0  0  0  0
   11.0099   70.5111   22.5140 N   0  0  0  0  0  0  0  0  0  0  0  0
   12.9899   70.1603   21.4233 N   0  0  0  0  0  0  0  0  0  0  0  0
   15.8887   66.0106   23.6776 C   0  0  0  0  0  0  0  0  0  0  0  0
   16.9497   64.8984   23.8495 C   0  0  0  0  0  0  0  0  0  0  0  0
   16.4305   62.0855   26.1437 O   0  0  0  0  0  0  0  0  0  0  0  0
   19.5253   62.7917   25.3571 C   0  0  0  0  0  0  0  0  0  0  0  0
   19.3852   61.3183   24.9810 C   0  0  0  0  0  0  0  0  0  0  0  0
   19.8915   60.2914   25.8026 C   0  0  0  0  0  0  0  0  0  0  0  0
   19.7707   58.9223   25.4619 C   0  0  0  0  0  0  0  0  0  0  0  0
   20.3117   57.8436   26.3357 C   0  0  0  0  0  0  0  0  0  0  0  0
   20.7749   58.1071   27.5426 N   0  0  0  0  0  0  0  0  0  0  0  0
   20.3411   56.5884   25.9255 N   0  0  0  0  0  0  0  0  0  0  0  0
   19.1141   58.6132   24.2524 C   0  0  0  0  0  0  0  0  0  0  0  0
   18.6189   59.6142   23.4220 C   0  0  0  0  0  0  0  0  0  0  0  0
   18.7570   60.9509   23.7789 C   0  0  0  0  0  0  0  0  0  0  0  0
   17.1302   65.2511   28.4980 C   0  0  0  0  0  0  0  0  0  0  0  0
   15.8107   64.8145   28.6154 C   0  0  0  0  0  0  0  0  0  0  0  0
   14.7627   65.7147   28.3491 C   0  0  0  0  0  0  0  0  0  0  0  0
   15.0252   67.0490   27.9660 C   0  0  0  0  0  0  0  0  0  0  0  0
   13.9994   67.9675   27.6922 C   0  0  0  0  0  0  0  0  0  0  0  0
   14.2886   69.2837   27.2985 C   0  0  0  0  0  0  0  0  0  0  0  0
   15.6136   69.6945   27.1896 C   0  0  0  0  0  0  0  0  0  0  0  0
   16.6447   68.8002   27.4633 C   0  0  0  0  0  0  0  0  0  0  0  0
   16.3722   67.4752   27.8514 C   0  0  0  0  0  0  0  0  0  0  0  0
   17.4078   66.5722   28.1246 C   0  0  0  0  0  0  0  0  0  0  0  0
   18.0692   62.1141   27.8263 H   0  0  0  0  0  0  0  0  0  0  0  0
   18.5144   64.5407   26.1308 H   0  0  0  0  0  0  0  0  0  0  0  0
   14.7380   62.4329   24.6952 H   0  0  0  0  0  0  0  0  0  0  0  0
   15.3030   62.7244   23.0661 H   0  0  0  0  0  0  0  0  0  0  0  0
   13.1730   64.0134   24.4395 H   0  0  0  0  0  0  0  0  0  0  0  0
   13.7738   64.3815   22.8343 H   0  0  0  0  0  0  0  0  0  0  0  0
   14.7628   65.5827   25.4418 H   0  0  0  0  0  0  0  0  0  0  0  0
   13.3550   67.2781   25.2010 H   0  0  0  0  0  0  0  0  0  0  0  0
   12.4655   66.2549   24.1273 H   0  0  0  0  0  0  0  0  0  0  0  0
   13.5785   67.3796   22.1687 H   0  0  0  0  0  0  0  0  0  0  0  0
   14.4251   68.4654   23.3293 H   0  0  0  0  0  0  0  0  0  0  0  0
   11.6417   68.5616   23.8870 H   0  0  0  0  0  0  0  0  0  0  0  0
   10.8135   71.3026   21.9146 H   0  0  0  0  0  0  0  0  0  0  0  0
   13.8547   69.6631   21.2731 H   0  0  0  0  0  0  0  0  0  0  0  0
   12.8025   70.9510   20.8247 H   0  0  0  0  0  0  0  0  0  0  0  0
   16.2942   66.9543   24.0590 H   0  0  0  0  0  0  0  0  0  0  0  0
   15.7120   66.1590   22.6050 H   0  0  0  0  0  0  0  0  0  0  0  0
   17.3195   64.5831   22.8636 H   0  0  0  0  0  0  0  0  0  0  0  0
   17.8122   65.2980   24.3817 H   0  0  0  0  0  0  0  0  0  0  0  0
   20.4732   62.9216   25.8998 H   0  0  0  0  0  0  0  0  0  0  0  0
   19.6479   63.3595   24.4258 H   0  0  0  0  0  0  0  0  0  0  0  0
   20.4015   60.5964   26.7143 H   0  0  0  0  0  0  0  0  0  0  0  0
   21.1384   57.3956   28.1493 H   0  0  0  0  0  0  0  0  0  0  0  0
   20.0162   56.3202   25.0096 H   0  0  0  0  0  0  0  0  0  0  0  0
   20.6996   55.8365   26.5009 H   0  0  0  0  0  0  0  0  0  0  0  0
   18.9631   57.5868   23.9253 H   0  0  0  0  0  0  0  0  0  0  0  0
   18.1150   59.3457   22.4850 H   0  0  0  0  0  0  0  0  0  0  0  0
   18.3636   61.7155   23.1093 H   0  0  0  0  0  0  0  0  0  0  0  0
   15.5798   63.7942   28.9079 H   0  0  0  0  0  0  0  0  0  0  0  0
   13.7338   65.3671   28.4407 H   0  0  0  0  0  0  0  0  0  0  0  0
   12.9550   67.6692   27.7738 H   0  0  0  0  0  0  0  0  0  0  0  0
   13.4854   69.9855   27.1005 H   0  0  0  0  0  0  0  0  0  0  0  0
   15.8467   70.7230   26.9130 H   0  0  0  0  0  0  0  0  0  0  0  0
   17.6774   69.1472   27.3897 H   0  0  0  0  0  0  0  0  0  0  0  0
   18.4433   66.9034   28.0493 H   0  0  0  0  0  0  0  0  0  0  0  0
   10.3106   70.2899   23.2119 H   0  0  0  0  0  0  0  0  0  0  0  0
   20.7642   59.0518   27.9224 H   0  0  0  0  0  0  0  0  0  0  0  0
  1  2  2  0  0  0  0
  1  3  2  0  0  0  0
  1  4  1  0  0  0  0
  1 30  1  0  0  0  0
  4  5  1  0  0  0  0
  4 40  1  0  0  0  0
  5  6  1  0  0  0  0
  5 20  1  0  0  0  0
  5 41  1  6  0  0  0
  6  7  1  0  0  0  0
  6 19  2  0  0  0  0
  7  8  1  0  0  0  0
  7 18  1  0  0  0  0
  8  9  1  0  0  0  0
  8 42  1  0  0  0  0
  8 43  1  0  0  0  0
  9 10  1  0  0  0  0
  9 44  1  0  0  0  0
  9 45  1  0  0  0  0
 10 11  1  0  0  0  0
 10 17  1  0  0  0  0
 10 46  1  1  0  0  0
 11 12  1  0  0  0  0
 11 47  1  0  0  0  0
 11 48  1  0  0  0  0
 12 13  1  0  0  0  0
 12 49  1  0  0  0  0
 12 50  1  0  0  0  0
 13 14  1  0  0  0  0
 13 51  1  0  0  0  0
 14 15  2  0  0  0  0
 14 16  1  0  0  0  0
 15 52  1  0  0  0  0
 15 75  1  0  0  0  0
 16 53  1  0  0  0  0
 16 54  1  0  0  0  0
 17 18  1  0  0  0  0
 17 55  1  0  0  0  0
 17 56  1  0  0  0  0
 18 57  1  0  0  0  0
 18 58  1  0  0  0  0
 20 21  1  0  0  0  0
 20 59  1  0  0  0  0
 20 60  1  0  0  0  0
 21 22  2  0  0  0  0
 21 29  1  0  0  0  0
 22 23  1  0  0  0  0
 22 61  1  0  0  0  0
 23 24  1  0  0  0  0
 23 27  2  0  0  0  0
 24 25  2  0  0  0  0
 24 26  1  0  0  0  0
 25 62  1  0  0  0  0
 25 76  1  0  0  0  0
 26 63  1  0  0  0  0
 26 64  1  0  0  0  0
 27 28  1  0  0  0  0
 27 65  1  0  0  0  0
 28 29  2  0  0  0  0
 28 66  1  0  0  0  0
 29 67  1  0  0  0  0
 30 31  2  0  0  0  0
 30 39  1  0  0  0  0
 31 32  1  0  0  0  0
 31 68  1  0  0  0  0
 32 33  2  0  0  0  0
 32 69  1  0  0  0  0
 33 34  1  0  0  0  0
 33 38  1  0  0  0  0
 34 35  2  0  0  0  0
 34 70  1  0  0  0  0
 35 36  1  0  0  0  0
 35 71  1  0  0  0  0
 36 37  2  0  0  0  0
 36 72  1  0  0  0  0
 37 38  1  0  0  0  0
 37 73  1  0  0  0  0
 38 39  2  0  0  0  0
 39 74  1  0  0  0  0
M  END
$$$$
