7IG
 OpenBabel04051918163D

 45 47  0  0  0  0  0  0  0  0999 V2000
  -10.7258   27.5813  -34.8761 C   0  0  0  0  0  0  0  0  0  0  0  0
   -9.6580   28.0912  -34.2344 N   0  0  0  0  0  0  0  0  0  0  0  0
   -9.5084   27.7938  -32.9379 C   0  0  0  0  0  0  0  0  0  0  0  0
  -10.3512   27.0191  -32.2369 N   0  0  0  0  0  0  0  0  0  0  0  0
  -11.4325   26.5089  -32.8797 C   0  0  0  0  0  0  0  0  0  0  0  0
  -11.6833   26.7660  -34.2370 C   0  0  0  0  0  0  0  0  0  0  0  0
  -10.8141   27.8824  -36.2285 N   0  0  0  0  0  0  0  0  0  0  0  0
   -8.4283   28.3056  -32.2649 N   0  0  0  0  0  0  0  0  0  0  0  0
  -12.3129   25.6006  -32.0363 C   0  0  0  0  0  0  0  0  0  0  0  0
  -11.7486   24.1931  -31.9066 C   0  0  0  0  0  0  0  0  0  0  0  0
  -13.3035   24.2667  -36.4752 C   0  0  0  0  0  0  0  0  0  0  0  0
  -12.3761   24.9817  -35.7423 C   0  0  0  0  0  0  0  0  0  0  0  0
  -12.7545   26.0938  -34.9869 C   0  0  0  0  0  0  0  0  0  0  0  0
  -14.1073   26.4748  -35.0033 C   0  0  0  0  0  0  0  0  0  0  0  0
  -15.0414   25.7433  -35.7617 C   0  0  0  0  0  0  0  0  0  0  0  0
  -14.6473   24.6260  -36.5059 C   0  0  0  0  0  0  0  0  0  0  0  0
  -15.5588   23.9184  -37.2644 N   0  0  0  0  0  0  0  0  0  0  0  0
  -14.3507   22.3422  -41.7011 C   0  0  0  0  0  0  0  0  0  0  0  0
  -14.7770   22.0909  -40.4028 C   0  0  0  0  0  0  0  0  0  0  0  0
  -14.6978   23.0946  -39.4290 C   0  0  0  0  0  0  0  0  0  0  0  0
  -14.1404   24.3341  -39.7881 C   0  0  0  0  0  0  0  0  0  0  0  0
  -13.7217   24.5673  -41.0943 C   0  0  0  0  0  0  0  0  0  0  0  0
  -13.8267   23.5789  -42.0589 C   0  0  0  0  0  0  0  0  0  0  0  0
  -14.4597   21.3715  -42.6167 F   0  0  0  0  0  0  0  0  0  0  0  0
  -15.1756   22.7533  -38.0379 C   0  0  0  0  0  0  0  0  0  0  0  0
  -13.2163   25.7653  -41.4250 F   0  0  0  0  0  0  0  0  0  0  0  0
  -11.5690   27.5461  -36.7964 H   0  0  0  0  0  0  0  0  0  0  0  0
  -10.1011   28.4759  -36.6328 H   0  0  0  0  0  0  0  0  0  0  0  0
   -7.7876   28.9097  -32.7551 H   0  0  0  0  0  0  0  0  0  0  0  0
   -8.3607   28.1149  -31.2979 H   0  0  0  0  0  0  0  0  0  0  0  0
  -13.3273   25.5357  -32.4420 H   0  0  0  0  0  0  0  0  0  0  0  0
  -12.4209   26.0213  -31.0272 H   0  0  0  0  0  0  0  0  0  0  0  0
  -12.4056   23.5612  -31.2961 H   0  0  0  0  0  0  0  0  0  0  0  0
  -10.7629   24.2112  -31.4321 H   0  0  0  0  0  0  0  0  0  0  0  0
  -11.6518   23.7284  -32.8912 H   0  0  0  0  0  0  0  0  0  0  0  0
  -12.9232   23.4271  -37.0568 H   0  0  0  0  0  0  0  0  0  0  0  0
  -11.3369   24.6659  -35.7614 H   0  0  0  0  0  0  0  0  0  0  0  0
  -14.4558   27.3324  -34.4298 H   0  0  0  0  0  0  0  0  0  0  0  0
  -16.0874   26.0535  -35.7738 H   0  0  0  0  0  0  0  0  0  0  0  0
  -16.5235   24.2147  -37.2898 H   0  0  0  0  0  0  0  0  0  0  0  0
  -15.1858   21.1146  -40.1553 H   0  0  0  0  0  0  0  0  0  0  0  0
  -14.0352   25.1358  -39.0624 H   0  0  0  0  0  0  0  0  0  0  0  0
  -13.5064   23.7631  -43.0754 H   0  0  0  0  0  0  0  0  0  0  0  0
  -16.0484   22.0978  -38.1178 H   0  0  0  0  0  0  0  0  0  0  0  0
  -14.4097   22.1576  -37.5277 H   0  0  0  0  0  0  0  0  0  0  0  0
  1  2  2  0  0  0  0
  1  6  1  0  0  0  0
  1  7  1  0  0  0  0
  2  3  1  0  0  0  0
  3  4  2  0  0  0  0
  3  8  1  0  0  0  0
  4  5  1  0  0  0  0
  5  6  2  0  0  0  0
  5  9  1  0  0  0  0
  6 13  1  0  0  0  0
  7 27  1  0  0  0  0
  7 28  1  0  0  0  0
  8 29  1  0  0  0  0
  8 30  1  0  0  0  0
  9 10  1  0  0  0  0
  9 31  1  0  0  0  0
  9 32  1  0  0  0  0
 10 33  1  0  0  0  0
 10 34  1  0  0  0  0
 10 35  1  0  0  0  0
 11 12  2  0  0  0  0
 11 16  1  0  0  0  0
 11 36  1  0  0  0  0
 12 13  1  0  0  0  0
 12 37  1  0  0  0  0
 13 14  2  0  0  0  0
 14 15  1  0  0  0  0
 14 38  1  0  0  0  0
 15 16  2  0  0  0  0
 15 39  1  0  0  0  0
 16 17  1  0  0  0  0
 17 25  1  0  0  0  0
 17 40  1  0  0  0  0
 18 19  2  0  0  0  0
 18 23  1  0  0  0  0
 18 24  1  0  0  0  0
 19 20  1  0  0  0  0
 19 41  1  0  0  0  0
 20 21  2  0  0  0  0
 20 25  1  0  0  0  0
 21 22  1  0  0  0  0
 21 42  1  0  0  0  0
 22 23  2  0  0  0  0
 22 26  1  0  0  0  0
 23 43  1  0  0  0  0
 25 44  1  0  0  0  0
 25 45  1  0  0  0  0
M  END
$$$$
