830
 OpenBabel04051921093D

 42 43  0  0  0  0  0  0  0  0999 V2000
   12.9981   57.9358   36.9772 C   0  0  0  0  0  0  0  0  0  0  0  0
   11.9569   58.6325   36.4063 C   0  0  0  0  0  0  0  0  0  0  0  0
   11.5363   59.8443   36.9533 C   0  0  0  0  0  0  0  0  0  0  0  0
   12.1616   60.3451   38.0961 C   0  0  0  0  0  0  0  0  0  0  0  0
   13.2195   59.6410   38.6758 C   0  0  0  0  0  0  0  0  0  0  0  0
   13.6630   58.4502   38.0999 C   0  0  0  0  0  0  0  0  0  0  0  0
   14.7666   57.8540   38.6664 O   0  0  0  0  0  0  0  0  0  0  0  0
   15.2217   56.7017   38.0709 C   0  0  0  0  0  0  0  0  0  0  0  0
   16.0641   56.7725   36.9562 C   0  0  0  0  0  0  0  0  0  0  0  0
   14.8586   55.4742   38.6186 C   0  0  0  0  0  0  0  0  0  0  0  0
   15.3727   54.3052   38.0680 C   0  0  0  0  0  0  0  0  0  0  0  0
   16.2354   54.3668   36.9695 C   0  0  0  0  0  0  0  0  0  0  0  0
   16.5821   55.6018   36.4009 C   0  0  0  0  0  0  0  0  0  0  0  0
   17.5550   55.6802   35.2586 C   0  0  0  0  0  0  0  0  0  0  0  0
   18.9808   56.0227   35.7025 C   0  0  0  0  0  0  0  0  0  0  0  0
   19.5981   54.9177   36.5474 C   0  0  0  0  0  0  0  0  0  0  0  0
   19.3908   53.6521   35.8970 N   0  0  0  0  0  0  0  0  0  0  0  0
   19.4322   52.4330   36.5587 C   0  0  0  0  0  0  0  0  0  0  0  0
   19.5239   52.3996   37.7878 O   0  0  0  0  0  0  0  0  0  0  0  0
   19.1254   51.2473   35.6857 C   0  0  0  0  0  0  0  0  0  0  0  0
   20.6700   50.2887   35.2649 P   0  0  0  0  0  0  0  0  0  0  0  0
   21.2228   51.0747   34.1014 O   0  0  0  0  0  0  0  0  0  0  0  0
   21.4645   50.2852   36.5249 O   0  0  0  0  0  0  0  0  0  0  0  0
   20.0829   48.9148   34.8832 O   0  0  0  0  0  0  0  0  0  0  0  0
   13.3233   56.9962   36.5344 H   0  0  0  0  0  0  0  0  0  0  0  0
   11.4721   58.2284   35.5175 H   0  0  0  0  0  0  0  0  0  0  0  0
   10.7225   60.3855   36.4925 H   0  0  0  0  0  0  0  0  0  0  0  0
   11.8369   61.2875   38.5227 H   0  0  0  0  0  0  0  0  0  0  0  0
   13.7129   60.0379   39.5589 H   0  0  0  0  0  0  0  0  0  0  0  0
   16.3070   57.7338   36.5214 H   0  0  0  0  0  0  0  0  0  0  0  0
   14.1839   55.4317   39.4669 H   0  0  0  0  0  0  0  0  0  0  0  0
   15.1289   53.3421   38.5046 H   0  0  0  0  0  0  0  0  0  0  0  0
   16.6530   53.4429   36.5709 H   0  0  0  0  0  0  0  0  0  0  0  0
   17.2125   56.4340   34.5455 H   0  0  0  0  0  0  0  0  0  0  0  0
   17.5450   54.7287   34.7105 H   0  0  0  0  0  0  0  0  0  0  0  0
   18.9854   56.9625   36.2632 H   0  0  0  0  0  0  0  0  0  0  0  0
   19.6041   56.1643   34.8080 H   0  0  0  0  0  0  0  0  0  0  0  0
   19.1499   54.9066   37.5485 H   0  0  0  0  0  0  0  0  0  0  0  0
   20.6751   55.0835   36.6733 H   0  0  0  0  0  0  0  0  0  0  0  0
   19.2886   53.5924   34.8934 H   0  0  0  0  0  0  0  0  0  0  0  0
   18.6289   51.5712   34.7544 H   0  0  0  0  0  0  0  0  0  0  0  0
   18.3913   50.6136   36.2126 H   0  0  0  0  0  0  0  0  0  0  0  0
  1  2  2  0  0  0  0
  1  6  1  0  0  0  0
  1 25  1  0  0  0  0
  2  3  1  0  0  0  0
  2 26  1  0  0  0  0
  3  4  2  0  0  0  0
  3 27  1  0  0  0  0
  4  5  1  0  0  0  0
  4 28  1  0  0  0  0
  5  6  2  0  0  0  0
  5 29  1  0  0  0  0
  6  7  1  0  0  0  0
  7  8  1  0  0  0  0
  8  9  2  0  0  0  0
  8 10  1  0  0  0  0
  9 13  1  0  0  0  0
  9 30  1  0  0  0  0
 10 11  2  0  0  0  0
 10 31  1  0  0  0  0
 11 12  1  0  0  0  0
 11 32  1  0  0  0  0
 12 13  2  0  0  0  0
 12 33  1  0  0  0  0
 13 14  1  0  0  0  0
 14 15  1  0  0  0  0
 14 34  1  0  0  0  0
 14 35  1  0  0  0  0
 15 16  1  0  0  0  0
 15 36  1  0  0  0  0
 15 37  1  0  0  0  0
 16 17  1  0  0  0  0
 16 38  1  0  0  0  0
 16 39  1  0  0  0  0
 17 18  1  0  0  0  0
 17 40  1  0  0  0  0
 18 19  2  0  0  0  0
 18 20  1  0  0  0  0
 20 21  1  0  0  0  0
 20 41  1  0  0  0  0
 20 42  1  0  0  0  0
 21 22  2  0  0  0  0
 21 23  1  0  0  0  0
 21 24  1  0  0  0  0
M  END
$$$$
