857
 OpenBabel04051919093D

 63 67  0  0  1  0  0  0  0  0999 V2000
   39.5536   38.5149   10.5239 C   0  0  0  0  0  0  0  0  0  0  0  0
   38.7470   37.4772   10.9990 C   0  0  0  0  0  0  0  0  0  0  0  0
   37.5807   37.7536   11.7217 C   0  0  0  0  0  0  0  0  0  0  0  0
   37.3027   39.0827   12.0504 C   0  0  0  0  0  0  0  0  0  0  0  0
   38.1297   40.1302   11.6350 C   0  0  0  0  0  0  0  0  0  0  0  0
   39.2358   39.8391   10.8275 C   0  0  0  0  0  0  0  0  0  0  0  0
   40.9290   27.6716   13.2363 C   0  0  0  0  0  0  0  0  0  0  0  0
   40.9800   27.7025   11.8771 N   0  0  0  0  0  0  0  0  0  0  0  0
   40.1815   28.5500   14.0007 C   0  0  0  0  0  0  0  0  0  0  0  0
   39.4243   29.5169   13.3564 C   0  0  0  0  0  0  0  0  0  0  0  0
   39.4384   29.5779   11.9669 C   0  0  0  0  0  0  0  0  0  0  0  0
   40.2289   28.6603   11.2822 C   0  0  0  0  0  0  0  0  0  0  0  0
   38.6316   32.5819   13.4898 C   0  0  0  0  0  0  0  0  0  0  0  0
   37.8369   33.6501   13.0741 C   0  0  0  0  0  0  0  0  0  0  0  0
   36.4708   33.4627   12.9239 C   0  0  0  0  0  0  0  0  0  0  0  0
   35.8050   32.2594   13.1215 C   0  0  0  0  0  0  0  0  0  0  0  0
   36.6074   31.1953   13.5429 C   0  0  0  0  0  0  0  0  0  0  0  0
   37.9893   31.3574   13.7058 C   0  0  0  0  0  0  0  0  0  0  0  0
   36.9986   35.5021   12.5007 C   0  0  0  0  0  0  0  0  0  0  0  0
   36.7053   36.7698   12.2005 N   0  0  0  0  0  0  0  0  0  0  0  0
   38.1644   34.9438   12.7764 N   0  0  0  0  0  0  0  0  0  0  0  0
   40.2435   41.0983   10.2081 Cl  0  0  0  0  0  0  0  0  0  0  0  0
   38.7043   30.3094   14.2176 O   0  0  0  0  0  0  0  0  0  0  0  0
   35.9277   34.6629   12.5824 O   0  0  0  0  0  0  0  0  0  0  0  0
   41.7052   26.6194   13.9575 C   0  0  0  0  0  0  0  0  0  0  0  0
   41.6591   26.5511   15.1910 O   0  0  0  0  0  0  0  0  0  0  0  0
   42.4385   25.7451   13.1904 N   0  0  0  0  0  0  0  0  0  0  0  0
   43.1722   24.6868   13.8348 C   0  0  0  0  0  0  0  0  0  0  0  0
   37.9156   41.4405   11.9735 O   0  0  0  0  0  0  0  0  0  0  0  0
   36.9723   41.6979   13.0109 C   0  0  0  0  0  0  0  0  0  0  0  0
   37.7000   43.8738   13.9843 N   0  3  2  0  0  0  0  0  0  0  0  0
   38.4489   44.9141   13.2048 C   0  0  0  0  0  0  0  0  0  0  0  0
   38.0659   44.7219   11.7552 C   0  0  0  0  0  0  0  0  0  0  0  0
   36.7796   43.9237   11.7300 C   0  0  0  0  0  0  0  0  0  0  0  0
   36.6749   43.2053   13.0739 C   0  0  1  0  0  0  0  0  0  0  0  0
   37.1576   44.3414   15.3040 C   0  0  0  0  0  0  0  0  0  0  0  0
   40.4257   38.2796    9.9196 H   0  0  0  0  0  0  0  0  0  0  0  0
   39.0161   36.4498   10.7591 H   0  0  0  0  0  0  0  0  0  0  0  0
   36.4215   39.2549   12.6524 H   0  0  0  0  0  0  0  0  0  0  0  0
   40.1778   28.4796   15.0837 H   0  0  0  0  0  0  0  0  0  0  0  0
   38.8570   30.3025   11.4093 H   0  0  0  0  0  0  0  0  0  0  0  0
   40.2720   28.6716   10.1952 H   0  0  0  0  0  0  0  0  0  0  0  0
   39.6943   32.7085   13.6605 H   0  0  0  0  0  0  0  0  0  0  0  0
   34.7358   32.1595   12.9838 H   0  0  0  0  0  0  0  0  0  0  0  0
   36.1526   30.2326   13.7677 H   0  0  0  0  0  0  0  0  0  0  0  0
   35.7376   37.0502   12.3225 H   0  0  0  0  0  0  0  0  0  0  0  0
   42.4107   25.8488   12.1809 H   0  0  0  0  0  0  0  0  0  0  0  0
   43.7075   24.0973   13.0881 H   0  0  0  0  0  0  0  0  0  0  0  0
   42.4699   24.0540   14.3849 H   0  0  0  0  0  0  0  0  0  0  0  0
   43.8770   25.1279   14.5458 H   0  0  0  0  0  0  0  0  0  0  0  0
   37.3960   41.3431   13.9605 H   0  0  0  0  0  0  0  0  0  0  0  0
   36.0161   41.1979   12.8372 H   0  0  0  0  0  0  0  0  0  0  0  0
   39.5143   44.7211   13.3698 H   0  0  0  0  0  0  0  0  0  0  0  0
   38.1864   45.9049   13.5844 H   0  0  0  0  0  0  0  0  0  0  0  0
   38.8611   44.1903   11.2210 H   0  0  0  0  0  0  0  0  0  0  0  0
   37.9383   45.6875   11.2539 H   0  0  0  0  0  0  0  0  0  0  0  0
   36.7708   43.2376   10.8736 H   0  0  0  0  0  0  0  0  0  0  0  0
   35.9185   44.5842   11.5819 H   0  0  0  0  0  0  0  0  0  0  0  0
   35.6847   43.3622   13.5190 H   0  0  0  0  0  0  0  0  0  0  0  0
   37.9563   44.8702   15.8303 H   0  0  0  0  0  0  0  0  0  0  0  0
   36.8633   43.4556   15.8742 H   0  0  0  0  0  0  0  0  0  0  0  0
   36.2987   44.9976   15.1357 H   0  0  0  0  0  0  0  0  0  0  0  0
   38.4106   43.1666   14.2118 H   0  0  0  0  0  0  0  0  0  0  0  0
  1  2  2  0  0  0  0
  1  6  1  0  0  0  0
  1 37  1  0  0  0  0
  2  3  1  0  0  0  0
  2 38  1  0  0  0  0
  3  4  2  0  0  0  0
  3 20  1  0  0  0  0
  4  5  1  0  0  0  0
  4 39  1  0  0  0  0
  5  6  2  0  0  0  0
  5 29  1  0  0  0  0
  6 22  1  0  0  0  0
  7  8  2  0  0  0  0
  7  9  1  0  0  0  0
  7 25  1  0  0  0  0
  8 12  1  0  0  0  0
  9 10  2  0  0  0  0
  9 40  1  0  0  0  0
 10 11  1  0  0  0  0
 10 23  1  0  0  0  0
 11 12  2  0  0  0  0
 11 41  1  0  0  0  0
 12 42  1  0  0  0  0
 13 14  2  0  0  0  0
 13 18  1  0  0  0  0
 13 43  1  0  0  0  0
 14 15  1  0  0  0  0
 14 21  1  0  0  0  0
 15 16  2  0  0  0  0
 15 24  1  0  0  0  0
 16 17  1  0  0  0  0
 16 44  1  0  0  0  0
 17 18  2  0  0  0  0
 17 45  1  0  0  0  0
 18 23  1  0  0  0  0
 19 20  1  0  0  0  0
 19 21  2  0  0  0  0
 19 24  1  0  0  0  0
 20 46  1  0  0  0  0
 25 26  2  0  0  0  0
 25 27  1  0  0  0  0
 27 28  1  0  0  0  0
 27 47  1  0  0  0  0
 28 48  1  0  0  0  0
 28 49  1  0  0  0  0
 28 50  1  0  0  0  0
 29 30  1  0  0  0  0
 30 35  1  0  0  0  0
 30 51  1  0  0  0  0
 30 52  1  0  0  0  0
 31 32  1  0  0  0  0
 31 35  1  0  0  0  0
 31 36  1  0  0  0  0
 31 63  1  1  0  0  0
 32 33  1  0  0  0  0
 32 53  1  0  0  0  0
 32 54  1  0  0  0  0
 33 34  1  0  0  0  0
 33 55  1  0  0  0  0
 33 56  1  0  0  0  0
 34 35  1  0  0  0  0
 34 57  1  0  0  0  0
 34 58  1  0  0  0  0
 35 59  1  1  0  0  0
 36 60  1  0  0  0  0
 36 61  1  0  0  0  0
 36 62  1  0  0  0  0
M  CHG  1  31   1
M  END
$$$$
