894
 OpenBabel04051919283D

 52 54  0  0  1  0  0  0  0  0999 V2000
   13.8946    7.1849   26.1052 Cl  0  0  0  0  0  0  0  0  0  0  0  0
   12.1991    7.4715   26.0458 C   0  0  0  0  0  0  0  0  0  0  0  0
   11.3209    7.0714   27.0228 C   0  0  0  0  0  0  0  0  0  0  0  0
    9.9940    7.4490   26.6913 C   0  0  0  0  0  0  0  0  0  0  0  0
    9.9083    8.1228   25.4805 C   0  0  0  0  0  0  0  0  0  0  0  0
    8.6392    8.6756   24.8985 C   0  0  0  0  0  0  0  0  0  0  0  0
    6.4654    8.5679   23.2670 S   0  0  0  0  0  0  0  0  0  0  0  0
    6.3849    9.9202   22.8112 O   0  0  0  0  0  0  0  0  0  0  0  0
    5.7583    8.1397   24.4583 O   0  0  0  0  0  0  0  0  0  0  0  0
    5.9561    7.6492   21.9943 N   0  0  0  0  0  0  0  0  0  0  0  0
    5.9124    6.2065   22.1037 C   0  0  1  0  0  0  0  0  0  0  0  0
    4.6347    5.6018   21.5325 C   0  0  0  0  0  0  0  0  0  0  0  0
    5.0795    4.4381   20.6540 C   0  0  0  0  0  0  0  0  0  0  0  0
    7.0285    5.5840   21.3015 C   0  0  0  0  0  0  0  0  0  0  0  0
    8.1860    5.9735   21.2648 O   0  0  0  0  0  0  0  0  0  0  0  0
    6.5275    4.4624   20.6798 N   0  0  0  0  0  0  0  0  0  0  0  0
    7.3868    3.4190   20.1003 C   0  0  1  0  0  0  0  0  0  0  0  0
    7.0098    2.0677   20.6946 C   0  0  0  0  0  0  0  0  0  0  0  0
    7.2935    3.4358   18.5681 C   0  0  0  0  0  0  0  0  0  0  0  0
    6.2316    3.7592   18.0165 O   0  0  0  0  0  0  0  0  0  0  0  0
    8.3923    3.0595   17.8188 N   0  0  0  0  0  0  0  0  0  0  0  0
    9.6540    2.5201   18.3540 C   0  0  0  0  0  0  0  0  0  0  0  0
   10.1658    1.3481   17.5205 C   0  0  0  0  0  0  0  0  0  0  0  0
   10.1698    1.6871   16.1258 O   0  0  0  0  0  0  0  0  0  0  0  0
    8.8457    2.0096   15.6608 C   0  0  0  0  0  0  0  0  0  0  0  0
    8.3391    3.2520   16.3613 C   0  0  0  0  0  0  0  0  0  0  0  0
   11.4571    8.2912   24.7566 S   0  0  0  0  0  0  0  0  0  0  0  0
    8.2658    8.1934   23.5053 C   0  0  0  0  0  0  0  0  0  0  0  0
   11.6131    6.5409   27.9151 H   0  0  0  0  0  0  0  0  0  0  0  0
    9.1231    7.2428   27.2987 H   0  0  0  0  0  0  0  0  0  0  0  0
    8.7148    9.7668   24.8851 H   0  0  0  0  0  0  0  0  0  0  0  0
    7.8234    8.4013   25.5839 H   0  0  0  0  0  0  0  0  0  0  0  0
    5.6989    8.1002   21.1145 H   0  0  0  0  0  0  0  0  0  0  0  0
    6.0153    5.9231   23.1517 H   0  0  0  0  0  0  0  0  0  0  0  0
    4.0626    6.3335   20.9500 H   0  0  0  0  0  0  0  0  0  0  0  0
    3.9888    5.2356   22.3433 H   0  0  0  0  0  0  0  0  0  0  0  0
    4.7052    4.5730   19.6319 H   0  0  0  0  0  0  0  0  0  0  0  0
    4.7122    3.4886   21.0468 H   0  0  0  0  0  0  0  0  0  0  0  0
    8.4226    3.6432   20.3829 H   0  0  0  0  0  0  0  0  0  0  0  0
    7.6324    1.2714   20.2818 H   0  0  0  0  0  0  0  0  0  0  0  0
    5.9622    1.8281   20.4775 H   0  0  0  0  0  0  0  0  0  0  0  0
    7.1360    2.0833   21.7863 H   0  0  0  0  0  0  0  0  0  0  0  0
    9.5095    2.1758   19.3769 H   0  0  0  0  0  0  0  0  0  0  0  0
   10.4062    3.3157   18.3438 H   0  0  0  0  0  0  0  0  0  0  0  0
    9.5415    0.4586   17.6797 H   0  0  0  0  0  0  0  0  0  0  0  0
   11.1966    1.1006   17.8092 H   0  0  0  0  0  0  0  0  0  0  0  0
    8.1746    1.1618   15.8520 H   0  0  0  0  0  0  0  0  0  0  0  0
    8.9031    2.1754   14.5780 H   0  0  0  0  0  0  0  0  0  0  0  0
    8.9701    4.1110   16.0913 H   0  0  0  0  0  0  0  0  0  0  0  0
    7.3140    3.4595   16.0365 H   0  0  0  0  0  0  0  0  0  0  0  0
    8.4338    7.1231   23.4045 H   0  0  0  0  0  0  0  0  0  0  0  0
    8.8368    8.7408   22.7492 H   0  0  0  0  0  0  0  0  0  0  0  0
  1  2  1  0  0  0  0
  2  3  2  0  0  0  0
  2 27  1  0  0  0  0
  3  4  1  0  0  0  0
  3 29  1  0  0  0  0
  4  5  2  0  0  0  0
  4 30  1  0  0  0  0
  5  6  1  0  0  0  0
  5 27  1  0  0  0  0
  6 28  1  0  0  0  0
  6 31  1  0  0  0  0
  6 32  1  0  0  0  0
  7  8  2  0  0  0  0
  7  9  2  0  0  0  0
  7 10  1  0  0  0  0
  7 28  1  0  0  0  0
 10 11  1  0  0  0  0
 10 33  1  0  0  0  0
 11 12  1  0  0  0  0
 11 14  1  0  0  0  0
 11 34  1  1  0  0  0
 12 13  1  0  0  0  0
 12 35  1  0  0  0  0
 12 36  1  0  0  0  0
 13 16  1  0  0  0  0
 13 37  1  0  0  0  0
 13 38  1  0  0  0  0
 14 15  2  0  0  0  0
 14 16  1  0  0  0  0
 16 17  1  0  0  0  0
 17 18  1  0  0  0  0
 17 19  1  0  0  0  0
 17 39  1  1  0  0  0
 18 40  1  0  0  0  0
 18 41  1  0  0  0  0
 18 42  1  0  0  0  0
 19 20  2  0  0  0  0
 19 21  1  0  0  0  0
 21 22  1  0  0  0  0
 21 26  1  0  0  0  0
 22 23  1  0  0  0  0
 22 43  1  0  0  0  0
 22 44  1  0  0  0  0
 23 24  1  0  0  0  0
 23 45  1  0  0  0  0
 23 46  1  0  0  0  0
 24 25  1  0  0  0  0
 25 26  1  0  0  0  0
 25 47  1  0  0  0  0
 25 48  1  0  0  0  0
 26 49  1  0  0  0  0
 26 50  1  0  0  0  0
 28 51  1  0  0  0  0
 28 52  1  0  0  0  0
M  END
$$$$
