895
 OpenBabel04051919283D

 50 52  0  0  1  0  0  0  0  0999 V2000
   13.7682    7.5230   26.1437 Cl  0  0  0  0  0  0  0  0  0  0  0  0
   12.0647    7.7556   26.1753 C   0  0  0  0  0  0  0  0  0  0  0  0
   11.2250    7.3750   27.1785 C   0  0  0  0  0  0  0  0  0  0  0  0
    9.8655    7.6657   26.8497 C   0  0  0  0  0  0  0  0  0  0  0  0
    9.7129    8.2870   25.6082 C   0  0  0  0  0  0  0  0  0  0  0  0
    8.4868    8.7445   25.0238 C   0  0  0  0  0  0  0  0  0  0  0  0
    6.6365    9.3226   23.2805 S   0  0  0  0  0  0  0  0  0  0  0  0
    6.6835   10.6903   22.7537 O   0  0  0  0  0  0  0  0  0  0  0  0
    5.7506    9.0179   24.3739 O   0  0  0  0  0  0  0  0  0  0  0  0
    6.1426    8.3762   21.9982 N   0  0  0  0  0  0  0  0  0  0  0  0
    6.0418    6.9339   22.1679 C   0  0  1  0  0  0  0  0  0  0  0  0
    4.7415    6.3324   21.6389 C   0  0  0  0  0  0  0  0  0  0  0  0
    5.1135    4.8606   21.4268 C   0  0  0  0  0  0  0  0  0  0  0  0
    7.0627    6.1406   21.3715 C   0  0  0  0  0  0  0  0  0  0  0  0
    8.2046    6.4908   21.1326 O   0  0  0  0  0  0  0  0  0  0  0  0
    6.5085    4.9362   21.0268 N   0  0  0  0  0  0  0  0  0  0  0  0
    7.2903    3.9398   20.2878 C   0  0  1  0  0  0  0  0  0  0  0  0
    7.0636    2.5363   20.8039 C   0  0  0  0  0  0  0  0  0  0  0  0
    7.0225    4.0000   18.7784 C   0  0  0  0  0  0  0  0  0  0  0  0
    5.9831    4.5018   18.3458 O   0  0  0  0  0  0  0  0  0  0  0  0
    7.9472    3.3765   17.9421 N   0  0  0  0  0  0  0  0  0  0  0  0
    9.2290    2.8022   18.3958 C   0  0  0  0  0  0  0  0  0  0  0  0
    9.9451    1.9222   17.3880 C   0  0  0  0  0  0  0  0  0  0  0  0
    9.9100    2.5433   16.1067 O   0  0  0  0  0  0  0  0  0  0  0  0
    8.5550    2.5626   15.6467 C   0  0  0  0  0  0  0  0  0  0  0  0
    7.6789    3.4617   16.5068 C   0  0  0  0  0  0  0  0  0  0  0  0
   11.2703    8.4981   24.8725 S   0  0  0  0  0  0  0  0  0  0  0  0
    8.2448    8.8237   23.6963 C   0  0  0  0  0  0  0  0  0  0  0  0
   11.5427    6.8950   28.1089 H   0  0  0  0  0  0  0  0  0  0  0  0
    9.0380    7.4247   27.4937 H   0  0  0  0  0  0  0  0  0  0  0  0
    7.6879    9.0043   25.7029 H   0  0  0  0  0  0  0  0  0  0  0  0
    6.0051    8.8200   21.0937 H   0  0  0  0  0  0  0  0  0  0  0  0
    6.1548    6.6882   23.2265 H   0  0  0  0  0  0  0  0  0  0  0  0
    4.4369    6.7890   20.6859 H   0  0  0  0  0  0  0  0  0  0  0  0
    3.9204    6.4451   22.3530 H   0  0  0  0  0  0  0  0  0  0  0  0
    4.4930    4.3795   20.6647 H   0  0  0  0  0  0  0  0  0  0  0  0
    5.0418    4.3013   22.3669 H   0  0  0  0  0  0  0  0  0  0  0  0
    8.3457    4.2044   20.4203 H   0  0  0  0  0  0  0  0  0  0  0  0
    7.6320    1.7979   20.2460 H   0  0  0  0  0  0  0  0  0  0  0  0
    6.0213    2.2454   20.7019 H   0  0  0  0  0  0  0  0  0  0  0  0
    7.3724    2.4664   21.8432 H   0  0  0  0  0  0  0  0  0  0  0  0
    9.0521    2.1879   19.2644 H   0  0  0  0  0  0  0  0  0  0  0  0
    9.8904    3.6140   18.7032 H   0  0  0  0  0  0  0  0  0  0  0  0
    9.4739    0.9286   17.3281 H   0  0  0  0  0  0  0  0  0  0  0  0
   10.9888    1.7738   17.6903 H   0  0  0  0  0  0  0  0  0  0  0  0
    8.1611    1.5396   15.6612 H   0  0  0  0  0  0  0  0  0  0  0  0
    8.5457    2.9202   14.6152 H   0  0  0  0  0  0  0  0  0  0  0  0
    7.8019    4.5034   16.1867 H   0  0  0  0  0  0  0  0  0  0  0  0
    6.6291    3.1823   16.3521 H   0  0  0  0  0  0  0  0  0  0  0  0
    8.9573    8.5838   22.9313 H   0  0  0  0  0  0  0  0  0  0  0  0
  1  2  1  0  0  0  0
  2  3  2  0  0  0  0
  2 27  1  0  0  0  0
  3  4  1  0  0  0  0
  3 29  1  0  0  0  0
  4  5  2  0  0  0  0
  4 30  1  0  0  0  0
  5  6  1  0  0  0  0
  5 27  1  0  0  0  0
  6 28  2  0  0  0  0
  6 31  1  0  0  0  0
  7  8  2  0  0  0  0
  7  9  2  0  0  0  0
  7 10  1  0  0  0  0
  7 28  1  0  0  0  0
 10 11  1  0  0  0  0
 10 32  1  0  0  0  0
 11 12  1  0  0  0  0
 11 14  1  0  0  0  0
 11 33  1  1  0  0  0
 12 13  1  0  0  0  0
 12 34  1  0  0  0  0
 12 35  1  0  0  0  0
 13 16  1  0  0  0  0
 13 36  1  0  0  0  0
 13 37  1  0  0  0  0
 14 15  2  0  0  0  0
 14 16  1  0  0  0  0
 16 17  1  0  0  0  0
 17 18  1  0  0  0  0
 17 19  1  0  0  0  0
 17 38  1  1  0  0  0
 18 39  1  0  0  0  0
 18 40  1  0  0  0  0
 18 41  1  0  0  0  0
 19 20  2  0  0  0  0
 19 21  1  0  0  0  0
 21 22  1  0  0  0  0
 21 26  1  0  0  0  0
 22 23  1  0  0  0  0
 22 42  1  0  0  0  0
 22 43  1  0  0  0  0
 23 24  1  0  0  0  0
 23 44  1  0  0  0  0
 23 45  1  0  0  0  0
 24 25  1  0  0  0  0
 25 26  1  0  0  0  0
 25 46  1  0  0  0  0
 25 47  1  0  0  0  0
 26 48  1  0  0  0  0
 26 49  1  0  0  0  0
 28 50  1  0  0  0  0
M  END
$$$$
