895
 OpenBabel04051918263D

 50 52  0  0  1  0  0  0  0  0999 V2000
    9.8138   25.2558   46.3057 Cl  0  0  0  0  0  0  0  0  0  0  0  0
   10.1072   23.7335   47.0450 C   0  0  0  0  0  0  0  0  0  0  0  0
   11.0062   22.7935   46.6204 C   0  0  0  0  0  0  0  0  0  0  0  0
   10.9880   21.6529   47.4718 C   0  0  0  0  0  0  0  0  0  0  0  0
   10.0623   21.7524   48.5073 C   0  0  0  0  0  0  0  0  0  0  0  0
    9.7288   20.7769   49.4962 C   0  0  0  0  0  0  0  0  0  0  0  0
    9.5379   18.2025   50.2735 S   0  0  0  0  0  0  0  0  0  0  0  0
   10.2321   18.3970   51.5287 O   0  0  0  0  0  0  0  0  0  0  0  0
    9.6693   16.9597   49.5463 O   0  0  0  0  0  0  0  0  0  0  0  0
    7.9226   18.3584   50.6472 N   0  0  0  0  0  0  0  0  0  0  0  0
    6.9323   17.8967   49.6873 C   0  0  1  0  0  0  0  0  0  0  0  0
    5.9593   16.9393   50.3729 C   0  0  0  0  0  0  0  0  0  0  0  0
    4.5850   17.2743   49.8280 C   0  0  0  0  0  0  0  0  0  0  0  0
    6.0620   18.9492   49.0585 C   0  0  0  0  0  0  0  0  0  0  0  0
    6.4402   20.0178   48.6060 O   0  0  0  0  0  0  0  0  0  0  0  0
    4.7699   18.4603   49.0274 N   0  0  0  0  0  0  0  0  0  0  0  0
    3.7199   19.0016   48.1536 C   0  0  1  0  0  0  0  0  0  0  0  0
    3.6735   18.2009   46.8520 C   0  0  0  0  0  0  0  0  0  0  0  0
    2.3509   19.0305   48.8590 C   0  0  0  0  0  0  0  0  0  0  0  0
    1.3772   18.4300   48.3903 O   0  0  0  0  0  0  0  0  0  0  0  0
    2.2536   19.7603   50.0371 N   0  0  0  0  0  0  0  0  0  0  0  0
    0.9752   19.7943   50.7509 C   0  0  0  0  0  0  0  0  0  0  0  0
    1.1720   19.7569   52.2731 C   0  0  0  0  0  0  0  0  0  0  0  0
    2.1730   20.6768   52.7344 O   0  0  0  0  0  0  0  0  0  0  0  0
    3.4242   20.4282   52.0826 C   0  0  0  0  0  0  0  0  0  0  0  0
    3.2790   20.6638   50.5836 C   0  0  0  0  0  0  0  0  0  0  0  0
    9.2610   23.2736   48.4381 S   0  0  0  0  0  0  0  0  0  0  0  0
    9.9399   19.4837   49.2050 C   0  0  0  0  0  0  0  0  0  0  0  0
   11.6429   22.9015   45.7495 H   0  0  0  0  0  0  0  0  0  0  0  0
   11.6231   20.7931   47.3110 H   0  0  0  0  0  0  0  0  0  0  0  0
    9.2892   21.0910   50.4402 H   0  0  0  0  0  0  0  0  0  0  0  0
    7.6727   18.9728   51.4173 H   0  0  0  0  0  0  0  0  0  0  0  0
    7.3915   17.3760   48.8392 H   0  0  0  0  0  0  0  0  0  0  0  0
    5.9779   17.0381   51.4656 H   0  0  0  0  0  0  0  0  0  0  0  0
    6.2243   15.9009   50.1482 H   0  0  0  0  0  0  0  0  0  0  0  0
    3.8978   17.5037   50.6501 H   0  0  0  0  0  0  0  0  0  0  0  0
    4.1648   16.4607   49.2325 H   0  0  0  0  0  0  0  0  0  0  0  0
    3.9791   20.0355   47.8840 H   0  0  0  0  0  0  0  0  0  0  0  0
    2.8968   18.5796   46.1800 H   0  0  0  0  0  0  0  0  0  0  0  0
    3.4584   17.1436   47.0424 H   0  0  0  0  0  0  0  0  0  0  0  0
    4.6342   18.2526   46.3291 H   0  0  0  0  0  0  0  0  0  0  0  0
    0.3398   18.9562   50.4483 H   0  0  0  0  0  0  0  0  0  0  0  0
    0.4696   20.7213   50.4564 H   0  0  0  0  0  0  0  0  0  0  0  0
    1.4565   18.7490   52.5950 H   0  0  0  0  0  0  0  0  0  0  0  0
    0.2309   20.0125   52.7688 H   0  0  0  0  0  0  0  0  0  0  0  0
    3.7473   19.4020   52.2917 H   0  0  0  0  0  0  0  0  0  0  0  0
    4.1724   21.1074   52.5001 H   0  0  0  0  0  0  0  0  0  0  0  0
    2.9439   21.6865   50.3842 H   0  0  0  0  0  0  0  0  0  0  0  0
    4.2424   20.5480   50.0944 H   0  0  0  0  0  0  0  0  0  0  0  0
   10.3724   19.1598   48.2707 H   0  0  0  0  0  0  0  0  0  0  0  0
  1  2  1  0  0  0  0
  2  3  2  0  0  0  0
  2 27  1  0  0  0  0
  3  4  1  0  0  0  0
  3 29  1  0  0  0  0
  4  5  2  0  0  0  0
  4 30  1  0  0  0  0
  5  6  1  0  0  0  0
  5 27  1  0  0  0  0
  6 28  2  0  0  0  0
  6 31  1  0  0  0  0
  7  8  2  0  0  0  0
  7  9  2  0  0  0  0
  7 10  1  0  0  0  0
  7 28  1  0  0  0  0
 10 11  1  0  0  0  0
 10 32  1  0  0  0  0
 11 12  1  0  0  0  0
 11 14  1  0  0  0  0
 11 33  1  6  0  0  0
 12 13  1  0  0  0  0
 12 34  1  0  0  0  0
 12 35  1  0  0  0  0
 13 16  1  0  0  0  0
 13 36  1  0  0  0  0
 13 37  1  0  0  0  0
 14 15  2  0  0  0  0
 14 16  1  0  0  0  0
 16 17  1  0  0  0  0
 17 18  1  0  0  0  0
 17 19  1  0  0  0  0
 17 38  1  6  0  0  0
 18 39  1  0  0  0  0
 18 40  1  0  0  0  0
 18 41  1  0  0  0  0
 19 20  2  0  0  0  0
 19 21  1  0  0  0  0
 21 22  1  0  0  0  0
 21 26  1  0  0  0  0
 22 23  1  0  0  0  0
 22 42  1  0  0  0  0
 22 43  1  0  0  0  0
 23 24  1  0  0  0  0
 23 44  1  0  0  0  0
 23 45  1  0  0  0  0
 24 25  1  0  0  0  0
 25 26  1  0  0  0  0
 25 46  1  0  0  0  0
 25 47  1  0  0  0  0
 26 48  1  0  0  0  0
 26 49  1  0  0  0  0
 28 50  1  0  0  0  0
M  END
$$$$
