898
 OpenBabel04051920093D

 54 56  0  0  1  0  0  0  0  0999 V2000
   13.8061    7.2037   26.2026 Cl  0  0  0  0  0  0  0  0  0  0  0  0
   12.0977    7.3163   26.3333 C   0  0  0  0  0  0  0  0  0  0  0  0
   11.3338    6.8831   27.3809 C   0  0  0  0  0  0  0  0  0  0  0  0
    9.9530    7.1490   27.1419 C   0  0  0  0  0  0  0  0  0  0  0  0
   11.1977    8.0174   25.0849 S   0  0  0  0  0  0  0  0  0  0  0  0
    9.7075    7.7653   25.9187 C   0  0  0  0  0  0  0  0  0  0  0  0
    8.4323    8.1823   25.4329 C   0  0  0  0  0  0  0  0  0  0  0  0
    8.1584    8.6022   24.1845 C   0  0  0  0  0  0  0  0  0  0  0  0
    6.5493    9.1665   23.8396 S   0  0  0  0  0  0  0  0  0  0  0  0
    6.6415   10.4277   23.1393 O   0  0  0  0  0  0  0  0  0  0  0  0
    5.7251    9.0517   25.0324 O   0  0  0  0  0  0  0  0  0  0  0  0
    5.8311    8.1437   22.7412 N   0  0  0  0  0  0  0  0  0  0  0  0
    5.8599    6.7025   22.8901 C   0  0  1  0  0  0  0  0  0  0  0  0
    4.5178    6.0665   22.5419 C   0  0  0  0  0  0  0  0  0  0  0  0
    4.8843    4.7219   21.9360 C   0  0  0  0  0  0  0  0  0  0  0  0
    6.8046    6.0922   21.8697 C   0  0  0  0  0  0  0  0  0  0  0  0
    7.9247    6.5118   21.6153 O   0  0  0  0  0  0  0  0  0  0  0  0
    6.1985    4.9277   21.3919 N   0  0  0  0  0  0  0  0  0  0  0  0
    6.8621    3.9917   20.5860 C   0  0  0  0  0  0  0  0  0  0  0  0
    7.5952    4.4091   19.4759 C   0  0  0  0  0  0  0  0  0  0  0  0
    7.5735    5.6883   19.0707 F   0  0  0  0  0  0  0  0  0  0  0  0
    6.8255    2.6288   20.8910 C   0  0  0  0  0  0  0  0  0  0  0  0
    7.5278    1.7078   20.1123 C   0  0  0  0  0  0  0  0  0  0  0  0
    8.2498    2.1345   18.9851 C   0  0  0  0  0  0  0  0  0  0  0  0
    8.2773    3.4991   18.6831 C   0  0  0  0  0  0  0  0  0  0  0  0
    8.9435    1.1268   18.0883 C   0  0  2  0  0  0  0  0  0  0  0  0
   10.4059    1.4995   17.8283 C   0  0  0  0  0  0  0  0  0  0  0  0
    8.2003    0.8593   16.7736 N   0  3  0  0  0  0  0  0  0  0  0  0
    6.7994    0.3396   17.0045 C   0  0  0  0  0  0  0  0  0  0  0  0
    8.1726    1.9833   15.7725 C   0  0  0  0  0  0  0  0  0  0  0  0
   11.7295    6.4126   28.2734 H   0  0  0  0  0  0  0  0  0  0  0  0
    9.1663    6.9065   27.8485 H   0  0  0  0  0  0  0  0  0  0  0  0
    7.6324    8.1640   26.1709 H   0  0  0  0  0  0  0  0  0  0  0  0
    8.8820    8.6735   23.3848 H   0  0  0  0  0  0  0  0  0  0  0  0
    5.4561    8.5937   21.9080 H   0  0  0  0  0  0  0  0  0  0  0  0
    6.1869    6.3819   23.8851 H   0  0  0  0  0  0  0  0  0  0  0  0
    3.9661    6.6712   21.8110 H   0  0  0  0  0  0  0  0  0  0  0  0
    3.8719    5.9477   23.4185 H   0  0  0  0  0  0  0  0  0  0  0  0
    4.1911    4.4562   21.1278 H   0  0  0  0  0  0  0  0  0  0  0  0
    4.9007    3.9245   22.6820 H   0  0  0  0  0  0  0  0  0  0  0  0
    6.3053    2.2727   21.7859 H   0  0  0  0  0  0  0  0  0  0  0  0
    7.5152    0.6575   20.4097 H   0  0  0  0  0  0  0  0  0  0  0  0
    8.8113    3.9005   17.8270 H   0  0  0  0  0  0  0  0  0  0  0  0
    8.9563    0.1516   18.5952 H   0  0  0  0  0  0  0  0  0  0  0  0
   10.9381    1.6296   18.7779 H   0  0  0  0  0  0  0  0  0  0  0  0
   10.5174    2.4400   17.2826 H   0  0  0  0  0  0  0  0  0  0  0  0
   10.9195    0.7155   17.2590 H   0  0  0  0  0  0  0  0  0  0  0  0
    6.3414    0.1461   16.0308 H   0  0  0  0  0  0  0  0  0  0  0  0
    6.2194    1.0947   17.5421 H   0  0  0  0  0  0  0  0  0  0  0  0
    6.8694   -0.5885   17.5767 H   0  0  0  0  0  0  0  0  0  0  0  0
    9.1884    2.3423   15.6054 H   0  0  0  0  0  0  0  0  0  0  0  0
    7.5186    2.7764   16.1396 H   0  0  0  0  0  0  0  0  0  0  0  0
    7.7809    1.5816   14.8340 H   0  0  0  0  0  0  0  0  0  0  0  0
    8.7243    0.0968   16.3175 H   0  0  0  0  0  0  0  0  0  0  0  0
  1  2  1  0  0  0  0
  2  3  2  0  0  0  0
  2  5  1  0  0  0  0
  3  4  1  0  0  0  0
  3 31  1  0  0  0  0
  4  6  2  0  0  0  0
  4 32  1  0  0  0  0
  5  6  1  0  0  0  0
  6  7  1  0  0  0  0
  7  8  2  0  0  0  0
  7 33  1  0  0  0  0
  8  9  1  0  0  0  0
  8 34  1  0  0  0  0
  9 10  2  0  0  0  0
  9 11  2  0  0  0  0
  9 12  1  0  0  0  0
 12 13  1  0  0  0  0
 12 35  1  0  0  0  0
 13 14  1  0  0  0  0
 13 16  1  0  0  0  0
 13 36  1  1  0  0  0
 14 15  1  0  0  0  0
 14 37  1  0  0  0  0
 14 38  1  0  0  0  0
 15 18  1  0  0  0  0
 15 39  1  0  0  0  0
 15 40  1  0  0  0  0
 16 17  2  0  0  0  0
 16 18  1  0  0  0  0
 18 19  1  0  0  0  0
 19 20  2  0  0  0  0
 19 22  1  0  0  0  0
 20 21  1  0  0  0  0
 20 25  1  0  0  0  0
 22 23  2  0  0  0  0
 22 41  1  0  0  0  0
 23 24  1  0  0  0  0
 23 42  1  0  0  0  0
 24 25  2  0  0  0  0
 24 26  1  0  0  0  0
 25 43  1  0  0  0  0
 26 27  1  0  0  0  0
 26 28  1  0  0  0  0
 26 44  1  1  0  0  0
 27 45  1  0  0  0  0
 27 46  1  0  0  0  0
 27 47  1  0  0  0  0
 28 29  1  0  0  0  0
 28 30  1  0  0  0  0
 28 54  1  0  0  0  0
 29 48  1  0  0  0  0
 29 49  1  0  0  0  0
 29 50  1  0  0  0  0
 30 51  1  0  0  0  0
 30 52  1  0  0  0  0
 30 53  1  0  0  0  0
M  CHG  1  28   1
M  END
$$$$
