89I
 OpenBabel04051918153D

 54 57  0  0  0  0  0  0  0  0999 V2000
    5.4316   -2.7923   30.0581 C   0  0  0  0  0  0  0  0  0  0  0  0
    4.4142   -3.0744   29.2479 N   0  0  0  0  0  0  0  0  0  0  0  0
    4.7544   -3.0885   27.9586 C   0  0  0  0  0  0  0  0  0  0  0  0
    5.9988   -2.8164   27.4327 C   0  0  0  0  0  0  0  0  0  0  0  0
    6.9673   -2.5460   28.3770 C   0  0  0  0  0  0  0  0  0  0  0  0
    6.6957   -2.5206   29.6910 N   0  0  0  0  0  0  0  0  0  0  0  0
    6.2787   -2.9650   26.0131 C   0  0  0  0  0  0  0  0  0  0  0  0
    6.2182   -4.2457   25.5117 C   0  0  0  0  0  0  0  0  0  0  0  0
    6.4762   -4.5044   24.1920 C   0  0  0  0  0  0  0  0  0  0  0  0
    6.8257   -3.5147   23.2818 C   0  0  0  0  0  0  0  0  0  0  0  0
    6.8557   -2.2209   23.7788 C   0  0  0  0  0  0  0  0  0  0  0  0
    6.5948   -1.9413   25.1314 C   0  0  0  0  0  0  0  0  0  0  0  0
    0.7573   -3.2263   25.1048 C   0  0  0  0  0  0  0  0  0  0  0  0
   -0.0349   -3.0390   24.0363 N   0  0  0  0  0  0  0  0  0  0  0  0
    0.5960   -2.9249   22.8515 C   0  0  0  0  0  0  0  0  0  0  0  0
    1.9742   -2.9837   22.7361 C   0  0  0  0  0  0  0  0  0  0  0  0
    2.7690   -3.1440   23.8315 C   0  0  0  0  0  0  0  0  0  0  0  0
    2.1241   -3.2868   25.0312 C   0  0  0  0  0  0  0  0  0  0  0  0
    0.5901   -2.4995   20.4433 C   0  0  0  0  0  0  0  0  0  0  0  0
   -0.2400   -2.9199   19.2550 C   0  0  0  0  0  0  0  0  0  0  0  0
   -1.5789   -2.4214   19.4130 O   0  0  0  0  0  0  0  0  0  0  0  0
   -2.1837   -3.0114   20.5904 C   0  0  0  0  0  0  0  0  0  0  0  0
   -1.5186   -2.4195   21.8131 C   0  0  0  0  0  0  0  0  0  0  0  0
   -0.1219   -2.7837   21.6947 N   0  0  0  0  0  0  0  0  0  0  0  0
    3.6736   -3.3795   27.0661 C   0  0  0  0  0  0  0  0  0  0  0  0
    2.8928   -3.4210   26.2184 C   0  0  0  0  0  0  0  0  0  0  0  0
    7.1294   -3.9124   21.9648 N   0  0  0  0  0  0  0  0  0  0  0  0
    7.6456   -2.9034   21.0462 C   0  0  0  0  0  0  0  0  0  0  0  0
    8.0472   -5.0476   22.0918 C   0  0  0  0  0  0  0  0  0  0  0  0
    8.2611   -2.2889   27.9849 N   0  0  0  0  0  0  0  0  0  0  0  0
    5.2216   -2.7913   31.1180 H   0  0  0  0  0  0  0  0  0  0  0  0
    5.9453   -5.0564   26.1649 H   0  0  0  0  0  0  0  0  0  0  0  0
    6.4048   -5.5314   23.8806 H   0  0  0  0  0  0  0  0  0  0  0  0
    7.0908   -1.3972   23.1268 H   0  0  0  0  0  0  0  0  0  0  0  0
    6.6421   -0.9182   25.4828 H   0  0  0  0  0  0  0  0  0  0  0  0
    0.2864   -3.3265   26.0738 H   0  0  0  0  0  0  0  0  0  0  0  0
    2.4630   -2.8942   21.7837 H   0  0  0  0  0  0  0  0  0  0  0  0
    3.8434   -3.1494   23.7506 H   0  0  0  0  0  0  0  0  0  0  0  0
    0.8401   -1.4334   20.3848 H   0  0  0  0  0  0  0  0  0  0  0  0
    1.5157   -3.0801   20.3893 H   0  0  0  0  0  0  0  0  0  0  0  0
   -0.2634   -4.0168   19.1659 H   0  0  0  0  0  0  0  0  0  0  0  0
    0.1778   -2.5065   18.3282 H   0  0  0  0  0  0  0  0  0  0  0  0
   -2.0312   -4.0999   20.5648 H   0  0  0  0  0  0  0  0  0  0  0  0
   -3.2490   -2.7913   20.5834 H   0  0  0  0  0  0  0  0  0  0  0  0
   -1.9611   -2.8424   22.7209 H   0  0  0  0  0  0  0  0  0  0  0  0
   -1.6340   -1.3265   21.8310 H   0  0  0  0  0  0  0  0  0  0  0  0
    7.8174   -3.3434   20.0505 H   0  0  0  0  0  0  0  0  0  0  0  0
    8.6036   -2.5228   21.4226 H   0  0  0  0  0  0  0  0  0  0  0  0
    6.9399   -2.0765   20.9397 H   0  0  0  0  0  0  0  0  0  0  0  0
    7.6510   -5.8199   22.7453 H   0  0  0  0  0  0  0  0  0  0  0  0
    8.9878   -4.6905   22.5248 H   0  0  0  0  0  0  0  0  0  0  0  0
    8.2216   -5.5205   21.1344 H   0  0  0  0  0  0  0  0  0  0  0  0
    8.9537   -2.0885   28.6859 H   0  0  0  0  0  0  0  0  0  0  0  0
    8.4911   -2.2990   27.0057 H   0  0  0  0  0  0  0  0  0  0  0  0
  1  2  2  0  0  0  0
  1  6  1  0  0  0  0
  1 31  1  0  0  0  0
  2  3  1  0  0  0  0
  3  4  2  0  0  0  0
  3 25  1  0  0  0  0
  4  5  1  0  0  0  0
  4  7  1  0  0  0  0
  5  6  2  0  0  0  0
  5 30  1  0  0  0  0
  7  8  2  0  0  0  0
  7 12  1  0  0  0  0
  8  9  1  0  0  0  0
  8 32  1  0  0  0  0
  9 10  2  0  0  0  0
  9 33  1  0  0  0  0
 10 11  1  0  0  0  0
 10 27  1  0  0  0  0
 11 12  2  0  0  0  0
 11 34  1  0  0  0  0
 12 35  1  0  0  0  0
 13 14  2  0  0  0  0
 13 18  1  0  0  0  0
 13 36  1  0  0  0  0
 14 15  1  0  0  0  0
 15 16  2  0  0  0  0
 15 24  1  0  0  0  0
 16 17  1  0  0  0  0
 16 37  1  0  0  0  0
 17 18  2  0  0  0  0
 17 38  1  0  0  0  0
 18 26  1  0  0  0  0
 19 20  1  0  0  0  0
 19 24  1  0  0  0  0
 19 39  1  0  0  0  0
 19 40  1  0  0  0  0
 20 21  1  0  0  0  0
 20 41  1  0  0  0  0
 20 42  1  0  0  0  0
 21 22  1  0  0  0  0
 22 23  1  0  0  0  0
 22 43  1  0  0  0  0
 22 44  1  0  0  0  0
 23 24  1  0  0  0  0
 23 45  1  0  0  0  0
 23 46  1  0  0  0  0
 25 26  3  0  0  0  0
 27 28  1  0  0  0  0
 27 29  1  0  0  0  0
 28 47  1  0  0  0  0
 28 48  1  0  0  0  0
 28 49  1  0  0  0  0
 29 50  1  0  0  0  0
 29 51  1  0  0  0  0
 29 52  1  0  0  0  0
 30 53  1  0  0  0  0
 30 54  1  0  0  0  0
M  END
$$$$
