8HG
 OpenBabel04051917163D

 33 35  0  0  1  0  0  0  0  0999 V2000
   -0.3792   27.7503   -0.0463 O   0  0  0  0  0  0  0  0  0  0  0  0
    0.4882   28.2741   -0.7245 C   0  0  0  0  0  0  0  0  0  0  0  0
    1.3650   29.2259   -0.2559 N   0  3  0  0  0  0  0  0  0  0  0  0
    2.3312   29.8088   -1.0395 C   0  0  0  0  0  0  0  0  0  0  0  0
    3.1234   30.7307   -0.4701 N   0  0  0  0  0  0  0  0  0  0  0  0
    2.5194   29.5222   -2.2919 N   0  0  0  0  0  0  0  0  0  0  0  0
    1.6936   28.5805   -2.8053 C   0  0  0  0  0  0  0  0  0  0  0  0
    0.7149   27.9574   -2.1346 C   0  0  0  0  0  0  0  0  0  0  0  0
    0.0549   27.0898   -2.9461 N   0  3  0  0  0  0  0  0  0  0  0  0
    0.6515   27.1622   -4.2190 C   0  0  0  0  0  0  0  0  0  0  0  0
    0.2959   26.5487   -5.2107 O   0  0  0  0  0  0  0  0  0  0  0  0
    1.7051   28.1030   -4.0899 N   0  3  0  0  0  0  0  0  0  0  0  0
    2.4943   28.4852   -5.2315 C   0  0  2  0  0  0  0  0  0  0  0  0
    3.6993   29.2420   -4.9787 O   0  0  0  0  0  0  0  0  0  0  0  0
    1.7044   29.3234   -6.2282 C   0  0  0  0  0  0  0  0  0  0  0  0
    2.7460   30.1749   -6.9171 C   0  0  2  0  0  0  0  0  0  0  0  0
    2.7401   29.9522   -8.3229 O   0  0  0  0  0  0  0  0  0  0  0  0
    4.0658   29.7374   -6.2923 C   0  0  1  0  0  0  0  0  0  0  0  0
    5.1558   30.8210   -6.2879 C   0  0  0  0  0  0  0  0  0  0  0  0
    4.8569   31.9267   -7.1431 O   0  0  0  0  0  0  0  0  0  0  0  0
    1.2672   29.4849    0.7099 H   0  0  0  0  0  0  0  0  0  0  0  0
    3.8508   31.1152   -1.0644 H   0  0  0  0  0  0  0  0  0  0  0  0
    3.0917   30.9989    0.5012 H   0  0  0  0  0  0  0  0  0  0  0  0
   -0.7328   26.5100   -2.6924 H   0  0  0  0  0  0  0  0  0  0  0  0
    2.8139   27.5524   -5.7164 H   0  0  0  0  0  0  0  0  0  0  0  0
    0.9951   29.9777   -5.7071 H   0  0  0  0  0  0  0  0  0  0  0  0
    1.1379   28.6923   -6.9176 H   0  0  0  0  0  0  0  0  0  0  0  0
    2.5397   31.2366   -6.7414 H   0  0  0  0  0  0  0  0  0  0  0  0
    1.8233   30.0915   -8.6256 H   0  0  0  0  0  0  0  0  0  0  0  0
    4.4780   28.8824   -6.8482 H   0  0  0  0  0  0  0  0  0  0  0  0
    6.0972   30.3975   -6.6584 H   0  0  0  0  0  0  0  0  0  0  0  0
    5.3481   31.2039   -5.2824 H   0  0  0  0  0  0  0  0  0  0  0  0
    4.6238   31.5637   -8.0196 H   0  0  0  0  0  0  0  0  0  0  0  0
  1  2  2  0  0  0  0
  2  3  1  0  0  0  0
  2  8  1  0  0  0  0
  3  4  1  0  0  0  0
  3 21  1  0  0  0  0
  4  5  1  0  0  0  0
  4  6  2  0  0  0  0
  5 22  1  0  0  0  0
  5 23  1  0  0  0  0
  6  7  1  0  0  0  0
  7  8  2  0  0  0  0
  7 12  1  0  0  0  0
  8  9  1  0  0  0  0
  9 10  1  0  0  0  0
  9 24  1  0  0  0  0
 10 11  2  0  0  0  0
 10 12  1  0  0  0  0
 12 13  1  0  0  0  0
 13 14  1  0  0  0  0
 13 15  1  0  0  0  0
 13 25  1  6  0  0  0
 14 18  1  0  0  0  0
 15 16  1  0  0  0  0
 15 26  1  0  0  0  0
 15 27  1  0  0  0  0
 16 17  1  0  0  0  0
 16 18  1  0  0  0  0
 16 28  1  1  0  0  0
 17 29  1  0  0  0  0
 18 19  1  0  0  0  0
 18 30  1  6  0  0  0
 19 20  1  0  0  0  0
 19 31  1  0  0  0  0
 19 32  1  0  0  0  0
 20 33  1  0  0  0  0
M  CHG  3   3   1   9   1  12   1
M  END
$$$$
