8NC
 OpenBabel04051920193D

 62 65  0  0  1  0  0  0  0  0999 V2000
    8.2550   70.3298    2.6872 S   0  0  0  0  0  0  0  0  0  0  0  0
    8.9870   66.4940    2.6682 C   0  0  1  0  0  0  0  0  0  0  0  0
    9.6881   66.9815    3.9543 C   0  0  1  0  0  0  0  0  0  0  0  0
    8.9486   68.8259    2.6770 N   0  0  0  0  0  0  0  0  0  0  0  0
    8.1395   65.2577    2.9399 C   0  0  0  0  0  0  0  0  0  0  0  0
    6.7961   58.8486    3.0906 N   0  3  0  0  0  0  0  0  0  0  0  0
   11.0441   66.3716    4.0058 C   0  0  0  0  0  0  0  0  0  0  0  0
    8.1276   67.6788    2.2731 C   0  0  0  0  0  0  0  0  0  0  0  0
    9.8194   68.4840    3.8020 C   0  0  0  0  0  0  0  0  0  0  0  0
    5.7970   58.5168    2.1627 C   0  0  0  0  0  0  0  0  0  0  0  0
    7.2617   60.1700    3.0528 C   0  0  0  0  0  0  0  0  0  0  0  0
    8.7936   64.0660    2.7874 N   0  0  0  0  0  0  0  0  0  0  0  0
    8.0656   60.5554    1.9921 C   0  0  0  0  0  0  0  0  0  0  0  0
   11.6396   66.1892    5.2035 N   0  0  0  0  0  0  0  0  0  0  0  0
    8.1982   62.7902    2.9208 C   0  0  0  0  0  0  0  0  0  0  0  0
    8.5346   61.8544    1.9527 C   0  0  0  0  0  0  0  0  0  0  0  0
   14.7713   64.3253    4.4389 C   0  0  0  0  0  0  0  0  0  0  0  0
   13.6048   65.0214    4.2331 C   0  0  0  0  0  0  0  0  0  0  0  0
    7.6012   70.4475    1.4070 O   0  0  0  0  0  0  0  0  0  0  0  0
    9.3142   71.2288    3.0953 O   0  0  0  0  0  0  0  0  0  0  0  0
    7.3035   57.9067    3.9560 C   0  0  0  0  0  0  0  0  0  0  0  0
   12.8606   65.5011    5.3296 C   0  0  0  0  0  0  0  0  0  0  0  0
    6.9788   65.3399    3.3164 O   0  0  0  0  0  0  0  0  0  0  0  0
   11.5625   66.0414    2.9286 O   0  0  0  0  0  0  0  0  0  0  0  0
    5.3079   57.1262    2.1956 C   0  0  0  0  0  0  0  0  0  0  0  0
   15.1982   64.0788    5.7372 C   0  0  0  0  0  0  0  0  0  0  0  0
    5.3254   59.3129    1.3901 O   0  0  0  0  0  0  0  0  0  0  0  0
    6.9061   61.0896    4.0459 C   0  0  0  0  0  0  0  0  0  0  0  0
    7.3787   62.4078    3.9816 C   0  0  0  0  0  0  0  0  0  0  0  0
    6.8316   56.6667    3.9862 C   0  0  0  0  0  0  0  0  0  0  0  0
    5.7819   56.2744    3.0725 C   0  0  0  0  0  0  0  0  0  0  0  0
   14.4593   64.5598    6.8226 C   0  0  0  0  0  0  0  0  0  0  0  0
    7.0312   70.1890    4.0225 C   0  0  0  0  0  0  0  0  0  0  0  0
    9.3199   62.2440    0.9386 F   0  0  0  0  0  0  0  0  0  0  0  0
   15.4731   63.8680    3.3898 F   0  0  0  0  0  0  0  0  0  0  0  0
   13.2934   65.2654    6.6223 C   0  0  0  0  0  0  0  0  0  0  0  0
   16.3596   63.3782    5.9313 O   0  0  0  0  0  0  0  0  0  0  0  0
   16.4589   62.7445    7.2093 C   0  0  0  0  0  0  0  0  0  0  0  0
    9.7063   66.2835    1.8581 H   0  0  0  0  0  0  0  0  0  0  0  0
    9.1207   66.7341    4.8542 H   0  0  0  0  0  0  0  0  0  0  0  0
    7.1746   67.6942    2.8094 H   0  0  0  0  0  0  0  0  0  0  0  0
    7.9222   67.7076    1.1959 H   0  0  0  0  0  0  0  0  0  0  0  0
   10.8428   68.8111    3.5849 H   0  0  0  0  0  0  0  0  0  0  0  0
    9.4754   68.9999    4.7048 H   0  0  0  0  0  0  0  0  0  0  0  0
    9.7382   64.0725    2.4128 H   0  0  0  0  0  0  0  0  0  0  0  0
    8.3328   59.8474    1.2151 H   0  0  0  0  0  0  0  0  0  0  0  0
   11.1859   66.5206    6.0480 H   0  0  0  0  0  0  0  0  0  0  0  0
   13.2776   65.1657    3.2112 H   0  0  0  0  0  0  0  0  0  0  0  0
    8.1118   58.2331    4.6077 H   0  0  0  0  0  0  0  0  0  0  0  0
    4.5268   56.8741    1.4655 H   0  0  0  0  0  0  0  0  0  0  0  0
    6.2344   60.7850    4.8437 H   0  0  0  0  0  0  0  0  0  0  0  0
    7.1375   63.1048    4.7788 H   0  0  0  0  0  0  0  0  0  0  0  0
    7.2248   55.9440    4.6879 H   0  0  0  0  0  0  0  0  0  0  0  0
    5.4165   55.2407    3.1248 H   0  0  0  0  0  0  0  0  0  0  0  0
   14.7892   64.3881    7.8358 H   0  0  0  0  0  0  0  0  0  0  0  0
    6.4998   71.1357    4.1446 H   0  0  0  0  0  0  0  0  0  0  0  0
    7.5400   69.9468    4.9673 H   0  0  0  0  0  0  0  0  0  0  0  0
    6.3137   69.3990    3.7898 H   0  0  0  0  0  0  0  0  0  0  0  0
   12.7168   65.6026    7.4729 H   0  0  0  0  0  0  0  0  0  0  0  0
   17.4177   62.2268    7.2662 H   0  0  0  0  0  0  0  0  0  0  0  0
   15.6483   62.0155    7.3355 H   0  0  0  0  0  0  0  0  0  0  0  0
   16.4368   63.4754    8.0263 H   0  0  0  0  0  0  0  0  0  0  0  0
  1  4  1  0  0  0  0
  1 19  2  0  0  0  0
  1 20  2  0  0  0  0
  1 33  1  0  0  0  0
  2  3  1  0  0  0  0
  2  5  1  0  0  0  0
  2  8  1  0  0  0  0
  2 39  1  6  0  0  0
  3  7  1  0  0  0  0
  3  9  1  0  0  0  0
  3 40  1  1  0  0  0
  4  8  1  0  0  0  0
  4  9  1  0  0  0  0
  5 12  1  0  0  0  0
  5 23  2  0  0  0  0
  6 10  1  0  0  0  0
  6 11  1  0  0  0  0
  6 21  1  0  0  0  0
  7 14  1  0  0  0  0
  7 24  2  0  0  0  0
  8 41  1  0  0  0  0
  8 42  1  0  0  0  0
  9 43  1  0  0  0  0
  9 44  1  0  0  0  0
 10 25  1  0  0  0  0
 10 27  2  0  0  0  0
 11 13  2  0  0  0  0
 11 28  1  0  0  0  0
 12 15  1  0  0  0  0
 12 45  1  0  0  0  0
 13 16  1  0  0  0  0
 13 46  1  0  0  0  0
 14 22  1  0  0  0  0
 14 47  1  0  0  0  0
 15 16  2  0  0  0  0
 15 29  1  0  0  0  0
 16 34  1  0  0  0  0
 17 18  2  0  0  0  0
 17 26  1  0  0  0  0
 17 35  1  0  0  0  0
 18 22  1  0  0  0  0
 18 48  1  0  0  0  0
 21 30  2  0  0  0  0
 21 49  1  0  0  0  0
 22 36  2  0  0  0  0
 25 31  2  0  0  0  0
 25 50  1  0  0  0  0
 26 32  2  0  0  0  0
 26 37  1  0  0  0  0
 28 29  2  0  0  0  0
 28 51  1  0  0  0  0
 29 52  1  0  0  0  0
 30 31  1  0  0  0  0
 30 53  1  0  0  0  0
 31 54  1  0  0  0  0
 32 36  1  0  0  0  0
 32 55  1  0  0  0  0
 33 56  1  0  0  0  0
 33 57  1  0  0  0  0
 33 58  1  0  0  0  0
 36 59  1  0  0  0  0
 37 38  1  0  0  0  0
 38 60  1  0  0  0  0
 38 61  1  0  0  0  0
 38 62  1  0  0  0  0
M  CHG  1   6   1
M  END
$$$$
