910
 OpenBabel04051919003D

 42 44  0  0  0  0  0  0  0  0999 V2000
   44.9469   14.3094    0.6549 S   0  0  0  0  0  0  0  0  0  0  0  0
   45.1424   15.6342    1.7502 C   0  0  0  0  0  0  0  0  0  0  0  0
   46.0171   15.2984    2.7745 C   0  0  0  0  0  0  0  0  0  0  0  0
   46.4669   13.9369    2.6447 C   0  0  0  0  0  0  0  0  0  0  0  0
   45.9764   13.2592    1.5391 C   0  0  0  0  0  0  0  0  0  0  0  0
   44.4173   16.9205    1.5009 C   0  0  0  0  0  0  0  0  0  0  0  0
   44.4693   17.8688    2.3310 O   0  0  0  0  0  0  0  0  0  0  0  0
   43.7521   16.9644    0.4029 O   0  0  0  0  0  0  0  0  0  0  0  0
   46.2016   11.8763    1.0341 C   0  0  0  0  0  0  0  0  0  0  0  0
   47.4857   11.3013    1.0338 C   0  0  0  0  0  0  0  0  0  0  0  0
   47.7366    9.9865    0.5859 C   0  0  0  0  0  0  0  0  0  0  0  0
   46.6431    9.2421    0.1273 C   0  0  0  0  0  0  0  0  0  0  0  0
   45.3566    9.7941    0.0830 C   0  0  0  0  0  0  0  0  0  0  0  0
   45.1427   11.1007    0.5345 C   0  0  0  0  0  0  0  0  0  0  0  0
   47.6199   13.1761    3.9556 Br  0  0  0  0  0  0  0  0  0  0  0  0
   46.3029   16.0988    3.8390 O   0  0  0  0  0  0  0  0  0  0  0  0
   47.5366   16.8326    3.6947 C   0  0  0  0  0  0  0  0  0  0  0  0
   47.9270   17.5893    5.0055 C   0  0  0  0  0  0  0  0  0  0  0  0
   47.1654   17.4898    6.0076 O   0  0  0  0  0  0  0  0  0  0  0  0
   49.0457   18.2042    4.9462 O   0  0  0  0  0  0  0  0  0  0  0  0
   49.0273    9.4810    0.6827 N   0  0  0  0  0  0  0  0  0  0  0  0
   49.3855    8.0932    0.8129 C   0  0  0  0  0  0  0  0  0  0  0  0
   49.4411    7.6241    2.2474 C   0  0  0  0  0  0  0  0  0  0  0  0
   48.2753    7.2019    2.9083 C   0  0  0  0  0  0  0  0  0  0  0  0
   48.3134    6.7548    4.2323 C   0  0  0  0  0  0  0  0  0  0  0  0
   49.5310    6.7233    4.9171 C   0  0  0  0  0  0  0  0  0  0  0  0
   50.7025    7.1320    4.2781 C   0  0  0  0  0  0  0  0  0  0  0  0
   50.6614    7.5788    2.9536 C   0  0  0  0  0  0  0  0  0  0  0  0
   48.3221   11.8852    1.4106 H   0  0  0  0  0  0  0  0  0  0  0  0
   46.7751    8.2290   -0.2398 H   0  0  0  0  0  0  0  0  0  0  0  0
   44.5258    9.2130   -0.3004 H   0  0  0  0  0  0  0  0  0  0  0  0
   44.1311   11.5083    0.4984 H   0  0  0  0  0  0  0  0  0  0  0  0
   47.4387   17.5675    2.8891 H   0  0  0  0  0  0  0  0  0  0  0  0
   48.3753   16.1556    3.4557 H   0  0  0  0  0  0  0  0  0  0  0  0
   49.7782   10.1668    0.6846 H   0  0  0  0  0  0  0  0  0  0  0  0
   50.3712    7.9375    0.3518 H   0  0  0  0  0  0  0  0  0  0  0  0
   48.7060    7.4424    0.2476 H   0  0  0  0  0  0  0  0  0  0  0  0
   47.3181    7.2284    2.3849 H   0  0  0  0  0  0  0  0  0  0  0  0
   47.3994    6.4467    4.7311 H   0  0  0  0  0  0  0  0  0  0  0  0
   49.5597    6.3898    5.9511 H   0  0  0  0  0  0  0  0  0  0  0  0
   51.6479    7.1121    4.8186 H   0  0  0  0  0  0  0  0  0  0  0  0
   51.5826    7.8948    2.4675 H   0  0  0  0  0  0  0  0  0  0  0  0
  1  2  1  0  0  0  0
  1  5  1  0  0  0  0
  2  3  2  0  0  0  0
  2  6  1  0  0  0  0
  3  4  1  0  0  0  0
  3 16  1  0  0  0  0
  4  5  2  0  0  0  0
  4 15  1  0  0  0  0
  5  9  1  0  0  0  0
  6  7  2  0  0  0  0
  6  8  1  0  0  0  0
  9 10  2  0  0  0  0
  9 14  1  0  0  0  0
 10 11  1  0  0  0  0
 10 29  1  0  0  0  0
 11 12  2  0  0  0  0
 11 21  1  0  0  0  0
 12 13  1  0  0  0  0
 12 30  1  0  0  0  0
 13 14  2  0  0  0  0
 13 31  1  0  0  0  0
 14 32  1  0  0  0  0
 16 17  1  0  0  0  0
 17 18  1  0  0  0  0
 17 33  1  0  0  0  0
 17 34  1  0  0  0  0
 18 19  2  0  0  0  0
 18 20  1  0  0  0  0
 21 22  1  0  0  0  0
 21 35  1  0  0  0  0
 22 23  1  0  0  0  0
 22 36  1  0  0  0  0
 22 37  1  0  0  0  0
 23 24  2  0  0  0  0
 23 28  1  0  0  0  0
 24 25  1  0  0  0  0
 24 38  1  0  0  0  0
 25 26  2  0  0  0  0
 25 39  1  0  0  0  0
 26 27  1  0  0  0  0
 26 40  1  0  0  0  0
 27 28  2  0  0  0  0
 27 41  1  0  0  0  0
 28 42  1  0  0  0  0
M  END
$$$$
