985
 OpenBabel04051920293D

 47 49  0  0  1  0  0  0  0  0999 V2000
  -22.6291  -36.7054   -2.5946 C   0  0  0  0  0  0  0  0  0  0  0  0
  -22.0196  -35.6322   -3.1950 N   0  0  0  0  0  0  0  0  0  0  0  0
  -22.0171  -35.5549   -4.5424 C   0  0  0  0  0  0  0  0  0  0  0  0
  -22.6631  -36.5642   -5.2675 C   0  0  0  0  0  0  0  0  0  0  0  0
  -23.2930  -37.6247   -4.7143 N   0  0  0  0  0  0  0  0  0  0  0  0
  -23.2557  -37.6693   -3.3680 C   0  0  0  0  0  0  0  0  0  0  0  0
  -21.3875  -34.4649   -5.1125 N   0  0  0  0  0  0  0  0  0  0  0  0
  -20.5192  -33.6504   -4.2415 C   0  0  0  0  0  0  0  0  0  0  0  0
  -21.2735  -32.4925   -3.5621 C   0  0  0  0  0  0  0  0  0  0  0  0
  -22.3128  -31.8349   -4.4753 N   0  3  2  0  0  0  0  0  0  0  0  0
  -21.9090  -31.6909   -5.9231 C   0  0  0  0  0  0  0  0  0  0  0  0
  -22.3534  -32.9030   -6.7324 C   0  0  0  0  0  0  0  0  0  0  0  0
  -21.4663  -34.1248   -6.5238 C   0  0  0  0  0  0  0  0  0  0  0  0
  -22.7748  -30.5296   -3.8871 C   0  0  0  0  0  0  0  0  0  0  0  0
  -22.7552  -36.6475    1.7017 C   0  0  0  0  0  0  0  0  0  0  0  0
  -22.9208  -37.8566    1.0232 C   0  0  0  0  0  0  0  0  0  0  0  0
  -22.8444  -37.8944   -0.3693 C   0  0  0  0  0  0  0  0  0  0  0  0
  -22.6281  -36.7227   -1.1247 C   0  0  0  0  0  0  0  0  0  0  0  0
  -22.4478  -35.5293   -0.4054 C   0  0  0  0  0  0  0  0  0  0  0  0
  -22.4933  -35.4746    0.9936 C   0  0  0  0  0  0  0  0  0  0  0  0
  -22.3639  -34.2018    1.7105 C   0  0  0  0  0  0  0  0  0  0  0  0
  -21.7043  -33.1355    1.2339 C   0  0  0  0  0  0  0  0  0  0  0  0
  -21.6628  -31.8006    1.9688 C   0  0  0  0  0  0  0  0  0  0  0  0
  -21.0807  -30.9019    1.2873 O   0  0  0  0  0  0  0  0  0  0  0  0
  -22.2512  -31.7333    3.0748 O   0  0  0  0  0  0  0  0  0  0  0  0
  -22.6963  -36.5752   -6.3476 H   0  0  0  0  0  0  0  0  0  0  0  0
  -23.7805  -38.5052   -2.9303 H   0  0  0  0  0  0  0  0  0  0  0  0
  -19.7071  -33.2267   -4.8455 H   0  0  0  0  0  0  0  0  0  0  0  0
  -20.0041  -34.2520   -3.4813 H   0  0  0  0  0  0  0  0  0  0  0  0
  -20.5697  -31.7125   -3.2499 H   0  0  0  0  0  0  0  0  0  0  0  0
  -21.8298  -32.8415   -2.6857 H   0  0  0  0  0  0  0  0  0  0  0  0
  -20.8296  -31.5119   -5.9696 H   0  0  0  0  0  0  0  0  0  0  0  0
  -22.4145  -30.8040   -6.3200 H   0  0  0  0  0  0  0  0  0  0  0  0
  -22.3251  -32.6435   -7.7978 H   0  0  0  0  0  0  0  0  0  0  0  0
  -23.3986  -33.1502   -6.5038 H   0  0  0  0  0  0  0  0  0  0  0  0
  -21.8619  -34.9345   -7.1435 H   0  0  0  0  0  0  0  0  0  0  0  0
  -20.4624  -33.9318   -6.9181 H   0  0  0  0  0  0  0  0  0  0  0  0
  -23.1010  -30.7037   -2.8608 H   0  0  0  0  0  0  0  0  0  0  0  0
  -23.6124  -30.1669   -4.4913 H   0  0  0  0  0  0  0  0  0  0  0  0
  -21.9394  -29.8248   -3.9294 H   0  0  0  0  0  0  0  0  0  0  0  0
  -22.8250  -36.6284    2.7869 H   0  0  0  0  0  0  0  0  0  0  0  0
  -23.1140  -38.7648    1.5836 H   0  0  0  0  0  0  0  0  0  0  0  0
  -22.9637  -38.8589   -0.8521 H   0  0  0  0  0  0  0  0  0  0  0  0
  -22.2957  -34.6045   -0.9584 H   0  0  0  0  0  0  0  0  0  0  0  0
  -22.8513  -34.1318    2.6839 H   0  0  0  0  0  0  0  0  0  0  0  0
  -21.1752  -33.1523    0.2910 H   0  0  0  0  0  0  0  0  0  0  0  0
  -23.1098  -32.4868   -4.4298 H   0  0  0  0  0  0  0  0  0  0  0  0
  1  2  2  0  0  0  0
  1  6  1  0  0  0  0
  1 18  1  0  0  0  0
  2  3  1  0  0  0  0
  3  4  2  0  0  0  0
  3  7  1  0  0  0  0
  4  5  1  0  0  0  0
  4 26  1  0  0  0  0
  5  6  2  0  0  0  0
  6 27  1  0  0  0  0
  7  8  1  0  0  0  0
  7 13  1  0  0  0  0
  8  9  1  0  0  0  0
  8 28  1  0  0  0  0
  8 29  1  0  0  0  0
  9 10  1  0  0  0  0
  9 30  1  0  0  0  0
  9 31  1  0  0  0  0
 10 11  1  0  0  0  0
 10 14  1  0  0  0  0
 10 47  1  1  0  0  0
 11 12  1  0  0  0  0
 11 32  1  0  0  0  0
 11 33  1  0  0  0  0
 12 13  1  0  0  0  0
 12 34  1  0  0  0  0
 12 35  1  0  0  0  0
 13 36  1  0  0  0  0
 13 37  1  0  0  0  0
 14 38  1  0  0  0  0
 14 39  1  0  0  0  0
 14 40  1  0  0  0  0
 15 16  2  0  0  0  0
 15 20  1  0  0  0  0
 15 41  1  0  0  0  0
 16 17  1  0  0  0  0
 16 42  1  0  0  0  0
 17 18  2  0  0  0  0
 17 43  1  0  0  0  0
 18 19  1  0  0  0  0
 19 20  2  0  0  0  0
 19 44  1  0  0  0  0
 20 21  1  0  0  0  0
 21 22  2  0  0  0  0
 21 45  1  0  0  0  0
 22 23  1  0  0  0  0
 22 46  1  0  0  0  0
 23 24  2  0  0  0  0
 23 25  1  0  0  0  0
M  CHG  1  10   1
M  END
$$$$
