A25
 OpenBabel04051917433D

 41 43  0  0  0  0  0  0  0  0999 V2000
   -0.7529    8.0927  -18.3947 C   0  0  0  0  0  0  0  0  0  0  0  0
   -2.0808    8.5378  -18.2897 C   0  0  0  0  0  0  0  0  0  0  0  0
   -2.5063    9.6427  -19.0647 C   0  0  0  0  0  0  0  0  0  0  0  0
   -1.5834   10.2905  -19.8913 C   0  0  0  0  0  0  0  0  0  0  0  0
   -0.2646    9.8458  -19.9744 C   0  0  0  0  0  0  0  0  0  0  0  0
    0.1542    8.7475  -19.2360 C   0  0  0  0  0  0  0  0  0  0  0  0
    0.8534   10.6676  -20.9940 Cl  0  0  0  0  0  0  0  0  0  0  0  0
   -3.0455    7.9263  -17.5213 O   0  0  0  0  0  0  0  0  0  0  0  0
   -2.6144    7.1413  -16.4078 C   0  0  0  0  0  0  0  0  0  0  0  0
   -3.8528   10.0666  -18.9586 N   0  0  0  0  0  0  0  0  0  0  0  0
   -4.5065   10.9912  -19.7483 C   0  0  0  0  0  0  0  0  0  0  0  0
   -5.8045   11.2863  -19.4133 N   0  0  0  0  0  0  0  0  0  0  0  0
   -4.0147   11.6137  -20.6803 O   0  0  0  0  0  0  0  0  0  0  0  0
   -6.6190   10.7006  -18.4439 C   0  0  0  0  0  0  0  0  0  0  0  0
   -6.2749    9.4942  -17.9381 N   0  0  0  0  0  0  0  0  0  0  0  0
   -7.1001    8.9586  -17.0113 C   0  0  0  0  0  0  0  0  0  0  0  0
   -8.2377    9.6298  -16.5817 C   0  0  0  0  0  0  0  0  0  0  0  0
   -8.5937   10.8511  -17.0559 N   0  0  0  0  0  0  0  0  0  0  0  0
   -7.7664   11.3594  -18.0066 C   0  0  0  0  0  0  0  0  0  0  0  0
   -6.7544    7.6907  -16.6382 O   0  0  0  0  0  0  0  0  0  0  0  0
   -6.7414    7.4372  -15.2350 C   0  0  0  0  0  0  0  0  0  0  0  0
   -5.4160    7.8636  -14.6039 C   0  0  0  0  0  0  0  0  0  0  0  0
   -3.7755    6.2673  -15.9161 C   0  0  0  0  0  0  0  0  0  0  0  0
   -4.3566    6.7560  -14.5845 C   0  0  0  0  0  0  0  0  0  0  0  0
   -0.3823    7.2229  -17.8626 H   0  0  0  0  0  0  0  0  0  0  0  0
   -1.8605   11.1592  -20.4790 H   0  0  0  0  0  0  0  0  0  0  0  0
    1.1800    8.3969  -19.3120 H   0  0  0  0  0  0  0  0  0  0  0  0
   -2.2652    7.8119  -15.6151 H   0  0  0  0  0  0  0  0  0  0  0  0
   -1.7976    6.4641  -16.6741 H   0  0  0  0  0  0  0  0  0  0  0  0
   -4.4305    9.5683  -18.2905 H   0  0  0  0  0  0  0  0  0  0  0  0
   -6.1847   12.0346  -19.9791 H   0  0  0  0  0  0  0  0  0  0  0  0
   -8.9205    9.2062  -15.8553 H   0  0  0  0  0  0  0  0  0  0  0  0
   -8.0444   12.3459  -18.3705 H   0  0  0  0  0  0  0  0  0  0  0  0
   -6.8853    6.3584  -15.0972 H   0  0  0  0  0  0  0  0  0  0  0  0
   -7.5834    7.9145  -14.7229 H   0  0  0  0  0  0  0  0  0  0  0  0
   -5.6167    8.1053  -13.5512 H   0  0  0  0  0  0  0  0  0  0  0  0
   -5.0236    8.7715  -15.0729 H   0  0  0  0  0  0  0  0  0  0  0  0
   -3.3630    5.2670  -15.7142 H   0  0  0  0  0  0  0  0  0  0  0  0
   -4.5425    6.1315  -16.6856 H   0  0  0  0  0  0  0  0  0  0  0  0
   -4.7891    5.8900  -14.0692 H   0  0  0  0  0  0  0  0  0  0  0  0
   -3.5309    7.1043  -13.9531 H   0  0  0  0  0  0  0  0  0  0  0  0
  1  2  2  0  0  0  0
  1  6  1  0  0  0  0
  1 25  1  0  0  0  0
  2  3  1  0  0  0  0
  2  8  1  0  0  0  0
  3  4  2  0  0  0  0
  3 10  1  0  0  0  0
  4  5  1  0  0  0  0
  4 26  1  0  0  0  0
  5  6  2  0  0  0  0
  5  7  1  0  0  0  0
  6 27  1  0  0  0  0
  8  9  1  0  0  0  0
  9 23  1  0  0  0  0
  9 28  1  0  0  0  0
  9 29  1  0  0  0  0
 10 11  1  0  0  0  0
 10 30  1  0  0  0  0
 11 12  1  0  0  0  0
 11 13  2  0  0  0  0
 12 14  1  0  0  0  0
 12 31  1  0  0  0  0
 14 15  2  0  0  0  0
 14 19  1  0  0  0  0
 15 16  1  0  0  0  0
 16 17  2  0  0  0  0
 16 20  1  0  0  0  0
 17 18  1  0  0  0  0
 17 32  1  0  0  0  0
 18 19  2  0  0  0  0
 19 33  1  0  0  0  0
 20 21  1  0  0  0  0
 21 22  1  0  0  0  0
 21 34  1  0  0  0  0
 21 35  1  0  0  0  0
 22 24  1  0  0  0  0
 22 36  1  0  0  0  0
 22 37  1  0  0  0  0
 23 24  1  0  0  0  0
 23 38  1  0  0  0  0
 23 39  1  0  0  0  0
 24 40  1  0  0  0  0
 24 41  1  0  0  0  0
M  END
$$$$
