A2P
 OpenBabel04051918063D

 38 40  0  0  1  0  0  0  0  0999 V2000
    1.4777    8.9285   53.2865 P   0  0  0  0  0  0  0  0  0  0  0  0
    0.8602    8.7212   51.9186 O   0  0  0  0  0  0  0  0  0  0  0  0
    2.9744    9.1828   53.3382 O   0  0  0  0  0  0  0  0  0  0  0  0
    0.9930    7.9138   54.3359 O   0  0  0  0  0  0  0  0  0  0  0  0
    3.8268   14.7486   50.2514 P   0  0  0  0  0  0  0  0  0  0  0  0
    3.6879   14.4039   48.7734 O   0  0  0  0  0  0  0  0  0  0  0  0
    4.2713   13.6124   51.1451 O   0  0  0  0  0  0  0  0  0  0  0  0
    4.5681   16.0611   50.5009 O   0  0  0  0  0  0  0  0  0  0  0  0
    2.2894   15.0599   50.7464 O   0  0  0  0  0  0  0  0  0  0  0  0
    1.4138   13.9475   50.9448 C   0  0  0  0  0  0  0  0  0  0  0  0
    1.0911   13.7374   52.4464 C   0  0  1  0  0  0  0  0  0  0  0  0
   -0.3722   13.5265   52.6102 O   0  0  0  0  0  0  0  0  0  0  0  0
    1.7527   12.5087   53.0876 C   0  0  1  0  0  0  0  0  0  0  0  0
    1.9038   12.7361   54.5173 O   0  0  0  0  0  0  0  0  0  0  0  0
    0.7107   11.4137   52.8974 C   0  0  1  0  0  0  0  0  0  0  0  0
    0.8329   10.3361   53.8183 O   0  0  0  0  0  0  0  0  0  0  0  0
   -0.5523   12.2071   53.2131 C   0  0  2  0  0  0  0  0  0  0  0  0
   -1.7923   11.6225   52.7246 N   0  3  0  0  0  0  0  0  0  0  0  0
   -2.1119   11.4181   51.4030 C   0  0  0  0  0  0  0  0  0  0  0  0
   -3.3184   10.9066   51.2397 N   0  0  0  0  0  0  0  0  0  0  0  0
   -3.7778   10.7161   52.5252 C   0  0  0  0  0  0  0  0  0  0  0  0
   -4.9979   10.1976   53.0037 C   0  0  0  0  0  0  0  0  0  0  0  0
   -6.0272    9.7967   52.1513 N   0  0  0  0  0  0  0  0  0  0  0  0
   -5.2081   10.1426   54.3388 N   0  0  0  0  0  0  0  0  0  0  0  0
   -4.2276   10.6270   55.1402 C   0  0  0  0  0  0  0  0  0  0  0  0
   -3.0531   11.1976   54.8023 N   0  0  0  0  0  0  0  0  0  0  0  0
   -2.8684   11.1806   53.4659 C   0  0  0  0  0  0  0  0  0  0  0  0
    1.8114   13.0403   50.4819 H   0  0  0  0  0  0  0  0  0  0  0  0
    0.4886   14.1935   50.4088 H   0  0  0  0  0  0  0  0  0  0  0  0
    1.3307   14.6503   53.0085 H   0  0  0  0  0  0  0  0  0  0  0  0
    2.7413   12.2556   52.6908 H   0  0  0  0  0  0  0  0  0  0  0  0
    2.2658   11.8744   54.8043 H   0  0  0  0  0  0  0  0  0  0  0  0
    0.7021   11.0846   51.8537 H   0  0  0  0  0  0  0  0  0  0  0  0
   -0.6802   12.3555   54.2946 H   0  0  0  0  0  0  0  0  0  0  0  0
   -1.4127   11.6674   50.6136 H   0  0  0  0  0  0  0  0  0  0  0  0
   -6.7084    9.1914   52.5792 H   0  0  0  0  0  0  0  0  0  0  0  0
   -5.6988    9.6174   51.2067 H   0  0  0  0  0  0  0  0  0  0  0  0
   -4.4254   10.5687   56.2053 H   0  0  0  0  0  0  0  0  0  0  0  0
  1  2  2  0  0  0  0
  1  3  1  0  0  0  0
  1  4  1  0  0  0  0
  1 16  1  0  0  0  0
  5  6  2  0  0  0  0
  5  7  1  0  0  0  0
  5  8  1  0  0  0  0
  5  9  1  0  0  0  0
  9 10  1  0  0  0  0
 10 11  1  0  0  0  0
 10 28  1  0  0  0  0
 10 29  1  0  0  0  0
 11 12  1  0  0  0  0
 11 13  1  0  0  0  0
 11 30  1  1  0  0  0
 12 17  1  0  0  0  0
 13 14  1  0  0  0  0
 13 15  1  0  0  0  0
 13 31  1  6  0  0  0
 14 32  1  0  0  0  0
 15 16  1  0  0  0  0
 15 17  1  0  0  0  0
 15 33  1  6  0  0  0
 17 18  1  0  0  0  0
 17 34  1  1  0  0  0
 18 19  2  0  0  0  0
 18 27  1  0  0  0  0
 19 20  1  0  0  0  0
 19 35  1  0  0  0  0
 20 21  1  0  0  0  0
 21 22  2  0  0  0  0
 21 27  1  0  0  0  0
 22 23  1  0  0  0  0
 22 24  1  0  0  0  0
 23 36  1  0  0  0  0
 23 37  1  0  0  0  0
 24 25  2  0  0  0  0
 25 26  1  0  0  0  0
 25 38  1  0  0  0  0
 26 27  2  0  0  0  0
M  CHG  1  18   1
M  END
$$$$
