A94
 OpenBabel04051919023D

 46 48  0  0  0  0  0  0  0  0999 V2000
   18.8061   26.6489   15.4886 C   0  0  0  0  0  0  0  0  0  0  0  0
   17.5703   26.9707   15.9201 N   0  0  0  0  0  0  0  0  0  0  0  0
   17.2490   26.6174   17.1685 C   0  0  0  0  0  0  0  0  0  0  0  0
   18.0477   25.9378   17.9959 N   0  0  0  0  0  0  0  0  0  0  0  0
   19.2778   25.6191   17.5394 C   0  0  0  0  0  0  0  0  0  0  0  0
   19.7148   25.9934   16.2858 C   0  0  0  0  0  0  0  0  0  0  0  0
   19.1637   27.0385   14.0873 C   0  0  0  0  0  0  0  0  0  0  0  0
   16.0324   27.0197   17.6474 N   0  0  0  0  0  0  0  0  0  0  0  0
   20.1849   24.8657   18.4797 C   0  0  0  0  0  0  0  0  0  0  0  0
   21.1080   23.9439   17.8110 N   0  0  0  0  0  0  0  0  0  0  0  0
   20.7205   22.3430   17.5789 S   0  0  0  0  0  0  0  0  0  0  0  0
   19.9971   21.8780   18.7451 O   0  0  0  0  0  0  0  0  0  0  0  0
   21.9312   21.7029   17.1303 O   0  0  0  0  0  0  0  0  0  0  0  0
   20.5149   25.6957    8.8060 C   0  0  0  0  0  0  0  0  0  0  0  0
   20.7742   24.7672    9.9728 C   0  0  0  0  0  0  0  0  0  0  0  0
   19.4097   24.4641   10.4464 C   0  0  0  0  0  0  0  0  0  0  0  0
   18.4324   24.9969    9.4771 C   0  0  0  0  0  0  0  0  0  0  0  0
   19.1147   25.6741    8.5187 O   0  0  0  0  0  0  0  0  0  0  0  0
   17.2229   24.8574    9.5182 O   0  0  0  0  0  0  0  0  0  0  0  0
   19.0003   23.8659   11.5698 C   0  0  0  0  0  0  0  0  0  0  0  0
   19.7424   23.3378   12.6004 N   0  0  0  0  0  0  0  0  0  0  0  0
   19.2557   22.8213   13.8182 C   0  0  0  0  0  0  0  0  0  0  0  0
   17.9123   22.4686   14.0101 C   0  0  0  0  0  0  0  0  0  0  0  0
   17.4283   22.0611   15.2599 C   0  0  0  0  0  0  0  0  0  0  0  0
   18.2762   22.0200   16.3573 C   0  0  0  0  0  0  0  0  0  0  0  0
   19.6136   22.3842   16.1918 C   0  0  0  0  0  0  0  0  0  0  0  0
   20.1098   22.7617   14.9314 C   0  0  0  0  0  0  0  0  0  0  0  0
   20.7090   25.7570   15.9308 H   0  0  0  0  0  0  0  0  0  0  0  0
   20.1856   26.7360   13.8342 H   0  0  0  0  0  0  0  0  0  0  0  0
   19.0921   28.1241   13.9742 H   0  0  0  0  0  0  0  0  0  0  0  0
   18.4817   26.5553   13.3818 H   0  0  0  0  0  0  0  0  0  0  0  0
   15.3793   27.3459   16.9543 H   0  0  0  0  0  0  0  0  0  0  0  0
   15.7318   26.5947   18.5081 H   0  0  0  0  0  0  0  0  0  0  0  0
   19.5912   24.3401   19.2336 H   0  0  0  0  0  0  0  0  0  0  0  0
   20.7926   25.5989   19.0277 H   0  0  0  0  0  0  0  0  0  0  0  0
   22.0780   24.2021   17.6618 H   0  0  0  0  0  0  0  0  0  0  0  0
   21.0578   25.3732    7.9119 H   0  0  0  0  0  0  0  0  0  0  0  0
   20.8126   26.7259    9.0287 H   0  0  0  0  0  0  0  0  0  0  0  0
   21.3899   25.2565   10.7345 H   0  0  0  0  0  0  0  0  0  0  0  0
   21.2869   23.8599    9.6377 H   0  0  0  0  0  0  0  0  0  0  0  0
   17.9245   23.7969   11.7275 H   0  0  0  0  0  0  0  0  0  0  0  0
   20.7481   23.3080   12.4758 H   0  0  0  0  0  0  0  0  0  0  0  0
   17.2055   22.4810   13.1857 H   0  0  0  0  0  0  0  0  0  0  0  0
   16.3835   21.7833   15.3674 H   0  0  0  0  0  0  0  0  0  0  0  0
   17.8950   21.7108   17.3259 H   0  0  0  0  0  0  0  0  0  0  0  0
   21.1578   23.0346   14.8328 H   0  0  0  0  0  0  0  0  0  0  0  0
  1  2  2  0  0  0  0
  1  6  1  0  0  0  0
  1  7  1  0  0  0  0
  2  3  1  0  0  0  0
  3  4  2  0  0  0  0
  3  8  1  0  0  0  0
  4  5  1  0  0  0  0
  5  6  2  0  0  0  0
  5  9  1  0  0  0  0
  6 28  1  0  0  0  0
  7 29  1  0  0  0  0
  7 30  1  0  0  0  0
  7 31  1  0  0  0  0
  8 32  1  0  0  0  0
  8 33  1  0  0  0  0
  9 10  1  0  0  0  0
  9 34  1  0  0  0  0
  9 35  1  0  0  0  0
 10 11  1  0  0  0  0
 10 36  1  0  0  0  0
 11 12  2  0  0  0  0
 11 13  2  0  0  0  0
 11 26  1  0  0  0  0
 14 15  1  0  0  0  0
 14 18  1  0  0  0  0
 14 37  1  0  0  0  0
 14 38  1  0  0  0  0
 15 16  1  0  0  0  0
 15 39  1  0  0  0  0
 15 40  1  0  0  0  0
 16 17  1  0  0  0  0
 16 20  2  0  0  0  0
 17 18  1  0  0  0  0
 17 19  2  0  0  0  0
 20 21  1  0  0  0  0
 20 41  1  0  0  0  0
 21 22  1  0  0  0  0
 21 42  1  0  0  0  0
 22 23  2  0  0  0  0
 22 27  1  0  0  0  0
 23 24  1  0  0  0  0
 23 43  1  0  0  0  0
 24 25  2  0  0  0  0
 24 44  1  0  0  0  0
 25 26  1  0  0  0  0
 25 45  1  0  0  0  0
 26 27  2  0  0  0  0
 27 46  1  0  0  0  0
M  END
$$$$
