AB0
 OpenBabel04051917413D

 45 47  0  0  1  0  0  0  0  0999 V2000
   -2.2087   -2.9456   18.9180 C   0  0  0  0  0  0  0  0  0  0  0  0
   -1.1022   -3.6882   19.4153 O   0  0  0  0  0  0  0  0  0  0  0  0
   -1.3855   -4.1826   20.7197 C   0  0  0  0  0  0  0  0  0  0  0  0
   -1.5058   -3.1352   21.6685 O   0  0  0  0  0  0  0  0  0  0  0  0
   -0.2386   -2.6057   22.0722 C   0  0  1  0  0  0  0  0  0  0  0  0
    0.1428   -1.3994   21.2028 C   0  0  0  0  0  0  0  0  0  0  0  0
    1.4029   -0.7121   21.7271 C   0  0  1  0  0  0  0  0  0  0  0  0
    1.6403    0.4848   20.9827 O   0  0  0  0  0  0  0  0  0  0  0  0
    2.8393    1.1747   21.3911 C   0  0  1  0  0  0  0  0  0  0  0  0
    2.9135    2.3581   20.4671 C   0  0  0  0  0  0  0  0  0  0  0  0
    3.6868    3.4397   20.6518 C   0  0  0  0  0  0  0  0  0  0  0  0
    4.5053    3.7506   21.7869 C   0  0  0  0  0  0  0  0  0  0  0  0
    4.6858    3.0867   22.9495 C   0  0  0  0  0  0  0  0  0  0  0  0
    4.1453    1.9320   23.3760 O   0  0  0  0  0  0  0  0  0  0  0  0
    2.8447    1.5439   22.8815 C   0  0  2  0  0  0  0  0  0  0  0  0
    2.4677    0.3012   23.7105 C   0  0  1  0  0  0  0  0  0  0  0  0
    2.3405    0.6758   25.0906 O   0  0  0  0  0  0  0  0  0  0  0  0
    1.1955   -0.3731   23.1970 C   0  0  2  0  0  0  0  0  0  0  0  0
    0.9430   -1.5775   23.9155 O   0  0  0  0  0  0  0  0  0  0  0  0
   -0.3202   -2.1567   23.5479 C   0  0  2  0  0  0  0  0  0  0  0  0
   -0.6213   -3.3411   24.4525 C   0  0  0  0  0  0  0  0  0  0  0  0
   -0.7455   -2.8853   25.9056 C   0  0  0  0  0  0  0  0  0  0  0  0
   -1.5182   -1.9066   26.1124 O   0  0  0  0  0  0  0  0  0  0  0  0
   -0.1096   -3.5932   26.7387 O   0  0  0  0  0  0  0  0  0  0  0  0
   -1.9536   -2.5571   17.9291 H   0  0  0  0  0  0  0  0  0  0  0  0
   -2.4422   -2.0992   19.5717 H   0  0  0  0  0  0  0  0  0  0  0  0
   -3.0817   -3.5976   18.8254 H   0  0  0  0  0  0  0  0  0  0  0  0
   -0.6003   -4.8858   21.0186 H   0  0  0  0  0  0  0  0  0  0  0  0
   -2.3243   -4.7480   20.6979 H   0  0  0  0  0  0  0  0  0  0  0  0
    0.5491   -3.3667   21.9765 H   0  0  0  0  0  0  0  0  0  0  0  0
   -0.6880   -0.6816   21.1909 H   0  0  0  0  0  0  0  0  0  0  0  0
    0.2879   -1.6948   20.1599 H   0  0  0  0  0  0  0  0  0  0  0  0
    2.2517   -1.3996   21.6027 H   0  0  0  0  0  0  0  0  0  0  0  0
    3.7034    0.5340   21.1761 H   0  0  0  0  0  0  0  0  0  0  0  0
    2.2980    2.3253   19.5772 H   0  0  0  0  0  0  0  0  0  0  0  0
    3.7264    4.1788   19.8572 H   0  0  0  0  0  0  0  0  0  0  0  0
    5.0731    4.6730   21.6755 H   0  0  0  0  0  0  0  0  0  0  0  0
    5.3730    3.4823   23.6885 H   0  0  0  0  0  0  0  0  0  0  0  0
    2.1348    2.3535   23.1027 H   0  0  0  0  0  0  0  0  0  0  0  0
    3.2923   -0.4205   23.6698 H   0  0  0  0  0  0  0  0  0  0  0  0
    1.5637    1.2536   25.1762 H   0  0  0  0  0  0  0  0  0  0  0  0
    0.3502    0.3160   23.3239 H   0  0  0  0  0  0  0  0  0  0  0  0
   -1.1193   -1.4090   23.6483 H   0  0  0  0  0  0  0  0  0  0  0  0
    0.1636   -4.0996   24.3617 H   0  0  0  0  0  0  0  0  0  0  0  0
   -1.5695   -3.8094   24.1555 H   0  0  0  0  0  0  0  0  0  0  0  0
  1  2  1  0  0  0  0
  1 25  1  0  0  0  0
  1 26  1  0  0  0  0
  1 27  1  0  0  0  0
  2  3  1  0  0  0  0
  3  4  1  0  0  0  0
  3 28  1  0  0  0  0
  3 29  1  0  0  0  0
  4  5  1  0  0  0  0
  5  6  1  0  0  0  0
  5 20  1  0  0  0  0
  5 30  1  6  0  0  0
  6  7  1  0  0  0  0
  6 31  1  0  0  0  0
  6 32  1  0  0  0  0
  7  8  1  0  0  0  0
  7 18  1  0  0  0  0
  7 33  1  6  0  0  0
  8  9  1  0  0  0  0
  9 10  1  0  0  0  0
  9 15  1  0  0  0  0
  9 34  1  6  0  0  0
 10 11  2  0  0  0  0
 10 35  1  0  0  0  0
 11 12  1  0  0  0  0
 11 36  1  0  0  0  0
 12 13  2  0  0  0  0
 12 37  1  0  0  0  0
 13 14  1  0  0  0  0
 13 38  1  0  0  0  0
 14 15  1  0  0  0  0
 15 16  1  0  0  0  0
 15 39  1  1  0  0  0
 16 17  1  0  0  0  0
 16 18  1  0  0  0  0
 16 40  1  6  0  0  0
 17 41  1  0  0  0  0
 18 19  1  0  0  0  0
 18 42  1  1  0  0  0
 19 20  1  0  0  0  0
 20 21  1  0  0  0  0
 20 43  1  1  0  0  0
 21 22  1  0  0  0  0
 21 44  1  0  0  0  0
 21 45  1  0  0  0  0
 22 23  2  0  0  0  0
 22 24  1  0  0  0  0
M  END
$$$$
