AB1
 OpenBabel04051919253D

 94 97  0  0  1  0  0  0  0  0999 V2000
  -17.1513    4.8489   -7.2781 C   0  0  0  0  0  0  0  0  0  0  0  0
  -16.5559    2.7403   -6.1455 C   0  0  0  0  0  0  0  0  0  0  0  0
  -17.9471    2.7105   -5.6807 N   0  0  0  0  0  0  0  0  0  0  0  0
  -18.8384    3.7377   -5.8784 C   0  0  0  0  0  0  0  0  0  0  0  0
  -18.3427    4.8497   -6.4780 N   0  0  0  0  0  0  0  0  0  0  0  0
  -18.5889   -3.3400   -0.0851 C   0  0  0  0  0  0  0  0  0  0  0  0
  -19.2064   -4.4412    0.5272 C   0  0  0  0  0  0  0  0  0  0  0  0
  -18.4437   -5.4988    1.0216 C   0  0  0  0  0  0  0  0  0  0  0  0
  -17.0562   -5.4674    0.9067 C   0  0  0  0  0  0  0  0  0  0  0  0
  -16.4329   -4.3829    0.2926 C   0  0  0  0  0  0  0  0  0  0  0  0
  -17.1947   -3.3267   -0.2073 C   0  0  0  0  0  0  0  0  0  0  0  0
  -20.0107    3.7106   -5.5120 O   0  0  0  0  0  0  0  0  0  0  0  0
  -18.4097    1.5352   -4.9246 C   0  0  2  0  0  0  0  0  0  0  0  0
  -17.8827    1.6400   -3.4752 C   0  0  0  0  0  0  0  0  0  0  0  0
  -18.8253    2.1313   -2.5935 N   0  0  0  0  0  0  0  0  0  0  0  0
  -18.5475    2.3638   -1.1820 C   0  0  1  0  0  0  0  0  0  0  0  0
  -18.0238    0.2121   -5.6100 C   0  0  0  0  0  0  0  0  0  0  0  0
  -18.4384   -1.0014   -4.7811 C   0  0  0  0  0  0  0  0  0  0  0  0
  -18.6960    0.1377   -6.9854 C   0  0  0  0  0  0  0  0  0  0  0  0
  -16.7410    1.3311   -3.1488 O   0  0  0  0  0  0  0  0  0  0  0  0
  -15.5006    5.5129   -2.4258 C   0  0  0  0  0  0  0  0  0  0  0  0
  -16.0857    6.3880   -3.3387 C   0  0  0  0  0  0  0  0  0  0  0  0
  -17.4712    6.4361   -3.4628 C   0  0  0  0  0  0  0  0  0  0  0  0
  -18.2690    5.6169   -2.6663 C   0  0  0  0  0  0  0  0  0  0  0  0
  -17.6864    4.7424   -1.7366 C   0  0  0  0  0  0  0  0  0  0  0  0
  -16.2940    4.6957   -1.6247 C   0  0  0  0  0  0  0  0  0  0  0  0
  -18.5627    3.8785   -0.8661 C   0  0  0  0  0  0  0  0  0  0  0  0
  -19.6584    1.7068   -0.3477 C   0  0  0  0  0  0  0  0  0  0  0  0
  -19.9911    0.2537   -0.7097 C   0  0  1  0  0  0  0  0  0  0  0  0
  -18.9493   -0.7873   -0.2473 C   0  0  1  0  0  0  0  0  0  0  0  0
  -18.7909   -0.6951    1.2033 N   0  0  0  0  0  0  0  0  0  0  0  0
  -17.6292   -0.2759    1.8020 C   0  0  0  0  0  0  0  0  0  0  0  0
  -17.6466   -0.2836    3.3254 C   0  0  0  0  0  0  0  0  0  0  0  0
  -18.8071   -0.9104    3.8687 O   0  0  0  0  0  0  0  0  0  0  0  0
  -18.5512   -1.4865    5.0887 C   0  0  0  0  0  0  0  0  0  0  0  0
  -21.2505   -0.0643   -0.0857 O   0  0  0  0  0  0  0  0  0  0  0  0
  -19.4451   -2.2070   -0.6018 C   0  0  0  0  0  0  0  0  0  0  0  0
  -16.6520    0.1254    1.1712 O   0  0  0  0  0  0  0  0  0  0  0  0
  -18.4537   -0.7095    6.2577 C   0  0  0  0  0  0  0  0  0  0  0  0
  -18.2588   -1.3489    7.4814 C   0  0  0  0  0  0  0  0  0  0  0  0
  -18.1715   -2.7333    7.5695 C   0  0  0  0  0  0  0  0  0  0  0  0
  -18.2931   -3.5042    6.4123 C   0  0  0  0  0  0  0  0  0  0  0  0
  -18.4950   -2.8884    5.1664 C   0  0  0  0  0  0  0  0  0  0  0  0
  -18.6172   -3.7629    3.9557 C   0  0  0  0  0  0  0  0  0  0  0  0
  -18.5627    0.7901    6.2442 C   0  0  0  0  0  0  0  0  0  0  0  0
  -16.0591    4.1139   -6.5469 C   0  0  0  0  0  0  0  0  0  0  0  0
  -16.8692    5.8875   -7.4705 H   0  0  0  0  0  0  0  0  0  0  0  0
  -17.3861    4.3700   -8.2364 H   0  0  0  0  0  0  0  0  0  0  0  0
  -16.4819    2.0629   -7.0035 H   0  0  0  0  0  0  0  0  0  0  0  0
  -15.9024    2.3446   -5.3606 H   0  0  0  0  0  0  0  0  0  0  0  0
  -18.9402    5.6630   -6.4330 H   0  0  0  0  0  0  0  0  0  0  0  0
  -20.2877   -4.4674    0.6487 H   0  0  0  0  0  0  0  0  0  0  0  0
  -18.9328   -6.3356    1.5124 H   0  0  0  0  0  0  0  0  0  0  0  0
  -16.4592   -6.2850    1.2997 H   0  0  0  0  0  0  0  0  0  0  0  0
  -15.3503   -4.3536    0.2028 H   0  0  0  0  0  0  0  0  0  0  0  0
  -16.6840   -2.4865   -0.6732 H   0  0  0  0  0  0  0  0  0  0  0  0
  -19.5062    1.5572   -4.8617 H   0  0  0  0  0  0  0  0  0  0  0  0
  -19.6913    2.4936   -2.9746 H   0  0  0  0  0  0  0  0  0  0  0  0
  -17.5719    1.9377   -0.9206 H   0  0  0  0  0  0  0  0  0  0  0  0
  -16.9370    0.1628   -5.7408 H   0  0  0  0  0  0  0  0  0  0  0  0
  -18.1779   -1.9220   -5.3127 H   0  0  0  0  0  0  0  0  0  0  0  0
  -19.5170   -1.0044   -4.5935 H   0  0  0  0  0  0  0  0  0  0  0  0
  -17.9228   -1.0240   -3.8163 H   0  0  0  0  0  0  0  0  0  0  0  0
  -18.4449    0.9983   -7.6129 H   0  0  0  0  0  0  0  0  0  0  0  0
  -19.7871    0.1129   -6.8868 H   0  0  0  0  0  0  0  0  0  0  0  0
  -18.3756   -0.7619   -7.5188 H   0  0  0  0  0  0  0  0  0  0  0  0
  -14.4165    5.4669   -2.3366 H   0  0  0  0  0  0  0  0  0  0  0  0
  -15.4625    7.0159   -3.9703 H   0  0  0  0  0  0  0  0  0  0  0  0
  -17.9329    7.1049   -4.1822 H   0  0  0  0  0  0  0  0  0  0  0  0
  -19.3497    5.6600   -2.7811 H   0  0  0  0  0  0  0  0  0  0  0  0
  -15.8210    4.0148   -0.9210 H   0  0  0  0  0  0  0  0  0  0  0  0
  -18.2947    4.0461    0.1855 H   0  0  0  0  0  0  0  0  0  0  0  0
  -19.5944    4.2431   -0.9667 H   0  0  0  0  0  0  0  0  0  0  0  0
  -20.5806    2.2896   -0.4784 H   0  0  0  0  0  0  0  0  0  0  0  0
  -19.4249    1.7982    0.7196 H   0  0  0  0  0  0  0  0  0  0  0  0
  -20.1411    0.1471   -1.7909 H   0  0  0  0  0  0  0  0  0  0  0  0
  -17.9940   -0.5866   -0.7397 H   0  0  0  0  0  0  0  0  0  0  0  0
  -19.5752   -0.9518    1.7881 H   0  0  0  0  0  0  0  0  0  0  0  0
  -17.6328    0.7740    3.6025 H   0  0  0  0  0  0  0  0  0  0  0  0
  -16.7182   -0.7656    3.6587 H   0  0  0  0  0  0  0  0  0  0  0  0
  -21.8993    0.5923   -0.3842 H   0  0  0  0  0  0  0  0  0  0  0  0
  -20.4492   -2.3373   -0.1802 H   0  0  0  0  0  0  0  0  0  0  0  0
  -19.5474   -2.3113   -1.6899 H   0  0  0  0  0  0  0  0  0  0  0  0
  -18.1659   -0.7598    8.4005 H   0  0  0  0  0  0  0  0  0  0  0  0
  -18.0264   -3.2227    8.5288 H   0  0  0  0  0  0  0  0  0  0  0  0
  -18.2383   -4.5872    6.4840 H   0  0  0  0  0  0  0  0  0  0  0  0
  -18.7693   -3.1764    3.0493 H   0  0  0  0  0  0  0  0  0  0  0  0
  -19.4694   -4.4411    4.0632 H   0  0  0  0  0  0  0  0  0  0  0  0
  -17.7008   -4.3493    3.8274 H   0  0  0  0  0  0  0  0  0  0  0  0
  -18.7691    1.1938    5.2557 H   0  0  0  0  0  0  0  0  0  0  0  0
  -17.6263    1.2259    6.6015 H   0  0  0  0  0  0  0  0  0  0  0  0
  -19.3894    1.1075    6.8871 H   0  0  0  0  0  0  0  0  0  0  0  0
  -15.7915    4.6712   -5.6452 H   0  0  0  0  0  0  0  0  0  0  0  0
  -15.1585    4.0300   -7.1644 H   0  0  0  0  0  0  0  0  0  0  0  0
  1  5  1  0  0  0  0
  1 46  1  0  0  0  0
  1 47  1  0  0  0  0
  1 48  1  0  0  0  0
  2  3  1  0  0  0  0
  2 46  1  0  0  0  0
  2 49  1  0  0  0  0
  2 50  1  0  0  0  0
  3  4  1  0  0  0  0
  3 13  1  0  0  0  0
  4  5  1  0  0  0  0
  4 12  2  0  0  0  0
  5 51  1  0  0  0  0
  6  7  2  0  0  0  0
  6 11  1  0  0  0  0
  6 37  1  0  0  0  0
  7  8  1  0  0  0  0
  7 52  1  0  0  0  0
  8  9  2  0  0  0  0
  8 53  1  0  0  0  0
  9 10  1  0  0  0  0
  9 54  1  0  0  0  0
 10 11  2  0  0  0  0
 10 55  1  0  0  0  0
 11 56  1  0  0  0  0
 13 14  1  0  0  0  0
 13 17  1  0  0  0  0
 13 57  1  1  0  0  0
 14 15  1  0  0  0  0
 14 20  2  0  0  0  0
 15 16  1  0  0  0  0
 15 58  1  0  0  0  0
 16 27  1  0  0  0  0
 16 28  1  0  0  0  0
 16 59  1  1  0  0  0
 17 18  1  0  0  0  0
 17 19  1  0  0  0  0
 17 60  1  0  0  0  0
 18 61  1  0  0  0  0
 18 62  1  0  0  0  0
 18 63  1  0  0  0  0
 19 64  1  0  0  0  0
 19 65  1  0  0  0  0
 19 66  1  0  0  0  0
 21 22  2  0  0  0  0
 21 26  1  0  0  0  0
 21 67  1  0  0  0  0
 22 23  1  0  0  0  0
 22 68  1  0  0  0  0
 23 24  2  0  0  0  0
 23 69  1  0  0  0  0
 24 25  1  0  0  0  0
 24 70  1  0  0  0  0
 25 26  2  0  0  0  0
 25 27  1  0  0  0  0
 26 71  1  0  0  0  0
 27 72  1  0  0  0  0
 27 73  1  0  0  0  0
 28 29  1  0  0  0  0
 28 74  1  0  0  0  0
 28 75  1  0  0  0  0
 29 30  1  0  0  0  0
 29 36  1  0  0  0  0
 29 76  1  6  0  0  0
 30 31  1  0  0  0  0
 30 37  1  0  0  0  0
 30 77  1  6  0  0  0
 31 32  1  0  0  0  0
 31 78  1  0  0  0  0
 32 33  1  0  0  0  0
 32 38  2  0  0  0  0
 33 34  1  0  0  0  0
 33 79  1  0  0  0  0
 33 80  1  0  0  0  0
 34 35  1  0  0  0  0
 35 39  2  0  0  0  0
 35 43  1  0  0  0  0
 36 81  1  0  0  0  0
 37 82  1  0  0  0  0
 37 83  1  0  0  0  0
 39 40  1  0  0  0  0
 39 45  1  0  0  0  0
 40 41  2  0  0  0  0
 40 84  1  0  0  0  0
 41 42  1  0  0  0  0
 41 85  1  0  0  0  0
 42 43  2  0  0  0  0
 42 86  1  0  0  0  0
 43 44  1  0  0  0  0
 44 87  1  0  0  0  0
 44 88  1  0  0  0  0
 44 89  1  0  0  0  0
 45 90  1  0  0  0  0
 45 91  1  0  0  0  0
 45 92  1  0  0  0  0
 46 93  1  0  0  0  0
 46 94  1  0  0  0  0
M  END
$$$$
