AB1
 OpenBabel04051919263D

 94 97  0  0  1  0  0  0  0  0999 V2000
  -12.5584   12.3012    6.9446 C   0  0  0  0  0  0  0  0  0  0  0  0
  -10.4953   13.0218    5.7823 C   0  0  0  0  0  0  0  0  0  0  0  0
  -11.2114   14.2258    5.3789 N   0  0  0  0  0  0  0  0  0  0  0  0
  -12.4975   14.4689    5.7599 C   0  0  0  0  0  0  0  0  0  0  0  0
  -13.1782   13.4638    6.3542 N   0  0  0  0  0  0  0  0  0  0  0  0
   -6.4049   17.5798   -0.2020 C   0  0  0  0  0  0  0  0  0  0  0  0
   -5.7530   18.6024   -0.8991 C   0  0  0  0  0  0  0  0  0  0  0  0
   -4.4699   18.4044   -1.4068 C   0  0  0  0  0  0  0  0  0  0  0  0
   -3.8257   17.1838   -1.2147 C   0  0  0  0  0  0  0  0  0  0  0  0
   -4.4670   16.1621   -0.5155 C   0  0  0  0  0  0  0  0  0  0  0  0
   -5.7524   16.3576   -0.0125 C   0  0  0  0  0  0  0  0  0  0  0  0
  -13.0756   15.5428    5.5366 O   0  0  0  0  0  0  0  0  0  0  0  0
  -10.4885   15.2087    4.5698 C   0  0  2  0  0  0  0  0  0  0  0  0
  -10.3426   14.6639    3.1281 C   0  0  0  0  0  0  0  0  0  0  0  0
  -11.2607   15.2122    2.2618 N   0  0  0  0  0  0  0  0  0  0  0  0
  -11.3294   14.8563    0.8601 C   0  0  1  0  0  0  0  0  0  0  0  0
   -9.1382   15.5636    5.1961 C   0  0  0  0  0  0  0  0  0  0  0  0
   -8.3070   16.4683    4.3076 C   0  0  0  0  0  0  0  0  0  0  0  0
   -9.3288   16.2535    6.5420 C   0  0  0  0  0  0  0  0  0  0  0  0
   -9.5159   13.8530    2.7877 O   0  0  0  0  0  0  0  0  0  0  0  0
  -12.4553   10.6566    1.9210 C   0  0  0  0  0  0  0  0  0  0  0  0
  -13.4885   10.6407    2.8569 C   0  0  0  0  0  0  0  0  0  0  0  0
  -14.2566   11.7843    3.0626 C   0  0  0  0  0  0  0  0  0  0  0  0
  -13.9942   12.9381    2.3300 C   0  0  0  0  0  0  0  0  0  0  0  0
  -12.9570   12.9610    1.3919 C   0  0  0  0  0  0  0  0  0  0  0  0
  -12.1912   11.8123    1.1883 C   0  0  0  0  0  0  0  0  0  0  0  0
  -12.6976   14.2105    0.6054 C   0  0  0  0  0  0  0  0  0  0  0  0
  -11.3070   16.1549    0.0589 C   0  0  0  0  0  0  0  0  0  0  0  0
  -10.1991   17.1281    0.4340 C   0  0  1  0  0  0  0  0  0  0  0  0
   -8.7894   16.7086    0.0082 C   0  0  1  0  0  0  0  0  0  0  0  0
   -8.7553   16.5358   -1.4421 N   0  0  0  0  0  0  0  0  0  0  0  0
   -8.5552   15.3150   -1.9962 C   0  0  0  0  0  0  0  0  0  0  0  0
   -8.4799   15.2370   -3.5132 C   0  0  0  0  0  0  0  0  0  0  0  0
   -8.6213   16.5166   -4.1393 O   0  0  0  0  0  0  0  0  0  0  0  0
   -8.0849   16.5994   -5.4051 C   0  0  0  0  0  0  0  0  0  0  0  0
  -10.4935   18.3852   -0.1949 O   0  0  0  0  0  0  0  0  0  0  0  0
   -7.7923   17.8205    0.3406 C   0  0  0  0  0  0  0  0  0  0  0  0
   -8.4684   14.2847   -1.3035 O   0  0  0  0  0  0  0  0  0  0  0  0
   -8.7126   16.0111   -6.5147 C   0  0  0  0  0  0  0  0  0  0  0  0
   -8.1643   16.1924   -7.7959 C   0  0  0  0  0  0  0  0  0  0  0  0
   -7.0217   16.9638   -7.9791 C   0  0  0  0  0  0  0  0  0  0  0  0
   -6.4133   17.5663   -6.8860 C   0  0  0  0  0  0  0  0  0  0  0  0
   -6.9459   17.4018   -5.5961 C   0  0  0  0  0  0  0  0  0  0  0  0
   -6.2452   18.0799   -4.4582 C   0  0  0  0  0  0  0  0  0  0  0  0
   -9.9517   15.1858   -6.4040 C   0  0  0  0  0  0  0  0  0  0  0  0
  -11.4486   11.8756    6.0234 C   0  0  0  0  0  0  0  0  0  0  0  0
  -13.3148   11.5139    7.0555 H   0  0  0  0  0  0  0  0  0  0  0  0
  -12.1953   12.5638    7.9474 H   0  0  0  0  0  0  0  0  0  0  0  0
   -9.9172   13.2556    6.6858 H   0  0  0  0  0  0  0  0  0  0  0  0
   -9.7887   12.7605    4.9899 H   0  0  0  0  0  0  0  0  0  0  0  0
  -14.1864   13.5564    6.3540 H   0  0  0  0  0  0  0  0  0  0  0  0
   -6.2526   19.5558   -1.0539 H   0  0  0  0  0  0  0  0  0  0  0  0
   -3.9745   19.2028   -1.9514 H   0  0  0  0  0  0  0  0  0  0  0  0
   -2.8247   17.0294   -1.6070 H   0  0  0  0  0  0  0  0  0  0  0  0
   -3.9652   15.2115   -0.3571 H   0  0  0  0  0  0  0  0  0  0  0  0
   -6.2490   15.5487    0.5203 H   0  0  0  0  0  0  0  0  0  0  0  0
  -11.0892   16.1243    4.4920 H   0  0  0  0  0  0  0  0  0  0  0  0
  -11.9382   15.8637    2.6286 H   0  0  0  0  0  0  0  0  0  0  0  0
  -10.5075   14.1880    0.5679 H   0  0  0  0  0  0  0  0  0  0  0  0
   -8.5720   14.6396    5.3632 H   0  0  0  0  0  0  0  0  0  0  0  0
   -7.3636   16.7125    4.8070 H   0  0  0  0  0  0  0  0  0  0  0  0
   -8.8453   17.3980    4.0986 H   0  0  0  0  0  0  0  0  0  0  0  0
   -8.0764   15.9713    3.3633 H   0  0  0  0  0  0  0  0  0  0  0  0
   -9.9273   15.6360    7.2177 H   0  0  0  0  0  0  0  0  0  0  0  0
   -9.8325   17.2179    6.4108 H   0  0  0  0  0  0  0  0  0  0  0  0
   -8.3545   16.4303    7.0102 H   0  0  0  0  0  0  0  0  0  0  0  0
  -11.8535    9.7660    1.7604 H   0  0  0  0  0  0  0  0  0  0  0  0
  -13.6899    9.7394    3.4259 H   0  0  0  0  0  0  0  0  0  0  0  0
  -15.0600   11.7773    3.7922 H   0  0  0  0  0  0  0  0  0  0  0  0
  -14.6021   13.8255    2.4873 H   0  0  0  0  0  0  0  0  0  0  0  0
  -11.3864   11.8155    0.4565 H   0  0  0  0  0  0  0  0  0  0  0  0
  -12.7997   13.9941   -0.4612 H   0  0  0  0  0  0  0  0  0  0  0  0
  -13.4640   14.9533    0.8746 H   0  0  0  0  0  0  0  0  0  0  0  0
  -12.2665   16.6647    0.2211 H   0  0  0  0  0  0  0  0  0  0  0  0
  -11.2457   15.9140   -1.0090 H   0  0  0  0  0  0  0  0  0  0  0  0
  -10.2018   17.2855    1.5179 H   0  0  0  0  0  0  0  0  0  0  0  0
   -8.5161   15.7743    0.5178 H   0  0  0  0  0  0  0  0  0  0  0  0
   -8.8375   17.3624   -2.0300 H   0  0  0  0  0  0  0  0  0  0  0  0
   -9.2992   14.5688   -3.7986 H   0  0  0  0  0  0  0  0  0  0  0  0
   -7.5198   14.7654   -3.7472 H   0  0  0  0  0  0  0  0  0  0  0  0
  -11.3876   18.6575    0.0658 H   0  0  0  0  0  0  0  0  0  0  0  0
   -8.1717   18.7530   -0.0959 H   0  0  0  0  0  0  0  0  0  0  0  0
   -7.7366   17.9430    1.4249 H   0  0  0  0  0  0  0  0  0  0  0  0
   -8.6378   15.7197   -8.6535 H   0  0  0  0  0  0  0  0  0  0  0  0
   -6.6038   17.0946   -8.9797 H   0  0  0  0  0  0  0  0  0  0  0  0
   -5.5182   18.1685   -7.0304 H   0  0  0  0  0  0  0  0  0  0  0  0
   -6.7567   17.8727   -3.5195 H   0  0  0  0  0  0  0  0  0  0  0  0
   -6.2310   19.1624   -4.6186 H   0  0  0  0  0  0  0  0  0  0  0  0
   -5.2146   17.7143   -4.3848 H   0  0  0  0  0  0  0  0  0  0  0  0
  -10.2929   15.1336   -5.3745 H   0  0  0  0  0  0  0  0  0  0  0  0
   -9.7513   14.1702   -6.7584 H   0  0  0  0  0  0  0  0  0  0  0  0
  -10.7571   15.6266   -6.9954 H   0  0  0  0  0  0  0  0  0  0  0  0
  -11.8847   11.5902    5.0678 H   0  0  0  0  0  0  0  0  0  0  0  0
  -10.9083   11.0399    6.4566 H   0  0  0  0  0  0  0  0  0  0  0  0
  1  5  1  0  0  0  0
  1 46  1  0  0  0  0
  1 47  1  0  0  0  0
  1 48  1  0  0  0  0
  2  3  1  0  0  0  0
  2 46  1  0  0  0  0
  2 49  1  0  0  0  0
  2 50  1  0  0  0  0
  3  4  1  0  0  0  0
  3 13  1  0  0  0  0
  4  5  1  0  0  0  0
  4 12  2  0  0  0  0
  5 51  1  0  0  0  0
  6  7  2  0  0  0  0
  6 11  1  0  0  0  0
  6 37  1  0  0  0  0
  7  8  1  0  0  0  0
  7 52  1  0  0  0  0
  8  9  2  0  0  0  0
  8 53  1  0  0  0  0
  9 10  1  0  0  0  0
  9 54  1  0  0  0  0
 10 11  2  0  0  0  0
 10 55  1  0  0  0  0
 11 56  1  0  0  0  0
 13 14  1  0  0  0  0
 13 17  1  0  0  0  0
 13 57  1  6  0  0  0
 14 15  1  0  0  0  0
 14 20  2  0  0  0  0
 15 16  1  0  0  0  0
 15 58  1  0  0  0  0
 16 27  1  0  0  0  0
 16 28  1  0  0  0  0
 16 59  1  6  0  0  0
 17 18  1  0  0  0  0
 17 19  1  0  0  0  0
 17 60  1  0  0  0  0
 18 61  1  0  0  0  0
 18 62  1  0  0  0  0
 18 63  1  0  0  0  0
 19 64  1  0  0  0  0
 19 65  1  0  0  0  0
 19 66  1  0  0  0  0
 21 22  2  0  0  0  0
 21 26  1  0  0  0  0
 21 67  1  0  0  0  0
 22 23  1  0  0  0  0
 22 68  1  0  0  0  0
 23 24  2  0  0  0  0
 23 69  1  0  0  0  0
 24 25  1  0  0  0  0
 24 70  1  0  0  0  0
 25 26  2  0  0  0  0
 25 27  1  0  0  0  0
 26 71  1  0  0  0  0
 27 72  1  0  0  0  0
 27 73  1  0  0  0  0
 28 29  1  0  0  0  0
 28 74  1  0  0  0  0
 28 75  1  0  0  0  0
 29 30  1  0  0  0  0
 29 36  1  0  0  0  0
 29 76  1  1  0  0  0
 30 31  1  0  0  0  0
 30 37  1  0  0  0  0
 30 77  1  1  0  0  0
 31 32  1  0  0  0  0
 31 78  1  0  0  0  0
 32 33  1  0  0  0  0
 32 38  2  0  0  0  0
 33 34  1  0  0  0  0
 33 79  1  0  0  0  0
 33 80  1  0  0  0  0
 34 35  1  0  0  0  0
 35 39  2  0  0  0  0
 35 43  1  0  0  0  0
 36 81  1  0  0  0  0
 37 82  1  0  0  0  0
 37 83  1  0  0  0  0
 39 40  1  0  0  0  0
 39 45  1  0  0  0  0
 40 41  2  0  0  0  0
 40 84  1  0  0  0  0
 41 42  1  0  0  0  0
 41 85  1  0  0  0  0
 42 43  2  0  0  0  0
 42 86  1  0  0  0  0
 43 44  1  0  0  0  0
 44 87  1  0  0  0  0
 44 88  1  0  0  0  0
 44 89  1  0  0  0  0
 45 90  1  0  0  0  0
 45 91  1  0  0  0  0
 45 92  1  0  0  0  0
 46 93  1  0  0  0  0
 46 94  1  0  0  0  0
M  END
$$$$
