AB1
 OpenBabel04051918563D

 94 97  0  0  1  0  0  0  0  0999 V2000
   22.7884   24.7046    7.6652 C   0  0  0  0  0  0  0  0  0  0  0  0
   22.8718   26.9392    8.6849 C   0  0  0  0  0  0  0  0  0  0  0  0
   22.8480   26.2730    9.9799 N   0  0  0  0  0  0  0  0  0  0  0  0
   22.6329   24.9232   10.1341 C   0  0  0  0  0  0  0  0  0  0  0  0
   22.5809   24.1796    8.9888 N   0  0  0  0  0  0  0  0  0  0  0  0
   22.2283   32.6108   15.1282 C   0  0  0  0  0  0  0  0  0  0  0  0
   22.0321   33.4870   16.2045 C   0  0  0  0  0  0  0  0  0  0  0  0
   22.2182   34.8635   16.0566 C   0  0  0  0  0  0  0  0  0  0  0  0
   22.6090   35.3748   14.8260 C   0  0  0  0  0  0  0  0  0  0  0  0
   22.8179   34.5055   13.7533 C   0  0  0  0  0  0  0  0  0  0  0  0
   22.6277   33.1302   13.8963 C   0  0  0  0  0  0  0  0  0  0  0  0
   22.5359   24.3764   11.2119 O   0  0  0  0  0  0  0  0  0  0  0  0
   23.0010   27.0838   11.1854 C   0  0  2  0  0  0  0  0  0  0  0  0
   21.7652   27.9904   11.3349 C   0  0  0  0  0  0  0  0  0  0  0  0
   20.9007   27.5493   12.3016 N   0  0  0  0  0  0  0  0  0  0  0  0
   19.6408   28.2222   12.5704 C   0  0  1  0  0  0  0  0  0  0  0  0
   24.3215   27.8686   11.1840 C   0  0  0  0  0  0  0  0  0  0  0  0
   24.4609   28.7145   12.4435 C   0  0  0  0  0  0  0  0  0  0  0  0
   25.5003   26.9026   11.0741 C   0  0  0  0  0  0  0  0  0  0  0  0
   21.5911   28.9829   10.6597 O   0  0  0  0  0  0  0  0  0  0  0  0
   17.8400   27.5718    8.3702 C   0  0  0  0  0  0  0  0  0  0  0  0
   18.4637   26.4146    7.9118 C   0  0  0  0  0  0  0  0  0  0  0  0
   19.0908   25.5590    8.8121 C   0  0  0  0  0  0  0  0  0  0  0  0
   19.0851   25.8592   10.1706 C   0  0  0  0  0  0  0  0  0  0  0  0
   18.4747   27.0296   10.6325 C   0  0  0  0  0  0  0  0  0  0  0  0
   17.8544   27.8839    9.7249 C   0  0  0  0  0  0  0  0  0  0  0  0
   18.4609   27.3668   12.0944 C   0  0  0  0  0  0  0  0  0  0  0  0
   19.4491   28.4407   14.0735 C   0  0  0  0  0  0  0  0  0  0  0  0
   20.6149   29.1030   14.7975 C   0  0  1  0  0  0  0  0  0  0  0  0
   20.7955   30.6039   14.4928 C   0  0  1  0  0  0  0  0  0  0  0  0
   19.5883   31.3701   14.8094 N   0  0  0  0  0  0  0  0  0  0  0  0
   18.7596   31.8980   13.8526 C   0  0  0  0  0  0  0  0  0  0  0  0
   17.5470   32.6905   14.3369 C   0  0  0  0  0  0  0  0  0  0  0  0
   17.4081   32.6629   15.7596 O   0  0  0  0  0  0  0  0  0  0  0  0
   16.6520   33.6997   16.2613 C   0  0  0  0  0  0  0  0  0  0  0  0
   20.3908   28.8917   16.2025 O   0  0  0  0  0  0  0  0  0  0  0  0
   21.9960   31.1345   15.2962 C   0  0  0  0  0  0  0  0  0  0  0  0
   18.9622   31.7457   12.6408 O   0  0  0  0  0  0  0  0  0  0  0  0
   15.2558   33.6307   16.2599 C   0  0  0  0  0  0  0  0  0  0  0  0
   14.5158   34.6634   16.8561 C   0  0  0  0  0  0  0  0  0  0  0  0
   15.1556   35.7474   17.4567 C   0  0  0  0  0  0  0  0  0  0  0  0
   16.5453   35.8013   17.4706 C   0  0  0  0  0  0  0  0  0  0  0  0
   17.3010   34.7682   16.8919 C   0  0  0  0  0  0  0  0  0  0  0  0
   18.7945   34.8401   16.9387 C   0  0  0  0  0  0  0  0  0  0  0  0
   14.5372   32.4900   15.6156 C   0  0  0  0  0  0  0  0  0  0  0  0
   23.5421   26.0157    7.6941 C   0  0  0  0  0  0  0  0  0  0  0  0
   21.8093   24.8390    7.1974 H   0  0  0  0  0  0  0  0  0  0  0  0
   23.3552   23.9626    7.0958 H   0  0  0  0  0  0  0  0  0  0  0  0
   23.4344   27.8708    8.7599 H   0  0  0  0  0  0  0  0  0  0  0  0
   21.8521   27.1913    8.3776 H   0  0  0  0  0  0  0  0  0  0  0  0
   22.3686   23.1950    9.1224 H   0  0  0  0  0  0  0  0  0  0  0  0
   21.7230   33.0944   17.1692 H   0  0  0  0  0  0  0  0  0  0  0  0
   22.0554   35.5319   16.8982 H   0  0  0  0  0  0  0  0  0  0  0  0
   22.7539   36.4445   14.7011 H   0  0  0  0  0  0  0  0  0  0  0  0
   23.1332   34.9038   12.7929 H   0  0  0  0  0  0  0  0  0  0  0  0
   22.7848   32.4685   13.0480 H   0  0  0  0  0  0  0  0  0  0  0  0
   23.0239   26.4277   12.0613 H   0  0  0  0  0  0  0  0  0  0  0  0
   21.1119   26.6824   12.7774 H   0  0  0  0  0  0  0  0  0  0  0  0
   19.6342   29.1884   12.0575 H   0  0  0  0  0  0  0  0  0  0  0  0
   24.3561   28.5473   10.3280 H   0  0  0  0  0  0  0  0  0  0  0  0
   25.4138   29.2546   12.4356 H   0  0  0  0  0  0  0  0  0  0  0  0
   24.4229   28.0829   13.3371 H   0  0  0  0  0  0  0  0  0  0  0  0
   23.6515   29.4488   12.5001 H   0  0  0  0  0  0  0  0  0  0  0  0
   25.4141   26.2893   10.1719 H   0  0  0  0  0  0  0  0  0  0  0  0
   25.5320   26.2338   11.9418 H   0  0  0  0  0  0  0  0  0  0  0  0
   26.4435   27.4543   11.0198 H   0  0  0  0  0  0  0  0  0  0  0  0
   17.3425   28.2381    7.6725 H   0  0  0  0  0  0  0  0  0  0  0  0
   18.4566   26.1794    6.8518 H   0  0  0  0  0  0  0  0  0  0  0  0
   19.5845   24.6596    8.4579 H   0  0  0  0  0  0  0  0  0  0  0  0
   19.5528   25.1737   10.8738 H   0  0  0  0  0  0  0  0  0  0  0  0
   17.3654   28.7884   10.0802 H   0  0  0  0  0  0  0  0  0  0  0  0
   17.5305   27.9016   12.3183 H   0  0  0  0  0  0  0  0  0  0  0  0
   18.4471   26.4257   12.6605 H   0  0  0  0  0  0  0  0  0  0  0  0
   19.2621   27.4676   14.5505 H   0  0  0  0  0  0  0  0  0  0  0  0
   18.5473   29.0463   14.2199 H   0  0  0  0  0  0  0  0  0  0  0  0
   21.5400   28.5849   14.5231 H   0  0  0  0  0  0  0  0  0  0  0  0
   21.0079   30.7163   13.4248 H   0  0  0  0  0  0  0  0  0  0  0  0
   19.3491   31.5176   15.7863 H   0  0  0  0  0  0  0  0  0  0  0  0
   16.6827   32.2194   13.8527 H   0  0  0  0  0  0  0  0  0  0  0  0
   17.6704   33.7098   13.9544 H   0  0  0  0  0  0  0  0  0  0  0  0
   21.1624   29.2144   16.6984 H   0  0  0  0  0  0  0  0  0  0  0  0
   21.8439   30.9339   16.3648 H   0  0  0  0  0  0  0  0  0  0  0  0
   22.8997   30.5934   14.9871 H   0  0  0  0  0  0  0  0  0  0  0  0
   13.4296   34.6252   16.8409 H   0  0  0  0  0  0  0  0  0  0  0  0
   14.5707   36.5431   17.9123 H   0  0  0  0  0  0  0  0  0  0  0  0
   17.0431   36.6522   17.9310 H   0  0  0  0  0  0  0  0  0  0  0  0
   19.2301   33.9658   16.4534 H   0  0  0  0  0  0  0  0  0  0  0  0
   19.1395   34.8651   17.9762 H   0  0  0  0  0  0  0  0  0  0  0  0
   19.1423   35.7353   16.4152 H   0  0  0  0  0  0  0  0  0  0  0  0
   15.2455   31.7623   15.2205 H   0  0  0  0  0  0  0  0  0  0  0  0
   13.9276   32.8625   14.7884 H   0  0  0  0  0  0  0  0  0  0  0  0
   13.9059   31.9756   16.3412 H   0  0  0  0  0  0  0  0  0  0  0  0
   23.5430   26.4676    6.7021 H   0  0  0  0  0  0  0  0  0  0  0  0
   24.5759   25.8369    8.0100 H   0  0  0  0  0  0  0  0  0  0  0  0
  1  5  1  0  0  0  0
  1 46  1  0  0  0  0
  1 47  1  0  0  0  0
  1 48  1  0  0  0  0
  2  3  1  0  0  0  0
  2 46  1  0  0  0  0
  2 49  1  0  0  0  0
  2 50  1  0  0  0  0
  3  4  1  0  0  0  0
  3 13  1  0  0  0  0
  4  5  1  0  0  0  0
  4 12  2  0  0  0  0
  5 51  1  0  0  0  0
  6  7  2  0  0  0  0
  6 11  1  0  0  0  0
  6 37  1  0  0  0  0
  7  8  1  0  0  0  0
  7 52  1  0  0  0  0
  8  9  2  0  0  0  0
  8 53  1  0  0  0  0
  9 10  1  0  0  0  0
  9 54  1  0  0  0  0
 10 11  2  0  0  0  0
 10 55  1  0  0  0  0
 11 56  1  0  0  0  0
 13 14  1  0  0  0  0
 13 17  1  0  0  0  0
 13 57  1  1  0  0  0
 14 15  1  0  0  0  0
 14 20  2  0  0  0  0
 15 16  1  0  0  0  0
 15 58  1  0  0  0  0
 16 27  1  0  0  0  0
 16 28  1  0  0  0  0
 16 59  1  6  0  0  0
 17 18  1  0  0  0  0
 17 19  1  0  0  0  0
 17 60  1  0  0  0  0
 18 61  1  0  0  0  0
 18 62  1  0  0  0  0
 18 63  1  0  0  0  0
 19 64  1  0  0  0  0
 19 65  1  0  0  0  0
 19 66  1  0  0  0  0
 21 22  2  0  0  0  0
 21 26  1  0  0  0  0
 21 67  1  0  0  0  0
 22 23  1  0  0  0  0
 22 68  1  0  0  0  0
 23 24  2  0  0  0  0
 23 69  1  0  0  0  0
 24 25  1  0  0  0  0
 24 70  1  0  0  0  0
 25 26  2  0  0  0  0
 25 27  1  0  0  0  0
 26 71  1  0  0  0  0
 27 72  1  0  0  0  0
 27 73  1  0  0  0  0
 28 29  1  0  0  0  0
 28 74  1  0  0  0  0
 28 75  1  0  0  0  0
 29 30  1  0  0  0  0
 29 36  1  0  0  0  0
 29 76  1  6  0  0  0
 30 31  1  0  0  0  0
 30 37  1  0  0  0  0
 30 77  1  6  0  0  0
 31 32  1  0  0  0  0
 31 78  1  0  0  0  0
 32 33  1  0  0  0  0
 32 38  2  0  0  0  0
 33 34  1  0  0  0  0
 33 79  1  0  0  0  0
 33 80  1  0  0  0  0
 34 35  1  0  0  0  0
 35 39  2  0  0  0  0
 35 43  1  0  0  0  0
 36 81  1  0  0  0  0
 37 82  1  0  0  0  0
 37 83  1  0  0  0  0
 39 40  1  0  0  0  0
 39 45  1  0  0  0  0
 40 41  2  0  0  0  0
 40 84  1  0  0  0  0
 41 42  1  0  0  0  0
 41 85  1  0  0  0  0
 42 43  2  0  0  0  0
 42 86  1  0  0  0  0
 43 44  1  0  0  0  0
 44 87  1  0  0  0  0
 44 88  1  0  0  0  0
 44 89  1  0  0  0  0
 45 90  1  0  0  0  0
 45 91  1  0  0  0  0
 45 92  1  0  0  0  0
 46 93  1  0  0  0  0
 46 94  1  0  0  0  0
M  END
$$$$
