AB1
 OpenBabel04051918343D

 94 97  0  0  1  0  0  0  0  0999 V2000
    5.3689  -16.5085  -17.3714 C   0  0  0  0  0  0  0  0  0  0  0  0
    7.1556  -17.8941  -16.3809 C   0  0  0  0  0  0  0  0  0  0  0  0
    8.1288  -16.9278  -16.8756 N   0  0  0  0  0  0  0  0  0  0  0  0
    7.7723  -15.8990  -17.7149 C   0  0  0  0  0  0  0  0  0  0  0  0
    6.4355  -15.7186  -17.9472 N   0  0  0  0  0  0  0  0  0  0  0  0
   14.9994  -20.6577  -15.2607 C   0  0  0  0  0  0  0  0  0  0  0  0
   16.3089  -21.1408  -15.1814 C   0  0  0  0  0  0  0  0  0  0  0  0
   16.6157  -22.2137  -14.3607 C   0  0  0  0  0  0  0  0  0  0  0  0
   15.6048  -22.8161  -13.6153 C   0  0  0  0  0  0  0  0  0  0  0  0
   14.2913  -22.3455  -13.6915 C   0  0  0  0  0  0  0  0  0  0  0  0
   13.9850  -21.2650  -14.5141 C   0  0  0  0  0  0  0  0  0  0  0  0
    8.5958  -15.1355  -18.2240 O   0  0  0  0  0  0  0  0  0  0  0  0
    9.5496  -17.1502  -16.5600 C   0  0  2  0  0  0  0  0  0  0  0  0
   10.0327  -18.4383  -17.2671 C   0  0  0  0  0  0  0  0  0  0  0  0
   10.7883  -18.1766  -18.3846 N   0  0  0  0  0  0  0  0  0  0  0  0
   11.3187  -19.2266  -19.2477 C   0  0  1  0  0  0  0  0  0  0  0  0
    9.7977  -17.2737  -15.0455 C   0  0  0  0  0  0  0  0  0  0  0  0
   11.2649  -17.5288  -14.7137 C   0  0  0  0  0  0  0  0  0  0  0  0
    9.2787  -16.0462  -14.3022 C   0  0  0  0  0  0  0  0  0  0  0  0
    9.7785  -19.5386  -16.8494 O   0  0  0  0  0  0  0  0  0  0  0  0
    7.1445  -20.7313  -20.4703 C   0  0  0  0  0  0  0  0  0  0  0  0
    6.3535  -19.5833  -20.4457 C   0  0  0  0  0  0  0  0  0  0  0  0
    6.9424  -18.3149  -20.5195 C   0  0  0  0  0  0  0  0  0  0  0  0
    8.3265  -18.1834  -20.5766 C   0  0  0  0  0  0  0  0  0  0  0  0
    9.1270  -19.3254  -20.5672 C   0  0  0  0  0  0  0  0  0  0  0  0
    8.5346  -20.5993  -20.5190 C   0  0  0  0  0  0  0  0  0  0  0  0
   10.6191  -19.1644  -20.6162 C   0  0  0  0  0  0  0  0  0  0  0  0
   12.8098  -18.9711  -19.5064 C   0  0  0  0  0  0  0  0  0  0  0  0
   13.6857  -18.7134  -18.2869 C   0  0  1  0  0  0  0  0  0  0  0  0
   13.8791  -19.9342  -17.3864 C   0  0  1  0  0  0  0  0  0  0  0  0
   14.5563  -21.0077  -18.1209 N   0  0  0  0  0  0  0  0  0  0  0  0
   13.9288  -22.1952  -18.4147 C   0  0  0  0  0  0  0  0  0  0  0  0
   14.7645  -23.2375  -19.1262 C   0  0  0  0  0  0  0  0  0  0  0  0
   16.0734  -22.7486  -19.4158 O   0  0  0  0  0  0  0  0  0  0  0  0
   16.9208  -23.7778  -19.7447 C   0  0  0  0  0  0  0  0  0  0  0  0
   14.9958  -18.3005  -18.7198 O   0  0  0  0  0  0  0  0  0  0  0  0
   14.7265  -19.5091  -16.1858 C   0  0  0  0  0  0  0  0  0  0  0  0
   12.7524  -22.4297  -18.1407 O   0  0  0  0  0  0  0  0  0  0  0  0
   16.8458  -24.3807  -21.0035 C   0  0  0  0  0  0  0  0  0  0  0  0
   17.7418  -25.4115  -21.3064 C   0  0  0  0  0  0  0  0  0  0  0  0
   18.7067  -25.8334  -20.3844 C   0  0  0  0  0  0  0  0  0  0  0  0
   18.7782  -25.2238  -19.1362 C   0  0  0  0  0  0  0  0  0  0  0  0
   17.8966  -24.1766  -18.8109 C   0  0  0  0  0  0  0  0  0  0  0  0
   17.9764  -23.5426  -17.4543 C   0  0  0  0  0  0  0  0  0  0  0  0
   15.8463  -23.9873  -22.0500 C   0  0  0  0  0  0  0  0  0  0  0  0
    5.8339  -17.2097  -16.1152 C   0  0  0  0  0  0  0  0  0  0  0  0
    5.0258  -17.2315  -18.1203 H   0  0  0  0  0  0  0  0  0  0  0  0
    4.5315  -15.8340  -17.1468 H   0  0  0  0  0  0  0  0  0  0  0  0
    7.5264  -18.3278  -15.4505 H   0  0  0  0  0  0  0  0  0  0  0  0
    7.0508  -18.7072  -17.1041 H   0  0  0  0  0  0  0  0  0  0  0  0
    6.2053  -14.9801  -18.6023 H   0  0  0  0  0  0  0  0  0  0  0  0
   17.0854  -20.6662  -15.7780 H   0  0  0  0  0  0  0  0  0  0  0  0
   17.6385  -22.5790  -14.3014 H   0  0  0  0  0  0  0  0  0  0  0  0
   15.8451  -23.6556  -12.9715 H   0  0  0  0  0  0  0  0  0  0  0  0
   13.5125  -22.8269  -13.1047 H   0  0  0  0  0  0  0  0  0  0  0  0
   12.9612  -20.8968  -14.5775 H   0  0  0  0  0  0  0  0  0  0  0  0
   10.1528  -16.3162  -16.9434 H   0  0  0  0  0  0  0  0  0  0  0  0
   10.9056  -17.2127  -18.6554 H   0  0  0  0  0  0  0  0  0  0  0  0
   11.1788  -20.2150  -18.7937 H   0  0  0  0  0  0  0  0  0  0  0  0
    9.2534  -18.1414  -14.6676 H   0  0  0  0  0  0  0  0  0  0  0  0
   11.4009  -17.5962  -13.6280 H   0  0  0  0  0  0  0  0  0  0  0  0
   11.8979  -16.7243  -15.0996 H   0  0  0  0  0  0  0  0  0  0  0  0
   11.5980  -18.4764  -15.1530 H   0  0  0  0  0  0  0  0  0  0  0  0
    8.2263  -15.8668  -14.5442 H   0  0  0  0  0  0  0  0  0  0  0  0
    9.8516  -15.1529  -14.5720 H   0  0  0  0  0  0  0  0  0  0  0  0
    9.3514  -16.1974  -13.2197 H   0  0  0  0  0  0  0  0  0  0  0  0
    6.6798  -21.7162  -20.4532 H   0  0  0  0  0  0  0  0  0  0  0  0
    5.2739  -19.6715  -20.3694 H   0  0  0  0  0  0  0  0  0  0  0  0
    6.3146  -17.4286  -20.5350 H   0  0  0  0  0  0  0  0  0  0  0  0
    8.7831  -17.1918  -20.6166 H   0  0  0  0  0  0  0  0  0  0  0  0
    9.1697  -21.4839  -20.5199 H   0  0  0  0  0  0  0  0  0  0  0  0
   11.0306  -19.9340  -21.2799 H   0  0  0  0  0  0  0  0  0  0  0  0
   10.8375  -18.1849  -21.0745 H   0  0  0  0  0  0  0  0  0  0  0  0
   12.8928  -18.0908  -20.1571 H   0  0  0  0  0  0  0  0  0  0  0  0
   13.2161  -19.8269  -20.0576 H   0  0  0  0  0  0  0  0  0  0  0  0
   13.2533  -17.8984  -17.6963 H   0  0  0  0  0  0  0  0  0  0  0  0
   12.9019  -20.2856  -17.0387 H   0  0  0  0  0  0  0  0  0  0  0  0
   15.5245  -20.8619  -18.4088 H   0  0  0  0  0  0  0  0  0  0  0  0
   14.2142  -23.4826  -20.0404 H   0  0  0  0  0  0  0  0  0  0  0  0
   14.7896  -24.1163  -18.4732 H   0  0  0  0  0  0  0  0  0  0  0  0
   14.9011  -17.5322  -19.2960 H   0  0  0  0  0  0  0  0  0  0  0  0
   15.6882  -19.1062  -16.5438 H   0  0  0  0  0  0  0  0  0  0  0  0
   14.2250  -18.7089  -15.6293 H   0  0  0  0  0  0  0  0  0  0  0  0
   17.6847  -25.8921  -22.2772 H   0  0  0  0  0  0  0  0  0  0  0  0
   19.3933  -26.6331  -20.6530 H   0  0  0  0  0  0  0  0  0  0  0  0
   19.5179  -25.5741  -18.4174 H   0  0  0  0  0  0  0  0  0  0  0  0
   17.2343  -22.7460  -17.3646 H   0  0  0  0  0  0  0  0  0  0  0  0
   18.9667  -23.1065  -17.2898 H   0  0  0  0  0  0  0  0  0  0  0  0
   17.7745  -24.2873  -16.6766 H   0  0  0  0  0  0  0  0  0  0  0  0
   15.2094  -23.1698  -21.7112 H   0  0  0  0  0  0  0  0  0  0  0  0
   15.2053  -24.8408  -22.3014 H   0  0  0  0  0  0  0  0  0  0  0  0
   16.3569  -23.6465  -22.9550 H   0  0  0  0  0  0  0  0  0  0  0  0
    5.0927  -17.9433  -15.8009 H   0  0  0  0  0  0  0  0  0  0  0  0
    5.9633  -16.4687  -15.3170 H   0  0  0  0  0  0  0  0  0  0  0  0
  1  5  1  0  0  0  0
  1 46  1  0  0  0  0
  1 47  1  0  0  0  0
  1 48  1  0  0  0  0
  2  3  1  0  0  0  0
  2 46  1  0  0  0  0
  2 49  1  0  0  0  0
  2 50  1  0  0  0  0
  3  4  1  0  0  0  0
  3 13  1  0  0  0  0
  4  5  1  0  0  0  0
  4 12  2  0  0  0  0
  5 51  1  0  0  0  0
  6  7  2  0  0  0  0
  6 11  1  0  0  0  0
  6 37  1  0  0  0  0
  7  8  1  0  0  0  0
  7 52  1  0  0  0  0
  8  9  2  0  0  0  0
  8 53  1  0  0  0  0
  9 10  1  0  0  0  0
  9 54  1  0  0  0  0
 10 11  2  0  0  0  0
 10 55  1  0  0  0  0
 11 56  1  0  0  0  0
 13 14  1  0  0  0  0
 13 17  1  0  0  0  0
 13 57  1  6  0  0  0
 14 15  1  0  0  0  0
 14 20  2  0  0  0  0
 15 16  1  0  0  0  0
 15 58  1  0  0  0  0
 16 27  1  0  0  0  0
 16 28  1  0  0  0  0
 16 59  1  1  0  0  0
 17 18  1  0  0  0  0
 17 19  1  0  0  0  0
 17 60  1  0  0  0  0
 18 61  1  0  0  0  0
 18 62  1  0  0  0  0
 18 63  1  0  0  0  0
 19 64  1  0  0  0  0
 19 65  1  0  0  0  0
 19 66  1  0  0  0  0
 21 22  2  0  0  0  0
 21 26  1  0  0  0  0
 21 67  1  0  0  0  0
 22 23  1  0  0  0  0
 22 68  1  0  0  0  0
 23 24  2  0  0  0  0
 23 69  1  0  0  0  0
 24 25  1  0  0  0  0
 24 70  1  0  0  0  0
 25 26  2  0  0  0  0
 25 27  1  0  0  0  0
 26 71  1  0  0  0  0
 27 72  1  0  0  0  0
 27 73  1  0  0  0  0
 28 29  1  0  0  0  0
 28 74  1  0  0  0  0
 28 75  1  0  0  0  0
 29 30  1  0  0  0  0
 29 36  1  0  0  0  0
 29 76  1  1  0  0  0
 30 31  1  0  0  0  0
 30 37  1  0  0  0  0
 30 77  1  1  0  0  0
 31 32  1  0  0  0  0
 31 78  1  0  0  0  0
 32 33  1  0  0  0  0
 32 38  2  0  0  0  0
 33 34  1  0  0  0  0
 33 79  1  0  0  0  0
 33 80  1  0  0  0  0
 34 35  1  0  0  0  0
 35 39  2  0  0  0  0
 35 43  1  0  0  0  0
 36 81  1  0  0  0  0
 37 82  1  0  0  0  0
 37 83  1  0  0  0  0
 39 40  1  0  0  0  0
 39 45  1  0  0  0  0
 40 41  2  0  0  0  0
 40 84  1  0  0  0  0
 41 42  1  0  0  0  0
 41 85  1  0  0  0  0
 42 43  2  0  0  0  0
 42 86  1  0  0  0  0
 43 44  1  0  0  0  0
 44 87  1  0  0  0  0
 44 88  1  0  0  0  0
 44 89  1  0  0  0  0
 45 90  1  0  0  0  0
 45 91  1  0  0  0  0
 45 92  1  0  0  0  0
 46 93  1  0  0  0  0
 46 94  1  0  0  0  0
M  END
$$$$
