ACX
 OpenBabel04051921093D

126132  0  0  1  0  0  0  0  0999 V2000
   16.6132    5.9179   12.6190 C   0  0  1  0  0  0  0  0  0  0  0  0
   15.5479    5.8910   13.7336 C   0  0  1  0  0  0  0  0  0  0  0  0
   16.0216    4.9377   14.8224 C   0  0  2  0  0  0  0  0  0  0  0  0
   16.1533    3.5278   14.2516 C   0  0  1  0  0  0  0  0  0  0  0  0
   17.1830    3.6334   13.1130 C   0  0  1  0  0  0  0  0  0  0  0  0
   17.3870    2.2925   12.4185 C   0  0  0  0  0  0  0  0  0  0  0  0
   17.8364    6.3440   13.2269 O   0  0  0  0  0  0  0  0  0  0  0  0
   15.3715    7.2201   14.2566 O   0  0  0  0  0  0  0  0  0  0  0  0
   15.0533    4.9623   15.8954 O   0  0  0  0  0  0  0  0  0  0  0  0
   16.7925    4.5953   12.1036 O   0  0  0  0  0  0  0  0  0  0  0  0
   16.2019    1.8928   11.7310 O   0  0  0  0  0  0  0  0  0  0  0  0
   20.8239    9.2392   13.1601 C   0  0  1  0  0  0  0  0  0  0  0  0
   19.3823    9.7653   13.1507 C   0  0  1  0  0  0  0  0  0  0  0  0
   18.4851    8.6172   13.5965 C   0  0  2  0  0  0  0  0  0  0  0  0
   18.6015    7.4202   12.6752 C   0  0  1  0  0  0  0  0  0  0  0  0
   20.0915    7.0041   12.6582 C   0  0  1  0  0  0  0  0  0  0  0  0
   20.2772    5.8295   11.6765 C   0  0  0  0  0  0  0  0  0  0  0  0
   21.0862    8.7754   14.4798 O   0  0  0  0  0  0  0  0  0  0  0  0
   19.2079   10.8987   14.0361 O   0  0  0  0  0  0  0  0  0  0  0  0
   17.1301    9.1298   13.6237 O   0  0  0  0  0  0  0  0  0  0  0  0
   20.9335    8.1181   12.2704 O   0  0  0  0  0  0  0  0  0  0  0  0
   21.5852    5.2568   11.7479 O   0  0  0  0  0  0  0  0  0  0  0  0
   23.8130    8.3344   17.5454 C   0  0  1  0  0  0  0  0  0  0  0  0
   22.6105    9.2648   17.8350 C   0  0  1  0  0  0  0  0  0  0  0  0
   21.5687    9.0318   16.7304 C   0  0  2  0  0  0  0  0  0  0  0  0
   22.1303    9.2987   15.3079 C   0  0  1  0  0  0  0  0  0  0  0  0
   23.4208    8.4809   15.1497 C   0  0  1  0  0  0  0  0  0  0  0  0
   24.2231    8.8505   13.8929 C   0  0  0  0  0  0  0  0  0  0  0  0
   23.3318    6.9860   17.6035 O   0  0  0  0  0  0  0  0  0  0  0  0
   22.0544    8.9859   19.1387 O   0  0  0  0  0  0  0  0  0  0  0  0
   20.3874    9.8432   16.8816 O   0  0  0  0  0  0  0  0  0  0  0  0
   24.3418    8.6245   16.2573 O   0  0  0  0  0  0  0  0  0  0  0  0
   24.8599   10.1260   14.0324 O   0  0  0  0  0  0  0  0  0  0  0  0
   24.3601    3.1360   18.8288 C   0  0  1  0  0  0  0  0  0  0  0  0
   24.2697    4.2083   19.9266 C   0  0  1  0  0  0  0  0  0  0  0  0
   23.4903    5.3945   19.3484 C   0  0  2  0  0  0  0  0  0  0  0  0
   24.2145    5.9743   18.1175 C   0  0  1  0  0  0  0  0  0  0  0  0
   24.3782    4.8412   17.0898 C   0  0  1  0  0  0  0  0  0  0  0  0
   25.2412    5.2750   15.8893 C   0  0  0  0  0  0  0  0  0  0  0  0
   23.0106    2.7997   18.5240 O   0  0  0  0  0  0  0  0  0  0  0  0
   23.5972    3.6474   21.0751 O   0  0  0  0  0  0  0  0  0  0  0  0
   23.3524    6.4062   20.3689 O   0  0  0  0  0  0  0  0  0  0  0  0
   25.0085    3.6751   17.6711 O   0  0  0  0  0  0  0  0  0  0  0  0
   24.9148    4.4981   14.7278 O   0  0  0  0  0  0  0  0  0  0  0  0
   20.3250   -0.3523   17.9187 C   0  0  1  0  0  0  0  0  0  0  0  0
   20.9611   -0.2237   19.3312 C   0  0  1  0  0  0  0  0  0  0  0  0
   21.5422    1.1826   19.5028 C   0  0  2  0  0  0  0  0  0  0  0  0
   22.5868    1.4377   18.4063 C   0  0  1  0  0  0  0  0  0  0  0  0
   21.8856    1.2689   17.0460 C   0  0  1  0  0  0  0  0  0  0  0  0
   22.9114    1.5201   15.9241 C   0  0  0  0  0  0  0  0  0  0  0  0
   19.2458    0.5587   17.8028 O   0  0  0  0  0  0  0  0  0  0  0  0
   19.9785   -0.4900   20.3476 O   0  0  0  0  0  0  0  0  0  0  0  0
   22.1508    1.2905   20.8028 O   0  0  0  0  0  0  0  0  0  0  0  0
   21.3131   -0.0518   16.9114 O   0  0  0  0  0  0  0  0  0  0  0  0
   22.3363    1.4699   14.6126 O   0  0  0  0  0  0  0  0  0  0  0  0
   15.8785    1.4873   15.6018 C   0  0  1  0  0  0  0  0  0  0  0  0
   15.6909    1.4243   17.1299 C   0  0  1  0  0  0  0  0  0  0  0  0
   17.0989    1.4001   17.7556 C   0  0  2  0  0  0  0  0  0  0  0  0
   17.9535    0.1907   17.2884 C   0  0  1  0  0  0  0  0  0  0  0  0
   17.9076    0.1512   15.7497 C   0  0  1  0  0  0  0  0  0  0  0  0
   18.4174   -1.1815   15.1856 C   0  0  0  0  0  0  0  0  0  0  0  0
   16.6462    2.6641   15.2910 O   0  0  0  0  0  0  0  0  0  0  0  0
   14.9592    2.5791   17.5909 O   0  0  0  0  0  0  0  0  0  0  0  0
   17.0328    1.4260   19.1913 O   0  0  0  0  0  0  0  0  0  0  0  0
   16.5753    0.3081   15.2102 O   0  0  0  0  0  0  0  0  0  0  0  0
   18.4118   -1.1655   13.7502 O   0  0  0  0  0  0  0  0  0  0  0  0
   16.2744    6.5871   11.8121 H   0  0  0  0  0  0  0  0  0  0  0  0
   14.5795    5.5494   13.3754 H   0  0  0  0  0  0  0  0  0  0  0  0
   16.9791    5.2855   15.2789 H   0  0  0  0  0  0  0  0  0  0  0  0
   15.1654    3.2270   13.8780 H   0  0  0  0  0  0  0  0  0  0  0  0
   18.1608    3.9128   13.5346 H   0  0  0  0  0  0  0  0  0  0  0  0
   17.6418    1.5157   13.1442 H   0  0  0  0  0  0  0  0  0  0  0  0
   18.2052    2.3675   11.6909 H   0  0  0  0  0  0  0  0  0  0  0  0
   16.1878    7.3516   14.7934 H   0  0  0  0  0  0  0  0  0  0  0  0
   15.3768    4.4008   16.5396 H   0  0  0  0  0  0  0  0  0  0  0  0
   15.9974    2.5827   11.0765 H   0  0  0  0  0  0  0  0  0  0  0  0
   21.5055   10.0411   12.8464 H   0  0  0  0  0  0  0  0  0  0  0  0
   19.0650   10.0783   12.1462 H   0  0  0  0  0  0  0  0  0  0  0  0
   18.7199    8.3349   14.6529 H   0  0  0  0  0  0  0  0  0  0  0  0
   18.2935    7.7229   11.6659 H   0  0  0  0  0  0  0  0  0  0  0  0
   20.4082    6.6447   13.6518 H   0  0  0  0  0  0  0  0  0  0  0  0
   20.1273    6.1842   10.6541 H   0  0  0  0  0  0  0  0  0  0  0  0
   19.5541    5.0308   11.8817 H   0  0  0  0  0  0  0  0  0  0  0  0
   19.4476   10.6154   14.9345 H   0  0  0  0  0  0  0  0  0  0  0  0
   16.5370    8.4724   13.8066 H   0  0  0  0  0  0  0  0  0  0  0  0
   21.7318    4.9115   12.6418 H   0  0  0  0  0  0  0  0  0  0  0  0
   24.5845    8.5062   18.3101 H   0  0  0  0  0  0  0  0  0  0  0  0
   22.9220   10.3124   17.8238 H   0  0  0  0  0  0  0  0  0  0  0  0
   21.2342    7.9830   16.8000 H   0  0  0  0  0  0  0  0  0  0  0  0
   22.2886   10.3797   15.1678 H   0  0  0  0  0  0  0  0  0  0  0  0
   23.1296    7.4282   15.0256 H   0  0  0  0  0  0  0  0  0  0  0  0
   23.5872    8.8877   13.0037 H   0  0  0  0  0  0  0  0  0  0  0  0
   25.0083    8.1004   13.7271 H   0  0  0  0  0  0  0  0  0  0  0  0
   21.7468    8.0714   19.1378 H   0  0  0  0  0  0  0  0  0  0  0  0
   20.0118    9.6971   17.7641 H   0  0  0  0  0  0  0  0  0  0  0  0
   25.4485   10.0791   14.8056 H   0  0  0  0  0  0  0  0  0  0  0  0
   24.9453    2.2824   19.2144 H   0  0  0  0  0  0  0  0  0  0  0  0
   25.2665    4.5448   20.2308 H   0  0  0  0  0  0  0  0  0  0  0  0
   22.4686    5.0799   19.0763 H   0  0  0  0  0  0  0  0  0  0  0  0
   25.2038    6.3641   18.4032 H   0  0  0  0  0  0  0  0  0  0  0  0
   23.3902    4.5787   16.6819 H   0  0  0  0  0  0  0  0  0  0  0  0
   26.3039    5.1148   16.1006 H   0  0  0  0  0  0  0  0  0  0  0  0
   25.0948    6.3260   15.6294 H   0  0  0  0  0  0  0  0  0  0  0  0
   23.5188    4.3505   21.7431 H   0  0  0  0  0  0  0  0  0  0  0  0
   22.8803    7.1505   19.9880 H   0  0  0  0  0  0  0  0  0  0  0  0
   23.9774    4.6318   14.5164 H   0  0  0  0  0  0  0  0  0  0  0  0
   19.9668   -1.3842   17.8037 H   0  0  0  0  0  0  0  0  0  0  0  0
   21.7757   -0.9552   19.4530 H   0  0  0  0  0  0  0  0  0  0  0  0
   20.7317    1.9268   19.4515 H   0  0  0  0  0  0  0  0  0  0  0  0
   23.4015    0.6982   18.5118 H   0  0  0  0  0  0  0  0  0  0  0  0
   21.0970    2.0316   16.9271 H   0  0  0  0  0  0  0  0  0  0  0  0
   23.7105    0.7736   15.9816 H   0  0  0  0  0  0  0  0  0  0  0  0
   23.3530    2.5141   16.0241 H   0  0  0  0  0  0  0  0  0  0  0  0
   20.4115   -0.3653   21.2081 H   0  0  0  0  0  0  0  0  0  0  0  0
   22.5234    2.1942   20.8837 H   0  0  0  0  0  0  0  0  0  0  0  0
   21.9760    0.5786   14.4900 H   0  0  0  0  0  0  0  0  0  0  0  0
   14.8878    1.5047   15.1185 H   0  0  0  0  0  0  0  0  0  0  0  0
   15.1309    0.5630   17.4364 H   0  0  0  0  0  0  0  0  0  0  0  0
   17.6293    2.3205   17.4709 H   0  0  0  0  0  0  0  0  0  0  0  0
   17.5505   -0.7314   17.7382 H   0  0  0  0  0  0  0  0  0  0  0  0
   18.5653    0.9361   15.3610 H   0  0  0  0  0  0  0  0  0  0  0  0
   17.7651   -2.0033   15.5030 H   0  0  0  0  0  0  0  0  0  0  0  0
   19.4407   -1.3952   15.5073 H   0  0  0  0  0  0  0  0  0  0  0  0
   15.5714    3.2973   17.4543 H   0  0  0  0  0  0  0  0  0  0  0  0
   16.6213    0.6005   19.4916 H   0  0  0  0  0  0  0  0  0  0  0  0
   18.9762   -0.4400   13.4456 H   0  0  0  0  0  0  0  0  0  0  0  0
  1  2  1  0  0  0  0
  1  7  1  0  0  0  0
  1 10  1  0  0  0  0
  1 67  1  6  0  0  0
  2  3  1  0  0  0  0
  2  8  1  0  0  0  0
  2 68  1  6  0  0  0
  3  4  1  0  0  0  0
  3  9  1  0  0  0  0
  3 69  1  1  0  0  0
  4  5  1  0  0  0  0
  4 62  1  0  0  0  0
  4 70  1  6  0  0  0
  5  6  1  0  0  0  0
  5 10  1  0  0  0  0
  5 71  1  1  0  0  0
  6 11  1  0  0  0  0
  6 72  1  0  0  0  0
  6 73  1  0  0  0  0
  7 15  1  0  0  0  0
  8 74  1  0  0  0  0
  9 75  1  0  0  0  0
 11 76  1  0  0  0  0
 12 13  1  0  0  0  0
 12 18  1  0  0  0  0
 12 21  1  0  0  0  0
 12 77  1  6  0  0  0
 13 14  1  0  0  0  0
 13 19  1  0  0  0  0
 13 78  1  6  0  0  0
 14 15  1  0  0  0  0
 14 20  1  0  0  0  0
 14 79  1  1  0  0  0
 15 16  1  0  0  0  0
 15 80  1  6  0  0  0
 16 17  1  0  0  0  0
 16 21  1  0  0  0  0
 16 81  1  1  0  0  0
 17 22  1  0  0  0  0
 17 82  1  0  0  0  0
 17 83  1  0  0  0  0
 18 26  1  0  0  0  0
 19 84  1  0  0  0  0
 20 85  1  0  0  0  0
 22 86  1  0  0  0  0
 23 24  1  0  0  0  0
 23 29  1  0  0  0  0
 23 32  1  0  0  0  0
 23 87  1  1  0  0  0
 24 25  1  0  0  0  0
 24 30  1  0  0  0  0
 24 88  1  6  0  0  0
 25 26  1  0  0  0  0
 25 31  1  0  0  0  0
 25 89  1  1  0  0  0
 26 27  1  0  0  0  0
 26 90  1  6  0  0  0
 27 28  1  0  0  0  0
 27 32  1  0  0  0  0
 27 91  1  6  0  0  0
 28 33  1  0  0  0  0
 28 92  1  0  0  0  0
 28 93  1  0  0  0  0
 29 37  1  0  0  0  0
 30 94  1  0  0  0  0
 31 95  1  0  0  0  0
 33 96  1  0  0  0  0
 34 35  1  0  0  0  0
 34 40  1  0  0  0  0
 34 43  1  0  0  0  0
 34 97  1  1  0  0  0
 35 36  1  0  0  0  0
 35 41  1  0  0  0  0
 35 98  1  1  0  0  0
 36 37  1  0  0  0  0
 36 42  1  0  0  0  0
 36 99  1  6  0  0  0
 37 38  1  0  0  0  0
 37100  1  1  0  0  0
 38 39  1  0  0  0  0
 38 43  1  0  0  0  0
 38101  1  6  0  0  0
 39 44  1  0  0  0  0
 39102  1  0  0  0  0
 39103  1  0  0  0  0
 40 48  1  0  0  0  0
 41104  1  0  0  0  0
 42105  1  0  0  0  0
 44106  1  0  0  0  0
 45 46  1  0  0  0  0
 45 51  1  0  0  0  0
 45 54  1  0  0  0  0
 45107  1  6  0  0  0
 46 47  1  0  0  0  0
 46 52  1  0  0  0  0
 46108  1  1  0  0  0
 47 48  1  0  0  0  0
 47 53  1  0  0  0  0
 47109  1  6  0  0  0
 48 49  1  0  0  0  0
 48110  1  1  0  0  0
 49 50  1  0  0  0  0
 49 54  1  0  0  0  0
 49111  1  6  0  0  0
 50 55  1  0  0  0  0
 50112  1  0  0  0  0
 50113  1  0  0  0  0
 51 59  1  0  0  0  0
 52114  1  0  0  0  0
 53115  1  0  0  0  0
 55116  1  0  0  0  0
 56 57  1  0  0  0  0
 56 62  1  0  0  0  0
 56 65  1  0  0  0  0
 56117  1  6  0  0  0
 57 58  1  0  0  0  0
 57 63  1  0  0  0  0
 57118  1  1  0  0  0
 58 59  1  0  0  0  0
 58 64  1  0  0  0  0
 58119  1  6  0  0  0
 59 60  1  0  0  0  0
 59120  1  1  0  0  0
 60 61  1  0  0  0  0
 60 65  1  0  0  0  0
 60121  1  6  0  0  0
 61 66  1  0  0  0  0
 61122  1  0  0  0  0
 61123  1  0  0  0  0
 63124  1  0  0  0  0
 64125  1  0  0  0  0
 66126  1  0  0  0  0
M  END
$$$$
