ADP
 OpenBabel04051920543D

 39 41  0  0  1  0  0  0  0  0999 V2000
  -21.6699    5.2822   26.5279 P   0  0  0  0  0  0  0  0  0  0  0  0
  -21.0076    5.1558   27.9111 O   0  0  0  0  0  0  0  0  0  0  0  0
  -23.0930    4.6988   26.5096 O   0  0  0  0  0  0  0  0  0  0  0  0
  -21.5920    6.6878   25.9759 O   0  0  0  0  0  0  0  0  0  0  0  0
  -19.5468    4.5328   24.6240 P   0  0  2  0  0  0  0  0  0  0  0  0
  -19.7566    5.5439   23.5032 O   0  0  0  0  0  0  0  0  0  0  0  0
  -19.0008    3.1716   24.1840 O   0  0  0  0  0  0  0  0  0  0  0  0
  -20.8181    4.3115   25.5615 O   0  0  0  0  0  0  0  0  0  0  0  0
  -18.4291    5.1339   25.6413 O   0  0  0  0  0  0  0  0  0  0  0  0
  -18.0452    4.2732   26.6992 C   0  0  0  0  0  0  0  0  0  0  0  0
  -17.3109    5.0513   27.7789 C   0  0  1  0  0  0  0  0  0  0  0  0
  -16.0286    5.5558   27.3133 O   0  0  0  0  0  0  0  0  0  0  0  0
  -18.0866    6.2393   28.3349 C   0  0  1  0  0  0  0  0  0  0  0  0
  -19.0045    5.8305   29.3520 O   0  0  0  0  0  0  0  0  0  0  0  0
  -16.9640    7.0731   28.9414 C   0  0  1  0  0  0  0  0  0  0  0  0
  -16.6658    6.6424   30.2907 O   0  0  0  0  0  0  0  0  0  0  0  0
  -15.7756    6.7870   28.0447 C   0  0  2  0  0  0  0  0  0  0  0  0
  -15.5049    7.8586   27.1152 N   0  3  0  0  0  0  0  0  0  0  0  0
  -15.8716    7.9106   25.7866 C   0  0  0  0  0  0  0  0  0  0  0  0
  -15.5192    9.0483   25.2216 N   0  0  0  0  0  0  0  0  0  0  0  0
  -14.9697    9.7933   26.2492 C   0  0  0  0  0  0  0  0  0  0  0  0
  -14.4557   11.1043   26.2692 C   0  0  0  0  0  0  0  0  0  0  0  0
  -14.4018   11.8984   25.1511 N   0  0  0  0  0  0  0  0  0  0  0  0
  -13.9775   11.5793   27.4409 N   0  0  0  0  0  0  0  0  0  0  0  0
  -13.9994   10.7625   28.5144 C   0  0  0  0  0  0  0  0  0  0  0  0
  -14.4364    9.4961   28.6111 N   0  0  0  0  0  0  0  0  0  0  0  0
  -14.9294    9.0706   27.4235 C   0  0  0  0  0  0  0  0  0  0  0  0
  -17.3817    3.5072   26.2922 H   0  0  0  0  0  0  0  0  0  0  0  0
  -18.9203    3.7882   27.1353 H   0  0  0  0  0  0  0  0  0  0  0  0
  -17.0895    4.3514   28.5933 H   0  0  0  0  0  0  0  0  0  0  0  0
  -18.6002    6.8227   27.5588 H   0  0  0  0  0  0  0  0  0  0  0  0
  -19.7991    5.4626   28.8265 H   0  0  0  0  0  0  0  0  0  0  0  0
  -17.2159    8.1309   29.0183 H   0  0  0  0  0  0  0  0  0  0  0  0
  -17.5608    6.5064   30.6711 H   0  0  0  0  0  0  0  0  0  0  0  0
  -14.8581    6.6211   28.6118 H   0  0  0  0  0  0  0  0  0  0  0  0
  -16.4001    7.0994   25.3033 H   0  0  0  0  0  0  0  0  0  0  0  0
  -14.1091   12.8539   25.2504 H   0  0  0  0  0  0  0  0  0  0  0  0
  -14.8807   11.5550   24.3229 H   0  0  0  0  0  0  0  0  0  0  0  0
  -13.6011   11.1925   29.4316 H   0  0  0  0  0  0  0  0  0  0  0  0
  1  2  2  0  0  0  0
  1  3  1  0  0  0  0
  1  4  1  0  0  0  0
  1  8  1  0  0  0  0
  5  6  2  6  0  0  0
  5  7  1  0  0  0  0
  5  8  1  0  0  0  0
  5  9  1  0  0  0  0
  9 10  1  0  0  0  0
 10 11  1  0  0  0  0
 10 28  1  0  0  0  0
 10 29  1  0  0  0  0
 11 12  1  0  0  0  0
 11 13  1  0  0  0  0
 11 30  1  1  0  0  0
 12 17  1  0  0  0  0
 13 14  1  0  0  0  0
 13 15  1  0  0  0  0
 13 31  1  6  0  0  0
 14 32  1  0  0  0  0
 15 16  1  0  0  0  0
 15 17  1  0  0  0  0
 15 33  1  6  0  0  0
 16 34  1  0  0  0  0
 17 18  1  0  0  0  0
 17 35  1  1  0  0  0
 18 19  2  0  0  0  0
 18 27  1  0  0  0  0
 19 20  1  0  0  0  0
 19 36  1  0  0  0  0
 20 21  1  0  0  0  0
 21 22  2  0  0  0  0
 21 27  1  0  0  0  0
 22 23  1  0  0  0  0
 22 24  1  0  0  0  0
 23 37  1  0  0  0  0
 23 38  1  0  0  0  0
 24 25  2  0  0  0  0
 25 26  1  0  0  0  0
 25 39  1  0  0  0  0
 26 27  2  0  0  0  0
M  CHG  1  18   1
M  END
$$$$
