ADP
 OpenBabel04051917423D

 39 41  0  0  1  0  0  0  0  0999 V2000
    6.6520   -5.0673   28.7622 P   0  0  0  0  0  0  0  0  0  0  0  0
    6.7471   -4.4892   27.3418 O   0  0  0  0  0  0  0  0  0  0  0  0
    7.3576   -4.2636   29.8331 O   0  0  0  0  0  0  0  0  0  0  0  0
    5.1910   -5.3450   29.1643 O   0  0  0  0  0  0  0  0  0  0  0  0
    8.3632   -7.1835   27.6904 P   0  0  1  0  0  0  0  0  0  0  0  0
    9.4048   -6.2559   27.1347 O   0  0  0  0  0  0  0  0  0  0  0  0
    8.8847   -8.5113   28.2753 O   0  0  0  0  0  0  0  0  0  0  0  0
    7.3355   -6.5302   28.7344 O   0  0  0  0  0  0  0  0  0  0  0  0
    7.3629   -7.6085   26.4422 O   0  0  0  0  0  0  0  0  0  0  0  0
    6.6812   -8.8413   26.4219 C   0  0  0  0  0  0  0  0  0  0  0  0
    5.7240   -8.8629   25.2048 C   0  0  1  0  0  0  0  0  0  0  0  0
    6.4497   -9.3270   24.0217 O   0  0  0  0  0  0  0  0  0  0  0  0
    4.4853   -9.7687   25.3413 C   0  0  1  0  0  0  0  0  0  0  0  0
    3.3349   -9.0450   24.8564 O   0  0  0  0  0  0  0  0  0  0  0  0
    4.7547  -10.9762   24.4387 C   0  0  1  0  0  0  0  0  0  0  0  0
    3.5847  -11.4339   23.7298 O   0  0  0  0  0  0  0  0  0  0  0  0
    5.8521  -10.5100   23.4910 C   0  0  2  0  0  0  0  0  0  0  0  0
    6.8783  -11.5221   23.2238 N   0  3  0  0  0  0  0  0  0  0  0  0
    7.7473  -12.1280   24.1019 C   0  0  0  0  0  0  0  0  0  0  0  0
    8.4945  -13.0514   23.5159 N   0  0  0  0  0  0  0  0  0  0  0  0
    8.1188  -13.0338   22.1866 C   0  0  0  0  0  0  0  0  0  0  0  0
    8.5380  -13.7626   21.0564 C   0  0  0  0  0  0  0  0  0  0  0  0
    9.5278  -14.7359   21.0672 N   0  0  0  0  0  0  0  0  0  0  0  0
    7.9242  -13.5154   19.8632 N   0  0  0  0  0  0  0  0  0  0  0  0
    6.9445  -12.5869   19.8384 C   0  0  0  0  0  0  0  0  0  0  0  0
    6.4569  -11.8464   20.8471 N   0  0  0  0  0  0  0  0  0  0  0  0
    7.1030  -12.1090   21.9966 C   0  0  0  0  0  0  0  0  0  0  0  0
    6.1229   -8.9835   27.3525 H   0  0  0  0  0  0  0  0  0  0  0  0
    7.4324   -9.6265   26.2990 H   0  0  0  0  0  0  0  0  0  0  0  0
    5.3912   -7.8341   25.0119 H   0  0  0  0  0  0  0  0  0  0  0  0
    4.2919  -10.0827   26.3738 H   0  0  0  0  0  0  0  0  0  0  0  0
    2.5340   -9.5548   25.0584 H   0  0  0  0  0  0  0  0  0  0  0  0
    5.1002  -11.8154   25.0490 H   0  0  0  0  0  0  0  0  0  0  0  0
    3.3176  -10.7021   23.1372 H   0  0  0  0  0  0  0  0  0  0  0  0
    5.4081  -10.2576   22.5187 H   0  0  0  0  0  0  0  0  0  0  0  0
    7.7891  -11.8646   25.1544 H   0  0  0  0  0  0  0  0  0  0  0  0
    9.7818  -15.1724   20.1961 H   0  0  0  0  0  0  0  0  0  0  0  0
   10.0151  -14.9259   21.9318 H   0  0  0  0  0  0  0  0  0  0  0  0
    6.4796  -12.4058   18.8764 H   0  0  0  0  0  0  0  0  0  0  0  0
  1  2  2  0  0  0  0
  1  3  1  0  0  0  0
  1  4  1  0  0  0  0
  1  8  1  0  0  0  0
  5  6  2  6  0  0  0
  5  7  1  0  0  0  0
  5  8  1  0  0  0  0
  5  9  1  0  0  0  0
  9 10  1  0  0  0  0
 10 11  1  0  0  0  0
 10 28  1  0  0  0  0
 10 29  1  0  0  0  0
 11 12  1  0  0  0  0
 11 13  1  0  0  0  0
 11 30  1  6  0  0  0
 12 17  1  0  0  0  0
 13 14  1  0  0  0  0
 13 15  1  0  0  0  0
 13 31  1  1  0  0  0
 14 32  1  0  0  0  0
 15 16  1  0  0  0  0
 15 17  1  0  0  0  0
 15 33  1  1  0  0  0
 16 34  1  0  0  0  0
 17 18  1  0  0  0  0
 17 35  1  6  0  0  0
 18 19  2  0  0  0  0
 18 27  1  0  0  0  0
 19 20  1  0  0  0  0
 19 36  1  0  0  0  0
 20 21  1  0  0  0  0
 21 22  2  0  0  0  0
 21 27  1  0  0  0  0
 22 23  1  0  0  0  0
 22 24  1  0  0  0  0
 23 37  1  0  0  0  0
 23 38  1  0  0  0  0
 24 25  2  0  0  0  0
 25 26  1  0  0  0  0
 25 39  1  0  0  0  0
 26 27  2  0  0  0  0
M  CHG  1  18   1
M  END
$$$$
