ADP
 OpenBabel04051919393D

 39 41  0  0  1  0  0  0  0  0999 V2000
   82.3724   49.4926    4.9508 P   0  0  0  0  0  0  0  0  0  0  0  0
   81.6854   48.1436    4.7931 O   0  0  0  0  0  0  0  0  0  0  0  0
   83.3081   49.6164    6.1583 O   0  0  0  0  0  0  0  0  0  0  0  0
   81.3547   50.6482    4.9208 O   0  0  0  0  0  0  0  0  0  0  0  0
   84.7085   49.0708    3.2886 P   0  0  2  0  0  0  0  0  0  0  0  0
   85.1655   49.5275    1.9004 O   0  0  0  0  0  0  0  0  0  0  0  0
   84.8578   47.5862    3.5594 O   0  0  0  0  0  0  0  0  0  0  0  0
   83.2804   49.7107    3.6312 O   0  0  0  0  0  0  0  0  0  0  0  0
   85.6658   49.8680    4.3408 O   0  0  0  0  0  0  0  0  0  0  0  0
   86.7269   50.6610    3.8670 C   0  0  0  0  0  0  0  0  0  0  0  0
   86.2506   52.0495    3.3943 C   0  0  1  0  0  0  0  0  0  0  0  0
   87.1067   53.0513    4.0180 O   0  0  0  0  0  0  0  0  0  0  0  0
   86.3400   52.2600    1.8700 C   0  0  1  0  0  0  0  0  0  0  0  0
   85.0981   52.5655    1.2276 O   0  0  0  0  0  0  0  0  0  0  0  0
   87.2376   53.4776    1.6547 C   0  0  1  0  0  0  0  0  0  0  0  0
   86.6131   54.5421    0.9054 O   0  0  0  0  0  0  0  0  0  0  0  0
   87.5957   53.9757    3.0487 C   0  0  2  0  0  0  0  0  0  0  0  0
   89.0290   54.1113    3.2365 N   0  3  0  0  0  0  0  0  0  0  0  0
   89.9326   53.0770    3.1909 C   0  0  0  0  0  0  0  0  0  0  0  0
   91.1817   53.4915    3.3370 N   0  0  0  0  0  0  0  0  0  0  0  0
   91.0759   54.8514    3.5093 C   0  0  0  0  0  0  0  0  0  0  0  0
   92.0400   55.8685    3.7055 C   0  0  0  0  0  0  0  0  0  0  0  0
   93.4161   55.6166    3.7273 N   0  0  0  0  0  0  0  0  0  0  0  0
   91.6358   57.1317    3.8657 N   0  0  0  0  0  0  0  0  0  0  0  0
   90.3024   57.3933    3.7818 C   0  0  0  0  0  0  0  0  0  0  0  0
   89.2909   56.5214    3.5637 N   0  0  0  0  0  0  0  0  0  0  0  0
   89.7475   55.2721    3.4545 C   0  0  0  0  0  0  0  0  0  0  0  0
   87.2852   50.1116    3.1035 H   0  0  0  0  0  0  0  0  0  0  0  0
   87.4160   50.7723    4.7129 H   0  0  0  0  0  0  0  0  0  0  0  0
   85.2323   52.2292    3.7563 H   0  0  0  0  0  0  0  0  0  0  0  0
   86.7936   51.3893    1.3799 H   0  0  0  0  0  0  0  0  0  0  0  0
   84.4758   52.8980    1.8970 H   0  0  0  0  0  0  0  0  0  0  0  0
   88.1169   53.1842    1.0756 H   0  0  0  0  0  0  0  0  0  0  0  0
   85.6938   54.5918    1.2363 H   0  0  0  0  0  0  0  0  0  0  0  0
   87.1396   54.9521    3.2439 H   0  0  0  0  0  0  0  0  0  0  0  0
   89.6248   52.0539    3.0402 H   0  0  0  0  0  0  0  0  0  0  0  0
   93.9829   56.3616    4.1020 H   0  0  0  0  0  0  0  0  0  0  0  0
   93.6868   54.6440    3.8410 H   0  0  0  0  0  0  0  0  0  0  0  0
   90.0233   58.4214    3.9099 H   0  0  0  0  0  0  0  0  0  0  0  0
  1  2  2  0  0  0  0
  1  3  1  0  0  0  0
  1  4  1  0  0  0  0
  1  8  1  0  0  0  0
  5  6  2  6  0  0  0
  5  7  1  0  0  0  0
  5  8  1  0  0  0  0
  5  9  1  0  0  0  0
  9 10  1  0  0  0  0
 10 11  1  0  0  0  0
 10 28  1  0  0  0  0
 10 29  1  0  0  0  0
 11 12  1  0  0  0  0
 11 13  1  0  0  0  0
 11 30  1  1  0  0  0
 12 17  1  0  0  0  0
 13 14  1  0  0  0  0
 13 15  1  0  0  0  0
 13 31  1  6  0  0  0
 14 32  1  0  0  0  0
 15 16  1  0  0  0  0
 15 17  1  0  0  0  0
 15 33  1  6  0  0  0
 16 34  1  0  0  0  0
 17 18  1  0  0  0  0
 17 35  1  1  0  0  0
 18 19  2  0  0  0  0
 18 27  1  0  0  0  0
 19 20  1  0  0  0  0
 19 36  1  0  0  0  0
 20 21  1  0  0  0  0
 21 22  2  0  0  0  0
 21 27  1  0  0  0  0
 22 23  1  0  0  0  0
 22 24  1  0  0  0  0
 23 37  1  0  0  0  0
 23 38  1  0  0  0  0
 24 25  2  0  0  0  0
 25 26  1  0  0  0  0
 25 39  1  0  0  0  0
 26 27  2  0  0  0  0
M  CHG  1  18   1
M  END
$$$$
