ADP
 OpenBabel04051917263D

 39 41  0  0  1  0  0  0  0  0999 V2000
   15.1520   76.9712   -7.7101 P   0  0  0  0  0  0  0  0  0  0  0  0
   14.5715   75.6222   -7.2680 O   0  0  0  0  0  0  0  0  0  0  0  0
   16.1742   76.8054   -8.8469 O   0  0  0  0  0  0  0  0  0  0  0  0
   14.0344   77.9673   -8.0188 O   0  0  0  0  0  0  0  0  0  0  0  0
   16.2261   78.9489   -5.7957 P   0  0  1  0  0  0  0  0  0  0  0  0
   17.0647   78.8060   -4.5267 O   0  0  0  0  0  0  0  0  0  0  0  0
   16.6815   80.0199   -6.7677 O   0  0  0  0  0  0  0  0  0  0  0  0
   15.9506   77.5198   -6.4328 O   0  0  0  0  0  0  0  0  0  0  0  0
   14.7527   79.3778   -5.2274 O   0  0  0  0  0  0  0  0  0  0  0  0
   14.1047   78.4778   -4.3469 C   0  0  0  0  0  0  0  0  0  0  0  0
   13.3400   79.2363   -3.2440 C   0  0  1  0  0  0  0  0  0  0  0  0
   14.0857   79.1896   -1.9842 O   0  0  0  0  0  0  0  0  0  0  0  0
   13.0202   80.7112   -3.5351 C   0  0  1  0  0  0  0  0  0  0  0  0
   11.6658   81.0287   -3.1209 O   0  0  0  0  0  0  0  0  0  0  0  0
   13.9837   81.4714   -2.6291 C   0  0  1  0  0  0  0  0  0  0  0  0
   13.4796   82.7630   -2.2379 O   0  0  0  0  0  0  0  0  0  0  0  0
   14.1499   80.5133   -1.4426 C   0  0  2  0  0  0  0  0  0  0  0  0
   15.3557   80.6685   -0.6268 N   0  3  0  0  0  0  0  0  0  0  0  0
   16.5163   81.3247   -0.9654 C   0  0  0  0  0  0  0  0  0  0  0  0
   17.3915   81.3562    0.0249 N   0  0  0  0  0  0  0  0  0  0  0  0
   16.7971   80.6489    1.0417 C   0  0  0  0  0  0  0  0  0  0  0  0
   17.2295   80.3090    2.3391 C   0  0  0  0  0  0  0  0  0  0  0  0
   18.4514   80.6858    2.8729 N   0  0  0  0  0  0  0  0  0  0  0  0
   16.3953   79.6161    3.1435 N   0  0  0  0  0  0  0  0  0  0  0  0
   15.1721   79.2952    2.6503 C   0  0  0  0  0  0  0  0  0  0  0  0
   14.6310   79.5921    1.4553 N   0  0  0  0  0  0  0  0  0  0  0  0
   15.5109   80.2425    0.6728 C   0  0  0  0  0  0  0  0  0  0  0  0
   14.8152   77.7815   -3.8902 H   0  0  0  0  0  0  0  0  0  0  0  0
   13.3888   77.8882   -4.9321 H   0  0  0  0  0  0  0  0  0  0  0  0
   12.4137   78.6870   -3.0355 H   0  0  0  0  0  0  0  0  0  0  0  0
   13.1124   80.9986   -4.5880 H   0  0  0  0  0  0  0  0  0  0  0  0
   11.4611   81.8652   -3.5789 H   0  0  0  0  0  0  0  0  0  0  0  0
   14.9233   81.6118   -3.1635 H   0  0  0  0  0  0  0  0  0  0  0  0
   12.6432   82.6003   -1.7658 H   0  0  0  0  0  0  0  0  0  0  0  0
   13.3005   80.6329   -0.7499 H   0  0  0  0  0  0  0  0  0  0  0  0
   16.6772   81.7749   -1.9388 H   0  0  0  0  0  0  0  0  0  0  0  0
   18.7147   80.2754    3.7545 H   0  0  0  0  0  0  0  0  0  0  0  0
   19.1347   81.0853    2.2424 H   0  0  0  0  0  0  0  0  0  0  0  0
   14.5331   78.7320    3.3240 H   0  0  0  0  0  0  0  0  0  0  0  0
  1  2  2  0  0  0  0
  1  3  1  0  0  0  0
  1  4  1  0  0  0  0
  1  8  1  0  0  0  0
  5  6  2  1  0  0  0
  5  7  1  0  0  0  0
  5  8  1  0  0  0  0
  5  9  1  0  0  0  0
  9 10  1  0  0  0  0
 10 11  1  0  0  0  0
 10 28  1  0  0  0  0
 10 29  1  0  0  0  0
 11 12  1  0  0  0  0
 11 13  1  0  0  0  0
 11 30  1  1  0  0  0
 12 17  1  0  0  0  0
 13 14  1  0  0  0  0
 13 15  1  0  0  0  0
 13 31  1  6  0  0  0
 14 32  1  0  0  0  0
 15 16  1  0  0  0  0
 15 17  1  0  0  0  0
 15 33  1  6  0  0  0
 16 34  1  0  0  0  0
 17 18  1  0  0  0  0
 17 35  1  1  0  0  0
 18 19  2  0  0  0  0
 18 27  1  0  0  0  0
 19 20  1  0  0  0  0
 19 36  1  0  0  0  0
 20 21  1  0  0  0  0
 21 22  2  0  0  0  0
 21 27  1  0  0  0  0
 22 23  1  0  0  0  0
 22 24  1  0  0  0  0
 23 37  1  0  0  0  0
 23 38  1  0  0  0  0
 24 25  2  0  0  0  0
 25 26  1  0  0  0  0
 25 39  1  0  0  0  0
 26 27  2  0  0  0  0
M  CHG  1  18   1
M  END
$$$$
