AHN
 OpenBabel04051917173D

 22 22  0  0  0  0  0  0  0  0999 V2000
  -10.5950    3.7111   22.2192 C   0  0  0  0  0  0  0  0  0  0  0  0
   -9.4847    3.2750   22.3365 O   0  0  0  0  0  0  0  0  0  0  0  0
  -10.8743    5.0542   21.5812 C   0  0  0  0  0  0  0  0  0  0  0  0
  -11.7256    3.0315   22.6407 N   0  0  0  0  0  0  0  0  0  0  0  0
  -13.0942    3.5044   22.5336 C   0  0  0  0  0  0  0  0  0  0  0  0
  -14.0001    2.5314   21.8082 C   0  0  0  0  0  0  0  0  0  0  0  0
  -15.4572    2.8847   21.8766 C   0  0  0  0  0  0  0  0  0  0  0  0
  -16.0578    4.0961   22.0869 C   0  0  0  0  0  0  0  0  0  0  0  0
  -16.4369    1.9261   21.7103 N   0  0  0  0  0  0  0  0  0  0  0  0
  -17.5965    2.5493   21.8036 C   0  0  0  0  0  0  0  0  0  0  0  0
  -17.4096    3.8796   22.0329 N   0  3  0  0  0  0  0  0  0  0  0  0
  -11.9116    5.3383   21.5459 H   0  0  0  0  0  0  0  0  0  0  0  0
  -10.5515    5.0457   20.5487 H   0  0  0  0  0  0  0  0  0  0  0  0
  -10.4033    5.8430   22.1527 H   0  0  0  0  0  0  0  0  0  0  0  0
  -11.5689    2.1179   23.0602 H   0  0  0  0  0  0  0  0  0  0  0  0
  -13.1558    4.4277   21.9739 H   0  0  0  0  0  0  0  0  0  0  0  0
  -13.4477    3.7544   23.5296 H   0  0  0  0  0  0  0  0  0  0  0  0
  -13.8469    1.5516   22.2579 H   0  0  0  0  0  0  0  0  0  0  0  0
  -13.6937    2.4815   20.7510 H   0  0  0  0  0  0  0  0  0  0  0  0
  -15.6038    5.0623   22.2670 H   0  0  0  0  0  0  0  0  0  0  0  0
  -18.5777    2.0837   21.7117 H   0  0  0  0  0  0  0  0  0  0  0  0
  -18.1484    4.5606   22.1383 H   0  0  0  0  0  0  0  0  0  0  0  0
  1  2  2  0  0  0  0
  1  3  1  0  0  0  0
  1  4  1  0  0  0  0
  3 12  1  0  0  0  0
  3 13  1  0  0  0  0
  3 14  1  0  0  0  0
  4  5  1  0  0  0  0
  4 15  1  0  0  0  0
  5  6  1  0  0  0  0
  5 16  1  0  0  0  0
  5 17  1  0  0  0  0
  6  7  1  0  0  0  0
  6 18  1  0  0  0  0
  6 19  1  0  0  0  0
  7  8  2  0  0  0  0
  7  9  1  0  0  0  0
  8 11  1  0  0  0  0
  8 20  1  0  0  0  0
  9 10  1  0  0  0  0
 10 11  2  0  0  0  0
 10 21  1  0  0  0  0
 11 22  1  0  0  0  0
M  CHG  1  11   1
M  END
$$$$
