AMP
 OpenBabel04051919063D

 35 37  0  0  1  0  0  0  0  0999 V2000
   29.8769    4.0553    6.9247 P   0  0  0  0  0  0  0  0  0  0  0  0
   29.9038    5.4458    6.3138 O   0  0  0  0  0  0  0  0  0  0  0  0
   30.0940    2.9133    5.9406 O   0  0  0  0  0  0  0  0  0  0  0  0
   28.7819    3.8188    7.9490 O   0  0  0  0  0  0  0  0  0  0  0  0
   31.2485    4.0276    7.8162 O   0  0  0  0  0  0  0  0  0  0  0  0
   31.5735    2.7978    8.4240 C   0  0  0  0  0  0  0  0  0  0  0  0
   32.4344    3.1132    9.6434 C   0  0  1  0  0  0  0  0  0  0  0  0
   32.7261    1.8852   10.3667 O   0  0  0  0  0  0  0  0  0  0  0  0
   33.7841    3.7595    9.2639 C   0  0  1  0  0  0  0  0  0  0  0  0
   34.2105    4.7432   10.2338 O   0  0  0  0  0  0  0  0  0  0  0  0
   34.7608    2.6034    9.3933 C   0  0  1  0  0  0  0  0  0  0  0  0
   36.1000    3.0400    9.6564 O   0  0  0  0  0  0  0  0  0  0  0  0
   34.1406    1.8469   10.5711 C   0  0  2  0  0  0  0  0  0  0  0  0
   34.5638    0.4722   10.7100 N   0  3  0  0  0  0  0  0  0  0  0  0
   34.7607   -0.4365    9.7069 C   0  0  0  0  0  0  0  0  0  0  0  0
   35.2123   -1.5805   10.1600 N   0  0  0  0  0  0  0  0  0  0  0  0
   35.2862   -1.4240   11.5203 C   0  0  0  0  0  0  0  0  0  0  0  0
   35.6759   -2.2869   12.5649 C   0  0  0  0  0  0  0  0  0  0  0  0
   36.1649   -3.5564   12.3364 N   0  0  0  0  0  0  0  0  0  0  0  0
   35.6050   -1.8353   13.8400 N   0  0  0  0  0  0  0  0  0  0  0  0
   35.1780   -0.5715   14.0518 C   0  0  0  0  0  0  0  0  0  0  0  0
   34.8224    0.3548   13.1376 N   0  0  0  0  0  0  0  0  0  0  0  0
   34.8773   -0.1509   11.8933 C   0  0  0  0  0  0  0  0  0  0  0  0
   32.1225    2.1744    7.7088 H   0  0  0  0  0  0  0  0  0  0  0  0
   30.6840    2.2331    8.7265 H   0  0  0  0  0  0  0  0  0  0  0  0
   31.8816    3.7761   10.3188 H   0  0  0  0  0  0  0  0  0  0  0  0
   33.7955    4.2327    8.2771 H   0  0  0  0  0  0  0  0  0  0  0  0
   34.8176    5.3246    9.7376 H   0  0  0  0  0  0  0  0  0  0  0  0
   34.7570    2.0176    8.4691 H   0  0  0  0  0  0  0  0  0  0  0  0
   36.0412    3.5875   10.4641 H   0  0  0  0  0  0  0  0  0  0  0  0
   34.3674    2.3588   11.5166 H   0  0  0  0  0  0  0  0  0  0  0  0
   34.5593   -0.2138    8.6635 H   0  0  0  0  0  0  0  0  0  0  0  0
   36.2722   -4.1562   13.1351 H   0  0  0  0  0  0  0  0  0  0  0  0
   36.0750   -3.9157   11.3952 H   0  0  0  0  0  0  0  0  0  0  0  0
   35.1304   -0.2471   15.0892 H   0  0  0  0  0  0  0  0  0  0  0  0
  1  2  2  0  0  0  0
  1  3  1  0  0  0  0
  1  4  1  0  0  0  0
  1  5  1  0  0  0  0
  5  6  1  0  0  0  0
  6  7  1  0  0  0  0
  6 24  1  0  0  0  0
  6 25  1  0  0  0  0
  7  8  1  0  0  0  0
  7  9  1  0  0  0  0
  7 26  1  1  0  0  0
  8 13  1  0  0  0  0
  9 10  1  0  0  0  0
  9 11  1  0  0  0  0
  9 27  1  6  0  0  0
 10 28  1  0  0  0  0
 11 12  1  0  0  0  0
 11 13  1  0  0  0  0
 11 29  1  6  0  0  0
 12 30  1  0  0  0  0
 13 14  1  0  0  0  0
 13 31  1  1  0  0  0
 14 15  2  0  0  0  0
 14 23  1  0  0  0  0
 15 16  1  0  0  0  0
 15 32  1  0  0  0  0
 16 17  1  0  0  0  0
 17 18  2  0  0  0  0
 17 23  1  0  0  0  0
 18 19  1  0  0  0  0
 18 20  1  0  0  0  0
 19 33  1  0  0  0  0
 19 34  1  0  0  0  0
 20 21  2  0  0  0  0
 21 22  1  0  0  0  0
 21 35  1  0  0  0  0
 22 23  2  0  0  0  0
M  CHG  1  14   1
M  END
$$$$
