AMP
 OpenBabel04051918043D

 35 37  0  0  1  0  0  0  0  0999 V2000
   29.5372   43.9568   22.6574 P   0  0  0  0  0  0  0  0  0  0  0  0
   28.2953   44.7668   22.9956 O   0  0  0  0  0  0  0  0  0  0  0  0
   29.6787   42.6563   23.4367 O   0  0  0  0  0  0  0  0  0  0  0  0
   30.8123   44.7750   22.5319 O   0  0  0  0  0  0  0  0  0  0  0  0
   29.2746   43.4532   21.1211 O   0  0  0  0  0  0  0  0  0  0  0  0
   27.9463   43.1306   20.7572 C   0  0  0  0  0  0  0  0  0  0  0  0
   27.5470   44.0065   19.5527 C   0  0  1  0  0  0  0  0  0  0  0  0
   27.1534   43.1153   18.4681 O   0  0  0  0  0  0  0  0  0  0  0  0
   26.3648   44.9510   19.8267 C   0  0  1  0  0  0  0  0  0  0  0  0
   26.6600   46.3555   19.8329 O   0  0  0  0  0  0  0  0  0  0  0  0
   25.3778   44.7241   18.6886 C   0  0  1  0  0  0  0  0  0  0  0  0
   25.2437   45.8933   17.8506 O   0  0  0  0  0  0  0  0  0  0  0  0
   25.8995   43.5102   17.9037 C   0  0  2  0  0  0  0  0  0  0  0  0
   25.0149   42.3472   17.8838 N   0  3  0  0  0  0  0  0  0  0  0  0
   23.9711   42.0997   18.7487 C   0  0  0  0  0  0  0  0  0  0  0  0
   23.2968   41.0156   18.4522 N   0  0  0  0  0  0  0  0  0  0  0  0
   23.9459   40.4806   17.3618 C   0  0  0  0  0  0  0  0  0  0  0  0
   23.7069   39.3370   16.6101 C   0  0  0  0  0  0  0  0  0  0  0  0
   22.6302   38.4867   16.8665 N   0  0  0  0  0  0  0  0  0  0  0  0
   24.5339   39.0308   15.5867 N   0  0  0  0  0  0  0  0  0  0  0  0
   25.5324   39.9103   15.3173 C   0  0  0  0  0  0  0  0  0  0  0  0
   25.8439   41.0751   15.9301 N   0  0  0  0  0  0  0  0  0  0  0  0
   25.0193   41.3017   16.9738 C   0  0  0  0  0  0  0  0  0  0  0  0
   27.2506   43.2324   21.5928 H   0  0  0  0  0  0  0  0  0  0  0  0
   27.9344   42.0705   20.4834 H   0  0  0  0  0  0  0  0  0  0  0  0
   28.4150   44.5731   19.1972 H   0  0  0  0  0  0  0  0  0  0  0  0
   25.8873   44.7127   20.7832 H   0  0  0  0  0  0  0  0  0  0  0  0
   27.4210   46.4971   19.2401 H   0  0  0  0  0  0  0  0  0  0  0  0
   24.3794   44.5962   19.0930 H   0  0  0  0  0  0  0  0  0  0  0  0
   25.2006   46.6283   18.5038 H   0  0  0  0  0  0  0  0  0  0  0  0
   26.0750   43.7861   16.8548 H   0  0  0  0  0  0  0  0  0  0  0  0
   23.7322   42.7437   19.5783 H   0  0  0  0  0  0  0  0  0  0  0  0
   22.6920   37.5671   16.4582 H   0  0  0  0  0  0  0  0  0  0  0  0
   22.1926   38.6089   17.7744 H   0  0  0  0  0  0  0  0  0  0  0  0
   26.1758   39.6273   14.4848 H   0  0  0  0  0  0  0  0  0  0  0  0
  1  2  2  0  0  0  0
  1  3  1  0  0  0  0
  1  4  1  0  0  0  0
  1  5  1  0  0  0  0
  5  6  1  0  0  0  0
  6  7  1  0  0  0  0
  6 24  1  0  0  0  0
  6 25  1  0  0  0  0
  7  8  1  0  0  0  0
  7  9  1  0  0  0  0
  7 26  1  6  0  0  0
  8 13  1  0  0  0  0
  9 10  1  0  0  0  0
  9 11  1  0  0  0  0
  9 27  1  1  0  0  0
 10 28  1  0  0  0  0
 11 12  1  0  0  0  0
 11 13  1  0  0  0  0
 11 29  1  1  0  0  0
 12 30  1  0  0  0  0
 13 14  1  0  0  0  0
 13 31  1  6  0  0  0
 14 15  2  0  0  0  0
 14 23  1  0  0  0  0
 15 16  1  0  0  0  0
 15 32  1  0  0  0  0
 16 17  1  0  0  0  0
 17 18  2  0  0  0  0
 17 23  1  0  0  0  0
 18 19  1  0  0  0  0
 18 20  1  0  0  0  0
 19 33  1  0  0  0  0
 19 34  1  0  0  0  0
 20 21  2  0  0  0  0
 21 22  1  0  0  0  0
 21 35  1  0  0  0  0
 22 23  2  0  0  0  0
M  CHG  1  14   1
M  END
$$$$
