AMP
 OpenBabel04051919373D

 35 37  0  0  1  0  0  0  0  0999 V2000
  -13.5959  -10.2002   -1.3334 P   0  0  0  0  0  0  0  0  0  0  0  0
  -14.8276   -9.9566   -0.4710 O   0  0  0  0  0  0  0  0  0  0  0  0
  -13.2327  -11.6630   -1.5247 O   0  0  0  0  0  0  0  0  0  0  0  0
  -13.5255   -9.3302   -2.5767 O   0  0  0  0  0  0  0  0  0  0  0  0
  -12.3649   -9.6178   -0.4240 O   0  0  0  0  0  0  0  0  0  0  0  0
  -12.1550  -10.2225    0.8382 C   0  0  0  0  0  0  0  0  0  0  0  0
  -11.8231   -9.1222    1.8451 C   0  0  1  0  0  0  0  0  0  0  0  0
  -10.6784   -8.3231    1.4492 O   0  0  0  0  0  0  0  0  0  0  0  0
  -13.0210   -8.1908    1.9828 C   0  0  1  0  0  0  0  0  0  0  0  0
  -13.6682   -8.3657    3.2478 O   0  0  0  0  0  0  0  0  0  0  0  0
  -12.4512   -6.7939    1.8875 C   0  0  1  0  0  0  0  0  0  0  0  0
  -12.8994   -5.9349    2.9442 O   0  0  0  0  0  0  0  0  0  0  0  0
  -10.9388   -6.9851    1.8913 C   0  0  2  0  0  0  0  0  0  0  0  0
  -10.3020   -6.0388    1.0020 N   0  3  0  0  0  0  0  0  0  0  0  0
  -10.7432   -5.7406   -0.2873 C   0  0  0  0  0  0  0  0  0  0  0  0
  -10.0631   -4.7717   -0.8218 N   0  0  0  0  0  0  0  0  0  0  0  0
   -9.1075   -4.4265    0.1169 C   0  0  0  0  0  0  0  0  0  0  0  0
   -8.0688   -3.4662    0.0895 C   0  0  0  0  0  0  0  0  0  0  0  0
   -7.8316   -2.6592   -1.0053 N   0  0  0  0  0  0  0  0  0  0  0  0
   -7.2938   -3.3423    1.2022 N   0  0  0  0  0  0  0  0  0  0  0  0
   -7.5731   -4.1325    2.2584 C   0  0  0  0  0  0  0  0  0  0  0  0
   -8.5382   -5.0771    2.3932 N   0  0  0  0  0  0  0  0  0  0  0  0
   -9.2645   -5.1797    1.2785 C   0  0  0  0  0  0  0  0  0  0  0  0
  -11.3302  -10.9370    0.7663 H   0  0  0  0  0  0  0  0  0  0  0  0
  -13.0542  -10.7521    1.1769 H   0  0  0  0  0  0  0  0  0  0  0  0
  -11.5749   -9.5740    2.8135 H   0  0  0  0  0  0  0  0  0  0  0  0
  -13.7514   -8.3426    1.1823 H   0  0  0  0  0  0  0  0  0  0  0  0
  -14.4211   -7.7561    3.2257 H   0  0  0  0  0  0  0  0  0  0  0  0
  -12.7933   -6.3409    0.9529 H   0  0  0  0  0  0  0  0  0  0  0  0
  -13.8673   -5.9490    2.8852 H   0  0  0  0  0  0  0  0  0  0  0  0
  -10.5284   -6.8709    2.9004 H   0  0  0  0  0  0  0  0  0  0  0  0
  -11.5778   -6.2596   -0.7588 H   0  0  0  0  0  0  0  0  0  0  0  0
   -7.0793   -1.9890   -0.9902 H   0  0  0  0  0  0  0  0  0  0  0  0
   -8.4202   -2.7768   -1.8150 H   0  0  0  0  0  0  0  0  0  0  0  0
   -6.9385   -3.9941    3.1371 H   0  0  0  0  0  0  0  0  0  0  0  0
  1  2  2  0  0  0  0
  1  3  1  0  0  0  0
  1  4  1  0  0  0  0
  1  5  1  0  0  0  0
  5  6  1  0  0  0  0
  6  7  1  0  0  0  0
  6 24  1  0  0  0  0
  6 25  1  0  0  0  0
  7  8  1  0  0  0  0
  7  9  1  0  0  0  0
  7 26  1  1  0  0  0
  8 13  1  0  0  0  0
  9 10  1  0  0  0  0
  9 11  1  0  0  0  0
  9 27  1  6  0  0  0
 10 28  1  0  0  0  0
 11 12  1  0  0  0  0
 11 13  1  0  0  0  0
 11 29  1  6  0  0  0
 12 30  1  0  0  0  0
 13 14  1  0  0  0  0
 13 31  1  1  0  0  0
 14 15  2  0  0  0  0
 14 23  1  0  0  0  0
 15 16  1  0  0  0  0
 15 32  1  0  0  0  0
 16 17  1  0  0  0  0
 17 18  2  0  0  0  0
 17 23  1  0  0  0  0
 18 19  1  0  0  0  0
 18 20  1  0  0  0  0
 19 33  1  0  0  0  0
 19 34  1  0  0  0  0
 20 21  2  0  0  0  0
 21 22  1  0  0  0  0
 21 35  1  0  0  0  0
 22 23  2  0  0  0  0
M  CHG  1  14   1
M  END
$$$$
