ANP
 OpenBabel04051917473D

 44 46  0  0  1  0  0  0  0  0999 V2000
   19.1547   24.4840   -0.4580 P   0  0  0  0  0  0  0  0  0  0  0  0
   19.3158   25.5818    0.6084 O   0  0  0  0  0  0  0  0  0  0  0  0
   18.5293   23.2295    0.1364 O   0  0  0  0  0  0  0  0  0  0  0  0
   20.4271   24.2815   -1.2594 O   0  0  0  0  0  0  0  0  0  0  0  0
   17.1577   24.7580   -2.8097 P   0  0  1  0  0  0  0  0  0  0  0  0
   17.6250   23.4747   -3.4511 O   0  0  0  0  0  0  0  0  0  0  0  0
   15.6877   24.9076   -2.4105 O   0  0  0  0  0  0  0  0  0  0  0  0
   18.0208   25.2425   -1.4412 N   0  0  0  0  0  0  0  0  0  0  0  0
   17.1738   26.1969   -5.3793 P   0  0  1  0  0  0  0  0  0  0  0  0
   18.4608   26.2703   -6.1858 O   0  0  0  0  0  0  0  0  0  0  0  0
   15.9775   25.4626   -5.9594 O   0  0  0  0  0  0  0  0  0  0  0  0
   17.4393   25.9951   -3.8125 O   0  0  0  0  0  0  0  0  0  0  0  0
   12.4855   29.4812   -7.5521 N   0  3  0  0  0  0  0  0  0  0  0  0
   12.5695   29.0464   -8.8504 C   0  0  0  0  0  0  0  0  0  0  0  0
   11.4161   28.5467   -9.2807 N   0  0  0  0  0  0  0  0  0  0  0  0
   10.5845   28.5944   -8.1745 C   0  0  0  0  0  0  0  0  0  0  0  0
    9.2362   28.2265   -7.9607 C   0  0  0  0  0  0  0  0  0  0  0  0
    8.4019   27.6909   -8.9469 N   0  0  0  0  0  0  0  0  0  0  0  0
    8.6845   28.4209   -6.7362 N   0  0  0  0  0  0  0  0  0  0  0  0
    9.4472   28.9756   -5.7704 C   0  0  0  0  0  0  0  0  0  0  0  0
   10.7239   29.4030   -5.8796 N   0  0  0  0  0  0  0  0  0  0  0  0
   11.2451   29.1734   -7.0881 C   0  0  0  0  0  0  0  0  0  0  0  0
   16.6931   27.7735   -5.3377 O   0  0  0  0  0  0  0  0  0  0  0  0
   15.4319   28.0579   -4.7517 C   0  0  0  0  0  0  0  0  0  0  0  0
   14.9981   29.4500   -5.2394 C   0  0  1  0  0  0  0  0  0  0  0  0
   14.6473   29.4058   -6.6529 O   0  0  0  0  0  0  0  0  0  0  0  0
   13.7636   30.0074   -4.5241 C   0  0  1  0  0  0  0  0  0  0  0  0
   14.0114   30.7678   -3.3354 O   0  0  0  0  0  0  0  0  0  0  0  0
   13.1757   30.9423   -5.5705 C   0  0  1  0  0  0  0  0  0  0  0  0
   13.7945   32.2489   -5.4710 O   0  0  0  0  0  0  0  0  0  0  0  0
   13.5224   30.2642   -6.8948 C   0  0  2  0  0  0  0  0  0  0  0  0
   17.5128   25.8612   -0.8400 H   0  0  0  0  0  0  0  0  0  0  0  0
   13.4738   29.1301   -9.4317 H   0  0  0  0  0  0  0  0  0  0  0  0
    7.6621   27.1660   -8.4953 H   0  0  0  0  0  0  0  0  0  0  0  0
    8.9386   27.1985   -9.6546 H   0  0  0  0  0  0  0  0  0  0  0  0
    8.9887   29.1137   -4.8112 H   0  0  0  0  0  0  0  0  0  0  0  0
   15.5432   28.0389   -3.6640 H   0  0  0  0  0  0  0  0  0  0  0  0
   14.6888   27.3158   -5.0575 H   0  0  0  0  0  0  0  0  0  0  0  0
   15.8481   30.1380   -5.1436 H   0  0  0  0  0  0  0  0  0  0  0  0
   13.0601   29.2015   -4.2937 H   0  0  0  0  0  0  0  0  0  0  0  0
   14.9117   31.1370   -3.4182 H   0  0  0  0  0  0  0  0  0  0  0  0
   12.1201   31.1570   -5.4073 H   0  0  0  0  0  0  0  0  0  0  0  0
   13.6185   32.5166   -4.5439 H   0  0  0  0  0  0  0  0  0  0  0  0
   13.8411   31.0139   -7.6174 H   0  0  0  0  0  0  0  0  0  0  0  0
  1  2  2  0  0  0  0
  1  3  1  0  0  0  0
  1  4  1  0  0  0  0
  1  8  1  0  0  0  0
  5  6  2  6  0  0  0
  5  7  1  0  0  0  0
  5  8  1  0  0  0  0
  5 12  1  0  0  0  0
  8 32  1  0  0  0  0
  9 10  2  6  0  0  0
  9 11  1  0  0  0  0
  9 12  1  0  0  0  0
  9 23  1  0  0  0  0
 13 14  2  0  0  0  0
 13 22  1  0  0  0  0
 13 31  1  0  0  0  0
 14 15  1  0  0  0  0
 14 33  1  0  0  0  0
 15 16  1  0  0  0  0
 16 17  2  0  0  0  0
 16 22  1  0  0  0  0
 17 18  1  0  0  0  0
 17 19  1  0  0  0  0
 18 34  1  0  0  0  0
 18 35  1  0  0  0  0
 19 20  2  0  0  0  0
 20 21  1  0  0  0  0
 20 36  1  0  0  0  0
 21 22  2  0  0  0  0
 23 24  1  0  0  0  0
 24 25  1  0  0  0  0
 24 37  1  0  0  0  0
 24 38  1  0  0  0  0
 25 26  1  0  0  0  0
 25 27  1  0  0  0  0
 25 39  1  1  0  0  0
 26 31  1  0  0  0  0
 27 28  1  0  0  0  0
 27 29  1  0  0  0  0
 27 40  1  1  0  0  0
 28 41  1  0  0  0  0
 29 30  1  0  0  0  0
 29 31  1  0  0  0  0
 29 42  1  1  0  0  0
 30 43  1  0  0  0  0
 31 44  1  6  0  0  0
M  CHG  1  13   1
M  END
$$$$
