ARG
 OpenBabel04051918553D

 27 26  0  0  1  0  0  0  0  0999 V2000
    3.0252    1.9511   13.3125 N   0  3  0  0  0  0  0  0  0  0  0  0
    3.9143    0.9313   14.0015 C   0  0  2  0  0  0  0  0  0  0  0  0
    4.9902    0.3121   13.0601 C   0  0  0  0  0  0  0  0  0  0  0  0
    4.7628    0.6107   11.8482 O   0  0  0  0  0  0  0  0  0  0  0  0
    3.0514   -0.2005   14.5742 C   0  0  0  0  0  0  0  0  0  0  0  0
    2.1200   -0.8277   13.5353 C   0  0  0  0  0  0  0  0  0  0  0  0
    1.5787   -2.1819   13.9669 C   0  0  0  0  0  0  0  0  0  0  0  0
    0.4390   -2.5487   13.1050 N   0  0  0  0  0  0  0  0  0  0  0  0
   -0.2511   -3.6890   13.2350 C   0  0  0  0  0  0  0  0  0  0  0  0
    0.0530   -4.5817   14.1732 N   0  0  0  0  0  0  0  0  0  0  0  0
   -1.2757   -3.9383   12.4164 N   0  0  0  0  0  0  0  0  0  0  0  0
    5.8621   -0.4001   13.6143 O   0  0  0  0  0  0  0  0  0  0  0  0
    2.3262    2.3841   13.9167 H   0  0  0  0  0  0  0  0  0  0  0  0
    3.6523    2.6665   12.9127 H   0  0  0  0  0  0  0  0  0  0  0  0
    4.4131    1.4666   14.8075 H   0  0  0  0  0  0  0  0  0  0  0  0
    2.4437    0.1873   15.4028 H   0  0  0  0  0  0  0  0  0  0  0  0
    3.6993   -0.9772   15.0032 H   0  0  0  0  0  0  0  0  0  0  0  0
    2.6414   -0.9612   12.5789 H   0  0  0  0  0  0  0  0  0  0  0  0
    1.2888   -0.1530   13.3487 H   0  0  0  0  0  0  0  0  0  0  0  0
    1.2232   -2.1410   15.0037 H   0  0  0  0  0  0  0  0  0  0  0  0
    2.3548   -2.9505   13.8657 H   0  0  0  0  0  0  0  0  0  0  0  0
    0.1692   -1.9267   12.3525 H   0  0  0  0  0  0  0  0  0  0  0  0
   -0.4602   -5.4537   14.2721 H   0  0  0  0  0  0  0  0  0  0  0  0
   -1.5462   -3.2995   11.6798 H   0  0  0  0  0  0  0  0  0  0  0  0
   -1.8153   -4.7920   12.4986 H   0  0  0  0  0  0  0  0  0  0  0  0
    2.6264    1.5189   12.4698 H   0  0  0  0  0  0  0  0  0  0  0  0
    0.8366   -4.4421   14.7973 H   0  0  0  0  0  0  0  0  0  0  0  0
  1  2  1  0  0  0  0
  1 13  1  0  0  0  0
  1 14  1  0  0  0  0
  1 26  1  0  0  0  0
  2  3  1  0  0  0  0
  2  5  1  0  0  0  0
  2 15  1  1  0  0  0
  3  4  2  0  0  0  0
  3 12  1  0  0  0  0
  5  6  1  0  0  0  0
  5 16  1  0  0  0  0
  5 17  1  0  0  0  0
  6  7  1  0  0  0  0
  6 18  1  0  0  0  0
  6 19  1  0  0  0  0
  7  8  1  0  0  0  0
  7 20  1  0  0  0  0
  7 21  1  0  0  0  0
  8  9  1  0  0  0  0
  8 22  1  0  0  0  0
  9 10  2  0  0  0  0
  9 11  1  0  0  0  0
 10 23  1  0  0  0  0
 10 27  1  0  0  0  0
 11 24  1  0  0  0  0
 11 25  1  0  0  0  0
M  CHG  1   1   1
M  END
$$$$
