ARK
 OpenBabel04051920263D

 77 78  0  0  1  0  0  0  0  0999 V2000
   13.8411   48.6621   40.2913 O   0  0  0  0  0  0  0  0  0  0  0  0
   13.7633   47.4104   40.0899 C   0  0  0  0  0  0  0  0  0  0  0  0
   12.9098   46.7898   39.3949 O   0  0  0  0  0  0  0  0  0  0  0  0
   14.8244   46.5779   40.8152 C   0  0  0  0  0  0  0  0  0  0  0  0
   14.6204   45.0680   41.0018 C   0  0  0  0  0  0  0  0  0  0  0  0
   15.9275   44.2979   41.3341 C   0  0  1  0  0  0  0  0  0  0  0  0
   16.9007   44.3845   40.0927 C   0  0  0  0  0  0  0  0  0  0  0  0
   16.6948   43.5254   39.1868 O   0  0  0  0  0  0  0  0  0  0  0  0
   17.7805   45.3115   40.1169 O   0  0  0  0  0  0  0  0  0  0  0  0
   16.4771   44.7093   42.6359 N   0  0  0  0  0  0  0  0  0  0  0  0
   17.7343   44.2857   42.9820 C   0  0  0  0  0  0  0  0  0  0  0  0
   18.2662   43.2489   42.5670 O   0  0  0  0  0  0  0  0  0  0  0  0
   18.3171   45.1137   43.8969 N   0  0  0  0  0  0  0  0  0  0  0  0
   19.7303   44.9946   44.2866 C   0  0  2  0  0  0  0  0  0  0  0  0
   19.9825   45.5823   45.7136 C   0  0  0  0  0  0  0  0  0  0  0  0
   19.4823   46.7308   45.9315 O   0  0  0  0  0  0  0  0  0  0  0  0
   20.6574   44.8582   46.5022 O   0  0  0  0  0  0  0  0  0  0  0  0
   20.6145   45.7901   43.3046 C   0  0  0  0  0  0  0  0  0  0  0  0
   22.0603   45.2864   43.2486 C   0  0  0  0  0  0  0  0  0  0  0  0
   23.0095   46.4573   43.0393 C   0  0  0  0  0  0  0  0  0  0  0  0
   23.9884   46.2889   41.8874 C   0  0  0  0  0  0  0  0  0  0  0  0
   24.7246   47.5316   41.6989 N   0  3  0  0  0  0  0  0  0  0  0  0
   25.1565   48.3678   42.6832 C   0  0  0  0  0  0  0  0  0  0  0  0
   25.0505   47.9991   40.4824 N   0  0  0  0  0  0  0  0  0  0  0  0
   25.6393   49.1752   40.6583 N   0  0  0  0  0  0  0  0  0  0  0  0
   25.7009   49.4265   42.0081 C   0  0  0  0  0  0  0  0  0  0  0  0
   26.4014   50.5894   42.5936 C   0  0  0  0  0  0  0  0  0  0  0  0
   25.5476   51.6479   43.0392 O   0  0  0  0  0  0  0  0  0  0  0  0
   25.3335   51.6633   44.4538 C   0  0  0  0  0  0  0  0  0  0  0  0
   25.2809   53.1175   44.9364 C   0  0  0  0  0  0  0  0  0  0  0  0
   26.5711   53.5020   45.4577 O   0  0  0  0  0  0  0  0  0  0  0  0
   26.7077   53.1881   46.8455 C   0  0  0  0  0  0  0  0  0  0  0  0
   27.9906   52.3900   47.1493 C   0  0  0  0  0  0  0  0  0  0  0  0
   28.9671   53.3045   47.7653 N   0  0  0  0  0  0  0  0  0  0  0  0
   30.1646   52.7716   48.2560 C   0  0  0  0  0  0  0  0  0  0  0  0
   30.0970   52.0420   49.4650 C   0  0  0  0  0  0  0  0  0  0  0  0
   31.2520   51.5770   50.1082 C   0  0  0  0  0  0  0  0  0  0  0  0
   32.5007   51.8062   49.5254 C   0  0  0  0  0  0  0  0  0  0  0  0
   33.7260   51.3521   50.1876 N   0  0  0  0  0  0  0  0  0  0  0  0
   34.8041   51.5811   49.6304 O   0  0  0  0  0  0  0  0  0  0  0  0
   33.6110   50.7665   51.2805 O   0  0  0  0  0  0  0  0  0  0  0  0
   32.5965   52.4805   48.3045 C   0  0  0  0  0  0  0  0  0  0  0  0
   31.4380   52.9502   47.6680 C   0  0  0  0  0  0  0  0  0  0  0  0
   31.6228   53.6494   46.3821 N   0  0  0  0  0  0  0  0  0  0  0  0
   32.7774   53.7596   45.9504 O   0  0  0  0  0  0  0  0  0  0  0  0
   30.6253   54.1057   45.8039 O   0  0  0  0  0  0  0  0  0  0  0  0
   14.9891   47.0322   41.8006 H   0  0  0  0  0  0  0  0  0  0  0  0
   15.7404   46.7509   40.2398 H   0  0  0  0  0  0  0  0  0  0  0  0
   14.1613   44.6304   40.1081 H   0  0  0  0  0  0  0  0  0  0  0  0
   13.8965   44.9166   41.8188 H   0  0  0  0  0  0  0  0  0  0  0  0
   15.6717   43.2346   41.4550 H   0  0  0  0  0  0  0  0  0  0  0  0
   16.1913   45.6070   42.9873 H   0  0  0  0  0  0  0  0  0  0  0  0
   17.9221   46.0308   44.0501 H   0  0  0  0  0  0  0  0  0  0  0  0
   20.0055   43.9330   44.2483 H   0  0  0  0  0  0  0  0  0  0  0  0
   20.5833   46.8513   43.5855 H   0  0  0  0  0  0  0  0  0  0  0  0
   20.2131   45.7517   42.2832 H   0  0  0  0  0  0  0  0  0  0  0  0
   22.1652   44.5447   42.4481 H   0  0  0  0  0  0  0  0  0  0  0  0
   22.3406   44.7816   44.1803 H   0  0  0  0  0  0  0  0  0  0  0  0
   23.5606   46.5964   43.9767 H   0  0  0  0  0  0  0  0  0  0  0  0
   22.4574   47.3923   42.8761 H   0  0  0  0  0  0  0  0  0  0  0  0
   23.4717   46.0516   40.9514 H   0  0  0  0  0  0  0  0  0  0  0  0
   24.7373   45.5111   42.0951 H   0  0  0  0  0  0  0  0  0  0  0  0
   25.0387   48.1615   43.7332 H   0  0  0  0  0  0  0  0  0  0  0  0
   27.0851   51.0189   41.8547 H   0  0  0  0  0  0  0  0  0  0  0  0
   27.0273   50.2226   43.4188 H   0  0  0  0  0  0  0  0  0  0  0  0
   26.1378   51.1407   44.9809 H   0  0  0  0  0  0  0  0  0  0  0  0
   24.3866   51.1575   44.6633 H   0  0  0  0  0  0  0  0  0  0  0  0
   24.5184   53.2485   45.7137 H   0  0  0  0  0  0  0  0  0  0  0  0
   25.0352   53.8015   44.1166 H   0  0  0  0  0  0  0  0  0  0  0  0
   25.8472   52.6178   47.2169 H   0  0  0  0  0  0  0  0  0  0  0  0
   26.7201   54.1466   47.3801 H   0  0  0  0  0  0  0  0  0  0  0  0
   28.4067   51.9409   46.2226 H   0  0  0  0  0  0  0  0  0  0  0  0
   27.7495   51.5860   47.8387 H   0  0  0  0  0  0  0  0  0  0  0  0
   29.1282   54.0942   47.1225 H   0  0  0  0  0  0  0  0  0  0  0  0
   29.1291   51.8901   49.9443 H   0  0  0  0  0  0  0  0  0  0  0  0
   31.1522   51.0663   51.0663 H   0  0  0  0  0  0  0  0  0  0  0  0
   33.5816   52.6520   47.8589 H   0  0  0  0  0  0  0  0  0  0  0  0
  1  2  2  0  0  0  0
  2  3  1  0  0  0  0
  2  4  1  0  0  0  0
  4  5  1  0  0  0  0
  4 47  1  0  0  0  0
  4 48  1  0  0  0  0
  5  6  1  0  0  0  0
  5 49  1  0  0  0  0
  5 50  1  0  0  0  0
  6  7  1  0  0  0  0
  6 10  1  0  0  0  0
  6 51  1  1  0  0  0
  7  8  2  0  0  0  0
  7  9  1  0  0  0  0
 10 11  1  0  0  0  0
 10 52  1  0  0  0  0
 11 12  2  0  0  0  0
 11 13  1  0  0  0  0
 13 14  1  0  0  0  0
 13 53  1  0  0  0  0
 14 15  1  0  0  0  0
 14 18  1  0  0  0  0
 14 54  1  6  0  0  0
 15 16  2  0  0  0  0
 15 17  1  0  0  0  0
 18 19  1  0  0  0  0
 18 55  1  0  0  0  0
 18 56  1  0  0  0  0
 19 20  1  0  0  0  0
 19 57  1  0  0  0  0
 19 58  1  0  0  0  0
 20 21  1  0  0  0  0
 20 59  1  0  0  0  0
 20 60  1  0  0  0  0
 21 22  1  0  0  0  0
 21 61  1  0  0  0  0
 21 62  1  0  0  0  0
 22 23  2  0  0  0  0
 22 24  1  0  0  0  0
 23 26  1  0  0  0  0
 23 63  1  0  0  0  0
 24 25  1  0  0  0  0
 25 26  2  0  0  0  0
 26 27  1  0  0  0  0
 27 28  1  0  0  0  0
 27 64  1  0  0  0  0
 27 65  1  0  0  0  0
 28 29  1  0  0  0  0
 29 30  1  0  0  0  0
 29 66  1  0  0  0  0
 29 67  1  0  0  0  0
 30 31  1  0  0  0  0
 30 68  1  0  0  0  0
 30 69  1  0  0  0  0
 31 32  1  0  0  0  0
 32 33  1  0  0  0  0
 32 70  1  0  0  0  0
 32 71  1  0  0  0  0
 33 34  1  0  0  0  0
 33 72  1  0  0  0  0
 33 73  1  0  0  0  0
 34 35  1  0  0  0  0
 34 74  1  0  0  0  0
 35 36  2  0  0  0  0
 35 43  1  0  0  0  0
 36 37  1  0  0  0  0
 36 75  1  0  0  0  0
 37 38  2  0  0  0  0
 37 76  1  0  0  0  0
 38 39  1  0  0  0  0
 38 42  1  0  0  0  0
 39 40  2  0  0  0  0
 39 41  2  0  0  0  0
 42 43  2  0  0  0  0
 42 77  1  0  0  0  0
 43 44  1  0  0  0  0
 44 45  2  0  0  0  0
 44 46  2  0  0  0  0
M  CHG  1  22   1
M  END
$$$$
