ARW
 OpenBabel04051917273D

 23 23  0  0  1  0  0  0  0  0999 V2000
   22.4379   22.4090   30.0986 C   0  0  2  0  0  0  0  0  0  0  0  0
   21.7106   23.1878   28.9779 C   0  0  2  0  0  0  0  0  0  0  0  0
   20.7786   22.2193   28.2411 C   0  0  1  0  0  0  0  0  0  0  0  0
   19.8123   21.5732   29.2452 C   0  0  1  0  0  0  0  0  0  0  0  0
   20.5570   20.9700   30.4465 C   0  0  0  0  0  0  0  0  0  0  0  0
   23.2537   21.3947   29.5012 O   0  0  0  0  0  0  0  0  0  0  0  0
   22.6404   23.7698   28.0549 O   0  0  0  0  0  0  0  0  0  0  0  0
   20.0559   22.9236   27.2204 O   0  0  0  0  0  0  0  0  0  0  0  0
   18.8958   22.5768   29.6881 O   0  0  0  0  0  0  0  0  0  0  0  0
   21.5057   21.8645   31.0376 O   0  0  0  0  0  0  0  0  0  0  0  0
   24.1697   20.8063   30.4074 C   0  0  0  0  0  0  0  0  0  0  0  0
   23.0875   23.1106   30.6376 H   0  0  0  0  0  0  0  0  0  0  0  0
   21.1179   24.0039   29.4104 H   0  0  0  0  0  0  0  0  0  0  0  0
   21.3665   21.4471   27.7277 H   0  0  0  0  0  0  0  0  0  0  0  0
   19.2139   20.7967   28.7471 H   0  0  0  0  0  0  0  0  0  0  0  0
   21.0667   20.0397   30.1730 H   0  0  0  0  0  0  0  0  0  0  0  0
   19.8362   20.7294   31.2370 H   0  0  0  0  0  0  0  0  0  0  0  0
   23.1756   24.4122   28.5454 H   0  0  0  0  0  0  0  0  0  0  0  0
   19.3905   22.3186   26.8586 H   0  0  0  0  0  0  0  0  0  0  0  0
   18.2843   22.1737   30.3381 H   0  0  0  0  0  0  0  0  0  0  0  0
   24.7775   20.0889   29.8485 H   0  0  0  0  0  0  0  0  0  0  0  0
   23.6327   20.2690   31.1907 H   0  0  0  0  0  0  0  0  0  0  0  0
   24.8362   21.5576   30.8404 H   0  0  0  0  0  0  0  0  0  0  0  0
  1  2  1  0  0  0  0
  1  6  1  0  0  0  0
  1 10  1  0  0  0  0
  1 12  1  1  0  0  0
  2  3  1  0  0  0  0
  2  7  1  0  0  0  0
  2 13  1  1  0  0  0
  3  4  1  0  0  0  0
  3  8  1  0  0  0  0
  3 14  1  6  0  0  0
  4  5  1  0  0  0  0
  4  9  1  0  0  0  0
  4 15  1  6  0  0  0
  5 10  1  0  0  0  0
  5 16  1  0  0  0  0
  5 17  1  0  0  0  0
  6 11  1  0  0  0  0
  7 18  1  0  0  0  0
  8 19  1  0  0  0  0
  9 20  1  0  0  0  0
 11 21  1  0  0  0  0
 11 22  1  0  0  0  0
 11 23  1  0  0  0  0
M  END
$$$$
