ASP
 OpenBabel04051919313D

 15 14  0  0  1  0  0  0  0  0999 V2000
    8.0865   33.3709   60.2269 N   0  3  0  0  0  0  0  0  0  0  0  0
    9.0274   34.3639   60.8691 C   0  0  2  0  0  0  0  0  0  0  0  0
    8.2913   35.4832   61.6613 C   0  0  0  0  0  0  0  0  0  0  0  0
    9.0147   36.2565   62.3312 O   0  0  0  0  0  0  0  0  0  0  0  0
   10.0053   34.8914   59.8429 C   0  0  0  0  0  0  0  0  0  0  0  0
    9.3316   35.6164   58.6840 C   0  0  0  0  0  0  0  0  0  0  0  0
    8.1196   35.2953   58.5152 O   0  0  0  0  0  0  0  0  0  0  0  0
   10.1056   36.2933   57.9603 O   0  0  0  0  0  0  0  0  0  0  0  0
    7.0175   35.3207   61.6685 O   0  0  0  0  0  0  0  0  0  0  0  0
    8.5411   32.6377   59.6932 H   0  0  0  0  0  0  0  0  0  0  0  0
    7.4069   33.0643   60.9292 H   0  0  0  0  0  0  0  0  0  0  0  0
    9.5725   33.7634   61.6128 H   0  0  0  0  0  0  0  0  0  0  0  0
   10.5892   34.0636   59.4202 H   0  0  0  0  0  0  0  0  0  0  0  0
   10.7179   35.5806   60.3161 H   0  0  0  0  0  0  0  0  0  0  0  0
    7.5499   33.9893   59.5675 H   0  0  0  0  0  0  0  0  0  0  0  0
  1  2  1  0  0  0  0
  1 10  1  0  0  0  0
  1 11  1  0  0  0  0
  1 15  1  0  0  0  0
  2  3  1  0  0  0  0
  2  5  1  0  0  0  0
  2 12  1  1  0  0  0
  3  4  2  0  0  0  0
  3  9  1  0  0  0  0
  5  6  1  0  0  0  0
  5 13  1  0  0  0  0
  5 14  1  0  0  0  0
  6  7  2  0  0  0  0
  6  8  1  0  0  0  0
M  CHG  1   1   1
M  END
$$$$
