ATP
 OpenBabel04051919473D

 43 45  0  0  1  0  0  0  0  0999 V2000
   16.8830    7.4603  -34.1435 P   0  0  0  0  0  0  0  0  0  0  0  0
   15.4248    7.2647  -34.5926 O   0  0  0  0  0  0  0  0  0  0  0  0
   17.6595    8.3135  -35.1390 O   0  0  0  0  0  0  0  0  0  0  0  0
   17.5298    6.1179  -33.8100 O   0  0  0  0  0  0  0  0  0  0  0  0
   17.7557    9.0287  -31.7363 P   0  0  1  0  0  0  0  0  0  0  0  0
   16.8355    9.6730  -30.6886 O   0  0  0  0  0  0  0  0  0  0  0  0
   18.8369    8.1018  -31.2117 O   0  0  0  0  0  0  0  0  0  0  0  0
   16.7653    8.3073  -32.7748 O   0  0  0  0  0  0  0  0  0  0  0  0
   19.3809   11.4026  -32.1833 P   0  0  1  0  0  0  0  0  0  0  0  0
   19.5348   11.6224  -30.7056 O   0  0  0  0  0  0  0  0  0  0  0  0
   20.6262   11.4880  -33.0732 O   0  0  0  0  0  0  0  0  0  0  0  0
   18.3966   10.2155  -32.6170 O   0  0  0  0  0  0  0  0  0  0  0  0
   18.4901   12.6818  -32.7186 O   0  0  0  0  0  0  0  0  0  0  0  0
   17.1997   12.8206  -32.1538 C   0  0  0  0  0  0  0  0  0  0  0  0
   16.2169   13.1541  -33.2707 C   0  0  1  0  0  0  0  0  0  0  0  0
   16.4782   14.5298  -33.7028 O   0  0  0  0  0  0  0  0  0  0  0  0
   16.2700   12.2499  -34.5281 C   0  0  1  0  0  0  0  0  0  0  0  0
   14.9338   12.0366  -35.0453 O   0  0  0  0  0  0  0  0  0  0  0  0
   17.0465   13.0901  -35.5416 C   0  0  1  0  0  0  0  0  0  0  0  0
   16.6891   12.9112  -36.9239 O   0  0  0  0  0  0  0  0  0  0  0  0
   16.6441   14.4981  -35.1216 C   0  0  2  0  0  0  0  0  0  0  0  0
   17.5319   15.5614  -35.5436 N   0  3  0  0  0  0  0  0  0  0  0  0
   18.9015   15.5366  -35.5844 C   0  0  0  0  0  0  0  0  0  0  0  0
   19.4031   16.6606  -36.0721 N   0  0  0  0  0  0  0  0  0  0  0  0
   18.3101   17.4475  -36.3369 C   0  0  0  0  0  0  0  0  0  0  0  0
   18.1727   18.7565  -36.8560 C   0  0  0  0  0  0  0  0  0  0  0  0
   19.2537   19.5545  -37.2102 N   0  0  0  0  0  0  0  0  0  0  0  0
   16.9352   19.2692  -37.0003 N   0  0  0  0  0  0  0  0  0  0  0  0
   15.8820   18.5086  -36.6578 C   0  0  0  0  0  0  0  0  0  0  0  0
   15.8786   17.2478  -36.1772 N   0  0  0  0  0  0  0  0  0  0  0  0
   17.1297   16.7849  -36.0293 C   0  0  0  0  0  0  0  0  0  0  0  0
   17.2374   13.6449  -31.4304 H   0  0  0  0  0  0  0  0  0  0  0  0
   16.8761   11.9293  -31.6206 H   0  0  0  0  0  0  0  0  0  0  0  0
   15.2057   13.1713  -32.8502 H   0  0  0  0  0  0  0  0  0  0  0  0
   16.7228   11.2716  -34.3430 H   0  0  0  0  0  0  0  0  0  0  0  0
   14.4896   12.8807  -35.1651 H   0  0  0  0  0  0  0  0  0  0  0  0
   18.1180   12.9085  -35.4307 H   0  0  0  0  0  0  0  0  0  0  0  0
   15.7239   12.7896  -36.9531 H   0  0  0  0  0  0  0  0  0  0  0  0
   15.6578   14.7316  -35.5431 H   0  0  0  0  0  0  0  0  0  0  0  0
   19.4742   14.6722  -35.2577 H   0  0  0  0  0  0  0  0  0  0  0  0
   19.0616   20.4836  -37.5304 H   0  0  0  0  0  0  0  0  0  0  0  0
   20.1810   19.1836  -37.0660 H   0  0  0  0  0  0  0  0  0  0  0  0
   14.9083   18.9610  -36.7880 H   0  0  0  0  0  0  0  0  0  0  0  0
  1  2  2  0  0  0  0
  1  3  1  0  0  0  0
  1  4  1  0  0  0  0
  1  8  1  0  0  0  0
  5  6  2  1  0  0  0
  5  7  1  0  0  0  0
  5  8  1  0  0  0  0
  5 12  1  0  0  0  0
  9 10  2  1  0  0  0
  9 11  1  0  0  0  0
  9 12  1  0  0  0  0
  9 13  1  0  0  0  0
 13 14  1  0  0  0  0
 14 15  1  0  0  0  0
 14 32  1  0  0  0  0
 14 33  1  0  0  0  0
 15 16  1  0  0  0  0
 15 17  1  0  0  0  0
 15 34  1  1  0  0  0
 16 21  1  0  0  0  0
 17 18  1  0  0  0  0
 17 19  1  0  0  0  0
 17 35  1  1  0  0  0
 18 36  1  0  0  0  0
 19 20  1  0  0  0  0
 19 21  1  0  0  0  0
 19 37  1  1  0  0  0
 20 38  1  0  0  0  0
 21 22  1  0  0  0  0
 21 39  1  6  0  0  0
 22 23  2  0  0  0  0
 22 31  1  0  0  0  0
 23 24  1  0  0  0  0
 23 40  1  0  0  0  0
 24 25  1  0  0  0  0
 25 26  2  0  0  0  0
 25 31  1  0  0  0  0
 26 27  1  0  0  0  0
 26 28  1  0  0  0  0
 27 41  1  0  0  0  0
 27 42  1  0  0  0  0
 28 29  2  0  0  0  0
 29 30  1  0  0  0  0
 29 43  1  0  0  0  0
 30 31  2  0  0  0  0
M  CHG  1  22   1
M  END
$$$$
