ATP
 OpenBabel04051918423D

 43 45  0  0  1  0  0  0  0  0999 V2000
   -3.3065   25.9705   20.6232 P   0  0  0  0  0  0  0  0  0  0  0  0
   -3.4471   25.4578   22.0747 O   0  0  0  0  0  0  0  0  0  0  0  0
   -3.9758   25.0244   19.6467 O   0  0  0  0  0  0  0  0  0  0  0  0
   -3.8032   27.4128   20.5180 O   0  0  0  0  0  0  0  0  0  0  0  0
   -0.7585   25.7717   19.0607 P   0  0  2  0  0  0  0  0  0  0  0  0
   -1.4195   25.2809   17.7768 O   0  0  0  0  0  0  0  0  0  0  0  0
    0.4691   24.9443   19.4683 O   0  0  0  0  0  0  0  0  0  0  0  0
   -1.7146   25.9727   20.3349 O   0  0  0  0  0  0  0  0  0  0  0  0
   -0.2506   28.7345   19.2234 P   0  0  1  0  0  0  0  0  0  0  0  0
   -1.6006   29.3956   19.2524 O   0  0  0  0  0  0  0  0  0  0  0  0
    0.8132   29.0314   20.2679 O   0  0  0  0  0  0  0  0  0  0  0  0
   -0.1874   27.2306   18.7040 O   0  0  0  0  0  0  0  0  0  0  0  0
    1.5733   33.1131   16.7974 N   0  3  0  0  0  0  0  0  0  0  0  0
    0.6262   33.2710   17.7756 C   0  0  0  0  0  0  0  0  0  0  0  0
    0.7502   34.4286   18.4070 N   0  0  0  0  0  0  0  0  0  0  0  0
    1.8548   35.0266   17.8471 C   0  0  0  0  0  0  0  0  0  0  0  0
    2.4946   36.2537   18.1054 C   0  0  0  0  0  0  0  0  0  0  0  0
    2.0565   37.1445   19.0620 N   0  0  0  0  0  0  0  0  0  0  0  0
    3.5807   36.5879   17.3744 N   0  0  0  0  0  0  0  0  0  0  0  0
    3.9786   35.7236   16.3998 C   0  0  0  0  0  0  0  0  0  0  0  0
    3.4381   34.5291   16.0486 N   0  0  0  0  0  0  0  0  0  0  0  0
    2.3686   34.2466   16.8285 C   0  0  0  0  0  0  0  0  0  0  0  0
    0.4028   29.4384   17.8861 O   0  0  0  0  0  0  0  0  0  0  0  0
   -0.3244   29.3288   16.6726 C   0  0  0  0  0  0  0  0  0  0  0  0
    0.5104   29.9955   15.5484 C   0  0  1  0  0  0  0  0  0  0  0  0
    0.4054   31.4359   15.5888 O   0  0  0  0  0  0  0  0  0  0  0  0
    2.0074   29.6602   15.6628 C   0  0  1  0  0  0  0  0  0  0  0  0
    2.5866   29.6848   14.3338 O   0  0  0  0  0  0  0  0  0  0  0  0
    2.5549   30.8347   16.4699 C   0  0  1  0  0  0  0  0  0  0  0  0
    3.9625   31.0010   16.2521 O   0  0  0  0  0  0  0  0  0  0  0  0
    1.7100   31.9788   15.9040 C   0  0  2  0  0  0  0  0  0  0  0  0
   -0.1287   32.5111   17.9830 H   0  0  0  0  0  0  0  0  0  0  0  0
    2.6291   37.9437   19.2673 H   0  0  0  0  0  0  0  0  0  0  0  0
    1.3161   36.8332   19.6817 H   0  0  0  0  0  0  0  0  0  0  0  0
    4.8405   36.0374   15.8352 H   0  0  0  0  0  0  0  0  0  0  0  0
   -1.3014   29.8184   16.7469 H   0  0  0  0  0  0  0  0  0  0  0  0
   -0.4727   28.2686   16.4423 H   0  0  0  0  0  0  0  0  0  0  0  0
    0.1057   29.6702   14.5878 H   0  0  0  0  0  0  0  0  0  0  0  0
    2.2490   28.6728   16.0861 H   0  0  0  0  0  0  0  0  0  0  0  0
    3.5351   29.5453   14.4762 H   0  0  0  0  0  0  0  0  0  0  0  0
    2.3788   30.7163   17.5396 H   0  0  0  0  0  0  0  0  0  0  0  0
    4.3730   30.2636   16.7393 H   0  0  0  0  0  0  0  0  0  0  0  0
    2.1332   32.3636   14.9699 H   0  0  0  0  0  0  0  0  0  0  0  0
  1  2  2  0  0  0  0
  1  3  1  0  0  0  0
  1  4  1  0  0  0  0
  1  8  1  0  0  0  0
  5  6  2  6  0  0  0
  5  7  1  0  0  0  0
  5  8  1  0  0  0  0
  5 12  1  0  0  0  0
  9 10  2  1  0  0  0
  9 11  1  0  0  0  0
  9 12  1  0  0  0  0
  9 23  1  0  0  0  0
 13 14  2  0  0  0  0
 13 22  1  0  0  0  0
 13 31  1  0  0  0  0
 14 15  1  0  0  0  0
 14 32  1  0  0  0  0
 15 16  1  0  0  0  0
 16 17  2  0  0  0  0
 16 22  1  0  0  0  0
 17 18  1  0  0  0  0
 17 19  1  0  0  0  0
 18 33  1  0  0  0  0
 18 34  1  0  0  0  0
 19 20  2  0  0  0  0
 20 21  1  0  0  0  0
 20 35  1  0  0  0  0
 21 22  2  0  0  0  0
 23 24  1  0  0  0  0
 24 25  1  0  0  0  0
 24 36  1  0  0  0  0
 24 37  1  0  0  0  0
 25 26  1  0  0  0  0
 25 27  1  0  0  0  0
 25 38  1  6  0  0  0
 26 31  1  0  0  0  0
 27 28  1  0  0  0  0
 27 29  1  0  0  0  0
 27 39  1  1  0  0  0
 28 40  1  0  0  0  0
 29 30  1  0  0  0  0
 29 31  1  0  0  0  0
 29 41  1  1  0  0  0
 30 42  1  0  0  0  0
 31 43  1  6  0  0  0
M  CHG  1  13   1
M  END
$$$$
