ATP
 OpenBabel04051920183D

 43 45  0  0  1  0  0  0  0  0999 V2000
   47.6308  -19.0335   58.9227 P   0  0  0  0  0  0  0  0  0  0  0  0
   47.5921  -20.2096   57.9315 O   0  0  0  0  0  0  0  0  0  0  0  0
   48.1579  -19.5104   60.2764 O   0  0  0  0  0  0  0  0  0  0  0  0
   48.3660  -17.8265   58.3701 O   0  0  0  0  0  0  0  0  0  0  0  0
   45.1973  -17.4195   59.6766 P   0  0  2  0  0  0  0  0  0  0  0  0
   45.9031  -16.3458   60.4916 O   0  0  0  0  0  0  0  0  0  0  0  0
   43.9558  -18.0092   60.3771 O   0  0  0  0  0  0  0  0  0  0  0  0
   46.0867  -18.6413   59.1394 O   0  0  0  0  0  0  0  0  0  0  0  0
   45.2292  -16.1817   56.9705 P   0  0  1  0  0  0  0  0  0  0  0  0
   46.1168  -14.9500   57.1153 O   0  0  0  0  0  0  0  0  0  0  0  0
   45.3796  -17.1785   55.8506 O   0  0  0  0  0  0  0  0  0  0  0  0
   44.6125  -16.7728   58.3236 O   0  0  0  0  0  0  0  0  0  0  0  0
   43.8414  -15.4228   56.5091 O   0  0  0  0  0  0  0  0  0  0  0  0
   43.8374  -15.0702   55.1411 C   0  0  0  0  0  0  0  0  0  0  0  0
   42.8320  -13.9585   54.9221 C   0  0  1  0  0  0  0  0  0  0  0  0
   41.4993  -14.4097   55.2852 O   0  0  0  0  0  0  0  0  0  0  0  0
   43.1086  -12.6934   55.7351 C   0  0  1  0  0  0  0  0  0  0  0  0
   44.0783  -11.8334   55.1392 O   0  0  0  0  0  0  0  0  0  0  0  0
   41.7154  -12.0791   55.7873 C   0  0  1  0  0  0  0  0  0  0  0  0
   41.3892  -11.4205   54.5366 O   0  0  0  0  0  0  0  0  0  0  0  0
   40.8439  -13.3277   55.9622 C   0  0  2  0  0  0  0  0  0  0  0  0
   40.5348  -13.6763   57.3371 N   0  3  0  0  0  0  0  0  0  0  0  0
   41.2397  -14.4663   58.2055 C   0  0  0  0  0  0  0  0  0  0  0  0
   40.6368  -14.5722   59.3762 N   0  0  0  0  0  0  0  0  0  0  0  0
   39.4891  -13.8482   59.2475 C   0  0  0  0  0  0  0  0  0  0  0  0
   38.4360  -13.6235   60.1526 C   0  0  0  0  0  0  0  0  0  0  0  0
   38.4298  -14.1336   61.4405 N   0  0  0  0  0  0  0  0  0  0  0  0
   37.3922  -12.8655   59.7399 N   0  0  0  0  0  0  0  0  0  0  0  0
   37.4558  -12.3396   58.4959 C   0  0  0  0  0  0  0  0  0  0  0  0
   38.4119  -12.4675   57.5494 N   0  0  0  0  0  0  0  0  0  0  0  0
   39.4044  -13.2619   58.0027 C   0  0  0  0  0  0  0  0  0  0  0  0
   43.5347  -15.9556   54.5744 H   0  0  0  0  0  0  0  0  0  0  0  0
   44.8322  -14.7514   54.8088 H   0  0  0  0  0  0  0  0  0  0  0  0
   42.8170  -13.7228   53.8510 H   0  0  0  0  0  0  0  0  0  0  0  0
   43.4340  -12.9173   56.7578 H   0  0  0  0  0  0  0  0  0  0  0  0
   44.9318  -12.2996   55.2735 H   0  0  0  0  0  0  0  0  0  0  0  0
   41.6058  -11.3295   56.5763 H   0  0  0  0  0  0  0  0  0  0  0  0
   40.4792  -11.0960   54.6152 H   0  0  0  0  0  0  0  0  0  0  0  0
   39.8821  -13.2025   55.4498 H   0  0  0  0  0  0  0  0  0  0  0  0
   42.1765  -14.9516   57.9625 H   0  0  0  0  0  0  0  0  0  0  0  0
   37.5328  -14.2002   61.8913 H   0  0  0  0  0  0  0  0  0  0  0  0
   39.1232  -14.8696   61.5845 H   0  0  0  0  0  0  0  0  0  0  0  0
   36.6038  -11.7135   58.2139 H   0  0  0  0  0  0  0  0  0  0  0  0
  1  2  2  0  0  0  0
  1  3  1  0  0  0  0
  1  4  1  0  0  0  0
  1  8  1  0  0  0  0
  5  6  2  1  0  0  0
  5  7  1  0  0  0  0
  5  8  1  0  0  0  0
  5 12  1  0  0  0  0
  9 10  2  1  0  0  0
  9 11  1  0  0  0  0
  9 12  1  0  0  0  0
  9 13  1  0  0  0  0
 13 14  1  0  0  0  0
 14 15  1  0  0  0  0
 14 32  1  0  0  0  0
 14 33  1  0  0  0  0
 15 16  1  0  0  0  0
 15 17  1  0  0  0  0
 15 34  1  6  0  0  0
 16 21  1  0  0  0  0
 17 18  1  0  0  0  0
 17 19  1  0  0  0  0
 17 35  1  1  0  0  0
 18 36  1  0  0  0  0
 19 20  1  0  0  0  0
 19 21  1  0  0  0  0
 19 37  1  1  0  0  0
 20 38  1  0  0  0  0
 21 22  1  0  0  0  0
 21 39  1  6  0  0  0
 22 23  2  0  0  0  0
 22 31  1  0  0  0  0
 23 24  1  0  0  0  0
 23 40  1  0  0  0  0
 24 25  1  0  0  0  0
 25 26  2  0  0  0  0
 25 31  1  0  0  0  0
 26 27  1  0  0  0  0
 26 28  1  0  0  0  0
 27 41  1  0  0  0  0
 27 42  1  0  0  0  0
 28 29  2  0  0  0  0
 29 30  1  0  0  0  0
 29 43  1  0  0  0  0
 30 31  2  0  0  0  0
M  CHG  1  22   1
M  END
$$$$
