B19
 OpenBabel04051918063D

 44 46  0  0  1  0  0  0  0  0999 V2000
   -5.9494    6.2804   13.1662 C   0  0  0  0  0  0  0  0  0  0  0  0
   -4.7871    5.4397   12.6634 C   0  0  0  0  0  0  0  0  0  0  0  0
   -3.7607    6.3197   11.9807 C   0  0  0  0  0  0  0  0  0  0  0  0
   -4.1293    4.7779   13.7394 O   0  0  0  0  0  0  0  0  0  0  0  0
   -5.3111    4.4606   11.7538 O   0  0  0  0  0  0  0  0  0  0  0  0
   -5.3691    3.2205   12.4749 C   0  0  1  0  0  0  0  0  0  0  0  0
   -5.0708    2.1251   11.4696 C   0  0  2  0  0  0  0  0  0  0  0  0
   -4.9651    0.7949   11.9925 O   0  0  0  0  0  0  0  0  0  0  0  0
   -4.1197    0.1134   11.0432 C   0  0  0  0  0  0  0  0  0  0  0  0
   -4.9805   -0.6845   10.0657 C   0  0  0  0  0  0  0  0  0  0  0  0
   -3.1377   -0.7980   11.7833 C   0  0  0  0  0  0  0  0  0  0  0  0
   -3.3753    1.0793   10.2889 O   0  0  0  0  0  0  0  0  0  0  0  0
   -3.7250    2.3563   10.8369 C   0  0  2  0  0  0  0  0  0  0  0  0
   -2.6609    2.8165   11.8494 C   0  0  0  0  0  0  0  0  0  0  0  0
   -3.0553    2.7330   13.2265 O   0  0  0  0  0  0  0  0  0  0  0  0
   -4.3036    3.3768   13.5592 C   0  0  1  0  0  0  0  0  0  0  0  0
   -4.8110    2.8581   14.9225 C   0  0  0  0  0  0  0  0  0  0  0  0
   -4.7725    1.3810   15.0036 N   0  0  0  0  0  0  0  0  0  0  0  0
   -5.4183    0.7819   16.4069 S   0  0  0  0  0  0  0  0  0  0  0  0
   -4.5302    1.0319   17.4999 O   0  0  0  0  0  0  0  0  0  0  0  0
   -6.8170    1.1427   16.4353 O   0  0  0  0  0  0  0  0  0  0  0  0
   -5.3528   -0.8171   15.9960 N   0  0  0  0  0  0  0  0  0  0  0  0
   -5.6221    7.0503   13.8721 H   0  0  0  0  0  0  0  0  0  0  0  0
   -6.6958    5.6665   13.6815 H   0  0  0  0  0  0  0  0  0  0  0  0
   -6.4688    6.7678   12.3257 H   0  0  0  0  0  0  0  0  0  0  0  0
   -2.8945    5.7431   11.6494 H   0  0  0  0  0  0  0  0  0  0  0  0
   -3.3604    7.0661   12.6809 H   0  0  0  0  0  0  0  0  0  0  0  0
   -4.1633    6.8169   11.0984 H   0  0  0  0  0  0  0  0  0  0  0  0
   -6.3691    3.1099   12.9056 H   0  0  0  0  0  0  0  0  0  0  0  0
   -5.8542    2.1207   10.7041 H   0  0  0  0  0  0  0  0  0  0  0  0
   -5.5700   -1.4464   10.5853 H   0  0  0  0  0  0  0  0  0  0  0  0
   -4.3651   -1.1666    9.2975 H   0  0  0  0  0  0  0  0  0  0  0  0
   -5.6905   -0.0347    9.5417 H   0  0  0  0  0  0  0  0  0  0  0  0
   -2.4633   -1.3025   11.0780 H   0  0  0  0  0  0  0  0  0  0  0  0
   -3.6562   -1.5582   12.3701 H   0  0  0  0  0  0  0  0  0  0  0  0
   -2.5058   -0.2207   12.4641 H   0  0  0  0  0  0  0  0  0  0  0  0
   -3.7812    3.0791   10.0123 H   0  0  0  0  0  0  0  0  0  0  0  0
   -2.3495    3.8347   11.6261 H   0  0  0  0  0  0  0  0  0  0  0  0
   -1.7594    2.2074   11.7387 H   0  0  0  0  0  0  0  0  0  0  0  0
   -5.8399    3.2015   15.0785 H   0  0  0  0  0  0  0  0  0  0  0  0
   -4.2145    3.3067   15.7299 H   0  0  0  0  0  0  0  0  0  0  0  0
   -3.8560    1.0226   14.7314 H   0  0  0  0  0  0  0  0  0  0  0  0
   -5.5474   -1.4348   16.7829 H   0  0  0  0  0  0  0  0  0  0  0  0
   -4.5833   -1.0855   15.3931 H   0  0  0  0  0  0  0  0  0  0  0  0
  1  2  1  0  0  0  0
  1 23  1  0  0  0  0
  1 24  1  0  0  0  0
  1 25  1  0  0  0  0
  2  3  1  0  0  0  0
  2  4  1  0  0  0  0
  2  5  1  0  0  0  0
  3 26  1  0  0  0  0
  3 27  1  0  0  0  0
  3 28  1  0  0  0  0
  4 16  1  0  0  0  0
  5  6  1  0  0  0  0
  6  7  1  0  0  0  0
  6 16  1  0  0  0  0
  6 29  1  1  0  0  0
  7  8  1  0  0  0  0
  7 13  1  0  0  0  0
  7 30  1  6  0  0  0
  8  9  1  0  0  0  0
  9 10  1  0  0  0  0
  9 11  1  0  0  0  0
  9 12  1  0  0  0  0
 10 31  1  0  0  0  0
 10 32  1  0  0  0  0
 10 33  1  0  0  0  0
 11 34  1  0  0  0  0
 11 35  1  0  0  0  0
 11 36  1  0  0  0  0
 12 13  1  0  0  0  0
 13 14  1  0  0  0  0
 13 37  1  6  0  0  0
 14 15  1  0  0  0  0
 14 38  1  0  0  0  0
 14 39  1  0  0  0  0
 15 16  1  0  0  0  0
 16 17  1  1  0  0  0
 17 18  1  0  0  0  0
 17 40  1  0  0  0  0
 17 41  1  0  0  0  0
 18 19  1  0  0  0  0
 18 42  1  0  0  0  0
 19 20  2  0  0  0  0
 19 21  2  0  0  0  0
 19 22  1  0  0  0  0
 22 43  1  0  0  0  0
 22 44  1  0  0  0  0
M  END
$$$$
