B69
 OpenBabel04051920513D

 52 53  0  0  1  0  0  0  0  0999 V2000
    9.6196   61.6990   37.6496 C   0  0  0  0  0  0  0  0  0  0  0  0
    9.9888   60.3673   38.2694 C   0  0  0  0  0  0  0  0  0  0  0  0
   11.4176   59.9339   37.9366 C   0  0  0  0  0  0  0  0  0  0  0  0
   11.6628   58.5749   38.5861 C   0  0  0  0  0  0  0  0  0  0  0  0
   12.9541   57.9100   38.2209 C   0  0  0  0  0  0  0  0  0  0  0  0
   13.1140   57.2931   36.9740 C   0  0  0  0  0  0  0  0  0  0  0  0
   14.2447   56.5144   36.7166 C   0  0  0  0  0  0  0  0  0  0  0  0
   13.9712   57.8000   39.1698 C   0  0  0  0  0  0  0  0  0  0  0  0
   15.1029   57.0358   38.8991 C   0  0  0  0  0  0  0  0  0  0  0  0
   15.2548   56.3604   37.6784 C   0  0  0  0  0  0  0  0  0  0  0  0
   16.4655   55.5612   37.4199 C   0  0  0  0  0  0  0  0  0  0  0  0
   17.1192   54.8784   38.4618 C   0  0  0  0  0  0  0  0  0  0  0  0
   18.3406   54.2435   38.2508 C   0  0  0  0  0  0  0  0  0  0  0  0
   17.0395   55.5037   36.1390 C   0  0  0  0  0  0  0  0  0  0  0  0
   18.2481   54.8453   35.9176 C   0  0  0  0  0  0  0  0  0  0  0  0
   18.9214   54.2444   36.9788 C   0  0  0  0  0  0  0  0  0  0  0  0
   20.2663   53.5892   36.7725 C   0  0  0  0  0  0  0  0  0  0  0  0
   20.1574   52.0675   36.7315 C   0  0  0  0  0  0  0  0  0  0  0  0
   21.4447   51.3768   37.1834 C   0  0  0  0  0  0  0  0  0  0  0  0
   22.6804   51.5995   36.2763 C   0  0  2  0  0  0  0  0  0  0  0  0
   22.6921   50.4446   34.8260 P   0  0  0  0  0  0  0  0  0  0  0  0
   23.8223   50.8474   33.8872 O   0  0  0  0  0  0  0  0  0  0  0  0
   22.7450   49.0140   35.3600 O   0  0  0  0  0  0  0  0  0  0  0  0
   21.3273   50.7311   34.1692 O   0  0  0  0  0  0  0  0  0  0  0  0
   24.1821   51.6065   37.2831 S   0  0  0  0  0  0  0  0  0  0  0  0
   25.3317   52.0218   36.4644 O   0  0  0  0  0  0  0  0  0  0  0  0
   24.3262   50.3130   37.9503 O   0  0  0  0  0  0  0  0  0  0  0  0
   23.8825   52.6621   38.2733 O   0  0  0  0  0  0  0  0  0  0  0  0
    8.5866   61.9528   37.9085 H   0  0  0  0  0  0  0  0  0  0  0  0
    9.6964   61.6577   36.5591 H   0  0  0  0  0  0  0  0  0  0  0  0
   10.2704   62.4973   38.0174 H   0  0  0  0  0  0  0  0  0  0  0  0
    9.2857   59.6045   37.9128 H   0  0  0  0  0  0  0  0  0  0  0  0
    9.8679   60.4291   39.3578 H   0  0  0  0  0  0  0  0  0  0  0  0
   12.1389   60.6706   38.3133 H   0  0  0  0  0  0  0  0  0  0  0  0
   11.5523   59.8812   36.8498 H   0  0  0  0  0  0  0  0  0  0  0  0
   10.8545   57.8812   38.3234 H   0  0  0  0  0  0  0  0  0  0  0  0
   11.6113   58.6885   39.6768 H   0  0  0  0  0  0  0  0  0  0  0  0
   12.3456   57.3754   36.2108 H   0  0  0  0  0  0  0  0  0  0  0  0
   14.3155   56.0037   35.7582 H   0  0  0  0  0  0  0  0  0  0  0  0
   13.8809   58.2790   40.1436 H   0  0  0  0  0  0  0  0  0  0  0  0
   15.8732   56.9726   39.6635 H   0  0  0  0  0  0  0  0  0  0  0  0
   16.6990   54.8434   39.4628 H   0  0  0  0  0  0  0  0  0  0  0  0
   18.8503   53.7513   39.0756 H   0  0  0  0  0  0  0  0  0  0  0  0
   16.5729   56.0000   35.2939 H   0  0  0  0  0  0  0  0  0  0  0  0
   18.6786   54.8172   34.9195 H   0  0  0  0  0  0  0  0  0  0  0  0
   20.9242   53.9185   37.5860 H   0  0  0  0  0  0  0  0  0  0  0  0
   20.7215   53.9653   35.8456 H   0  0  0  0  0  0  0  0  0  0  0  0
   19.8495   51.7537   35.7262 H   0  0  0  0  0  0  0  0  0  0  0  0
   19.3524   51.7236   37.3973 H   0  0  0  0  0  0  0  0  0  0  0  0
   21.2577   50.3015   37.2685 H   0  0  0  0  0  0  0  0  0  0  0  0
   21.6402   51.7197   38.2041 H   0  0  0  0  0  0  0  0  0  0  0  0
   22.6484   52.6117   35.8456 H   0  0  0  0  0  0  0  0  0  0  0  0
  1  2  1  0  0  0  0
  1 29  1  0  0  0  0
  1 30  1  0  0  0  0
  1 31  1  0  0  0  0
  2  3  1  0  0  0  0
  2 32  1  0  0  0  0
  2 33  1  0  0  0  0
  3  4  1  0  0  0  0
  3 34  1  0  0  0  0
  3 35  1  0  0  0  0
  4  5  1  0  0  0  0
  4 36  1  0  0  0  0
  4 37  1  0  0  0  0
  5  6  2  0  0  0  0
  5  8  1  0  0  0  0
  6  7  1  0  0  0  0
  6 38  1  0  0  0  0
  7 10  2  0  0  0  0
  7 39  1  0  0  0  0
  8  9  2  0  0  0  0
  8 40  1  0  0  0  0
  9 10  1  0  0  0  0
  9 41  1  0  0  0  0
 10 11  1  0  0  0  0
 11 12  2  0  0  0  0
 11 14  1  0  0  0  0
 12 13  1  0  0  0  0
 12 42  1  0  0  0  0
 13 16  2  0  0  0  0
 13 43  1  0  0  0  0
 14 15  2  0  0  0  0
 14 44  1  0  0  0  0
 15 16  1  0  0  0  0
 15 45  1  0  0  0  0
 16 17  1  0  0  0  0
 17 18  1  0  0  0  0
 17 46  1  0  0  0  0
 17 47  1  0  0  0  0
 18 19  1  0  0  0  0
 18 48  1  0  0  0  0
 18 49  1  0  0  0  0
 19 20  1  0  0  0  0
 19 50  1  0  0  0  0
 19 51  1  0  0  0  0
 20 21  1  0  0  0  0
 20 25  1  0  0  0  0
 20 52  1  6  0  0  0
 21 22  2  0  0  0  0
 21 23  1  0  0  0  0
 21 24  1  0  0  0  0
 25 26  2  0  0  0  0
 25 27  2  0  0  0  0
 25 28  1  0  0  0  0
M  END
$$$$
