BAR
 OpenBabel04051917373D

 26 27  0  0  1  0  0  0  0  0999 V2000
   32.3227   30.6299   44.3921 C   0  0  0  0  0  0  0  0  0  0  0  0
   31.9584   31.7913   44.9380 C   0  0  0  0  0  0  0  0  0  0  0  0
   31.0465   31.8809   46.1626 C   0  0  2  0  0  0  0  0  0  0  0  0
   31.1216   30.5563   46.9298 C   0  0  0  0  0  0  0  0  0  0  0  0
   31.7699   29.3059   44.8390 C   0  0  2  0  0  0  0  0  0  0  0  0
   30.7156   29.4449   45.9722 C   0  0  2  0  0  0  0  0  0  0  0  0
   29.5677   32.1087   45.8190 C   0  0  0  0  0  0  0  0  0  0  0  0
   28.9161   30.9089   45.1217 C   0  0  1  0  0  0  0  0  0  0  0  0
   31.4564   33.0985   47.0436 C   0  0  0  0  0  0  0  0  0  0  0  0
   28.9030   31.0527   43.5588 C   0  0  0  0  0  0  0  0  0  0  0  0
   32.9021   28.5434   45.3205 O   0  0  0  0  0  0  0  0  0  0  0  0
   29.0403   29.9823   42.9008 O   0  0  0  0  0  0  0  0  0  0  0  0
   28.6723   32.2150   43.1094 O   0  0  0  0  0  0  0  0  0  0  0  0
   31.6639   34.1994   46.4526 O   0  0  0  0  0  0  0  0  0  0  0  0
   31.5314   32.8815   48.2858 O   0  0  0  0  0  0  0  0  0  0  0  0
   29.3510   29.5956   45.5702 O   0  0  0  0  0  0  0  0  0  0  0  0
   33.0374   30.6245   43.5727 H   0  0  0  0  0  0  0  0  0  0  0  0
   32.3088   32.7364   44.5203 H   0  0  0  0  0  0  0  0  0  0  0  0
   30.4438   30.5556   47.7924 H   0  0  0  0  0  0  0  0  0  0  0  0
   32.1377   30.3868   47.3059 H   0  0  0  0  0  0  0  0  0  0  0  0
   31.3600   28.7595   43.9830 H   0  0  0  0  0  0  0  0  0  0  0  0
   30.7246   28.5019   46.5288 H   0  0  0  0  0  0  0  0  0  0  0  0
   29.4507   33.0189   45.2235 H   0  0  0  0  0  0  0  0  0  0  0  0
   29.0092   32.3015   46.7498 H   0  0  0  0  0  0  0  0  0  0  0  0
   27.8476   30.9287   45.3932 H   0  0  0  0  0  0  0  0  0  0  0  0
   32.5363   27.7048   45.6445 H   0  0  0  0  0  0  0  0  0  0  0  0
  1  5  1  0  0  0  0
  1  2  2  0  0  0  0
  1 17  1  0  0  0  0
  2  3  1  0  0  0  0
  2 18  1  0  0  0  0
  3  9  1  1  0  0  0
  3  7  1  0  0  0  0
  3  4  1  0  0  0  0
  4  6  1  0  0  0  0
  4 19  1  0  0  0  0
  4 20  1  0  0  0  0
  5  6  1  0  0  0  0
  5 11  1  0  0  0  0
  5 21  1  6  0  0  0
  6 16  1  0  0  0  0
  6 22  1  1  0  0  0
  7  8  1  0  0  0  0
  7 23  1  0  0  0  0
  7 24  1  0  0  0  0
  8 16  1  0  0  0  0
  8 10  1  0  0  0  0
  8 25  1  1  0  0  0
  9 15  2  0  0  0  0
  9 14  1  0  0  0  0
 10 13  2  0  0  0  0
 10 12  1  0  0  0  0
 11 26  1  0  0  0  0
M  END
$$$$
