BC2
 OpenBabel04051919503D

 82 83  0  0  1  0  0  0  0  0999 V2000
  -26.4470   34.4974   -3.4946 O   0  0  0  0  0  0  0  0  0  0  0  0
  -25.8936   33.6761   -4.1671 C   0  0  0  0  0  0  0  0  0  0  0  0
  -25.3922   32.3795   -3.5718 C   0  0  0  0  0  0  0  0  0  0  0  0
  -24.8263   31.4419   -4.3245 C   0  0  0  0  0  0  0  0  0  0  0  0
  -24.6092   31.6327   -5.8056 C   0  0  0  0  0  0  0  0  0  0  0  0
  -24.0717   30.8099   -6.4724 O   0  0  0  0  0  0  0  0  0  0  0  0
  -25.1022   32.9255   -6.3979 C   0  0  0  0  0  0  0  0  0  0  0  0
  -25.5501   32.1708   -2.2140 N   0  0  0  0  0  0  0  0  0  0  0  0
  -25.0681   32.9449   -1.1679 C   0  0  0  0  0  0  0  0  0  0  0  0
  -25.2370   32.5865   -0.0126 O   0  0  0  0  0  0  0  0  0  0  0  0
  -24.3095   34.2015   -1.4356 C   0  0  0  0  0  0  0  0  0  0  0  0
  -24.8513   35.4186   -0.7701 C   0  0  0  0  0  0  0  0  0  0  0  0
  -23.1740   34.2036   -2.1380 C   0  0  0  0  0  0  0  0  0  0  0  0
  -22.4000   35.4132   -2.4077 C   0  0  0  0  0  0  0  0  0  0  0  0
  -21.1036   35.4390   -2.7459 C   0  0  0  0  0  0  0  0  0  0  0  0
  -20.3118   34.1502   -2.7535 C   0  0  2  0  0  0  0  0  0  0  0  0
  -19.2726   34.1509   -1.6356 C   0  0  0  0  0  0  0  0  0  0  0  0
  -25.6802   33.8642   -5.6517 C   0  0  0  0  0  0  0  0  0  0  0  0
  -26.1856   35.1730   -6.2366 C   0  0  2  0  0  0  0  0  0  0  0  0
  -26.5815   34.9896   -7.6186 O   0  0  0  0  0  0  0  0  0  0  0  0
  -27.9250   34.5375   -7.7434 C   0  0  0  0  0  0  0  0  0  0  0  0
  -25.1384   36.3202   -6.2043 C   0  0  1  0  0  0  0  0  0  0  0  0
  -24.5679   36.6140   -4.8238 C   0  0  0  0  0  0  0  0  0  0  0  0
  -24.0692   36.1734   -7.3098 C   0  0  0  0  0  0  0  0  0  0  0  0
  -22.6819   36.7468   -6.9902 C   0  0  2  0  0  0  0  0  0  0  0  0
  -22.8817   38.1504   -7.2297 O   0  0  0  0  0  0  0  0  0  0  0  0
  -21.8693   39.0051   -6.7564 C   0  0  0  0  0  0  0  0  0  0  0  0
  -21.5920   36.3016   -7.9715 C   0  0  2  0  0  0  0  0  0  0  0  0
  -22.2019   36.1155   -9.2630 O   0  0  0  0  0  0  0  0  0  0  0  0
  -21.7323   37.0412  -10.2259 C   0  0  0  0  0  0  0  0  0  0  0  0
  -20.9111   34.9976   -7.5780 C   0  0  1  0  0  0  0  0  0  0  0  0
  -19.8725   34.5891   -8.6064 C   0  0  0  0  0  0  0  0  0  0  0  0
  -20.2575   34.9190   -6.2217 C   0  0  0  0  0  0  0  0  0  0  0  0
  -20.4387   33.8600   -5.3985 C   0  0  0  0  0  0  0  0  0  0  0  0
  -21.3300   32.7187   -5.7563 C   0  0  0  0  0  0  0  0  0  0  0  0
  -19.6479   33.7763   -4.1105 C   0  0  2  0  0  0  0  0  0  0  0  0
  -18.7632   32.6530   -4.0506 O   0  0  0  0  0  0  0  0  0  0  0  0
  -17.5627   32.6209   -4.7449 C   0  0  0  0  0  0  0  0  0  0  0  0
  -16.8166   31.6808   -4.6562 O   0  0  0  0  0  0  0  0  0  0  0  0
  -17.2336   33.6788   -5.5511 N   0  0  0  0  0  0  0  0  0  0  0  0
  -24.4613   30.5162   -3.8720 H   0  0  0  0  0  0  0  0  0  0  0  0
  -24.9621   33.0855   -7.4726 H   0  0  0  0  0  0  0  0  0  0  0  0
  -26.0811   31.3605   -1.9073 H   0  0  0  0  0  0  0  0  0  0  0  0
  -24.2336   36.2905   -0.9848 H   0  0  0  0  0  0  0  0  0  0  0  0
  -24.8680   35.3071    0.3166 H   0  0  0  0  0  0  0  0  0  0  0  0
  -25.8553   35.6380   -1.1319 H   0  0  0  0  0  0  0  0  0  0  0  0
  -22.8250   33.2514   -2.5334 H   0  0  0  0  0  0  0  0  0  0  0  0
  -22.9143   36.3677   -2.3549 H   0  0  0  0  0  0  0  0  0  0  0  0
  -20.6209   36.3952   -2.9659 H   0  0  0  0  0  0  0  0  0  0  0  0
  -21.0019   33.3611   -2.4710 H   0  0  0  0  0  0  0  0  0  0  0  0
  -19.7033   34.5004   -0.6907 H   0  0  0  0  0  0  0  0  0  0  0  0
  -18.4223   34.7932   -1.8914 H   0  0  0  0  0  0  0  0  0  0  0  0
  -18.9049   33.1300   -1.4860 H   0  0  0  0  0  0  0  0  0  0  0  0
  -27.0676   35.5121   -5.6796 H   0  0  0  0  0  0  0  0  0  0  0  0
  -28.1668   34.4078   -8.8023 H   0  0  0  0  0  0  0  0  0  0  0  0
  -28.6005   35.2789   -7.3122 H   0  0  0  0  0  0  0  0  0  0  0  0
  -28.0458   33.5802   -7.2314 H   0  0  0  0  0  0  0  0  0  0  0  0
  -25.7004   37.2196   -6.4678 H   0  0  0  0  0  0  0  0  0  0  0  0
  -23.8416   37.4291   -4.8735 H   0  0  0  0  0  0  0  0  0  0  0  0
  -24.0718   35.7378   -4.4055 H   0  0  0  0  0  0  0  0  0  0  0  0
  -25.3606   36.9366   -4.1457 H   0  0  0  0  0  0  0  0  0  0  0  0
  -24.4531   36.7356   -8.1745 H   0  0  0  0  0  0  0  0  0  0  0  0
  -23.9784   35.1255   -7.5998 H   0  0  0  0  0  0  0  0  0  0  0  0
  -22.3887   36.5087   -5.9555 H   0  0  0  0  0  0  0  0  0  0  0  0
  -22.1182   40.0178   -7.0736 H   0  0  0  0  0  0  0  0  0  0  0  0
  -20.8854   38.7619   -7.1580 H   0  0  0  0  0  0  0  0  0  0  0  0
  -21.8469   38.9530   -5.6716 H   0  0  0  0  0  0  0  0  0  0  0  0
  -20.8455   37.0868   -8.0336 H   0  0  0  0  0  0  0  0  0  0  0  0
  -22.2262   36.8345  -11.1775 H   0  0  0  0  0  0  0  0  0  0  0  0
  -20.6548   36.9178  -10.3492 H   0  0  0  0  0  0  0  0  0  0  0  0
  -21.9580   38.0631   -9.9168 H   0  0  0  0  0  0  0  0  0  0  0  0
  -21.7194   34.2851   -7.6388 H   0  0  0  0  0  0  0  0  0  0  0  0
  -19.4035   33.6421   -8.3205 H   0  0  0  0  0  0  0  0  0  0  0  0
  -19.0966   35.3574   -8.6761 H   0  0  0  0  0  0  0  0  0  0  0  0
  -20.3313   34.4584   -9.5921 H   0  0  0  0  0  0  0  0  0  0  0  0
  -19.5718   35.7251   -5.9448 H   0  0  0  0  0  0  0  0  0  0  0  0
  -21.8138   32.8470   -6.7182 H   0  0  0  0  0  0  0  0  0  0  0  0
  -22.1227   32.6307   -5.0253 H   0  0  0  0  0  0  0  0  0  0  0  0
  -20.7687   31.7950   -5.8345 H   0  0  0  0  0  0  0  0  0  0  0  0
  -18.9948   34.5987   -4.1967 H   0  0  0  0  0  0  0  0  0  0  0  0
  -16.3679   33.6327   -6.0841 H   0  0  0  0  0  0  0  0  0  0  0  0
  -17.8040   34.4858   -5.6664 H   0  0  0  0  0  0  0  0  0  0  0  0
  1  2  2  0  0  0  0
  2  3  1  0  0  0  0
  2 18  1  0  0  0  0
  3  4  2  0  0  0  0
  3  8  1  0  0  0  0
  4  5  1  0  0  0  0
  4 41  1  0  0  0  0
  5  6  2  0  0  0  0
  5  7  1  0  0  0  0
  7 18  2  0  0  0  0
  7 42  1  0  0  0  0
  8  9  1  0  0  0  0
  8 43  1  0  0  0  0
  9 10  2  0  0  0  0
  9 11  1  0  0  0  0
 11 12  1  0  0  0  0
 11 13  2  0  0  0  0
 12 44  1  0  0  0  0
 12 45  1  0  0  0  0
 12 46  1  0  0  0  0
 13 14  1  0  0  0  0
 13 47  1  0  0  0  0
 14 15  2  0  0  0  0
 14 48  1  0  0  0  0
 15 16  1  0  0  0  0
 15 49  1  0  0  0  0
 16 17  1  0  0  0  0
 16 36  1  0  0  0  0
 16 50  1  1  0  0  0
 17 51  1  0  0  0  0
 17 52  1  0  0  0  0
 17 53  1  0  0  0  0
 18 19  1  0  0  0  0
 19 20  1  0  0  0  0
 19 22  1  0  0  0  0
 19 54  1  1  0  0  0
 20 21  1  0  0  0  0
 21 55  1  0  0  0  0
 21 56  1  0  0  0  0
 21 57  1  0  0  0  0
 22 23  1  0  0  0  0
 22 24  1  0  0  0  0
 22 58  1  6  0  0  0
 23 59  1  0  0  0  0
 23 60  1  0  0  0  0
 23 61  1  0  0  0  0
 24 25  1  0  0  0  0
 24 62  1  0  0  0  0
 24 63  1  0  0  0  0
 25 26  1  0  0  0  0
 25 28  1  0  0  0  0
 25 64  1  1  0  0  0
 26 27  1  0  0  0  0
 27 65  1  0  0  0  0
 27 66  1  0  0  0  0
 27 67  1  0  0  0  0
 28 29  1  0  0  0  0
 28 31  1  0  0  0  0
 28 68  1  6  0  0  0
 29 30  1  0  0  0  0
 30 69  1  0  0  0  0
 30 70  1  0  0  0  0
 30 71  1  0  0  0  0
 31 32  1  0  0  0  0
 31 33  1  0  0  0  0
 31 72  1  6  0  0  0
 32 73  1  0  0  0  0
 32 74  1  0  0  0  0
 32 75  1  0  0  0  0
 33 34  2  0  0  0  0
 33 76  1  0  0  0  0
 34 35  1  0  0  0  0
 34 36  1  0  0  0  0
 35 77  1  0  0  0  0
 35 78  1  0  0  0  0
 35 79  1  0  0  0  0
 36 37  1  0  0  0  0
 36 80  1  6  0  0  0
 37 38  1  0  0  0  0
 38 39  2  0  0  0  0
 38 40  1  0  0  0  0
 40 81  1  0  0  0  0
 40 82  1  0  0  0  0
M  END
$$$$
