BC6
 OpenBabel04051919503D

 78 79  0  0  1  0  0  0  0  0999 V2000
   40.9805   -5.2310   41.8168 O   0  0  0  0  0  0  0  0  0  0  0  0
   41.0352   -5.7263   40.6855 C   0  0  0  0  0  0  0  0  0  0  0  0
   41.4463   -7.1561   40.5274 C   0  0  0  0  0  0  0  0  0  0  0  0
   42.7740   -7.5150   41.1206 C   0  0  0  0  0  0  0  0  0  0  0  0
   40.5596   -8.0142   39.9894 C   0  0  0  0  0  0  0  0  0  0  0  0
   40.7700   -9.4860   39.7663 C   0  0  0  0  0  0  0  0  0  0  0  0
   40.0359   -9.9477   38.5041 C   0  0  0  0  0  0  0  0  0  0  0  0
   38.5012  -10.0545   38.6493 C   0  0  2  0  0  0  0  0  0  0  0  0
   38.1199  -11.0476   39.7585 C   0  0  0  0  0  0  0  0  0  0  0  0
   40.6265   -5.0137   39.6001 N   0  0  0  0  0  0  0  0  0  0  0  0
   40.8600   -5.2467   38.2402 C   0  0  0  0  0  0  0  0  0  0  0  0
   39.8683   -4.8720   37.3384 C   0  0  0  0  0  0  0  0  0  0  0  0
   40.0522   -5.1115   35.9799 C   0  0  0  0  0  0  0  0  0  0  0  0
   39.0153   -4.8212   35.1453 O   0  0  0  0  0  0  0  0  0  0  0  0
   41.2431   -5.6695   35.5065 C   0  0  0  0  0  0  0  0  0  0  0  0
   42.2572   -6.0248   36.4112 C   0  0  0  0  0  0  0  0  0  0  0  0
   42.0560   -5.7973   37.7768 C   0  0  0  0  0  0  0  0  0  0  0  0
   43.5379   -6.6918   35.9469 C   0  0  0  0  0  0  0  0  0  0  0  0
   43.4809   -8.2394   35.8373 C   0  0  1  0  0  0  0  0  0  0  0  0
   43.3240   -8.8986   37.2065 C   0  0  0  0  0  0  0  0  0  0  0  0
   42.3884   -8.6763   34.8455 C   0  0  0  0  0  0  0  0  0  0  0  0
   42.1493  -10.1877   34.7147 C   0  0  2  0  0  0  0  0  0  0  0  0
   43.3915  -10.8242   34.3686 O   0  0  0  0  0  0  0  0  0  0  0  0
   43.3989  -12.2097   34.7020 C   0  0  0  0  0  0  0  0  0  0  0  0
   41.0975  -10.4916   33.6204 C   0  0  2  0  0  0  0  0  0  0  0  0
   41.5909  -10.0296   32.3530 O   0  0  0  0  0  0  0  0  0  0  0  0
   39.7056   -9.8818   33.9009 C   0  0  1  0  0  0  0  0  0  0  0  0
   38.7438  -10.2628   32.7788 C   0  0  0  0  0  0  0  0  0  0  0  0
   39.1142  -10.3936   35.1943 C   0  0  0  0  0  0  0  0  0  0  0  0
   38.3748   -9.7227   36.1023 C   0  0  0  0  0  0  0  0  0  0  0  0
   38.0305   -8.2610   36.0111 C   0  0  0  0  0  0  0  0  0  0  0  0
   37.8334  -10.4805   37.3146 C   0  0  2  0  0  0  0  0  0  0  0  0
   36.4130  -10.2507   37.4292 O   0  0  0  0  0  0  0  0  0  0  0  0
   35.6281  -11.0512   36.6748 C   0  0  0  0  0  0  0  0  0  0  0  0
   35.9966  -11.9349   35.9180 O   0  0  0  0  0  0  0  0  0  0  0  0
   34.3246  -10.7479   36.8684 N   0  0  0  0  0  0  0  0  0  0  0  0
   43.0152   -8.5703   41.0031 H   0  0  0  0  0  0  0  0  0  0  0  0
   42.7737   -7.2898   42.1865 H   0  0  0  0  0  0  0  0  0  0  0  0
   43.5667   -6.9361   40.6353 H   0  0  0  0  0  0  0  0  0  0  0  0
   39.5971   -7.6185   39.6671 H   0  0  0  0  0  0  0  0  0  0  0  0
   40.4502  -10.0479   40.6457 H   0  0  0  0  0  0  0  0  0  0  0  0
   41.8318   -9.7136   39.6282 H   0  0  0  0  0  0  0  0  0  0  0  0
   40.4442  -10.9116   38.1754 H   0  0  0  0  0  0  0  0  0  0  0  0
   40.2727   -9.2280   37.7110 H   0  0  0  0  0  0  0  0  0  0  0  0
   38.0873   -9.0818   38.9419 H   0  0  0  0  0  0  0  0  0  0  0  0
   37.0344  -11.1440   39.8500 H   0  0  0  0  0  0  0  0  0  0  0  0
   38.4864  -10.7228   40.7364 H   0  0  0  0  0  0  0  0  0  0  0  0
   38.5379  -12.0399   39.5555 H   0  0  0  0  0  0  0  0  0  0  0  0
   40.0958   -4.1846   39.8418 H   0  0  0  0  0  0  0  0  0  0  0  0
   38.9273   -4.4600   37.6790 H   0  0  0  0  0  0  0  0  0  0  0  0
   39.2651   -5.0673   34.2359 H   0  0  0  0  0  0  0  0  0  0  0  0
   41.3707   -5.8625   34.4476 H   0  0  0  0  0  0  0  0  0  0  0  0
   42.8611   -6.0231   38.4718 H   0  0  0  0  0  0  0  0  0  0  0  0
   44.3485   -6.4127   36.6327 H   0  0  0  0  0  0  0  0  0  0  0  0
   43.8217   -6.2656   34.9752 H   0  0  0  0  0  0  0  0  0  0  0  0
   44.4492   -8.5665   35.4375 H   0  0  0  0  0  0  0  0  0  0  0  0
   43.2991   -9.9897   37.1358 H   0  0  0  0  0  0  0  0  0  0  0  0
   42.4004   -8.5769   37.6838 H   0  0  0  0  0  0  0  0  0  0  0  0
   44.1556   -8.6418   37.8686 H   0  0  0  0  0  0  0  0  0  0  0  0
   42.6485   -8.2540   33.8664 H   0  0  0  0  0  0  0  0  0  0  0  0
   41.4396   -8.2317   35.1517 H   0  0  0  0  0  0  0  0  0  0  0  0
   41.7961  -10.5777   35.6759 H   0  0  0  0  0  0  0  0  0  0  0  0
   44.3639  -12.6289   34.4095 H   0  0  0  0  0  0  0  0  0  0  0  0
   42.6170  -12.7521   34.1643 H   0  0  0  0  0  0  0  0  0  0  0  0
   43.2675  -12.3430   35.7802 H   0  0  0  0  0  0  0  0  0  0  0  0
   40.9852  -11.5749   33.5123 H   0  0  0  0  0  0  0  0  0  0  0  0
   42.4926  -10.3978   32.2750 H   0  0  0  0  0  0  0  0  0  0  0  0
   39.7930   -8.7912   33.8940 H   0  0  0  0  0  0  0  0  0  0  0  0
   37.7580   -9.8175   32.9464 H   0  0  0  0  0  0  0  0  0  0  0  0
   38.6248  -11.3508   32.7276 H   0  0  0  0  0  0  0  0  0  0  0  0
   39.1109   -9.9126   31.8102 H   0  0  0  0  0  0  0  0  0  0  0  0
   39.2840  -11.4578   35.3697 H   0  0  0  0  0  0  0  0  0  0  0  0
   38.4569   -7.7774   35.1302 H   0  0  0  0  0  0  0  0  0  0  0  0
   38.4053   -7.7216   36.8864 H   0  0  0  0  0  0  0  0  0  0  0  0
   36.9469   -8.1241   35.9568 H   0  0  0  0  0  0  0  0  0  0  0  0
   38.0133  -11.5585   37.1968 H   0  0  0  0  0  0  0  0  0  0  0  0
   33.6284  -11.2759   36.3643 H   0  0  0  0  0  0  0  0  0  0  0  0
   34.0556  -10.0194   37.5094 H   0  0  0  0  0  0  0  0  0  0  0  0
  1  2  2  0  0  0  0
  2  3  1  0  0  0  0
  2 10  1  0  0  0  0
  3  4  1  0  0  0  0
  3  5  2  0  0  0  0
  4 37  1  0  0  0  0
  4 38  1  0  0  0  0
  4 39  1  0  0  0  0
  5  6  1  0  0  0  0
  5 40  1  0  0  0  0
  6  7  1  0  0  0  0
  6 41  1  0  0  0  0
  6 42  1  0  0  0  0
  7  8  1  0  0  0  0
  7 43  1  0  0  0  0
  7 44  1  0  0  0  0
  8  9  1  0  0  0  0
  8 32  1  0  0  0  0
  8 45  1  1  0  0  0
  9 46  1  0  0  0  0
  9 47  1  0  0  0  0
  9 48  1  0  0  0  0
 10 11  1  0  0  0  0
 10 49  1  0  0  0  0
 11 12  2  0  0  0  0
 11 17  1  0  0  0  0
 12 13  1  0  0  0  0
 12 50  1  0  0  0  0
 13 14  1  0  0  0  0
 13 15  2  0  0  0  0
 14 51  1  0  0  0  0
 15 16  1  0  0  0  0
 15 52  1  0  0  0  0
 16 17  2  0  0  0  0
 16 18  1  0  0  0  0
 17 53  1  0  0  0  0
 18 19  1  0  0  0  0
 18 54  1  0  0  0  0
 18 55  1  0  0  0  0
 19 20  1  0  0  0  0
 19 21  1  0  0  0  0
 19 56  1  6  0  0  0
 20 57  1  0  0  0  0
 20 58  1  0  0  0  0
 20 59  1  0  0  0  0
 21 22  1  0  0  0  0
 21 60  1  0  0  0  0
 21 61  1  0  0  0  0
 22 23  1  0  0  0  0
 22 25  1  0  0  0  0
 22 62  1  1  0  0  0
 23 24  1  0  0  0  0
 24 63  1  0  0  0  0
 24 64  1  0  0  0  0
 24 65  1  0  0  0  0
 25 26  1  0  0  0  0
 25 27  1  0  0  0  0
 25 66  1  6  0  0  0
 26 67  1  0  0  0  0
 27 28  1  0  0  0  0
 27 29  1  0  0  0  0
 27 68  1  1  0  0  0
 28 69  1  0  0  0  0
 28 70  1  0  0  0  0
 28 71  1  0  0  0  0
 29 30  2  0  0  0  0
 29 72  1  0  0  0  0
 30 31  1  0  0  0  0
 30 32  1  0  0  0  0
 31 73  1  0  0  0  0
 31 74  1  0  0  0  0
 31 75  1  0  0  0  0
 32 33  1  0  0  0  0
 32 76  1  6  0  0  0
 33 34  1  0  0  0  0
 34 35  2  0  0  0  0
 34 36  1  0  0  0  0
 36 77  1  0  0  0  0
 36 78  1  0  0  0  0
M  END
$$$$
