BET
 OpenBabel04051917243D

 19 18  0  0  0  0  0  0  0  0999 V2000
   10.2122   10.7204   16.6124 N   0  3  0  0  0  0  0  0  0  0  0  0
   10.2715    9.9681   17.9670 C   0  0  0  0  0  0  0  0  0  0  0  0
   10.7730    8.5106   17.9954 C   0  0  0  0  0  0  0  0  0  0  0  0
   10.9630    8.0809   19.1726 O   0  0  0  0  0  0  0  0  0  0  0  0
   10.9338    7.9380   16.8950 O   0  0  0  0  0  0  0  0  0  0  0  0
   11.5721   10.6501   15.9522 C   0  0  0  0  0  0  0  0  0  0  0  0
    9.1667   10.0413   15.7579 C   0  0  0  0  0  0  0  0  0  0  0  0
    9.8523   12.1399   16.8801 C   0  0  0  0  0  0  0  0  0  0  0  0
    9.2493    9.9919   18.3660 H   0  0  0  0  0  0  0  0  0  0  0  0
   10.9031   10.5837   18.6198 H   0  0  0  0  0  0  0  0  0  0  0  0
   11.4909   11.1590   14.9875 H   0  0  0  0  0  0  0  0  0  0  0  0
   11.8873    9.6254   15.7919 H   0  0  0  0  0  0  0  0  0  0  0  0
   12.2878   11.1724   16.5945 H   0  0  0  0  0  0  0  0  0  0  0  0
    8.2123   10.0787   16.2944 H   0  0  0  0  0  0  0  0  0  0  0  0
    9.4430    9.0106   15.5514 H   0  0  0  0  0  0  0  0  0  0  0  0
    9.0930   10.6009   14.8233 H   0  0  0  0  0  0  0  0  0  0  0  0
   10.6380   12.5724   17.5151 H   0  0  0  0  0  0  0  0  0  0  0  0
    8.8908   12.1603   17.3950 H   0  0  0  0  0  0  0  0  0  0  0  0
    9.8057   12.6559   15.9221 H   0  0  0  0  0  0  0  0  0  0  0  0
  1  2  1  0  0  0  0
  1  6  1  0  0  0  0
  1  7  1  0  0  0  0
  1  8  1  0  0  0  0
  2  3  1  0  0  0  0
  2  9  1  0  0  0  0
  2 10  1  0  0  0  0
  3  4  2  0  0  0  0
  3  5  1  0  0  0  0
  6 11  1  0  0  0  0
  6 12  1  0  0  0  0
  6 13  1  0  0  0  0
  7 14  1  0  0  0  0
  7 15  1  0  0  0  0
  7 16  1  0  0  0  0
  8 17  1  0  0  0  0
  8 18  1  0  0  0  0
  8 19  1  0  0  0  0
M  CHG  1   1   1
M  END
$$$$
