BEU
 OpenBabel04051918263D

 32 32  0  0  1  0  0  0  0  0999 V2000
    3.8717  -11.5859    1.6232 C   0  0  0  0  0  0  0  0  0  0  0  0
    3.7007  -12.5141    0.5659 O   0  0  0  0  0  0  0  0  0  0  0  0
    5.1911  -11.8739    2.2724 C   0  0  0  0  0  0  0  0  0  0  0  0
    5.2294  -12.5672    3.4220 C   0  0  0  0  0  0  0  0  0  0  0  0
    6.5076  -12.8953    4.1106 C   0  0  1  0  0  0  0  0  0  0  0  0
    6.9894  -14.1986    3.5597 N   0  3  0  0  0  0  0  0  0  0  0  0
    7.6400  -11.8242    3.9510 C   0  0  2  0  0  0  0  0  0  0  0  0
    8.0025  -11.2429    5.2524 N   0  0  0  0  0  0  0  0  0  0  0  0
    7.0559  -10.5985    6.0216 C   0  0  0  0  0  0  0  0  0  0  0  0
    5.8655  -10.5847    5.6986 O   0  0  0  0  0  0  0  0  0  0  0  0
    7.5707  -10.0026    7.3005 C   0  0  0  0  0  0  0  0  0  0  0  0
    7.3116  -10.7464    2.8851 C   0  0  1  0  0  0  0  0  0  0  0  0
    8.5605  -10.2205    2.4082 O   0  0  0  0  0  0  0  0  0  0  0  0
    6.4843  -11.3284    1.7135 C   0  0  2  0  0  0  0  0  0  0  0  0
    6.2782  -10.2954    0.7664 O   0  0  0  0  0  0  0  0  0  0  0  0
    3.0493  -11.7443    2.3317 H   0  0  0  0  0  0  0  0  0  0  0  0
    3.7908  -10.5568    1.2660 H   0  0  0  0  0  0  0  0  0  0  0  0
    4.3515  -12.3264   -0.1289 H   0  0  0  0  0  0  0  0  0  0  0  0
    4.3034  -12.8917    3.9001 H   0  0  0  0  0  0  0  0  0  0  0  0
    6.3268  -13.0982    5.1701 H   0  0  0  0  0  0  0  0  0  0  0  0
    7.8740  -14.4955    3.9886 H   0  0  0  0  0  0  0  0  0  0  0  0
    6.2904  -14.9324    3.7390 H   0  0  0  0  0  0  0  0  0  0  0  0
    8.5606  -12.3256    3.6340 H   0  0  0  0  0  0  0  0  0  0  0  0
    8.9802  -11.1602    5.5128 H   0  0  0  0  0  0  0  0  0  0  0  0
    6.7217   -9.5608    7.8488 H   0  0  0  0  0  0  0  0  0  0  0  0
    8.3019   -9.2368    7.0989 H   0  0  0  0  0  0  0  0  0  0  0  0
    7.9963  -10.7997    7.9211 H   0  0  0  0  0  0  0  0  0  0  0  0
    6.7619   -9.9022    3.3276 H   0  0  0  0  0  0  0  0  0  0  0  0
    8.3314   -9.5316    1.7446 H   0  0  0  0  0  0  0  0  0  0  0  0
    7.0511  -12.1262    1.2128 H   0  0  0  0  0  0  0  0  0  0  0  0
    5.7921  -10.6526    0.0001 H   0  0  0  0  0  0  0  0  0  0  0  0
    7.1166  -14.1575    2.5391 H   0  0  0  0  0  0  0  0  0  0  0  0
  1  2  1  0  0  0  0
  1  3  1  0  0  0  0
  1 16  1  0  0  0  0
  1 17  1  0  0  0  0
  2 18  1  0  0  0  0
  3  4  2  0  0  0  0
  3 14  1  0  0  0  0
  4  5  1  0  0  0  0
  4 19  1  0  0  0  0
  5  6  1  0  0  0  0
  5  7  1  0  0  0  0
  5 20  1  1  0  0  0
  6 21  1  0  0  0  0
  6 22  1  0  0  0  0
  6 32  1  0  0  0  0
  7  8  1  0  0  0  0
  7 12  1  0  0  0  0
  7 23  1  6  0  0  0
  8  9  1  0  0  0  0
  8 24  1  0  0  0  0
  9 10  2  0  0  0  0
  9 11  1  0  0  0  0
 11 25  1  0  0  0  0
 11 26  1  0  0  0  0
 11 27  1  0  0  0  0
 12 13  1  0  0  0  0
 12 14  1  0  0  0  0
 12 28  1  1  0  0  0
 13 29  1  0  0  0  0
 14 15  1  0  0  0  0
 14 30  1  6  0  0  0
 15 31  1  0  0  0  0
M  CHG  1   6   1
M  END
$$$$
