BG6
 OpenBabel04051920033D

 27 27  0  0  1  0  0  0  0  0999 V2000
   12.6920   -5.7007   12.5781 C   0  0  2  0  0  0  0  0  0  0  0  0
   11.5340   -6.5390   12.0162 C   0  0  1  0  0  0  0  0  0  0  0  0
   12.8803   -4.5476   11.7626 O   0  0  0  0  0  0  0  0  0  0  0  0
   13.9075   -6.4093   12.6128 O   0  0  0  0  0  0  0  0  0  0  0  0
   11.4332   -7.8654   12.7521 C   0  0  2  0  0  0  0  0  0  0  0  0
   10.2949   -5.8263   12.1502 O   0  0  0  0  0  0  0  0  0  0  0  0
   12.7712   -8.5998   12.7684 C   0  0  1  0  0  0  0  0  0  0  0  0
   10.3782   -8.6469   12.1523 O   0  0  0  0  0  0  0  0  0  0  0  0
   13.8595   -7.6476   13.3513 C   0  0  1  0  0  0  0  0  0  0  0  0
   12.5642   -9.7813   13.5691 O   0  0  0  0  0  0  0  0  0  0  0  0
   15.2500   -8.2862   13.3372 C   0  0  0  0  0  0  0  0  0  0  0  0
   15.6135   -8.4288   11.9842 O   0  0  0  0  0  0  0  0  0  0  0  0
   16.9795   -9.2482   11.6491 P   0  0  0  0  0  0  0  0  0  0  0  0
   17.2170   -8.9264   10.1828 O   0  0  0  0  0  0  0  0  0  0  0  0
   18.0221   -8.6562   12.6041 O   0  0  0  0  0  0  0  0  0  0  0  0
   16.6295  -10.6907   11.9409 O   0  0  0  0  0  0  0  0  0  0  0  0
   12.4498   -5.3476   13.5826 H   0  0  0  0  0  0  0  0  0  0  0  0
   11.6794   -6.7228   10.9402 H   0  0  0  0  0  0  0  0  0  0  0  0
   13.1243   -4.9175   10.8970 H   0  0  0  0  0  0  0  0  0  0  0  0
   11.0845   -7.6993   13.7843 H   0  0  0  0  0  0  0  0  0  0  0  0
    9.6287   -6.4416   11.7925 H   0  0  0  0  0  0  0  0  0  0  0  0
   13.0318   -8.9199   11.7575 H   0  0  0  0  0  0  0  0  0  0  0  0
   10.4444   -9.5299   12.5592 H   0  0  0  0  0  0  0  0  0  0  0  0
   13.6069   -7.4031   14.3905 H   0  0  0  0  0  0  0  0  0  0  0  0
   12.5731   -9.5213   14.5055 H   0  0  0  0  0  0  0  0  0  0  0  0
   15.2431   -9.2515   13.8551 H   0  0  0  0  0  0  0  0  0  0  0  0
   15.9598   -7.6201   13.8381 H   0  0  0  0  0  0  0  0  0  0  0  0
  1  2  1  0  0  0  0
  1  3  1  0  0  0  0
  1  4  1  0  0  0  0
  1 17  1  1  0  0  0
  2  5  1  0  0  0  0
  2  6  1  0  0  0  0
  2 18  1  6  0  0  0
  3 19  1  0  0  0  0
  4  9  1  0  0  0  0
  5  7  1  0  0  0  0
  5  8  1  0  0  0  0
  5 20  1  1  0  0  0
  6 21  1  0  0  0  0
  7  9  1  0  0  0  0
  7 10  1  0  0  0  0
  7 22  1  6  0  0  0
  8 23  1  0  0  0  0
  9 11  1  0  0  0  0
  9 24  1  1  0  0  0
 10 25  1  0  0  0  0
 11 12  1  0  0  0  0
 11 26  1  0  0  0  0
 11 27  1  0  0  0  0
 12 13  1  0  0  0  0
 13 14  2  0  0  0  0
 13 15  1  0  0  0  0
 13 16  1  0  0  0  0
M  END
$$$$
