BI7
 OpenBabel04051918273D

 60 64  0  0  1  0  0  0  0  0999 V2000
   -3.3778   10.1755   22.4064 O   0  0  0  0  0  0  0  0  0  0  0  0
   -3.9886   11.1580   22.0256 C   0  0  0  0  0  0  0  0  0  0  0  0
   -5.2045   11.1264   21.4123 N   0  0  0  0  0  0  0  0  0  0  0  0
   -5.9384    9.8929   21.1582 C   0  0  0  0  0  0  0  0  0  0  0  0
   -5.5379    9.2231   19.8383 C   0  0  0  0  0  0  0  0  0  0  0  0
   -6.3095    7.9094   19.6689 C   0  0  0  0  0  0  0  0  0  0  0  0
   -6.0443    7.1829   18.3422 N   0  3  0  0  0  0  0  0  0  0  0  0
   -4.5702    6.8293   18.1643 C   0  0  0  0  0  0  0  0  0  0  0  0
   -6.8406    5.8655   18.3592 C   0  0  0  0  0  0  0  0  0  0  0  0
   -6.5244    7.9973   17.1436 C   0  0  0  0  0  0  0  0  0  0  0  0
   -3.5373   12.5888   22.1766 C   0  0  2  0  0  0  0  0  0  0  0  0
   -3.2731   13.0332   23.6149 C   0  0  1  0  0  0  0  0  0  0  0  0
   -4.6531   13.4442   24.1162 N   0  3  1  0  0  0  0  0  0  0  0  0
   -4.6673   14.4772   25.2107 C   0  0  0  0  0  0  0  0  0  0  0  0
   -4.7308   15.8121   24.4994 C   0  0  0  0  0  0  0  0  0  0  0  0
   -5.1353   15.5401   23.0568 C   0  0  0  0  0  0  0  0  0  0  0  0
   -5.3817   14.0405   22.9300 C   0  0  1  0  0  0  0  0  0  0  0  0
   -4.7450   13.3988   21.6997 C   0  0  2  0  0  0  0  0  0  0  0  0
   -5.6916   12.3698   21.1525 C   0  0  0  0  0  0  0  0  0  0  0  0
   -6.7732   12.6321   20.6543 O   0  0  0  0  0  0  0  0  0  0  0  0
   -2.5316   12.0626   24.4710 C   0  0  0  0  0  0  0  0  0  0  0  0
   -3.0099   11.1419   25.4343 C   0  0  0  0  0  0  0  0  0  0  0  0
   -1.2069   11.9706   24.3403 N   0  0  0  0  0  0  0  0  0  0  0  0
   -0.8161   10.9374   25.1702 O   0  0  0  0  0  0  0  0  0  0  0  0
   -1.8999   10.4191   25.8281 C   0  0  0  0  0  0  0  0  0  0  0  0
   -1.8296    9.2971   26.7201 C   0  0  0  0  0  0  0  0  0  0  0  0
   -2.7060    8.9658   27.7396 C   0  0  0  0  0  0  0  0  0  0  0  0
   -2.3508    7.7405   28.3844 C   0  0  0  0  0  0  0  0  0  0  0  0
   -0.5767    8.1332   26.5735 S   0  0  0  0  0  0  0  0  0  0  0  0
   -1.2259    7.1973   27.8223 C   0  0  0  0  0  0  0  0  0  0  0  0
   -0.4743    5.7183   28.2595 Cl  0  0  0  0  0  0  0  0  0  0  0  0
   -7.0105   10.1185   21.1504 H   0  0  0  0  0  0  0  0  0  0  0  0
   -5.7449    9.2073   21.9917 H   0  0  0  0  0  0  0  0  0  0  0  0
   -4.4583    9.0375   19.8445 H   0  0  0  0  0  0  0  0  0  0  0  0
   -5.7423    9.9142   19.0145 H   0  0  0  0  0  0  0  0  0  0  0  0
   -7.3900    8.0919   19.7168 H   0  0  0  0  0  0  0  0  0  0  0  0
   -6.0424    7.2106   20.4712 H   0  0  0  0  0  0  0  0  0  0  0  0
   -4.4641    6.2419   17.2472 H   0  0  0  0  0  0  0  0  0  0  0  0
   -4.2484    6.2472   19.0326 H   0  0  0  0  0  0  0  0  0  0  0  0
   -3.9935    7.7533   18.0791 H   0  0  0  0  0  0  0  0  0  0  0  0
   -7.9014    6.1073   18.4753 H   0  0  0  0  0  0  0  0  0  0  0  0
   -6.4892    5.2625   19.2018 H   0  0  0  0  0  0  0  0  0  0  0  0
   -6.6672    5.3419   17.4146 H   0  0  0  0  0  0  0  0  0  0  0  0
   -5.9198    8.9038   17.0672 H   0  0  0  0  0  0  0  0  0  0  0  0
   -7.5789    8.2450   17.2956 H   0  0  0  0  0  0  0  0  0  0  0  0
   -6.3994    7.3916   16.2410 H   0  0  0  0  0  0  0  0  0  0  0  0
   -2.6638   12.7405   21.5325 H   0  0  0  0  0  0  0  0  0  0  0  0
   -2.6961   13.9689   23.5753 H   0  0  0  0  0  0  0  0  0  0  0  0
   -3.7880   14.3516   25.8487 H   0  0  0  0  0  0  0  0  0  0  0  0
   -5.5751   14.2938   25.7947 H   0  0  0  0  0  0  0  0  0  0  0  0
   -3.7516   16.3039   24.5259 H   0  0  0  0  0  0  0  0  0  0  0  0
   -5.4368   16.4854   24.9971 H   0  0  0  0  0  0  0  0  0  0  0  0
   -4.3430   15.8847   22.3824 H   0  0  0  0  0  0  0  0  0  0  0  0
   -6.0384   16.0996   22.7883 H   0  0  0  0  0  0  0  0  0  0  0  0
   -6.4439   13.8082   23.0699 H   0  0  0  0  0  0  0  0  0  0  0  0
   -4.4889   14.1112   20.9092 H   0  0  0  0  0  0  0  0  0  0  0  0
   -4.0218   10.9562   25.7592 H   0  0  0  0  0  0  0  0  0  0  0  0
   -3.5621    9.5635   28.0268 H   0  0  0  0  0  0  0  0  0  0  0  0
   -2.8937    7.2878   29.2053 H   0  0  0  0  0  0  0  0  0  0  0  0
   -5.1523   12.6135   24.4600 H   0  0  0  0  0  0  0  0  0  0  0  0
  1  2  2  0  0  0  0
  2  3  1  0  0  0  0
  2 11  1  0  0  0  0
  3  4  1  0  0  0  0
  3 19  1  0  0  0  0
  4  5  1  0  0  0  0
  4 32  1  0  0  0  0
  4 33  1  0  0  0  0
  5  6  1  0  0  0  0
  5 34  1  0  0  0  0
  5 35  1  0  0  0  0
  6  7  1  0  0  0  0
  6 36  1  0  0  0  0
  6 37  1  0  0  0  0
  7  8  1  0  0  0  0
  7  9  1  0  0  0  0
  7 10  1  0  0  0  0
  8 38  1  0  0  0  0
  8 39  1  0  0  0  0
  8 40  1  0  0  0  0
  9 41  1  0  0  0  0
  9 42  1  0  0  0  0
  9 43  1  0  0  0  0
 10 44  1  0  0  0  0
 10 45  1  0  0  0  0
 10 46  1  0  0  0  0
 11 12  1  0  0  0  0
 11 18  1  0  0  0  0
 11 47  1  6  0  0  0
 12 13  1  0  0  0  0
 12 21  1  0  0  0  0
 12 48  1  6  0  0  0
 13 14  1  0  0  0  0
 13 17  1  0  0  0  0
 13 60  1  1  0  0  0
 14 15  1  0  0  0  0
 14 49  1  0  0  0  0
 14 50  1  0  0  0  0
 15 16  1  0  0  0  0
 15 51  1  0  0  0  0
 15 52  1  0  0  0  0
 16 17  1  0  0  0  0
 16 53  1  0  0  0  0
 16 54  1  0  0  0  0
 17 18  1  0  0  0  0
 17 55  1  1  0  0  0
 18 19  1  0  0  0  0
 18 56  1  6  0  0  0
 19 20  2  0  0  0  0
 21 22  1  0  0  0  0
 21 23  2  0  0  0  0
 22 25  2  0  0  0  0
 22 57  1  0  0  0  0
 23 24  1  0  0  0  0
 24 25  1  0  0  0  0
 25 26  1  0  0  0  0
 26 27  2  0  0  0  0
 26 29  1  0  0  0  0
 27 28  1  0  0  0  0
 27 58  1  0  0  0  0
 28 30  2  0  0  0  0
 28 59  1  0  0  0  0
 29 30  1  0  0  0  0
 30 31  1  0  0  0  0
M  CHG  2   7   1  13   1
M  END
$$$$
