BID
 OpenBabel04051918003D

118120  0  0  1  0  0  0  0  0999 V2000
   14.2804  -12.9123   37.1706 O   0  0  0  0  0  0  0  0  0  0  0  0
   14.1757  -13.5724   36.1430 C   0  0  0  0  0  0  0  0  0  0  0  0
   14.9131  -13.2092   34.8635 C   0  0  1  0  0  0  0  0  0  0  0  0
   14.3138  -11.9152   34.3200 C   0  0  0  0  0  0  0  0  0  0  0  0
   16.4226  -13.1205   35.1490 C   0  0  1  0  0  0  0  0  0  0  0  0
   16.7376  -11.9906   35.9737 O   0  0  0  0  0  0  0  0  0  0  0  0
   16.9407  -14.4161   35.8063 C   0  0  0  0  0  0  0  0  0  0  0  0
   18.3730  -14.4084   35.9859 N   0  0  0  0  0  0  0  0  0  0  0  0
   19.2293  -14.9024   35.0317 C   0  0  0  0  0  0  0  0  0  0  0  0
   18.8567  -15.3392   33.9505 O   0  0  0  0  0  0  0  0  0  0  0  0
   20.6841  -14.8061   35.4215 C   0  0  0  0  0  0  0  0  0  0  0  0
   21.3628  -16.1841   35.3993 C   0  0  1  0  0  0  0  0  0  0  0  0
   22.8813  -16.1288   35.6802 C   0  0  1  0  0  0  0  0  0  0  0  0
   23.6376  -15.1710   34.7667 C   0  0  0  0  0  0  0  0  0  0  0  0
   23.1462  -15.7981   37.1521 C   0  0  0  0  0  0  0  0  0  0  0  0
   22.4240  -16.7945   38.0439 C   0  0  0  0  0  0  0  0  0  0  0  0
   20.7484  -17.1185   36.3019 O   0  0  0  0  0  0  0  0  0  0  0  0
   20.9360  -16.8742   37.7021 C   0  0  1  0  0  0  0  0  0  0  0  0
   20.3121  -18.0581   38.4509 C   0  0  0  0  0  0  0  0  0  0  0  0
   18.8315  -17.8730   38.6949 C   0  0  0  0  0  0  0  0  0  0  0  0
   18.3083  -16.7612   38.8036 O   0  0  0  0  0  0  0  0  0  0  0  0
   17.9666  -19.0704   38.9160 C   0  0  0  0  0  0  0  0  0  0  0  0
   18.3761  -20.3475   38.9212 C   0  0  0  0  0  0  0  0  0  0  0  0
   17.4293  -21.4837   39.1449 C   0  0  0  0  0  0  0  0  0  0  0  0
   13.4110  -14.7041   36.0329 N   0  0  0  0  0  0  0  0  0  0  0  0
   12.6477  -15.2266   37.1447 C   0  0  0  0  0  0  0  0  0  0  0  0
   11.5793  -16.1517   36.5990 C   0  0  0  0  0  0  0  0  0  0  0  0
   10.5966  -16.6099   37.6724 C   0  0  0  0  0  0  0  0  0  0  0  0
    9.5388  -17.5150   37.0355 C   0  0  2  0  0  0  0  0  0  0  0  0
    8.4531  -17.9842   38.0113 C   0  0  1  0  0  0  0  0  0  0  0  0
    7.6416  -16.8202   38.5793 C   0  0  0  0  0  0  0  0  0  0  0  0
    7.5406  -18.9861   37.2862 C   0  0  0  0  0  0  0  0  0  0  0  0
    8.3689  -20.1133   36.6613 C   0  0  0  0  0  0  0  0  0  0  0  0
    9.4884  -19.5566   35.7690 C   0  0  1  0  0  0  0  0  0  0  0  0
   10.2664  -18.6378   36.5306 O   0  0  0  0  0  0  0  0  0  0  0  0
   10.4410  -20.6838   35.3333 C   0  0  0  0  0  0  0  0  0  0  0  0
   11.4842  -20.1655   34.3430 C   0  0  0  0  0  0  0  0  0  0  0  0
   10.7840  -19.4855   33.1757 C   0  0  0  0  0  0  0  0  0  0  0  0
    9.8549  -18.3934   33.7039 C   0  0  2  0  0  0  0  0  0  0  0  0
    8.8987  -18.9427   34.6175 O   0  0  0  0  0  0  0  0  0  0  0  0
    9.0976  -17.7232   32.5565 C   0  0  0  0  0  0  0  0  0  0  0  0
    8.3374  -16.4727   33.0326 C   0  0  0  0  0  0  0  0  0  0  0  0
    7.7115  -15.7014   31.8577 C   0  0  2  0  0  0  0  0  0  0  0  0
    7.1279  -14.3631   32.3080 C   0  0  0  0  0  0  0  0  0  0  0  0
    6.6387  -16.5210   31.1868 C   0  0  0  0  0  0  0  0  0  0  0  0
    6.6454  -17.0037   29.9272 C   0  0  0  0  0  0  0  0  0  0  0  0
    7.7541  -16.7608   28.9340 C   0  0  0  0  0  0  0  0  0  0  0  0
    5.5063  -17.8796   29.4429 C   0  0  2  0  0  0  0  0  0  0  0  0
    5.9503  -19.3190   29.2147 C   0  0  0  0  0  0  0  0  0  0  0  0
    4.9916  -17.3490   28.2281 O   0  0  0  0  0  0  0  0  0  0  0  0
   14.7522  -13.9965   34.1168 H   0  0  0  0  0  0  0  0  0  0  0  0
   13.2366  -12.0330   34.1508 H   0  0  0  0  0  0  0  0  0  0  0  0
   14.7781  -11.6412   33.3691 H   0  0  0  0  0  0  0  0  0  0  0  0
   14.4386  -11.0815   35.0197 H   0  0  0  0  0  0  0  0  0  0  0  0
   16.9459  -12.9612   34.1988 H   0  0  0  0  0  0  0  0  0  0  0  0
   16.1777  -12.0506   36.7748 H   0  0  0  0  0  0  0  0  0  0  0  0
   16.6624  -15.2851   35.2027 H   0  0  0  0  0  0  0  0  0  0  0  0
   16.5286  -14.5411   36.8138 H   0  0  0  0  0  0  0  0  0  0  0  0
   18.7343  -13.9721   36.8243 H   0  0  0  0  0  0  0  0  0  0  0  0
   20.7832  -14.3288   36.3990 H   0  0  0  0  0  0  0  0  0  0  0  0
   21.1406  -14.1324   34.6901 H   0  0  0  0  0  0  0  0  0  0  0  0
   21.2225  -16.6131   34.4000 H   0  0  0  0  0  0  0  0  0  0  0  0
   23.2787  -17.1392   35.5043 H   0  0  0  0  0  0  0  0  0  0  0  0
   24.7099  -15.1935   34.9891 H   0  0  0  0  0  0  0  0  0  0  0  0
   23.3063  -14.1361   34.8917 H   0  0  0  0  0  0  0  0  0  0  0  0
   23.5047  -15.4530   33.7173 H   0  0  0  0  0  0  0  0  0  0  0  0
   22.8129  -14.7804   37.3869 H   0  0  0  0  0  0  0  0  0  0  0  0
   24.2214  -15.8350   37.3636 H   0  0  0  0  0  0  0  0  0  0  0  0
   22.5574  -16.5209   39.0967 H   0  0  0  0  0  0  0  0  0  0  0  0
   22.8858  -17.7806   37.9033 H   0  0  0  0  0  0  0  0  0  0  0  0
   20.4438  -15.9340   37.9724 H   0  0  0  0  0  0  0  0  0  0  0  0
   20.7737  -18.1843   39.4407 H   0  0  0  0  0  0  0  0  0  0  0  0
   20.4809  -18.9693   37.8652 H   0  0  0  0  0  0  0  0  0  0  0  0
   16.9231  -18.8255   39.0893 H   0  0  0  0  0  0  0  0  0  0  0  0
   19.4141  -20.6218   38.7612 H   0  0  0  0  0  0  0  0  0  0  0  0
   17.9694  -22.4358   39.0947 H   0  0  0  0  0  0  0  0  0  0  0  0
   16.6525  -21.4981   38.3775 H   0  0  0  0  0  0  0  0  0  0  0  0
   16.9667  -21.4142   40.1349 H   0  0  0  0  0  0  0  0  0  0  0  0
   13.5096  -15.2909   35.2144 H   0  0  0  0  0  0  0  0  0  0  0  0
   12.2082  -14.3938   37.7028 H   0  0  0  0  0  0  0  0  0  0  0  0
   13.3312  -15.7647   37.8122 H   0  0  0  0  0  0  0  0  0  0  0  0
   12.0690  -17.0137   36.1274 H   0  0  0  0  0  0  0  0  0  0  0  0
   11.0262  -15.6377   35.8015 H   0  0  0  0  0  0  0  0  0  0  0  0
   10.1414  -15.7314   38.1382 H   0  0  0  0  0  0  0  0  0  0  0  0
   11.1424  -17.1630   38.4470 H   0  0  0  0  0  0  0  0  0  0  0  0
    9.0741  -16.9736   36.2000 H   0  0  0  0  0  0  0  0  0  0  0  0
    8.9327  -18.5142   38.8449 H   0  0  0  0  0  0  0  0  0  0  0  0
    6.8554  -17.1826   39.2488 H   0  0  0  0  0  0  0  0  0  0  0  0
    7.1703  -16.2360   37.7816 H   0  0  0  0  0  0  0  0  0  0  0  0
    8.2717  -16.1433   39.1644 H   0  0  0  0  0  0  0  0  0  0  0  0
    6.9700  -18.4741   36.5005 H   0  0  0  0  0  0  0  0  0  0  0  0
    6.8103  -19.4090   37.9855 H   0  0  0  0  0  0  0  0  0  0  0  0
    7.7062  -20.7715   36.0880 H   0  0  0  0  0  0  0  0  0  0  0  0
    8.8070  -20.7022   37.4775 H   0  0  0  0  0  0  0  0  0  0  0  0
    9.8753  -21.4902   34.8511 H   0  0  0  0  0  0  0  0  0  0  0  0
   10.9621  -21.1040   36.2018 H   0  0  0  0  0  0  0  0  0  0  0  0
   12.1138  -20.9857   33.9840 H   0  0  0  0  0  0  0  0  0  0  0  0
   12.1493  -19.4461   34.8389 H   0  0  0  0  0  0  0  0  0  0  0  0
   10.2044  -20.2366   32.6245 H   0  0  0  0  0  0  0  0  0  0  0  0
   11.5233  -19.0634   32.4865 H   0  0  0  0  0  0  0  0  0  0  0  0
   10.4502  -17.6286   34.2157 H   0  0  0  0  0  0  0  0  0  0  0  0
    8.3898  -18.4410   32.1244 H   0  0  0  0  0  0  0  0  0  0  0  0
    9.8047  -17.4364   31.7686 H   0  0  0  0  0  0  0  0  0  0  0  0
    9.0379  -15.8110   33.5576 H   0  0  0  0  0  0  0  0  0  0  0  0
    7.5664  -16.7583   33.7595 H   0  0  0  0  0  0  0  0  0  0  0  0
    8.5220  -15.4594   31.1659 H   0  0  0  0  0  0  0  0  0  0  0  0
    6.6905  -13.8297   31.4556 H   0  0  0  0  0  0  0  0  0  0  0  0
    7.9128  -13.7256   32.7276 H   0  0  0  0  0  0  0  0  0  0  0  0
    6.3493  -14.4928   33.0653 H   0  0  0  0  0  0  0  0  0  0  0  0
    5.7914  -16.7710   31.8352 H   0  0  0  0  0  0  0  0  0  0  0  0
    8.5737  -16.1536   29.3226 H   0  0  0  0  0  0  0  0  0  0  0  0
    7.3685  -16.2395   28.0541 H   0  0  0  0  0  0  0  0  0  0  0  0
    8.2021  -17.7065   28.6171 H   0  0  0  0  0  0  0  0  0  0  0  0
    4.6786  -17.8848   30.1623 H   0  0  0  0  0  0  0  0  0  0  0  0
    5.1128  -19.9244   28.8536 H   0  0  0  0  0  0  0  0  0  0  0  0
    6.3335  -19.7647   30.1384 H   0  0  0  0  0  0  0  0  0  0  0  0
    6.7279  -19.3868   28.4467 H   0  0  0  0  0  0  0  0  0  0  0  0
    4.7547  -16.4238   28.4130 H   0  0  0  0  0  0  0  0  0  0  0  0
  1  2  2  0  0  0  0
  2  3  1  0  0  0  0
  2 25  1  0  0  0  0
  3  4  1  0  0  0  0
  3  5  1  0  0  0  0
  3 51  1  6  0  0  0
  4 52  1  0  0  0  0
  4 53  1  0  0  0  0
  4 54  1  0  0  0  0
  5  6  1  0  0  0  0
  5  7  1  0  0  0  0
  5 55  1  6  0  0  0
  6 56  1  0  0  0  0
  7  8  1  0  0  0  0
  7 57  1  0  0  0  0
  7 58  1  0  0  0  0
  8  9  1  0  0  0  0
  8 59  1  0  0  0  0
  9 10  2  0  0  0  0
  9 11  1  0  0  0  0
 11 12  1  0  0  0  0
 11 60  1  0  0  0  0
 11 61  1  0  0  0  0
 12 13  1  0  0  0  0
 12 17  1  0  0  0  0
 12 62  1  6  0  0  0
 13 14  1  0  0  0  0
 13 15  1  0  0  0  0
 13 63  1  6  0  0  0
 14 64  1  0  0  0  0
 14 65  1  0  0  0  0
 14 66  1  0  0  0  0
 15 16  1  0  0  0  0
 15 67  1  0  0  0  0
 15 68  1  0  0  0  0
 16 18  1  0  0  0  0
 16 69  1  0  0  0  0
 16 70  1  0  0  0  0
 17 18  1  0  0  0  0
 18 19  1  0  0  0  0
 18 71  1  1  0  0  0
 19 20  1  0  0  0  0
 19 72  1  0  0  0  0
 19 73  1  0  0  0  0
 20 21  2  0  0  0  0
 20 22  1  0  0  0  0
 22 23  2  0  0  0  0
 22 74  1  0  0  0  0
 23 24  1  0  0  0  0
 23 75  1  0  0  0  0
 24 76  1  0  0  0  0
 24 77  1  0  0  0  0
 24 78  1  0  0  0  0
 25 26  1  0  0  0  0
 25 79  1  0  0  0  0
 26 27  1  0  0  0  0
 26 80  1  0  0  0  0
 26 81  1  0  0  0  0
 27 28  1  0  0  0  0
 27 82  1  0  0  0  0
 27 83  1  0  0  0  0
 28 29  1  0  0  0  0
 28 84  1  0  0  0  0
 28 85  1  0  0  0  0
 29 30  1  0  0  0  0
 29 35  1  0  0  0  0
 29 86  1  6  0  0  0
 30 31  1  0  0  0  0
 30 32  1  0  0  0  0
 30 87  1  1  0  0  0
 31 88  1  0  0  0  0
 31 89  1  0  0  0  0
 31 90  1  0  0  0  0
 32 33  1  0  0  0  0
 32 91  1  0  0  0  0
 32 92  1  0  0  0  0
 33 93  1  0  0  0  0
 33 94  1  0  0  0  0
 34 33  1  1  0  0  0
 34 35  1  0  0  0  0
 34 36  1  0  0  0  0
 34 40  1  0  0  0  0
 36 37  1  0  0  0  0
 36 95  1  0  0  0  0
 36 96  1  0  0  0  0
 37 38  1  0  0  0  0
 37 97  1  0  0  0  0
 37 98  1  0  0  0  0
 38 39  1  0  0  0  0
 38 99  1  0  0  0  0
 38100  1  0  0  0  0
 39 40  1  0  0  0  0
 39 41  1  0  0  0  0
 39101  1  1  0  0  0
 41 42  1  0  0  0  0
 41102  1  0  0  0  0
 41103  1  0  0  0  0
 42 43  1  0  0  0  0
 42104  1  0  0  0  0
 42105  1  0  0  0  0
 43 44  1  0  0  0  0
 43 45  1  0  0  0  0
 43106  1  6  0  0  0
 44107  1  0  0  0  0
 44108  1  0  0  0  0
 44109  1  0  0  0  0
 45 46  2  0  0  0  0
 45110  1  0  0  0  0
 46 47  1  0  0  0  0
 46 48  1  0  0  0  0
 47111  1  0  0  0  0
 47112  1  0  0  0  0
 47113  1  0  0  0  0
 48 49  1  0  0  0  0
 48 50  1  0  0  0  0
 48114  1  1  0  0  0
 49115  1  0  0  0  0
 49116  1  0  0  0  0
 49117  1  0  0  0  0
 50118  1  0  0  0  0
M  END
$$$$
