BM3
 OpenBabel04051920433D

 30 30  0  0  1  0  0  0  0  0999 V2000
  -11.4296   31.2174   17.2248 C   0  0  2  0  0  0  0  0  0  0  0  0
  -12.4895   30.6299   17.9649 O   0  0  0  0  0  0  0  0  0  0  0  0
  -10.8368   30.1776   16.2719 C   0  0  1  0  0  0  0  0  0  0  0  0
   -9.9053   30.8447   15.3549 N   0  0  0  0  0  0  0  0  0  0  0  0
   -9.8936   30.6129   14.0040 C   0  0  0  0  0  0  0  0  0  0  0  0
  -10.5874   29.7791   13.4705 O   0  0  0  0  0  0  0  0  0  0  0  0
   -8.9711   31.5528   13.2518 C   0  0  0  0  0  0  0  0  0  0  0  0
  -10.1878   29.0547   17.1000 C   0  0  1  0  0  0  0  0  0  0  0  0
   -9.5463   28.0841   16.2675 O   0  0  0  0  0  0  0  0  0  0  0  0
   -9.1623   29.6349   18.0785 C   0  0  2  0  0  0  0  0  0  0  0  0
   -8.6653   28.5823   18.9053 O   0  0  0  0  0  0  0  0  0  0  0  0
   -9.8345   30.7170   18.9187 C   0  0  1  0  0  0  0  0  0  0  0  0
   -8.8829   31.4463   19.8659 C   0  0  0  0  0  0  0  0  0  0  0  0
   -7.8232   32.0993   19.1682 O   0  0  0  0  0  0  0  0  0  0  0  0
  -10.4424   31.7240   18.1025 O   0  0  0  0  0  0  0  0  0  0  0  0
  -11.8323   32.0533   16.6370 H   0  0  0  0  0  0  0  0  0  0  0  0
  -12.8610   31.3327   18.5240 H   0  0  0  0  0  0  0  0  0  0  0  0
  -11.6431   29.7095   15.6999 H   0  0  0  0  0  0  0  0  0  0  0  0
   -9.2494   31.5148   15.7305 H   0  0  0  0  0  0  0  0  0  0  0  0
   -9.0123   31.3122   12.1862 H   0  0  0  0  0  0  0  0  0  0  0  0
   -7.9408   31.4460   13.6019 H   0  0  0  0  0  0  0  0  0  0  0  0
   -9.2910   32.5913   13.3908 H   0  0  0  0  0  0  0  0  0  0  0  0
  -10.9740   28.5442   17.6800 H   0  0  0  0  0  0  0  0  0  0  0  0
  -10.2111   27.6929   15.6767 H   0  0  0  0  0  0  0  0  0  0  0  0
   -8.3466   30.0674   17.4928 H   0  0  0  0  0  0  0  0  0  0  0  0
   -8.0083   28.9592   19.5067 H   0  0  0  0  0  0  0  0  0  0  0  0
  -10.5855   30.2334   19.5563 H   0  0  0  0  0  0  0  0  0  0  0  0
   -8.4466   30.7435   20.5785 H   0  0  0  0  0  0  0  0  0  0  0  0
   -9.4615   32.2072   20.3977 H   0  0  0  0  0  0  0  0  0  0  0  0
   -7.2850   32.5660   19.8325 H   0  0  0  0  0  0  0  0  0  0  0  0
  1  2  1  0  0  0  0
  1  3  1  0  0  0  0
  1 15  1  0  0  0  0
  1 16  1  6  0  0  0
  2 17  1  0  0  0  0
  3  4  1  0  0  0  0
  3  8  1  0  0  0  0
  3 18  1  6  0  0  0
  4  5  1  0  0  0  0
  4 19  1  0  0  0  0
  5  6  2  0  0  0  0
  5  7  1  0  0  0  0
  7 20  1  0  0  0  0
  7 21  1  0  0  0  0
  7 22  1  0  0  0  0
  8  9  1  0  0  0  0
  8 10  1  0  0  0  0
  8 23  1  1  0  0  0
  9 24  1  0  0  0  0
 10 11  1  0  0  0  0
 10 12  1  0  0  0  0
 10 25  1  6  0  0  0
 11 26  1  0  0  0  0
 12 13  1  0  0  0  0
 12 15  1  0  0  0  0
 12 27  1  1  0  0  0
 13 14  1  0  0  0  0
 13 28  1  0  0  0  0
 13 29  1  0  0  0  0
 14 30  1  0  0  0  0
M  END
$$$$
