BO1
 OpenBabel04051918103D

 40 41  0  0  1  0  0  0  0  0999 V2000
   -6.0118    0.9885   16.7191 S   0  0  0  0  0  0  0  0  0  0  0  0
   -5.3940    1.0882   18.0330 O   0  0  0  0  0  0  0  0  0  0  0  0
   -7.4589    1.0168   16.5318 O   0  0  0  0  0  0  0  0  0  0  0  0
   -5.4642   -0.4431   16.0288 N   0  0  0  0  0  0  0  0  0  0  0  0
   -5.2481    2.2223   15.7021 C   0  0  0  0  0  0  0  0  0  0  0  0
   -5.9907    3.3110   15.2569 C   0  0  0  0  0  0  0  0  0  0  0  0
   -5.3780    4.3186   14.5078 C   0  0  0  0  0  0  0  0  0  0  0  0
   -4.0122    4.2489   14.1757 C   0  0  0  0  0  0  0  0  0  0  0  0
   -3.2764    3.1560   14.6554 C   0  0  0  0  0  0  0  0  0  0  0  0
   -3.8765    2.1491   15.4127 C   0  0  0  0  0  0  0  0  0  0  0  0
   -3.3706    5.2032   13.4238 N   0  0  0  0  0  0  0  0  0  0  0  0
   -3.8945    6.5133   13.0946 C   0  0  1  0  0  0  0  0  0  0  0  0
   -2.8307    7.3037   12.3034 C   0  0  1  0  0  0  0  0  0  0  0  0
   -3.4114    8.6663   11.9317 C   0  0  2  0  0  0  0  0  0  0  0  0
   -4.6894    8.4643   11.1096 C   0  0  1  0  0  0  0  0  0  0  0  0
   -5.6708    7.6429   11.9589 C   0  0  1  0  0  0  0  0  0  0  0  0
   -6.9716    7.3672   11.2007 C   0  0  0  0  0  0  0  0  0  0  0  0
   -5.0937    6.3897   12.3442 O   0  0  0  0  0  0  0  0  0  0  0  0
   -1.6304    7.4391   13.0786 O   0  0  0  0  0  0  0  0  0  0  0  0
   -2.4412    9.4175   11.1925 O   0  0  0  0  0  0  0  0  0  0  0  0
   -5.2249    9.7517   10.7856 O   0  0  0  0  0  0  0  0  0  0  0  0
   -6.7266    6.4754   10.1172 O   0  0  0  0  0  0  0  0  0  0  0  0
   -4.5054   -0.7266   16.1797 H   0  0  0  0  0  0  0  0  0  0  0  0
   -6.1765   -1.0923   15.7174 H   0  0  0  0  0  0  0  0  0  0  0  0
   -7.0576    3.3811   15.4954 H   0  0  0  0  0  0  0  0  0  0  0  0
   -5.9874    5.1301   14.1684 H   0  0  0  0  0  0  0  0  0  0  0  0
   -2.2115    3.0858   14.4387 H   0  0  0  0  0  0  0  0  0  0  0  0
   -3.2716    1.3227   15.7771 H   0  0  0  0  0  0  0  0  0  0  0  0
   -2.4205    5.0195   13.1144 H   0  0  0  0  0  0  0  0  0  0  0  0
   -4.1021    7.0500   14.0293 H   0  0  0  0  0  0  0  0  0  0  0  0
   -2.5654    6.7704   11.3801 H   0  0  0  0  0  0  0  0  0  0  0  0
   -3.6350    9.2472   12.8380 H   0  0  0  0  0  0  0  0  0  0  0  0
   -4.4326    7.9451   10.1775 H   0  0  0  0  0  0  0  0  0  0  0  0
   -5.9383    8.2113   12.8591 H   0  0  0  0  0  0  0  0  0  0  0  0
   -7.3933    8.2859   10.7849 H   0  0  0  0  0  0  0  0  0  0  0  0
   -7.7144    6.9279   11.8731 H   0  0  0  0  0  0  0  0  0  0  0  0
   -1.8620    7.9009   13.9012 H   0  0  0  0  0  0  0  0  0  0  0  0
   -2.8617   10.2615   10.9463 H   0  0  0  0  0  0  0  0  0  0  0  0
   -6.0086    9.6153   10.2226 H   0  0  0  0  0  0  0  0  0  0  0  0
   -7.5756    6.2775    9.6870 H   0  0  0  0  0  0  0  0  0  0  0  0
  1  2  2  0  0  0  0
  1  3  2  0  0  0  0
  1  4  1  0  0  0  0
  1  5  1  0  0  0  0
  4 23  1  0  0  0  0
  4 24  1  0  0  0  0
  5  6  2  0  0  0  0
  5 10  1  0  0  0  0
  6  7  1  0  0  0  0
  6 25  1  0  0  0  0
  7  8  2  0  0  0  0
  7 26  1  0  0  0  0
  8  9  1  0  0  0  0
  8 11  1  0  0  0  0
  9 10  2  0  0  0  0
  9 27  1  0  0  0  0
 10 28  1  0  0  0  0
 11 12  1  0  0  0  0
 11 29  1  0  0  0  0
 12 13  1  0  0  0  0
 12 18  1  0  0  0  0
 12 30  1  1  0  0  0
 13 14  1  0  0  0  0
 13 19  1  0  0  0  0
 13 31  1  6  0  0  0
 14 15  1  0  0  0  0
 14 20  1  0  0  0  0
 14 32  1  1  0  0  0
 15 16  1  0  0  0  0
 15 21  1  0  0  0  0
 15 33  1  6  0  0  0
 16 17  1  0  0  0  0
 16 18  1  0  0  0  0
 16 34  1  1  0  0  0
 17 22  1  0  0  0  0
 17 35  1  0  0  0  0
 17 36  1  0  0  0  0
 19 37  1  0  0  0  0
 20 38  1  0  0  0  0
 21 39  1  0  0  0  0
 22 40  1  0  0  0  0
M  END
$$$$
