BTN
 OpenBabel04051918253D

 31 32  0  0  1  0  0  0  0  0999 V2000
   41.0043    9.7954   50.3153 C   0  0  0  0  0  0  0  0  0  0  0  0
   41.4198    8.9503   49.4863 O   0  0  0  0  0  0  0  0  0  0  0  0
   41.2871    9.8030   51.5475 O   0  0  0  0  0  0  0  0  0  0  0  0
   40.0862   10.9172   49.7767 C   0  0  0  0  0  0  0  0  0  0  0  0
   39.4897   11.7182   50.9269 C   0  0  0  0  0  0  0  0  0  0  0  0
   38.2182   11.0475   51.4153 C   0  0  0  0  0  0  0  0  0  0  0  0
   37.3834   12.0522   52.1784 C   0  0  0  0  0  0  0  0  0  0  0  0
   36.2193   11.3475   52.7739 C   0  0  2  0  0  0  0  0  0  0  0  0
   34.8995   11.1653   51.5754 S   0  0  0  0  0  0  0  0  0  0  0  0
   33.7673   10.8416   52.9228 C   0  0  0  0  0  0  0  0  0  0  0  0
   34.1946   11.6839   54.1288 C   0  0  2  0  0  0  0  0  0  0  0  0
   33.5412   12.9886   54.1222 N   0  0  0  0  0  0  0  0  0  0  0  0
   34.4205   14.0324   53.9955 C   0  0  0  0  0  0  0  0  0  0  0  0
   34.1224   15.2434   53.9810 O   0  0  0  0  0  0  0  0  0  0  0  0
   35.6740   13.5084   53.9322 N   0  0  0  0  0  0  0  0  0  0  0  0
   35.6626   12.0481   53.9997 C   0  0  2  0  0  0  0  0  0  0  0  0
   39.2750   10.4829   49.1717 H   0  0  0  0  0  0  0  0  0  0  0  0
   40.6707   11.5935   49.1325 H   0  0  0  0  0  0  0  0  0  0  0  0
   39.2588   12.7408   50.5993 H   0  0  0  0  0  0  0  0  0  0  0  0
   40.2058   11.7778   51.7582 H   0  0  0  0  0  0  0  0  0  0  0  0
   38.4631   10.2022   52.0754 H   0  0  0  0  0  0  0  0  0  0  0  0
   37.6368   10.6682   50.5632 H   0  0  0  0  0  0  0  0  0  0  0  0
   37.0623   12.8575   51.5029 H   0  0  0  0  0  0  0  0  0  0  0  0
   37.9797   12.4831   52.9885 H   0  0  0  0  0  0  0  0  0  0  0  0
   36.4760   10.3302   53.0593 H   0  0  0  0  0  0  0  0  0  0  0  0
   33.8212    9.7817   53.1890 H   0  0  0  0  0  0  0  0  0  0  0  0
   32.7700   11.1093   52.6097 H   0  0  0  0  0  0  0  0  0  0  0  0
   33.9695   11.1473   55.0678 H   0  0  0  0  0  0  0  0  0  0  0  0
   32.5472   13.1308   54.1721 H   0  0  0  0  0  0  0  0  0  0  0  0
   36.5063   14.0822   53.8359 H   0  0  0  0  0  0  0  0  0  0  0  0
   36.2403   11.7364   54.8749 H   0  0  0  0  0  0  0  0  0  0  0  0
  1  2  2  0  0  0  0
  1  3  1  0  0  0  0
  1  4  1  0  0  0  0
  4  5  1  0  0  0  0
  4 17  1  0  0  0  0
  4 18  1  0  0  0  0
  5  6  1  0  0  0  0
  5 19  1  0  0  0  0
  5 20  1  0  0  0  0
  6  7  1  0  0  0  0
  6 21  1  0  0  0  0
  6 22  1  0  0  0  0
  7  8  1  0  0  0  0
  7 23  1  0  0  0  0
  7 24  1  0  0  0  0
  8  9  1  0  0  0  0
  8 16  1  0  0  0  0
  8 25  1  1  0  0  0
  9 10  1  0  0  0  0
 10 11  1  0  0  0  0
 10 26  1  0  0  0  0
 10 27  1  0  0  0  0
 11 12  1  0  0  0  0
 11 16  1  0  0  0  0
 11 28  1  1  0  0  0
 12 13  1  0  0  0  0
 12 29  1  0  0  0  0
 13 14  2  0  0  0  0
 13 15  1  0  0  0  0
 15 16  1  0  0  0  0
 15 30  1  0  0  0  0
 16 31  1  1  0  0  0
M  END
$$$$
