C03
 OpenBabel04051918443D

 61 65  0  0  1  0  0  0  0  0999 V2000
   15.7490    5.0207   15.7792 C   0  0  0  0  0  0  0  0  0  0  0  0
   14.6032    4.9001   14.9754 C   0  0  0  0  0  0  0  0  0  0  0  0
   14.6865    4.8592   13.5463 C   0  0  2  0  0  0  0  0  0  0  0  0
   15.9505    4.9643   12.9152 C   0  0  2  0  0  0  0  0  0  0  0  0
   17.1213    5.0982   13.7209 C   0  0  0  0  0  0  0  0  0  0  0  0
   16.9992    5.0815   15.1431 C   0  0  1  0  0  0  0  0  0  0  0  0
   13.6614    4.7344   12.5429 C   0  0  1  0  0  0  0  0  0  0  0  0
   14.3341    4.7632   11.3051 C   0  0  2  0  0  0  0  0  0  0  0  0
   15.7325    4.9190   11.5150 N   0  3  1  0  0  0  0  0  0  0  0  0
   12.1477    4.5657   12.9114 C   0  0  2  0  0  0  0  0  0  0  0  0
   13.6950    4.6708    9.9602 C   0  0  0  0  0  0  0  0  0  0  0  0
   16.8305    5.0422   10.4559 C   0  0  0  0  0  0  0  0  0  0  0  0
   18.1456    5.3003   15.8682 O   0  0  0  0  0  0  0  0  0  0  0  0
   18.8051    4.1703   16.4403 C   0  0  0  0  0  0  0  0  0  0  0  0
   19.9678    4.6103   16.9972 F   0  0  0  0  0  0  0  0  0  0  0  0
   19.1249    3.2297   15.5215 F   0  0  0  0  0  0  0  0  0  0  0  0
   18.0708    3.6127   17.4297 F   0  0  0  0  0  0  0  0  0  0  0  0
   17.1823    6.4848   10.0042 C   0  0  2  0  0  0  0  0  0  0  0  0
   16.3015    7.5712   10.3027 C   0  0  0  0  0  0  0  0  0  0  0  0
   16.5408    8.9164    9.8842 C   0  0  2  0  0  0  0  0  0  0  0  0
   17.7220    9.1876    9.1741 C   0  0  0  0  0  0  0  0  0  0  0  0
   18.6291    8.1391    8.8539 C   0  0  0  0  0  0  0  0  0  0  0  0
   18.3572    6.8065    9.2574 C   0  0  1  0  0  0  0  0  0  0  0  0
   19.5498    5.6152    8.8023 Cl  0  0  0  0  0  0  0  0  0  0  0  0
   15.6224    9.8587   10.3120 O   0  0  0  0  0  0  0  0  0  0  0  0
   15.1345   10.9324    9.4312 C   0  0  2  0  0  0  0  0  0  0  0  0
   14.1458   11.7887   10.2504 C   0  0  0  0  0  0  0  0  0  0  0  0
   14.2399   10.3837    8.2619 C   0  0  0  0  0  0  0  0  0  0  0  0
   14.2118   11.1231    7.2043 O   0  0  0  0  0  0  0  0  0  0  0  0
   13.6602    9.3237    8.4909 O   0  0  0  0  0  0  0  0  0  0  0  0
   11.1134    5.2781   12.4076 N   0  0  0  0  0  0  0  0  0  0  0  0
    9.9509    4.8022   13.0471 O   0  0  0  0  0  0  0  0  0  0  0  0
   10.2733    3.8084   13.9318 C   0  0  1  0  0  0  0  0  0  0  0  0
   11.6492    3.6127   13.8840 C   0  0  1  0  0  0  0  0  0  0  0  0
    9.4012    3.0790   14.7768 C   0  0  0  0  0  0  0  0  0  0  0  0
    9.9689    2.1089   15.6325 C   0  0  2  0  0  0  0  0  0  0  0  0
   11.3547    1.8503   15.5922 C   0  0  0  0  0  0  0  0  0  0  0  0
   12.1940    2.6062   14.7263 C   0  0  0  0  0  0  0  0  0  0  0  0
    9.1542    1.3338   16.4428 O   0  0  0  0  0  0  0  0  0  0  0  0
    8.3910    2.0661   17.4268 C   0  0  0  0  0  0  0  0  0  0  0  0
   15.6316    5.0497   16.8636 H   0  0  0  0  0  0  0  0  0  0  0  0
   13.6173    4.8299   15.4424 H   0  0  0  0  0  0  0  0  0  0  0  0
   18.1037    5.1871   13.2540 H   0  0  0  0  0  0  0  0  0  0  0  0
   12.6060    4.5588   10.0627 H   0  0  0  0  0  0  0  0  0  0  0  0
   14.0722    3.7990    9.4178 H   0  0  0  0  0  0  0  0  0  0  0  0
   13.8900    5.5739    9.3767 H   0  0  0  0  0  0  0  0  0  0  0  0
   16.5202    4.4305    9.5895 H   0  0  0  0  0  0  0  0  0  0  0  0
   17.7294    4.5573   10.8854 H   0  0  0  0  0  0  0  0  0  0  0  0
   15.3787    7.3734   10.8598 H   0  0  0  0  0  0  0  0  0  0  0  0
   17.9603   10.1989    8.8532 H   0  0  0  0  0  0  0  0  0  0  0  0
   19.5418    8.3627    8.2841 H   0  0  0  0  0  0  0  0  0  0  0  0
   15.9619   11.5575    9.0780 H   0  0  0  0  0  0  0  0  0  0  0  0
   13.7300   12.6145    9.6554 H   0  0  0  0  0  0  0  0  0  0  0  0
   14.6454   12.2128   11.1318 H   0  0  0  0  0  0  0  0  0  0  0  0
   13.3052   11.1758   10.6154 H   0  0  0  0  0  0  0  0  0  0  0  0
    8.3325    3.2581   14.7747 H   0  0  0  0  0  0  0  0  0  0  0  0
   11.8175    1.0877   16.2268 H   0  0  0  0  0  0  0  0  0  0  0  0
   13.2668    2.4210   14.7133 H   0  0  0  0  0  0  0  0  0  0  0  0
    7.7482    1.3577   17.9832 H   0  0  0  0  0  0  0  0  0  0  0  0
    7.7391    2.8179   16.9720 H   0  0  0  0  0  0  0  0  0  0  0  0
    9.0664    2.5386   18.1482 H   0  0  0  0  0  0  0  0  0  0  0  0
  1  2  1  0  0  0  0
  1  6  1  0  0  0  0
  1 41  1  0  0  0  0
  2 42  1  0  0  0  0
  3  2  1  6  0  0  0
  3  4  1  0  0  0  0
  3  7  1  0  0  0  0
  4  5  1  6  0  0  0
  4  9  1  0  0  0  0
  5  6  1  0  0  0  0
  5 43  1  0  0  0  0
  6 13  1  1  0  0  0
  7  8  1  0  0  0  0
  7 10  1  1  0  0  0
  8  9  1  0  0  0  0
  8 11  1  6  0  0  0
  9 12  1  6  0  0  0
 10 31  1  1  0  0  0
 10 34  1  0  0  0  0
 11 44  1  0  0  0  0
 11 45  1  0  0  0  0
 11 46  1  0  0  0  0
 12 47  1  0  0  0  0
 12 48  1  0  0  0  0
 13 14  1  0  0  0  0
 14 15  1  0  0  0  0
 14 16  1  0  0  0  0
 14 17  1  0  0  0  0
 18 12  1  6  0  0  0
 18 19  1  0  0  0  0
 18 23  1  0  0  0  0
 19 20  1  0  0  0  0
 19 49  1  0  0  0  0
 20 21  1  0  0  0  0
 20 25  1  1  0  0  0
 21 22  1  0  0  0  0
 21 50  1  0  0  0  0
 22 23  1  0  0  0  0
 22 51  1  0  0  0  0
 23 24  1  1  0  0  0
 25 26  1  0  0  0  0
 26 27  1  0  0  0  0
 26 28  1  0  0  0  0
 26 52  1  6  0  0  0
 27 53  1  0  0  0  0
 27 54  1  0  0  0  0
 27 55  1  0  0  0  0
 28 29  2  0  0  0  0
 28 30  1  0  0  0  0
 31 32  1  0  0  0  0
 33 32  1  1  0  0  0
 33 34  1  0  0  0  0
 33 35  1  0  0  0  0
 34 38  1  6  0  0  0
 35 36  1  0  0  0  0
 35 56  1  0  0  0  0
 36 37  1  0  0  0  0
 36 39  1  6  0  0  0
 37 38  1  0  0  0  0
 37 57  1  0  0  0  0
 38 58  1  0  0  0  0
 39 40  1  0  0  0  0
 40 59  1  0  0  0  0
 40 60  1  0  0  0  0
 40 61  1  0  0  0  0
M  CHG  1   9   1
M  END
$$$$
