C0M
 OpenBabel04051918333D

 63 67  0  0  0  0  0  0  0  0999 V2000
   23.1246    5.9405   31.0181 C   0  0  0  0  0  0  0  0  0  0  0  0
   22.7626    7.3572   31.3696 C   0  0  0  0  0  0  0  0  0  0  0  0
   26.9860    7.5779   28.7983 O   0  0  0  0  0  0  0  0  0  0  0  0
   26.2879    6.7557   29.3893 C   0  0  0  0  0  0  0  0  0  0  0  0
   26.9006    5.4519   29.8941 C   0  0  0  0  0  0  0  0  0  0  0  0
   27.8657    4.7900   28.9306 C   0  0  0  0  0  0  0  0  0  0  0  0
   29.0606    5.6446   28.6662 N   0  3  0  0  0  0  0  0  0  0  0  0
   30.0364    5.6403   29.8065 C   0  0  0  0  0  0  0  0  0  0  0  0
   31.0325    6.7500   29.5596 C   0  0  0  0  0  0  0  0  0  0  0  0
   31.7682    6.5481   28.2400 C   0  0  0  0  0  0  0  0  0  0  0  0
   30.8108    6.2913   27.0803 C   0  0  0  0  0  0  0  0  0  0  0  0
   29.7750    5.2338   27.4109 C   0  0  0  0  0  0  0  0  0  0  0  0
   24.9851    7.0032   29.7629 N   0  0  0  0  0  0  0  0  0  0  0  0
   23.9685    5.9385   29.7545 C   0  0  0  0  0  0  0  0  0  0  0  0
   24.5019    8.4019   29.8231 C   0  0  0  0  0  0  0  0  0  0  0  0
   23.4088    8.4555   30.8373 C   0  0  0  0  0  0  0  0  0  0  0  0
   22.8134    9.9267   31.4602 S   0  0  0  0  0  0  0  0  0  0  0  0
   21.6491    9.1402   32.4245 C   0  0  0  0  0  0  0  0  0  0  0  0
   21.7398    7.7875   32.2785 C   0  0  0  0  0  0  0  0  0  0  0  0
   20.9699    6.8243   32.9625 C   0  0  0  0  0  0  0  0  0  0  0  0
   20.3711    5.9987   33.5180 N   0  0  0  0  0  0  0  0  0  0  0  0
   20.7662    9.8063   33.2433 N   0  0  0  0  0  0  0  0  0  0  0  0
   20.7393   11.1759   33.4726 C   0  0  0  0  0  0  0  0  0  0  0  0
   21.3655   12.0363   32.9121 O   0  0  0  0  0  0  0  0  0  0  0  0
   19.8133   11.5322   34.6145 C   0  0  0  0  0  0  0  0  0  0  0  0
   19.8677   10.7675   35.7978 C   0  0  0  0  0  0  0  0  0  0  0  0
   18.9887   11.0269   36.8380 C   0  0  0  0  0  0  0  0  0  0  0  0
   18.0410   12.0401   36.7158 C   0  0  0  0  0  0  0  0  0  0  0  0
   18.8674   12.5772   34.4787 C   0  0  0  0  0  0  0  0  0  0  0  0
   18.7587   13.3757   33.3180 C   0  0  0  0  0  0  0  0  0  0  0  0
   17.8016   14.3840   33.2358 C   0  0  0  0  0  0  0  0  0  0  0  0
   16.9211   14.6027   34.2899 C   0  0  0  0  0  0  0  0  0  0  0  0
   17.0045   13.8311   35.4470 C   0  0  0  0  0  0  0  0  0  0  0  0
   17.9681   12.8190   35.5512 C   0  0  0  0  0  0  0  0  0  0  0  0
   22.2439    5.3061   30.8477 H   0  0  0  0  0  0  0  0  0  0  0  0
   23.6959    5.4803   31.8363 H   0  0  0  0  0  0  0  0  0  0  0  0
   26.1512    4.7058   30.1263 H   0  0  0  0  0  0  0  0  0  0  0  0
   27.3994    5.6618   30.8469 H   0  0  0  0  0  0  0  0  0  0  0  0
   27.3773    4.5815   27.9746 H   0  0  0  0  0  0  0  0  0  0  0  0
   28.2435    3.8466   29.3476 H   0  0  0  0  0  0  0  0  0  0  0  0
   30.5140    4.6526   29.8223 H   0  0  0  0  0  0  0  0  0  0  0  0
   29.4903    5.7903   30.7383 H   0  0  0  0  0  0  0  0  0  0  0  0
   31.7458    6.7715   30.3868 H   0  0  0  0  0  0  0  0  0  0  0  0
   30.5052    7.7118   29.5375 H   0  0  0  0  0  0  0  0  0  0  0  0
   32.4487    5.6932   28.3374 H   0  0  0  0  0  0  0  0  0  0  0  0
   32.3748    7.4326   28.0225 H   0  0  0  0  0  0  0  0  0  0  0  0
   31.3760    5.9632   26.2035 H   0  0  0  0  0  0  0  0  0  0  0  0
   30.3003    7.2275   26.8244 H   0  0  0  0  0  0  0  0  0  0  0  0
   29.0358    5.1341   26.6128 H   0  0  0  0  0  0  0  0  0  0  0  0
   30.2400    4.2603   27.6084 H   0  0  0  0  0  0  0  0  0  0  0  0
   23.3333    6.0747   28.8727 H   0  0  0  0  0  0  0  0  0  0  0  0
   24.4273    4.9601   29.6301 H   0  0  0  0  0  0  0  0  0  0  0  0
   24.1227    8.7088   28.8427 H   0  0  0  0  0  0  0  0  0  0  0  0
   25.3313    9.0631   30.1021 H   0  0  0  0  0  0  0  0  0  0  0  0
   20.0683    9.2506   33.7313 H   0  0  0  0  0  0  0  0  0  0  0  0
   20.5922    9.9599   35.9162 H   0  0  0  0  0  0  0  0  0  0  0  0
   19.0336   10.4406   37.7545 H   0  0  0  0  0  0  0  0  0  0  0  0
   17.3623   12.2215   37.5483 H   0  0  0  0  0  0  0  0  0  0  0  0
   19.4244   13.2334   32.4664 H   0  0  0  0  0  0  0  0  0  0  0  0
   17.7524   15.0031   32.3447 H   0  0  0  0  0  0  0  0  0  0  0  0
   16.1657   15.3803   34.2103 H   0  0  0  0  0  0  0  0  0  0  0  0
   16.3142   14.0389   36.2693 H   0  0  0  0  0  0  0  0  0  0  0  0
   28.7085    6.6167   28.5314 H   0  0  0  0  0  0  0  0  0  0  0  0
  1  2  1  0  0  0  0
  1 14  1  0  0  0  0
  1 35  1  0  0  0  0
  1 36  1  0  0  0  0
  2 16  2  0  0  0  0
  2 19  1  0  0  0  0
  3  4  2  0  0  0  0
  4  5  1  0  0  0  0
  4 13  1  0  0  0  0
  5  6  1  0  0  0  0
  5 37  1  0  0  0  0
  5 38  1  0  0  0  0
  6  7  1  0  0  0  0
  6 39  1  0  0  0  0
  6 40  1  0  0  0  0
  7  8  1  0  0  0  0
  7 12  1  0  0  0  0
  7 63  1  0  0  0  0
  8  9  1  0  0  0  0
  8 41  1  0  0  0  0
  8 42  1  0  0  0  0
  9 10  1  0  0  0  0
  9 43  1  0  0  0  0
  9 44  1  0  0  0  0
 10 11  1  0  0  0  0
 10 45  1  0  0  0  0
 10 46  1  0  0  0  0
 11 12  1  0  0  0  0
 11 47  1  0  0  0  0
 11 48  1  0  0  0  0
 12 49  1  0  0  0  0
 12 50  1  0  0  0  0
 13 14  1  0  0  0  0
 13 15  1  0  0  0  0
 14 51  1  0  0  0  0
 14 52  1  0  0  0  0
 15 16  1  0  0  0  0
 15 53  1  0  0  0  0
 15 54  1  0  0  0  0
 16 17  1  0  0  0  0
 17 18  1  0  0  0  0
 18 19  2  0  0  0  0
 18 22  1  0  0  0  0
 19 20  1  0  0  0  0
 20 21  3  0  0  0  0
 22 23  1  0  0  0  0
 22 55  1  0  0  0  0
 23 24  2  0  0  0  0
 23 25  1  0  0  0  0
 25 26  2  0  0  0  0
 25 29  1  0  0  0  0
 26 27  1  0  0  0  0
 26 56  1  0  0  0  0
 27 28  2  0  0  0  0
 27 57  1  0  0  0  0
 28 34  1  0  0  0  0
 28 58  1  0  0  0  0
 29 30  2  0  0  0  0
 29 34  1  0  0  0  0
 30 31  1  0  0  0  0
 30 59  1  0  0  0  0
 31 32  2  0  0  0  0
 31 60  1  0  0  0  0
 32 33  1  0  0  0  0
 32 61  1  0  0  0  0
 33 34  2  0  0  0  0
 33 62  1  0  0  0  0
M  CHG  1   7   1
M  END
$$$$
