C0Y
 OpenBabel04051920273D

 40 41  0  0  0  0  0  0  0  0999 V2000
    7.0038   -1.1178   10.0070 C   0  0  0  0  0  0  0  0  0  0  0  0
    6.3515   -1.5979   11.3094 C   0  0  0  0  0  0  0  0  0  0  0  0
    6.8355   -0.6716   12.4247 C   0  0  0  0  0  0  0  0  0  0  0  0
    4.8442   -1.4380   11.1457 C   0  0  0  0  0  0  0  0  0  0  0  0
    6.7178   -3.0442   11.6198 C   0  0  0  0  0  0  0  0  0  0  0  0
    7.6683   -3.6663   10.7797 C   0  0  0  0  0  0  0  0  0  0  0  0
    8.0998   -4.9680   10.9842 C   0  0  0  0  0  0  0  0  0  0  0  0
    7.5877   -5.6927   12.0517 C   0  0  0  0  0  0  0  0  0  0  0  0
    6.6457   -5.1090   12.9059 C   0  0  0  0  0  0  0  0  0  0  0  0
    6.2202   -3.7914   12.6903 C   0  0  0  0  0  0  0  0  0  0  0  0
    5.2892   -3.2736   13.5379 O   0  0  0  0  0  0  0  0  0  0  0  0
    9.1332   -5.5235   10.0791 C   0  0  0  0  0  0  0  0  0  0  0  0
   10.1783   -5.9387   10.6098 O   0  0  0  0  0  0  0  0  0  0  0  0
    8.9078   -5.5183    8.7157 N   0  0  0  0  0  0  0  0  0  0  0  0
    9.9422   -5.9760    7.7881 C   0  0  0  0  0  0  0  0  0  0  0  0
    9.4855   -7.2441    7.0736 C   0  0  0  0  0  0  0  0  0  0  0  0
    8.2095   -7.0457    6.4373 O   0  0  0  0  0  0  0  0  0  0  0  0
    7.2118   -6.6996    7.4171 C   0  0  0  0  0  0  0  0  0  0  0  0
    7.5756   -5.4094    8.1397 C   0  0  0  0  0  0  0  0  0  0  0  0
    6.7543   -0.0859    9.7764 H   0  0  0  0  0  0  0  0  0  0  0  0
    6.6851   -1.7483    9.1584 H   0  0  0  0  0  0  0  0  0  0  0  0
    8.1064   -1.1754   10.0798 H   0  0  0  0  0  0  0  0  0  0  0  0
    6.3839   -0.9493   13.3791 H   0  0  0  0  0  0  0  0  0  0  0  0
    6.5612    0.3678   12.2079 H   0  0  0  0  0  0  0  0  0  0  0  0
    7.9247   -0.7250   12.5277 H   0  0  0  0  0  0  0  0  0  0  0  0
    4.4714   -2.0855   10.3464 H   0  0  0  0  0  0  0  0  0  0  0  0
    4.5922   -0.3993   10.8979 H   0  0  0  0  0  0  0  0  0  0  0  0
    4.3254   -1.6920   12.0695 H   0  0  0  0  0  0  0  0  0  0  0  0
    8.0902   -3.1354    9.9387 H   0  0  0  0  0  0  0  0  0  0  0  0
    7.9209   -6.7054   12.2096 H   0  0  0  0  0  0  0  0  0  0  0  0
    6.2553   -5.6968   13.7292 H   0  0  0  0  0  0  0  0  0  0  0  0
    5.6431   -3.2981   14.4503 H   0  0  0  0  0  0  0  0  0  0  0  0
   10.8863   -6.1703    8.3078 H   0  0  0  0  0  0  0  0  0  0  0  0
   10.1046   -5.1789    7.0504 H   0  0  0  0  0  0  0  0  0  0  0  0
    9.3978   -8.0629    7.7956 H   0  0  0  0  0  0  0  0  0  0  0  0
   10.2171   -7.5215    6.3077 H   0  0  0  0  0  0  0  0  0  0  0  0
    7.1266   -7.5202    8.1366 H   0  0  0  0  0  0  0  0  0  0  0  0
    6.2551   -6.5707    6.9063 H   0  0  0  0  0  0  0  0  0  0  0  0
    7.5928   -4.5710    7.4348 H   0  0  0  0  0  0  0  0  0  0  0  0
    6.8303   -5.2207    8.9049 H   0  0  0  0  0  0  0  0  0  0  0  0
  1  2  1  0  0  0  0
  1 20  1  0  0  0  0
  1 21  1  0  0  0  0
  1 22  1  0  0  0  0
  2  3  1  0  0  0  0
  2  4  1  0  0  0  0
  2  5  1  0  0  0  0
  3 23  1  0  0  0  0
  3 24  1  0  0  0  0
  3 25  1  0  0  0  0
  4 26  1  0  0  0  0
  4 27  1  0  0  0  0
  4 28  1  0  0  0  0
  5  6  2  0  0  0  0
  5 10  1  0  0  0  0
  6  7  1  0  0  0  0
  6 29  1  0  0  0  0
  7  8  2  0  0  0  0
  7 12  1  0  0  0  0
  8  9  1  0  0  0  0
  8 30  1  0  0  0  0
  9 10  2  0  0  0  0
  9 31  1  0  0  0  0
 10 11  1  0  0  0  0
 11 32  1  0  0  0  0
 12 13  2  0  0  0  0
 12 14  1  0  0  0  0
 14 15  1  0  0  0  0
 14 19  1  0  0  0  0
 15 16  1  0  0  0  0
 15 33  1  0  0  0  0
 15 34  1  0  0  0  0
 16 17  1  0  0  0  0
 16 35  1  0  0  0  0
 16 36  1  0  0  0  0
 17 18  1  0  0  0  0
 18 19  1  0  0  0  0
 18 37  1  0  0  0  0
 18 38  1  0  0  0  0
 19 39  1  0  0  0  0
 19 40  1  0  0  0  0
M  END
$$$$
