C0Z
 OpenBabel04051920383D

 60 64  0  0  1  0  0  0  0  0999 V2000
    7.9896    6.3754   21.7586 O   0  0  0  0  0  0  0  0  0  0  0  0
    6.8744    5.9512   22.0233 C   0  0  0  0  0  0  0  0  0  0  0  0
    6.2745    4.7804   21.5563 N   0  0  0  0  0  0  0  0  0  0  0  0
    6.8978    3.8260   20.7213 C   0  0  0  0  0  0  0  0  0  0  0  0
    7.9781    4.1414   19.8744 C   0  0  0  0  0  0  0  0  0  0  0  0
    6.4262    2.5090   20.7485 C   0  0  0  0  0  0  0  0  0  0  0  0
    7.0144    1.5157   19.9693 C   0  0  0  0  0  0  0  0  0  0  0  0
    8.0682    1.8410   19.1312 C   0  0  0  0  0  0  0  0  0  0  0  0
    8.5532    3.1445   19.0880 C   0  0  0  0  0  0  0  0  0  0  0  0
    9.6886    3.2498   18.1141 C   0  0  0  0  0  0  0  0  0  0  0  0
   10.0861    1.7720   17.9050 C   0  0  0  0  0  0  0  0  0  0  0  0
    8.8183    0.9476   18.1865 C   0  0  2  0  0  0  0  0  0  0  0  0
    8.0900    0.6249   16.8884 N   0  3  0  0  0  0  0  0  0  0  0  0
    7.7009    1.8248   16.0734 C   0  0  0  0  0  0  0  0  0  0  0  0
    6.8443   -0.1585   17.1658 C   0  0  0  0  0  0  0  0  0  0  0  0
    5.8978    6.6090   22.9825 C   0  0  2  0  0  0  0  0  0  0  0  0
    4.5622    5.9780   22.6095 C   0  0  0  0  0  0  0  0  0  0  0  0
    4.9582    4.5943   22.1317 C   0  0  0  0  0  0  0  0  0  0  0  0
    5.8709    8.0417   22.8000 N   0  0  0  0  0  0  0  0  0  0  0  0
    6.3117    9.0723   24.0314 S   0  0  0  0  0  0  0  0  0  0  0  0
    6.2179   10.3863   23.4624 O   0  0  0  0  0  0  0  0  0  0  0  0
    5.5521    8.6872   25.1833 O   0  0  0  0  0  0  0  0  0  0  0  0
    8.0186    8.7508   24.3414 C   0  0  0  0  0  0  0  0  0  0  0  0
    8.3864    8.0907   25.5150 C   0  0  0  0  0  0  0  0  0  0  0  0
    9.7401    7.8679   25.7903 C   0  0  0  0  0  0  0  0  0  0  0  0
   10.7160    8.3347   24.8699 C   0  0  0  0  0  0  0  0  0  0  0  0
   10.3260    9.0272   23.7157 C   0  0  0  0  0  0  0  0  0  0  0  0
    8.9763    9.2398   23.4545 C   0  0  0  0  0  0  0  0  0  0  0  0
   10.1479    7.1970   26.9555 C   0  0  0  0  0  0  0  0  0  0  0  0
   11.5054    6.9844   27.2032 C   0  0  0  0  0  0  0  0  0  0  0  0
   12.4570    7.4453   26.2970 C   0  0  0  0  0  0  0  0  0  0  0  0
   14.1311    7.1841   26.5883 Cl  0  0  0  0  0  0  0  0  0  0  0  0
   12.0694    8.1121   25.1390 C   0  0  0  0  0  0  0  0  0  0  0  0
    8.3650    5.1551   19.8141 H   0  0  0  0  0  0  0  0  0  0  0  0
    5.6164    2.2319   21.4192 H   0  0  0  0  0  0  0  0  0  0  0  0
    6.6272    0.5072   20.0391 H   0  0  0  0  0  0  0  0  0  0  0  0
   10.5170    3.8383   18.5043 H   0  0  0  0  0  0  0  0  0  0  0  0
    9.3454    3.6911   17.1743 H   0  0  0  0  0  0  0  0  0  0  0  0
   10.8683    1.4963   18.6275 H   0  0  0  0  0  0  0  0  0  0  0  0
   10.5033    1.5909   16.9070 H   0  0  0  0  0  0  0  0  0  0  0  0
    9.0674   -0.0084   18.6592 H   0  0  0  0  0  0  0  0  0  0  0  0
    7.2136    1.4760   15.1619 H   0  0  0  0  0  0  0  0  0  0  0  0
    8.5955    2.3812   15.8046 H   0  0  0  0  0  0  0  0  0  0  0  0
    7.0109    2.4257   16.6705 H   0  0  0  0  0  0  0  0  0  0  0  0
    7.1097   -1.0444   17.7426 H   0  0  0  0  0  0  0  0  0  0  0  0
    6.3882   -0.4261   16.2118 H   0  0  0  0  0  0  0  0  0  0  0  0
    6.1655    0.4902   17.7233 H   0  0  0  0  0  0  0  0  0  0  0  0
    6.1736    6.3400   24.0053 H   0  0  0  0  0  0  0  0  0  0  0  0
    4.0564    6.5302   21.8050 H   0  0  0  0  0  0  0  0  0  0  0  0
    3.8759    5.9330   23.4611 H   0  0  0  0  0  0  0  0  0  0  0  0
    5.0087    3.8877   22.9689 H   0  0  0  0  0  0  0  0  0  0  0  0
    4.2599    4.2132   21.3767 H   0  0  0  0  0  0  0  0  0  0  0  0
    5.6630    8.4738   21.9049 H   0  0  0  0  0  0  0  0  0  0  0  0
    7.6155    7.7522   26.2055 H   0  0  0  0  0  0  0  0  0  0  0  0
   11.0696    9.3815   23.0011 H   0  0  0  0  0  0  0  0  0  0  0  0
    8.6773    9.7759   22.5574 H   0  0  0  0  0  0  0  0  0  0  0  0
    9.4122    6.8366   27.6742 H   0  0  0  0  0  0  0  0  0  0  0  0
   11.8120    6.4569   28.1017 H   0  0  0  0  0  0  0  0  0  0  0  0
   12.8328    8.4631   24.4486 H   0  0  0  0  0  0  0  0  0  0  0  0
    8.7211    0.0378   16.3203 H   0  0  0  0  0  0  0  0  0  0  0  0
  1  2  2  0  0  0  0
  2  3  1  0  0  0  0
  2 16  1  0  0  0  0
  3  4  1  0  0  0  0
  3 18  1  0  0  0  0
  4  5  2  0  0  0  0
  4  6  1  0  0  0  0
  5  9  1  0  0  0  0
  5 34  1  0  0  0  0
  6  7  2  0  0  0  0
  6 35  1  0  0  0  0
  7  8  1  0  0  0  0
  7 36  1  0  0  0  0
  8  9  2  0  0  0  0
  8 12  1  0  0  0  0
  9 10  1  0  0  0  0
 10 11  1  0  0  0  0
 10 37  1  0  0  0  0
 10 38  1  0  0  0  0
 11 12  1  0  0  0  0
 11 39  1  0  0  0  0
 11 40  1  0  0  0  0
 12 13  1  0  0  0  0
 12 41  1  1  0  0  0
 13 14  1  0  0  0  0
 13 15  1  0  0  0  0
 13 60  1  0  0  0  0
 14 42  1  0  0  0  0
 14 43  1  0  0  0  0
 14 44  1  0  0  0  0
 15 45  1  0  0  0  0
 15 46  1  0  0  0  0
 15 47  1  0  0  0  0
 16 17  1  0  0  0  0
 16 19  1  0  0  0  0
 16 48  1  1  0  0  0
 17 18  1  0  0  0  0
 17 49  1  0  0  0  0
 17 50  1  0  0  0  0
 18 51  1  0  0  0  0
 18 52  1  0  0  0  0
 19 20  1  0  0  0  0
 19 53  1  0  0  0  0
 20 21  2  0  0  0  0
 20 22  2  0  0  0  0
 20 23  1  0  0  0  0
 23 24  2  0  0  0  0
 23 28  1  0  0  0  0
 24 25  1  0  0  0  0
 24 54  1  0  0  0  0
 25 26  2  0  0  0  0
 25 29  1  0  0  0  0
 26 27  1  0  0  0  0
 26 33  1  0  0  0  0
 27 28  2  0  0  0  0
 27 55  1  0  0  0  0
 28 56  1  0  0  0  0
 29 30  2  0  0  0  0
 29 57  1  0  0  0  0
 30 31  1  0  0  0  0
 30 58  1  0  0  0  0
 31 32  1  0  0  0  0
 31 33  2  0  0  0  0
 33 59  1  0  0  0  0
M  CHG  1  13   1
M  END
$$$$
