C2F
 OpenBabel04051917433D

 56 58  0  0  1  0  0  0  0  0999 V2000
   -9.2085   76.0936  120.9239 N   0  0  0  0  0  0  0  0  0  0  0  0
   -8.5667   77.1397  120.4992 C   0  0  0  0  0  0  0  0  0  0  0  0
   -8.1418   78.0826  121.3625 N   0  0  0  0  0  0  0  0  0  0  0  0
   -8.2928   77.3440  119.1827 N   0  3  0  0  0  0  0  0  0  0  0  0
   -8.6972   76.4952  118.2006 C   0  0  0  0  0  0  0  0  0  0  0  0
   -8.4611   76.7361  117.0273 O   0  0  0  0  0  0  0  0  0  0  0  0
   -9.4440   75.2771  118.6746 C   0  0  0  0  0  0  0  0  0  0  0  0
   -9.9296   74.3293  117.7313 N   0  0  0  0  0  0  0  0  0  0  0  0
  -10.0821   72.9278  118.2682 C   0  0  2  0  0  0  0  0  0  0  0  0
  -10.8438   72.9765  119.6212 C   0  0  0  0  0  0  0  0  0  0  0  0
  -10.3169   74.0359  120.4840 N   0  0  0  0  0  0  0  0  0  0  0  0
   -9.6361   75.1582  120.0242 C   0  0  0  0  0  0  0  0  0  0  0  0
   -8.6883   72.2703  118.4500 C   0  0  0  0  0  0  0  0  0  0  0  0
   -8.7867   70.8280  118.6234 N   0  0  0  0  0  0  0  0  0  0  0  0
  -11.1246   74.7594  116.9873 C   0  0  0  0  0  0  0  0  0  0  0  0
   -9.3858   68.0241  115.5514 C   0  0  0  0  0  0  0  0  0  0  0  0
   -9.4955   67.6626  116.8977 C   0  0  0  0  0  0  0  0  0  0  0  0
   -9.2761   68.6098  117.8976 C   0  0  0  0  0  0  0  0  0  0  0  0
   -8.9409   69.9317  117.5831 C   0  0  0  0  0  0  0  0  0  0  0  0
   -8.8543   70.2833  116.2291 C   0  0  0  0  0  0  0  0  0  0  0  0
   -9.0597   69.3371  115.2159 C   0  0  0  0  0  0  0  0  0  0  0  0
   -9.5728   67.0050  114.4841 C   0  0  0  0  0  0  0  0  0  0  0  0
   -8.8434   67.0301  113.5029 O   0  0  0  0  0  0  0  0  0  0  0  0
  -10.5675   66.1008  114.7583 N   0  0  0  0  0  0  0  0  0  0  0  0
  -11.0455   65.0682  113.8108 C   0  0  1  0  0  0  0  0  0  0  0  0
  -12.3080   64.4143  114.4145 C   0  0  0  0  0  0  0  0  0  0  0  0
  -12.1953   62.8949  114.4974 C   0  0  0  0  0  0  0  0  0  0  0  0
  -13.5037   62.2018  114.9025 C   0  0  0  0  0  0  0  0  0  0  0  0
  -14.5001   62.9381  115.1453 O   0  0  0  0  0  0  0  0  0  0  0  0
  -13.4223   60.9404  114.9941 O   0  0  0  0  0  0  0  0  0  0  0  0
  -11.4134   65.5871  112.3738 C   0  0  0  0  0  0  0  0  0  0  0  0
  -12.0821   66.6666  112.3296 O   0  0  0  0  0  0  0  0  0  0  0  0
  -11.0057   64.8647  111.4130 O   0  0  0  0  0  0  0  0  0  0  0  0
   -8.3329   77.9235  122.3487 H   0  0  0  0  0  0  0  0  0  0  0  0
   -7.6095   78.8949  121.0982 H   0  0  0  0  0  0  0  0  0  0  0  0
   -7.7869   78.1578  118.8761 H   0  0  0  0  0  0  0  0  0  0  0  0
  -10.6621   72.3238  117.5574 H   0  0  0  0  0  0  0  0  0  0  0  0
  -10.7819   72.0152  120.1409 H   0  0  0  0  0  0  0  0  0  0  0  0
  -11.9065   73.1718  119.4325 H   0  0  0  0  0  0  0  0  0  0  0  0
  -10.5162   74.0283  121.4736 H   0  0  0  0  0  0  0  0  0  0  0  0
   -8.1886   72.6805  119.3350 H   0  0  0  0  0  0  0  0  0  0  0  0
   -8.0315   72.5162  117.6087 H   0  0  0  0  0  0  0  0  0  0  0  0
   -8.6534   70.4527  119.5553 H   0  0  0  0  0  0  0  0  0  0  0  0
  -10.9701   75.7343  116.5159 H   0  0  0  0  0  0  0  0  0  0  0  0
  -11.9722   74.8469  117.6779 H   0  0  0  0  0  0  0  0  0  0  0  0
  -11.3933   74.0417  116.2059 H   0  0  0  0  0  0  0  0  0  0  0  0
   -9.7327   66.6388  117.1742 H   0  0  0  0  0  0  0  0  0  0  0  0
   -9.3738   68.3000  118.9344 H   0  0  0  0  0  0  0  0  0  0  0  0
   -8.6060   71.2953  115.9238 H   0  0  0  0  0  0  0  0  0  0  0  0
   -8.9749   69.6252  114.1697 H   0  0  0  0  0  0  0  0  0  0  0  0
  -11.1971   66.3012  115.5179 H   0  0  0  0  0  0  0  0  0  0  0  0
  -10.2317   64.3370  113.7300 H   0  0  0  0  0  0  0  0  0  0  0  0
  -13.2010   64.6896  113.8408 H   0  0  0  0  0  0  0  0  0  0  0  0
  -12.4920   64.7790  115.4356 H   0  0  0  0  0  0  0  0  0  0  0  0
  -11.4203   62.6304  115.2300 H   0  0  0  0  0  0  0  0  0  0  0  0
  -11.8747   62.4997  113.5271 H   0  0  0  0  0  0  0  0  0  0  0  0
  1  2  2  0  0  0  0
  1 12  1  0  0  0  0
  2  3  1  0  0  0  0
  2  4  1  0  0  0  0
  3 34  1  0  0  0  0
  3 35  1  0  0  0  0
  4  5  1  0  0  0  0
  4 36  1  0  0  0  0
  5  6  2  0  0  0  0
  5  7  1  0  0  0  0
  7  8  1  0  0  0  0
  7 12  2  0  0  0  0
  8  9  1  0  0  0  0
  8 15  1  0  0  0  0
  9 10  1  0  0  0  0
  9 13  1  0  0  0  0
  9 37  1  6  0  0  0
 10 11  1  0  0  0  0
 10 38  1  0  0  0  0
 10 39  1  0  0  0  0
 11 12  1  0  0  0  0
 11 40  1  0  0  0  0
 13 14  1  0  0  0  0
 13 41  1  0  0  0  0
 13 42  1  0  0  0  0
 14 19  1  0  0  0  0
 14 43  1  0  0  0  0
 15 44  1  0  0  0  0
 15 45  1  0  0  0  0
 15 46  1  0  0  0  0
 16 17  2  0  0  0  0
 16 21  1  0  0  0  0
 16 22  1  0  0  0  0
 17 18  1  0  0  0  0
 17 47  1  0  0  0  0
 18 19  2  0  0  0  0
 18 48  1  0  0  0  0
 19 20  1  0  0  0  0
 20 21  2  0  0  0  0
 20 49  1  0  0  0  0
 21 50  1  0  0  0  0
 22 23  2  0  0  0  0
 22 24  1  0  0  0  0
 24 25  1  0  0  0  0
 24 51  1  0  0  0  0
 25 26  1  0  0  0  0
 25 31  1  0  0  0  0
 25 52  1  6  0  0  0
 26 27  1  0  0  0  0
 26 53  1  0  0  0  0
 26 54  1  0  0  0  0
 27 28  1  0  0  0  0
 27 55  1  0  0  0  0
 27 56  1  0  0  0  0
 28 29  2  0  0  0  0
 28 30  1  0  0  0  0
 31 32  2  0  0  0  0
 31 33  1  0  0  0  0
M  CHG  1   4   1
M  END
$$$$
