C2F
 OpenBabel04051918373D

 56 58  0  0  1  0  0  0  0  0999 V2000
   -9.2282   76.3226  121.3054 N   0  0  0  0  0  0  0  0  0  0  0  0
   -8.6032   77.3586  120.8695 C   0  0  0  0  0  0  0  0  0  0  0  0
   -8.1781   78.3299  121.7259 N   0  0  0  0  0  0  0  0  0  0  0  0
   -8.3305   77.5617  119.5463 N   0  3  0  0  0  0  0  0  0  0  0  0
   -8.7392   76.7043  118.5790 C   0  0  0  0  0  0  0  0  0  0  0  0
   -8.5009   76.9365  117.3949 O   0  0  0  0  0  0  0  0  0  0  0  0
   -9.4817   75.4840  119.0620 C   0  0  0  0  0  0  0  0  0  0  0  0
   -9.9804   74.5327  118.1230 N   0  0  0  0  0  0  0  0  0  0  0  0
  -10.1448   73.1330  118.6616 C   0  0  2  0  0  0  0  0  0  0  0  0
  -10.8747   73.1848  120.0315 C   0  0  0  0  0  0  0  0  0  0  0  0
  -10.3431   74.2524  120.8829 N   0  0  0  0  0  0  0  0  0  0  0  0
   -9.6689   75.3759  120.4071 C   0  0  0  0  0  0  0  0  0  0  0  0
   -8.7629   72.4475  118.8077 C   0  0  0  0  0  0  0  0  0  0  0  0
   -8.8812   70.9998  118.9308 N   0  0  0  0  0  0  0  0  0  0  0  0
  -11.1783   74.9667  117.3863 C   0  0  0  0  0  0  0  0  0  0  0  0
   -9.3949   68.2916  115.7529 C   0  0  0  0  0  0  0  0  0  0  0  0
   -9.5421   67.8872  117.0837 C   0  0  0  0  0  0  0  0  0  0  0  0
   -9.3534   68.8039  118.1214 C   0  0  0  0  0  0  0  0  0  0  0  0
   -9.0128   70.1377  117.8590 C   0  0  0  0  0  0  0  0  0  0  0  0
   -8.8880   70.5307  116.5169 C   0  0  0  0  0  0  0  0  0  0  0  0
   -9.0588   69.6159  115.4683 C   0  0  0  0  0  0  0  0  0  0  0  0
   -9.5624   67.3049  114.6505 C   0  0  0  0  0  0  0  0  0  0  0  0
   -8.7439   67.2817  113.7415 O   0  0  0  0  0  0  0  0  0  0  0  0
  -10.6406   66.4711  114.8188 N   0  0  0  0  0  0  0  0  0  0  0  0
  -11.0863   65.4673  113.8194 C   0  0  1  0  0  0  0  0  0  0  0  0
  -12.2677   64.6748  114.4206 C   0  0  0  0  0  0  0  0  0  0  0  0
  -12.1602   63.1753  114.1383 C   0  0  0  0  0  0  0  0  0  0  0  0
  -13.3285   62.3809  114.7376 C   0  0  0  0  0  0  0  0  0  0  0  0
  -14.4495   62.9620  114.7798 O   0  0  0  0  0  0  0  0  0  0  0  0
  -13.0376   61.2156  115.1443 O   0  0  0  0  0  0  0  0  0  0  0  0
  -11.4910   66.0545  112.4166 C   0  0  0  0  0  0  0  0  0  0  0  0
  -12.1149   67.1618  112.4373 O   0  0  0  0  0  0  0  0  0  0  0  0
  -11.1348   65.3649  111.4124 O   0  0  0  0  0  0  0  0  0  0  0  0
   -8.3425   78.1720  122.7131 H   0  0  0  0  0  0  0  0  0  0  0  0
   -7.6435   79.1266  121.4330 H   0  0  0  0  0  0  0  0  0  0  0  0
   -7.8423   78.3803  119.2442 H   0  0  0  0  0  0  0  0  0  0  0  0
  -10.7510   72.5394  117.9637 H   0  0  0  0  0  0  0  0  0  0  0  0
  -10.7878   72.2258  120.5515 H   0  0  0  0  0  0  0  0  0  0  0  0
  -11.9439   73.3672  119.8650 H   0  0  0  0  0  0  0  0  0  0  0  0
  -10.5242   74.2358  121.8770 H   0  0  0  0  0  0  0  0  0  0  0  0
   -8.2532   72.8218  119.7024 H   0  0  0  0  0  0  0  0  0  0  0  0
   -8.1130   72.7103  117.9676 H   0  0  0  0  0  0  0  0  0  0  0  0
   -8.8116   70.5950  119.8568 H   0  0  0  0  0  0  0  0  0  0  0  0
  -11.0270   75.9429  116.9177 H   0  0  0  0  0  0  0  0  0  0  0  0
  -12.0169   75.0502  118.0874 H   0  0  0  0  0  0  0  0  0  0  0  0
  -11.4592   74.2532  116.6037 H   0  0  0  0  0  0  0  0  0  0  0  0
   -9.7868   66.8539  117.3173 H   0  0  0  0  0  0  0  0  0  0  0  0
   -9.4776   68.4642  119.1461 H   0  0  0  0  0  0  0  0  0  0  0  0
   -8.6313   71.5521  116.2518 H   0  0  0  0  0  0  0  0  0  0  0  0
   -8.9437   69.9341  114.4336 H   0  0  0  0  0  0  0  0  0  0  0  0
  -11.3214   66.7023  115.5246 H   0  0  0  0  0  0  0  0  0  0  0  0
  -10.2317   64.7976  113.6745 H   0  0  0  0  0  0  0  0  0  0  0  0
  -13.2235   65.0590  114.0421 H   0  0  0  0  0  0  0  0  0  0  0  0
  -12.3037   64.8027  115.5127 H   0  0  0  0  0  0  0  0  0  0  0  0
  -11.2092   62.7974  114.5391 H   0  0  0  0  0  0  0  0  0  0  0  0
  -12.1451   63.0120  113.0553 H   0  0  0  0  0  0  0  0  0  0  0  0
  1  2  2  0  0  0  0
  1 12  1  0  0  0  0
  2  3  1  0  0  0  0
  2  4  1  0  0  0  0
  3 34  1  0  0  0  0
  3 35  1  0  0  0  0
  4  5  1  0  0  0  0
  4 36  1  0  0  0  0
  5  6  2  0  0  0  0
  5  7  1  0  0  0  0
  7  8  1  0  0  0  0
  7 12  2  0  0  0  0
  8  9  1  0  0  0  0
  8 15  1  0  0  0  0
  9 10  1  0  0  0  0
  9 13  1  0  0  0  0
  9 37  1  6  0  0  0
 10 11  1  0  0  0  0
 10 38  1  0  0  0  0
 10 39  1  0  0  0  0
 11 12  1  0  0  0  0
 11 40  1  0  0  0  0
 13 14  1  0  0  0  0
 13 41  1  0  0  0  0
 13 42  1  0  0  0  0
 14 19  1  0  0  0  0
 14 43  1  0  0  0  0
 15 44  1  0  0  0  0
 15 45  1  0  0  0  0
 15 46  1  0  0  0  0
 16 17  2  0  0  0  0
 16 21  1  0  0  0  0
 16 22  1  0  0  0  0
 17 18  1  0  0  0  0
 17 47  1  0  0  0  0
 18 19  2  0  0  0  0
 18 48  1  0  0  0  0
 19 20  1  0  0  0  0
 20 21  2  0  0  0  0
 20 49  1  0  0  0  0
 21 50  1  0  0  0  0
 22 23  2  0  0  0  0
 22 24  1  0  0  0  0
 24 25  1  0  0  0  0
 24 51  1  0  0  0  0
 25 26  1  0  0  0  0
 25 31  1  0  0  0  0
 25 52  1  6  0  0  0
 26 27  1  0  0  0  0
 26 53  1  0  0  0  0
 26 54  1  0  0  0  0
 27 28  1  0  0  0  0
 27 55  1  0  0  0  0
 27 56  1  0  0  0  0
 28 29  2  0  0  0  0
 28 30  1  0  0  0  0
 31 32  2  0  0  0  0
 31 33  1  0  0  0  0
M  CHG  1   4   1
M  END
$$$$
