C2R
 OpenBabel04051918313D

 33 34  0  0  1  0  0  0  0  0999 V2000
   15.5424  -11.7975   -9.2604 P   0  0  0  0  0  0  0  0  0  0  0  0
   14.3511  -11.6896   -8.3187 O   0  0  0  0  0  0  0  0  0  0  0  0
   16.5020  -12.9299   -8.9293 O   0  0  0  0  0  0  0  0  0  0  0  0
   16.2048  -10.4661   -9.5832 O   0  0  0  0  0  0  0  0  0  0  0  0
   14.6855  -14.2616  -15.0529 N   0  3  0  0  0  0  0  0  0  0  0  0
   14.5903  -14.4952  -16.4068 C   0  0  0  0  0  0  0  0  0  0  0  0
   15.4791  -15.5103  -16.6828 C   0  0  0  0  0  0  0  0  0  0  0  0
   16.1441  -15.8910  -15.5151 N   0  0  0  0  0  0  0  0  0  0  0  0
   15.6554  -15.1112  -14.5765 C   0  0  0  0  0  0  0  0  0  0  0  0
   13.7353  -13.8302  -17.2127 N   0  0  0  0  0  0  0  0  0  0  0  0
   15.6811  -16.1243  -18.0559 C   0  0  0  0  0  0  0  0  0  0  0  0
   14.9604  -15.6762  -19.0178 O   0  0  0  0  0  0  0  0  0  0  0  0
   16.5538  -17.0510  -18.1875 O   0  0  0  0  0  0  0  0  0  0  0  0
   14.8679  -12.2754  -10.6786 O   0  0  0  0  0  0  0  0  0  0  0  0
   13.1174  -14.2928  -13.1121 C   0  0  2  0  0  0  0  0  0  0  0  0
   12.0930  -15.1765  -13.5843 O   0  0  0  0  0  0  0  0  0  0  0  0
   12.5554  -13.1813  -12.2379 C   0  0  2  0  0  0  0  0  0  0  0  0
   11.1795  -12.9226  -12.5935 O   0  0  0  0  0  0  0  0  0  0  0  0
   14.0508  -11.3286  -11.3427 C   0  0  0  0  0  0  0  0  0  0  0  0
   13.4250  -11.9628  -12.5805 C   0  0  1  0  0  0  0  0  0  0  0  0
   14.4021  -12.3945  -13.5729 O   0  0  0  0  0  0  0  0  0  0  0  0
   13.7644  -13.4940  -14.2342 C   0  0  1  0  0  0  0  0  0  0  0  0
   15.9304  -15.1438  -13.5274 H   0  0  0  0  0  0  0  0  0  0  0  0
   13.8353  -14.0380  -18.2173 H   0  0  0  0  0  0  0  0  0  0  0  0
   13.2403  -12.9849  -16.9716 H   0  0  0  0  0  0  0  0  0  0  0  0
   13.8716  -14.8593  -12.5490 H   0  0  0  0  0  0  0  0  0  0  0  0
   11.7463  -15.6432  -12.8073 H   0  0  0  0  0  0  0  0  0  0  0  0
   12.5697  -13.4469  -11.1771 H   0  0  0  0  0  0  0  0  0  0  0  0
   10.7264  -13.7798  -12.5225 H   0  0  0  0  0  0  0  0  0  0  0  0
   14.6473  -10.4616  -11.6417 H   0  0  0  0  0  0  0  0  0  0  0  0
   13.2476  -10.9957  -10.6737 H   0  0  0  0  0  0  0  0  0  0  0  0
   12.8114  -11.2082  -13.0918 H   0  0  0  0  0  0  0  0  0  0  0  0
   12.9911  -13.0794  -14.8920 H   0  0  0  0  0  0  0  0  0  0  0  0
  1  2  2  0  0  0  0
  1  3  1  0  0  0  0
  1  4  1  0  0  0  0
  1 14  1  0  0  0  0
  5  6  1  0  0  0  0
  5  9  2  0  0  0  0
  5 22  1  0  0  0  0
  6  7  2  0  0  0  0
  6 10  1  0  0  0  0
  7  8  1  0  0  0  0
  7 11  1  0  0  0  0
  8  9  1  0  0  0  0
  9 23  1  0  0  0  0
 10 24  1  0  0  0  0
 10 25  1  0  0  0  0
 11 12  2  0  0  0  0
 11 13  1  0  0  0  0
 14 19  1  0  0  0  0
 15 16  1  0  0  0  0
 15 17  1  0  0  0  0
 15 22  1  0  0  0  0
 15 26  1  1  0  0  0
 16 27  1  0  0  0  0
 17 18  1  0  0  0  0
 17 20  1  0  0  0  0
 17 28  1  1  0  0  0
 18 29  1  0  0  0  0
 19 20  1  0  0  0  0
 19 30  1  0  0  0  0
 19 31  1  0  0  0  0
 20 21  1  0  0  0  0
 20 32  1  6  0  0  0
 21 22  1  0  0  0  0
 22 33  1  6  0  0  0
M  CHG  1   5   1
M  END
$$$$
