CCT
 OpenBabel04051917403D

 40 42  0  0  0  0  0  0  0  0999 V2000
   12.9200   30.8583   73.5520 C   0  0  0  0  0  0  0  0  0  0  0  0
   12.8937   29.5999   72.9211 C   0  0  0  0  0  0  0  0  0  0  0  0
   11.6844   28.8871   72.8798 C   0  0  0  0  0  0  0  0  0  0  0  0
   10.5185   29.4232   73.4552 C   0  0  0  0  0  0  0  0  0  0  0  0
   10.5266   30.6859   74.0834 C   0  0  0  0  0  0  0  0  0  0  0  0
   11.7468   31.3953   74.1309 C   0  0  0  0  0  0  0  0  0  0  0  0
    6.8864   31.8017   75.1319 C   0  0  0  0  0  0  0  0  0  0  0  0
    7.7328   32.4085   76.0401 C   0  0  0  0  0  0  0  0  0  0  0  0
    9.1046   32.0705   75.7656 C   0  0  0  0  0  0  0  0  0  0  0  0
    9.2818   31.2380   74.6733 C   0  0  0  0  0  0  0  0  0  0  0  0
    7.7504   30.8728   73.9781 S   0  0  0  0  0  0  0  0  0  0  0  0
   14.0947   29.0357   72.3106 C   0  0  0  0  0  0  0  0  0  0  0  0
   15.0267   28.5900   71.8217 N   0  0  0  0  0  0  0  0  0  0  0  0
    5.4018   31.9473   75.1018 C   0  0  0  0  0  0  0  0  0  0  0  0
    4.7611   31.2095   74.2894 O   0  0  0  0  0  0  0  0  0  0  0  0
    4.8795   32.7974   75.8963 O   0  0  0  0  0  0  0  0  0  0  0  0
    7.3467   33.2332   77.1109 N   0  0  0  0  0  0  0  0  0  0  0  0
    8.2755   34.4830   77.7389 S   0  0  0  0  0  0  0  0  0  0  0  0
    7.7867   36.4618   75.7137 C   0  0  0  0  0  0  0  0  0  0  0  0
    8.7304   35.6689   76.4096 C   0  0  0  0  0  0  0  0  0  0  0  0
   10.1124   35.8320   76.1416 C   0  0  0  0  0  0  0  0  0  0  0  0
   10.5601   36.7410   75.1669 C   0  0  0  0  0  0  0  0  0  0  0  0
    9.6298   37.5135   74.4622 C   0  0  0  0  0  0  0  0  0  0  0  0
    8.2548   37.3759   74.7318 C   0  0  0  0  0  0  0  0  0  0  0  0
    6.2999   36.3655   75.9503 C   0  0  0  0  0  0  0  0  0  0  0  0
    9.5086   33.8946   78.2330 O   0  0  0  0  0  0  0  0  0  0  0  0
    7.4603   35.2112   78.6893 O   0  0  0  0  0  0  0  0  0  0  0  0
   13.8517   31.4306   73.5987 H   0  0  0  0  0  0  0  0  0  0  0  0
   11.6350   27.9070   72.3984 H   0  0  0  0  0  0  0  0  0  0  0  0
    9.5885   28.8473   73.4120 H   0  0  0  0  0  0  0  0  0  0  0  0
   11.7909   32.3779   74.6107 H   0  0  0  0  0  0  0  0  0  0  0  0
    9.9351   32.4171   76.3675 H   0  0  0  0  0  0  0  0  0  0  0  0
    6.4140   33.0903   77.5385 H   0  0  0  0  0  0  0  0  0  0  0  0
   10.8463   35.2375   76.6909 H   0  0  0  0  0  0  0  0  0  0  0  0
   11.6298   36.8392   74.9625 H   0  0  0  0  0  0  0  0  0  0  0  0
    9.9709   38.2229   73.7035 H   0  0  0  0  0  0  0  0  0  0  0  0
    7.5373   37.9841   74.1697 H   0  0  0  0  0  0  0  0  0  0  0  0
    6.0733   35.6326   76.7254 H   0  0  0  0  0  0  0  0  0  0  0  0
    5.7857   36.0595   75.0298 H   0  0  0  0  0  0  0  0  0  0  0  0
    5.9011   37.3379   76.2718 H   0  0  0  0  0  0  0  0  0  0  0  0
  1  2  2  0  0  0  0
  1  6  1  0  0  0  0
  1 28  1  0  0  0  0
  2  3  1  0  0  0  0
  2 12  1  0  0  0  0
  3  4  2  0  0  0  0
  3 29  1  0  0  0  0
  4  5  1  0  0  0  0
  4 30  1  0  0  0  0
  5  6  2  0  0  0  0
  5 10  1  0  0  0  0
  6 31  1  0  0  0  0
  7  8  2  0  0  0  0
  7 11  1  0  0  0  0
  7 14  1  0  0  0  0
  8  9  1  0  0  0  0
  8 17  1  0  0  0  0
  9 10  2  0  0  0  0
  9 32  1  0  0  0  0
 10 11  1  0  0  0  0
 12 13  3  0  0  0  0
 14 15  2  0  0  0  0
 14 16  1  0  0  0  0
 17 18  1  0  0  0  0
 17 33  1  0  0  0  0
 18 20  1  0  0  0  0
 18 26  2  0  0  0  0
 18 27  2  0  0  0  0
 19 20  2  0  0  0  0
 19 24  1  0  0  0  0
 19 25  1  0  0  0  0
 20 21  1  0  0  0  0
 21 22  2  0  0  0  0
 21 34  1  0  0  0  0
 22 23  1  0  0  0  0
 22 35  1  0  0  0  0
 23 24  2  0  0  0  0
 23 36  1  0  0  0  0
 24 37  1  0  0  0  0
 25 38  1  0  0  0  0
 25 39  1  0  0  0  0
 25 40  1  0  0  0  0
M  END
$$$$
