CGB
 OpenBabel04051917323D

 26 27  0  0  1  0  0  0  0  0999 V2000
    0.6022   12.8391   10.4235 O   0  0  0  0  0  0  0  0  0  0  0  0
    0.0305   11.6481    9.9549 C   0  0  2  0  0  0  0  0  0  0  0  0
   -1.0757   11.2223   10.8340 N   0  3  0  0  0  0  0  0  0  0  0  0
    1.0085   10.4676   10.0882 C   0  0  0  0  0  0  0  0  0  0  0  0
    0.1146    9.2433   10.3076 C   0  0  0  0  0  0  0  0  0  0  0  0
   -1.3087    9.7985   10.4419 C   0  0  2  0  0  0  0  0  0  0  0  0
   -0.4829   11.7843    8.4821 C   0  0  1  0  0  0  0  0  0  0  0  0
    0.6209   12.0792    7.6153 O   0  0  0  0  0  0  0  0  0  0  0  0
   -1.1752   10.4762    8.0026 C   0  0  2  0  0  0  0  0  0  0  0  0
   -1.9816   10.7456    6.8582 O   0  0  0  0  0  0  0  0  0  0  0  0
   -2.0683    9.8602    9.0976 C   0  0  1  0  0  0  0  0  0  0  0  0
   -2.5686    8.5861    8.7204 O   0  0  0  0  0  0  0  0  0  0  0  0
   -0.0207   13.5725   10.3287 H   0  0  0  0  0  0  0  0  0  0  0  0
   -0.7516   11.2911   11.8058 H   0  0  0  0  0  0  0  0  0  0  0  0
    1.6885   10.6091   10.9357 H   0  0  0  0  0  0  0  0  0  0  0  0
    1.6407   10.3463    9.2026 H   0  0  0  0  0  0  0  0  0  0  0  0
    0.4223    8.7216   11.2214 H   0  0  0  0  0  0  0  0  0  0  0  0
    0.2058    8.5225    9.4897 H   0  0  0  0  0  0  0  0  0  0  0  0
   -1.8865    9.2998   11.2260 H   0  0  0  0  0  0  0  0  0  0  0  0
   -1.1733   12.6313    8.3984 H   0  0  0  0  0  0  0  0  0  0  0  0
    1.0533   12.9028    7.9036 H   0  0  0  0  0  0  0  0  0  0  0  0
   -0.4217    9.7507    7.6731 H   0  0  0  0  0  0  0  0  0  0  0  0
   -2.3823    9.8991    6.5723 H   0  0  0  0  0  0  0  0  0  0  0  0
   -2.9602   10.4921    9.2228 H   0  0  0  0  0  0  0  0  0  0  0  0
   -1.8484    7.9386    8.6035 H   0  0  0  0  0  0  0  0  0  0  0  0
   -1.9095   11.8077   10.7523 H   0  0  0  0  0  0  0  0  0  0  0  0
  1 13  1  0  0  0  0
  2  1  1  1  0  0  0
  2  3  1  0  0  0  0
  2  4  1  0  0  0  0
  2  7  1  0  0  0  0
  3  6  1  0  0  0  0
  3 14  1  0  0  0  0
  3 26  1  0  0  0  0
  4  5  1  0  0  0  0
  4 15  1  0  0  0  0
  4 16  1  0  0  0  0
  5  6  1  0  0  0  0
  5 17  1  0  0  0  0
  5 18  1  0  0  0  0
  6 11  1  0  0  0  0
  6 19  1  1  0  0  0
  7  8  1  0  0  0  0
  7  9  1  0  0  0  0
  7 20  1  6  0  0  0
  8 21  1  0  0  0  0
  9 10  1  0  0  0  0
  9 11  1  0  0  0  0
  9 22  1  6  0  0  0
 10 23  1  0  0  0  0
 11 12  1  0  0  0  0
 11 24  1  1  0  0  0
 12 25  1  0  0  0  0
M  CHG  1   3   1
M  END
$$$$
