CI9
 OpenBabel04051920253D

 91 92  0  0  1  0  0  0  0  0999 V2000
   13.7112   48.5755   40.6108 O   0  0  0  0  0  0  0  0  0  0  0  0
   13.7272   47.3359   40.3374 C   0  0  0  0  0  0  0  0  0  0  0  0
   12.9109   46.7058   39.6054 O   0  0  0  0  0  0  0  0  0  0  0  0
   14.8677   46.5431   40.9897 C   0  0  0  0  0  0  0  0  0  0  0  0
   14.6696   45.0280   41.0819 C   0  0  0  0  0  0  0  0  0  0  0  0
   15.9688   44.3122   41.4873 C   0  0  1  0  0  0  0  0  0  0  0  0
   16.9642   44.4448   40.2506 C   0  0  0  0  0  0  0  0  0  0  0  0
   16.7649   43.5881   39.3313 O   0  0  0  0  0  0  0  0  0  0  0  0
   17.8150   45.3862   40.3088 O   0  0  0  0  0  0  0  0  0  0  0  0
   16.5348   44.8523   42.7208 N   0  0  0  0  0  0  0  0  0  0  0  0
   17.7929   44.4391   43.0262 C   0  0  0  0  0  0  0  0  0  0  0  0
   18.2961   43.4041   42.5778 O   0  0  0  0  0  0  0  0  0  0  0  0
   18.4362   45.2046   43.9377 N   0  0  0  0  0  0  0  0  0  0  0  0
   19.8261   44.9223   44.3623 C   0  0  2  0  0  0  0  0  0  0  0  0
   20.0891   45.5857   45.7335 C   0  0  0  0  0  0  0  0  0  0  0  0
   19.5624   46.7317   45.8854 O   0  0  0  0  0  0  0  0  0  0  0  0
   20.7646   44.9118   46.5655 O   0  0  0  0  0  0  0  0  0  0  0  0
   20.6915   45.5839   43.3077 C   0  0  0  0  0  0  0  0  0  0  0  0
   22.1799   45.3210   43.3458 C   0  0  0  0  0  0  0  0  0  0  0  0
   22.7234   46.0307   42.1121 C   0  0  0  0  0  0  0  0  0  0  0  0
   24.1686   45.7095   41.8602 C   0  0  0  0  0  0  0  0  0  0  0  0
   24.6554   46.5232   40.7707 N   0  3  0  0  0  0  0  0  0  0  0  0
   24.8698   47.8594   40.7877 C   0  0  0  0  0  0  0  0  0  0  0  0
   24.9170   45.9859   39.5588 N   0  0  0  0  0  0  0  0  0  0  0  0
   25.3095   46.9764   38.7689 N   0  0  0  0  0  0  0  0  0  0  0  0
   25.2898   48.1124   39.5170 C   0  0  0  0  0  0  0  0  0  0  0  0
   25.6530   49.3844   38.9306 C   0  0  0  0  0  0  0  0  0  0  0  0
   25.8808   50.4120   39.8898 O   0  0  0  0  0  0  0  0  0  0  0  0
   24.9709   51.4810   39.6472 C   0  0  0  0  0  0  0  0  0  0  0  0
   25.4166   52.6816   40.4361 C   0  0  0  0  0  0  0  0  0  0  0  0
   25.2996   52.3706   41.8171 O   0  0  0  0  0  0  0  0  0  0  0  0
   24.8263   53.4924   42.5424 C   0  0  0  0  0  0  0  0  0  0  0  0
   25.8537   53.7936   43.5917 C   0  0  0  0  0  0  0  0  0  0  0  0
   26.7016   54.8839   43.1873 O   0  0  0  0  0  0  0  0  0  0  0  0
   27.8055   55.0274   44.0914 C   0  0  0  0  0  0  0  0  0  0  0  0
   27.3415   55.1487   45.5460 C   0  0  0  0  0  0  0  0  0  0  0  0
   28.1949   54.4280   46.4044 O   0  0  0  0  0  0  0  0  0  0  0  0
   27.4936   53.6272   47.3686 C   0  0  0  0  0  0  0  0  0  0  0  0
   28.5806   52.7993   48.0628 C   0  0  0  0  0  0  0  0  0  0  0  0
   29.6373   53.6771   48.5957 N   0  0  0  0  0  0  0  0  0  0  0  0
   30.9335   53.6568   48.2864 C   0  0  0  0  0  0  0  0  0  0  0  0
   31.3903   54.5805   47.3393 C   0  0  0  0  0  0  0  0  0  0  0  0
   32.7297   54.6953   46.9792 C   0  0  0  0  0  0  0  0  0  0  0  0
   33.6345   53.8904   47.6740 C   0  0  0  0  0  0  0  0  0  0  0  0
   35.0636   53.9574   47.3547 N   0  0  0  0  0  0  0  0  0  0  0  0
   35.3983   53.8139   46.1709 O   0  0  0  0  0  0  0  0  0  0  0  0
   35.8395   54.1208   48.3076 O   0  0  0  0  0  0  0  0  0  0  0  0
   33.2270   53.0203   48.6719 C   0  0  0  0  0  0  0  0  0  0  0  0
   31.8784   52.9110   48.9747 C   0  0  0  0  0  0  0  0  0  0  0  0
   31.4882   51.9423   50.0374 N   0  0  0  0  0  0  0  0  0  0  0  0
   30.3067   51.6486   50.2440 O   0  0  0  0  0  0  0  0  0  0  0  0
   32.4245   51.4428   50.6957 O   0  0  0  0  0  0  0  0  0  0  0  0
   15.0644   46.9320   41.9983 H   0  0  0  0  0  0  0  0  0  0  0  0
   15.7717   46.7398   40.3999 H   0  0  0  0  0  0  0  0  0  0  0  0
   14.3266   44.6469   40.1102 H   0  0  0  0  0  0  0  0  0  0  0  0
   13.8709   44.8186   41.8094 H   0  0  0  0  0  0  0  0  0  0  0  0
   15.7491   43.2458   41.6916 H   0  0  0  0  0  0  0  0  0  0  0  0
   16.1267   45.6226   43.2144 H   0  0  0  0  0  0  0  0  0  0  0  0
   18.1206   46.1346   44.1988 H   0  0  0  0  0  0  0  0  0  0  0  0
   19.9944   43.8330   44.4168 H   0  0  0  0  0  0  0  0  0  0  0  0
   20.5295   46.6649   43.3787 H   0  0  0  0  0  0  0  0  0  0  0  0
   20.3206   45.2633   42.3246 H   0  0  0  0  0  0  0  0  0  0  0  0
   22.3918   44.2458   43.3114 H   0  0  0  0  0  0  0  0  0  0  0  0
   22.6253   45.7295   44.2615 H   0  0  0  0  0  0  0  0  0  0  0  0
   22.6063   47.1168   42.2354 H   0  0  0  0  0  0  0  0  0  0  0  0
   22.1415   45.7422   41.2241 H   0  0  0  0  0  0  0  0  0  0  0  0
   24.2896   44.6577   41.5875 H   0  0  0  0  0  0  0  0  0  0  0  0
   24.7769   45.9324   42.7365 H   0  0  0  0  0  0  0  0  0  0  0  0
   24.7202   48.5421   41.6134 H   0  0  0  0  0  0  0  0  0  0  0  0
   24.8293   49.6548   38.2694 H   0  0  0  0  0  0  0  0  0  0  0  0
   26.5791   49.2281   38.3819 H   0  0  0  0  0  0  0  0  0  0  0  0
   23.9599   51.1803   39.9492 H   0  0  0  0  0  0  0  0  0  0  0  0
   24.9798   51.7297   38.5805 H   0  0  0  0  0  0  0  0  0  0  0  0
   24.7747   53.5265   40.1768 H   0  0  0  0  0  0  0  0  0  0  0  0
   26.4568   52.9335   40.2059 H   0  0  0  0  0  0  0  0  0  0  0  0
   23.8671   53.2284   43.0044 H   0  0  0  0  0  0  0  0  0  0  0  0
   24.6822   54.3595   41.8973 H   0  0  0  0  0  0  0  0  0  0  0  0
   26.4672   52.9132   43.8020 H   0  0  0  0  0  0  0  0  0  0  0  0
   25.2911   54.0811   44.4784 H   0  0  0  0  0  0  0  0  0  0  0  0
   28.3588   55.9340   43.8085 H   0  0  0  0  0  0  0  0  0  0  0  0
   28.4786   54.1726   43.9572 H   0  0  0  0  0  0  0  0  0  0  0  0
   26.3432   54.7669   45.6855 H   0  0  0  0  0  0  0  0  0  0  0  0
   27.3218   56.1917   45.8540 H   0  0  0  0  0  0  0  0  0  0  0  0
   26.7598   52.9725   46.8707 H   0  0  0  0  0  0  0  0  0  0  0  0
   26.9537   54.2641   48.0857 H   0  0  0  0  0  0  0  0  0  0  0  0
   29.0189   52.1190   47.3298 H   0  0  0  0  0  0  0  0  0  0  0  0
   28.1196   52.2078   48.8656 H   0  0  0  0  0  0  0  0  0  0  0  0
   29.2662   54.3458   49.2943 H   0  0  0  0  0  0  0  0  0  0  0  0
   30.6362   55.2140   46.8030 H   0  0  0  0  0  0  0  0  0  0  0  0
   33.0418   55.3847   46.2039 H   0  0  0  0  0  0  0  0  0  0  0  0
   33.9612   52.4104   49.1936 H   0  0  0  0  0  0  0  0  0  0  0  0
  1  2  2  0  0  0  0
  2  3  1  0  0  0  0
  2  4  1  0  0  0  0
  4  5  1  0  0  0  0
  4 53  1  0  0  0  0
  4 54  1  0  0  0  0
  5  6  1  0  0  0  0
  5 55  1  0  0  0  0
  5 56  1  0  0  0  0
  6  7  1  0  0  0  0
  6 10  1  0  0  0  0
  6 57  1  1  0  0  0
  7  8  2  0  0  0  0
  7  9  1  0  0  0  0
 10 11  1  0  0  0  0
 10 58  1  0  0  0  0
 11 12  2  0  0  0  0
 11 13  1  0  0  0  0
 13 14  1  0  0  0  0
 13 59  1  0  0  0  0
 14 15  1  0  0  0  0
 14 18  1  0  0  0  0
 14 60  1  1  0  0  0
 15 16  2  0  0  0  0
 15 17  1  0  0  0  0
 18 19  1  0  0  0  0
 18 61  1  0  0  0  0
 18 62  1  0  0  0  0
 19 20  1  0  0  0  0
 19 63  1  0  0  0  0
 19 64  1  0  0  0  0
 20 21  1  0  0  0  0
 20 65  1  0  0  0  0
 20 66  1  0  0  0  0
 21 22  1  0  0  0  0
 21 67  1  0  0  0  0
 21 68  1  0  0  0  0
 22 23  2  0  0  0  0
 22 24  1  0  0  0  0
 23 26  1  0  0  0  0
 23 69  1  0  0  0  0
 24 25  1  0  0  0  0
 25 26  2  0  0  0  0
 26 27  1  0  0  0  0
 27 28  1  0  0  0  0
 27 70  1  0  0  0  0
 27 71  1  0  0  0  0
 28 29  1  0  0  0  0
 29 30  1  0  0  0  0
 29 72  1  0  0  0  0
 29 73  1  0  0  0  0
 30 31  1  0  0  0  0
 30 74  1  0  0  0  0
 30 75  1  0  0  0  0
 31 32  1  0  0  0  0
 32 33  1  0  0  0  0
 32 76  1  0  0  0  0
 32 77  1  0  0  0  0
 33 34  1  0  0  0  0
 33 78  1  0  0  0  0
 33 79  1  0  0  0  0
 34 35  1  0  0  0  0
 35 36  1  0  0  0  0
 35 80  1  0  0  0  0
 35 81  1  0  0  0  0
 36 37  1  0  0  0  0
 36 82  1  0  0  0  0
 36 83  1  0  0  0  0
 37 38  1  0  0  0  0
 38 39  1  0  0  0  0
 38 84  1  0  0  0  0
 38 85  1  0  0  0  0
 39 40  1  0  0  0  0
 39 86  1  0  0  0  0
 39 87  1  0  0  0  0
 40 41  1  0  0  0  0
 40 88  1  0  0  0  0
 41 42  2  0  0  0  0
 41 49  1  0  0  0  0
 42 43  1  0  0  0  0
 42 89  1  0  0  0  0
 43 44  2  0  0  0  0
 43 90  1  0  0  0  0
 44 45  1  0  0  0  0
 44 48  1  0  0  0  0
 45 46  2  0  0  0  0
 45 47  2  0  0  0  0
 48 49  2  0  0  0  0
 48 91  1  0  0  0  0
 49 50  1  0  0  0  0
 50 51  2  0  0  0  0
 50 52  2  0  0  0  0
M  CHG  1  22   1
M  END
$$$$
