CIT
 OpenBabel04051919063D

 18 17  0  0  1  0  0  0  0  0999 V2000
   17.8627   -2.0306   63.8384 C   0  0  0  0  0  0  0  0  0  0  0  0
   17.2676   -2.5558   64.8310 O   0  0  0  0  0  0  0  0  0  0  0  0
   19.1202   -1.9924   63.6484 O   0  0  0  0  0  0  0  0  0  0  0  0
   17.0128   -1.1843   62.8843 C   0  0  0  0  0  0  0  0  0  0  0  0
   16.3879   -1.8489   61.6415 C   0  0  2  0  0  0  0  0  0  0  0  0
   15.4719   -2.8864   62.0794 O   0  0  0  0  0  0  0  0  0  0  0  0
   17.4363   -2.4856   60.7222 C   0  0  0  0  0  0  0  0  0  0  0  0
   16.9416   -3.0835   59.3989 C   0  0  0  0  0  0  0  0  0  0  0  0
   17.8496   -3.3177   58.5381 O   0  0  0  0  0  0  0  0  0  0  0  0
   15.7144   -3.3901   59.3129 O   0  0  0  0  0  0  0  0  0  0  0  0
   15.5768   -0.6830   60.9011 C   0  0  0  0  0  0  0  0  0  0  0  0
   16.2617    0.1824   60.2664 O   0  0  0  0  0  0  0  0  0  0  0  0
   14.3123   -0.6739   61.0704 O   0  0  0  0  0  0  0  0  0  0  0  0
   17.6420   -0.3406   62.5627 H   0  0  0  0  0  0  0  0  0  0  0  0
   16.2136   -0.7337   63.4889 H   0  0  0  0  0  0  0  0  0  0  0  0
   14.9781   -3.0620   61.2452 H   0  0  0  0  0  0  0  0  0  0  0  0
   17.9154   -3.3214   61.2500 H   0  0  0  0  0  0  0  0  0  0  0  0
   18.2234   -1.7563   60.4901 H   0  0  0  0  0  0  0  0  0  0  0  0
  1  2  2  0  0  0  0
  1  3  1  0  0  0  0
  1  4  1  0  0  0  0
  4 14  1  0  0  0  0
  4 15  1  0  0  0  0
  5  4  1  1  0  0  0
  5  6  1  0  0  0  0
  5  7  1  0  0  0  0
  5 11  1  0  0  0  0
  6 16  1  0  0  0  0
  7  8  1  0  0  0  0
  7 17  1  0  0  0  0
  7 18  1  0  0  0  0
  8  9  2  0  0  0  0
  8 10  1  0  0  0  0
 11 12  2  0  0  0  0
 11 13  1  0  0  0  0
M  END
$$$$
