CIT
 OpenBabel04051917593D

 18 17  0  0  1  0  0  0  0  0999 V2000
   34.6413   65.6074 -149.0738 C   0  0  0  0  0  0  0  0  0  0  0  0
   33.8700   66.5202 -149.5018 O   0  0  0  0  0  0  0  0  0  0  0  0
   34.6855   65.1328 -147.8914 O   0  0  0  0  0  0  0  0  0  0  0  0
   35.5149   64.8981 -150.1112 C   0  0  0  0  0  0  0  0  0  0  0  0
   36.0677   65.7540 -151.2608 C   0  0  2  0  0  0  0  0  0  0  0  0
   34.9788   66.3579 -152.0041 O   0  0  0  0  0  0  0  0  0  0  0  0
   36.9045   64.9132 -152.2464 C   0  0  0  0  0  0  0  0  0  0  0  0
   36.1636   63.9648 -153.1986 C   0  0  0  0  0  0  0  0  0  0  0  0
   36.2764   64.2244 -154.4418 O   0  0  0  0  0  0  0  0  0  0  0  0
   35.6597   62.9145 -152.6942 O   0  0  0  0  0  0  0  0  0  0  0  0
   37.0162   66.8851 -150.6453 C   0  0  0  0  0  0  0  0  0  0  0  0
   38.0454   66.4835 -150.0096 O   0  0  0  0  0  0  0  0  0  0  0  0
   36.7034   68.0959 -150.8866 O   0  0  0  0  0  0  0  0  0  0  0  0
   34.8799   64.1019 -150.5197 H   0  0  0  0  0  0  0  0  0  0  0  0
   36.3433   64.4043 -149.5860 H   0  0  0  0  0  0  0  0  0  0  0  0
   34.5222   66.8791 -151.2960 H   0  0  0  0  0  0  0  0  0  0  0  0
   37.6250   64.2984 -151.6862 H   0  0  0  0  0  0  0  0  0  0  0  0
   37.5217   65.5845 -152.8618 H   0  0  0  0  0  0  0  0  0  0  0  0
  1  2  2  0  0  0  0
  1  3  1  0  0  0  0
  1  4  1  0  0  0  0
  4 14  1  0  0  0  0
  4 15  1  0  0  0  0
  5  4  1  1  0  0  0
  5  6  1  0  0  0  0
  5  7  1  0  0  0  0
  5 11  1  0  0  0  0
  6 16  1  0  0  0  0
  7  8  1  0  0  0  0
  7 17  1  0  0  0  0
  7 18  1  0  0  0  0
  8  9  2  0  0  0  0
  8 10  1  0  0  0  0
 11 12  2  0  0  0  0
 11 13  1  0  0  0  0
M  END
$$$$
