CKI
 OpenBabel04051917383D

 31 32  0  0  0  0  0  0  0  0999 V2000
  -26.0235   52.6195   48.7974 C   0  0  0  0  0  0  0  0  0  0  0  0
  -26.3596   53.9196   48.7533 N   0  0  0  0  0  0  0  0  0  0  0  0
  -25.9582   54.6553   49.7914 C   0  0  0  0  0  0  0  0  0  0  0  0
  -25.2582   54.1554   50.8813 C   0  0  0  0  0  0  0  0  0  0  0  0
  -24.2173   52.1666   51.9785 C   0  0  0  0  0  0  0  0  0  0  0  0
  -23.7253   53.0723   53.3784 Cl  0  0  0  0  0  0  0  0  0  0  0  0
  -23.9123   50.8037   51.9339 C   0  0  0  0  0  0  0  0  0  0  0  0
  -24.2788   50.0377   50.8224 C   0  0  0  0  0  0  0  0  0  0  0  0
  -24.9357   50.6336   49.7287 C   0  0  0  0  0  0  0  0  0  0  0  0
  -25.3015   52.0031   49.7790 C   0  0  0  0  0  0  0  0  0  0  0  0
  -24.9162   52.7928   50.9061 C   0  0  0  0  0  0  0  0  0  0  0  0
  -25.5455   49.6016   48.4204 S   0  0  0  0  0  0  0  0  0  0  0  0
  -24.7540   48.3880   48.3141 O   0  0  0  0  0  0  0  0  0  0  0  0
  -26.9684   49.5530   48.6067 O   0  0  0  0  0  0  0  0  0  0  0  0
  -25.4267   50.3678   46.9025 N   0  0  0  0  0  0  0  0  0  0  0  0
  -24.4208   50.2976   45.8570 C   0  0  0  0  0  0  0  0  0  0  0  0
  -24.3106   48.9542   45.1167 C   0  0  0  0  0  0  0  0  0  0  0  0
  -24.4048   47.7128   45.9041 N   0  3  0  0  0  0  0  0  0  0  0  0
  -26.4421   52.1043   47.9624 H   0  0  0  0  0  0  0  0  0  0  0  0
  -26.2163   55.7024   49.7134 H   0  0  0  0  0  0  0  0  0  0  0  0
  -25.0095   54.8367   51.6911 H   0  0  0  0  0  0  0  0  0  0  0  0
  -23.3931   50.3496   52.7759 H   0  0  0  0  0  0  0  0  0  0  0  0
  -24.0605   48.9705   50.8385 H   0  0  0  0  0  0  0  0  0  0  0  0
  -26.2476   50.9164   46.6501 H   0  0  0  0  0  0  0  0  0  0  0  0
  -23.4614   50.6819   46.1959 H   0  0  0  0  0  0  0  0  0  0  0  0
  -24.7522   51.0209   45.0783 H   0  0  0  0  0  0  0  0  0  0  0  0
  -23.3351   48.9212   44.6296 H   0  0  0  0  0  0  0  0  0  0  0  0
  -25.1041   48.8751   44.3690 H   0  0  0  0  0  0  0  0  0  0  0  0
  -24.2895   46.8849   45.3081 H   0  0  0  0  0  0  0  0  0  0  0  0
  -23.7106   47.6510   46.6656 H   0  0  0  0  0  0  0  0  0  0  0  0
  -25.3083   47.6077   46.3916 H   0  0  0  0  0  0  0  0  0  0  0  0
  1 10  2  0  0  0  0
  1  2  1  0  0  0  0
  1 19  1  0  0  0  0
  2  3  2  0  0  0  0
  3  4  1  0  0  0  0
  3 20  1  0  0  0  0
  4 11  2  0  0  0  0
  4 21  1  0  0  0  0
  5 11  1  0  0  0  0
  5  7  2  0  0  0  0
  5  6  1  0  0  0  0
  7  8  1  0  0  0  0
  7 22  1  0  0  0  0
  8  9  2  0  0  0  0
  8 23  1  0  0  0  0
  9 12  1  0  0  0  0
  9 10  1  0  0  0  0
 10 11  1  0  0  0  0
 12 15  1  0  0  0  0
 12 14  2  0  0  0  0
 12 13  2  0  0  0  0
 15 16  1  0  0  0  0
 15 24  1  0  0  0  0
 16 17  1  0  0  0  0
 16 25  1  0  0  0  0
 16 26  1  0  0  0  0
 17 18  1  0  0  0  0
 17 27  1  0  0  0  0
 17 28  1  0  0  0  0
 18 29  1  0  0  0  0
 18 30  1  0  0  0  0
 18 31  1  0  0  0  0
M  CHG  1  18   1
M  END
$$$$
