COC
 OpenBabel04051918463D

 44 46  0  0  1  0  0  0  0  0999 V2000
  -10.2180   19.6990   59.8818 C   0  0  0  0  0  0  0  0  0  0  0  0
  -10.0761   19.6659   61.3162 O   0  0  0  0  0  0  0  0  0  0  0  0
  -11.1563   20.0250   62.0438 C   0  0  0  0  0  0  0  0  0  0  0  0
  -12.2547   20.3333   61.5914 O   0  0  0  0  0  0  0  0  0  0  0  0
  -10.9147   19.9672   63.5622 C   0  0  2  0  0  0  0  0  0  0  0  0
  -11.8046   18.8732   64.2016 C   0  0  2  0  0  0  0  0  0  0  0  0
  -13.2383   19.3396   64.0016 N   0  3  1  0  0  0  0  0  0  0  0  0
  -14.3054   18.3528   63.7502 C   0  0  0  0  0  0  0  0  0  0  0  0
  -11.7093   18.8242   65.7347 C   0  0  0  0  0  0  0  0  0  0  0  0
  -12.7243   19.8524   66.2707 C   0  0  0  0  0  0  0  0  0  0  0  0
  -13.4257   20.4163   65.0394 C   0  0  1  0  0  0  0  0  0  0  0  0
  -12.7038   21.6305   64.4308 C   0  0  0  0  0  0  0  0  0  0  0  0
  -11.2019   21.3493   64.1939 C   0  0  2  0  0  0  0  0  0  0  0  0
  -10.6433   22.3815   63.3618 O   0  0  0  0  0  0  0  0  0  0  0  0
   -9.9259   23.3458   63.9959 C   0  0  0  0  0  0  0  0  0  0  0  0
   -9.6901   23.3428   65.2076 O   0  0  0  0  0  0  0  0  0  0  0  0
   -9.4711   24.4158   63.0935 C   0  0  0  0  0  0  0  0  0  0  0  0
   -8.6138   25.4139   63.5846 C   0  0  0  0  0  0  0  0  0  0  0  0
   -8.2148   26.4596   62.7492 C   0  0  0  0  0  0  0  0  0  0  0  0
   -8.6689   26.5120   61.4310 C   0  0  0  0  0  0  0  0  0  0  0  0
   -9.5246   25.5249   60.9457 C   0  0  0  0  0  0  0  0  0  0  0  0
   -9.9205   24.4756   61.7728 C   0  0  0  0  0  0  0  0  0  0  0  0
   -9.2736   19.3949   59.4083 H   0  0  0  0  0  0  0  0  0  0  0  0
  -10.4567   20.7097   59.5237 H   0  0  0  0  0  0  0  0  0  0  0  0
  -10.9916   18.9950   59.5599 H   0  0  0  0  0  0  0  0  0  0  0  0
   -9.8594   19.7234   63.7386 H   0  0  0  0  0  0  0  0  0  0  0  0
  -11.6578   17.8985   63.7245 H   0  0  0  0  0  0  0  0  0  0  0  0
  -15.2563   18.8853   63.8406 H   0  0  0  0  0  0  0  0  0  0  0  0
  -14.2517   17.4839   64.4069 H   0  0  0  0  0  0  0  0  0  0  0  0
  -14.1557   18.0633   62.7022 H   0  0  0  0  0  0  0  0  0  0  0  0
  -10.6966   19.0454   66.0861 H   0  0  0  0  0  0  0  0  0  0  0  0
  -11.9794   17.8263   66.1030 H   0  0  0  0  0  0  0  0  0  0  0  0
  -12.2306   20.6442   66.8437 H   0  0  0  0  0  0  0  0  0  0  0  0
  -13.4477   19.3681   66.9341 H   0  0  0  0  0  0  0  0  0  0  0  0
  -14.4943   20.6163   65.1822 H   0  0  0  0  0  0  0  0  0  0  0  0
  -12.8260   22.5081   65.0736 H   0  0  0  0  0  0  0  0  0  0  0  0
  -13.1776   21.9043   63.4767 H   0  0  0  0  0  0  0  0  0  0  0  0
  -10.7229   21.3556   65.1807 H   0  0  0  0  0  0  0  0  0  0  0  0
   -8.2573   25.3924   64.6151 H   0  0  0  0  0  0  0  0  0  0  0  0
   -7.5543   27.2397   63.1224 H   0  0  0  0  0  0  0  0  0  0  0  0
   -8.3553   27.3255   60.7800 H   0  0  0  0  0  0  0  0  0  0  0  0
   -9.8886   25.5764   59.9223 H   0  0  0  0  0  0  0  0  0  0  0  0
  -10.5916   23.7181   61.3827 H   0  0  0  0  0  0  0  0  0  0  0  0
  -13.2646   19.8227   63.1101 H   0  0  0  0  0  0  0  0  0  0  0  0
  1  2  1  0  0  0  0
  1 23  1  0  0  0  0
  1 24  1  0  0  0  0
  1 25  1  0  0  0  0
  2  3  1  0  0  0  0
  3  4  2  0  0  0  0
  3  5  1  0  0  0  0
  5  6  1  0  0  0  0
  5 13  1  0  0  0  0
  5 26  1  1  0  0  0
  6  7  1  0  0  0  0
  6  9  1  0  0  0  0
  6 27  1  6  0  0  0
  7  8  1  0  0  0  0
  7 11  1  0  0  0  0
  7 44  1  6  0  0  0
  8 28  1  0  0  0  0
  8 29  1  0  0  0  0
  8 30  1  0  0  0  0
  9 10  1  0  0  0  0
  9 31  1  0  0  0  0
  9 32  1  0  0  0  0
 10 11  1  0  0  0  0
 10 33  1  0  0  0  0
 10 34  1  0  0  0  0
 11 12  1  0  0  0  0
 11 35  1  1  0  0  0
 12 13  1  0  0  0  0
 12 36  1  0  0  0  0
 12 37  1  0  0  0  0
 13 14  1  0  0  0  0
 13 38  1  1  0  0  0
 14 15  1  0  0  0  0
 15 16  2  0  0  0  0
 15 17  1  0  0  0  0
 17 18  2  0  0  0  0
 17 22  1  0  0  0  0
 18 19  1  0  0  0  0
 18 39  1  0  0  0  0
 19 20  2  0  0  0  0
 19 40  1  0  0  0  0
 20 21  1  0  0  0  0
 20 41  1  0  0  0  0
 21 22  2  0  0  0  0
 21 42  1  0  0  0  0
 22 43  1  0  0  0  0
M  CHG  1   7   1
M  END
$$$$
