CSF
 OpenBabel04051918153D

 70 72  0  0  1  0  0  0  0  0999 V2000
   10.7941    4.1846    1.3259 C   0  0  2  0  0  0  0  0  0  0  0  0
   11.5701    3.5355    2.4969 C   0  0  2  0  0  0  0  0  0  0  0  0
   10.1792    1.4951    2.2879 C   0  0  1  0  0  0  0  0  0  0  0  0
    9.4856    2.1368    1.2083 O   0  0  0  0  0  0  0  0  0  0  0  0
   10.2440    3.0494    0.4343 C   0  0  1  0  0  0  0  0  0  0  0  0
   10.6424    2.5817    3.2755 C   0  0  2  0  0  0  0  0  0  0  0  0
   12.1885    4.5299    3.3398 O   0  0  0  0  0  0  0  0  0  0  0  0
   11.7045    5.0455    0.5654 N   0  0  0  0  0  0  0  0  0  0  0  0
    9.3458    3.5016   -0.7440 C   0  0  1  0  0  0  0  0  0  0  0  0
    8.8460    2.2661   -1.5450 C   0  0  1  0  0  0  0  0  0  0  0  0
    7.8805    2.6398   -2.6682 C   0  0  0  0  0  0  0  0  0  0  0  0
    8.5625    3.3512   -3.7161 O   0  0  0  0  0  0  0  0  0  0  0  0
    9.9094    1.5444   -2.1865 O   0  0  0  0  0  0  0  0  0  0  0  0
    8.2171    4.2770   -0.3018 O   0  0  0  0  0  0  0  0  0  0  0  0
    9.2026    0.5432    3.0914 C   0  0  0  0  0  0  0  0  0  0  0  0
    9.6780    0.0529    4.1694 O   0  0  0  0  0  0  0  0  0  0  0  0
    8.0084    0.4297    2.6739 O   0  0  0  0  0  0  0  0  0  0  0  0
   11.4054    0.8352    1.9522 O   0  0  0  0  0  0  0  0  0  0  0  0
   12.7849    0.4875   -0.0955 O   0  0  0  0  0  0  0  0  0  0  0  0
   11.6914   -5.4259    1.2277 N   0  3  0  0  0  0  0  0  0  0  0  0
   11.7623   -6.7887    0.8747 C   0  0  0  0  0  0  0  0  0  0  0  0
   11.5410   -7.1364   -0.4485 N   0  0  0  0  0  0  0  0  0  0  0  0
   11.2882   -6.2299   -1.3220 C   0  0  0  0  0  0  0  0  0  0  0  0
   11.2053   -4.7743   -0.9789 C   0  0  0  0  0  0  0  0  0  0  0  0
   11.4113   -4.4787    0.2889 C   0  0  0  0  0  0  0  0  0  0  0  0
   11.6559   -0.1366    0.7043 P   0  0  2  0  0  0  0  0  0  0  0  0
   11.0892   -6.5855   -2.6240 N   0  0  0  0  0  0  0  0  0  0  0  0
   12.0411   -7.6558    1.7087 O   0  0  0  0  0  0  0  0  0  0  0  0
   10.3927   -0.5826    0.0340 O   0  0  0  0  0  0  0  0  0  0  0  0
   11.3612    6.2621    0.0423 C   0  0  0  0  0  0  0  0  0  0  0  0
   10.2763    6.8088    0.2021 O   0  0  0  0  0  0  0  0  0  0  0  0
   12.4693    6.8656   -0.7758 C   0  0  0  0  0  0  0  0  0  0  0  0
    9.6077    3.3350    3.7596 F   0  0  0  0  0  0  0  0  0  0  0  0
   13.8004   -3.5961    2.8465 C   0  0  1  0  0  0  0  0  0  0  0  0
   13.4352   -5.0622    3.0133 C   0  0  2  0  0  0  0  0  0  0  0  0
   11.9445   -5.0771    2.6421 C   0  0  1  0  0  0  0  0  0  0  0  0
   11.4404   -3.7596    2.9550 O   0  0  0  0  0  0  0  0  0  0  0  0
   12.5424   -2.9142    3.3582 C   0  0  2  0  0  0  0  0  0  0  0  0
   12.3083   -1.4403    1.4318 O   0  0  0  0  0  0  0  0  0  0  0  0
   12.3673   -1.4872    2.8447 C   0  0  0  0  0  0  0  0  0  0  0  0
   14.9756   -3.2645    3.5905 O   0  0  0  0  0  0  0  0  0  0  0  0
   13.6196   -5.5016    4.3723 O   0  0  0  0  0  0  0  0  0  0  0  0
    9.9844    4.8022    1.7384 H   0  0  0  0  0  0  0  0  0  0  0  0
   12.4116    2.9748    2.0746 H   0  0  0  0  0  0  0  0  0  0  0  0
   11.0991    2.5260   -0.0056 H   0  0  0  0  0  0  0  0  0  0  0  0
   11.1850    2.1790    4.1387 H   0  0  0  0  0  0  0  0  0  0  0  0
   11.4692    4.9768    3.8146 H   0  0  0  0  0  0  0  0  0  0  0  0
   12.5982    4.6304    0.3311 H   0  0  0  0  0  0  0  0  0  0  0  0
    9.9312    4.1442   -1.4098 H   0  0  0  0  0  0  0  0  0  0  0  0
    8.3155    1.5809   -0.8720 H   0  0  0  0  0  0  0  0  0  0  0  0
    7.0444    3.2446   -2.3140 H   0  0  0  0  0  0  0  0  0  0  0  0
    7.4800    1.7249   -3.1200 H   0  0  0  0  0  0  0  0  0  0  0  0
    9.2305    2.7210   -4.0408 H   0  0  0  0  0  0  0  0  0  0  0  0
   10.5222    2.1666   -2.5981 H   0  0  0  0  0  0  0  0  0  0  0  0
    8.5547    5.0195    0.2286 H   0  0  0  0  0  0  0  0  0  0  0  0
   10.9937   -4.0346   -1.7345 H   0  0  0  0  0  0  0  0  0  0  0  0
   11.3546   -3.4384    0.6103 H   0  0  0  0  0  0  0  0  0  0  0  0
   10.7944   -5.9157   -3.3115 H   0  0  0  0  0  0  0  0  0  0  0  0
   11.0441   -7.5724   -2.8426 H   0  0  0  0  0  0  0  0  0  0  0  0
   12.1646    7.8479   -1.1447 H   0  0  0  0  0  0  0  0  0  0  0  0
   12.6913    6.2182   -1.6295 H   0  0  0  0  0  0  0  0  0  0  0  0
   13.3651    6.9796   -0.1587 H   0  0  0  0  0  0  0  0  0  0  0  0
   13.9665   -3.3599    1.7891 H   0  0  0  0  0  0  0  0  0  0  0  0
   14.0550   -5.7193    2.3914 H   0  0  0  0  0  0  0  0  0  0  0  0
   11.4008   -5.7836    3.2817 H   0  0  0  0  0  0  0  0  0  0  0  0
   12.5526   -2.8695    4.4557 H   0  0  0  0  0  0  0  0  0  0  0  0
   13.2003   -0.8518    3.1635 H   0  0  0  0  0  0  0  0  0  0  0  0
   11.4439   -1.1077    3.2642 H   0  0  0  0  0  0  0  0  0  0  0  0
   15.7281   -3.6428    3.1062 H   0  0  0  0  0  0  0  0  0  0  0  0
   14.5360   -5.2829    4.6124 H   0  0  0  0  0  0  0  0  0  0  0  0
  1  2  1  0  0  0  0
  1  5  1  0  0  0  0
  1  8  1  0  0  0  0
  1 43  1  1  0  0  0
  2  6  1  0  0  0  0
  2  7  1  0  0  0  0
  2 44  1  6  0  0  0
  3  4  1  0  0  0  0
  3  6  1  0  0  0  0
  3 15  1  1  0  0  0
  3 18  1  0  0  0  0
  4  5  1  0  0  0  0
  5  9  1  0  0  0  0
  5 45  1  6  0  0  0
  6 33  1  0  0  0  0
  6 46  1  1  0  0  0
  7 47  1  0  0  0  0
  8 30  1  0  0  0  0
  8 48  1  0  0  0  0
  9 10  1  0  0  0  0
  9 14  1  0  0  0  0
  9 49  1  6  0  0  0
 10 11  1  0  0  0  0
 10 13  1  0  0  0  0
 10 50  1  1  0  0  0
 11 12  1  0  0  0  0
 11 51  1  0  0  0  0
 11 52  1  0  0  0  0
 12 53  1  0  0  0  0
 13 54  1  0  0  0  0
 14 55  1  0  0  0  0
 15 16  2  0  0  0  0
 15 17  1  0  0  0  0
 19 26  2  0  0  0  0
 20 21  1  0  0  0  0
 20 25  1  0  0  0  0
 20 36  1  0  0  0  0
 21 22  1  0  0  0  0
 21 28  2  0  0  0  0
 22 23  2  0  0  0  0
 23 24  1  0  0  0  0
 23 27  1  0  0  0  0
 24 25  2  0  0  0  0
 24 56  1  0  0  0  0
 25 57  1  0  0  0  0
 26 18  1  1  0  0  0
 26 29  1  0  0  0  0
 26 39  1  0  0  0  0
 27 58  1  0  0  0  0
 27 59  1  0  0  0  0
 30 31  2  0  0  0  0
 30 32  1  0  0  0  0
 32 60  1  0  0  0  0
 32 61  1  0  0  0  0
 32 62  1  0  0  0  0
 34 35  1  0  0  0  0
 34 38  1  0  0  0  0
 34 41  1  0  0  0  0
 34 63  1  6  0  0  0
 35 36  1  0  0  0  0
 35 42  1  0  0  0  0
 35 64  1  6  0  0  0
 36 37  1  0  0  0  0
 36 65  1  1  0  0  0
 37 38  1  0  0  0  0
 38 40  1  0  0  0  0
 38 66  1  1  0  0  0
 39 40  1  0  0  0  0
 40 67  1  0  0  0  0
 40 68  1  0  0  0  0
 41 69  1  0  0  0  0
 42 70  1  0  0  0  0
M  CHG  1  20   1
M  END
$$$$
