CTO
 OpenBabel04051919163D

 84 86  0  0  1  0  0  0  0  0999 V2000
   24.7776   -9.3311   -8.0518 C   0  0  1  0  0  0  0  0  0  0  0  0
   24.2432  -10.3039   -6.9980 C   0  0  2  0  0  0  0  0  0  0  0  0
   25.0368  -11.5293   -7.0152 N   0  0  0  0  0  0  0  0  0  0  0  0
   25.6681  -11.9932   -5.8856 C   0  0  0  0  0  0  0  0  0  0  0  0
   25.7271  -11.4140   -4.8406 O   0  0  0  0  0  0  0  0  0  0  0  0
   26.1687  -13.4012   -6.0923 C   0  0  0  0  0  0  0  0  0  0  0  0
   22.7811  -10.6580   -7.3152 C   0  0  1  0  0  0  0  0  0  0  0  0
   22.1723  -11.3287   -6.1975 O   0  0  0  0  0  0  0  0  0  0  0  0
   21.9512   -9.3947   -7.5388 C   0  0  2  0  0  0  0  0  0  0  0  0
   20.6513   -9.7116   -8.0396 O   0  0  0  0  0  0  0  0  0  0  0  0
   22.6503   -8.4244   -8.4862 C   0  0  2  0  0  0  0  0  0  0  0  0
   23.9949   -8.1521   -8.0524 O   0  0  0  0  0  0  0  0  0  0  0  0
   21.9155   -7.0884   -8.4619 C   0  0  0  0  0  0  0  0  0  0  0  0
   22.6544   -6.1015   -9.1871 O   0  0  0  0  0  0  0  0  0  0  0  0
   29.3318   -7.4603   -9.8245 C   0  0  1  0  0  0  0  0  0  0  0  0
   28.5591   -6.4725   -8.9625 C   0  0  2  0  0  0  0  0  0  0  0  0
   29.4387   -5.5574   -8.2210 N   0  0  0  0  0  0  0  0  0  0  0  0
   29.8323   -4.3193   -8.6455 C   0  0  0  0  0  0  0  0  0  0  0  0
   30.4752   -3.5787   -7.9166 O   0  0  0  0  0  0  0  0  0  0  0  0
   29.4216   -3.9112  -10.0276 C   0  0  0  0  0  0  0  0  0  0  0  0
   27.6454   -7.2225   -8.0013 C   0  0  1  0  0  0  0  0  0  0  0  0
   26.8017   -6.2655   -7.3460 O   0  0  0  0  0  0  0  0  0  0  0  0
   26.8132   -8.3056   -8.7173 C   0  0  2  0  0  0  0  0  0  0  0  0
   26.1359   -9.0590   -7.7192 O   0  0  0  0  0  0  0  0  0  0  0  0
   27.7777   -9.2020   -9.5130 C   0  0  2  0  0  0  0  0  0  0  0  0
   28.5070   -8.4167  -10.4550 O   0  0  0  0  0  0  0  0  0  0  0  0
   27.0614  -10.2805  -10.3226 C   0  0  0  0  0  0  0  0  0  0  0  0
   26.1918   -9.6787  -11.2812 O   0  0  0  0  0  0  0  0  0  0  0  0
   33.4981   -7.1113  -12.9499 C   0  0  1  0  0  0  0  0  0  0  0  0
   34.6843   -7.6014  -13.5540 O   0  0  0  0  0  0  0  0  0  0  0  0
   32.2939   -7.7864  -13.6164 C   0  0  2  0  0  0  0  0  0  0  0  0
   32.2677   -7.4722  -15.0356 N   0  0  0  0  0  0  0  0  0  0  0  0
   32.1076   -8.4069  -16.0158 C   0  0  0  0  0  0  0  0  0  0  0  0
   31.6836   -8.1013  -17.1213 O   0  0  0  0  0  0  0  0  0  0  0  0
   32.5831   -9.7805  -15.6812 C   0  0  0  0  0  0  0  0  0  0  0  0
   31.0002   -7.3059  -12.9411 C   0  0  1  0  0  0  0  0  0  0  0  0
   29.8440   -8.0022  -13.4342 O   0  0  0  0  0  0  0  0  0  0  0  0
   31.0879   -7.4650  -11.4220 C   0  0  2  0  0  0  0  0  0  0  0  0
   30.0213   -6.7424  -10.8249 O   0  0  0  0  0  0  0  0  0  0  0  0
   32.4104   -6.9270  -10.8711 C   0  0  2  0  0  0  0  0  0  0  0  0
   33.5267   -7.4598  -11.5897 O   0  0  0  0  0  0  0  0  0  0  0  0
   32.5883   -7.3892   -9.4276 C   0  0  0  0  0  0  0  0  0  0  0  0
   33.1437   -6.3491   -8.6588 O   0  0  0  0  0  0  0  0  0  0  0  0
   24.7322   -9.8141   -9.0336 H   0  0  0  0  0  0  0  0  0  0  0  0
   24.2699   -9.8421   -6.0038 H   0  0  0  0  0  0  0  0  0  0  0  0
   25.2733  -11.9395   -7.8908 H   0  0  0  0  0  0  0  0  0  0  0  0
   26.5910  -13.7652   -5.1643 H   0  0  0  0  0  0  0  0  0  0  0  0
   26.9216  -13.3977   -6.8777 H   0  0  0  0  0  0  0  0  0  0  0  0
   25.3357  -14.0493   -6.3925 H   0  0  0  0  0  0  0  0  0  0  0  0
   22.7193  -11.3323   -8.1828 H   0  0  0  0  0  0  0  0  0  0  0  0
   22.7266  -12.0997   -5.9654 H   0  0  0  0  0  0  0  0  0  0  0  0
   21.8318   -8.9056   -6.5674 H   0  0  0  0  0  0  0  0  0  0  0  0
   20.2105  -10.2707   -7.3559 H   0  0  0  0  0  0  0  0  0  0  0  0
   22.6667   -8.8043   -9.5163 H   0  0  0  0  0  0  0  0  0  0  0  0
   21.7928   -6.7343   -7.4294 H   0  0  0  0  0  0  0  0  0  0  0  0
   20.9252   -7.1798   -8.9193 H   0  0  0  0  0  0  0  0  0  0  0  0
   23.5341   -6.0487   -8.7487 H   0  0  0  0  0  0  0  0  0  0  0  0
   29.9999   -8.0147   -9.1799 H   0  0  0  0  0  0  0  0  0  0  0  0
   27.9341   -5.8741   -9.6258 H   0  0  0  0  0  0  0  0  0  0  0  0
   29.7914   -5.8283   -7.3087 H   0  0  0  0  0  0  0  0  0  0  0  0
   29.7886   -2.9127  -10.2354 H   0  0  0  0  0  0  0  0  0  0  0  0
   28.3382   -3.9267  -10.1237 H   0  0  0  0  0  0  0  0  0  0  0  0
   29.8737   -4.5814  -10.7464 H   0  0  0  0  0  0  0  0  0  0  0  0
   28.2467   -7.6977   -7.2121 H   0  0  0  0  0  0  0  0  0  0  0  0
   26.2917   -5.7854   -8.0347 H   0  0  0  0  0  0  0  0  0  0  0  0
   26.1030   -7.8150   -9.3913 H   0  0  0  0  0  0  0  0  0  0  0  0
   28.4748   -9.7101   -8.8364 H   0  0  0  0  0  0  0  0  0  0  0  0
   26.4618  -10.9343   -9.6800 H   0  0  0  0  0  0  0  0  0  0  0  0
   27.7722  -10.9201  -10.8607 H   0  0  0  0  0  0  0  0  0  0  0  0
   26.7555   -9.0977  -11.8508 H   0  0  0  0  0  0  0  0  0  0  0  0
   33.4295   -6.0315  -13.0947 H   0  0  0  0  0  0  0  0  0  0  0  0
   35.4346   -7.1618  -13.0992 H   0  0  0  0  0  0  0  0  0  0  0  0
   32.3612   -8.8674  -13.4706 H   0  0  0  0  0  0  0  0  0  0  0  0
   32.2835   -6.5024  -15.3303 H   0  0  0  0  0  0  0  0  0  0  0  0
   32.4346  -10.4299  -16.5383 H   0  0  0  0  0  0  0  0  0  0  0  0
   32.0079  -10.1717  -14.8461 H   0  0  0  0  0  0  0  0  0  0  0  0
   33.6462   -9.7336  -15.4291 H   0  0  0  0  0  0  0  0  0  0  0  0
   30.8500   -6.2483  -13.1991 H   0  0  0  0  0  0  0  0  0  0  0  0
   29.9339   -8.9600  -13.2427 H   0  0  0  0  0  0  0  0  0  0  0  0
   30.9919   -8.5246  -11.1863 H   0  0  0  0  0  0  0  0  0  0  0  0
   32.4355   -5.8273  -10.9059 H   0  0  0  0  0  0  0  0  0  0  0  0
   33.2007   -8.2868   -9.3642 H   0  0  0  0  0  0  0  0  0  0  0  0
   31.6656   -7.6324   -8.9493 H   0  0  0  0  0  0  0  0  0  0  0  0
   33.2325   -6.6458   -7.7285 H   0  0  0  0  0  0  0  0  0  0  0  0
  1  2  1  0  0  0  0
  1 12  1  0  0  0  0
  1 24  1  0  0  0  0
  1 44  1  6  0  0  0
  2  3  1  0  0  0  0
  2  7  1  0  0  0  0
  2 45  1  1  0  0  0
  3  4  1  0  0  0  0
  3 46  1  0  0  0  0
  4  5  2  0  0  0  0
  4  6  1  0  0  0  0
  6 47  1  0  0  0  0
  6 48  1  0  0  0  0
  6 49  1  0  0  0  0
  7  8  1  0  0  0  0
  7  9  1  0  0  0  0
  7 50  1  6  0  0  0
  8 51  1  0  0  0  0
  9 10  1  0  0  0  0
  9 11  1  0  0  0  0
  9 52  1  1  0  0  0
 10 53  1  0  0  0  0
 11 12  1  0  0  0  0
 11 13  1  0  0  0  0
 11 54  1  6  0  0  0
 13 14  1  0  0  0  0
 13 55  1  0  0  0  0
 13 56  1  0  0  0  0
 14 57  1  0  0  0  0
 15 16  1  0  0  0  0
 15 26  1  0  0  0  0
 15 39  1  0  0  0  0
 15 58  1  1  0  0  0
 16 17  1  0  0  0  0
 16 21  1  0  0  0  0
 16 59  1  6  0  0  0
 17 18  1  0  0  0  0
 17 60  1  0  0  0  0
 18 19  2  0  0  0  0
 18 20  1  0  0  0  0
 20 61  1  0  0  0  0
 20 62  1  0  0  0  0
 20 63  1  0  0  0  0
 21 22  1  0  0  0  0
 21 23  1  0  0  0  0
 21 64  1  1  0  0  0
 22 65  1  0  0  0  0
 23 24  1  0  0  0  0
 23 25  1  0  0  0  0
 23 66  1  6  0  0  0
 25 26  1  0  0  0  0
 25 27  1  0  0  0  0
 25 67  1  1  0  0  0
 27 28  1  0  0  0  0
 27 68  1  0  0  0  0
 27 69  1  0  0  0  0
 28 70  1  0  0  0  0
 29 30  1  0  0  0  0
 29 31  1  0  0  0  0
 29 41  1  0  0  0  0
 29 71  1  6  0  0  0
 30 72  1  0  0  0  0
 31 32  1  0  0  0  0
 31 36  1  0  0  0  0
 31 73  1  1  0  0  0
 32 33  1  0  0  0  0
 32 74  1  0  0  0  0
 33 34  2  0  0  0  0
 33 35  1  0  0  0  0
 35 75  1  0  0  0  0
 35 76  1  0  0  0  0
 35 77  1  0  0  0  0
 36 37  1  0  0  0  0
 36 38  1  0  0  0  0
 36 78  1  6  0  0  0
 37 79  1  0  0  0  0
 38 39  1  0  0  0  0
 38 40  1  0  0  0  0
 38 80  1  1  0  0  0
 40 41  1  0  0  0  0
 40 42  1  0  0  0  0
 40 81  1  6  0  0  0
 42 43  1  0  0  0  0
 42 82  1  0  0  0  0
 42 83  1  0  0  0  0
 43 84  1  0  0  0  0
M  END
$$$$
