CTS
 OpenBabel04051918533D

 29 30  0  0  1  0  0  0  0  0999 V2000
   20.0213   34.3339  112.1978 C   0  0  0  0  0  0  0  0  0  0  0  0
   20.7493   34.6109  110.8944 C   0  0  1  0  0  0  0  0  0  0  0  0
   21.9755   35.5238  111.0453 C   0  0  2  0  0  0  0  0  0  0  0  0
   22.3126   35.9452  112.4861 C   0  0  1  0  0  0  0  0  0  0  0  0
   22.1698   34.8207  113.5245 C   0  0  1  0  0  0  0  0  0  0  0  0
   22.0079   35.3433  114.9780 C   0  0  1  0  0  0  0  0  0  0  0  0
   21.0803   33.3591  110.2567 O   0  0  0  0  0  0  0  0  0  0  0  0
   21.7024   36.7263  110.3256 O   0  0  0  0  0  0  0  0  0  0  0  0
   23.6910   36.3609  112.5014 O   0  0  0  0  0  0  0  0  0  0  0  0
   22.4524   36.6709  115.1787 O   0  0  0  0  0  0  0  0  0  0  0  0
   20.9664   33.9038  113.2850 N   0  3  1  0  0  0  0  0  0  0  0  0
   20.5104   35.2433  115.2105 C   0  0  0  0  0  0  0  0  0  0  0  0
   20.2173   33.8733  114.6233 C   0  0  0  0  0  0  0  0  0  0  0  0
   19.3180   33.5054  112.0754 H   0  0  0  0  0  0  0  0  0  0  0  0
   19.4863   35.2280  112.5368 H   0  0  0  0  0  0  0  0  0  0  0  0
   20.0204   35.0804  110.2171 H   0  0  0  0  0  0  0  0  0  0  0  0
   22.8580   35.0708  110.5685 H   0  0  0  0  0  0  0  0  0  0  0  0
   21.7048   36.8226  112.7497 H   0  0  0  0  0  0  0  0  0  0  0  0
   23.0582   34.1777  113.4896 H   0  0  0  0  0  0  0  0  0  0  0  0
   22.5299   34.6868  115.6841 H   0  0  0  0  0  0  0  0  0  0  0  0
   21.8240   32.9256  110.7012 H   0  0  0  0  0  0  0  0  0  0  0  0
   21.6294   36.5222  109.3692 H   0  0  0  0  0  0  0  0  0  0  0  0
   23.8017   37.0143  113.2167 H   0  0  0  0  0  0  0  0  0  0  0  0
   23.4072   36.6598  115.3808 H   0  0  0  0  0  0  0  0  0  0  0  0
   19.9754   36.0365  114.6747 H   0  0  0  0  0  0  0  0  0  0  0  0
   20.2314   35.3168  116.2628 H   0  0  0  0  0  0  0  0  0  0  0  0
   20.6584   33.0628  115.2118 H   0  0  0  0  0  0  0  0  0  0  0  0
   19.1605   33.6683  114.4465 H   0  0  0  0  0  0  0  0  0  0  0  0
   21.2973   32.9566  113.0868 H   0  0  0  0  0  0  0  0  0  0  0  0
  1  2  1  0  0  0  0
  1 11  1  0  0  0  0
  1 14  1  0  0  0  0
  1 15  1  0  0  0  0
  2  3  1  0  0  0  0
  2  7  1  0  0  0  0
  2 16  1  6  0  0  0
  3  4  1  0  0  0  0
  3  8  1  0  0  0  0
  3 17  1  6  0  0  0
  4  5  1  0  0  0  0
  4  9  1  0  0  0  0
  4 18  1  1  0  0  0
  5  6  1  0  0  0  0
  5 11  1  0  0  0  0
  5 19  1  6  0  0  0
  6 10  1  0  0  0  0
  6 12  1  0  0  0  0
  6 20  1  1  0  0  0
  7 21  1  0  0  0  0
  8 22  1  0  0  0  0
  9 23  1  0  0  0  0
 10 24  1  0  0  0  0
 11 13  1  0  0  0  0
 11 29  1  6  0  0  0
 12 13  1  0  0  0  0
 12 25  1  0  0  0  0
 12 26  1  0  0  0  0
 13 27  1  0  0  0  0
 13 28  1  0  0  0  0
M  CHG  1  11   1
M  END
$$$$
