CWB
 OpenBabel04051920473D

 48 51  0  0  1  0  0  0  0  0999 V2000
  -10.2370   70.9414    2.3359 O   0  0  0  0  0  0  0  0  0  0  0  0
  -11.4688   70.8079    2.3983 C   0  0  0  0  0  0  0  0  0  0  0  0
  -12.3729   70.8920    1.1932 C   0  0  0  0  0  0  0  0  0  0  0  0
  -11.9662   71.0415   -0.1861 C   0  0  0  0  0  0  0  0  0  0  0  0
  -10.7329   71.1309   -0.8827 C   0  0  0  0  0  0  0  0  0  0  0  0
  -10.7122   71.2486   -2.2743 C   0  0  0  0  0  0  0  0  0  0  0  0
  -11.9027   71.2886   -2.9936 C   0  0  0  0  0  0  0  0  0  0  0  0
  -13.1394   71.2260   -2.3441 C   0  0  0  0  0  0  0  0  0  0  0  0
  -13.1274   71.0969   -0.9270 C   0  0  0  0  0  0  0  0  0  0  0  0
  -14.1499   70.9959   -0.0207 N   0  3  0  0  0  0  0  0  0  0  0  0
  -15.5790   71.0188   -0.3455 C   0  0  0  0  0  0  0  0  0  0  0  0
  -13.7271   70.8677    1.2718 N   0  0  0  0  0  0  0  0  0  0  0  0
  -12.0476   70.6008    3.6561 N   0  0  0  0  0  0  0  0  0  0  0  0
  -11.3209   70.7090    4.9450 C   0  0  1  0  0  0  0  0  0  0  0  0
  -10.2898   69.5928    5.1076 C   0  0  0  0  0  0  0  0  0  0  0  0
   -8.8195   69.9943    5.2105 C   0  0  1  0  0  0  0  0  0  0  0  0
  -10.8408   72.1444    5.1843 C   0  0  0  0  0  0  0  0  0  0  0  0
   -9.3421   72.4097    5.2472 C   0  0  2  0  0  0  0  0  0  0  0  0
   -8.5733   71.3246    4.5625 N   0  3  1  0  0  0  0  0  0  0  0  0
   -7.1205   71.6962    4.4129 C   0  0  0  0  0  0  0  0  0  0  0  0
   -8.8493   72.5541    6.6922 C   0  0  0  0  0  0  0  0  0  0  0  0
   -8.8795   71.2315    7.4552 C   0  0  0  0  0  0  0  0  0  0  0  0
   -8.3418   70.0415    6.6609 C   0  0  0  0  0  0  0  0  0  0  0  0
   -9.7786   71.0904   -0.3429 H   0  0  0  0  0  0  0  0  0  0  0  0
   -9.7672   71.2971   -2.8089 H   0  0  0  0  0  0  0  0  0  0  0  0
  -11.8659   71.3617   -4.0800 H   0  0  0  0  0  0  0  0  0  0  0  0
  -14.0606   71.2501   -2.9151 H   0  0  0  0  0  0  0  0  0  0  0  0
  -16.1737   70.9345    0.5664 H   0  0  0  0  0  0  0  0  0  0  0  0
  -15.8039   70.1818   -1.0103 H   0  0  0  0  0  0  0  0  0  0  0  0
  -15.8146   71.9573   -0.8510 H   0  0  0  0  0  0  0  0  0  0  0  0
  -13.0374   70.3639    3.6721 H   0  0  0  0  0  0  0  0  0  0  0  0
  -12.0824   70.5213    5.7189 H   0  0  0  0  0  0  0  0  0  0  0  0
  -10.3993   68.8911    4.2727 H   0  0  0  0  0  0  0  0  0  0  0  0
  -10.5563   69.0016    5.9958 H   0  0  0  0  0  0  0  0  0  0  0  0
   -8.2302   69.2525    4.6563 H   0  0  0  0  0  0  0  0  0  0  0  0
  -11.2923   72.5127    6.1155 H   0  0  0  0  0  0  0  0  0  0  0  0
  -11.2558   72.7871    4.4003 H   0  0  0  0  0  0  0  0  0  0  0  0
   -9.1330   73.3343    4.6936 H   0  0  0  0  0  0  0  0  0  0  0  0
   -6.5879   70.8605    3.9617 H   0  0  0  0  0  0  0  0  0  0  0  0
   -6.6801   71.9216    5.3902 H   0  0  0  0  0  0  0  0  0  0  0  0
   -7.0796   72.5871    3.7823 H   0  0  0  0  0  0  0  0  0  0  0  0
   -9.4551   73.3015    7.2167 H   0  0  0  0  0  0  0  0  0  0  0  0
   -7.8322   72.9634    6.7074 H   0  0  0  0  0  0  0  0  0  0  0  0
   -9.9127   71.0245    7.7566 H   0  0  0  0  0  0  0  0  0  0  0  0
   -8.2939   71.3307    8.3756 H   0  0  0  0  0  0  0  0  0  0  0  0
   -7.2470   70.0652    6.6663 H   0  0  0  0  0  0  0  0  0  0  0  0
   -8.6292   69.1126    7.1687 H   0  0  0  0  0  0  0  0  0  0  0  0
   -8.9484   71.2433    3.5944 H   0  0  0  0  0  0  0  0  0  0  0  0
  1  2  2  0  0  0  0
  2  3  1  0  0  0  0
  2 13  1  0  0  0  0
  3  4  2  0  0  0  0
  3 12  1  0  0  0  0
  4  5  1  0  0  0  0
  4  9  1  0  0  0  0
  5  6  2  0  0  0  0
  5 24  1  0  0  0  0
  6  7  1  0  0  0  0
  6 25  1  0  0  0  0
  7  8  2  0  0  0  0
  7 26  1  0  0  0  0
  8  9  1  0  0  0  0
  8 27  1  0  0  0  0
  9 10  2  0  0  0  0
 10 11  1  0  0  0  0
 10 12  1  0  0  0  0
 11 28  1  0  0  0  0
 11 29  1  0  0  0  0
 11 30  1  0  0  0  0
 13 14  1  0  0  0  0
 13 31  1  0  0  0  0
 14 15  1  0  0  0  0
 14 17  1  0  0  0  0
 14 32  1  1  0  0  0
 15 16  1  0  0  0  0
 15 33  1  0  0  0  0
 15 34  1  0  0  0  0
 16 19  1  0  0  0  0
 16 23  1  0  0  0  0
 16 35  1  6  0  0  0
 17 18  1  0  0  0  0
 17 36  1  0  0  0  0
 17 37  1  0  0  0  0
 18 19  1  0  0  0  0
 18 21  1  0  0  0  0
 18 38  1  6  0  0  0
 19 20  1  0  0  0  0
 19 48  1  6  0  0  0
 20 39  1  0  0  0  0
 20 40  1  0  0  0  0
 20 41  1  0  0  0  0
 21 22  1  0  0  0  0
 21 42  1  0  0  0  0
 21 43  1  0  0  0  0
 22 23  1  0  0  0  0
 22 44  1  0  0  0  0
 22 45  1  0  0  0  0
 23 46  1  0  0  0  0
 23 47  1  0  0  0  0
M  CHG  2  10   1  19   1
M  END
$$$$
