CXG
 OpenBabel04051920353D

106108  0  0  1  0  0  0  0  0999 V2000
   13.1766   23.5257    5.0340 C   0  0  0  0  0  0  0  0  0  0  0  0
   10.6847   24.2110    5.6352 C   0  0  0  0  0  0  0  0  0  0  0  0
   10.3939   23.2369    6.2899 O   0  0  0  0  0  0  0  0  0  0  0  0
    9.9877   25.4139    5.6903 N   0  0  0  0  0  0  0  0  0  0  0  0
    8.7873   25.7510    6.5130 C   0  0  1  0  0  0  0  0  0  0  0  0
    8.9809   26.3357    7.9917 C   0  0  0  0  0  0  0  0  0  0  0  0
    9.7681   27.6476    8.0348 C   0  0  0  0  0  0  0  0  0  0  0  0
    7.6330   26.6431    8.7153 C   0  0  0  0  0  0  0  0  0  0  0  0
    9.7499   25.3492    8.8807 C   0  0  0  0  0  0  0  0  0  0  0  0
    7.9503   26.7441    5.6268 C   0  0  0  0  0  0  0  0  0  0  0  0
    8.3504   27.8046    5.1955 O   0  0  0  0  0  0  0  0  0  0  0  0
    6.6873   26.1988    5.3990 N   0  0  0  0  0  0  0  0  0  0  0  0
   11.3055   23.5231    3.2621 C   0  0  0  0  0  0  0  0  0  0  0  0
    9.9568   24.0619    2.7062 C   0  0  0  0  0  0  0  0  0  0  0  0
    8.7604   23.3163    2.9031 C   0  0  0  0  0  0  0  0  0  0  0  0
    7.5120   23.8012    2.4309 C   0  0  0  0  0  0  0  0  0  0  0  0
    7.4448   25.0353    1.7528 C   0  0  0  0  0  0  0  0  0  0  0  0
    8.6220   25.7882    1.5465 C   0  0  0  0  0  0  0  0  0  0  0  0
    9.8707   25.3046    2.0198 C   0  0  0  0  0  0  0  0  0  0  0  0
   12.2578   25.5523    4.2346 O   0  0  0  0  0  0  0  0  0  0  0  0
   15.2178   23.7008    6.5860 C   0  0  0  0  0  0  0  0  0  0  0  0
   15.3691   22.3264    7.1052 N   0  0  0  0  0  0  0  0  0  0  0  0
   15.9469   21.5031    6.1034 N   0  0  0  0  0  0  0  0  0  0  0  0
   15.2097   20.4543    5.5418 C   0  0  0  0  0  0  0  0  0  0  0  0
   14.1153   20.1515    5.8776 O   0  0  0  0  0  0  0  0  0  0  0  0
   16.0662   19.6239    4.5298 C   0  0  2  0  0  0  0  0  0  0  0  0
   15.3599   18.7377    3.4421 C   0  0  0  0  0  0  0  0  0  0  0  0
   16.4390   18.0766    2.5676 C   0  0  0  0  0  0  0  0  0  0  0  0
   14.5083   19.5541    2.4623 C   0  0  0  0  0  0  0  0  0  0  0  0
   14.5201   17.6041    4.0215 C   0  0  0  0  0  0  0  0  0  0  0  0
   16.8588   18.8078    5.4590 N   0  0  0  0  0  0  0  0  0  0  0  0
   18.1993   18.9226    5.6617 C   0  0  0  0  0  0  0  0  0  0  0  0
   18.9467   19.6857    5.0743 O   0  0  0  0  0  0  0  0  0  0  0  0
   18.5696   18.0553    6.6479 O   0  0  0  0  0  0  0  0  0  0  0  0
   19.3179   16.8968    6.2483 C   0  0  0  0  0  0  0  0  0  0  0  0
   16.2209   22.3610    8.3254 C   0  0  0  0  0  0  0  0  0  0  0  0
   16.4134   20.9986    8.9962 C   0  0  0  0  0  0  0  0  0  0  0  0
   15.2886   20.2310    9.3876 C   0  0  0  0  0  0  0  0  0  0  0  0
   15.4633   18.9623   10.0123 C   0  0  0  0  0  0  0  0  0  0  0  0
   17.7175   20.4965    9.2472 C   0  0  0  0  0  0  0  0  0  0  0  0
   17.8903   19.2220    9.8815 C   0  0  0  0  0  0  0  0  0  0  0  0
   16.7561   18.4291   10.2689 C   0  0  0  0  0  0  0  0  0  0  0  0
   16.8787   17.0754   10.9734 C   0  0  0  0  0  0  0  0  0  0  0  0
   16.7633   15.8349   10.2728 C   0  0  0  0  0  0  0  0  0  0  0  0
   11.8537   24.2075    4.5611 C   0  0  2  0  0  0  0  0  0  0  0  0
   16.8457   14.5841   10.9556 C   0  0  0  0  0  0  0  0  0  0  0  0
    5.6490   26.8084    4.6181 C   0  0  0  0  0  0  0  0  0  0  0  0
   17.0307   14.5471   12.3545 C   0  0  0  0  0  0  0  0  0  0  0  0
   13.7349   24.0318    6.3798 C   0  0  0  0  0  0  0  0  0  0  0  0
   17.1344   15.7556   13.0714 C   0  0  0  0  0  0  0  0  0  0  0  0
   17.0557   17.0034   12.3860 C   0  0  0  0  0  0  0  0  0  0  0  0
   13.9468   23.7302    4.2673 H   0  0  0  0  0  0  0  0  0  0  0  0
   13.0386   22.4469    5.0952 H   0  0  0  0  0  0  0  0  0  0  0  0
   10.3298   26.1116    5.0368 H   0  0  0  0  0  0  0  0  0  0  0  0
    8.1875   24.8335    6.6086 H   0  0  0  0  0  0  0  0  0  0  0  0
    9.8917   27.9955    9.0755 H   0  0  0  0  0  0  0  0  0  0  0  0
    9.2398   28.4305    7.4884 H   0  0  0  0  0  0  0  0  0  0  0  0
   10.7605   27.5071    7.6047 H   0  0  0  0  0  0  0  0  0  0  0  0
    6.9877   25.7586    8.7582 H   0  0  0  0  0  0  0  0  0  0  0  0
    7.0881   27.4486    8.2063 H   0  0  0  0  0  0  0  0  0  0  0  0
    7.8015   26.9792    9.7572 H   0  0  0  0  0  0  0  0  0  0  0  0
   10.7139   25.1076    8.4244 H   0  0  0  0  0  0  0  0  0  0  0  0
    9.1793   24.4272    9.0259 H   0  0  0  0  0  0  0  0  0  0  0  0
    9.9495   25.7863    9.8731 H   0  0  0  0  0  0  0  0  0  0  0  0
    6.5184   25.2968    5.7996 H   0  0  0  0  0  0  0  0  0  0  0  0
   12.0741   23.6173    2.4732 H   0  0  0  0  0  0  0  0  0  0  0  0
   11.1951   22.4399    3.4567 H   0  0  0  0  0  0  0  0  0  0  0  0
    8.7942   22.3538    3.4314 H   0  0  0  0  0  0  0  0  0  0  0  0
    6.5975   23.2121    2.5922 H   0  0  0  0  0  0  0  0  0  0  0  0
    6.4806   25.4128    1.3890 H   0  0  0  0  0  0  0  0  0  0  0  0
    8.5673   26.7532    1.0176 H   0  0  0  0  0  0  0  0  0  0  0  0
   10.7707   25.9083    1.8508 H   0  0  0  0  0  0  0  0  0  0  0  0
   12.9972   25.4798    3.6094 H   0  0  0  0  0  0  0  0  0  0  0  0
   15.7582   23.7797    5.6326 H   0  0  0  0  0  0  0  0  0  0  0  0
   15.6643   24.4438    7.2750 H   0  0  0  0  0  0  0  0  0  0  0  0
   16.8983   21.6646    5.7950 H   0  0  0  0  0  0  0  0  0  0  0  0
   16.6986   20.3169    3.9749 H   0  0  0  0  0  0  0  0  0  0  0  0
   15.9793   17.4550    1.7862 H   0  0  0  0  0  0  0  0  0  0  0  0
   17.0781   17.4426    3.1829 H   0  0  0  0  0  0  0  0  0  0  0  0
   17.0521   18.8423    2.0807 H   0  0  0  0  0  0  0  0  0  0  0  0
   13.6959   20.0603    2.9844 H   0  0  0  0  0  0  0  0  0  0  0  0
   14.0721   18.8976    1.6899 H   0  0  0  0  0  0  0  0  0  0  0  0
   15.1300   20.3001    1.9517 H   0  0  0  0  0  0  0  0  0  0  0  0
   15.1263   17.0112    4.7093 H   0  0  0  0  0  0  0  0  0  0  0  0
   14.1667   16.9351    3.2234 H   0  0  0  0  0  0  0  0  0  0  0  0
   13.6534   17.9987    4.5508 H   0  0  0  0  0  0  0  0  0  0  0  0
   16.3659   18.1735    6.0680 H   0  0  0  0  0  0  0  0  0  0  0  0
   19.5611   16.2928    7.1389 H   0  0  0  0  0  0  0  0  0  0  0  0
   20.2517   17.1816    5.7575 H   0  0  0  0  0  0  0  0  0  0  0  0
   18.7133   16.2754    5.5778 H   0  0  0  0  0  0  0  0  0  0  0  0
   15.7823   23.0652    9.0609 H   0  0  0  0  0  0  0  0  0  0  0  0
   17.1972   22.7694    8.0175 H   0  0  0  0  0  0  0  0  0  0  0  0
   14.2717   20.6042    9.1970 H   0  0  0  0  0  0  0  0  0  0  0  0
   14.5792   18.3821   10.3038 H   0  0  0  0  0  0  0  0  0  0  0  0
   18.6002   21.0878    8.9454 H   0  0  0  0  0  0  0  0  0  0  0  0
   18.9114   18.8521   10.0616 H   0  0  0  0  0  0  0  0  0  0  0  0
   16.6148   15.8325    9.1851 H   0  0  0  0  0  0  0  0  0  0  0  0
   16.7668   13.6379   10.3954 H   0  0  0  0  0  0  0  0  0  0  0  0
    4.7868   26.1343    4.6226 H   0  0  0  0  0  0  0  0  0  0  0  0
    5.9864   26.9624    3.5937 H   0  0  0  0  0  0  0  0  0  0  0  0
    5.3683   27.7622    5.0651 H   0  0  0  0  0  0  0  0  0  0  0  0
   17.0930   13.5863   12.8832 H   0  0  0  0  0  0  0  0  0  0  0  0
   13.1669   23.5706    7.1959 H   0  0  0  0  0  0  0  0  0  0  0  0
   13.6230   25.1180    6.4532 H   0  0  0  0  0  0  0  0  0  0  0  0
   17.2791   15.7328   14.1626 H   0  0  0  0  0  0  0  0  0  0  0  0
   17.1348   17.9324   12.9627 H   0  0  0  0  0  0  0  0  0  0  0  0
  1 49  1  0  0  0  0
  1 52  1  0  0  0  0
  1 53  1  0  0  0  0
  2  3  2  0  0  0  0
  2  4  1  0  0  0  0
  2 45  1  0  0  0  0
  4  5  1  0  0  0  0
  4 54  1  0  0  0  0
  5  6  1  0  0  0  0
  5 10  1  0  0  0  0
  5 55  1  1  0  0  0
  6  7  1  0  0  0  0
  6  8  1  0  0  0  0
  6  9  1  0  0  0  0
  7 56  1  0  0  0  0
  7 57  1  0  0  0  0
  7 58  1  0  0  0  0
  8 59  1  0  0  0  0
  8 60  1  0  0  0  0
  8 61  1  0  0  0  0
  9 62  1  0  0  0  0
  9 63  1  0  0  0  0
  9 64  1  0  0  0  0
 10 11  2  0  0  0  0
 10 12  1  0  0  0  0
 12 47  1  0  0  0  0
 12 65  1  0  0  0  0
 13 14  1  0  0  0  0
 13 45  1  0  0  0  0
 13 66  1  0  0  0  0
 13 67  1  0  0  0  0
 14 15  2  0  0  0  0
 14 19  1  0  0  0  0
 15 16  1  0  0  0  0
 15 68  1  0  0  0  0
 16 17  2  0  0  0  0
 16 69  1  0  0  0  0
 17 18  1  0  0  0  0
 17 70  1  0  0  0  0
 18 19  2  0  0  0  0
 18 71  1  0  0  0  0
 19 72  1  0  0  0  0
 20 45  1  0  0  0  0
 20 73  1  0  0  0  0
 21 22  1  0  0  0  0
 21 49  1  0  0  0  0
 21 74  1  0  0  0  0
 21 75  1  0  0  0  0
 22 23  1  0  0  0  0
 22 36  1  0  0  0  0
 23 24  1  0  0  0  0
 23 76  1  0  0  0  0
 24 25  2  0  0  0  0
 24 26  1  0  0  0  0
 26 27  1  0  0  0  0
 26 31  1  0  0  0  0
 26 77  1  6  0  0  0
 27 28  1  0  0  0  0
 27 29  1  0  0  0  0
 27 30  1  0  0  0  0
 28 78  1  0  0  0  0
 28 79  1  0  0  0  0
 28 80  1  0  0  0  0
 29 81  1  0  0  0  0
 29 82  1  0  0  0  0
 29 83  1  0  0  0  0
 30 84  1  0  0  0  0
 30 85  1  0  0  0  0
 30 86  1  0  0  0  0
 31 32  1  0  0  0  0
 31 87  1  0  0  0  0
 32 33  2  0  0  0  0
 32 34  1  0  0  0  0
 34 35  1  0  0  0  0
 35 88  1  0  0  0  0
 35 89  1  0  0  0  0
 35 90  1  0  0  0  0
 36 37  1  0  0  0  0
 36 91  1  0  0  0  0
 36 92  1  0  0  0  0
 37 38  2  0  0  0  0
 37 40  1  0  0  0  0
 38 39  1  0  0  0  0
 38 93  1  0  0  0  0
 39 42  2  0  0  0  0
 39 94  1  0  0  0  0
 40 41  2  0  0  0  0
 40 95  1  0  0  0  0
 41 42  1  0  0  0  0
 41 96  1  0  0  0  0
 42 43  1  0  0  0  0
 43 44  2  0  0  0  0
 43 51  1  0  0  0  0
 44 46  1  0  0  0  0
 44 97  1  0  0  0  0
 45  1  1  1  0  0  0
 46 48  2  0  0  0  0
 46 98  1  0  0  0  0
 47 99  1  0  0  0  0
 47100  1  0  0  0  0
 47101  1  0  0  0  0
 48 50  1  0  0  0  0
 48102  1  0  0  0  0
 49103  1  0  0  0  0
 49104  1  0  0  0  0
 50 51  2  0  0  0  0
 50105  1  0  0  0  0
 51106  1  0  0  0  0
M  END
$$$$
