DAN
 OpenBabel04051919493D

 36 36  0  0  1  0  0  0  0  0999 V2000
   -2.6868   76.6858   25.9119 C   0  0  0  0  0  0  0  0  0  0  0  0
   -3.3794   76.2135   24.5807 C   0  0  0  0  0  0  0  0  0  0  0  0
   -3.1697   74.9815   24.0718 C   0  0  0  0  0  0  0  0  0  0  0  0
   -3.9591   74.4809   22.9260 C   0  0  1  0  0  0  0  0  0  0  0  0
   -4.5847   75.6186   22.0932 C   0  0  2  0  0  0  0  0  0  0  0  0
   -5.2201   76.5978   23.1039 C   0  0  2  0  0  0  0  0  0  0  0  0
   -5.9241   77.7809   22.4138 C   0  0  1  0  0  0  0  0  0  0  0  0
   -6.6609   78.7337   23.3773 C   0  0  1  0  0  0  0  0  0  0  0  0
   -5.7514   79.6160   24.2414 C   0  0  0  0  0  0  0  0  0  0  0  0
   -5.7578   75.4846   19.8565 C   0  0  0  0  0  0  0  0  0  0  0  0
   -6.8907   74.7795   19.1504 C   0  0  0  0  0  0  0  0  0  0  0  0
   -5.5897   75.0573   21.1559 N   0  0  0  0  0  0  0  0  0  0  0  0
   -1.5429   76.2041   26.1482 O   0  0  0  0  0  0  0  0  0  0  0  0
   -3.3948   77.5052   26.5901 O   0  0  0  0  0  0  0  0  0  0  0  0
   -3.1910   73.6050   22.1047 O   0  0  0  0  0  0  0  0  0  0  0  0
   -4.2535   77.1142   24.0195 O   0  0  0  0  0  0  0  0  0  0  0  0
   -5.0360   78.5641   21.5964 O   0  0  0  0  0  0  0  0  0  0  0  0
   -7.4754   79.5936   22.5477 O   0  0  0  0  0  0  0  0  0  0  0  0
   -5.6162   79.0646   25.5418 O   0  0  0  0  0  0  0  0  0  0  0  0
   -5.0688   76.3423   19.3190 O   0  0  0  0  0  0  0  0  0  0  0  0
   -2.4547   74.3116   24.5477 H   0  0  0  0  0  0  0  0  0  0  0  0
   -4.7774   73.8691   23.3367 H   0  0  0  0  0  0  0  0  0  0  0  0
   -3.7981   76.1141   21.5054 H   0  0  0  0  0  0  0  0  0  0  0  0
   -5.9802   76.0558   23.6895 H   0  0  0  0  0  0  0  0  0  0  0  0
   -6.6819   77.3849   21.7294 H   0  0  0  0  0  0  0  0  0  0  0  0
   -7.3460   78.1615   24.0135 H   0  0  0  0  0  0  0  0  0  0  0  0
   -6.2110   80.6029   24.3691 H   0  0  0  0  0  0  0  0  0  0  0  0
   -4.7681   79.7916   23.7906 H   0  0  0  0  0  0  0  0  0  0  0  0
   -6.9543   75.1173   18.1120 H   0  0  0  0  0  0  0  0  0  0  0  0
   -7.8393   74.9969   19.6509 H   0  0  0  0  0  0  0  0  0  0  0  0
   -6.7129   73.7003   19.1560 H   0  0  0  0  0  0  0  0  0  0  0  0
   -6.3167   74.4782   21.5563 H   0  0  0  0  0  0  0  0  0  0  0  0
   -3.8114   73.1804   21.4967 H   0  0  0  0  0  0  0  0  0  0  0  0
   -4.5622   77.9555   20.9971 H   0  0  0  0  0  0  0  0  0  0  0  0
   -6.8330   80.0360   21.9582 H   0  0  0  0  0  0  0  0  0  0  0  0
   -4.9292   78.3521   25.5258 H   0  0  0  0  0  0  0  0  0  0  0  0
  1  2  1  0  0  0  0
  1 13  2  0  0  0  0
  1 14  1  0  0  0  0
  2  3  2  0  0  0  0
  2 16  1  0  0  0  0
  3  4  1  0  0  0  0
  3 21  1  0  0  0  0
  4  5  1  0  0  0  0
  4 15  1  0  0  0  0
  4 22  1  1  0  0  0
  5  6  1  0  0  0  0
  5 12  1  0  0  0  0
  5 23  1  6  0  0  0
  6  7  1  0  0  0  0
  6 16  1  0  0  0  0
  6 24  1  1  0  0  0
  7  8  1  0  0  0  0
  7 17  1  0  0  0  0
  7 25  1  6  0  0  0
  8  9  1  0  0  0  0
  8 18  1  0  0  0  0
  8 26  1  1  0  0  0
  9 19  1  0  0  0  0
  9 27  1  0  0  0  0
  9 28  1  0  0  0  0
 10 11  1  0  0  0  0
 10 12  1  0  0  0  0
 10 20  2  0  0  0  0
 11 29  1  0  0  0  0
 11 30  1  0  0  0  0
 11 31  1  0  0  0  0
 12 32  1  0  0  0  0
 15 33  1  0  0  0  0
 17 34  1  0  0  0  0
 18 35  1  0  0  0  0
 19 36  1  0  0  0  0
M  END
$$$$
