DAN
 OpenBabel04051919413D

 36 36  0  0  1  0  0  0  0  0999 V2000
    0.7282   36.8437   19.8766 C   0  0  0  0  0  0  0  0  0  0  0  0
    1.6863   35.6291   20.1051 C   0  0  0  0  0  0  0  0  0  0  0  0
    1.3123   34.4905   20.7153 C   0  0  0  0  0  0  0  0  0  0  0  0
    2.2662   33.3570   20.8035 C   0  0  1  0  0  0  0  0  0  0  0  0
    3.7088   33.8931   20.8862 C   0  0  2  0  0  0  0  0  0  0  0  0
    3.9025   34.7758   19.6411 C   0  0  2  0  0  0  0  0  0  0  0  0
    5.2709   35.4635   19.5700 C   0  0  1  0  0  0  0  0  0  0  0  0
    5.4186   36.3722   18.3366 C   0  0  1  0  0  0  0  0  0  0  0  0
    6.8667   36.8720   18.2901 C   0  0  0  0  0  0  0  0  0  0  0  0
    5.8459   32.8850   21.6337 C   0  0  0  0  0  0  0  0  0  0  0  0
    6.6831   31.6653   21.5343 C   0  0  0  0  0  0  0  0  0  0  0  0
    4.6554   32.7743   20.9565 N   0  0  0  0  0  0  0  0  0  0  0  0
    1.1507   37.7060   19.0515 O   0  0  0  0  0  0  0  0  0  0  0  0
   -0.3676   36.8141   20.5270 O   0  0  0  0  0  0  0  0  0  0  0  0
    1.9650   32.5105   21.9088 O   0  0  0  0  0  0  0  0  0  0  0  0
    2.9498   35.8331   19.5987 O   0  0  0  0  0  0  0  0  0  0  0  0
    5.5169   36.2573   20.7374 O   0  0  0  0  0  0  0  0  0  0  0  0
    5.1604   35.6335   17.1336 O   0  0  0  0  0  0  0  0  0  0  0  0
    7.0806   37.7792   17.2094 O   0  0  0  0  0  0  0  0  0  0  0  0
    6.2130   33.8527   22.2893 O   0  0  0  0  0  0  0  0  0  0  0  0
    0.3081   34.3829   21.1168 H   0  0  0  0  0  0  0  0  0  0  0  0
    2.1445   32.7411   19.9035 H   0  0  0  0  0  0  0  0  0  0  0  0
    3.8183   34.4967   21.7999 H   0  0  0  0  0  0  0  0  0  0  0  0
    3.7675   34.1581   18.7418 H   0  0  0  0  0  0  0  0  0  0  0  0
    6.0392   34.6871   19.5175 H   0  0  0  0  0  0  0  0  0  0  0  0
    4.7346   37.2322   18.3874 H   0  0  0  0  0  0  0  0  0  0  0  0
    7.5435   36.0206   18.1544 H   0  0  0  0  0  0  0  0  0  0  0  0
    7.1338   37.3886   19.2147 H   0  0  0  0  0  0  0  0  0  0  0  0
    7.6056   31.8082   22.1064 H   0  0  0  0  0  0  0  0  0  0  0  0
    6.9569   31.4586   20.4934 H   0  0  0  0  0  0  0  0  0  0  0  0
    6.1297   30.8132   21.9476 H   0  0  0  0  0  0  0  0  0  0  0  0
    4.4940   31.9847   20.3450 H   0  0  0  0  0  0  0  0  0  0  0  0
    2.6273   31.7998   21.8812 H   0  0  0  0  0  0  0  0  0  0  0  0
    4.7752   36.8912   20.8073 H   0  0  0  0  0  0  0  0  0  0  0  0
    5.1446   36.2856   16.4132 H   0  0  0  0  0  0  0  0  0  0  0  0
    6.8910   37.3008   16.3880 H   0  0  0  0  0  0  0  0  0  0  0  0
  1  2  1  0  0  0  0
  1 13  2  0  0  0  0
  1 14  1  0  0  0  0
  2  3  2  0  0  0  0
  2 16  1  0  0  0  0
  3  4  1  0  0  0  0
  3 21  1  0  0  0  0
  4  5  1  0  0  0  0
  4 15  1  0  0  0  0
  4 22  1  6  0  0  0
  5  6  1  0  0  0  0
  5 12  1  0  0  0  0
  5 23  1  1  0  0  0
  6  7  1  0  0  0  0
  6 16  1  0  0  0  0
  6 24  1  6  0  0  0
  7  8  1  0  0  0  0
  7 17  1  0  0  0  0
  7 25  1  6  0  0  0
  8  9  1  0  0  0  0
  8 18  1  0  0  0  0
  8 26  1  1  0  0  0
  9 19  1  0  0  0  0
  9 27  1  0  0  0  0
  9 28  1  0  0  0  0
 10 11  1  0  0  0  0
 10 12  1  0  0  0  0
 10 20  2  0  0  0  0
 11 29  1  0  0  0  0
 11 30  1  0  0  0  0
 11 31  1  0  0  0  0
 12 32  1  0  0  0  0
 15 33  1  0  0  0  0
 17 34  1  0  0  0  0
 18 35  1  0  0  0  0
 19 36  1  0  0  0  0
M  END
$$$$
