DAN
 OpenBabel04051917363D

 36 36  0  0  1  0  0  0  0  0999 V2000
   60.0213    5.2215   31.7132 C   0  0  0  0  0  0  0  0  0  0  0  0
   59.9101    5.5683   30.2041 C   0  0  0  0  0  0  0  0  0  0  0  0
   60.4505    6.6963   29.7127 C   0  0  0  0  0  0  0  0  0  0  0  0
   60.1551    7.0933   28.3076 C   0  0  1  0  0  0  0  0  0  0  0  0
   58.6990    6.6393   27.9522 C   0  0  2  0  0  0  0  0  0  0  0  0
   58.5589    5.1364   28.2453 C   0  0  2  0  0  0  0  0  0  0  0  0
   57.1070    4.5996   28.1733 C   0  0  1  0  0  0  0  0  0  0  0  0
   57.0108    3.1662   28.7426 C   0  0  1  0  0  0  0  0  0  0  0  0
   55.6355    2.5365   28.4967 C   0  0  0  0  0  0  0  0  0  0  0  0
   57.4890    7.8624   26.1189 C   0  0  0  0  0  0  0  0  0  0  0  0
   57.4039    7.9714   24.6221 C   0  0  0  0  0  0  0  0  0  0  0  0
   58.3543    6.8897   26.5405 N   0  0  0  0  0  0  0  0  0  0  0  0
   60.7375    4.2323   32.0052 O   0  0  0  0  0  0  0  0  0  0  0  0
   59.3046    5.9934   32.4224 O   0  0  0  0  0  0  0  0  0  0  0  0
   60.3057    8.5122   28.1821 O   0  0  0  0  0  0  0  0  0  0  0  0
   59.1009    4.7232   29.4943 O   0  0  0  0  0  0  0  0  0  0  0  0
   56.1098    5.4415   28.7750 O   0  0  0  0  0  0  0  0  0  0  0  0
   58.0135    2.3090   28.1750 O   0  0  0  0  0  0  0  0  0  0  0  0
   55.0358    2.9730   27.2705 O   0  0  0  0  0  0  0  0  0  0  0  0
   56.8388    8.6046   26.8667 O   0  0  0  0  0  0  0  0  0  0  0  0
   61.0492    7.3418   30.3531 H   0  0  0  0  0  0  0  0  0  0  0  0
   60.8844    6.6211   27.6337 H   0  0  0  0  0  0  0  0  0  0  0  0
   58.0185    7.2077   28.5956 H   0  0  0  0  0  0  0  0  0  0  0  0
   59.1138    4.5957   27.4639 H   0  0  0  0  0  0  0  0  0  0  0  0
   56.8447    4.5528   27.1096 H   0  0  0  0  0  0  0  0  0  0  0  0
   57.1805    3.1904   29.8273 H   0  0  0  0  0  0  0  0  0  0  0  0
   54.9616    2.7822   29.3216 H   0  0  0  0  0  0  0  0  0  0  0  0
   55.7372    1.4478   28.4302 H   0  0  0  0  0  0  0  0  0  0  0  0
   56.6998    8.7673   24.3586 H   0  0  0  0  0  0  0  0  0  0  0  0
   57.0560    7.0302   24.1876 H   0  0  0  0  0  0  0  0  0  0  0  0
   58.3891    8.2241   24.2199 H   0  0  0  0  0  0  0  0  0  0  0  0
   58.7545    6.2800   25.8463 H   0  0  0  0  0  0  0  0  0  0  0  0
   61.2135    8.7510   28.4386 H   0  0  0  0  0  0  0  0  0  0  0  0
   56.2881    5.5138   29.7351 H   0  0  0  0  0  0  0  0  0  0  0  0
   57.8476    2.2251   27.2234 H   0  0  0  0  0  0  0  0  0  0  0  0
   54.9037    3.9417   27.3426 H   0  0  0  0  0  0  0  0  0  0  0  0
  1  2  1  0  0  0  0
  1 13  2  0  0  0  0
  1 14  1  0  0  0  0
  2  3  2  0  0  0  0
  2 16  1  0  0  0  0
  3  4  1  0  0  0  0
  3 21  1  0  0  0  0
  4  5  1  0  0  0  0
  4 15  1  0  0  0  0
  4 22  1  6  0  0  0
  5  6  1  0  0  0  0
  5 12  1  0  0  0  0
  5 23  1  1  0  0  0
  6  7  1  0  0  0  0
  6 16  1  0  0  0  0
  6 24  1  6  0  0  0
  7  8  1  0  0  0  0
  7 17  1  0  0  0  0
  7 25  1  6  0  0  0
  8  9  1  0  0  0  0
  8 18  1  0  0  0  0
  8 26  1  1  0  0  0
  9 19  1  0  0  0  0
  9 27  1  0  0  0  0
  9 28  1  0  0  0  0
 10 11  1  0  0  0  0
 10 12  1  0  0  0  0
 10 20  2  0  0  0  0
 11 29  1  0  0  0  0
 11 30  1  0  0  0  0
 11 31  1  0  0  0  0
 12 32  1  0  0  0  0
 15 33  1  0  0  0  0
 17 34  1  0  0  0  0
 18 35  1  0  0  0  0
 19 36  1  0  0  0  0
M  END
$$$$
