DED
 OpenBabel04051919443D

 25 24  0  0  0  0  0  0  0  0999 V2000
   -1.6550    0.5627   21.4352 O   0  0  0  0  0  0  0  0  0  0  0  0
   -3.7050    1.0324   20.0194 O   0  0  0  0  0  0  0  0  0  0  0  0
   -1.4978    0.3563   18.8960 O   0  0  0  0  0  0  0  0  0  0  0  0
   -2.3991    0.2590   20.1155 P   0  0  0  0  0  0  0  0  0  0  0  0
   -2.7925   -1.3175   20.2688 O   0  0  0  0  0  0  0  0  0  0  0  0
   -5.1550   -1.7307   19.2010 O   0  0  0  0  0  0  0  0  0  0  0  0
   -3.0657   -3.0146   18.2994 O   0  0  0  0  0  0  0  0  0  0  0  0
   -3.7378   -2.2376   19.3843 P   0  0  1  0  0  0  0  0  0  0  0  0
   -3.9631   -3.4620   20.4855 O   0  0  0  0  0  0  0  0  0  0  0  0
   -4.4563   -3.3113   21.7716 C   0  0  0  0  0  0  0  0  0  0  0  0
   -4.3906   -4.6316   22.5707 C   0  0  0  0  0  0  0  0  0  0  0  0
   -4.6120   -5.9609   21.8255 N   0  3  0  0  0  0  0  0  0  0  0  0
   -5.9352   -6.5753   22.1143 C   0  0  0  0  0  0  0  0  0  0  0  0
   -4.3608   -5.9211   20.3353 C   0  0  0  0  0  0  0  0  0  0  0  0
   -5.4943   -2.9685   21.7782 H   0  0  0  0  0  0  0  0  0  0  0  0
   -3.8228   -2.5864   22.3091 H   0  0  0  0  0  0  0  0  0  0  0  0
   -5.1244   -4.6191   23.3962 H   0  0  0  0  0  0  0  0  0  0  0  0
   -3.4200   -4.7572   23.0732 H   0  0  0  0  0  0  0  0  0  0  0  0
   -6.0309   -7.4774   21.4967 H   0  0  0  0  0  0  0  0  0  0  0  0
   -6.7237   -5.8612   21.8833 H   0  0  0  0  0  0  0  0  0  0  0  0
   -5.9498   -6.8659   23.1682 H   0  0  0  0  0  0  0  0  0  0  0  0
   -3.3662   -5.5132   20.1576 H   0  0  0  0  0  0  0  0  0  0  0  0
   -5.1865   -5.3884   19.8565 H   0  0  0  0  0  0  0  0  0  0  0  0
   -4.3518   -6.9587   19.9942 H   0  0  0  0  0  0  0  0  0  0  0  0
   -3.8825   -6.5832   22.1819 H   0  0  0  0  0  0  0  0  0  0  0  0
  1  4  2  0  0  0  0
  2  4  1  0  0  0  0
  3  4  1  0  0  0  0
  4  5  1  0  0  0  0
  6  8  2  0  0  0  0
  7  8  1  0  0  0  0
  8  5  1  1  0  0  0
  8  9  1  0  0  0  0
  9 10  1  0  0  0  0
 10 11  1  0  0  0  0
 10 15  1  0  0  0  0
 10 16  1  0  0  0  0
 11 12  1  0  0  0  0
 11 17  1  0  0  0  0
 11 18  1  0  0  0  0
 12 13  1  0  0  0  0
 12 14  1  0  0  0  0
 12 25  1  0  0  0  0
 13 19  1  0  0  0  0
 13 20  1  0  0  0  0
 13 21  1  0  0  0  0
 14 22  1  0  0  0  0
 14 23  1  0  0  0  0
 14 24  1  0  0  0  0
M  CHG  1  12   1
M  END
$$$$
