DFU
 OpenBabel04051920283D

 24 24  0  0  1  0  0  0  0  0999 V2000
   32.6465    2.5048   42.6228 C   0  0  0  0  0  0  0  0  0  0  0  0
   33.0425    3.5108   43.7066 C   0  0  2  0  0  0  0  0  0  0  0  0
   32.2012    4.7888   43.5361 C   0  0  1  0  0  0  0  0  0  0  0  0
   30.7078    4.4429   43.6489 C   0  0  1  0  0  0  0  0  0  0  0  0
   30.3046    3.3853   42.5979 C   0  0  2  0  0  0  0  0  0  0  0  0
   28.8621    2.9259   42.7637 C   0  0  0  0  0  0  0  0  0  0  0  0
   30.4733    3.8927   44.9561 O   0  0  0  0  0  0  0  0  0  0  0  0
   32.5498    5.7004   44.5857 O   0  0  0  0  0  0  0  0  0  0  0  0
   34.4286    3.8157   43.6105 O   0  0  0  0  0  0  0  0  0  0  0  0
   31.1939    2.1762   42.7760 N   0  3  0  0  0  0  0  0  0  0  0  0
   33.2120    1.5729   42.6996 H   0  0  0  0  0  0  0  0  0  0  0  0
   32.7947    2.9069   41.6156 H   0  0  0  0  0  0  0  0  0  0  0  0
   32.8791    3.0731   44.6984 H   0  0  0  0  0  0  0  0  0  0  0  0
   32.4305    5.2723   42.5793 H   0  0  0  0  0  0  0  0  0  0  0  0
   30.0923    5.3431   43.5555 H   0  0  0  0  0  0  0  0  0  0  0  0
   30.4705    3.7548   41.5790 H   0  0  0  0  0  0  0  0  0  0  0  0
   28.6043    2.1705   42.0147 H   0  0  0  0  0  0  0  0  0  0  0  0
   28.1781    3.7710   42.6396 H   0  0  0  0  0  0  0  0  0  0  0  0
   28.6819    2.4891   43.7524 H   0  0  0  0  0  0  0  0  0  0  0  0
   30.8000    4.5532   45.6017 H   0  0  0  0  0  0  0  0  0  0  0  0
   32.1362    6.5649   44.3972 H   0  0  0  0  0  0  0  0  0  0  0  0
   34.6233    4.4283   44.3494 H   0  0  0  0  0  0  0  0  0  0  0  0
   30.9318    1.4238   42.1106 H   0  0  0  0  0  0  0  0  0  0  0  0
   31.0273    1.7985   43.7251 H   0  0  0  0  0  0  0  0  0  0  0  0
  1  2  1  0  0  0  0
  1 10  1  0  0  0  0
  1 11  1  0  0  0  0
  1 12  1  0  0  0  0
  2  3  1  0  0  0  0
  2  9  1  0  0  0  0
  2 13  1  1  0  0  0
  3  4  1  0  0  0  0
  3  8  1  0  0  0  0
  3 14  1  6  0  0  0
  4  5  1  0  0  0  0
  4  7  1  0  0  0  0
  4 15  1  6  0  0  0
  5  6  1  0  0  0  0
  5 10  1  0  0  0  0
  5 16  1  6  0  0  0
  6 17  1  0  0  0  0
  6 18  1  0  0  0  0
  6 19  1  0  0  0  0
  7 20  1  0  0  0  0
  8 21  1  0  0  0  0
  9 22  1  0  0  0  0
 10 23  1  0  0  0  0
 10 24  1  0  0  0  0
M  CHG  1  10   1
M  END
$$$$
