DGB
 OpenBabel04051918053D

 58 60  0  0  0  0  0  0  0  0999 V2000
    4.8914   -1.6583   51.0526 C   0  0  0  0  0  0  0  0  0  0  0  0
    3.5563   -1.4964   50.6772 C   0  0  0  0  0  0  0  0  0  0  0  0
    2.9790   -2.3656   49.7490 C   0  0  0  0  0  0  0  0  0  0  0  0
    3.7325   -3.4002   49.1920 C   0  0  0  0  0  0  0  0  0  0  0  0
    5.0669   -3.5728   49.5675 C   0  0  0  0  0  0  0  0  0  0  0  0
    5.6448   -2.6949   50.4929 C   0  0  0  0  0  0  0  0  0  0  0  0
    7.0649   -2.8531   50.8868 C   0  0  0  0  0  0  0  0  0  0  0  0
    7.3014   -3.3245   51.9950 O   0  0  0  0  0  0  0  0  0  0  0  0
    8.0452   -2.4528   49.9829 N   0  0  0  0  0  0  0  0  0  0  0  0
    7.7716   -1.8776   48.6701 C   0  0  0  0  0  0  0  0  0  0  0  0
    8.2880   -2.8291   47.6076 C   0  0  0  0  0  0  0  0  0  0  0  0
    9.4616   -2.6819   50.2755 C   0  0  0  0  0  0  0  0  0  0  0  0
   10.1140   -3.5580   49.1955 C   0  0  0  0  0  0  0  0  0  0  0  0
    9.7990   -3.0462   47.7782 C   0  0  0  0  0  0  0  0  0  0  0  0
   10.3548   -3.9502   46.6710 C   0  0  0  0  0  0  0  0  0  0  0  0
    9.6955   -5.3310   46.5485 C   0  0  0  0  0  0  0  0  0  0  0  0
    9.9916   -5.9240   45.1780 C   0  0  0  0  0  0  0  0  0  0  0  0
   10.2427   -7.4229   45.2041 C   0  0  0  0  0  0  0  0  0  0  0  0
   10.6682   -7.8160   43.8814 N   0  0  0  0  0  0  0  0  0  0  0  0
    9.8522   -8.4793   43.0095 C   0  0  0  0  0  0  0  0  0  0  0  0
    8.7639   -8.9540   43.2611 O   0  0  0  0  0  0  0  0  0  0  0  0
   10.4752   -8.5244   41.6654 C   0  0  0  0  0  0  0  0  0  0  0  0
    9.8964   -9.1739   40.6519 C   0  0  0  0  0  0  0  0  0  0  0  0
   10.4868   -9.2485   39.3098 C   0  0  0  0  0  0  0  0  0  0  0  0
   11.7018   -8.6397   38.9637 C   0  0  0  0  0  0  0  0  0  0  0  0
   12.2023   -8.7533   37.6756 C   0  0  0  0  0  0  0  0  0  0  0  0
   11.4676   -9.4743   36.7533 C   0  0  0  0  0  0  0  0  0  0  0  0
   10.2962  -10.0810   37.0357 N   0  0  0  0  0  0  0  0  0  0  0  0
    9.8352   -9.9557   38.3025 C   0  0  0  0  0  0  0  0  0  0  0  0
    5.3428   -0.9819   51.7713 H   0  0  0  0  0  0  0  0  0  0  0  0
    2.9621   -0.6949   51.1113 H   0  0  0  0  0  0  0  0  0  0  0  0
    1.9359   -2.2385   49.4622 H   0  0  0  0  0  0  0  0  0  0  0  0
    3.2774   -4.0743   48.4704 H   0  0  0  0  0  0  0  0  0  0  0  0
    5.6517   -4.3797   49.1366 H   0  0  0  0  0  0  0  0  0  0  0  0
    8.2780   -0.9086   48.6109 H   0  0  0  0  0  0  0  0  0  0  0  0
    6.7091   -1.6956   48.5095 H   0  0  0  0  0  0  0  0  0  0  0  0
    8.0644   -2.4434   46.6078 H   0  0  0  0  0  0  0  0  0  0  0  0
    7.7540   -3.7789   47.7231 H   0  0  0  0  0  0  0  0  0  0  0  0
    9.5960   -3.1484   51.2571 H   0  0  0  0  0  0  0  0  0  0  0  0
    9.9523   -1.7014   50.3099 H   0  0  0  0  0  0  0  0  0  0  0  0
    9.7491   -4.5850   49.3082 H   0  0  0  0  0  0  0  0  0  0  0  0
   11.2002   -3.5839   49.3501 H   0  0  0  0  0  0  0  0  0  0  0  0
   10.2927   -2.0696   47.6652 H   0  0  0  0  0  0  0  0  0  0  0  0
   11.4339   -4.0893   46.8211 H   0  0  0  0  0  0  0  0  0  0  0  0
   10.2485   -3.4122   45.7192 H   0  0  0  0  0  0  0  0  0  0  0  0
    8.6078   -5.2727   46.6392 H   0  0  0  0  0  0  0  0  0  0  0  0
   10.0470   -5.9804   47.3573 H   0  0  0  0  0  0  0  0  0  0  0  0
   10.8660   -5.4320   44.7331 H   0  0  0  0  0  0  0  0  0  0  0  0
    9.1515   -5.7074   44.5042 H   0  0  0  0  0  0  0  0  0  0  0  0
    9.3568   -7.9838   45.5152 H   0  0  0  0  0  0  0  0  0  0  0  0
   11.0734   -7.6649   45.8754 H   0  0  0  0  0  0  0  0  0  0  0  0
   11.5113   -7.3789   43.5399 H   0  0  0  0  0  0  0  0  0  0  0  0
   11.4127   -8.0011   41.5583 H   0  0  0  0  0  0  0  0  0  0  0  0
    8.9472   -9.6836   40.8085 H   0  0  0  0  0  0  0  0  0  0  0  0
   12.2841   -8.0696   39.6787 H   0  0  0  0  0  0  0  0  0  0  0  0
   13.1442   -8.2876   37.4034 H   0  0  0  0  0  0  0  0  0  0  0  0
   11.8142   -9.5866   35.7285 H   0  0  0  0  0  0  0  0  0  0  0  0
    8.8911  -10.4604   38.4879 H   0  0  0  0  0  0  0  0  0  0  0  0
  1  2  2  0  0  0  0
  1  6  1  0  0  0  0
  1 30  1  0  0  0  0
  2  3  1  0  0  0  0
  2 31  1  0  0  0  0
  3  4  2  0  0  0  0
  3 32  1  0  0  0  0
  4  5  1  0  0  0  0
  4 33  1  0  0  0  0
  5  6  2  0  0  0  0
  5 34  1  0  0  0  0
  6  7  1  0  0  0  0
  7  8  2  0  0  0  0
  7  9  1  0  0  0  0
  9 10  1  0  0  0  0
  9 12  1  0  0  0  0
 10 11  1  0  0  0  0
 10 35  1  0  0  0  0
 10 36  1  0  0  0  0
 11 14  1  0  0  0  0
 11 37  1  0  0  0  0
 11 38  1  0  0  0  0
 12 13  1  0  0  0  0
 12 39  1  0  0  0  0
 12 40  1  0  0  0  0
 13 14  1  0  0  0  0
 13 41  1  0  0  0  0
 13 42  1  0  0  0  0
 14 15  1  0  0  0  0
 14 43  1  0  0  0  0
 15 16  1  0  0  0  0
 15 44  1  0  0  0  0
 15 45  1  0  0  0  0
 16 17  1  0  0  0  0
 16 46  1  0  0  0  0
 16 47  1  0  0  0  0
 17 18  1  0  0  0  0
 17 48  1  0  0  0  0
 17 49  1  0  0  0  0
 18 19  1  0  0  0  0
 18 50  1  0  0  0  0
 18 51  1  0  0  0  0
 19 20  1  0  0  0  0
 19 52  1  0  0  0  0
 20 21  2  0  0  0  0
 20 22  1  0  0  0  0
 22 23  2  0  0  0  0
 22 53  1  0  0  0  0
 23 24  1  0  0  0  0
 23 54  1  0  0  0  0
 24 25  2  0  0  0  0
 24 29  1  0  0  0  0
 25 26  1  0  0  0  0
 25 55  1  0  0  0  0
 26 27  2  0  0  0  0
 26 56  1  0  0  0  0
 27 28  1  0  0  0  0
 27 57  1  0  0  0  0
 28 29  2  0  0  0  0
 29 58  1  0  0  0  0
M  END
$$$$
