DHB
 OpenBabel04051917283D

 16 16  0  0  0  0  0  0  0  0999 V2000
   12.2013  -13.9006   41.4547 C   0  0  0  0  0  0  0  0  0  0  0  0
   11.0718  -14.0780   42.2723 C   0  0  0  0  0  0  0  0  0  0  0  0
    9.8173  -13.7196   41.8028 C   0  0  0  0  0  0  0  0  0  0  0  0
    8.7286  -13.9081   42.6073 O   0  0  0  0  0  0  0  0  0  0  0  0
    9.6697  -13.1827   40.5242 C   0  0  0  0  0  0  0  0  0  0  0  0
    8.4078  -12.8369   40.1115 O   0  0  0  0  0  0  0  0  0  0  0  0
   10.7762  -12.9968   39.7002 C   0  0  0  0  0  0  0  0  0  0  0  0
   12.0400  -13.3691   40.1648 C   0  0  0  0  0  0  0  0  0  0  0  0
   13.5623  -14.2809   41.9592 C   0  0  0  0  0  0  0  0  0  0  0  0
   13.9700  -13.6828   42.9982 O   0  0  0  0  0  0  0  0  0  0  0  0
   14.1913  -15.1576   41.2843 O   0  0  0  0  0  0  0  0  0  0  0  0
   11.1956  -14.4895   43.2712 H   0  0  0  0  0  0  0  0  0  0  0  0
    7.9785  -13.5910   42.0717 H   0  0  0  0  0  0  0  0  0  0  0  0
    8.4958  -12.4838   39.2052 H   0  0  0  0  0  0  0  0  0  0  0  0
   10.6868  -12.5736   38.7067 H   0  0  0  0  0  0  0  0  0  0  0  0
   12.9215  -13.2392   39.5412 H   0  0  0  0  0  0  0  0  0  0  0  0
  1  2  2  0  0  0  0
  1  8  1  0  0  0  0
  1  9  1  0  0  0  0
  2  3  1  0  0  0  0
  2 12  1  0  0  0  0
  3  4  1  0  0  0  0
  3  5  2  0  0  0  0
  4 13  1  0  0  0  0
  5  6  1  0  0  0  0
  5  7  1  0  0  0  0
  6 14  1  0  0  0  0
  7  8  2  0  0  0  0
  7 15  1  0  0  0  0
  8 16  1  0  0  0  0
  9 10  2  0  0  0  0
  9 11  1  0  0  0  0
M  END
$$$$
