DHJ
 OpenBabel04051918123D

 23 22  0  0  0  0  0  0  0  0999 V2000
   54.5271   29.6804   47.8269 O   0  0  0  0  0  0  0  0  0  0  0  0
   54.9650   29.7743   49.0030 C   0  0  0  0  0  0  0  0  0  0  0  0
   54.3364   29.5319   50.0843 O   0  0  0  0  0  0  0  0  0  0  0  0
   56.3942   30.2714   49.2129 C   0  0  0  0  0  0  0  0  0  0  0  0
   57.1798   30.4413   47.9183 C   0  0  0  0  0  0  0  0  0  0  0  0
   58.9198   30.9631   48.0536 P   0  0  1  0  0  0  0  0  0  0  0  0
   59.5196   30.3675   49.3164 O   0  0  0  0  0  0  0  0  0  0  0  0
   59.5308   30.6780   46.7017 O   0  0  0  0  0  0  0  0  0  0  0  0
   58.8035   32.7493   48.2671 C   0  0  0  0  0  0  0  0  0  0  0  0
   59.9112   33.4981   47.5503 C   0  0  0  0  0  0  0  0  0  0  0  0
   60.8759   33.9456   48.1993 O   0  0  0  0  0  0  0  0  0  0  0  0
   59.6404   33.8923   46.1199 C   0  0  0  0  0  0  0  0  0  0  0  0
   60.6251   33.3977   45.0769 C   0  0  0  0  0  0  0  0  0  0  0  0
   61.8579   33.5722   45.3032 O   0  0  0  0  0  0  0  0  0  0  0  0
   60.0881   33.1098   43.9575 O   0  0  0  0  0  0  0  0  0  0  0  0
   56.9234   29.5631   49.8625 H   0  0  0  0  0  0  0  0  0  0  0  0
   56.3563   31.2304   49.7434 H   0  0  0  0  0  0  0  0  0  0  0  0
   56.6645   31.1406   47.2498 H   0  0  0  0  0  0  0  0  0  0  0  0
   57.2065   29.4713   47.3980 H   0  0  0  0  0  0  0  0  0  0  0  0
   58.8491   33.0042   49.3342 H   0  0  0  0  0  0  0  0  0  0  0  0
   57.8373   33.1463   47.9223 H   0  0  0  0  0  0  0  0  0  0  0  0
   59.6307   34.9888   46.0875 H   0  0  0  0  0  0  0  0  0  0  0  0
   58.6268   33.5741   45.8523 H   0  0  0  0  0  0  0  0  0  0  0  0
  1  2  2  0  0  0  0
  2  3  1  0  0  0  0
  2  4  1  0  0  0  0
  4  5  1  0  0  0  0
  4 16  1  0  0  0  0
  4 17  1  0  0  0  0
  5 18  1  0  0  0  0
  5 19  1  0  0  0  0
  6  5  1  6  0  0  0
  6  7  2  0  0  0  0
  6  8  1  0  0  0  0
  6  9  1  0  0  0  0
  9 10  1  0  0  0  0
  9 20  1  0  0  0  0
  9 21  1  0  0  0  0
 10 11  2  0  0  0  0
 10 12  1  0  0  0  0
 12 13  1  0  0  0  0
 12 22  1  0  0  0  0
 12 23  1  0  0  0  0
 13 14  2  0  0  0  0
 13 15  1  0  0  0  0
M  END
$$$$
