DJR
 OpenBabel04051918143D

 77 80  0  0  1  0  0  0  0  0999 V2000
   11.7495   18.1258   18.3170 C   0  0  1  0  0  0  0  0  0  0  0  0
   10.8431   18.7928   20.4098 O   0  0  0  0  0  0  0  0  0  0  0  0
   10.4725   18.2624   19.1276 C   0  0  1  0  0  0  0  0  0  0  0  0
    9.6239   19.1047   18.3407 O   0  0  0  0  0  0  0  0  0  0  0  0
    9.9492   18.7845   16.9691 C   0  0  0  0  0  0  0  0  0  0  0  0
   11.4339   18.5329   16.9165 C   0  0  0  0  0  0  0  0  0  0  0  0
   12.2830   18.8144   20.4567 C   0  0  0  0  0  0  0  0  0  0  0  0
   12.7681   18.9705   19.0312 C   0  0  2  0  0  0  0  0  0  0  0  0
   12.6399   20.3566   18.6886 O   0  0  0  0  0  0  0  0  0  0  0  0
   13.6886   20.8547   18.0221 C   0  0  0  0  0  0  0  0  0  0  0  0
   14.7553   20.2803   17.7777 O   0  0  0  0  0  0  0  0  0  0  0  0
   13.4265   22.1313   17.6781 N   0  0  0  0  0  0  0  0  0  0  0  0
   14.3798   22.9430   16.9615 C   0  0  1  0  0  0  0  0  0  0  0  0
   13.7504   23.4409   15.6570 C   0  0  0  0  0  0  0  0  0  0  0  0
   13.2693   22.3183   14.7874 C   0  0  0  0  0  0  0  0  0  0  0  0
   14.1585   21.6430   13.9414 C   0  0  0  0  0  0  0  0  0  0  0  0
   13.7140   20.5640   13.1791 C   0  0  0  0  0  0  0  0  0  0  0  0
   12.3866   20.1461   13.2602 C   0  0  0  0  0  0  0  0  0  0  0  0
   11.5001   20.8138   14.1046 C   0  0  0  0  0  0  0  0  0  0  0  0
   11.9411   21.8901   14.8681 C   0  0  0  0  0  0  0  0  0  0  0  0
   14.8117   24.0773   17.9001 C   0  0  2  0  0  0  0  0  0  0  0  0
   13.6281   24.7561   18.3610 O   0  0  0  0  0  0  0  0  0  0  0  0
   15.7448   25.0740   17.2208 C   0  0  0  0  0  0  0  0  0  0  0  0
   17.1330   24.6289   17.2242 N   0  0  0  0  0  0  0  0  0  0  0  0
   17.7879   24.2476   15.7365 S   0  0  0  0  0  0  0  0  0  0  0  0
   18.6596   23.1004   15.9001 O   0  0  0  0  0  0  0  0  0  0  0  0
   16.7691   24.1894   14.7633 O   0  0  0  0  0  0  0  0  0  0  0  0
   18.7760   25.7001   15.2960 C   0  0  0  0  0  0  0  0  0  0  0  0
   20.1358   25.7814   15.5648 C   0  0  0  0  0  0  0  0  0  0  0  0
   20.8519   26.9540   15.2105 C   0  0  0  0  0  0  0  0  0  0  0  0
   20.2268   28.0274   14.5817 C   0  0  0  0  0  0  0  0  0  0  0  0
   20.8481   29.1912   14.2085 O   0  0  0  0  0  0  0  0  0  0  0  0
   22.2429   29.2612   14.5208 C   0  0  0  0  0  0  0  0  0  0  0  0
   18.8386   27.9311   14.2964 C   0  0  0  0  0  0  0  0  0  0  0  0
   18.1301   26.7660   14.6548 C   0  0  0  0  0  0  0  0  0  0  0  0
   17.9904   24.9734   18.3683 C   0  0  0  0  0  0  0  0  0  0  0  0
   17.7177   24.1099   19.6087 C   0  0  0  0  0  0  0  0  0  0  0  0
   18.7380   24.4232   20.7019 C   0  0  0  0  0  0  0  0  0  0  0  0
   17.7920   22.6227   19.2848 C   0  0  0  0  0  0  0  0  0  0  0  0
   12.0626   17.0793   18.3843 H   0  0  0  0  0  0  0  0  0  0  0  0
    9.9560   17.3047   19.2758 H   0  0  0  0  0  0  0  0  0  0  0  0
    9.6405   19.5909   16.3154 H   0  0  0  0  0  0  0  0  0  0  0  0
    9.4107   17.8681   16.7054 H   0  0  0  0  0  0  0  0  0  0  0  0
   11.7108   17.7314   16.2403 H   0  0  0  0  0  0  0  0  0  0  0  0
   11.9756   19.4144   16.5870 H   0  0  0  0  0  0  0  0  0  0  0  0
   12.6158   17.8560   20.8640 H   0  0  0  0  0  0  0  0  0  0  0  0
   12.6075   19.6384   21.0959 H   0  0  0  0  0  0  0  0  0  0  0  0
   13.7730   18.5798   18.8791 H   0  0  0  0  0  0  0  0  0  0  0  0
   12.5218   22.5064   17.9227 H   0  0  0  0  0  0  0  0  0  0  0  0
   15.2582   22.3363   16.7230 H   0  0  0  0  0  0  0  0  0  0  0  0
   14.4598   24.0035   15.0651 H   0  0  0  0  0  0  0  0  0  0  0  0
   12.9360   24.1429   15.8667 H   0  0  0  0  0  0  0  0  0  0  0  0
   15.2015   21.9624   13.8772 H   0  0  0  0  0  0  0  0  0  0  0  0
   14.4102   20.0504   12.5153 H   0  0  0  0  0  0  0  0  0  0  0  0
   12.0443   19.3087   12.6654 H   0  0  0  0  0  0  0  0  0  0  0  0
   10.4625   20.4873   14.1710 H   0  0  0  0  0  0  0  0  0  0  0  0
   11.2486   22.3914   15.5457 H   0  0  0  0  0  0  0  0  0  0  0  0
   15.2753   23.6404   18.7850 H   0  0  0  0  0  0  0  0  0  0  0  0
   13.9141   25.4673   18.9695 H   0  0  0  0  0  0  0  0  0  0  0  0
   15.6117   26.0664   17.6557 H   0  0  0  0  0  0  0  0  0  0  0  0
   15.3952   25.2136   16.2117 H   0  0  0  0  0  0  0  0  0  0  0  0
   20.6698   24.9769   16.0607 H   0  0  0  0  0  0  0  0  0  0  0  0
   21.9065   27.0012   15.4278 H   0  0  0  0  0  0  0  0  0  0  0  0
   22.6591   30.2191   14.1931 H   0  0  0  0  0  0  0  0  0  0  0  0
   22.8034   28.4723   14.0034 H   0  0  0  0  0  0  0  0  0  0  0  0
   22.4080   29.1912   15.6035 H   0  0  0  0  0  0  0  0  0  0  0  0
   18.3079   28.7430   13.8014 H   0  0  0  0  0  0  0  0  0  0  0  0
   17.0592   26.6981   14.4309 H   0  0  0  0  0  0  0  0  0  0  0  0
   17.8720   26.0355   18.6363 H   0  0  0  0  0  0  0  0  0  0  0  0
   19.0407   24.8392   18.0917 H   0  0  0  0  0  0  0  0  0  0  0  0
   16.7272   24.3424   20.0134 H   0  0  0  0  0  0  0  0  0  0  0  0
   18.5596   23.8204   21.5984 H   0  0  0  0  0  0  0  0  0  0  0  0
   18.6954   25.4775   20.9880 H   0  0  0  0  0  0  0  0  0  0  0  0
   19.7513   24.2083   20.3506 H   0  0  0  0  0  0  0  0  0  0  0  0
   17.0690   22.3455   18.5187 H   0  0  0  0  0  0  0  0  0  0  0  0
   17.5844   22.0125   20.1677 H   0  0  0  0  0  0  0  0  0  0  0  0
   18.7853   22.3599   18.9128 H   0  0  0  0  0  0  0  0  0  0  0  0
  1  3  1  0  0  0  0
  1  6  1  0  0  0  0
  1  8  1  0  0  0  0
  1 40  1  1  0  0  0
  2  3  1  0  0  0  0
  2  7  1  0  0  0  0
  3  4  1  0  0  0  0
  3 41  1  1  0  0  0
  4  5  1  0  0  0  0
  5  6  1  0  0  0  0
  5 42  1  0  0  0  0
  5 43  1  0  0  0  0
  6 44  1  0  0  0  0
  6 45  1  0  0  0  0
  7  8  1  0  0  0  0
  7 46  1  0  0  0  0
  7 47  1  0  0  0  0
  8  9  1  0  0  0  0
  8 48  1  6  0  0  0
  9 10  1  0  0  0  0
 10 11  2  0  0  0  0
 10 12  1  0  0  0  0
 12 13  1  0  0  0  0
 12 49  1  0  0  0  0
 13 14  1  0  0  0  0
 13 21  1  0  0  0  0
 13 50  1  6  0  0  0
 14 15  1  0  0  0  0
 14 51  1  0  0  0  0
 14 52  1  0  0  0  0
 15 16  2  0  0  0  0
 15 20  1  0  0  0  0
 16 17  1  0  0  0  0
 16 53  1  0  0  0  0
 17 18  2  0  0  0  0
 17 54  1  0  0  0  0
 18 19  1  0  0  0  0
 18 55  1  0  0  0  0
 19 20  2  0  0  0  0
 19 56  1  0  0  0  0
 20 57  1  0  0  0  0
 21 22  1  0  0  0  0
 21 23  1  0  0  0  0
 21 58  1  1  0  0  0
 22 59  1  0  0  0  0
 23 24  1  0  0  0  0
 23 60  1  0  0  0  0
 23 61  1  0  0  0  0
 24 25  1  0  0  0  0
 24 36  1  0  0  0  0
 25 26  2  0  0  0  0
 25 27  2  0  0  0  0
 25 28  1  0  0  0  0
 28 29  2  0  0  0  0
 28 35  1  0  0  0  0
 29 30  1  0  0  0  0
 29 62  1  0  0  0  0
 30 31  2  0  0  0  0
 30 63  1  0  0  0  0
 31 32  1  0  0  0  0
 31 34  1  0  0  0  0
 32 33  1  0  0  0  0
 33 64  1  0  0  0  0
 33 65  1  0  0  0  0
 33 66  1  0  0  0  0
 34 35  2  0  0  0  0
 34 67  1  0  0  0  0
 35 68  1  0  0  0  0
 36 37  1  0  0  0  0
 36 69  1  0  0  0  0
 36 70  1  0  0  0  0
 37 38  1  0  0  0  0
 37 39  1  0  0  0  0
 37 71  1  0  0  0  0
 38 72  1  0  0  0  0
 38 73  1  0  0  0  0
 38 74  1  0  0  0  0
 39 75  1  0  0  0  0
 39 76  1  0  0  0  0
 39 77  1  0  0  0  0
M  END
$$$$
