DK2
 OpenBabel04051918513D

 37 39  0  0  1  0  0  0  0  0999 V2000
   26.2769    5.7447   14.4799 O   0  0  0  0  0  0  0  0  0  0  0  0
   25.0639    5.6627   14.5804 C   0  0  0  0  0  0  0  0  0  0  0  0
   24.1975    5.3032   13.4537 C   0  0  0  0  0  0  0  0  0  0  0  0
   22.8798    5.4244   13.8565 C   0  0  0  0  0  0  0  0  0  0  0  0
   21.8258    5.1451   12.9788 C   0  0  0  0  0  0  0  0  0  0  0  0
   24.5316    4.9144   12.1658 C   0  0  0  0  0  0  0  0  0  0  0  0
   23.4890    4.6232   11.2692 C   0  0  0  0  0  0  0  0  0  0  0  0
   22.1323    4.7279   11.6566 C   0  0  0  0  0  0  0  0  0  0  0  0
   21.0675    4.4028   10.6231 C   0  0  0  0  0  0  0  0  0  0  0  0
   21.3713    4.6390    9.4088 O   0  0  0  0  0  0  0  0  0  0  0  0
   19.9737    3.9053   11.0321 O   0  0  0  0  0  0  0  0  0  0  0  0
   24.2397    5.9879   15.6453 N   0  0  0  0  0  0  0  0  0  0  0  0
   22.9124    5.8688   15.2706 C   0  0  0  0  0  0  0  0  0  0  0  0
   21.9127    6.1089   15.9311 O   0  0  0  0  0  0  0  0  0  0  0  0
   24.7732    6.4755   16.9386 C   0  0  1  0  0  0  0  0  0  0  0  0
   25.8600    5.5200   17.5124 C   0  0  0  0  0  0  0  0  0  0  0  0
   26.8544    6.0575   18.0836 O   0  0  0  0  0  0  0  0  0  0  0  0
   25.5977    4.2864   17.3881 O   0  0  0  0  0  0  0  0  0  0  0  0
   25.3658    7.8872   16.8018 C   0  0  0  0  0  0  0  0  0  0  0  0
   24.3112    8.8542   16.3185 C   0  0  0  0  0  0  0  0  0  0  0  0
   24.1541    9.0933   14.9466 C   0  0  0  0  0  0  0  0  0  0  0  0
   23.1200    9.9078   14.4942 C   0  0  0  0  0  0  0  0  0  0  0  0
   22.2510   10.4810   15.4155 C   0  0  0  0  0  0  0  0  0  0  0  0
   21.2585   11.2949   14.9498 O   0  0  0  0  0  0  0  0  0  0  0  0
   22.3885   10.2448   16.7810 C   0  0  0  0  0  0  0  0  0  0  0  0
   23.4197    9.4268   17.2329 C   0  0  0  0  0  0  0  0  0  0  0  0
   20.7860    5.2476   13.2799 H   0  0  0  0  0  0  0  0  0  0  0  0
   25.5628    4.8237   11.8452 H   0  0  0  0  0  0  0  0  0  0  0  0
   23.7129    4.3005   10.2540 H   0  0  0  0  0  0  0  0  0  0  0  0
   23.9534    6.5165   17.6724 H   0  0  0  0  0  0  0  0  0  0  0  0
   26.2110    7.8873   16.1022 H   0  0  0  0  0  0  0  0  0  0  0  0
   25.7674    8.2646   17.7546 H   0  0  0  0  0  0  0  0  0  0  0  0
   24.8218    8.6148   14.2321 H   0  0  0  0  0  0  0  0  0  0  0  0
   22.9963   10.0833   13.4312 H   0  0  0  0  0  0  0  0  0  0  0  0
   20.7429   11.5898   15.7168 H   0  0  0  0  0  0  0  0  0  0  0  0
   21.7045   10.6788   17.5001 H   0  0  0  0  0  0  0  0  0  0  0  0
   23.5231    9.2125   18.2943 H   0  0  0  0  0  0  0  0  0  0  0  0
  1  2  2  0  0  0  0
  2  3  1  0  0  0  0
  2 12  1  0  0  0  0
  3  4  2  0  0  0  0
  3  6  1  0  0  0  0
  4  5  1  0  0  0  0
  4 13  1  0  0  0  0
  5  8  2  0  0  0  0
  5 27  1  0  0  0  0
  6  7  2  0  0  0  0
  6 28  1  0  0  0  0
  7  8  1  0  0  0  0
  7 29  1  0  0  0  0
  8  9  1  0  0  0  0
  9 10  2  0  0  0  0
  9 11  1  0  0  0  0
 12 13  1  0  0  0  0
 12 15  1  0  0  0  0
 13 14  2  0  0  0  0
 15 16  1  0  0  0  0
 15 19  1  0  0  0  0
 15 30  1  1  0  0  0
 16 17  2  0  0  0  0
 16 18  1  0  0  0  0
 19 20  1  0  0  0  0
 19 31  1  0  0  0  0
 19 32  1  0  0  0  0
 20 21  2  0  0  0  0
 20 26  1  0  0  0  0
 21 22  1  0  0  0  0
 21 33  1  0  0  0  0
 22 23  2  0  0  0  0
 22 34  1  0  0  0  0
 23 24  1  0  0  0  0
 23 25  1  0  0  0  0
 24 35  1  0  0  0  0
 25 26  2  0  0  0  0
 25 36  1  0  0  0  0
 26 37  1  0  0  0  0
M  END
$$$$
