DLI
 OpenBabel04051918353D

 51 54  0  0  1  0  0  0  0  0999 V2000
   29.1734    5.8857   62.5159 C   0  0  0  0  0  0  0  0  0  0  0  0
   27.8798    6.3695   62.4316 C   0  0  0  0  0  0  0  0  0  0  0  0
   27.6458    7.6837   62.8159 C   0  0  0  0  0  0  0  0  0  0  0  0
   31.5819    6.0304   63.1118 C   0  0  2  0  0  0  0  0  0  0  0  0
   32.8593    6.7904   62.7488 C   0  0  0  0  0  0  0  0  0  0  0  0
   42.7035    4.6666   62.4473 C   0  0  0  0  0  0  0  0  0  0  0  0
   36.8541    6.6386   61.6665 C   0  0  0  0  0  0  0  0  0  0  0  0
   36.1090    5.2296   63.7719 C   0  0  0  0  0  0  0  0  0  0  0  0
   38.4844    4.4149   64.1011 C   0  0  0  0  0  0  0  0  0  0  0  0
   39.1429    2.8671   65.9369 C   0  0  0  0  0  0  0  0  0  0  0  0
   40.7951    3.6182   64.3574 C   0  0  0  0  0  0  0  0  0  0  0  0
   28.6856    8.4856   63.2945 C   0  0  0  0  0  0  0  0  0  0  0  0
   29.9814    7.9877   63.3890 C   0  0  0  0  0  0  0  0  0  0  0  0
   30.2383    6.6793   62.9813 C   0  0  0  0  0  0  0  0  0  0  0  0
   31.8242    5.5470   64.5467 C   0  0  2  0  0  0  0  0  0  0  0  0
   29.4197    4.6013   62.2137 F   0  0  0  0  0  0  0  0  0  0  0  0
   33.8653    6.0098   63.4645 N   0  0  0  0  0  0  0  0  0  0  0  0
   33.3188    5.2126   64.5546 C   0  0  0  0  0  0  0  0  0  0  0  0
   26.4024    8.1692   62.7272 F   0  0  0  0  0  0  0  0  0  0  0  0
   35.1829    5.9914   63.0748 C   0  0  0  0  0  0  0  0  0  0  0  0
   28.4663    9.7468   63.6843 F   0  0  0  0  0  0  0  0  0  0  0  0
   35.5567    6.7086   62.0112 N   0  0  0  0  0  0  0  0  0  0  0  0
   37.8113    5.9197   62.2867 N   0  0  0  0  0  0  0  0  0  0  0  0
   37.4358    5.2007   63.3676 C   0  0  0  0  0  0  0  0  0  0  0  0
   30.9418    4.3693   64.8028 N   0  3  0  0  0  0  0  0  0  0  0  0
   38.1709    3.6168   65.2495 C   0  0  0  0  0  0  0  0  0  0  0  0
   40.4583    2.8657   65.4839 C   0  0  0  0  0  0  0  0  0  0  0  0
   39.8261    4.3729   63.6736 C   0  0  0  0  0  0  0  0  0  0  0  0
   42.4991    3.5566   63.8111 S   0  0  0  0  0  0  0  0  0  0  0  0
   42.7099    2.2092   63.3231 O   0  0  0  0  0  0  0  0  0  0  0  0
   43.2851    4.0838   64.9201 O   0  0  0  0  0  0  0  0  0  0  0  0
   27.0722    5.7401   62.0657 H   0  0  0  0  0  0  0  0  0  0  0  0
   31.5944    5.1536   62.4476 H   0  0  0  0  0  0  0  0  0  0  0  0
   32.8604    7.8322   63.0859 H   0  0  0  0  0  0  0  0  0  0  0  0
   32.9905    6.7760   61.6595 H   0  0  0  0  0  0  0  0  0  0  0  0
   43.7497    4.6229   62.1340 H   0  0  0  0  0  0  0  0  0  0  0  0
   42.4719    5.6858   62.7610 H   0  0  0  0  0  0  0  0  0  0  0  0
   42.0720    4.3485   61.6158 H   0  0  0  0  0  0  0  0  0  0  0  0
   37.1531    7.2223   60.7970 H   0  0  0  0  0  0  0  0  0  0  0  0
   35.7906    4.6630   64.6291 H   0  0  0  0  0  0  0  0  0  0  0  0
   38.8742    2.2846   66.8108 H   0  0  0  0  0  0  0  0  0  0  0  0
   30.7594    8.6392   63.7803 H   0  0  0  0  0  0  0  0  0  0  0  0
   31.5901    6.2897   65.3198 H   0  0  0  0  0  0  0  0  0  0  0  0
   33.4869    4.1406   64.3932 H   0  0  0  0  0  0  0  0  0  0  0  0
   33.7630    5.5010   65.5137 H   0  0  0  0  0  0  0  0  0  0  0  0
   31.0436    3.9735   65.7483 H   0  0  0  0  0  0  0  0  0  0  0  0
   29.9555    4.6384   64.7012 H   0  0  0  0  0  0  0  0  0  0  0  0
   37.1711    3.5683   65.6539 H   0  0  0  0  0  0  0  0  0  0  0  0
   41.2111    2.2784   66.0117 H   0  0  0  0  0  0  0  0  0  0  0  0
   40.1007    4.9486   62.8009 H   0  0  0  0  0  0  0  0  0  0  0  0
   31.0961    3.6184   64.1114 H   0  0  0  0  0  0  0  0  0  0  0  0
  1  2  2  0  0  0  0
  1 14  1  0  0  0  0
  1 16  1  0  0  0  0
  2  3  1  0  0  0  0
  2 32  1  0  0  0  0
  3 12  2  0  0  0  0
  3 19  1  0  0  0  0
  4  5  1  0  0  0  0
  4 14  1  0  0  0  0
  4 15  1  0  0  0  0
  4 33  1  6  0  0  0
  5 17  1  0  0  0  0
  5 34  1  0  0  0  0
  5 35  1  0  0  0  0
  6 29  1  0  0  0  0
  6 36  1  0  0  0  0
  6 37  1  0  0  0  0
  6 38  1  0  0  0  0
  7 22  2  0  0  0  0
  7 23  1  0  0  0  0
  7 39  1  0  0  0  0
  8 20  2  0  0  0  0
  8 24  1  0  0  0  0
  8 40  1  0  0  0  0
  9 24  1  0  0  0  0
  9 26  2  0  0  0  0
  9 28  1  0  0  0  0
 10 26  1  0  0  0  0
 10 27  2  0  0  0  0
 10 41  1  0  0  0  0
 11 27  1  0  0  0  0
 11 28  2  0  0  0  0
 11 29  1  0  0  0  0
 12 13  1  0  0  0  0
 12 21  1  0  0  0  0
 13 14  2  0  0  0  0
 13 42  1  0  0  0  0
 15 18  1  0  0  0  0
 15 25  1  0  0  0  0
 15 43  1  1  0  0  0
 17 18  1  0  0  0  0
 17 20  1  0  0  0  0
 18 44  1  0  0  0  0
 18 45  1  0  0  0  0
 20 22  1  0  0  0  0
 23 24  2  0  0  0  0
 25 46  1  0  0  0  0
 25 47  1  0  0  0  0
 25 51  1  0  0  0  0
 26 48  1  0  0  0  0
 27 49  1  0  0  0  0
 28 50  1  0  0  0  0
 29 30  2  0  0  0  0
 29 31  2  0  0  0  0
M  CHG  1  25   1
M  END
$$$$
