DOQ
 OpenBabel04051918463D

 41 41  0  0  1  0  0  0  0  0999 V2000
   -6.1953  -31.0222   81.8729 O   0  0  0  0  0  0  0  0  0  0  0  0
   -5.6559  -32.0856   82.3070 C   0  0  0  0  0  0  0  0  0  0  0  0
   -5.0087  -32.2418   83.3906 O   0  0  0  0  0  0  0  0  0  0  0  0
   -5.8247  -33.3353   81.4226 C   0  0  2  0  0  0  0  0  0  0  0  0
   -6.8995  -34.2357   82.0120 C   0  0  0  0  0  0  0  0  0  0  0  0
   -4.5151  -34.0786   81.3253 C   0  0  0  0  0  0  0  0  0  0  0  0
   -3.8569  -34.1664   80.1674 C   0  0  0  0  0  0  0  0  0  0  0  0
   -2.5800  -34.8062   80.0305 C   0  0  0  0  0  0  0  0  0  0  0  0
   -1.9244  -34.8632   78.8592 C   0  0  0  0  0  0  0  0  0  0  0  0
   -0.5908  -35.5556   78.7726 C   0  0  0  0  0  0  0  0  0  0  0  0
   -2.5351  -34.2961   77.5866 C   0  0  1  0  0  0  0  0  0  0  0  0
   -1.5405  -34.1315   76.4485 C   0  0  0  0  0  0  0  0  0  0  0  0
   -2.3564  -34.0253   75.2265 N   0  3  0  0  0  0  0  0  0  0  0  0
   -3.7888  -34.5475   75.5735 C   0  0  2  0  0  0  0  0  0  0  0  0
   -4.8114  -33.3754   75.5676 C   0  0  0  0  0  0  0  0  0  0  0  0
   -4.2821  -32.3095   75.0822 O   0  0  0  0  0  0  0  0  0  0  0  0
   -5.9739  -33.5621   76.0359 O   0  0  0  0  0  0  0  0  0  0  0  0
   -3.5919  -35.2076   76.9386 C   0  0  1  0  0  0  0  0  0  0  0  0
   -3.0508  -36.6367   76.8001 C   0  0  0  0  0  0  0  0  0  0  0  0
   -4.0704  -37.6403   76.2977 C   0  0  0  0  0  0  0  0  0  0  0  0
   -5.2815  -37.3251   76.4181 O   0  0  0  0  0  0  0  0  0  0  0  0
   -3.5576  -38.6625   75.7619 O   0  0  0  0  0  0  0  0  0  0  0  0
   -6.1516  -33.0239   80.4214 H   0  0  0  0  0  0  0  0  0  0  0  0
   -7.0412  -35.1305   81.3919 H   0  0  0  0  0  0  0  0  0  0  0  0
   -7.8614  -33.7137   82.0710 H   0  0  0  0  0  0  0  0  0  0  0  0
   -6.6328  -34.5643   83.0222 H   0  0  0  0  0  0  0  0  0  0  0  0
   -4.1025  -34.5047   82.2355 H   0  0  0  0  0  0  0  0  0  0  0  0
   -4.3117  -33.7055   79.2946 H   0  0  0  0  0  0  0  0  0  0  0  0
   -2.1606  -35.2529   80.9284 H   0  0  0  0  0  0  0  0  0  0  0  0
   -0.2853  -35.9522   79.7428 H   0  0  0  0  0  0  0  0  0  0  0  0
    0.1737  -34.8478   78.4380 H   0  0  0  0  0  0  0  0  0  0  0  0
   -0.6065  -36.3944   78.0718 H   0  0  0  0  0  0  0  0  0  0  0  0
   -2.9703  -33.3050   77.7871 H   0  0  0  0  0  0  0  0  0  0  0  0
   -0.9191  -35.0213   76.3142 H   0  0  0  0  0  0  0  0  0  0  0  0
   -0.9028  -33.2571   76.5448 H   0  0  0  0  0  0  0  0  0  0  0  0
   -2.5469  -33.0275   74.9769 H   0  0  0  0  0  0  0  0  0  0  0  0
   -4.0438  -35.2682   74.7922 H   0  0  0  0  0  0  0  0  0  0  0  0
   -4.5307  -35.2168   77.5031 H   0  0  0  0  0  0  0  0  0  0  0  0
   -2.7020  -36.9947   77.7737 H   0  0  0  0  0  0  0  0  0  0  0  0
   -2.1876  -36.6506   76.1215 H   0  0  0  0  0  0  0  0  0  0  0  0
   -2.0045  -34.5334   74.4213 H   0  0  0  0  0  0  0  0  0  0  0  0
  1  2  2  0  0  0  0
  2  3  1  0  0  0  0
  2  4  1  0  0  0  0
  4  5  1  0  0  0  0
  4  6  1  0  0  0  0
  4 23  1  6  0  0  0
  5 24  1  0  0  0  0
  5 25  1  0  0  0  0
  5 26  1  0  0  0  0
  6  7  2  0  0  0  0
  6 27  1  0  0  0  0
  7  8  1  0  0  0  0
  7 28  1  0  0  0  0
  8  9  2  0  0  0  0
  8 29  1  0  0  0  0
  9 10  1  0  0  0  0
  9 11  1  0  0  0  0
 10 30  1  0  0  0  0
 10 31  1  0  0  0  0
 10 32  1  0  0  0  0
 11 12  1  0  0  0  0
 11 18  1  0  0  0  0
 11 33  1  1  0  0  0
 12 13  1  0  0  0  0
 12 34  1  0  0  0  0
 12 35  1  0  0  0  0
 13 14  1  0  0  0  0
 13 36  1  0  0  0  0
 13 41  1  0  0  0  0
 14 15  1  0  0  0  0
 14 18  1  0  0  0  0
 14 37  1  6  0  0  0
 15 16  2  0  0  0  0
 15 17  1  0  0  0  0
 18 19  1  0  0  0  0
 18 38  1  1  0  0  0
 19 20  1  0  0  0  0
 19 39  1  0  0  0  0
 19 40  1  0  0  0  0
 20 21  2  0  0  0  0
 20 22  1  0  0  0  0
M  CHG  1  13   1
M  END
$$$$
