DP6
 OpenBabel04051918373D

 28 27  0  0  1  0  0  0  0  0999 V2000
   23.8192   24.3542   48.1687 C   0  0  0  0  0  0  0  0  0  0  0  0
   28.8461   25.4918   44.8758 O   0  0  0  0  0  0  0  0  0  0  0  0
   30.5744   24.6619   46.6923 O   0  0  0  0  0  0  0  0  0  0  0  0
   24.0171   26.6519   48.7142 O   0  0  0  0  0  0  0  0  0  0  0  0
   30.0947   23.0898   43.3069 O   0  0  0  0  0  0  0  0  0  0  0  0
   28.4502   21.2412   43.8610 O   0  0  0  0  0  0  0  0  0  0  0  0
   30.7095   21.2937   44.9875 O   0  0  0  0  0  0  0  0  0  0  0  0
   29.5966   22.1341   44.3826 P   0  0  0  0  0  0  0  0  0  0  0  0
   28.9233   22.9824   45.5809 O   0  0  0  0  0  0  0  0  0  0  0  0
   29.2350   24.5061   45.9622 P   0  0  2  0  0  0  0  0  0  0  0  0
   28.1569   24.7205   47.1505 O   0  0  0  0  0  0  0  0  0  0  0  0
   26.7724   24.8305   46.8271 C   0  0  0  0  0  0  0  0  0  0  0  0
   26.0238   25.5180   47.9831 C   0  0  0  0  0  0  0  0  0  0  0  0
   24.5077   25.6732   47.7765 C   0  0  1  0  0  0  0  0  0  0  0  0
   24.1597   26.0327   46.3231 C   0  0  0  0  0  0  0  0  0  0  0  0
   24.5863   27.4350   45.8862 C   0  0  0  0  0  0  0  0  0  0  0  0
   24.9951   27.5807   44.7074 O   0  0  0  0  0  0  0  0  0  0  0  0
   24.3427   28.3691   46.7646 O   0  0  0  0  0  0  0  0  0  0  0  0
   24.1500   23.5243   47.5385 H   0  0  0  0  0  0  0  0  0  0  0  0
   22.7289   24.4316   48.0947 H   0  0  0  0  0  0  0  0  0  0  0  0
   24.0342   24.0926   49.2124 H   0  0  0  0  0  0  0  0  0  0  0  0
   24.3782   27.4979   48.3555 H   0  0  0  0  0  0  0  0  0  0  0  0
   26.3651   23.8264   46.6666 H   0  0  0  0  0  0  0  0  0  0  0  0
   26.6500   25.4143   45.9134 H   0  0  0  0  0  0  0  0  0  0  0  0
   26.4619   26.5035   48.1668 H   0  0  0  0  0  0  0  0  0  0  0  0
   26.2046   24.9571   48.9096 H   0  0  0  0  0  0  0  0  0  0  0  0
   23.0746   25.9451   46.1700 H   0  0  0  0  0  0  0  0  0  0  0  0
   24.5960   25.3020   45.6521 H   0  0  0  0  0  0  0  0  0  0  0  0
  1 19  1  0  0  0  0
  1 20  1  0  0  0  0
  1 21  1  0  0  0  0
  3 10  1  0  0  0  0
  4 14  1  0  0  0  0
  4 22  1  0  0  0  0
  5  8  2  0  0  0  0
  6  8  1  0  0  0  0
  7  8  1  0  0  0  0
  8  9  1  0  0  0  0
  9 10  1  0  0  0  0
 10  2  2  6  0  0  0
 10 11  1  0  0  0  0
 11 12  1  0  0  0  0
 12 13  1  0  0  0  0
 12 23  1  0  0  0  0
 12 24  1  0  0  0  0
 13 14  1  0  0  0  0
 13 25  1  0  0  0  0
 13 26  1  0  0  0  0
 14  1  1  1  0  0  0
 14 15  1  0  0  0  0
 15 16  1  0  0  0  0
 15 27  1  0  0  0  0
 15 28  1  0  0  0  0
 16 17  2  0  0  0  0
 16 18  1  0  0  0  0
M  END
$$$$
