DR7
 OpenBabel04051918333D

103105  0  0  1  0  0  0  0  0999 V2000
   19.9726   24.6374   15.9581 C   0  0  0  0  0  0  0  0  0  0  0  0
   18.5540   24.7481   16.2549 O   0  0  0  0  0  0  0  0  0  0  0  0
   18.1235   23.9991   17.3106 C   0  0  0  0  0  0  0  0  0  0  0  0
   18.8596   23.3953   18.0623 O   0  0  0  0  0  0  0  0  0  0  0  0
   16.7610   23.9697   17.4475 N   0  0  0  0  0  0  0  0  0  0  0  0
   16.0861   23.2237   18.5163 C   0  0  1  0  0  0  0  0  0  0  0  0
   15.6187   24.1461   19.6656 C   0  0  0  0  0  0  0  0  0  0  0  0
   14.8458   25.3577   19.1550 C   0  0  0  0  0  0  0  0  0  0  0  0
   14.7786   23.3770   20.6869 C   0  0  0  0  0  0  0  0  0  0  0  0
   16.8406   24.6921   20.4065 C   0  0  0  0  0  0  0  0  0  0  0  0
   14.9336   22.4525   17.8369 C   0  0  0  0  0  0  0  0  0  0  0  0
   13.8911   22.9759   17.4889 O   0  0  0  0  0  0  0  0  0  0  0  0
   15.2444   21.1362   17.5871 N   0  0  0  0  0  0  0  0  0  0  0  0
   14.3775   20.1873   16.8714 C   0  0  1  0  0  0  0  0  0  0  0  0
   15.0941   19.7374   15.6092 C   0  0  0  0  0  0  0  0  0  0  0  0
   15.5161   20.9136   14.7701 C   0  0  0  0  0  0  0  0  0  0  0  0
   14.5576   21.6139   14.0326 C   0  0  0  0  0  0  0  0  0  0  0  0
   14.9395   22.7146   13.2702 C   0  0  0  0  0  0  0  0  0  0  0  0
   16.2711   23.1320   13.2490 C   0  0  0  0  0  0  0  0  0  0  0  0
   17.2310   22.4455   13.9907 C   0  0  0  0  0  0  0  0  0  0  0  0
   16.8515   21.3418   14.7536 C   0  0  0  0  0  0  0  0  0  0  0  0
   14.1243   18.9732   17.7822 C   0  0  1  0  0  0  0  0  0  0  0  0
   15.3498   18.3407   18.2115 O   0  0  0  0  0  0  0  0  0  0  0  0
   13.3994   19.4833   19.0031 C   0  0  0  0  0  0  0  0  0  0  0  0
   11.9755   19.2208   19.0342 N   0  0  0  0  0  0  0  0  0  0  0  0
   11.3361   18.2960   18.2028 N   0  0  0  0  0  0  0  0  0  0  0  0
   10.5163   18.6612   17.1122 C   0  0  0  0  0  0  0  0  0  0  0  0
   10.3459   19.7618   16.6513 O   0  0  0  0  0  0  0  0  0  0  0  0
    9.7654   17.4051   16.5552 C   0  0  2  0  0  0  0  0  0  0  0  0
    9.8214   17.2840   15.0164 C   0  0  0  0  0  0  0  0  0  0  0  0
   11.2623   17.4204   14.5260 C   0  0  0  0  0  0  0  0  0  0  0  0
    9.3193   15.8938   14.6246 C   0  0  0  0  0  0  0  0  0  0  0  0
    8.9476   18.3089   14.3022 C   0  0  0  0  0  0  0  0  0  0  0  0
    8.3958   17.4510   17.0679 N   0  0  0  0  0  0  0  0  0  0  0  0
    7.8365   16.3767   17.7304 C   0  0  0  0  0  0  0  0  0  0  0  0
    8.4286   15.3563   17.9308 O   0  0  0  0  0  0  0  0  0  0  0  0
    6.5490   16.6363   18.1288 O   0  0  0  0  0  0  0  0  0  0  0  0
    5.9363   15.6312   18.9767 C   0  0  0  0  0  0  0  0  0  0  0  0
   11.4102   19.6006   20.3082 C   0  0  0  0  0  0  0  0  0  0  0  0
    9.9271   19.7416   20.2588 C   0  0  0  0  0  0  0  0  0  0  0  0
    9.3884   20.9742   19.9046 C   0  0  0  0  0  0  0  0  0  0  0  0
    8.0092   21.1280   19.8390 C   0  0  0  0  0  0  0  0  0  0  0  0
    9.0852   18.6589   20.5281 C   0  0  0  0  0  0  0  0  0  0  0  0
    7.6993   18.8241   20.4531 C   0  0  0  0  0  0  0  0  0  0  0  0
    7.1258   20.0630   20.1110 C   0  0  0  0  0  0  0  0  0  0  0  0
    5.6640   20.2473   20.0021 C   0  0  0  0  0  0  0  0  0  0  0  0
    5.1349   21.1280   19.0611 C   0  0  0  0  0  0  0  0  0  0  0  0
    3.7564   21.2789   18.9720 C   0  0  0  0  0  0  0  0  0  0  0  0
    2.9297   20.5511   19.8201 C   0  0  0  0  0  0  0  0  0  0  0  0
    3.5146   19.6921   20.7339 C   0  0  0  0  0  0  0  0  0  0  0  0
    4.8591   19.5249   20.8392 N   0  0  0  0  0  0  0  0  0  0  0  0
   20.2346   25.2875   15.1059 H   0  0  0  0  0  0  0  0  0  0  0  0
   20.2176   23.6039   15.6766 H   0  0  0  0  0  0  0  0  0  0  0  0
   20.5880   24.9394   16.8171 H   0  0  0  0  0  0  0  0  0  0  0  0
   16.1814   24.4832   16.8023 H   0  0  0  0  0  0  0  0  0  0  0  0
   16.7652   22.4783   18.9448 H   0  0  0  0  0  0  0  0  0  0  0  0
   14.5553   26.0018   19.9916 H   0  0  0  0  0  0  0  0  0  0  0  0
   13.9449   25.0492   18.6270 H   0  0  0  0  0  0  0  0  0  0  0  0
   15.4711   25.9463   18.4743 H   0  0  0  0  0  0  0  0  0  0  0  0
   15.3319   22.5057   21.0575 H   0  0  0  0  0  0  0  0  0  0  0  0
   13.8436   23.0356   20.2366 H   0  0  0  0  0  0  0  0  0  0  0  0
   14.5376   24.0218   21.5407 H   0  0  0  0  0  0  0  0  0  0  0  0
   17.4765   25.2581   19.7203 H   0  0  0  0  0  0  0  0  0  0  0  0
   17.4214   23.8742   20.8413 H   0  0  0  0  0  0  0  0  0  0  0  0
   16.5198   25.3642   21.2105 H   0  0  0  0  0  0  0  0  0  0  0  0
   16.1363   20.7752   17.8927 H   0  0  0  0  0  0  0  0  0  0  0  0
   13.4106   20.6598   16.6278 H   0  0  0  0  0  0  0  0  0  0  0  0
   14.4345   19.0890   15.0210 H   0  0  0  0  0  0  0  0  0  0  0  0
   15.9784   19.1530   15.8910 H   0  0  0  0  0  0  0  0  0  0  0  0
   13.5178   21.2957   14.0510 H   0  0  0  0  0  0  0  0  0  0  0  0
   14.1944   23.2483   12.6882 H   0  0  0  0  0  0  0  0  0  0  0  0
   16.5582   23.9923   12.6511 H   0  0  0  0  0  0  0  0  0  0  0  0
   18.2672   22.7709   13.9738 H   0  0  0  0  0  0  0  0  0  0  0  0
   17.6030   20.8091   15.3325 H   0  0  0  0  0  0  0  0  0  0  0  0
   13.5305   18.2229   17.2563 H   0  0  0  0  0  0  0  0  0  0  0  0
   15.1164   17.5945   18.7911 H   0  0  0  0  0  0  0  0  0  0  0  0
   13.4938   20.5819   19.0330 H   0  0  0  0  0  0  0  0  0  0  0  0
   13.9132   19.1147   19.9006 H   0  0  0  0  0  0  0  0  0  0  0  0
   11.3261   17.3094   18.4191 H   0  0  0  0  0  0  0  0  0  0  0  0
   10.2797   16.5252   16.9509 H   0  0  0  0  0  0  0  0  0  0  0  0
   11.3026   17.3197   13.4367 H   0  0  0  0  0  0  0  0  0  0  0  0
   11.8886   16.6425   14.9753 H   0  0  0  0  0  0  0  0  0  0  0  0
   11.6674   18.3988   14.7977 H   0  0  0  0  0  0  0  0  0  0  0  0
    8.2853   15.7572   14.9564 H   0  0  0  0  0  0  0  0  0  0  0  0
    9.9431   15.1221   15.0878 H   0  0  0  0  0  0  0  0  0  0  0  0
    9.3554   15.7708   13.5381 H   0  0  0  0  0  0  0  0  0  0  0  0
    9.2678   19.3230   14.5419 H   0  0  0  0  0  0  0  0  0  0  0  0
    7.9004   18.1874   14.5964 H   0  0  0  0  0  0  0  0  0  0  0  0
    9.0167   18.1716   13.2168 H   0  0  0  0  0  0  0  0  0  0  0  0
    7.8651   18.2979   16.9406 H   0  0  0  0  0  0  0  0  0  0  0  0
    4.9044   15.9305   19.2303 H   0  0  0  0  0  0  0  0  0  0  0  0
    6.4971   15.5348   19.9159 H   0  0  0  0  0  0  0  0  0  0  0  0
    5.8933   14.6586   18.4697 H   0  0  0  0  0  0  0  0  0  0  0  0
   11.8362   20.5863   20.5707 H   0  0  0  0  0  0  0  0  0  0  0  0
   11.6918   18.9068   21.1052 H   0  0  0  0  0  0  0  0  0  0  0  0
   10.0478   21.8122   19.6869 H   0  0  0  0  0  0  0  0  0  0  0  0
    7.6130   22.1043   19.5727 H   0  0  0  0  0  0  0  0  0  0  0  0
    9.5053   17.6933   20.8023 H   0  0  0  0  0  0  0  0  0  0  0  0
    7.0465   17.9789   20.6537 H   0  0  0  0  0  0  0  0  0  0  0  0
    5.7869   21.6857   18.3969 H   0  0  0  0  0  0  0  0  0  0  0  0
    3.3311   21.9601   18.2440 H   0  0  0  0  0  0  0  0  0  0  0  0
    1.8526   20.6538   19.7667 H   0  0  0  0  0  0  0  0  0  0  0  0
    2.8878   19.1062   21.4101 H   0  0  0  0  0  0  0  0  0  0  0  0
  1  2  1  0  0  0  0
  1 52  1  0  0  0  0
  1 53  1  0  0  0  0
  1 54  1  0  0  0  0
  2  3  1  0  0  0  0
  3  4  2  0  0  0  0
  3  5  1  0  0  0  0
  5  6  1  0  0  0  0
  5 55  1  0  0  0  0
  6  7  1  0  0  0  0
  6 11  1  0  0  0  0
  6 56  1  1  0  0  0
  7  8  1  0  0  0  0
  7  9  1  0  0  0  0
  7 10  1  0  0  0  0
  8 57  1  0  0  0  0
  8 58  1  0  0  0  0
  8 59  1  0  0  0  0
  9 60  1  0  0  0  0
  9 61  1  0  0  0  0
  9 62  1  0  0  0  0
 10 63  1  0  0  0  0
 10 64  1  0  0  0  0
 10 65  1  0  0  0  0
 11 12  2  0  0  0  0
 11 13  1  0  0  0  0
 13 14  1  0  0  0  0
 13 66  1  0  0  0  0
 14 15  1  0  0  0  0
 14 22  1  0  0  0  0
 14 67  1  6  0  0  0
 15 16  1  0  0  0  0
 15 68  1  0  0  0  0
 15 69  1  0  0  0  0
 16 17  2  0  0  0  0
 16 21  1  0  0  0  0
 17 18  1  0  0  0  0
 17 70  1  0  0  0  0
 18 19  2  0  0  0  0
 18 71  1  0  0  0  0
 19 20  1  0  0  0  0
 19 72  1  0  0  0  0
 20 21  2  0  0  0  0
 20 73  1  0  0  0  0
 21 74  1  0  0  0  0
 22 23  1  0  0  0  0
 22 24  1  0  0  0  0
 22 75  1  6  0  0  0
 23 76  1  0  0  0  0
 24 25  1  0  0  0  0
 24 77  1  0  0  0  0
 24 78  1  0  0  0  0
 25 26  1  0  0  0  0
 25 39  1  0  0  0  0
 26 27  1  0  0  0  0
 26 79  1  0  0  0  0
 27 28  2  0  0  0  0
 27 29  1  0  0  0  0
 29 30  1  0  0  0  0
 29 34  1  0  0  0  0
 29 80  1  1  0  0  0
 30 31  1  0  0  0  0
 30 32  1  0  0  0  0
 30 33  1  0  0  0  0
 31 81  1  0  0  0  0
 31 82  1  0  0  0  0
 31 83  1  0  0  0  0
 32 84  1  0  0  0  0
 32 85  1  0  0  0  0
 32 86  1  0  0  0  0
 33 87  1  0  0  0  0
 33 88  1  0  0  0  0
 33 89  1  0  0  0  0
 34 35  1  0  0  0  0
 34 90  1  0  0  0  0
 35 36  2  0  0  0  0
 35 37  1  0  0  0  0
 37 38  1  0  0  0  0
 38 91  1  0  0  0  0
 38 92  1  0  0  0  0
 38 93  1  0  0  0  0
 39 40  1  0  0  0  0
 39 94  1  0  0  0  0
 39 95  1  0  0  0  0
 40 41  2  0  0  0  0
 40 43  1  0  0  0  0
 41 42  1  0  0  0  0
 41 96  1  0  0  0  0
 42 45  2  0  0  0  0
 42 97  1  0  0  0  0
 43 44  2  0  0  0  0
 43 98  1  0  0  0  0
 44 45  1  0  0  0  0
 44 99  1  0  0  0  0
 45 46  1  0  0  0  0
 46 47  2  0  0  0  0
 46 51  1  0  0  0  0
 47 48  1  0  0  0  0
 47100  1  0  0  0  0
 48 49  2  0  0  0  0
 48101  1  0  0  0  0
 49 50  1  0  0  0  0
 49102  1  0  0  0  0
 50 51  2  0  0  0  0
 50103  1  0  0  0  0
M  END
$$$$
