DR7
 OpenBabel04051917203D

103105  0  0  1  0  0  0  0  0999 V2000
  -44.9861   66.8470   34.7310 C   0  0  0  0  0  0  0  0  0  0  0  0
  -43.7824   66.7070   33.9664 O   0  0  0  0  0  0  0  0  0  0  0  0
  -43.2223   67.9208   33.7127 C   0  0  0  0  0  0  0  0  0  0  0  0
  -43.7205   68.9766   34.0761 O   0  0  0  0  0  0  0  0  0  0  0  0
  -42.0545   67.8419   33.0057 N   0  0  0  0  0  0  0  0  0  0  0  0
  -41.3799   69.0846   32.6378 C   0  0  1  0  0  0  0  0  0  0  0  0
  -40.0888   69.3100   33.4358 C   0  0  0  0  0  0  0  0  0  0  0  0
  -39.2681   68.0192   33.5421 C   0  0  0  0  0  0  0  0  0  0  0  0
  -40.4809   69.8013   34.8284 C   0  0  0  0  0  0  0  0  0  0  0  0
  -39.2412   70.4226   32.8068 C   0  0  0  0  0  0  0  0  0  0  0  0
  -41.0756   68.9472   31.1494 C   0  0  0  0  0  0  0  0  0  0  0  0
  -40.3447   68.0756   30.6921 O   0  0  0  0  0  0  0  0  0  0  0  0
  -41.7202   69.8855   30.3866 N   0  0  0  0  0  0  0  0  0  0  0  0
  -41.7966   69.7684   28.9382 C   0  0  1  0  0  0  0  0  0  0  0  0
  -43.1452   69.1567   28.5414 C   0  0  0  0  0  0  0  0  0  0  0  0
  -43.4687   67.8354   29.1750 C   0  0  0  0  0  0  0  0  0  0  0  0
  -42.9230   66.6450   28.6943 C   0  0  0  0  0  0  0  0  0  0  0  0
  -43.2400   65.4335   29.3155 C   0  0  0  0  0  0  0  0  0  0  0  0
  -44.1039   65.4131   30.4126 C   0  0  0  0  0  0  0  0  0  0  0  0
  -44.6477   66.5980   30.8911 C   0  0  0  0  0  0  0  0  0  0  0  0
  -44.3226   67.8049   30.2841 C   0  0  0  0  0  0  0  0  0  0  0  0
  -41.7465   71.1662   28.2962 C   0  0  1  0  0  0  0  0  0  0  0  0
  -42.7442   72.0347   28.8639 O   0  0  0  0  0  0  0  0  0  0  0  0
  -40.4383   71.8971   28.4922 C   0  0  0  0  0  0  0  0  0  0  0  0
  -39.3242   71.2212   27.8689 N   0  0  0  0  0  0  0  0  0  0  0  0
  -39.3936   71.1489   26.4840 N   0  0  0  0  0  0  0  0  0  0  0  0
  -39.1663   69.9456   25.7889 C   0  0  0  0  0  0  0  0  0  0  0  0
  -38.9318   68.8307   26.2693 O   0  0  0  0  0  0  0  0  0  0  0  0
  -39.1583   70.2819   24.2701 C   0  0  2  0  0  0  0  0  0  0  0  0
  -39.9876   69.3417   23.3670 C   0  0  0  0  0  0  0  0  0  0  0  0
  -40.1701   70.0162   21.9976 C   0  0  0  0  0  0  0  0  0  0  0  0
  -41.3992   69.1089   23.9265 C   0  0  0  0  0  0  0  0  0  0  0  0
  -39.2931   67.9976   23.1822 C   0  0  0  0  0  0  0  0  0  0  0  0
  -37.7730   70.4392   23.8376 N   0  0  0  0  0  0  0  0  0  0  0  0
  -37.2874   71.5373   23.1946 C   0  0  0  0  0  0  0  0  0  0  0  0
  -37.9569   72.5348   22.9390 O   0  0  0  0  0  0  0  0  0  0  0  0
  -35.9812   71.3780   22.8865 O   0  0  0  0  0  0  0  0  0  0  0  0
  -35.3645   72.5486   22.3330 C   0  0  0  0  0  0  0  0  0  0  0  0
  -38.0899   71.7299   28.4640 C   0  0  0  0  0  0  0  0  0  0  0  0
  -36.8598   71.4754   27.6726 C   0  0  0  0  0  0  0  0  0  0  0  0
  -36.2472   72.3996   26.8127 C   0  0  0  0  0  0  0  0  0  0  0  0
  -35.0885   72.0400   26.1070 C   0  0  0  0  0  0  0  0  0  0  0  0
  -36.3443   70.2060   27.8049 C   0  0  0  0  0  0  0  0  0  0  0  0
  -35.2329   69.8692   27.1108 C   0  0  0  0  0  0  0  0  0  0  0  0
  -34.5610   70.7433   26.2410 C   0  0  0  0  0  0  0  0  0  0  0  0
  -33.3764   70.2185   25.5740 C   0  0  0  0  0  0  0  0  0  0  0  0
  -32.9923   68.8761   25.7956 C   0  0  0  0  0  0  0  0  0  0  0  0
  -31.8805   68.3279   25.2299 C   0  0  0  0  0  0  0  0  0  0  0  0
  -31.1385   69.1271   24.4016 C   0  0  0  0  0  0  0  0  0  0  0  0
  -31.5564   70.4339   24.1787 C   0  0  0  0  0  0  0  0  0  0  0  0
  -32.6573   71.0064   24.7328 N   0  0  0  0  0  0  0  0  0  0  0  0
  -45.4127   65.8558   34.9042 H   0  0  0  0  0  0  0  0  0  0  0  0
  -45.7344   67.4502   34.2020 H   0  0  0  0  0  0  0  0  0  0  0  0
  -44.7659   67.3013   35.7029 H   0  0  0  0  0  0  0  0  0  0  0  0
  -41.7083   67.0004   32.6313 H   0  0  0  0  0  0  0  0  0  0  0  0
  -42.0528   69.9257   32.8273 H   0  0  0  0  0  0  0  0  0  0  0  0
  -38.3039   68.2035   34.0151 H   0  0  0  0  0  0  0  0  0  0  0  0
  -39.0670   67.5881   32.5580 H   0  0  0  0  0  0  0  0  0  0  0  0
  -39.8018   67.2618   34.1261 H   0  0  0  0  0  0  0  0  0  0  0  0
  -41.0611   70.7297   34.7464 H   0  0  0  0  0  0  0  0  0  0  0  0
  -39.5885   70.0081   35.4228 H   0  0  0  0  0  0  0  0  0  0  0  0
  -41.0936   69.0597   35.3457 H   0  0  0  0  0  0  0  0  0  0  0  0
  -38.8990   70.1554   31.8039 H   0  0  0  0  0  0  0  0  0  0  0  0
  -38.3569   70.6126   33.4219 H   0  0  0  0  0  0  0  0  0  0  0  0
  -39.8167   71.3540   32.7396 H   0  0  0  0  0  0  0  0  0  0  0  0
  -42.4555   70.4278   30.8232 H   0  0  0  0  0  0  0  0  0  0  0  0
  -40.9777   69.1295   28.5694 H   0  0  0  0  0  0  0  0  0  0  0  0
  -43.1979   69.0632   27.4507 H   0  0  0  0  0  0  0  0  0  0  0  0
  -43.9350   69.8629   28.8294 H   0  0  0  0  0  0  0  0  0  0  0  0
  -42.2411   66.6521   27.8468 H   0  0  0  0  0  0  0  0  0  0  0  0
  -42.8189   64.5118   28.9402 H   0  0  0  0  0  0  0  0  0  0  0  0
  -44.3462   64.4734   30.8996 H   0  0  0  0  0  0  0  0  0  0  0  0
  -45.3111   66.5893   31.7491 H   0  0  0  0  0  0  0  0  0  0  0  0
  -44.7260   68.7306   30.6881 H   0  0  0  0  0  0  0  0  0  0  0  0
  -41.9691   71.0668   27.2282 H   0  0  0  0  0  0  0  0  0  0  0  0
  -42.5689   72.9161   28.4852 H   0  0  0  0  0  0  0  0  0  0  0  0
  -40.2689   71.9821   29.5744 H   0  0  0  0  0  0  0  0  0  0  0  0
  -40.5560   72.9324   28.1378 H   0  0  0  0  0  0  0  0  0  0  0  0
  -39.4788   71.9928   25.9219 H   0  0  0  0  0  0  0  0  0  0  0  0
  -39.6606   71.2594   24.1660 H   0  0  0  0  0  0  0  0  0  0  0  0
  -40.7546   69.3819   21.3247 H   0  0  0  0  0  0  0  0  0  0  0  0
  -39.2053   70.2160   21.5248 H   0  0  0  0  0  0  0  0  0  0  0  0
  -40.7024   70.9696   22.1068 H   0  0  0  0  0  0  0  0  0  0  0  0
  -41.3705   68.6128   24.8995 H   0  0  0  0  0  0  0  0  0  0  0  0
  -41.9779   68.4728   23.2448 H   0  0  0  0  0  0  0  0  0  0  0  0
  -41.9380   70.0571   24.0341 H   0  0  0  0  0  0  0  0  0  0  0  0
  -38.2852   68.1329   22.7799 H   0  0  0  0  0  0  0  0  0  0  0  0
  -39.8504   67.3680   22.4824 H   0  0  0  0  0  0  0  0  0  0  0  0
  -39.2189   67.4639   24.1332 H   0  0  0  0  0  0  0  0  0  0  0  0
  -37.0989   69.7130   24.0570 H   0  0  0  0  0  0  0  0  0  0  0  0
  -34.3232   72.3061   22.1057 H   0  0  0  0  0  0  0  0  0  0  0  0
  -35.3781   73.3621   23.0636 H   0  0  0  0  0  0  0  0  0  0  0  0
  -35.8562   72.8630   21.4036 H   0  0  0  0  0  0  0  0  0  0  0  0
  -38.0042   71.1517   29.3965 H   0  0  0  0  0  0  0  0  0  0  0  0
  -38.1063   72.7820   28.7730 H   0  0  0  0  0  0  0  0  0  0  0  0
  -36.6691   73.3942   26.6887 H   0  0  0  0  0  0  0  0  0  0  0  0
  -34.6142   72.7674   25.4508 H   0  0  0  0  0  0  0  0  0  0  0  0
  -36.8224   69.4493   28.4293 H   0  0  0  0  0  0  0  0  0  0  0  0
  -34.9363   68.8481   27.2919 H   0  0  0  0  0  0  0  0  0  0  0  0
  -33.5116   68.1953   26.4501 H   0  0  0  0  0  0  0  0  0  0  0  0
  -31.6244   67.2891   25.4450 H   0  0  0  0  0  0  0  0  0  0  0  0
  -30.2765   68.7277   23.9128 H   0  0  0  0  0  0  0  0  0  0  0  0
  -30.9983   71.0630   23.5029 H   0  0  0  0  0  0  0  0  0  0  0  0
  1  2  1  0  0  0  0
  1 52  1  0  0  0  0
  1 53  1  0  0  0  0
  1 54  1  0  0  0  0
  2  3  1  0  0  0  0
  3  4  2  0  0  0  0
  3  5  1  0  0  0  0
  5  6  1  0  0  0  0
  5 55  1  0  0  0  0
  6  7  1  0  0  0  0
  6 11  1  0  0  0  0
  6 56  1  1  0  0  0
  7  8  1  0  0  0  0
  7  9  1  0  0  0  0
  7 10  1  0  0  0  0
  8 57  1  0  0  0  0
  8 58  1  0  0  0  0
  8 59  1  0  0  0  0
  9 60  1  0  0  0  0
  9 61  1  0  0  0  0
  9 62  1  0  0  0  0
 10 63  1  0  0  0  0
 10 64  1  0  0  0  0
 10 65  1  0  0  0  0
 11 12  2  0  0  0  0
 11 13  1  0  0  0  0
 13 14  1  0  0  0  0
 13 66  1  0  0  0  0
 14 15  1  0  0  0  0
 14 22  1  0  0  0  0
 14 67  1  6  0  0  0
 15 16  1  0  0  0  0
 15 68  1  0  0  0  0
 15 69  1  0  0  0  0
 16 17  2  0  0  0  0
 16 21  1  0  0  0  0
 17 18  1  0  0  0  0
 17 70  1  0  0  0  0
 18 19  2  0  0  0  0
 18 71  1  0  0  0  0
 19 20  1  0  0  0  0
 19 72  1  0  0  0  0
 20 21  2  0  0  0  0
 20 73  1  0  0  0  0
 21 74  1  0  0  0  0
 22 23  1  0  0  0  0
 22 24  1  0  0  0  0
 22 75  1  6  0  0  0
 23 76  1  0  0  0  0
 24 25  1  0  0  0  0
 24 77  1  0  0  0  0
 24 78  1  0  0  0  0
 25 26  1  0  0  0  0
 25 39  1  0  0  0  0
 26 27  1  0  0  0  0
 26 79  1  0  0  0  0
 27 28  2  0  0  0  0
 27 29  1  0  0  0  0
 29 30  1  0  0  0  0
 29 34  1  0  0  0  0
 29 80  1  6  0  0  0
 30 31  1  0  0  0  0
 30 32  1  0  0  0  0
 30 33  1  0  0  0  0
 31 81  1  0  0  0  0
 31 82  1  0  0  0  0
 31 83  1  0  0  0  0
 32 84  1  0  0  0  0
 32 85  1  0  0  0  0
 32 86  1  0  0  0  0
 33 87  1  0  0  0  0
 33 88  1  0  0  0  0
 33 89  1  0  0  0  0
 34 35  1  0  0  0  0
 34 90  1  0  0  0  0
 35 36  2  0  0  0  0
 35 37  1  0  0  0  0
 37 38  1  0  0  0  0
 38 91  1  0  0  0  0
 38 92  1  0  0  0  0
 38 93  1  0  0  0  0
 39 40  1  0  0  0  0
 39 94  1  0  0  0  0
 39 95  1  0  0  0  0
 40 41  2  0  0  0  0
 40 43  1  0  0  0  0
 41 42  1  0  0  0  0
 41 96  1  0  0  0  0
 42 45  2  0  0  0  0
 42 97  1  0  0  0  0
 43 44  2  0  0  0  0
 43 98  1  0  0  0  0
 44 45  1  0  0  0  0
 44 99  1  0  0  0  0
 45 46  1  0  0  0  0
 46 47  2  0  0  0  0
 46 51  1  0  0  0  0
 47 48  1  0  0  0  0
 47100  1  0  0  0  0
 48 49  2  0  0  0  0
 48101  1  0  0  0  0
 49 50  1  0  0  0  0
 49102  1  0  0  0  0
 50 51  2  0  0  0  0
 50103  1  0  0  0  0
M  END
$$$$
