DRH
 OpenBabel04051918143D

 68 70  0  0  1  0  0  0  0  0999 V2000
   20.2888   20.6639   17.3190 C   0  0  0  0  0  0  0  0  0  0  0  0
   19.4278   19.9419   18.3371 C   0  0  0  0  0  0  0  0  0  0  0  0
   20.1971   18.8351   19.0659 C   0  0  2  0  0  0  0  0  0  0  0  0
   19.3049   18.1420   20.1477 C   0  0  0  0  0  0  0  0  0  0  0  0
   19.8998   17.5433   21.0750 O   0  0  0  0  0  0  0  0  0  0  0  0
   18.0506   18.2527   19.9778 O   0  0  0  0  0  0  0  0  0  0  0  0
   21.3732   19.4569   19.8313 C   0  0  0  0  0  0  0  0  0  0  0  0
   20.7896   17.9030   18.1153 O   0  0  0  0  0  0  0  0  0  0  0  0
   19.9936   17.1397   17.3077 C   0  0  0  0  0  0  0  0  0  0  0  0
   18.7635   16.6081   17.6382 C   0  0  0  0  0  0  0  0  0  0  0  0
   18.0638   15.7675   16.7990 C   0  0  0  0  0  0  0  0  0  0  0  0
   20.5257   16.8094   16.0635 C   0  0  0  0  0  0  0  0  0  0  0  0
   19.8313   15.9630   15.1959 C   0  0  0  0  0  0  0  0  0  0  0  0
   18.5925   15.4307   15.5606 C   0  0  0  0  0  0  0  0  0  0  0  0
   17.8982   14.4500   14.6644 C   0  0  0  0  0  0  0  0  0  0  0  0
   16.3854   14.5079   14.6637 C   0  0  0  0  0  0  0  0  0  0  0  0
   15.7526   15.2662   13.6054 N   0  0  0  0  0  0  0  0  0  0  0  0
   14.2835   15.2291   13.4453 C   0  0  0  0  0  0  0  0  0  0  0  0
   13.5781   14.5477   14.6155 C   0  0  0  0  0  0  0  0  0  0  0  0
   12.0739   14.4195   14.4031 C   0  0  0  0  0  0  0  0  0  0  0  0
   11.4284   13.8871   15.6749 C   0  0  0  0  0  0  0  0  0  0  0  0
    9.9186   13.7202   15.5436 C   0  0  0  0  0  0  0  0  0  0  0  0
    9.2844   13.3387   16.8807 C   0  0  0  0  0  0  0  0  0  0  0  0
    9.8412   12.0351   17.4267 C   0  0  0  0  0  0  0  0  0  0  0  0
   16.3883   15.9168   12.5738 C   0  0  0  0  0  0  0  0  0  0  0  0
   17.7653   15.8243   12.3892 O   0  0  0  0  0  0  0  0  0  0  0  0
   18.0049   16.4976   11.2242 C   0  0  0  0  0  0  0  0  0  0  0  0
   19.2073   16.6930   10.5491 C   0  0  0  0  0  0  0  0  0  0  0  0
   19.1339   17.4246    9.3633 C   0  0  0  0  0  0  0  0  0  0  0  0
   17.9259   17.9262    8.8976 C   0  0  0  0  0  0  0  0  0  0  0  0
   16.7480   17.7041    9.6123 C   0  0  0  0  0  0  0  0  0  0  0  0
   16.8118   16.9696   10.7930 C   0  0  0  0  0  0  0  0  0  0  0  0
   15.8048   16.5920   11.6598 N   0  0  0  0  0  0  0  0  0  0  0  0
   19.7105   21.4366   16.8112 H   0  0  0  0  0  0  0  0  0  0  0  0
   20.6731   19.9642   16.5721 H   0  0  0  0  0  0  0  0  0  0  0  0
   21.1386   21.1500   17.8036 H   0  0  0  0  0  0  0  0  0  0  0  0
   18.5732   19.5011   17.8172 H   0  0  0  0  0  0  0  0  0  0  0  0
   19.0430   20.6660   19.0663 H   0  0  0  0  0  0  0  0  0  0  0  0
   21.9556   18.6895   20.3533 H   0  0  0  0  0  0  0  0  0  0  0  0
   21.0247   20.1934   20.5650 H   0  0  0  0  0  0  0  0  0  0  0  0
   22.0715   19.9520   19.1481 H   0  0  0  0  0  0  0  0  0  0  0  0
   18.3029   16.8058   18.5921 H   0  0  0  0  0  0  0  0  0  0  0  0
   17.1093   15.3838   17.1437 H   0  0  0  0  0  0  0  0  0  0  0  0
   21.4872   17.2152   15.7650 H   0  0  0  0  0  0  0  0  0  0  0  0
   20.2627   15.7148   14.2287 H   0  0  0  0  0  0  0  0  0  0  0  0
   18.2305   13.4447   14.9022 H   0  0  0  0  0  0  0  0  0  0  0  0
   18.2852   14.5732   13.6685 H   0  0  0  0  0  0  0  0  0  0  0  0
   16.0340   14.9202   15.6117 H   0  0  0  0  0  0  0  0  0  0  0  0
   16.0161   13.4759   14.6179 H   0  0  0  0  0  0  0  0  0  0  0  0
   14.0332   14.6872   12.5231 H   0  0  0  0  0  0  0  0  0  0  0  0
   13.8890   16.2495   13.3520 H   0  0  0  0  0  0  0  0  0  0  0  0
   13.7674   15.1246   15.5270 H   0  0  0  0  0  0  0  0  0  0  0  0
   13.9875   13.5438   14.7537 H   0  0  0  0  0  0  0  0  0  0  0  0
   11.8759   13.7345   13.5715 H   0  0  0  0  0  0  0  0  0  0  0  0
   11.6517   15.3975   14.1570 H   0  0  0  0  0  0  0  0  0  0  0  0
   11.6402   14.5749   16.5022 H   0  0  0  0  0  0  0  0  0  0  0  0
   11.8790   12.9175   15.9140 H   0  0  0  0  0  0  0  0  0  0  0  0
    9.6984   12.9426   14.8030 H   0  0  0  0  0  0  0  0  0  0  0  0
    9.4763   14.6603   15.1930 H   0  0  0  0  0  0  0  0  0  0  0  0
    8.2010   13.2370   16.7517 H   0  0  0  0  0  0  0  0  0  0  0  0
    9.4671   14.1379   17.6080 H   0  0  0  0  0  0  0  0  0  0  0  0
    9.3741   11.7902   18.3841 H   0  0  0  0  0  0  0  0  0  0  0  0
   10.9190   12.1125   17.5929 H   0  0  0  0  0  0  0  0  0  0  0  0
    9.6556   11.2174   16.7239 H   0  0  0  0  0  0  0  0  0  0  0  0
   20.1475   16.3026   10.9132 H   0  0  0  0  0  0  0  0  0  0  0  0
   20.0449   17.6080    8.7924 H   0  0  0  0  0  0  0  0  0  0  0  0
   17.8855   18.4993    7.9704 H   0  0  0  0  0  0  0  0  0  0  0  0
   15.8003   18.0862    9.2643 H   0  0  0  0  0  0  0  0  0  0  0  0
  1  2  1  0  0  0  0
  1 34  1  0  0  0  0
  1 35  1  0  0  0  0
  1 36  1  0  0  0  0
  2 37  1  0  0  0  0
  2 38  1  0  0  0  0
  3  2  1  6  0  0  0
  3  4  1  0  0  0  0
  3  7  1  0  0  0  0
  3  8  1  0  0  0  0
  4  5  2  0  0  0  0
  4  6  1  0  0  0  0
  7 39  1  0  0  0  0
  7 40  1  0  0  0  0
  7 41  1  0  0  0  0
  8  9  1  0  0  0  0
  9 10  2  0  0  0  0
  9 12  1  0  0  0  0
 10 11  1  0  0  0  0
 10 42  1  0  0  0  0
 11 14  2  0  0  0  0
 11 43  1  0  0  0  0
 12 13  2  0  0  0  0
 12 44  1  0  0  0  0
 13 14  1  0  0  0  0
 13 45  1  0  0  0  0
 14 15  1  0  0  0  0
 15 16  1  0  0  0  0
 15 46  1  0  0  0  0
 15 47  1  0  0  0  0
 16 17  1  0  0  0  0
 16 48  1  0  0  0  0
 16 49  1  0  0  0  0
 17 18  1  0  0  0  0
 17 25  1  0  0  0  0
 18 19  1  0  0  0  0
 18 50  1  0  0  0  0
 18 51  1  0  0  0  0
 19 20  1  0  0  0  0
 19 52  1  0  0  0  0
 19 53  1  0  0  0  0
 20 21  1  0  0  0  0
 20 54  1  0  0  0  0
 20 55  1  0  0  0  0
 21 22  1  0  0  0  0
 21 56  1  0  0  0  0
 21 57  1  0  0  0  0
 22 23  1  0  0  0  0
 22 58  1  0  0  0  0
 22 59  1  0  0  0  0
 23 24  1  0  0  0  0
 23 60  1  0  0  0  0
 23 61  1  0  0  0  0
 24 62  1  0  0  0  0
 24 63  1  0  0  0  0
 24 64  1  0  0  0  0
 25 26  1  0  0  0  0
 25 33  2  0  0  0  0
 26 27  1  0  0  0  0
 27 28  2  0  0  0  0
 27 32  1  0  0  0  0
 28 29  1  0  0  0  0
 28 65  1  0  0  0  0
 29 30  2  0  0  0  0
 29 66  1  0  0  0  0
 30 31  1  0  0  0  0
 30 67  1  0  0  0  0
 31 32  2  0  0  0  0
 31 68  1  0  0  0  0
 32 33  1  0  0  0  0
M  END
$$$$
