DSN
 OpenBabel04051919333D

 14 13  0  0  1  0  0  0  0  0999 V2000
   32.1446   33.6926   27.7444 N   0  3  0  0  0  0  0  0  0  0  0  0
   31.5015   32.3939   28.2168 C   0  0  1  0  0  0  0  0  0  0  0  0
   32.3384   31.1389   27.8551 C   0  0  0  0  0  0  0  0  0  0  0  0
   31.9266   30.0308   28.2538 O   0  0  0  0  0  0  0  0  0  0  0  0
   33.3231   31.4810   27.1147 O   0  0  0  0  0  0  0  0  0  0  0  0
   31.2472   32.4514   29.7132 C   0  0  0  0  0  0  0  0  0  0  0  0
   32.4319   32.6429   30.4892 O   0  0  0  0  0  0  0  0  0  0  0  0
   31.6066   34.5364   27.9106 H   0  0  0  0  0  0  0  0  0  0  0  0
   33.0941   33.7159   28.1238 H   0  0  0  0  0  0  0  0  0  0  0  0
   30.5532   32.3308   27.6660 H   0  0  0  0  0  0  0  0  0  0  0  0
   30.7667   31.5317   30.0633 H   0  0  0  0  0  0  0  0  0  0  0  0
   30.5700   33.2782   29.9477 H   0  0  0  0  0  0  0  0  0  0  0  0
   32.8648   33.4824   30.2855 H   0  0  0  0  0  0  0  0  0  0  0  0
   32.3307   33.5508   26.7261 H   0  0  0  0  0  0  0  0  0  0  0  0
  1  2  1  0  0  0  0
  1  8  1  0  0  0  0
  1  9  1  0  0  0  0
  1 14  1  0  0  0  0
  2  3  1  0  0  0  0
  2  6  1  0  0  0  0
  2 10  1  6  0  0  0
  3  4  2  0  0  0  0
  3  5  1  0  0  0  0
  6  7  1  0  0  0  0
  6 11  1  0  0  0  0
  6 12  1  0  0  0  0
  7 13  1  0  0  0  0
M  CHG  1   1   1
M  END
$$$$
