DTA
 OpenBabel04051918133D

 62 67  0  0  1  0  0  0  0  0999 V2000
   18.5521    3.0810    6.6424 N   0  0  0  0  0  0  0  0  0  0  0  0
   18.7177    4.2472    7.3556 C   0  0  0  0  0  0  0  0  0  0  0  0
   19.9466    4.5186    7.8546 N   0  0  0  0  0  0  0  0  0  0  0  0
   20.1261    5.6708    8.5341 C   0  0  0  0  0  0  0  0  0  0  0  0
   19.2181    6.6258    8.8023 N   0  0  0  0  0  0  0  0  0  0  0  0
   18.0180    6.3059    8.2979 C   0  0  0  0  0  0  0  0  0  0  0  0
   17.6828    5.1713    7.5777 C   0  0  0  0  0  0  0  0  0  0  0  0
   16.3493    5.2050    7.2099 N   0  0  0  0  0  0  0  0  0  0  0  0
   15.8889    6.3328    7.7142 C   0  0  0  0  0  0  0  0  0  0  0  0
   16.8632    7.0309    8.3747 N   0  3  0  0  0  0  0  0  0  0  0  0
   16.7555    8.3368    8.9833 C   0  0  2  0  0  0  0  0  0  0  0  0
   15.5510    8.3964    9.7762 O   0  0  0  0  0  0  0  0  0  0  0  0
   16.6823    9.4853    7.9594 C   0  0  2  0  0  0  0  0  0  0  0  0
   17.8837   10.2509    7.9778 O   0  0  0  0  0  0  0  0  0  0  0  0
   15.4534   10.2783    8.4107 C   0  0  2  0  0  0  0  0  0  0  0  0
   15.6010   11.6852    8.3160 O   0  0  0  0  0  0  0  0  0  0  0  0
   15.2316    9.7958    9.8484 C   0  0  1  0  0  0  0  0  0  0  0  0
   13.7943   10.0224   10.3110 C   0  0  0  0  0  0  0  0  0  0  0  0
   13.2812    9.3024   11.9311 S   0  0  0  0  0  0  0  0  0  0  0  0
   14.8573    9.5675   13.2283 S   0  0  0  0  0  0  0  0  0  0  0  0
   15.4561    7.8549   13.4956 C   0  0  0  0  0  0  0  0  0  0  0  0
   16.9511    7.7247   13.8216 C   0  0  1  0  0  0  0  0  0  0  0  0
   17.7586    8.5612   12.9600 O   0  0  0  0  0  0  0  0  0  0  0  0
   17.3130    8.0533   15.2750 C   0  0  1  0  0  0  0  0  0  0  0  0
   18.2036    7.0381   15.7728 O   0  0  0  0  0  0  0  0  0  0  0  0
   18.0444    9.3930   15.1656 C   0  0  1  0  0  0  0  0  0  0  0  0
   18.9590    9.5828   16.2401 O   0  0  0  0  0  0  0  0  0  0  0  0
   18.7123    9.2551   13.7939 C   0  0  2  0  0  0  0  0  0  0  0  0
   19.0340   10.5253   13.1760 N   0  3  0  0  0  0  0  0  0  0  0  0
   18.1629   11.5100   12.8059 C   0  0  0  0  0  0  0  0  0  0  0  0
   18.7772   12.5599   12.2993 N   0  0  0  0  0  0  0  0  0  0  0  0
   20.1158   12.2262   12.3305 C   0  0  0  0  0  0  0  0  0  0  0  0
   20.2968   10.9647   12.8728 C   0  0  0  0  0  0  0  0  0  0  0  0
   21.4636   10.3239   13.0708 N   0  0  0  0  0  0  0  0  0  0  0  0
   22.4971   11.0831   12.6406 C   0  0  0  0  0  0  0  0  0  0  0  0
   22.4718   12.3198   12.0920 N   0  0  0  0  0  0  0  0  0  0  0  0
   21.2644   12.9169   11.9314 C   0  0  0  0  0  0  0  0  0  0  0  0
   21.2319   14.1906   11.3976 N   0  0  0  0  0  0  0  0  0  0  0  0
   17.6286    2.8288    6.3226 H   0  0  0  0  0  0  0  0  0  0  0  0
   19.3319    2.4448    6.5998 H   0  0  0  0  0  0  0  0  0  0  0  0
   21.1266    5.8507    8.9124 H   0  0  0  0  0  0  0  0  0  0  0  0
   14.8708    6.6904    7.6229 H   0  0  0  0  0  0  0  0  0  0  0  0
   17.6045    8.4687    9.6662 H   0  0  0  0  0  0  0  0  0  0  0  0
   16.5461    9.1242    6.9328 H   0  0  0  0  0  0  0  0  0  0  0  0
   17.7711   11.0252    7.4027 H   0  0  0  0  0  0  0  0  0  0  0  0
   14.5977    9.9794    7.7917 H   0  0  0  0  0  0  0  0  0  0  0  0
   15.7847   11.9200    7.3908 H   0  0  0  0  0  0  0  0  0  0  0  0
   15.9304   10.3035   10.5256 H   0  0  0  0  0  0  0  0  0  0  0  0
   13.1075    9.5783    9.5801 H   0  0  0  0  0  0  0  0  0  0  0  0
   13.5729   11.0950   10.3394 H   0  0  0  0  0  0  0  0  0  0  0  0
   15.2440    7.2585   12.6029 H   0  0  0  0  0  0  0  0  0  0  0  0
   14.8693    7.4319   14.3197 H   0  0  0  0  0  0  0  0  0  0  0  0
   17.2403    6.6872   13.6077 H   0  0  0  0  0  0  0  0  0  0  0  0
   16.4655    8.0814   15.9584 H   0  0  0  0  0  0  0  0  0  0  0  0
   18.5864    7.3592   16.6096 H   0  0  0  0  0  0  0  0  0  0  0  0
   17.3113   10.2029   15.1760 H   0  0  0  0  0  0  0  0  0  0  0  0
   18.4541    9.6541   17.0689 H   0  0  0  0  0  0  0  0  0  0  0  0
   19.6203    8.6557   13.8528 H   0  0  0  0  0  0  0  0  0  0  0  0
   17.0885   11.4279   12.9282 H   0  0  0  0  0  0  0  0  0  0  0  0
   23.4836   10.6413   12.7587 H   0  0  0  0  0  0  0  0  0  0  0  0
   22.0912   14.5812   11.0489 H   0  0  0  0  0  0  0  0  0  0  0  0
   20.3304   14.5978   11.1990 H   0  0  0  0  0  0  0  0  0  0  0  0
  1  2  1  0  0  0  0
  1 39  1  0  0  0  0
  1 40  1  0  0  0  0
  2  3  2  0  0  0  0
  2  7  1  0  0  0  0
  3  4  1  0  0  0  0
  4  5  2  0  0  0  0
  4 41  1  0  0  0  0
  5  6  1  0  0  0  0
  6  7  2  0  0  0  0
  6 10  1  0  0  0  0
  7  8  1  0  0  0  0
  8  9  1  0  0  0  0
  9 10  2  0  0  0  0
  9 42  1  0  0  0  0
 10 11  1  0  0  0  0
 11 12  1  0  0  0  0
 11 13  1  0  0  0  0
 11 43  1  1  0  0  0
 12 17  1  0  0  0  0
 13 14  1  0  0  0  0
 13 15  1  0  0  0  0
 13 44  1  6  0  0  0
 14 45  1  0  0  0  0
 15 16  1  0  0  0  0
 15 17  1  0  0  0  0
 15 46  1  6  0  0  0
 16 47  1  0  0  0  0
 17 18  1  0  0  0  0
 17 48  1  1  0  0  0
 18 19  1  0  0  0  0
 18 49  1  0  0  0  0
 18 50  1  0  0  0  0
 19 20  1  0  0  0  0
 20 21  1  0  0  0  0
 21 22  1  0  0  0  0
 21 51  1  0  0  0  0
 21 52  1  0  0  0  0
 22 23  1  0  0  0  0
 22 24  1  0  0  0  0
 22 53  1  6  0  0  0
 23 28  1  0  0  0  0
 24 25  1  0  0  0  0
 24 26  1  0  0  0  0
 24 54  1  1  0  0  0
 25 55  1  0  0  0  0
 26 27  1  0  0  0  0
 26 28  1  0  0  0  0
 26 56  1  6  0  0  0
 27 57  1  0  0  0  0
 28 29  1  0  0  0  0
 28 58  1  1  0  0  0
 29 30  2  0  0  0  0
 29 33  1  0  0  0  0
 30 31  1  0  0  0  0
 30 59  1  0  0  0  0
 31 32  1  0  0  0  0
 32 33  2  0  0  0  0
 32 37  1  0  0  0  0
 33 34  1  0  0  0  0
 34 35  2  0  0  0  0
 35 36  1  0  0  0  0
 35 60  1  0  0  0  0
 36 37  2  0  0  0  0
 37 38  1  0  0  0  0
 38 61  1  0  0  0  0
 38 62  1  0  0  0  0
M  CHG  2  10   1  29   1
M  END
$$$$
