DUP
 OpenBabel04051918543D

 40 41  0  0  1  0  0  0  0  0999 V2000
   16.7166   14.9484   41.4646 O   0  0  0  0  0  0  0  0  0  0  0  0
   15.8905   14.1791   41.0155 C   0  0  0  0  0  0  0  0  0  0  0  0
   16.2511   12.8577   40.4781 C   0  0  0  0  0  0  0  0  0  0  0  0
   15.2844   12.0577   40.0491 C   0  0  0  0  0  0  0  0  0  0  0  0
   14.5566   14.5035   40.9615 N   0  3  0  0  0  0  0  0  0  0  0  0
   13.5539   13.7117   40.4824 C   0  0  0  0  0  0  0  0  0  0  0  0
   12.4306   14.1507   40.4446 O   0  0  0  0  0  0  0  0  0  0  0  0
   13.9585   12.4637   40.0198 N   0  3  0  0  0  0  0  0  0  0  0  0
   12.9569   11.6087   39.3868 C   0  0  1  0  0  0  0  0  0  0  0  0
   13.0882   11.6725   37.8674 C   0  0  0  0  0  0  0  0  0  0  0  0
   13.9052   10.4302   37.5323 C   0  0  2  0  0  0  0  0  0  0  0  0
   13.6621    9.9985   36.1947 O   0  0  0  0  0  0  0  0  0  0  0  0
   13.1635   10.2547   39.7785 O   0  0  0  0  0  0  0  0  0  0  0  0
   13.4119    9.4511   38.5928 C   0  0  2  0  0  0  0  0  0  0  0  0
   14.3699    8.3022   38.9188 C   0  0  0  0  0  0  0  0  0  0  0  0
   15.6041    8.8853   39.3009 O   0  0  0  0  0  0  0  0  0  0  0  0
   16.8562    7.9179   39.7066 P   0  0  1  0  0  0  0  0  0  0  0  0
   16.9231    6.8581   38.6614 O   0  0  0  0  0  0  0  0  0  0  0  0
   18.0131    8.8669   39.8285 O   0  0  0  0  0  0  0  0  0  0  0  0
   16.4294    7.4087   41.2563 N   0  0  0  0  0  0  0  0  0  0  0  0
   15.9641    5.7546   41.5312 P   0  0  1  0  0  0  0  0  0  0  0  0
   16.8889    4.8135   40.8352 O   0  0  0  0  0  0  0  0  0  0  0  0
   16.0068    5.7385   43.0786 O   0  0  0  0  0  0  0  0  0  0  0  0
   14.4283    5.7481   41.0688 O   0  0  0  0  0  0  0  0  0  0  0  0
   13.8524    4.6415   40.0149 P   0  0  0  0  0  0  0  0  0  0  0  0
   14.6483    4.6768   38.7240 O   0  0  0  0  0  0  0  0  0  0  0  0
   13.8367    3.2919   40.7674 O   0  0  0  0  0  0  0  0  0  0  0  0
   12.4201    5.1564   39.7491 O   0  0  0  0  0  0  0  0  0  0  0  0
   17.3077   12.5800   40.4787 H   0  0  0  0  0  0  0  0  0  0  0  0
   15.5086   11.0658   39.6968 H   0  0  0  0  0  0  0  0  0  0  0  0
   14.3241   15.4238   41.3523 H   0  0  0  0  0  0  0  0  0  0  0  0
   11.9490   11.8774   39.7195 H   0  0  0  0  0  0  0  0  0  0  0  0
   13.5783   12.6018   37.5614 H   0  0  0  0  0  0  0  0  0  0  0  0
   12.1019   11.6527   37.3889 H   0  0  0  0  0  0  0  0  0  0  0  0
   14.9735   10.6505   37.6416 H   0  0  0  0  0  0  0  0  0  0  0  0
   14.1957    9.1769   36.0863 H   0  0  0  0  0  0  0  0  0  0  0  0
   12.4506    9.0439   38.2494 H   0  0  0  0  0  0  0  0  0  0  0  0
   14.4920    7.6685   38.0401 H   0  0  0  0  0  0  0  0  0  0  0  0
   13.9493    7.7376   39.7438 H   0  0  0  0  0  0  0  0  0  0  0  0
   16.4490    8.0472   42.0062 H   0  0  0  0  0  0  0  0  0  0  0  0
  1  2  2  0  0  0  0
  2  3  1  0  0  0  0
  2  5  1  0  0  0  0
  3  4  2  0  0  0  0
  3 29  1  0  0  0  0
  4  8  1  0  0  0  0
  4 30  1  0  0  0  0
  5  6  1  0  0  0  0
  5 31  1  0  0  0  0
  6  7  2  0  0  0  0
  6  8  1  0  0  0  0
  8  9  1  0  0  0  0
  9 10  1  0  0  0  0
  9 13  1  0  0  0  0
  9 32  1  1  0  0  0
 10 11  1  0  0  0  0
 10 33  1  0  0  0  0
 10 34  1  0  0  0  0
 11 12  1  0  0  0  0
 11 14  1  0  0  0  0
 11 35  1  1  0  0  0
 12 36  1  0  0  0  0
 13 14  1  0  0  0  0
 14 15  1  0  0  0  0
 14 37  1  6  0  0  0
 15 16  1  0  0  0  0
 15 38  1  0  0  0  0
 15 39  1  0  0  0  0
 17 16  1  6  0  0  0
 17 18  2  0  0  0  0
 17 19  1  0  0  0  0
 17 20  1  0  0  0  0
 20 40  1  0  0  0  0
 21 20  1  6  0  0  0
 21 22  2  0  0  0  0
 21 23  1  0  0  0  0
 21 24  1  0  0  0  0
 24 25  1  0  0  0  0
 25 26  2  0  0  0  0
 25 27  1  0  0  0  0
 25 28  1  0  0  0  0
M  CHG  2   5   1   8   1
M  END
$$$$
