DUP
 OpenBabel04051920403D

 42 43  0  0  1  0  0  0  0  0999 V2000
   -5.7668   28.1858   -4.0225 O   0  0  0  0  0  0  0  0  0  0  0  0
   -6.9375   28.7959   -3.6536 C   0  0  0  0  0  0  0  0  0  0  0  0
   -7.9107   29.0277   -4.5148 C   0  0  0  0  0  0  0  0  0  0  0  0
   -9.2091   29.6380   -4.0766 C   0  0  0  0  0  0  0  0  0  0  0  0
   -7.0682   29.1120   -2.3522 N   0  0  0  0  0  0  0  0  0  0  0  0
   -8.1703   29.7093   -1.8071 C   0  0  0  0  0  0  0  0  0  0  0  0
   -8.1664   29.9555   -0.5964 O   0  0  0  0  0  0  0  0  0  0  0  0
   -9.1984   30.0148   -2.6625 N   0  0  0  0  0  0  0  0  0  0  0  0
  -10.4168   30.6020   -2.1174 C   0  0  1  0  0  0  0  0  0  0  0  0
  -10.2531   32.0198   -1.5894 C   0  0  0  0  0  0  0  0  0  0  0  0
  -11.6084   32.6686   -1.8243 C   0  0  2  0  0  0  0  0  0  0  0  0
  -12.2617   32.8707   -0.5675 O   0  0  0  0  0  0  0  0  0  0  0  0
  -11.3882   30.7033   -3.1374 O   0  0  0  0  0  0  0  0  0  0  0  0
  -12.3609   31.6767   -2.7109 C   0  0  2  0  0  0  0  0  0  0  0  0
  -13.0217   32.3292   -3.9246 C   0  0  0  0  0  0  0  0  0  0  0  0
  -13.5813   31.2987   -4.6840 O   0  0  0  0  0  0  0  0  0  0  0  0
  -14.3294   31.7534   -6.0489 P   0  0  2  0  0  0  0  0  0  0  0  0
  -14.3632   30.4583   -6.8646 O   0  0  0  0  0  0  0  0  0  0  0  0
  -13.5140   32.8858   -6.6313 O   0  0  0  0  0  0  0  0  0  0  0  0
  -15.8898   31.9991   -5.5066 N   0  0  0  0  0  0  0  0  0  0  0  0
  -16.4911   33.3674   -4.7123 P   0  0  2  0  0  0  0  0  0  0  0  0
  -15.4927   34.5001   -4.5659 O   0  0  0  0  0  0  0  0  0  0  0  0
  -16.9495   32.8213   -3.3521 O   0  0  0  0  0  0  0  0  0  0  0  0
  -17.8070   33.8004   -5.5241 O   0  0  0  0  0  0  0  0  0  0  0  0
  -18.2023   33.9653   -7.0901 P   0  0  0  0  0  0  0  0  0  0  0  0
  -18.3313   32.5522   -7.6474 O   0  0  0  0  0  0  0  0  0  0  0  0
  -17.1398   34.8174   -7.7590 O   0  0  0  0  0  0  0  0  0  0  0  0
  -19.5573   34.6883   -7.0655 O   0  0  0  0  0  0  0  0  0  0  0  0
   -5.7883   27.3364   -3.5517 H   0  0  0  0  0  0  0  0  0  0  0  0
   -7.8252   28.7670   -5.5607 H   0  0  0  0  0  0  0  0  0  0  0  0
  -10.0127   28.9100   -4.2392 H   0  0  0  0  0  0  0  0  0  0  0  0
   -9.4048   30.5373   -4.6760 H   0  0  0  0  0  0  0  0  0  0  0  0
   -6.3057   28.9715   -1.7164 H   0  0  0  0  0  0  0  0  0  0  0  0
  -10.8040   29.9380   -1.3383 H   0  0  0  0  0  0  0  0  0  0  0  0
   -9.4919   32.5507   -2.1775 H   0  0  0  0  0  0  0  0  0  0  0  0
   -9.9320   32.0270   -0.5407 H   0  0  0  0  0  0  0  0  0  0  0  0
  -11.4859   33.6546   -2.2843 H   0  0  0  0  0  0  0  0  0  0  0  0
  -13.1550   33.2109   -0.7996 H   0  0  0  0  0  0  0  0  0  0  0  0
  -13.1278   31.1347   -2.1429 H   0  0  0  0  0  0  0  0  0  0  0  0
  -12.2613   32.8544   -4.5146 H   0  0  0  0  0  0  0  0  0  0  0  0
  -13.7811   33.0370   -3.5948 H   0  0  0  0  0  0  0  0  0  0  0  0
  -16.5588   31.7943   -6.2581 H   0  0  0  0  0  0  0  0  0  0  0  0
  1  2  1  0  0  0  0
  1 29  1  0  0  0  0
  2  3  2  0  0  0  0
  2  5  1  0  0  0  0
  3  4  1  0  0  0  0
  3 30  1  0  0  0  0
  4  8  1  0  0  0  0
  4 31  1  0  0  0  0
  4 32  1  0  0  0  0
  5  6  1  0  0  0  0
  5 33  1  0  0  0  0
  6  7  2  0  0  0  0
  6  8  1  0  0  0  0
  8  9  1  0  0  0  0
  9 10  1  0  0  0  0
  9 13  1  0  0  0  0
  9 34  1  1  0  0  0
 10 11  1  0  0  0  0
 10 35  1  0  0  0  0
 10 36  1  0  0  0  0
 11 12  1  0  0  0  0
 11 14  1  0  0  0  0
 11 37  1  6  0  0  0
 12 38  1  0  0  0  0
 13 14  1  0  0  0  0
 14 15  1  0  0  0  0
 14 39  1  1  0  0  0
 15 16  1  0  0  0  0
 15 40  1  0  0  0  0
 15 41  1  0  0  0  0
 17 16  1  1  0  0  0
 17 18  2  0  0  0  0
 17 19  1  0  0  0  0
 17 20  1  0  0  0  0
 20 42  1  0  0  0  0
 21 20  1  6  0  0  0
 21 22  2  0  0  0  0
 21 23  1  0  0  0  0
 21 24  1  0  0  0  0
 24 25  1  0  0  0  0
 25 26  2  0  0  0  0
 25 27  1  0  0  0  0
 25 28  1  0  0  0  0
M  END
$$$$
