DUT
 OpenBabel04051919593D

 39 40  0  0  1  0  0  0  0  0999 V2000
   26.0499   16.9195    4.4107 N   0  3  0  0  0  0  0  0  0  0  0  0
   25.2097   17.1692    3.3533 C   0  0  0  0  0  0  0  0  0  0  0  0
   25.7715   17.0855    2.0986 N   0  3  0  0  0  0  0  0  0  0  0  0
   27.0744   16.7679    1.7853 C   0  0  0  0  0  0  0  0  0  0  0  0
   27.9242   16.5388    2.9666 C   0  0  0  0  0  0  0  0  0  0  0  0
   27.3864   16.6362    4.1845 C   0  0  0  0  0  0  0  0  0  0  0  0
   23.9793   17.3835    3.4260 O   0  0  0  0  0  0  0  0  0  0  0  0
   27.5252   16.6843    0.6438 O   0  0  0  0  0  0  0  0  0  0  0  0
   25.5391   16.9773    5.7957 C   0  0  1  0  0  0  0  0  0  0  0  0
   25.6605   15.6668    6.5576 C   0  0  0  0  0  0  0  0  0  0  0  0
   26.8131   15.8925    7.5168 C   0  0  1  0  0  0  0  0  0  0  0  0
   26.7835   17.4058    7.7516 C   0  0  2  0  0  0  0  0  0  0  0  0
   26.2012   17.9927    6.5513 O   0  0  0  0  0  0  0  0  0  0  0  0
   26.6107   15.1208    8.7038 O   0  0  0  0  0  0  0  0  0  0  0  0
   28.1715   18.0063    8.0317 C   0  0  0  0  0  0  0  0  0  0  0  0
   28.9671   17.7874    6.8740 O   0  0  0  0  0  0  0  0  0  0  0  0
   30.5944   17.9385    7.0252 P   0  0  2  0  0  0  0  0  0  0  0  0
   31.0786   17.6598    5.5992 O   0  0  0  0  0  0  0  0  0  0  0  0
   30.9471   16.9311    8.0961 O   0  0  0  0  0  0  0  0  0  0  0  0
   30.6521   19.4843    7.3649 O   0  0  0  0  0  0  0  0  0  0  0  0
   31.7343   20.3619    8.1740 P   0  0  2  0  0  0  0  0  0  0  0  0
   32.0751   21.5658    7.2746 O   0  0  0  0  0  0  0  0  0  0  0  0
   32.9233   19.5275    8.5952 O   0  0  0  0  0  0  0  0  0  0  0  0
   30.7996   20.9008    9.3696 O   0  0  0  0  0  0  0  0  0  0  0  0
   30.5635   20.3523   10.8753 P   0  0  0  0  0  0  0  0  0  0  0  0
   31.6963   20.9543   11.7156 O   0  0  0  0  0  0  0  0  0  0  0  0
   30.5099   18.8381   10.8337 O   0  0  0  0  0  0  0  0  0  0  0  0
   29.2008   20.9203   11.2994 O   0  0  0  0  0  0  0  0  0  0  0  0
   25.1561   17.2753    1.3201 H   0  0  0  0  0  0  0  0  0  0  0  0
   28.9807   16.3461    2.8198 H   0  0  0  0  0  0  0  0  0  0  0  0
   28.0280   16.5064    5.0563 H   0  0  0  0  0  0  0  0  0  0  0  0
   24.4783   17.2677    5.7569 H   0  0  0  0  0  0  0  0  0  0  0  0
   25.8265   14.8065    5.9006 H   0  0  0  0  0  0  0  0  0  0  0  0
   24.7336   15.4606    7.1080 H   0  0  0  0  0  0  0  0  0  0  0  0
   27.7496   15.5580    7.0615 H   0  0  0  0  0  0  0  0  0  0  0  0
   26.1164   17.6384    8.5919 H   0  0  0  0  0  0  0  0  0  0  0  0
   27.3732   15.3449    9.2821 H   0  0  0  0  0  0  0  0  0  0  0  0
   28.6107   17.5387    8.9219 H   0  0  0  0  0  0  0  0  0  0  0  0
   28.0831   19.0836    8.1988 H   0  0  0  0  0  0  0  0  0  0  0  0
  1  2  1  0  0  0  0
  1  6  1  0  0  0  0
  1  9  1  0  0  0  0
  2  3  1  0  0  0  0
  2  7  2  0  0  0  0
  3  4  1  0  0  0  0
  3 29  1  0  0  0  0
  4  5  1  0  0  0  0
  4  8  2  0  0  0  0
  5  6  2  0  0  0  0
  5 30  1  0  0  0  0
  6 31  1  0  0  0  0
  9 10  1  0  0  0  0
  9 13  1  0  0  0  0
  9 32  1  6  0  0  0
 10 11  1  0  0  0  0
 10 33  1  0  0  0  0
 10 34  1  0  0  0  0
 11 12  1  0  0  0  0
 11 14  1  0  0  0  0
 11 35  1  6  0  0  0
 12 13  1  0  0  0  0
 12 15  1  0  0  0  0
 12 36  1  1  0  0  0
 14 37  1  0  0  0  0
 15 16  1  0  0  0  0
 15 38  1  0  0  0  0
 15 39  1  0  0  0  0
 17 16  1  6  0  0  0
 17 18  2  0  0  0  0
 17 19  1  0  0  0  0
 17 20  1  0  0  0  0
 21 20  1  6  0  0  0
 21 22  2  0  0  0  0
 21 23  1  0  0  0  0
 21 24  1  0  0  0  0
 24 25  1  0  0  0  0
 25 26  2  0  0  0  0
 25 27  1  0  0  0  0
 25 28  1  0  0  0  0
M  CHG  2   1   1   3   1
M  END
$$$$
