EAA
 OpenBabel04051918033D

 30 30  0  0  0  0  0  0  0  0999 V2000
    7.9358    3.6501   25.9259 C   0  0  0  0  0  0  0  0  0  0  0  0
    8.9275    4.0866   25.0997 O   0  0  0  0  0  0  0  0  0  0  0  0
    8.2949    2.6582   26.8438 C   0  0  0  0  0  0  0  0  0  0  0  0
    9.9375    2.0733   26.8576 Cl  0  0  0  0  0  0  0  0  0  0  0  0
    7.3562    2.1596   27.7557 C   0  0  0  0  0  0  0  0  0  0  0  0
    7.7934    0.9064   28.8769 Cl  0  0  0  0  0  0  0  0  0  0  0  0
    6.0601    2.6904   27.7537 C   0  0  0  0  0  0  0  0  0  0  0  0
    5.6929    3.6535   26.8036 C   0  0  0  0  0  0  0  0  0  0  0  0
    6.6271    4.1419   25.9014 C   0  0  0  0  0  0  0  0  0  0  0  0
    5.0618    2.2395   28.7403 C   0  0  0  0  0  0  0  0  0  0  0  0
    4.5500    1.1227   28.6662 O   0  0  0  0  0  0  0  0  0  0  0  0
    4.7528    3.1421   29.8841 C   0  0  0  0  0  0  0  0  0  0  0  0
    4.9529    2.5603   31.2515 C   0  0  0  0  0  0  0  0  0  0  0  0
    5.6673    3.4697   32.2321 C   0  0  0  0  0  0  0  0  0  0  0  0
    4.2001    4.3396   29.6428 C   0  0  0  0  0  0  0  0  0  0  0  0
    8.6791    5.2286   24.2834 C   0  0  0  0  0  0  0  0  0  0  0  0
    9.9496    5.6216   23.5075 C   0  0  0  0  0  0  0  0  0  0  0  0
    9.8407    6.7222   22.8804 O   0  0  0  0  0  0  0  0  0  0  0  0
   10.9404    4.8383   23.5575 O   0  0  0  0  0  0  0  0  0  0  0  0
    4.6784    4.0334   26.7544 H   0  0  0  0  0  0  0  0  0  0  0  0
    6.3235    4.9084   25.1996 H   0  0  0  0  0  0  0  0  0  0  0  0
    5.5490    1.6455   31.1706 H   0  0  0  0  0  0  0  0  0  0  0  0
    3.9791    2.2959   31.6772 H   0  0  0  0  0  0  0  0  0  0  0  0
    5.7795    2.9420   33.1852 H   0  0  0  0  0  0  0  0  0  0  0  0
    5.0955    4.3836   32.4176 H   0  0  0  0  0  0  0  0  0  0  0  0
    6.6618    3.7355   31.8626 H   0  0  0  0  0  0  0  0  0  0  0  0
    3.9922    4.6764   28.6377 H   0  0  0  0  0  0  0  0  0  0  0  0
    3.8838    4.9853   30.4516 H   0  0  0  0  0  0  0  0  0  0  0  0
    8.3869    6.0799   24.9106 H   0  0  0  0  0  0  0  0  0  0  0  0
    7.8887    5.0016   23.5595 H   0  0  0  0  0  0  0  0  0  0  0  0
  1  2  1  0  0  0  0
  1  3  2  0  0  0  0
  1  9  1  0  0  0  0
  2 16  1  0  0  0  0
  3  4  1  0  0  0  0
  3  5  1  0  0  0  0
  5  6  1  0  0  0  0
  5  7  2  0  0  0  0
  7  8  1  0  0  0  0
  7 10  1  0  0  0  0
  8  9  2  0  0  0  0
  8 20  1  0  0  0  0
  9 21  1  0  0  0  0
 10 11  2  0  0  0  0
 10 12  1  0  0  0  0
 12 13  1  0  0  0  0
 12 15  2  0  0  0  0
 13 14  1  0  0  0  0
 13 22  1  0  0  0  0
 13 23  1  0  0  0  0
 14 24  1  0  0  0  0
 14 25  1  0  0  0  0
 14 26  1  0  0  0  0
 15 27  1  0  0  0  0
 15 28  1  0  0  0  0
 16 17  1  0  0  0  0
 16 29  1  0  0  0  0
 16 30  1  0  0  0  0
 17 18  2  0  0  0  0
 17 19  1  0  0  0  0
M  END
$$$$
