EOB
 OpenBabel04051918013D

 32 32  0  0  0  0  0  0  0  0999 V2000
   39.3338   26.6938   20.7201 O   0  0  0  0  0  0  0  0  0  0  0  0
   37.8455   26.4918   20.8588 P   0  0  0  0  0  0  0  0  0  0  0  0
   37.3047   25.2364   20.1726 O   0  0  0  0  0  0  0  0  0  0  0  0
   37.2931   26.7205   22.2638 O   0  0  0  0  0  0  0  0  0  0  0  0
   37.0831   27.8326   19.8442 C   0  0  0  0  0  0  0  0  0  0  0  0
   37.1805   29.2250   20.3938 C   0  0  0  0  0  0  0  0  0  0  0  0
   36.2195   29.7448   20.9869 O   0  0  0  0  0  0  0  0  0  0  0  0
   38.1965   30.0984   20.1365 N   0  0  0  0  0  0  0  0  0  0  0  0
   39.3438   30.0735   19.3323 C   0  0  0  0  0  0  0  0  0  0  0  0
   39.7786   28.9820   18.5831 C   0  0  0  0  0  0  0  0  0  0  0  0
   40.0869   31.2610   19.2651 C   0  0  0  0  0  0  0  0  0  0  0  0
   41.2382   31.3286   18.4872 C   0  0  0  0  0  0  0  0  0  0  0  0
   41.6388   30.2224   17.7386 C   0  0  0  0  0  0  0  0  0  0  0  0
   40.8984   29.0486   17.7416 C   0  0  0  0  0  0  0  0  0  0  0  0
   41.1463   27.9021   16.9615 N   0  0  0  0  0  0  0  0  0  0  0  0
   42.0326   27.6069   15.9602 C   0  0  0  0  0  0  0  0  0  0  0  0
   41.8355   26.5418   15.3441 O   0  0  0  0  0  0  0  0  0  0  0  0
   43.0293   28.6010   15.4482 C   0  0  0  0  0  0  0  0  0  0  0  0
   44.6719   28.6751   16.2945 P   0  0  0  0  0  0  0  0  0  0  0  0
   44.8208   30.1557   16.6564 O   0  0  0  0  0  0  0  0  0  0  0  0
   45.6518   28.2392   15.1979 O   0  0  0  0  0  0  0  0  0  0  0  0
   44.5970   27.7317   17.4773 O   0  0  0  0  0  0  0  0  0  0  0  0
   36.0182   27.5805   19.8111 H   0  0  0  0  0  0  0  0  0  0  0  0
   37.3895   27.7860   18.7963 H   0  0  0  0  0  0  0  0  0  0  0  0
   38.0348   30.9484   20.6500 H   0  0  0  0  0  0  0  0  0  0  0  0
   39.3003   28.0175   18.6766 H   0  0  0  0  0  0  0  0  0  0  0  0
   39.7995   32.1324   19.8423 H   0  0  0  0  0  0  0  0  0  0  0  0
   41.8624   32.2166   18.4722 H   0  0  0  0  0  0  0  0  0  0  0  0
   42.5866   30.3026   17.2277 H   0  0  0  0  0  0  0  0  0  0  0  0
   40.5653   27.0999   17.1841 H   0  0  0  0  0  0  0  0  0  0  0  0
   42.5708   29.5891   15.3643 H   0  0  0  0  0  0  0  0  0  0  0  0
   43.2368   28.3337   14.4056 H   0  0  0  0  0  0  0  0  0  0  0  0
  1  2  2  0  0  0  0
  2  3  1  0  0  0  0
  2  4  1  0  0  0  0
  2  5  1  0  0  0  0
  5  6  1  0  0  0  0
  5 23  1  0  0  0  0
  5 24  1  0  0  0  0
  6  7  2  0  0  0  0
  6  8  1  0  0  0  0
  8  9  1  0  0  0  0
  8 25  1  0  0  0  0
  9 10  2  0  0  0  0
  9 11  1  0  0  0  0
 10 14  1  0  0  0  0
 10 26  1  0  0  0  0
 11 12  2  0  0  0  0
 11 27  1  0  0  0  0
 12 13  1  0  0  0  0
 12 28  1  0  0  0  0
 13 14  2  0  0  0  0
 13 29  1  0  0  0  0
 14 15  1  0  0  0  0
 15 16  1  0  0  0  0
 15 30  1  0  0  0  0
 16 17  2  0  0  0  0
 16 18  1  0  0  0  0
 18 19  1  0  0  0  0
 18 31  1  0  0  0  0
 18 32  1  0  0  0  0
 19 20  2  0  0  0  0
 19 21  1  0  0  0  0
 19 22  1  0  0  0  0
M  END
$$$$
