EOP
 OpenBabel04051918013D

 28 27  0  0  0  0  0  0  0  0999 V2000
   44.1830   28.5591   19.6633 O   0  0  0  0  0  0  0  0  0  0  0  0
   45.1027   29.7021   19.2661 P   0  0  0  0  0  0  0  0  0  0  0  0
   45.1708   31.0680   19.9208 O   0  0  0  0  0  0  0  0  0  0  0  0
   46.5363   29.1507   19.0545 O   0  0  0  0  0  0  0  0  0  0  0  0
   44.5815   30.0031   17.5331 C   0  0  0  0  0  0  0  0  0  0  0  0
   43.1127   29.9946   17.1707 C   0  0  0  0  0  0  0  0  0  0  0  0
   42.5141   30.9633   16.6919 O   0  0  0  0  0  0  0  0  0  0  0  0
   42.5887   28.7034   16.9656 N   0  0  0  0  0  0  0  0  0  0  0  0
   41.1872   28.4896   16.7242 C   0  0  0  0  0  0  0  0  0  0  0  0
   40.2848   28.4708   17.9632 C   0  0  0  0  0  0  0  0  0  0  0  0
   39.4378   29.6534   18.0878 N   0  0  0  0  0  0  0  0  0  0  0  0
   39.3390   30.4172   19.2291 C   0  0  0  0  0  0  0  0  0  0  0  0
   38.6860   31.4683   19.1525 O   0  0  0  0  0  0  0  0  0  0  0  0
   39.8188   29.8132   20.5134 C   0  0  0  0  0  0  0  0  0  0  0  0
   41.4516   30.5618   21.0018 P   0  0  0  0  0  0  0  0  0  0  0  0
   40.9927   31.5935   22.0686 O   0  0  0  0  0  0  0  0  0  0  0  0
   41.9360   31.1386   19.7164 O   0  0  0  0  0  0  0  0  0  0  0  0
   42.0197   29.2979   21.6757 O   0  0  0  0  0  0  0  0  0  0  0  0
   45.0659   29.2085   16.9532 H   0  0  0  0  0  0  0  0  0  0  0  0
   45.0216   30.9499   17.1978 H   0  0  0  0  0  0  0  0  0  0  0  0
   43.1177   28.0177   17.5304 H   0  0  0  0  0  0  0  0  0  0  0  0
   41.1165   27.5115   16.2343 H   0  0  0  0  0  0  0  0  0  0  0  0
   40.8338   29.2464   16.0160 H   0  0  0  0  0  0  0  0  0  0  0  0
   40.8732   28.2552   18.8507 H   0  0  0  0  0  0  0  0  0  0  0  0
   39.5506   27.6610   17.8524 H   0  0  0  0  0  0  0  0  0  0  0  0
   39.2860   30.2213   17.2665 H   0  0  0  0  0  0  0  0  0  0  0  0
   39.8685   28.7173   20.4680 H   0  0  0  0  0  0  0  0  0  0  0  0
   39.0916   30.0139   21.3151 H   0  0  0  0  0  0  0  0  0  0  0  0
  1  2  2  0  0  0  0
  2  3  1  0  0  0  0
  2  4  1  0  0  0  0
  2  5  1  0  0  0  0
  5  6  1  0  0  0  0
  5 19  1  0  0  0  0
  5 20  1  0  0  0  0
  6  7  2  0  0  0  0
  6  8  1  0  0  0  0
  8  9  1  0  0  0  0
  8 21  1  0  0  0  0
  9 10  1  0  0  0  0
  9 22  1  0  0  0  0
  9 23  1  0  0  0  0
 10 11  1  0  0  0  0
 10 24  1  0  0  0  0
 10 25  1  0  0  0  0
 11 12  1  0  0  0  0
 11 26  1  0  0  0  0
 12 13  2  0  0  0  0
 12 14  1  0  0  0  0
 14 15  1  0  0  0  0
 14 27  1  0  0  0  0
 14 28  1  0  0  0  0
 15 16  2  0  0  0  0
 15 17  1  0  0  0  0
 15 18  1  0  0  0  0
M  END
$$$$
