ESH
 OpenBabel04051917363D

 65 69  0  0  1  0  0  0  0  0999 V2000
   11.2121   -9.7969   24.4907 N   0  0  0  0  0  0  0  0  0  0  0  0
   11.4614  -10.9244   23.8661 C   0  0  0  0  0  0  0  0  0  0  0  0
   10.7015  -11.9682   24.1265 N   0  0  0  0  0  0  0  0  0  0  0  0
   12.5671  -11.0187   22.8837 C   0  0  0  0  0  0  0  0  0  0  0  0
   13.4092   -9.9366   22.6032 C   0  0  0  0  0  0  0  0  0  0  0  0
   14.4346  -10.0264   21.6584 C   0  0  0  0  0  0  0  0  0  0  0  0
   14.6762  -11.2258   20.9929 C   0  0  0  0  0  0  0  0  0  0  0  0
   13.8352  -12.3064   21.2525 C   0  0  0  0  0  0  0  0  0  0  0  0
   12.8030  -12.2013   22.1816 C   0  0  0  0  0  0  0  0  0  0  0  0
   15.8040  -11.3018   20.0116 C   0  0  2  0  0  0  0  0  0  0  0  0
   15.6378  -12.3606   18.9456 N   0  3  1  0  0  0  0  0  0  0  0  0
   14.5895  -12.0412   17.9269 C   0  0  0  0  0  0  0  0  0  0  0  0
   15.3354  -11.7012   16.6567 C   0  0  0  0  0  0  0  0  0  0  0  0
   16.8137  -11.6145   17.0045 C   0  0  0  0  0  0  0  0  0  0  0  0
   16.9713  -12.4598   18.2577 C   0  0  1  0  0  0  0  0  0  0  0  0
   17.9921  -12.0022   19.2905 C   0  0  2  0  0  0  0  0  0  0  0  0
   18.9364  -13.1288   19.7467 C   0  0  2  0  0  0  0  0  0  0  0  0
   18.4452  -13.4916   21.0544 N   0  0  0  0  0  0  0  0  0  0  0  0
   17.4279  -12.6927   21.4992 C   0  0  0  0  0  0  0  0  0  0  0  0
   16.7585  -12.9107   22.5279 O   0  0  0  0  0  0  0  0  0  0  0  0
   17.2080  -11.5595   20.5330 C   0  0  2  0  0  0  0  0  0  0  0  0
   18.7373  -14.7777   21.6759 C   0  0  0  0  0  0  0  0  0  0  0  0
   19.7114  -14.6036   22.8044 C   0  0  0  0  0  0  0  0  0  0  0  0
   19.2608  -14.2158   24.0685 C   0  0  0  0  0  0  0  0  0  0  0  0
   20.1529  -13.9807   25.1182 C   0  0  0  0  0  0  0  0  0  0  0  0
   21.5175  -14.1376   24.9066 C   0  0  0  0  0  0  0  0  0  0  0  0
   21.9809  -14.5122   23.6452 C   0  0  0  0  0  0  0  0  0  0  0  0
   21.0833  -14.7399   22.5972 C   0  0  0  0  0  0  0  0  0  0  0  0
   20.4094  -12.7074   19.7594 C   0  0  0  0  0  0  0  0  0  0  0  0
   20.6940  -11.5292   20.6846 C   0  0  0  0  0  0  0  0  0  0  0  0
   20.8646  -12.4112   18.3394 C   0  0  0  0  0  0  0  0  0  0  0  0
   22.6268  -13.8857   26.1979 Cl  0  0  0  0  0  0  0  0  0  0  0  0
   11.7632   -8.9623   24.3358 H   0  0  0  0  0  0  0  0  0  0  0  0
   10.8506  -12.8567   23.6757 H   0  0  0  0  0  0  0  0  0  0  0  0
    9.9483  -11.9183   24.7999 H   0  0  0  0  0  0  0  0  0  0  0  0
   13.2846   -8.9923   23.1236 H   0  0  0  0  0  0  0  0  0  0  0  0
   15.0382   -9.1432   21.4464 H   0  0  0  0  0  0  0  0  0  0  0  0
   13.9656  -13.2506   20.7358 H   0  0  0  0  0  0  0  0  0  0  0  0
   12.1847  -13.0744   22.3479 H   0  0  0  0  0  0  0  0  0  0  0  0
   15.8080  -10.3389   19.4718 H   0  0  0  0  0  0  0  0  0  0  0  0
   13.9942  -11.1999   18.2856 H   0  0  0  0  0  0  0  0  0  0  0  0
   13.9530  -12.9223   17.8034 H   0  0  0  0  0  0  0  0  0  0  0  0
   14.9680  -10.7498   16.2608 H   0  0  0  0  0  0  0  0  0  0  0  0
   15.1569  -12.4820   15.9085 H   0  0  0  0  0  0  0  0  0  0  0  0
   17.1137  -10.5715   17.1617 H   0  0  0  0  0  0  0  0  0  0  0  0
   17.4244  -12.0252   16.1889 H   0  0  0  0  0  0  0  0  0  0  0  0
   17.1321  -13.4948   17.9659 H   0  0  0  0  0  0  0  0  0  0  0  0
   18.5538  -11.1666   18.8875 H   0  0  0  0  0  0  0  0  0  0  0  0
   18.8329  -14.0094   19.0917 H   0  0  0  0  0  0  0  0  0  0  0  0
   17.6156  -10.6448   20.9672 H   0  0  0  0  0  0  0  0  0  0  0  0
   19.1236  -15.4797   20.9249 H   0  0  0  0  0  0  0  0  0  0  0  0
   17.7851  -15.1979   22.0468 H   0  0  0  0  0  0  0  0  0  0  0  0
   18.1945  -14.0966   24.2386 H   0  0  0  0  0  0  0  0  0  0  0  0
   19.7732  -13.6850   26.0926 H   0  0  0  0  0  0  0  0  0  0  0  0
   23.0466  -14.6349   23.4765 H   0  0  0  0  0  0  0  0  0  0  0  0
   21.4608  -15.0266   21.6203 H   0  0  0  0  0  0  0  0  0  0  0  0
   21.0026  -13.5480   20.1161 H   0  0  0  0  0  0  0  0  0  0  0  0
   21.7570  -11.2678   20.6496 H   0  0  0  0  0  0  0  0  0  0  0  0
   20.4383  -11.7925   21.7164 H   0  0  0  0  0  0  0  0  0  0  0  0
   20.1103  -10.6498   20.3951 H   0  0  0  0  0  0  0  0  0  0  0  0
   20.6413  -13.2696   17.6970 H   0  0  0  0  0  0  0  0  0  0  0  0
   21.9405  -12.2245   18.3241 H   0  0  0  0  0  0  0  0  0  0  0  0
   20.3492  -11.5318   17.9433 H   0  0  0  0  0  0  0  0  0  0  0  0
   10.4577   -9.7241   25.1599 H   0  0  0  0  0  0  0  0  0  0  0  0
   15.4437  -13.2574   19.4068 H   0  0  0  0  0  0  0  0  0  0  0  0
  1  2  2  0  0  0  0
  1 33  1  0  0  0  0
  1 64  1  0  0  0  0
  2  3  1  0  0  0  0
  2  4  1  0  0  0  0
  3 34  1  0  0  0  0
  3 35  1  0  0  0  0
  4  5  2  0  0  0  0
  4  9  1  0  0  0  0
  5  6  1  0  0  0  0
  5 36  1  0  0  0  0
  6  7  2  0  0  0  0
  6 37  1  0  0  0  0
  7  8  1  0  0  0  0
  7 10  1  0  0  0  0
  8  9  2  0  0  0  0
  8 38  1  0  0  0  0
  9 39  1  0  0  0  0
 10 11  1  0  0  0  0
 10 21  1  0  0  0  0
 10 40  1  6  0  0  0
 11 12  1  0  0  0  0
 11 15  1  0  0  0  0
 11 65  1  1  0  0  0
 12 13  1  0  0  0  0
 12 41  1  0  0  0  0
 12 42  1  0  0  0  0
 13 14  1  0  0  0  0
 13 43  1  0  0  0  0
 13 44  1  0  0  0  0
 14 15  1  0  0  0  0
 14 45  1  0  0  0  0
 14 46  1  0  0  0  0
 15 16  1  0  0  0  0
 15 47  1  6  0  0  0
 16 17  1  0  0  0  0
 16 21  1  0  0  0  0
 16 48  1  6  0  0  0
 17 18  1  0  0  0  0
 17 29  1  0  0  0  0
 17 49  1  6  0  0  0
 18 19  1  0  0  0  0
 18 22  1  0  0  0  0
 19 20  2  0  0  0  0
 19 21  1  0  0  0  0
 21 50  1  1  0  0  0
 22 23  1  0  0  0  0
 22 51  1  0  0  0  0
 22 52  1  0  0  0  0
 23 24  2  0  0  0  0
 23 28  1  0  0  0  0
 24 25  1  0  0  0  0
 24 53  1  0  0  0  0
 25 26  2  0  0  0  0
 25 54  1  0  0  0  0
 26 27  1  0  0  0  0
 26 32  1  0  0  0  0
 27 28  2  0  0  0  0
 27 55  1  0  0  0  0
 28 56  1  0  0  0  0
 29 30  1  0  0  0  0
 29 31  1  0  0  0  0
 29 57  1  0  0  0  0
 30 58  1  0  0  0  0
 30 59  1  0  0  0  0
 30 60  1  0  0  0  0
 31 61  1  0  0  0  0
 31 62  1  0  0  0  0
 31 63  1  0  0  0  0
M  CHG  1  11   1
M  END
$$$$
