EZT
 OpenBabel04051918423D

 61 65  0  0  1  0  0  0  0  0999 V2000
  -36.7863    1.4878   21.4480 C   0  0  0  0  0  0  0  0  0  0  0  0
  -36.7183    2.9959   21.0664 C   0  0  2  0  0  0  0  0  0  0  0  0
  -36.4544    3.0736   19.5478 C   0  0  0  0  0  0  0  0  0  0  0  0
  -35.0183    2.6624   19.1741 C   0  0  0  0  0  0  0  0  0  0  0  0
  -33.9636    3.4596   19.9803 C   0  0  2  0  0  0  0  0  0  0  0  0
  -32.5111    3.2079   19.5853 C   0  0  0  0  0  0  0  0  0  0  0  0
  -32.1527    2.9984   18.2386 C   0  0  0  0  0  0  0  0  0  0  0  0
  -30.8170    2.8447   17.8586 C   0  0  0  0  0  0  0  0  0  0  0  0
  -29.8276    2.9180   18.8247 C   0  0  0  0  0  0  0  0  0  0  0  0
  -28.5148    2.7565   18.5057 O   0  0  0  0  0  0  0  0  0  0  0  0
  -30.1452    3.1627   20.1516 C   0  0  0  0  0  0  0  0  0  0  0  0
  -31.4818    3.3179   20.5437 C   0  0  0  0  0  0  0  0  0  0  0  0
  -31.7610    3.5549   22.0052 C   0  0  0  0  0  0  0  0  0  0  0  0
  -33.1529    4.1145   22.2646 C   0  0  0  0  0  0  0  0  0  0  0  0
  -34.1979    3.2855   21.5110 C   0  0  1  0  0  0  0  0  0  0  0  0
  -35.6122    3.7578   21.8294 C   0  0  2  0  0  0  0  0  0  0  0  0
  -36.1234    3.7549   23.2768 C   0  0  0  0  0  0  0  0  0  0  0  0
  -37.6623    3.8325   23.1446 C   0  0  0  0  0  0  0  0  0  0  0  0
  -37.9719    3.7702   21.6204 C   0  0  2  0  0  0  0  0  0  0  0  0
  -39.1771    3.0697   21.3817 O   0  0  0  0  0  0  0  0  0  0  0  0
  -38.1227    5.1309   20.9656 C   0  0  0  0  0  0  0  0  0  0  0  0
  -37.8484    6.3226   21.5335 C   0  0  0  0  0  0  0  0  0  0  0  0
  -37.7581    7.5906   20.8082 C   0  0  0  0  0  0  0  0  0  0  0  0
  -38.6410    7.8319   19.7462 C   0  0  0  0  0  0  0  0  0  0  0  0
  -38.5785    9.0222   19.0270 C   0  0  0  0  0  0  0  0  0  0  0  0
  -37.6453    9.9827   19.3696 C   0  0  0  0  0  0  0  0  0  0  0  0
  -36.7624    9.7682   20.4288 C   0  0  0  0  0  0  0  0  0  0  0  0
  -36.8024    8.5709   21.1629 C   0  0  0  0  0  0  0  0  0  0  0  0
  -35.8258    8.3861   22.3034 C   0  0  0  0  0  0  0  0  0  0  0  0
  -34.9123    9.3991   22.4089 F   0  0  0  0  0  0  0  0  0  0  0  0
  -36.4392    8.3325   23.5206 F   0  0  0  0  0  0  0  0  0  0  0  0
  -35.0837    7.2465   22.2112 F   0  0  0  0  0  0  0  0  0  0  0  0
  -35.9065    0.9353   21.1054 H   0  0  0  0  0  0  0  0  0  0  0  0
  -37.6606    1.0095   20.9932 H   0  0  0  0  0  0  0  0  0  0  0  0
  -36.8518    1.3180   22.5258 H   0  0  0  0  0  0  0  0  0  0  0  0
  -36.5877    4.0931   19.1729 H   0  0  0  0  0  0  0  0  0  0  0  0
  -37.1722    2.4496   19.0014 H   0  0  0  0  0  0  0  0  0  0  0  0
  -34.9120    2.8435   18.0983 H   0  0  0  0  0  0  0  0  0  0  0  0
  -34.8677    1.5864   19.3144 H   0  0  0  0  0  0  0  0  0  0  0  0
  -34.1282    4.5247   19.7370 H   0  0  0  0  0  0  0  0  0  0  0  0
  -32.9068    2.9733   17.4556 H   0  0  0  0  0  0  0  0  0  0  0  0
  -30.5693    2.6981   16.8136 H   0  0  0  0  0  0  0  0  0  0  0  0
  -28.4596    1.9404   17.9809 H   0  0  0  0  0  0  0  0  0  0  0  0
  -29.3447    3.2277   20.8855 H   0  0  0  0  0  0  0  0  0  0  0  0
  -31.0210    4.2517   22.4176 H   0  0  0  0  0  0  0  0  0  0  0  0
  -31.6480    2.6002   22.5327 H   0  0  0  0  0  0  0  0  0  0  0  0
  -33.1957    5.1617   21.9339 H   0  0  0  0  0  0  0  0  0  0  0  0
  -33.3439    4.1156   23.3438 H   0  0  0  0  0  0  0  0  0  0  0  0
  -34.0801    2.2303   21.7926 H   0  0  0  0  0  0  0  0  0  0  0  0
  -35.6233    4.8099   21.5112 H   0  0  0  0  0  0  0  0  0  0  0  0
  -35.7298    4.6000   23.8489 H   0  0  0  0  0  0  0  0  0  0  0  0
  -35.8430    2.8375   23.8042 H   0  0  0  0  0  0  0  0  0  0  0  0
  -38.0492    4.7375   23.6270 H   0  0  0  0  0  0  0  0  0  0  0  0
  -38.1469    3.0136   23.6855 H   0  0  0  0  0  0  0  0  0  0  0  0
  -39.8891    3.5882   21.7945 H   0  0  0  0  0  0  0  0  0  0  0  0
  -38.3697    5.0911   19.9066 H   0  0  0  0  0  0  0  0  0  0  0  0
  -37.5657    6.3872   22.5828 H   0  0  0  0  0  0  0  0  0  0  0  0
  -39.3892    7.0939   19.4654 H   0  0  0  0  0  0  0  0  0  0  0  0
  -39.2668    9.1864   18.2027 H   0  0  0  0  0  0  0  0  0  0  0  0
  -37.5967   10.9188   18.8114 H   0  0  0  0  0  0  0  0  0  0  0  0
  -36.0375   10.5421   20.6803 H   0  0  0  0  0  0  0  0  0  0  0  0
  1 33  1  0  0  0  0
  1 34  1  0  0  0  0
  1 35  1  0  0  0  0
  2  1  1  1  0  0  0
  2  3  1  0  0  0  0
  2 16  1  0  0  0  0
  2 19  1  0  0  0  0
  3  4  1  0  0  0  0
  3 36  1  0  0  0  0
  3 37  1  0  0  0  0
  4  5  1  0  0  0  0
  4 38  1  0  0  0  0
  4 39  1  0  0  0  0
  5  6  1  0  0  0  0
  5 15  1  0  0  0  0
  5 40  1  6  0  0  0
  6  7  2  0  0  0  0
  6 12  1  0  0  0  0
  7  8  1  0  0  0  0
  7 41  1  0  0  0  0
  8  9  2  0  0  0  0
  8 42  1  0  0  0  0
  9 10  1  0  0  0  0
  9 11  1  0  0  0  0
 10 43  1  0  0  0  0
 11 12  2  0  0  0  0
 11 44  1  0  0  0  0
 12 13  1  0  0  0  0
 13 14  1  0  0  0  0
 13 45  1  0  0  0  0
 13 46  1  0  0  0  0
 14 15  1  0  0  0  0
 14 47  1  0  0  0  0
 14 48  1  0  0  0  0
 15 16  1  0  0  0  0
 15 49  1  1  0  0  0
 16 17  1  0  0  0  0
 16 50  1  6  0  0  0
 17 18  1  0  0  0  0
 17 51  1  0  0  0  0
 17 52  1  0  0  0  0
 18 19  1  0  0  0  0
 18 53  1  0  0  0  0
 18 54  1  0  0  0  0
 19 20  1  6  0  0  0
 19 21  1  0  0  0  0
 20 55  1  0  0  0  0
 21 22  2  0  0  0  0
 21 56  1  0  0  0  0
 22 23  1  0  0  0  0
 22 57  1  0  0  0  0
 23 24  2  0  0  0  0
 23 28  1  0  0  0  0
 24 25  1  0  0  0  0
 24 58  1  0  0  0  0
 25 26  2  0  0  0  0
 25 59  1  0  0  0  0
 26 27  1  0  0  0  0
 26 60  1  0  0  0  0
 27 28  2  0  0  0  0
 27 61  1  0  0  0  0
 28 29  1  0  0  0  0
 29 30  1  0  0  0  0
 29 31  1  0  0  0  0
 29 32  1  0  0  0  0
M  END
$$$$
