F19
 OpenBabel04051917383D

 33 34  0  0  0  0  0  0  0  0999 V2000
   51.3928   24.8290   14.8203 C   0  0  0  0  0  0  0  0  0  0  0  0
   50.5569   25.8812   15.2249 C   0  0  0  0  0  0  0  0  0  0  0  0
   49.2217   25.6085   15.5422 C   0  0  0  0  0  0  0  0  0  0  0  0
   48.7803   24.2798   15.5670 C   0  0  0  0  0  0  0  0  0  0  0  0
   49.6173   23.2113   15.1616 C   0  0  0  0  0  0  0  0  0  0  0  0
   50.9403   23.4912   14.7703 C   0  0  0  0  0  0  0  0  0  0  0  0
   51.7583   22.4129   14.3377 C   0  0  0  0  0  0  0  0  0  0  0  0
   51.3150   21.0941   14.4199 C   0  0  0  0  0  0  0  0  0  0  0  0
   50.0374   20.8130   14.8657 C   0  0  0  0  0  0  0  0  0  0  0  0
   49.1664   21.8724   15.1436 C   0  0  0  0  0  0  0  0  0  0  0  0
   48.0249   26.9395   15.7576 S   0  0  0  0  0  0  0  0  0  0  0  0
   46.7516   26.4464   15.3066 O   0  0  0  0  0  0  0  0  0  0  0  0
   48.1945   27.4462   17.1214 O   0  0  0  0  0  0  0  0  0  0  0  0
   47.8946   28.9248   12.4181 C   0  0  0  0  0  0  0  0  0  0  0  0
   47.8469   28.3537   11.1149 O   0  0  0  0  0  0  0  0  0  0  0  0
   48.7380   28.0087   13.3044 C   0  0  0  0  0  0  0  0  0  0  0  0
   48.5033   28.1866   14.7521 N   0  0  0  0  0  0  0  0  0  0  0  0
   46.5760   30.1587    9.9636 O   0  0  0  0  0  0  0  0  0  0  0  0
   49.1302   30.2162   10.0966 O   0  0  0  0  0  0  0  0  0  0  0  0
   47.8800   29.3849    9.8403 P   0  0  0  0  0  0  0  0  0  0  0  0
   47.9674   28.4568    8.6437 O   0  0  0  0  0  0  0  0  0  0  0  0
   52.4119   25.0716   14.5251 H   0  0  0  0  0  0  0  0  0  0  0  0
   50.9364   26.8981   15.2820 H   0  0  0  0  0  0  0  0  0  0  0  0
   47.7730   24.0637   15.9211 H   0  0  0  0  0  0  0  0  0  0  0  0
   52.7607   22.6088   13.9538 H   0  0  0  0  0  0  0  0  0  0  0  0
   51.9625   20.2689   14.0961 H   0  0  0  0  0  0  0  0  0  0  0  0
   49.6992   19.7875   14.9837 H   0  0  0  0  0  0  0  0  0  0  0  0
   48.1176   21.6479   15.3238 H   0  0  0  0  0  0  0  0  0  0  0  0
   46.8756   29.0043   12.7917 H   0  0  0  0  0  0  0  0  0  0  0  0
   48.3332   29.9256   12.4008 H   0  0  0  0  0  0  0  0  0  0  0  0
   49.7984   28.2373   13.1455 H   0  0  0  0  0  0  0  0  0  0  0  0
   48.6068   26.9576   13.0275 H   0  0  0  0  0  0  0  0  0  0  0  0
   48.4251   29.1461   15.1090 H   0  0  0  0  0  0  0  0  0  0  0  0
  1  2  2  0  0  0  0
  1  6  1  0  0  0  0
  1 22  1  0  0  0  0
  2  3  1  0  0  0  0
  2 23  1  0  0  0  0
  3  4  2  0  0  0  0
  3 11  1  0  0  0  0
  4  5  1  0  0  0  0
  4 24  1  0  0  0  0
  5  6  2  0  0  0  0
  5 10  1  0  0  0  0
  6  7  1  0  0  0  0
  7  8  2  0  0  0  0
  7 25  1  0  0  0  0
  8  9  1  0  0  0  0
  8 26  1  0  0  0  0
  9 10  2  0  0  0  0
  9 27  1  0  0  0  0
 10 28  1  0  0  0  0
 11 12  2  0  0  0  0
 11 13  2  0  0  0  0
 11 17  1  0  0  0  0
 14 15  1  0  0  0  0
 14 16  1  0  0  0  0
 14 29  1  0  0  0  0
 14 30  1  0  0  0  0
 15 20  1  0  0  0  0
 16 17  1  0  0  0  0
 16 31  1  0  0  0  0
 16 32  1  0  0  0  0
 17 33  1  0  0  0  0
 18 20  2  0  0  0  0
 19 20  1  0  0  0  0
 20 21  1  0  0  0  0
M  END
$$$$
