F25
 OpenBabel04051917383D

 59 63  0  0  1  0  0  0  0  0999 V2000
   16.8058  -12.7899   22.5863 O   0  0  0  0  0  0  0  0  0  0  0  0
   17.5126  -12.5273   21.6017 C   0  0  0  0  0  0  0  0  0  0  0  0
   18.5456  -13.3051   21.1977 N   0  0  0  0  0  0  0  0  0  0  0  0
   18.9661  -14.5287   21.8726 C   0  0  0  0  0  0  0  0  0  0  0  0
   19.8684  -14.2805   23.0438 C   0  0  0  0  0  0  0  0  0  0  0  0
   21.2558  -14.3582   22.8930 C   0  0  0  0  0  0  0  0  0  0  0  0
   22.1071  -14.1183   23.9689 C   0  0  0  0  0  0  0  0  0  0  0  0
   21.5660  -13.8024   25.2064 C   0  0  0  0  0  0  0  0  0  0  0  0
   22.3692  -13.5673   26.2498 F   0  0  0  0  0  0  0  0  0  0  0  0
   20.1911  -13.7362   25.3801 C   0  0  0  0  0  0  0  0  0  0  0  0
   19.3454  -13.9722   24.3023 C   0  0  0  0  0  0  0  0  0  0  0  0
   19.1270  -12.8548   19.9542 C   0  0  1  0  0  0  0  0  0  0  0  0
   18.1277  -11.8138   19.4305 C   0  0  1  0  0  0  0  0  0  0  0  0
   17.1568  -12.3958   18.4078 C   0  0  1  0  0  0  0  0  0  0  0  0
   15.8039  -12.3203   19.0567 N   0  3  2  0  0  0  0  0  0  0  0  0
   14.7480  -12.0852   18.0204 C   0  0  0  0  0  0  0  0  0  0  0  0
   15.5114  -11.8983   16.7341 C   0  0  0  0  0  0  0  0  0  0  0  0
   16.9617  -11.6323   17.1129 C   0  0  0  0  0  0  0  0  0  0  0  0
   15.9027  -11.2206   20.0759 C   0  0  1  0  0  0  0  0  0  0  0  0
   14.7526  -11.1870   21.0232 C   0  0  0  0  0  0  0  0  0  0  0  0
   13.9963  -12.3131   21.3205 C   0  0  0  0  0  0  0  0  0  0  0  0
   12.9466  -12.2174   22.2365 C   0  0  0  0  0  0  0  0  0  0  0  0
   12.5983  -11.0052   22.8451 C   0  0  0  0  0  0  0  0  0  0  0  0
   13.3696   -9.8862   22.5168 C   0  0  0  0  0  0  0  0  0  0  0  0
   14.4295   -9.9737   21.6189 C   0  0  0  0  0  0  0  0  0  0  0  0
   11.4718  -10.9302   23.7977 C   0  0  0  0  0  0  0  0  0  0  0  0
   10.7111  -11.9699   24.0399 N   0  0  0  0  0  0  0  0  0  0  0  0
   11.1954   -9.8175   24.4385 N   0  0  0  0  0  0  0  0  0  0  0  0
   17.2933  -11.3878   20.6476 C   0  0  1  0  0  0  0  0  0  0  0  0
   20.5028  -12.2339   20.1236 C   0  0  0  0  0  0  0  0  0  0  0  0
   20.9570  -11.8865   18.8987 F   0  0  0  0  0  0  0  0  0  0  0  0
   20.4306  -11.0977   20.8531 F   0  0  0  0  0  0  0  0  0  0  0  0
   19.4772  -15.1537   21.1398 H   0  0  0  0  0  0  0  0  0  0  0  0
   18.0677  -15.0635   22.2152 H   0  0  0  0  0  0  0  0  0  0  0  0
   21.6833  -14.6134   21.9282 H   0  0  0  0  0  0  0  0  0  0  0  0
   23.1833  -14.1869   23.8398 H   0  0  0  0  0  0  0  0  0  0  0  0
   19.7795  -13.5075   26.3560 H   0  0  0  0  0  0  0  0  0  0  0  0
   18.2703  -13.9185   24.4498 H   0  0  0  0  0  0  0  0  0  0  0  0
   19.1919  -13.7198   19.2799 H   0  0  0  0  0  0  0  0  0  0  0  0
   18.6450  -10.9629   18.9965 H   0  0  0  0  0  0  0  0  0  0  0  0
   17.3813  -13.4389   18.1845 H   0  0  0  0  0  0  0  0  0  0  0  0
   14.1730  -11.1971   18.2949 H   0  0  0  0  0  0  0  0  0  0  0  0
   14.0887  -12.9591   17.9973 H   0  0  0  0  0  0  0  0  0  0  0  0
   15.0889  -11.0619   16.1769 H   0  0  0  0  0  0  0  0  0  0  0  0
   15.4329  -12.8079   16.1307 H   0  0  0  0  0  0  0  0  0  0  0  0
   17.6393  -12.0101   16.3393 H   0  0  0  0  0  0  0  0  0  0  0  0
   17.1398  -10.5578   17.2367 H   0  0  0  0  0  0  0  0  0  0  0  0
   15.8801  -10.2757   19.5073 H   0  0  0  0  0  0  0  0  0  0  0  0
   14.2069  -13.2737   20.8726 H   0  0  0  0  0  0  0  0  0  0  0  0
   12.4018  -13.1185   22.4796 H   0  0  0  0  0  0  0  0  0  0  0  0
   13.1602   -8.9203   22.9644 H   0  0  0  0  0  0  0  0  0  0  0  0
   15.0099   -9.0844   21.3794 H   0  0  0  0  0  0  0  0  0  0  0  0
    9.9510  -11.9200   24.7058 H   0  0  0  0  0  0  0  0  0  0  0  0
   11.7351   -8.9805   24.3028 H   0  0  0  0  0  0  0  0  0  0  0  0
   10.4347   -9.7837   25.1006 H   0  0  0  0  0  0  0  0  0  0  0  0
   17.6381  -10.4544   21.1024 H   0  0  0  0  0  0  0  0  0  0  0  0
   21.1770  -12.9403   20.5935 H   0  0  0  0  0  0  0  0  0  0  0  0
   15.6322  -13.2060   19.5415 H   0  0  0  0  0  0  0  0  0  0  0  0
   10.8499  -12.8631   23.5873 H   0  0  0  0  0  0  0  0  0  0  0  0
  1  2  2  0  0  0  0
  2  3  1  0  0  0  0
  2 29  1  0  0  0  0
  3  4  1  0  0  0  0
  3 12  1  0  0  0  0
  4  5  1  0  0  0  0
  4 33  1  0  0  0  0
  4 34  1  0  0  0  0
  5  6  2  0  0  0  0
  5 11  1  0  0  0  0
  6  7  1  0  0  0  0
  6 35  1  0  0  0  0
  7  8  2  0  0  0  0
  7 36  1  0  0  0  0
  8  9  1  0  0  0  0
  8 10  1  0  0  0  0
 10 11  2  0  0  0  0
 10 37  1  0  0  0  0
 11 38  1  0  0  0  0
 12 13  1  0  0  0  0
 12 30  1  0  0  0  0
 12 39  1  6  0  0  0
 13 14  1  0  0  0  0
 13 29  1  0  0  0  0
 13 40  1  6  0  0  0
 14 15  1  0  0  0  0
 14 18  1  0  0  0  0
 14 41  1  6  0  0  0
 15 16  1  0  0  0  0
 15 19  1  0  0  0  0
 15 58  1  1  0  0  0
 16 17  1  0  0  0  0
 16 42  1  0  0  0  0
 16 43  1  0  0  0  0
 17 18  1  0  0  0  0
 17 44  1  0  0  0  0
 17 45  1  0  0  0  0
 18 46  1  0  0  0  0
 18 47  1  0  0  0  0
 19 20  1  0  0  0  0
 19 29  1  0  0  0  0
 19 48  1  6  0  0  0
 20 21  2  0  0  0  0
 20 25  1  0  0  0  0
 21 22  1  0  0  0  0
 21 49  1  0  0  0  0
 22 23  2  0  0  0  0
 22 50  1  0  0  0  0
 23 24  1  0  0  0  0
 23 26  1  0  0  0  0
 24 25  2  0  0  0  0
 24 51  1  0  0  0  0
 25 52  1  0  0  0  0
 26 27  2  0  0  0  0
 26 28  1  0  0  0  0
 27 53  1  0  0  0  0
 27 59  1  0  0  0  0
 28 54  1  0  0  0  0
 28 55  1  0  0  0  0
 29 56  1  1  0  0  0
 30 31  1  0  0  0  0
 30 32  1  0  0  0  0
 30 57  1  0  0  0  0
M  CHG  1  15   1
M  END
$$$$
