F6F
 OpenBabel04051917373D

 30 30  0  0  0  0  0  0  0  0999 V2000
   51.7076   23.9060   14.3882 C   0  0  0  0  0  0  0  0  0  0  0  0
   50.5201   23.6579   15.0757 C   0  0  0  0  0  0  0  0  0  0  0  0
   49.5489   24.6547   15.1598 C   0  0  0  0  0  0  0  0  0  0  0  0
   49.7577   25.8948   14.5459 C   0  0  0  0  0  0  0  0  0  0  0  0
   50.9734   26.1652   13.9074 C   0  0  0  0  0  0  0  0  0  0  0  0
   51.9532   25.1709   13.8309 C   0  0  0  0  0  0  0  0  0  0  0  0
   52.6970   22.9606   14.3641 O   0  0  0  0  0  0  0  0  0  0  0  0
   52.5109   22.0151   13.3148 C   0  0  0  0  0  0  0  0  0  0  0  0
   51.3781   21.2985   13.4877 F   0  0  0  0  0  0  0  0  0  0  0  0
   53.5485   21.1444   13.3424 F   0  0  0  0  0  0  0  0  0  0  0  0
   52.5011   22.6061   12.1038 F   0  0  0  0  0  0  0  0  0  0  0  0
   48.6160   26.8359   14.5766 C   0  0  0  0  0  0  0  0  0  0  0  0
   48.4128   27.5942   13.4508 N   0  0  0  0  0  0  0  0  0  0  0  0
   47.8592   26.8266   15.5461 O   0  0  0  0  0  0  0  0  0  0  0  0
   47.2658   28.4623   13.3774 C   0  0  0  0  0  0  0  0  0  0  0  0
   46.8905   29.0207   12.0143 C   0  0  0  0  0  0  0  0  0  0  0  0
   47.6172   28.4634   10.9348 O   0  0  0  0  0  0  0  0  0  0  0  0
   47.9540   29.5974    9.7831 P   0  0  0  0  0  0  0  0  0  0  0  0
   48.3163   28.7803    8.5558 O   0  0  0  0  0  0  0  0  0  0  0  0
   49.1195   30.3508   10.4175 O   0  0  0  0  0  0  0  0  0  0  0  0
   46.6727   30.4106    9.6482 O   0  0  0  0  0  0  0  0  0  0  0  0
   50.3213   22.6925   15.5329 H   0  0  0  0  0  0  0  0  0  0  0  0
   48.6119   24.4685   15.6770 H   0  0  0  0  0  0  0  0  0  0  0  0
   51.1583   27.1414   13.4594 H   0  0  0  0  0  0  0  0  0  0  0  0
   52.8932   25.3744   13.3278 H   0  0  0  0  0  0  0  0  0  0  0  0
   48.9100   27.4431   12.5724 H   0  0  0  0  0  0  0  0  0  0  0  0
   47.4496   29.2982   14.0634 H   0  0  0  0  0  0  0  0  0  0  0  0
   46.3995   27.9209   13.7913 H   0  0  0  0  0  0  0  0  0  0  0  0
   47.0304   30.1059   12.0688 H   0  0  0  0  0  0  0  0  0  0  0  0
   45.8249   28.8428   11.8331 H   0  0  0  0  0  0  0  0  0  0  0  0
  1  2  2  0  0  0  0
  1  6  1  0  0  0  0
  1  7  1  0  0  0  0
  2  3  1  0  0  0  0
  2 22  1  0  0  0  0
  3  4  2  0  0  0  0
  3 23  1  0  0  0  0
  4  5  1  0  0  0  0
  4 12  1  0  0  0  0
  5  6  2  0  0  0  0
  5 24  1  0  0  0  0
  6 25  1  0  0  0  0
  7  8  1  0  0  0  0
  8  9  1  0  0  0  0
  8 10  1  0  0  0  0
  8 11  1  0  0  0  0
 12 13  1  0  0  0  0
 12 14  2  0  0  0  0
 13 15  1  0  0  0  0
 13 26  1  0  0  0  0
 15 16  1  0  0  0  0
 15 27  1  0  0  0  0
 15 28  1  0  0  0  0
 16 17  1  0  0  0  0
 16 29  1  0  0  0  0
 16 30  1  0  0  0  0
 17 18  1  0  0  0  0
 18 19  2  0  0  0  0
 18 20  1  0  0  0  0
 18 21  1  0  0  0  0
M  END
$$$$
