F9F
 OpenBabel04051917383D

 31 31  0  0  0  0  0  0  0  0999 V2000
   50.8777   23.3747   14.9627 C   0  0  0  0  0  0  0  0  0  0  0  0
   49.7302   23.3274   15.7494 C   0  0  0  0  0  0  0  0  0  0  0  0
   48.9437   24.4882   15.9059 C   0  0  0  0  0  0  0  0  0  0  0  0
   49.3136   25.6909   15.2855 C   0  0  0  0  0  0  0  0  0  0  0  0
   50.4761   25.7414   14.5243 C   0  0  0  0  0  0  0  0  0  0  0  0
   51.2435   24.5840   14.3632 C   0  0  0  0  0  0  0  0  0  0  0  0
   51.7834   22.3696   14.7924 O   0  0  0  0  0  0  0  0  0  0  0  0
   51.2947   21.0584   14.5893 C   0  0  0  0  0  0  0  0  0  0  0  0
   52.3185   20.3026   14.1168 F   0  0  0  0  0  0  0  0  0  0  0  0
   50.2950   21.0104   13.6865 F   0  0  0  0  0  0  0  0  0  0  0  0
   50.8849   20.5045   15.7508 F   0  0  0  0  0  0  0  0  0  0  0  0
   48.2473   27.1088   15.4946 S   0  0  0  0  0  0  0  0  0  0  0  0
   48.9495   28.3889   14.6875 N   0  0  0  0  0  0  0  0  0  0  0  0
   48.9980   28.4382   13.2074 C   0  0  0  0  0  0  0  0  0  0  0  0
   47.7547   28.9978   12.5372 C   0  0  0  0  0  0  0  0  0  0  0  0
   47.7290   28.4651   11.2234 O   0  0  0  0  0  0  0  0  0  0  0  0
   48.0535   29.5111   10.0093 P   0  0  0  0  0  0  0  0  0  0  0  0
   49.2871   30.2553   10.5071 O   0  0  0  0  0  0  0  0  0  0  0  0
   48.2986   28.6001    8.8156 O   0  0  0  0  0  0  0  0  0  0  0  0
   46.7875   30.3503    9.9440 O   0  0  0  0  0  0  0  0  0  0  0  0
   48.3169   27.4448   16.9016 O   0  0  0  0  0  0  0  0  0  0  0  0
   46.9764   26.7759   14.8852 O   0  0  0  0  0  0  0  0  0  0  0  0
   49.4298   22.4260   16.2768 H   0  0  0  0  0  0  0  0  0  0  0  0
   48.0490   24.4619   16.5254 H   0  0  0  0  0  0  0  0  0  0  0  0
   50.8064   26.6525   14.0370 H   0  0  0  0  0  0  0  0  0  0  0  0
   52.1395   24.6340   13.7484 H   0  0  0  0  0  0  0  0  0  0  0  0
   48.9436   29.2814   15.1773 H   0  0  0  0  0  0  0  0  0  0  0  0
   49.1861   27.4329   12.8229 H   0  0  0  0  0  0  0  0  0  0  0  0
   49.8769   29.0320   12.9304 H   0  0  0  0  0  0  0  0  0  0  0  0
   47.7596   30.0942   12.5464 H   0  0  0  0  0  0  0  0  0  0  0  0
   46.8412   28.6749   13.0401 H   0  0  0  0  0  0  0  0  0  0  0  0
  1  2  2  0  0  0  0
  1  6  1  0  0  0  0
  1  7  1  0  0  0  0
  2  3  1  0  0  0  0
  2 23  1  0  0  0  0
  3  4  2  0  0  0  0
  3 24  1  0  0  0  0
  4  5  1  0  0  0  0
  4 12  1  0  0  0  0
  5  6  2  0  0  0  0
  5 25  1  0  0  0  0
  6 26  1  0  0  0  0
  7  8  1  0  0  0  0
  8  9  1  0  0  0  0
  8 10  1  0  0  0  0
  8 11  1  0  0  0  0
 12 13  1  0  0  0  0
 12 21  2  0  0  0  0
 12 22  2  0  0  0  0
 13 14  1  0  0  0  0
 13 27  1  0  0  0  0
 14 15  1  0  0  0  0
 14 28  1  0  0  0  0
 14 29  1  0  0  0  0
 15 16  1  0  0  0  0
 15 30  1  0  0  0  0
 15 31  1  0  0  0  0
 16 17  1  0  0  0  0
 17 18  2  0  0  0  0
 17 19  1  0  0  0  0
 17 20  1  0  0  0  0
M  END
$$$$
