FA4
 OpenBabel04051917393D

 77 77  0  0  1  0  0  0  0  0999 V2000
   21.9214    1.3580   12.8351 C   0  0  0  0  0  0  0  0  0  0  0  0
   22.9988    1.7042   13.6565 C   0  0  0  0  0  0  0  0  0  0  0  0
   23.5362    3.0114   13.6341 C   0  0  0  0  0  0  0  0  0  0  0  0
   22.9705    3.9824   12.7562 C   0  0  0  0  0  0  0  0  0  0  0  0
   21.8845    3.6134   11.9311 C   0  0  0  0  0  0  0  0  0  0  0  0
   21.3557    2.3012   11.9633 C   0  0  0  0  0  0  0  0  0  0  0  0
   24.7189    3.3254   14.5422 C   0  0  0  0  0  0  0  0  0  0  0  0
   26.0731    2.9534   13.9262 C   0  0  0  0  0  0  0  0  0  0  0  0
   27.2586    3.4304   14.7717 C   0  0  0  0  0  0  0  0  0  0  0  0
   27.9522    4.6480   14.1581 C   0  0  0  0  0  0  0  0  0  0  0  0
   29.1386    5.1468   14.9908 C   0  0  0  0  0  0  0  0  0  0  0  0
   28.7262    6.2264   15.9963 C   0  0  0  0  0  0  0  0  0  0  0  0
   29.7888    7.3168   16.1689 C   0  0  0  0  0  0  0  0  0  0  0  0
   30.6240    7.1152   17.4324 C   0  0  0  0  0  0  0  0  0  0  0  0
   31.6736    8.1919   17.6360 C   0  0  0  0  0  0  0  0  0  0  0  0
   32.8589    7.9742   16.6998 C   0  0  0  0  0  0  0  0  0  0  0  0
   32.9249    8.9689   15.7404 N   0  0  0  0  0  0  0  0  0  0  0  0
   33.9436    8.9956   14.7177 C   0  0  2  0  0  0  0  0  0  0  0  0
   33.6474    7.0647   16.7831 O   0  0  0  0  0  0  0  0  0  0  0  0
   34.3063   10.4617   14.4504 C   0  0  0  0  0  0  0  0  0  0  0  0
   33.4071    8.3138   13.4347 C   0  0  0  0  0  0  0  0  0  0  0  0
   34.2530    7.3527   12.9511 N   0  0  0  0  0  0  0  0  0  0  0  0
   35.7540   10.7926   14.7936 C   0  0  0  0  0  0  0  0  0  0  0  0
   36.0594   12.2728   14.5546 C   0  0  0  0  0  0  0  0  0  0  0  0
   37.1414   12.7556   15.5037 C   0  0  0  0  0  0  0  0  0  0  0  0
   37.4308   14.1878   15.2768 N   0  3  0  0  0  0  0  0  0  0  0  0
   23.4825    5.4053   12.6492 C   0  0  0  0  0  0  0  0  0  0  0  0
   22.8881    6.2520   13.6894 N   0  0  0  0  0  0  0  0  0  0  0  0
   21.7746    6.9790   13.4782 C   0  0  0  0  0  0  0  0  0  0  0  0
   20.9748    7.2923   14.5004 N   0  0  0  0  0  0  0  0  0  0  0  0
   21.4207    7.4085   12.2606 N   0  0  0  0  0  0  0  0  0  0  0  0
   33.8539    6.6821   11.7859 O   0  0  0  0  0  0  0  0  0  0  0  0
   32.3592    8.6672   12.9137 O   0  0  0  0  0  0  0  0  0  0  0  0
   21.5085    0.3428   12.8644 H   0  0  0  0  0  0  0  0  0  0  0  0
   23.4201    0.9389   14.3251 H   0  0  0  0  0  0  0  0  0  0  0  0
   21.4439    4.3390   11.2450 H   0  0  0  0  0  0  0  0  0  0  0  0
   20.5248    2.0297   11.3190 H   0  0  0  0  0  0  0  0  0  0  0  0
   24.6003    2.7985   15.5017 H   0  0  0  0  0  0  0  0  0  0  0  0
   24.7200    4.3955   14.7766 H   0  0  0  0  0  0  0  0  0  0  0  0
   26.1411    3.3722   12.9195 H   0  0  0  0  0  0  0  0  0  0  0  0
   26.1249    1.8559   13.8369 H   0  0  0  0  0  0  0  0  0  0  0  0
   27.9908    2.6143   14.8487 H   0  0  0  0  0  0  0  0  0  0  0  0
   26.9193    3.6802   15.7820 H   0  0  0  0  0  0  0  0  0  0  0  0
   27.2191    5.4538   14.0406 H   0  0  0  0  0  0  0  0  0  0  0  0
   28.3171    4.3826   13.1573 H   0  0  0  0  0  0  0  0  0  0  0  0
   29.8925    5.5517   14.3054 H   0  0  0  0  0  0  0  0  0  0  0  0
   29.5924    4.3074   15.5299 H   0  0  0  0  0  0  0  0  0  0  0  0
   28.5230    5.7521   16.9630 H   0  0  0  0  0  0  0  0  0  0  0  0
   27.8003    6.7046   15.6554 H   0  0  0  0  0  0  0  0  0  0  0  0
   29.2826    8.2896   16.2247 H   0  0  0  0  0  0  0  0  0  0  0  0
   30.4481    7.3340   15.2948 H   0  0  0  0  0  0  0  0  0  0  0  0
   31.1129    6.1392   17.3847 H   0  0  0  0  0  0  0  0  0  0  0  0
   29.9560    7.1285   18.3021 H   0  0  0  0  0  0  0  0  0  0  0  0
   32.0602    8.1639   18.6582 H   0  0  0  0  0  0  0  0  0  0  0  0
   31.2427    9.1857   17.4745 H   0  0  0  0  0  0  0  0  0  0  0  0
   32.1939    9.6666   15.7143 H   0  0  0  0  0  0  0  0  0  0  0  0
   34.8219    8.4440   15.0764 H   0  0  0  0  0  0  0  0  0  0  0  0
   33.6592   11.1044   15.0710 H   0  0  0  0  0  0  0  0  0  0  0  0
   34.1182   10.7091   13.4040 H   0  0  0  0  0  0  0  0  0  0  0  0
   35.1059    7.0959   13.4354 H   0  0  0  0  0  0  0  0  0  0  0  0
   36.4167   10.1832   14.1676 H   0  0  0  0  0  0  0  0  0  0  0  0
   35.9463   10.5404   15.8443 H   0  0  0  0  0  0  0  0  0  0  0  0
   35.1497   12.8672   14.7056 H   0  0  0  0  0  0  0  0  0  0  0  0
   36.3899   12.4079   13.5168 H   0  0  0  0  0  0  0  0  0  0  0  0
   38.0789   12.2192   15.3447 H   0  0  0  0  0  0  0  0  0  0  0  0
   36.8186   12.6701   16.5442 H   0  0  0  0  0  0  0  0  0  0  0  0
   38.1643   14.5185   15.9235 H   0  0  0  0  0  0  0  0  0  0  0  0
   37.7675   14.3563   14.3186 H   0  0  0  0  0  0  0  0  0  0  0  0
   23.2300    5.8184   11.6691 H   0  0  0  0  0  0  0  0  0  0  0  0
   24.5736    5.4482   12.7253 H   0  0  0  0  0  0  0  0  0  0  0  0
   23.3337    6.2993   14.5990 H   0  0  0  0  0  0  0  0  0  0  0  0
   20.1055    7.7891   14.3603 H   0  0  0  0  0  0  0  0  0  0  0  0
   22.0143    7.2437   11.4598 H   0  0  0  0  0  0  0  0  0  0  0  0
   20.5919    7.9438   12.0967 H   0  0  0  0  0  0  0  0  0  0  0  0
   34.5626    6.0160   11.6115 H   0  0  0  0  0  0  0  0  0  0  0  0
   36.5978   14.7717   15.4321 H   0  0  0  0  0  0  0  0  0  0  0  0
   21.1701    6.9480   15.4326 H   0  0  0  0  0  0  0  0  0  0  0  0
  1  2  2  0  0  0  0
  1  6  1  0  0  0  0
  1 34  1  0  0  0  0
  2  3  1  0  0  0  0
  2 35  1  0  0  0  0
  3  4  2  0  0  0  0
  3  7  1  0  0  0  0
  4  5  1  0  0  0  0
  4 27  1  0  0  0  0
  5  6  2  0  0  0  0
  5 36  1  0  0  0  0
  6 37  1  0  0  0  0
  7  8  1  0  0  0  0
  7 38  1  0  0  0  0
  7 39  1  0  0  0  0
  8  9  1  0  0  0  0
  8 40  1  0  0  0  0
  8 41  1  0  0  0  0
  9 10  1  0  0  0  0
  9 42  1  0  0  0  0
  9 43  1  0  0  0  0
 10 11  1  0  0  0  0
 10 44  1  0  0  0  0
 10 45  1  0  0  0  0
 11 12  1  0  0  0  0
 11 46  1  0  0  0  0
 11 47  1  0  0  0  0
 12 13  1  0  0  0  0
 12 48  1  0  0  0  0
 12 49  1  0  0  0  0
 13 14  1  0  0  0  0
 13 50  1  0  0  0  0
 13 51  1  0  0  0  0
 14 15  1  0  0  0  0
 14 52  1  0  0  0  0
 14 53  1  0  0  0  0
 15 16  1  0  0  0  0
 15 54  1  0  0  0  0
 15 55  1  0  0  0  0
 16 17  1  0  0  0  0
 16 19  2  0  0  0  0
 17 18  1  0  0  0  0
 17 56  1  0  0  0  0
 18 20  1  0  0  0  0
 18 21  1  0  0  0  0
 18 57  1  1  0  0  0
 20 23  1  0  0  0  0
 20 58  1  0  0  0  0
 20 59  1  0  0  0  0
 21 22  1  0  0  0  0
 21 33  2  0  0  0  0
 22 32  1  0  0  0  0
 22 60  1  0  0  0  0
 23 24  1  0  0  0  0
 23 61  1  0  0  0  0
 23 62  1  0  0  0  0
 24 25  1  0  0  0  0
 24 63  1  0  0  0  0
 24 64  1  0  0  0  0
 25 26  1  0  0  0  0
 25 65  1  0  0  0  0
 25 66  1  0  0  0  0
 26 67  1  0  0  0  0
 26 68  1  0  0  0  0
 26 76  1  0  0  0  0
 27 28  1  0  0  0  0
 27 69  1  0  0  0  0
 27 70  1  0  0  0  0
 28 29  1  0  0  0  0
 28 71  1  0  0  0  0
 29 30  2  0  0  0  0
 29 31  1  0  0  0  0
 30 72  1  0  0  0  0
 30 77  1  0  0  0  0
 31 73  1  0  0  0  0
 31 74  1  0  0  0  0
 32 75  1  0  0  0  0
M  CHG  1  26   1
M  END
$$$$
