FB1
 OpenBabel04051920013D

 17 17  0  0  0  0  0  0  0  0999 V2000
   16.4063    6.1262   14.2820 C   0  0  0  0  0  0  0  0  0  0  0  0
   14.2130    5.6158   17.5570 Cl  0  0  0  0  0  0  0  0  0  0  0  0
   16.8701    4.8414   13.9946 C   0  0  0  0  0  0  0  0  0  0  0  0
   16.5055    3.7563   14.8005 C   0  0  0  0  0  0  0  0  0  0  0  0
   15.6718    3.9561   15.9039 C   0  0  0  0  0  0  0  0  0  0  0  0
   15.2100    5.2429   16.2043 C   0  0  0  0  0  0  0  0  0  0  0  0
   15.5705    6.3154   15.3751 C   0  0  0  0  0  0  0  0  0  0  0  0
   15.1209    2.6107   16.9025 S   0  0  0  0  0  0  0  0  0  0  0  0
   15.7275    1.2215   16.2113 N   0  0  0  0  0  0  0  0  0  0  0  0
   15.7486    2.7091   18.1989 O   0  0  0  0  0  0  0  0  0  0  0  0
   13.6849    2.4998   16.7382 O   0  0  0  0  0  0  0  0  0  0  0  0
   16.6944    6.9639   13.6619 H   0  0  0  0  0  0  0  0  0  0  0  0
   17.5076    4.6814   13.1347 H   0  0  0  0  0  0  0  0  0  0  0  0
   16.8888    2.7884   14.5233 H   0  0  0  0  0  0  0  0  0  0  0  0
   15.1882    7.3219   15.5889 H   0  0  0  0  0  0  0  0  0  0  0  0
   15.4265    0.3475   16.6295 H   0  0  0  0  0  0  0  0  0  0  0  0
   16.1690    1.2066   15.3027 H   0  0  0  0  0  0  0  0  0  0  0  0
  1  3  2  0  0  0  0
  1  7  1  0  0  0  0
  1 12  1  0  0  0  0
  2  6  1  0  0  0  0
  3  4  1  0  0  0  0
  3 13  1  0  0  0  0
  4  5  2  0  0  0  0
  4 14  1  0  0  0  0
  5  6  1  0  0  0  0
  5  8  1  0  0  0  0
  6  7  2  0  0  0  0
  7 15  1  0  0  0  0
  8  9  1  0  0  0  0
  8 10  2  0  0  0  0
  8 11  2  0  0  0  0
  9 16  1  0  0  0  0
  9 17  1  0  0  0  0
M  END
$$$$
