FB2
 OpenBabel04051920013D

 17 17  0  0  0  0  0  0  0  0999 V2000
   16.9533    6.1726   14.5665 C   0  0  0  0  0  0  0  0  0  0  0  0
   15.6119    6.1460   14.9482 C   0  0  0  0  0  0  0  0  0  0  0  0
   15.1154    5.0637   15.6725 C   0  0  0  0  0  0  0  0  0  0  0  0
   15.9703    4.0103   16.0211 C   0  0  0  0  0  0  0  0  0  0  0  0
   17.3135    4.0295   15.6365 C   0  0  0  0  0  0  0  0  0  0  0  0
   17.8032    5.1158   14.9070 C   0  0  0  0  0  0  0  0  0  0  0  0
   15.3339    2.6928   17.0195 S   0  0  0  0  0  0  0  0  0  0  0  0
   13.8949    2.6730   16.8947 O   0  0  0  0  0  0  0  0  0  0  0  0
   15.9891    2.7748   18.3064 O   0  0  0  0  0  0  0  0  0  0  0  0
   15.8769    1.3029   16.2925 N   0  0  0  0  0  0  0  0  0  0  0  0
   17.3402    7.0250   14.0120 H   0  0  0  0  0  0  0  0  0  0  0  0
   14.9547    6.9748   14.6942 H   0  0  0  0  0  0  0  0  0  0  0  0
   14.0740    5.0594   15.9866 H   0  0  0  0  0  0  0  0  0  0  0  0
   17.9892    3.2286   15.9265 H   0  0  0  0  0  0  0  0  0  0  0  0
   18.8504    5.1520   14.6157 H   0  0  0  0  0  0  0  0  0  0  0  0
   15.5798    0.4336   16.7204 H   0  0  0  0  0  0  0  0  0  0  0  0
   16.4338    1.3184   15.4516 H   0  0  0  0  0  0  0  0  0  0  0  0
  1  2  2  0  0  0  0
  1  6  1  0  0  0  0
  1 11  1  0  0  0  0
  2  3  1  0  0  0  0
  2 12  1  0  0  0  0
  3  4  2  0  0  0  0
  3 13  1  0  0  0  0
  4  5  1  0  0  0  0
  4  7  1  0  0  0  0
  5  6  2  0  0  0  0
  5 14  1  0  0  0  0
  6 15  1  0  0  0  0
  7  8  2  0  0  0  0
  7  9  2  0  0  0  0
  7 10  1  0  0  0  0
 10 16  1  0  0  0  0
 10 17  1  0  0  0  0
M  END
$$$$
