FBC
 OpenBabel04051917243D

 24 25  0  0  0  0  0  0  0  0999 V2000
   22.7271   82.8798   59.9413 F   0  0  0  0  0  0  0  0  0  0  0  0
   22.0826   83.8511   59.2810 C   0  0  0  0  0  0  0  0  0  0  0  0
   21.4266   84.8381   59.9996 C   0  0  0  0  0  0  0  0  0  0  0  0
   20.7669   85.8337   59.3028 C   0  0  0  0  0  0  0  0  0  0  0  0
   20.1381   86.8076   59.9745 F   0  0  0  0  0  0  0  0  0  0  0  0
   20.7543   85.8470   57.9124 C   0  0  0  0  0  0  0  0  0  0  0  0
   22.0916   83.8518   57.8854 C   0  0  0  0  0  0  0  0  0  0  0  0
   21.4261   84.8587   57.1668 C   0  0  0  0  0  0  0  0  0  0  0  0
   21.4377   84.9141   55.6913 C   0  0  0  0  0  0  0  0  0  0  0  0
   21.4452   86.1518   55.0234 C   0  0  0  0  0  0  0  0  0  0  0  0
   21.4233   86.2364   53.6319 C   0  0  0  0  0  0  0  0  0  0  0  0
   21.4289   83.7502   54.8941 C   0  0  0  0  0  0  0  0  0  0  0  0
   21.4278   83.8340   53.4946 C   0  0  0  0  0  0  0  0  0  0  0  0
   21.4200   85.0786   52.8559 C   0  0  0  0  0  0  0  0  0  0  0  0
   21.4046   85.1874   51.3608 C   0  0  0  0  0  0  0  0  0  0  0  0
   20.4296   85.8198   50.8520 O   0  0  0  0  0  0  0  0  0  0  0  0
   22.3758   84.6535   50.7433 O   0  0  0  0  0  0  0  0  0  0  0  0
   21.4323   84.8339   61.0812 H   0  0  0  0  0  0  0  0  0  0  0  0
   20.2075   86.6448   57.4168 H   0  0  0  0  0  0  0  0  0  0  0  0
   22.6448   83.0692   57.3727 H   0  0  0  0  0  0  0  0  0  0  0  0
   21.4781   87.0838   55.5801 H   0  0  0  0  0  0  0  0  0  0  0  0
   21.4193   87.2066   53.1399 H   0  0  0  0  0  0  0  0  0  0  0  0
   21.4053   82.7626   55.3462 H   0  0  0  0  0  0  0  0  0  0  0  0
   21.4203   82.9305   52.8881 H   0  0  0  0  0  0  0  0  0  0  0  0
  1  2  1  0  0  0  0
  2  3  2  0  0  0  0
  2  7  1  0  0  0  0
  3  4  1  0  0  0  0
  3 18  1  0  0  0  0
  4  5  1  0  0  0  0
  4  6  2  0  0  0  0
  6  8  1  0  0  0  0
  6 19  1  0  0  0  0
  7  8  2  0  0  0  0
  7 20  1  0  0  0  0
  8  9  1  0  0  0  0
  9 10  2  0  0  0  0
  9 12  1  0  0  0  0
 10 11  1  0  0  0  0
 10 21  1  0  0  0  0
 11 14  2  0  0  0  0
 11 22  1  0  0  0  0
 12 13  2  0  0  0  0
 12 23  1  0  0  0  0
 13 14  1  0  0  0  0
 13 24  1  0  0  0  0
 14 15  1  0  0  0  0
 15 16  2  0  0  0  0
 15 17  1  0  0  0  0
M  END
$$$$
