FBV
 OpenBabel04051920013D

 17 17  0  0  0  0  0  0  0  0999 V2000
   17.1199    6.0850   14.2823 C   0  0  0  0  0  0  0  0  0  0  0  0
   15.7404    6.0537   14.4674 C   0  0  0  0  0  0  0  0  0  0  0  0
   15.1516    5.0280   15.2153 C   0  0  0  0  0  0  0  0  0  0  0  0
   15.9574    4.0247   15.7651 C   0  0  0  0  0  0  0  0  0  0  0  0
   17.3367    4.0650   15.5836 C   0  0  0  0  0  0  0  0  0  0  0  0
   17.9229    5.0897   14.8390 C   0  0  0  0  0  0  0  0  0  0  0  0
   15.2421    2.7522   16.7510 S   0  0  0  0  0  0  0  0  0  0  0  0
   15.7171    1.3258   16.0414 N   0  0  0  0  0  0  0  0  0  0  0  0
   15.8333    2.8120   18.0671 O   0  0  0  0  0  0  0  0  0  0  0  0
   13.8063    2.7961   16.5724 O   0  0  0  0  0  0  0  0  0  0  0  0
   18.1303    3.1235   16.1095 F   0  0  0  0  0  0  0  0  0  0  0  0
   17.5768    6.8911   13.7034 H   0  0  0  0  0  0  0  0  0  0  0  0
   15.1194    6.8398   14.0417 H   0  0  0  0  0  0  0  0  0  0  0  0
   14.0754    5.0337   15.3826 H   0  0  0  0  0  0  0  0  0  0  0  0
   19.0009    5.1137   14.7057 H   0  0  0  0  0  0  0  0  0  0  0  0
   15.4173    0.4651   16.4935 H   0  0  0  0  0  0  0  0  0  0  0  0
   16.3435    1.3127   15.2454 H   0  0  0  0  0  0  0  0  0  0  0  0
  1  2  2  0  0  0  0
  1  6  1  0  0  0  0
  1 12  1  0  0  0  0
  2  3  1  0  0  0  0
  2 13  1  0  0  0  0
  3  4  2  0  0  0  0
  3 14  1  0  0  0  0
  4  5  1  0  0  0  0
  4  7  1  0  0  0  0
  5  6  2  0  0  0  0
  5 11  1  0  0  0  0
  6 15  1  0  0  0  0
  7  8  1  0  0  0  0
  7  9  2  0  0  0  0
  7 10  2  0  0  0  0
  8 16  1  0  0  0  0
  8 17  1  0  0  0  0
M  END
$$$$
