FBW
 OpenBabel04051920023D

 17 17  0  0  0  0  0  0  0  0999 V2000
    4.1077   -6.1380   14.4400 C   0  0  0  0  0  0  0  0  0  0  0  0
    5.4545   -6.1448   14.7826 C   0  0  0  0  0  0  0  0  0  0  0  0
    6.0279   -5.0801   15.4618 C   0  0  0  0  0  0  0  0  0  0  0  0
    5.2200   -4.0010   15.8233 C   0  0  0  0  0  0  0  0  0  0  0  0
    3.8653   -3.9734   15.4941 C   0  0  0  0  0  0  0  0  0  0  0  0
    3.3118   -5.0427   14.7883 C   0  0  0  0  0  0  0  0  0  0  0  0
    5.9433   -2.7119   16.7793 S   0  0  0  0  0  0  0  0  0  0  0  0
    5.3969   -1.3088   16.0729 N   0  0  0  0  0  0  0  0  0  0  0  0
    5.3575   -2.7854   18.0999 O   0  0  0  0  0  0  0  0  0  0  0  0
    7.3711   -2.7424   16.5671 O   0  0  0  0  0  0  0  0  0  0  0  0
    6.2168   -7.1845   14.4358 F   0  0  0  0  0  0  0  0  0  0  0  0
    3.6821   -6.9811   13.9075 H   0  0  0  0  0  0  0  0  0  0  0  0
    7.0801   -5.1109   15.7248 H   0  0  0  0  0  0  0  0  0  0  0  0
    3.2298   -3.1463   15.7988 H   0  0  0  0  0  0  0  0  0  0  0  0
    2.2557   -5.0414   14.5329 H   0  0  0  0  0  0  0  0  0  0  0  0
    5.6945   -0.4356   16.4987 H   0  0  0  0  0  0  0  0  0  0  0  0
    4.7488   -1.3216   15.2950 H   0  0  0  0  0  0  0  0  0  0  0  0
  1  2  2  0  0  0  0
  1  6  1  0  0  0  0
  1 12  1  0  0  0  0
  2  3  1  0  0  0  0
  2 11  1  0  0  0  0
  3  4  2  0  0  0  0
  3 13  1  0  0  0  0
  4  5  1  0  0  0  0
  4  7  1  0  0  0  0
  5  6  2  0  0  0  0
  5 14  1  0  0  0  0
  6 15  1  0  0  0  0
  7  8  1  0  0  0  0
  7  9  2  0  0  0  0
  7 10  2  0  0  0  0
  8 16  1  0  0  0  0
  8 17  1  0  0  0  0
M  END
$$$$
