FCB
 OpenBabel04051917173D

 23 23  0  0  1  0  0  0  0  0999 V2000
   39.7688    2.5287   42.5038 C   0  0  2  0  0  0  0  0  0  0  0  0
   39.6379    1.9939   41.0700 C   0  0  1  0  0  0  0  0  0  0  0  0
   38.4524    2.6655   40.3742 C   0  0  2  0  0  0  0  0  0  0  0  0
   37.1836    2.5385   41.2181 C   0  0  2  0  0  0  0  0  0  0  0  0
   37.4603    3.0637   42.6400 C   0  0  1  0  0  0  0  0  0  0  0  0
   36.2464    2.9030   43.5462 C   0  0  0  0  0  0  0  0  0  0  0  0
   40.8013    1.7986   43.1533 O   0  0  0  0  0  0  0  0  0  0  0  0
   40.8306    2.2659   40.3112 O   0  0  0  0  0  0  0  0  0  0  0  0
   38.2335    2.0672   39.0868 O   0  0  0  0  0  0  0  0  0  0  0  0
   36.7688    1.1662   41.2486 O   0  0  0  0  0  0  0  0  0  0  0  0
   38.5692    2.3769   43.2478 O   0  0  0  0  0  0  0  0  0  0  0  0
   40.0749    3.5813   42.5030 H   0  0  0  0  0  0  0  0  0  0  0  0
   39.5140    0.9047   41.0676 H   0  0  0  0  0  0  0  0  0  0  0  0
   38.6746    3.7233   40.1952 H   0  0  0  0  0  0  0  0  0  0  0  0
   36.3644    3.1029   40.7555 H   0  0  0  0  0  0  0  0  0  0  0  0
   37.7129    4.1309   42.5912 H   0  0  0  0  0  0  0  0  0  0  0  0
   36.4671    3.2958   44.5468 H   0  0  0  0  0  0  0  0  0  0  0  0
   35.9753    1.8522   43.6754 H   0  0  0  0  0  0  0  0  0  0  0  0
   35.3858    3.4463   43.1455 H   0  0  0  0  0  0  0  0  0  0  0  0
   40.7653    2.1040   44.0760 H   0  0  0  0  0  0  0  0  0  0  0  0
   41.5570    1.8967   40.8544 H   0  0  0  0  0  0  0  0  0  0  0  0
   39.1097    2.0767   38.6530 H   0  0  0  0  0  0  0  0  0  0  0  0
   36.7967    0.8671   40.3180 H   0  0  0  0  0  0  0  0  0  0  0  0
  1 11  1  0  0  0  0
  1  7  1  0  0  0  0
  1  2  1  0  0  0  0
  1 12  1  6  0  0  0
  2  8  1  0  0  0  0
  2  3  1  0  0  0  0
  2 13  1  1  0  0  0
  3  9  1  0  0  0  0
  3  4  1  0  0  0  0
  3 14  1  6  0  0  0
  4 10  1  0  0  0  0
  4  5  1  0  0  0  0
  4 15  1  6  0  0  0
  5 11  1  0  0  0  0
  5  6  1  0  0  0  0
  5 16  1  6  0  0  0
  6 17  1  0  0  0  0
  6 18  1  0  0  0  0
  6 19  1  0  0  0  0
  7 20  1  0  0  0  0
  8 21  1  0  0  0  0
  9 22  1  0  0  0  0
 10 23  1  0  0  0  0
M  END
$$$$
