FIH
 OpenBabel04051917403D

 39 41  0  0  0  0  0  0  0  0999 V2000
   13.1622   31.3670   73.2972 C   0  0  0  0  0  0  0  0  0  0  0  0
   13.1152   30.4042   72.2824 C   0  0  0  0  0  0  0  0  0  0  0  0
   11.8910   29.8018   71.9736 C   0  0  0  0  0  0  0  0  0  0  0  0
   10.7219   30.1644   72.6744 C   0  0  0  0  0  0  0  0  0  0  0  0
   10.7442   31.1419   73.6969 C   0  0  0  0  0  0  0  0  0  0  0  0
   11.9823   31.7306   74.0043 C   0  0  0  0  0  0  0  0  0  0  0  0
    7.0768   31.8996   75.0062 C   0  0  0  0  0  0  0  0  0  0  0  0
    7.9140   32.3086   76.0412 C   0  0  0  0  0  0  0  0  0  0  0  0
    9.2980   32.0580   75.6863 C   0  0  0  0  0  0  0  0  0  0  0  0
    9.4907   31.5123   74.4245 C   0  0  0  0  0  0  0  0  0  0  0  0
    7.9590   31.2945   73.6651 S   0  0  0  0  0  0  0  0  0  0  0  0
   14.2186   30.0559   71.6122 F   0  0  0  0  0  0  0  0  0  0  0  0
    5.5942   32.0114   74.9834 C   0  0  0  0  0  0  0  0  0  0  0  0
    4.9680   31.3954   74.0689 O   0  0  0  0  0  0  0  0  0  0  0  0
    5.0565   32.7191   75.9135 O   0  0  0  0  0  0  0  0  0  0  0  0
    7.5305   32.8031   77.3287 N   0  0  0  0  0  0  0  0  0  0  0  0
    8.1990   34.1525   78.0614 S   0  0  0  0  0  0  0  0  0  0  0  0
    7.3692   36.3744   76.4584 C   0  0  0  0  0  0  0  0  0  0  0  0
    8.4337   35.5323   76.8337 C   0  0  0  0  0  0  0  0  0  0  0  0
    9.7340   35.8355   76.3638 C   0  0  0  0  0  0  0  0  0  0  0  0
    9.9406   36.9018   75.4772 C   0  0  0  0  0  0  0  0  0  0  0  0
    8.8741   37.7165   75.0625 C   0  0  0  0  0  0  0  0  0  0  0  0
    7.5872   37.4452   75.5662 C   0  0  0  0  0  0  0  0  0  0  0  0
    9.0977   38.8537   74.1054 C   0  0  0  0  0  0  0  0  0  0  0  0
    9.5218   33.7635   78.5005 O   0  0  0  0  0  0  0  0  0  0  0  0
    7.2463   34.6549   79.0232 O   0  0  0  0  0  0  0  0  0  0  0  0
   14.1113   31.8407   73.5467 H   0  0  0  0  0  0  0  0  0  0  0  0
   11.8368   29.0496   71.1877 H   0  0  0  0  0  0  0  0  0  0  0  0
    9.7911   29.6708   72.4075 H   0  0  0  0  0  0  0  0  0  0  0  0
   12.0519   32.4860   74.7797 H   0  0  0  0  0  0  0  0  0  0  0  0
   10.1150   32.2575   76.3632 H   0  0  0  0  0  0  0  0  0  0  0  0
    6.6779   32.4344   77.7346 H   0  0  0  0  0  0  0  0  0  0  0  0
    6.3602   36.1839   76.8304 H   0  0  0  0  0  0  0  0  0  0  0  0
   10.5837   35.2240   76.6690 H   0  0  0  0  0  0  0  0  0  0  0  0
   10.9503   37.1060   75.0887 H   0  0  0  0  0  0  0  0  0  0  0  0
    6.7434   38.0708   75.2507 H   0  0  0  0  0  0  0  0  0  0  0  0
   10.1546   38.9213   73.8186 H   0  0  0  0  0  0  0  0  0  0  0  0
    8.8126   39.8068   74.5657 H   0  0  0  0  0  0  0  0  0  0  0  0
    8.5092   38.7110   73.1918 H   0  0  0  0  0  0  0  0  0  0  0  0
  1  2  2  0  0  0  0
  1  6  1  0  0  0  0
  1 27  1  0  0  0  0
  2  3  1  0  0  0  0
  2 12  1  0  0  0  0
  3  4  2  0  0  0  0
  3 28  1  0  0  0  0
  4  5  1  0  0  0  0
  4 29  1  0  0  0  0
  5  6  2  0  0  0  0
  5 10  1  0  0  0  0
  6 30  1  0  0  0  0
  7  8  2  0  0  0  0
  7 11  1  0  0  0  0
  7 13  1  0  0  0  0
  8  9  1  0  0  0  0
  8 16  1  0  0  0  0
  9 10  2  0  0  0  0
  9 31  1  0  0  0  0
 10 11  1  0  0  0  0
 13 14  2  0  0  0  0
 13 15  1  0  0  0  0
 16 17  1  0  0  0  0
 16 32  1  0  0  0  0
 17 19  1  0  0  0  0
 17 25  2  0  0  0  0
 17 26  2  0  0  0  0
 18 19  2  0  0  0  0
 18 23  1  0  0  0  0
 18 33  1  0  0  0  0
 19 20  1  0  0  0  0
 20 21  2  0  0  0  0
 20 34  1  0  0  0  0
 21 22  1  0  0  0  0
 21 35  1  0  0  0  0
 22 23  2  0  0  0  0
 22 24  1  0  0  0  0
 23 36  1  0  0  0  0
 24 37  1  0  0  0  0
 24 38  1  0  0  0  0
 24 39  1  0  0  0  0
M  END
$$$$
