FJD
 OpenBabel04051920373D

 60 64  0  0  1  0  0  0  0  0999 V2000
   -0.4697    5.6671   27.6461 Cl  0  0  0  0  0  0  0  0  0  0  0  0
   -1.2109    7.1766   27.3266 C   0  0  0  0  0  0  0  0  0  0  0  0
   -2.2092    7.7787   28.0438 C   0  0  0  0  0  0  0  0  0  0  0  0
   -2.5974    9.0173   27.4549 C   0  0  0  0  0  0  0  0  0  0  0  0
   -0.7162    8.0712   25.9770 S   0  0  0  0  0  0  0  0  0  0  0  0
   -1.8790    9.2850   26.2999 C   0  0  0  0  0  0  0  0  0  0  0  0
   -2.0521   10.3852   25.4112 C   0  0  0  0  0  0  0  0  0  0  0  0
   -1.2685   10.5736   24.2962 O   0  0  0  0  0  0  0  0  0  0  0  0
   -2.9897   11.3906   25.3977 C   0  0  0  0  0  0  0  0  0  0  0  0
   -2.8320   12.1960   24.2831 N   0  0  0  0  0  0  0  0  0  0  0  0
   -1.8124   11.6410   23.6743 C   0  0  0  0  0  0  0  0  0  0  0  0
   -1.2263   11.9820   22.3429 C   0  0  2  0  0  0  0  0  0  0  0  0
   -1.7995   13.2580   21.7446 N   0  3  2  0  0  0  0  0  0  0  0  0
   -1.6148   13.1838   20.2552 C   0  0  1  0  0  0  0  0  0  0  0  0
   -0.3575   13.9898   19.9825 C   0  0  0  0  0  0  0  0  0  0  0  0
   -0.1876   14.9436   21.1547 C   0  0  0  0  0  0  0  0  0  0  0  0
   -1.1578   14.5246   22.2404 C   0  0  0  0  0  0  0  0  0  0  0  0
   -1.4575   11.7041   19.9317 C   0  0  1  0  0  0  0  0  0  0  0  0
   -1.4472   10.9408   21.2568 C   0  0  2  0  0  0  0  0  0  0  0  0
   -2.7855   10.2549   21.2724 C   0  0  0  0  0  0  0  0  0  0  0  0
   -3.2807    9.6743   22.2237 O   0  0  0  0  0  0  0  0  0  0  0  0
   -2.7136   11.2663   19.2439 C   0  0  0  0  0  0  0  0  0  0  0  0
   -3.1261   11.7357   18.1979 O   0  0  0  0  0  0  0  0  0  0  0  0
   -3.3820   10.4074   20.0585 N   0  0  0  0  0  0  0  0  0  0  0  0
   -4.7240    9.9384   19.7794 C   0  0  0  0  0  0  0  0  0  0  0  0
   -4.6868    8.6791   18.9265 C   0  0  0  0  0  0  0  0  0  0  0  0
   -6.0669    8.0408   18.8594 C   0  0  0  0  0  0  0  0  0  0  0  0
   -6.1757    6.9589   17.7834 N   0  3  0  0  0  0  0  0  0  0  0  0
   -5.8346    7.4947   16.3950 C   0  0  0  0  0  0  0  0  0  0  0  0
   -7.6369    6.5025   17.7540 C   0  0  0  0  0  0  0  0  0  0  0  0
   -5.3112    5.7449   18.1087 C   0  0  0  0  0  0  0  0  0  0  0  0
   -2.6530    7.3583   28.9333 H   0  0  0  0  0  0  0  0  0  0  0  0
   -3.3756    9.6618   27.8465 H   0  0  0  0  0  0  0  0  0  0  0  0
   -3.7869   11.5542   26.1154 H   0  0  0  0  0  0  0  0  0  0  0  0
   -0.1520   12.1576   22.4542 H   0  0  0  0  0  0  0  0  0  0  0  0
   -2.4919   13.6660   19.8055 H   0  0  0  0  0  0  0  0  0  0  0  0
   -0.4540   14.5342   19.0365 H   0  0  0  0  0  0  0  0  0  0  0  0
    0.5292   13.3518   19.8877 H   0  0  0  0  0  0  0  0  0  0  0  0
   -0.3774   15.9754   20.8461 H   0  0  0  0  0  0  0  0  0  0  0  0
    0.8430   14.9026   21.5235 H   0  0  0  0  0  0  0  0  0  0  0  0
   -0.6766   14.3401   23.2051 H   0  0  0  0  0  0  0  0  0  0  0  0
   -1.9630   15.2612   22.3673 H   0  0  0  0  0  0  0  0  0  0  0  0
   -0.5932   11.4658   19.3035 H   0  0  0  0  0  0  0  0  0  0  0  0
   -0.6653   10.1734   21.2841 H   0  0  0  0  0  0  0  0  0  0  0  0
   -5.2575   10.7324   19.2432 H   0  0  0  0  0  0  0  0  0  0  0  0
   -5.2498    9.7581   20.7217 H   0  0  0  0  0  0  0  0  0  0  0  0
   -3.9673    7.9643   19.3399 H   0  0  0  0  0  0  0  0  0  0  0  0
   -4.3183    8.9714   17.9409 H   0  0  0  0  0  0  0  0  0  0  0  0
   -6.8346    8.7907   18.6362 H   0  0  0  0  0  0  0  0  0  0  0  0
   -6.3117    7.5651   19.8182 H   0  0  0  0  0  0  0  0  0  0  0  0
   -5.9496    6.6846   15.6710 H   0  0  0  0  0  0  0  0  0  0  0  0
   -4.7984    7.8366   16.3804 H   0  0  0  0  0  0  0  0  0  0  0  0
   -6.5177    8.3201   16.1743 H   0  0  0  0  0  0  0  0  0  0  0  0
   -7.8865    6.1003   18.7398 H   0  0  0  0  0  0  0  0  0  0  0  0
   -7.7445    5.7413   16.9780 H   0  0  0  0  0  0  0  0  0  0  0  0
   -8.2570    7.3755   17.5287 H   0  0  0  0  0  0  0  0  0  0  0  0
   -4.2615    6.0479   18.1155 H   0  0  0  0  0  0  0  0  0  0  0  0
   -5.4798    4.9861   17.3391 H   0  0  0  0  0  0  0  0  0  0  0  0
   -5.6099    5.3634   19.0900 H   0  0  0  0  0  0  0  0  0  0  0  0
   -2.7952   13.2951   22.0186 H   0  0  0  0  0  0  0  0  0  0  0  0
  1  2  1  0  0  0  0
  2  3  2  0  0  0  0
  2  5  1  0  0  0  0
  3  4  1  0  0  0  0
  3 32  1  0  0  0  0
  4  6  2  0  0  0  0
  4 33  1  0  0  0  0
  5  6  1  0  0  0  0
  6  7  1  0  0  0  0
  7  8  1  0  0  0  0
  7  9  2  0  0  0  0
  8 11  1  0  0  0  0
  9 10  1  0  0  0  0
  9 34  1  0  0  0  0
 10 11  2  0  0  0  0
 11 12  1  0  0  0  0
 12 13  1  0  0  0  0
 12 19  1  0  0  0  0
 12 35  1  1  0  0  0
 13 14  1  0  0  0  0
 13 17  1  0  0  0  0
 13 60  1  1  0  0  0
 14 15  1  0  0  0  0
 14 18  1  0  0  0  0
 14 36  1  6  0  0  0
 15 16  1  0  0  0  0
 15 37  1  0  0  0  0
 15 38  1  0  0  0  0
 16 17  1  0  0  0  0
 16 39  1  0  0  0  0
 16 40  1  0  0  0  0
 17 41  1  0  0  0  0
 17 42  1  0  0  0  0
 18 19  1  0  0  0  0
 18 22  1  0  0  0  0
 18 43  1  6  0  0  0
 19 20  1  0  0  0  0
 19 44  1  1  0  0  0
 20 21  2  0  0  0  0
 20 24  1  0  0  0  0
 22 23  2  0  0  0  0
 22 24  1  0  0  0  0
 24 25  1  0  0  0  0
 25 26  1  0  0  0  0
 25 45  1  0  0  0  0
 25 46  1  0  0  0  0
 26 27  1  0  0  0  0
 26 47  1  0  0  0  0
 26 48  1  0  0  0  0
 27 28  1  0  0  0  0
 27 49  1  0  0  0  0
 27 50  1  0  0  0  0
 28 29  1  0  0  0  0
 28 30  1  0  0  0  0
 28 31  1  0  0  0  0
 29 51  1  0  0  0  0
 29 52  1  0  0  0  0
 29 53  1  0  0  0  0
 30 54  1  0  0  0  0
 30 55  1  0  0  0  0
 30 56  1  0  0  0  0
 31 57  1  0  0  0  0
 31 58  1  0  0  0  0
 31 59  1  0  0  0  0
M  CHG  2  13   1  28   1
M  END
$$$$
