FMC
 OpenBabel04051919093D

 32 34  0  0  1  0  0  0  0  0999 V2000
  -19.3817  -18.7199  -26.3442 N   0  0  0  0  0  0  0  0  0  0  0  0
  -19.2591  -18.0888  -25.1689 C   0  0  0  0  0  0  0  0  0  0  0  0
  -20.0642  -18.2380  -24.0899 N   0  0  0  0  0  0  0  0  0  0  0  0
  -21.0841  -19.1396  -24.2535 C   0  0  0  0  0  0  0  0  0  0  0  0
  -21.2553  -19.8164  -25.4368 C   0  0  0  0  0  0  0  0  0  0  0  0
  -20.3839  -19.6154  -26.5455 C   0  0  0  0  0  0  0  0  0  0  0  0
  -20.4885  -20.2527  -27.7634 N   0  0  0  0  0  0  0  0  0  0  0  0
  -22.3716  -20.6079  -25.2288 N   0  3  0  0  0  0  0  0  0  0  0  0
  -22.8980  -20.4769  -23.9577 N   0  0  0  0  0  0  0  0  0  0  0  0
  -22.0972  -19.5492  -23.3498 C   0  0  0  0  0  0  0  0  0  0  0  0
  -22.3286  -19.0726  -21.8727 C   0  0  1  0  0  0  0  0  0  0  0  0
  -21.3629  -18.0013  -21.2954 C   0  0  2  0  0  0  0  0  0  0  0  0
  -20.3958  -18.5147  -20.3643 O   0  0  0  0  0  0  0  0  0  0  0  0
  -22.2650  -16.9582  -20.6328 C   0  0  2  0  0  0  0  0  0  0  0  0
  -22.4754  -17.2115  -19.2395 O   0  0  0  0  0  0  0  0  0  0  0  0
  -23.5945  -17.1291  -21.3433 C   0  0  2  0  0  0  0  0  0  0  0  0
  -23.6668  -18.5233  -21.6970 O   0  0  0  0  0  0  0  0  0  0  0  0
  -23.7143  -16.2698  -22.5975 C   0  0  0  0  0  0  0  0  0  0  0  0
  -23.6754  -14.8788  -22.2932 O   0  0  0  0  0  0  0  0  0  0  0  0
  -18.4404  -17.3799  -25.0506 H   0  0  0  0  0  0  0  0  0  0  0  0
  -21.2151  -20.9212  -27.9345 H   0  0  0  0  0  0  0  0  0  0  0  0
  -19.8266  -20.0301  -28.4741 H   0  0  0  0  0  0  0  0  0  0  0  0
  -22.8025  -21.2430  -25.9142 H   0  0  0  0  0  0  0  0  0  0  0  0
  -22.2395  -19.9490  -21.2094 H   0  0  0  0  0  0  0  0  0  0  0  0
  -20.8072  -17.5095  -22.0890 H   0  0  0  0  0  0  0  0  0  0  0  0
  -20.8765  -18.9373  -19.6249 H   0  0  0  0  0  0  0  0  0  0  0  0
  -21.8616  -15.9485  -20.7477 H   0  0  0  0  0  0  0  0  0  0  0  0
  -21.6157  -17.1569  -18.7892 H   0  0  0  0  0  0  0  0  0  0  0  0
  -24.4291  -16.8893  -20.6704 H   0  0  0  0  0  0  0  0  0  0  0  0
  -24.6685  -16.4837  -23.1029 H   0  0  0  0  0  0  0  0  0  0  0  0
  -22.9080  -16.5043  -23.2995 H   0  0  0  0  0  0  0  0  0  0  0  0
  -22.8330  -14.6658  -21.8573 H   0  0  0  0  0  0  0  0  0  0  0  0
  1  2  1  0  0  0  0
  1  6  2  0  0  0  0
  2  3  2  0  0  0  0
  2 20  1  0  0  0  0
  3  4  1  0  0  0  0
  4  5  1  0  0  0  0
  4 10  2  0  0  0  0
  5  6  1  0  0  0  0
  5  8  2  0  0  0  0
  6  7  1  0  0  0  0
  7 21  1  0  0  0  0
  7 22  1  0  0  0  0
  8  9  1  0  0  0  0
  8 23  1  0  0  0  0
  9 10  1  0  0  0  0
 10 11  1  0  0  0  0
 11 12  1  0  0  0  0
 11 17  1  0  0  0  0
 11 24  1  1  0  0  0
 12 13  1  0  0  0  0
 12 14  1  0  0  0  0
 12 25  1  6  0  0  0
 13 26  1  0  0  0  0
 14 15  1  0  0  0  0
 14 16  1  0  0  0  0
 14 27  1  6  0  0  0
 15 28  1  0  0  0  0
 16 17  1  0  0  0  0
 16 18  1  0  0  0  0
 16 29  1  1  0  0  0
 18 19  1  0  0  0  0
 18 30  1  0  0  0  0
 18 31  1  0  0  0  0
 19 32  1  0  0  0  0
M  CHG  1   8   1
M  END
$$$$
