FNZ
 OpenBabel04051917293D

 39 41  0  0  1  0  0  0  0  0999 V2000
   53.9600   43.1775   66.3905 C   0  0  2  0  0  0  0  0  0  0  0  0
   53.6342   42.3490   65.1287 C   0  0  1  0  0  0  0  0  0  0  0  0
   54.7194   42.5023   64.0606 C   0  0  0  0  0  0  0  0  0  0  0  0
   54.3002   41.8519   62.7595 C   0  0  0  0  0  0  0  0  0  0  0  0
   53.5734   42.5709   61.8026 C   0  0  0  0  0  0  0  0  0  0  0  0
   53.1425   41.9580   60.6184 C   0  0  0  0  0  0  0  0  0  0  0  0
   53.4479   40.6203   60.3833 C   0  0  0  0  0  0  0  0  0  0  0  0
   54.1808   39.8945   61.3188 C   0  0  0  0  0  0  0  0  0  0  0  0
   54.5975   40.5071   62.5074 C   0  0  0  0  0  0  0  0  0  0  0  0
   55.3199   42.8497   67.0151 C   0  0  0  0  0  0  0  0  0  0  0  0
   55.7297   41.5300   67.2706 C   0  0  0  0  0  0  0  0  0  0  0  0
   56.9954   41.2485   67.7955 C   0  0  0  0  0  0  0  0  0  0  0  0
   57.8783   42.3008   68.0718 C   0  0  0  0  0  0  0  0  0  0  0  0
   57.4770   43.6247   67.8541 C   0  0  0  0  0  0  0  0  0  0  0  0
   56.2059   43.8900   67.3333 C   0  0  0  0  0  0  0  0  0  0  0  0
   59.1868   42.0374   68.5713 C   0  0  0  0  0  0  0  0  0  0  0  0
   50.8730   43.1035   68.0341 C   0  0  0  0  0  0  0  0  0  0  0  0
   52.8139   42.5924   68.6202 C   0  0  0  0  0  0  0  0  0  0  0  0
   53.5121   40.9566   65.4642 O   0  0  0  0  0  0  0  0  0  0  0  0
   53.0365   40.0297   59.2521 F   0  0  0  0  0  0  0  0  0  0  0  0
   60.2671   41.8299   68.9778 N   0  0  0  0  0  0  0  0  0  0  0  0
   52.8423   43.0508   67.3372 N   0  3  0  0  0  0  0  0  0  0  0  0
   51.5862   43.3676   66.9370 N   0  0  0  0  0  0  0  0  0  0  0  0
   51.5893   42.6413   69.0920 N   0  0  0  0  0  0  0  0  0  0  0  0
   53.9885   44.2362   66.0789 H   0  0  0  0  0  0  0  0  0  0  0  0
   52.6778   42.6877   64.7082 H   0  0  0  0  0  0  0  0  0  0  0  0
   55.6519   42.0366   64.4087 H   0  0  0  0  0  0  0  0  0  0  0  0
   54.9112   43.5700   63.8831 H   0  0  0  0  0  0  0  0  0  0  0  0
   53.3442   43.6175   61.9803 H   0  0  0  0  0  0  0  0  0  0  0  0
   52.5719   42.5201   59.8828 H   0  0  0  0  0  0  0  0  0  0  0  0
   54.4272   38.8540   61.1251 H   0  0  0  0  0  0  0  0  0  0  0  0
   55.1566   39.9344   63.2443 H   0  0  0  0  0  0  0  0  0  0  0  0
   55.0501   40.7085   67.0530 H   0  0  0  0  0  0  0  0  0  0  0  0
   57.2899   40.2122   67.9864 H   0  0  0  0  0  0  0  0  0  0  0  0
   58.1512   44.4527   68.0883 H   0  0  0  0  0  0  0  0  0  0  0  0
   55.9011   44.9206   67.1699 H   0  0  0  0  0  0  0  0  0  0  0  0
   49.8025   43.2433   68.0767 H   0  0  0  0  0  0  0  0  0  0  0  0
   53.6677   42.2452   69.1810 H   0  0  0  0  0  0  0  0  0  0  0  0
   52.8166   40.8685   66.1464 H   0  0  0  0  0  0  0  0  0  0  0  0
  1  2  1  0  0  0  0
  1 10  1  0  0  0  0
  1 22  1  0  0  0  0
  1 25  1  6  0  0  0
  2  3  1  0  0  0  0
  2 19  1  0  0  0  0
  2 26  1  6  0  0  0
  3  4  1  0  0  0  0
  3 27  1  0  0  0  0
  3 28  1  0  0  0  0
  4  5  2  0  0  0  0
  4  9  1  0  0  0  0
  5  6  1  0  0  0  0
  5 29  1  0  0  0  0
  6  7  2  0  0  0  0
  6 30  1  0  0  0  0
  7  8  1  0  0  0  0
  7 20  1  0  0  0  0
  8  9  2  0  0  0  0
  8 31  1  0  0  0  0
  9 32  1  0  0  0  0
 10 11  2  0  0  0  0
 10 15  1  0  0  0  0
 11 12  1  0  0  0  0
 11 33  1  0  0  0  0
 12 13  2  0  0  0  0
 12 34  1  0  0  0  0
 13 14  1  0  0  0  0
 13 16  1  0  0  0  0
 14 15  2  0  0  0  0
 14 35  1  0  0  0  0
 15 36  1  0  0  0  0
 16 21  3  0  0  0  0
 17 23  1  0  0  0  0
 17 24  2  0  0  0  0
 17 37  1  0  0  0  0
 18 22  2  0  0  0  0
 18 24  1  0  0  0  0
 18 38  1  0  0  0  0
 19 39  1  0  0  0  0
 22 23  1  0  0  0  0
M  CHG  1  22   1
M  END
$$$$
