FOL
 OpenBabel04051917393D

 49 51  0  0  1  0  0  0  0  0999 V2000
   25.5989   -0.1757    4.2243 N   0  0  0  0  0  0  0  0  0  0  0  0
   26.2814   -0.3170    3.1681 C   0  0  0  0  0  0  0  0  0  0  0  0
   25.6879   -0.7521    2.0254 N   0  0  0  0  0  0  0  0  0  0  0  0
   27.5792   -0.0418    2.9709 N   0  3  0  0  0  0  0  0  0  0  0  0
   28.3470    0.3927    3.9999 C   0  0  0  0  0  0  0  0  0  0  0  0
   29.5707    0.5713    3.8613 O   0  0  0  0  0  0  0  0  0  0  0  0
   27.6644    0.6013    5.2665 C   0  0  0  0  0  0  0  0  0  0  0  0
   28.3623    1.0172    6.3282 N   0  0  0  0  0  0  0  0  0  0  0  0
   27.6359    1.1726    7.4496 C   0  0  0  0  0  0  0  0  0  0  0  0
   26.2673    0.8598    7.4838 C   0  0  0  0  0  0  0  0  0  0  0  0
   25.5788    0.3976    6.4284 N   0  0  0  0  0  0  0  0  0  0  0  0
   26.3128    0.2916    5.3067 C   0  0  0  0  0  0  0  0  0  0  0  0
   28.3123    1.7097    8.6737 C   0  0  0  0  0  0  0  0  0  0  0  0
   29.6904    2.1990    8.4718 N   0  0  0  0  0  0  0  0  0  0  0  0
   30.7845    5.7077    6.2172 C   0  0  0  0  0  0  0  0  0  0  0  0
   31.7457    4.8830    6.8073 C   0  0  0  0  0  0  0  0  0  0  0  0
   31.3861    3.7081    7.5447 C   0  0  0  0  0  0  0  0  0  0  0  0
   30.0463    3.3207    7.7212 C   0  0  0  0  0  0  0  0  0  0  0  0
   29.1014    4.1622    7.1272 C   0  0  0  0  0  0  0  0  0  0  0  0
   29.4499    5.3248    6.3852 C   0  0  0  0  0  0  0  0  0  0  0  0
   31.1760    6.9578    5.4355 C   0  0  0  0  0  0  0  0  0  0  0  0
   32.1420    7.6497    5.7335 O   0  0  0  0  0  0  0  0  0  0  0  0
   30.3727    7.2006    4.3609 N   0  0  0  0  0  0  0  0  0  0  0  0
   30.3798    8.4349    3.5847 C   0  0  1  0  0  0  0  0  0  0  0  0
   30.6630    8.1340    2.1192 C   0  0  0  0  0  0  0  0  0  0  0  0
   32.0771    8.5632    1.8281 C   0  0  0  0  0  0  0  0  0  0  0  0
   32.0208    8.8783    0.3664 C   0  0  0  0  0  0  0  0  0  0  0  0
   31.9578   10.1131    0.1074 O   0  0  0  0  0  0  0  0  0  0  0  0
   32.0686    7.8811   -0.4076 O   0  0  0  0  0  0  0  0  0  0  0  0
   28.9902    9.0985    3.4978 C   0  0  0  0  0  0  0  0  0  0  0  0
   28.0043    8.2946    3.5394 O   0  0  0  0  0  0  0  0  0  0  0  0
   29.0083   10.3576    3.4383 O   0  0  0  0  0  0  0  0  0  0  0  0
   24.6944   -0.9240    2.0592 H   0  0  0  0  0  0  0  0  0  0  0  0
   26.2216   -0.8020    1.1784 H   0  0  0  0  0  0  0  0  0  0  0  0
   28.0441   -0.1756    2.0867 H   0  0  0  0  0  0  0  0  0  0  0  0
   25.6610    0.9656    8.3748 H   0  0  0  0  0  0  0  0  0  0  0  0
   28.3009    0.8841    9.3998 H   0  0  0  0  0  0  0  0  0  0  0  0
   27.6783    2.5097    9.0725 H   0  0  0  0  0  0  0  0  0  0  0  0
   30.4434    1.6141    8.8129 H   0  0  0  0  0  0  0  0  0  0  0  0
   32.7890    5.1570    6.6746 H   0  0  0  0  0  0  0  0  0  0  0  0
   32.1837    3.1041    7.9771 H   0  0  0  0  0  0  0  0  0  0  0  0
   28.0541    3.9055    7.2341 H   0  0  0  0  0  0  0  0  0  0  0  0
   28.6643    5.9425    5.9499 H   0  0  0  0  0  0  0  0  0  0  0  0
   29.6141    6.5939    4.0870 H   0  0  0  0  0  0  0  0  0  0  0  0
   31.0877    9.1486    4.0326 H   0  0  0  0  0  0  0  0  0  0  0  0
   29.9649    8.6481    1.4362 H   0  0  0  0  0  0  0  0  0  0  0  0
   30.5869    7.0616    1.8911 H   0  0  0  0  0  0  0  0  0  0  0  0
   32.8018    7.7735    2.0289 H   0  0  0  0  0  0  0  0  0  0  0  0
   32.3251    9.4949    2.3434 H   0  0  0  0  0  0  0  0  0  0  0  0
  1  2  2  0  0  0  0
  1 12  1  0  0  0  0
  2  3  1  0  0  0  0
  2  4  1  0  0  0  0
  3 33  1  0  0  0  0
  3 34  1  0  0  0  0
  4  5  1  0  0  0  0
  4 35  1  0  0  0  0
  5  6  2  0  0  0  0
  5  7  1  0  0  0  0
  7  8  2  0  0  0  0
  7 12  1  0  0  0  0
  8  9  1  0  0  0  0
  9 10  2  0  0  0  0
  9 13  1  0  0  0  0
 10 11  1  0  0  0  0
 10 36  1  0  0  0  0
 11 12  2  0  0  0  0
 13 14  1  0  0  0  0
 13 37  1  0  0  0  0
 13 38  1  0  0  0  0
 14 18  1  0  0  0  0
 14 39  1  0  0  0  0
 15 16  2  0  0  0  0
 15 20  1  0  0  0  0
 15 21  1  0  0  0  0
 16 17  1  0  0  0  0
 16 40  1  0  0  0  0
 17 18  2  0  0  0  0
 17 41  1  0  0  0  0
 18 19  1  0  0  0  0
 19 20  2  0  0  0  0
 19 42  1  0  0  0  0
 20 43  1  0  0  0  0
 21 22  2  0  0  0  0
 21 23  1  0  0  0  0
 23 24  1  0  0  0  0
 23 44  1  0  0  0  0
 24 25  1  0  0  0  0
 24 30  1  0  0  0  0
 24 45  1  1  0  0  0
 25 26  1  0  0  0  0
 25 46  1  0  0  0  0
 25 47  1  0  0  0  0
 26 27  1  0  0  0  0
 26 48  1  0  0  0  0
 26 49  1  0  0  0  0
 27 28  2  0  0  0  0
 27 29  1  0  0  0  0
 30 31  2  0  0  0  0
 30 32  1  0  0  0  0
M  CHG  1   4   1
M  END
$$$$
