FR6
 OpenBabel04051917413D

 45 47  0  0  1  0  0  0  0  0999 V2000
   51.6036   54.5685   21.0093 C   0  0  0  0  0  0  0  0  0  0  0  0
   51.5154   55.5155   21.9913 N   0  3  0  0  0  0  0  0  0  0  0  0
   51.3415   54.8475   23.1766 C   0  0  0  0  0  0  0  0  0  0  0  0
   51.3154   53.5432   23.0081 N   0  0  0  0  0  0  0  0  0  0  0  0
   51.5168   53.3470   21.6506 C   0  0  0  0  0  0  0  0  0  0  0  0
   51.5880   52.0306   21.0198 C   0  0  0  0  0  0  0  0  0  0  0  0
   51.9769   51.8344   19.8733 O   0  0  0  0  0  0  0  0  0  0  0  0
   51.1484   51.0080   21.8109 N   0  0  0  0  0  0  0  0  0  0  0  0
   51.5485   56.9715   21.8488 C   0  0  1  0  0  0  0  0  0  0  0  0
   52.9929   57.5543   21.7968 C   0  0  1  0  0  0  0  0  0  0  0  0
   53.7859   57.0898   22.8897 O   0  0  0  0  0  0  0  0  0  0  0  0
   50.7000   57.4901   20.6690 C   0  0  0  0  0  0  0  0  0  0  0  0
   49.1818   57.3801   20.8757 C   0  0  0  0  0  0  0  0  0  0  0  0
   48.4703   57.8440   19.6103 C   0  0  0  0  0  0  0  0  0  0  0  0
   48.0471   59.1816   19.5338 C   0  0  0  0  0  0  0  0  0  0  0  0
   47.5422   59.7029   18.3443 C   0  0  0  0  0  0  0  0  0  0  0  0
   47.4708   58.8969   17.2053 C   0  0  0  0  0  0  0  0  0  0  0  0
   47.8494   57.5502   17.2624 C   0  0  0  0  0  0  0  0  0  0  0  0
   48.3360   56.9954   18.4718 C   0  0  0  0  0  0  0  0  0  0  0  0
   47.7525   56.7461   16.1087 C   0  0  0  0  0  0  0  0  0  0  0  0
   48.6664   55.6241   18.4771 C   0  0  0  0  0  0  0  0  0  0  0  0
   48.0922   55.3930   16.1519 C   0  0  0  0  0  0  0  0  0  0  0  0
   48.5401   54.8357   17.3387 C   0  0  0  0  0  0  0  0  0  0  0  0
   53.7640   57.2916   20.5080 C   0  0  0  0  0  0  0  0  0  0  0  0
   51.7187   54.8013   19.9600 H   0  0  0  0  0  0  0  0  0  0  0  0
   51.2364   55.3573   24.1259 H   0  0  0  0  0  0  0  0  0  0  0  0
   51.1479   50.0687   21.4453 H   0  0  0  0  0  0  0  0  0  0  0  0
   50.8216   51.2066   22.7482 H   0  0  0  0  0  0  0  0  0  0  0  0
   51.0985   57.3513   22.7776 H   0  0  0  0  0  0  0  0  0  0  0  0
   52.9219   58.6437   21.9092 H   0  0  0  0  0  0  0  0  0  0  0  0
   53.5237   57.5718   23.6918 H   0  0  0  0  0  0  0  0  0  0  0  0
   50.9881   56.9718   19.7479 H   0  0  0  0  0  0  0  0  0  0  0  0
   50.9409   58.5485   20.4974 H   0  0  0  0  0  0  0  0  0  0  0  0
   48.8757   58.0092   21.7231 H   0  0  0  0  0  0  0  0  0  0  0  0
   48.8737   56.3661   21.1417 H   0  0  0  0  0  0  0  0  0  0  0  0
   48.1264   59.8351   20.3997 H   0  0  0  0  0  0  0  0  0  0  0  0
   47.2239   60.7413   18.2955 H   0  0  0  0  0  0  0  0  0  0  0  0
   47.1026   59.3357   16.2808 H   0  0  0  0  0  0  0  0  0  0  0  0
   47.4014   57.1672   15.1719 H   0  0  0  0  0  0  0  0  0  0  0  0
   49.0193   55.1345   19.3835 H   0  0  0  0  0  0  0  0  0  0  0  0
   48.0021   54.7804   15.2546 H   0  0  0  0  0  0  0  0  0  0  0  0
   48.7922   53.7746   17.3834 H   0  0  0  0  0  0  0  0  0  0  0  0
   54.7804   57.6970   20.5882 H   0  0  0  0  0  0  0  0  0  0  0  0
   53.2843   57.7710   19.6471 H   0  0  0  0  0  0  0  0  0  0  0  0
   53.8714   56.2247   20.3050 H   0  0  0  0  0  0  0  0  0  0  0  0
  1  2  1  0  0  0  0
  1  5  2  0  0  0  0
  1 25  1  0  0  0  0
  2  3  2  0  0  0  0
  2  9  1  0  0  0  0
  3  4  1  0  0  0  0
  3 26  1  0  0  0  0
  4  5  1  0  0  0  0
  5  6  1  0  0  0  0
  6  7  2  0  0  0  0
  6  8  1  0  0  0  0
  8 27  1  0  0  0  0
  8 28  1  0  0  0  0
  9 10  1  0  0  0  0
  9 12  1  0  0  0  0
  9 29  1  1  0  0  0
 10 11  1  0  0  0  0
 10 24  1  0  0  0  0
 10 30  1  1  0  0  0
 11 31  1  0  0  0  0
 12 13  1  0  0  0  0
 12 32  1  0  0  0  0
 12 33  1  0  0  0  0
 13 14  1  0  0  0  0
 13 34  1  0  0  0  0
 13 35  1  0  0  0  0
 14 15  2  0  0  0  0
 14 19  1  0  0  0  0
 15 16  1  0  0  0  0
 15 36  1  0  0  0  0
 16 17  2  0  0  0  0
 16 37  1  0  0  0  0
 17 18  1  0  0  0  0
 17 38  1  0  0  0  0
 18 19  2  0  0  0  0
 18 20  1  0  0  0  0
 19 21  1  0  0  0  0
 20 22  2  0  0  0  0
 20 39  1  0  0  0  0
 21 23  2  0  0  0  0
 21 40  1  0  0  0  0
 22 23  1  0  0  0  0
 22 41  1  0  0  0  0
 23 42  1  0  0  0  0
 24 43  1  0  0  0  0
 24 44  1  0  0  0  0
 24 45  1  0  0  0  0
M  CHG  1   2   1
M  END
$$$$
