FUN
 OpenBabel04051920313D

 31 32  0  0  0  0  0  0  0  0999 V2000
  -13.4684  -16.1975    8.7900 N   0  0  0  0  0  0  0  0  0  0  0  0
  -12.8922  -17.2276    7.6815 S   0  0  0  0  0  0  0  0  0  0  0  0
  -12.5700  -18.4485    8.4093 O   0  0  0  0  0  0  0  0  0  0  0  0
  -13.8496  -17.2989    6.5876 O   0  0  0  0  0  0  0  0  0  0  0  0
  -11.4642  -16.4652    7.1380 C   0  0  0  0  0  0  0  0  0  0  0  0
  -11.4995  -15.3986    6.2520 C   0  0  0  0  0  0  0  0  0  0  0  0
  -12.9545  -14.6554    5.6449 Cl  0  0  0  0  0  0  0  0  0  0  0  0
  -10.3028  -14.8571    5.8163 C   0  0  0  0  0  0  0  0  0  0  0  0
   -9.0596  -15.3545    6.2284 C   0  0  0  0  0  0  0  0  0  0  0  0
   -7.8919  -14.7725    5.7826 N   0  0  0  0  0  0  0  0  0  0  0  0
   -7.8102  -13.6204    4.9043 C   0  0  0  0  0  0  0  0  0  0  0  0
   -7.9315  -13.9808    3.4475 C   0  0  0  0  0  0  0  0  0  0  0  0
   -8.3825  -15.1597    2.8940 C   0  0  0  0  0  0  0  0  0  0  0  0
   -8.3208  -15.0341    1.5059 C   0  0  0  0  0  0  0  0  0  0  0  0
   -7.8358  -13.7813    1.2373 C   0  0  0  0  0  0  0  0  0  0  0  0
   -7.5924  -13.1112    2.4171 O   0  0  0  0  0  0  0  0  0  0  0  0
   -9.0426  -16.4388    7.1273 C   0  0  0  0  0  0  0  0  0  0  0  0
  -10.2472  -16.9824    7.5665 C   0  0  0  0  0  0  0  0  0  0  0  0
   -7.7434  -17.0157    7.6613 C   0  0  0  0  0  0  0  0  0  0  0  0
   -7.8040  -17.8279    8.6435 O   0  0  0  0  0  0  0  0  0  0  0  0
   -6.6604  -16.6317    7.1308 O   0  0  0  0  0  0  0  0  0  0  0  0
  -12.9175  -16.0107    9.6164 H   0  0  0  0  0  0  0  0  0  0  0  0
  -14.3851  -15.8139    8.6353 H   0  0  0  0  0  0  0  0  0  0  0  0
  -10.3372  -14.0200    5.1255 H   0  0  0  0  0  0  0  0  0  0  0  0
   -7.0175  -15.2388    6.0850 H   0  0  0  0  0  0  0  0  0  0  0  0
   -6.8540  -13.1265    5.0948 H   0  0  0  0  0  0  0  0  0  0  0  0
   -8.6208  -12.9290    5.1810 H   0  0  0  0  0  0  0  0  0  0  0  0
   -8.7193  -16.0228    3.4404 H   0  0  0  0  0  0  0  0  0  0  0  0
   -8.6006  -15.7819    0.7870 H   0  0  0  0  0  0  0  0  0  0  0  0
   -7.6537  -13.3367    0.2607 H   0  0  0  0  0  0  0  0  0  0  0  0
  -10.2262  -17.8233    8.2555 H   0  0  0  0  0  0  0  0  0  0  0  0
  1  2  1  0  0  0  0
  1 22  1  0  0  0  0
  1 23  1  0  0  0  0
  2  3  2  0  0  0  0
  2  4  2  0  0  0  0
  2  5  1  0  0  0  0
  5  6  2  0  0  0  0
  5 18  1  0  0  0  0
  6  7  1  0  0  0  0
  6  8  1  0  0  0  0
  8  9  2  0  0  0  0
  8 24  1  0  0  0  0
  9 10  1  0  0  0  0
  9 17  1  0  0  0  0
 10 11  1  0  0  0  0
 10 25  1  0  0  0  0
 11 12  1  0  0  0  0
 11 26  1  0  0  0  0
 11 27  1  0  0  0  0
 12 13  2  0  0  0  0
 12 16  1  0  0  0  0
 13 14  1  0  0  0  0
 13 28  1  0  0  0  0
 14 15  2  0  0  0  0
 14 29  1  0  0  0  0
 15 16  1  0  0  0  0
 15 30  1  0  0  0  0
 17 18  2  0  0  0  0
 17 19  1  0  0  0  0
 18 31  1  0  0  0  0
 19 20  2  0  0  0  0
 19 21  1  0  0  0  0
M  END
$$$$
