FWD
 OpenBabel04051917183D

 23 23  0  0  1  0  0  0  0  0999 V2000
   20.6301   61.8169   28.7592 N   0  3  0  0  0  0  0  0  0  0  0  0
   21.1533   61.5968   27.4750 C   0  0  0  0  0  0  0  0  0  0  0  0
   20.4812   61.5387   26.4525 O   0  0  0  0  0  0  0  0  0  0  0  0
   22.5449   61.4976   27.4232 N   0  3  0  0  0  0  0  0  0  0  0  0
   23.4120   61.5661   28.4825 C   0  0  0  0  0  0  0  0  0  0  0  0
   24.6278   61.5071   28.3384 O   0  0  0  0  0  0  0  0  0  0  0  0
   22.7678   61.7567   29.7977 C   0  0  0  0  0  0  0  0  0  0  0  0
   23.5624   61.8580   30.8801 F   0  0  0  0  0  0  0  0  0  0  0  0
   21.4450   61.8769   29.8769 C   0  0  0  0  0  0  0  0  0  0  0  0
   19.1607   61.9379   28.9197 C   0  0  0  0  0  0  0  0  0  0  0  0
   18.6268   63.2550   28.3508 C   0  0  2  0  0  0  0  0  0  0  0  0
   18.9695   64.3850   29.3179 N   0  3  0  0  0  0  0  0  0  0  0  0
   17.1141   63.1673   28.0452 C   0  0  0  0  0  0  0  0  0  0  0  0
   16.4771   64.1178   28.5907 O   0  0  0  0  0  0  0  0  0  0  0  0
   16.7444   62.2033   27.3363 O   0  0  0  0  0  0  0  0  0  0  0  0
   22.9424   61.3711   26.5100 H   0  0  0  0  0  0  0  0  0  0  0  0
   20.9727   62.0372   30.8396 H   0  0  0  0  0  0  0  0  0  0  0  0
   18.9183   61.8708   29.9917 H   0  0  0  0  0  0  0  0  0  0  0  0
   18.6926   61.0778   28.4309 H   0  0  0  0  0  0  0  0  0  0  0  0
   19.1385   63.5125   27.4231 H   0  0  0  0  0  0  0  0  0  0  0  0
   18.5135   65.2288   28.9358 H   0  0  0  0  0  0  0  0  0  0  0  0
   18.4673   64.2245   30.2003 H   0  0  0  0  0  0  0  0  0  0  0  0
   19.9723   64.5067   29.4396 H   0  0  0  0  0  0  0  0  0  0  0  0
  1  2  1  0  0  0  0
  1  9  1  0  0  0  0
  1 10  1  0  0  0  0
  2  3  2  0  0  0  0
  2  4  1  0  0  0  0
  4  5  1  0  0  0  0
  4 16  1  0  0  0  0
  5  6  2  0  0  0  0
  5  7  1  0  0  0  0
  7  8  1  0  0  0  0
  7  9  2  0  0  0  0
  9 17  1  0  0  0  0
 10 11  1  0  0  0  0
 10 18  1  0  0  0  0
 10 19  1  0  0  0  0
 11 12  1  0  0  0  0
 11 13  1  0  0  0  0
 11 20  1  6  0  0  0
 12 21  1  0  0  0  0
 12 22  1  0  0  0  0
 12 23  1  0  0  0  0
 13 14  2  0  0  0  0
 13 15  1  0  0  0  0
M  CHG  3   1   1   4   1  12   1
M  END
$$$$
