G20
 OpenBabel04051919153D

 47 47  0  0  1  0  0  0  0  0999 V2000
   23.6035   19.8137   65.0136 C   0  0  0  0  0  0  0  0  0  0  0  0
   24.2203   20.8811   65.2761 O   0  0  0  0  0  0  0  0  0  0  0  0
   22.3819   19.5001   65.2109 O   0  0  0  0  0  0  0  0  0  0  0  0
   24.4285   18.7256   64.2155 C   0  0  0  0  0  0  0  0  0  0  0  0
   23.8418   17.5743   63.8288 C   0  0  0  0  0  0  0  0  0  0  0  0
   24.4721   16.6999   62.8097 C   0  0  1  0  0  0  0  0  0  0  0  0
   25.9973   16.8793   62.7855 C   0  0  1  0  0  0  0  0  0  0  0  0
   26.5740   16.1340   61.6487 N   0  0  0  0  0  0  0  0  0  0  0  0
   27.0356   14.8452   61.7950 C   0  0  0  0  0  0  0  0  0  0  0  0
   26.8919   14.1824   62.8154 O   0  0  0  0  0  0  0  0  0  0  0  0
   27.6043   14.2694   60.5303 C   0  0  0  0  0  0  0  0  0  0  0  0
   26.2978   18.3850   62.7677 C   0  0  1  0  0  0  0  0  0  0  0  0
   25.7005   19.0939   63.8431 O   0  0  0  0  0  0  0  0  0  0  0  0
   27.8026   18.5221   62.9485 C   0  0  0  0  0  0  0  0  0  0  0  0
   28.3237   18.3395   64.0521 O   0  0  0  0  0  0  0  0  0  0  0  0
   28.5781   18.7077   61.7977 N   0  0  0  0  0  0  0  0  0  0  0  0
   28.0481   19.1396   60.5133 C   0  0  0  0  0  0  0  0  0  0  0  0
   30.0273   18.6674   61.9791 C   0  0  0  0  0  0  0  0  0  0  0  0
   30.4935   17.2677   62.3901 C   0  0  0  0  0  0  0  0  0  0  0  0
   31.9981   17.1234   62.2950 C   0  0  0  0  0  0  0  0  0  0  0  0
   24.0959   15.2912   63.0264 N   0  0  0  0  0  0  0  0  0  0  0  0
   23.8410   14.4000   62.0634 C   0  0  0  0  0  0  0  0  0  0  0  0
   23.8146   14.6948   60.7590 N   0  0  0  0  0  0  0  0  0  0  0  0
   23.5899   13.1191   62.3941 N   0  0  0  0  0  0  0  0  0  0  0  0
   22.8283   17.3628   64.1673 H   0  0  0  0  0  0  0  0  0  0  0  0
   24.0384   17.0192   61.8553 H   0  0  0  0  0  0  0  0  0  0  0  0
   26.4036   16.4396   63.7071 H   0  0  0  0  0  0  0  0  0  0  0  0
   26.7215   16.6070   60.7687 H   0  0  0  0  0  0  0  0  0  0  0  0
   28.0109   13.2766   60.7362 H   0  0  0  0  0  0  0  0  0  0  0  0
   28.4013   14.9081   60.1406 H   0  0  0  0  0  0  0  0  0  0  0  0
   26.8034   14.1803   59.7909 H   0  0  0  0  0  0  0  0  0  0  0  0
   25.9505   18.8466   61.8409 H   0  0  0  0  0  0  0  0  0  0  0  0
   28.8491   19.3729   59.8078 H   0  0  0  0  0  0  0  0  0  0  0  0
   27.4125   20.0188   60.6467 H   0  0  0  0  0  0  0  0  0  0  0  0
   27.4486   18.3353   60.0843 H   0  0  0  0  0  0  0  0  0  0  0  0
   30.3004   19.4033   62.7441 H   0  0  0  0  0  0  0  0  0  0  0  0
   30.5154   18.9660   61.0455 H   0  0  0  0  0  0  0  0  0  0  0  0
   30.0100   16.5089   61.7627 H   0  0  0  0  0  0  0  0  0  0  0  0
   30.1989   17.0462   63.4222 H   0  0  0  0  0  0  0  0  0  0  0  0
   32.2967   16.1226   62.6230 H   0  0  0  0  0  0  0  0  0  0  0  0
   32.5001   17.8569   62.9339 H   0  0  0  0  0  0  0  0  0  0  0  0
   32.3369   17.2634   61.2652 H   0  0  0  0  0  0  0  0  0  0  0  0
   24.1819   14.9569   63.9778 H   0  0  0  0  0  0  0  0  0  0  0  0
   23.5736   14.0016   60.0647 H   0  0  0  0  0  0  0  0  0  0  0  0
   24.0016   15.6361   60.4362 H   0  0  0  0  0  0  0  0  0  0  0  0
   23.4078   12.4066   61.6923 H   0  0  0  0  0  0  0  0  0  0  0  0
   23.6438   12.8265   63.3610 H   0  0  0  0  0  0  0  0  0  0  0  0
  1  4  1  0  0  0  0
  1  3  2  0  0  0  0
  1  2  1  0  0  0  0
  4 13  1  0  0  0  0
  4  5  2  0  0  0  0
  5  6  1  0  0  0  0
  5 25  1  0  0  0  0
  6 21  1  0  0  0  0
  6  7  1  0  0  0  0
  6 26  1  6  0  0  0
  7 12  1  0  0  0  0
  7  8  1  0  0  0  0
  7 27  1  1  0  0  0
  8  9  1  0  0  0  0
  8 28  1  0  0  0  0
  9 11  1  0  0  0  0
  9 10  2  0  0  0  0
 11 29  1  0  0  0  0
 11 30  1  0  0  0  0
 11 31  1  0  0  0  0
 12 14  1  0  0  0  0
 12 13  1  0  0  0  0
 12 32  1  6  0  0  0
 14 16  1  0  0  0  0
 14 15  2  0  0  0  0
 16 18  1  0  0  0  0
 16 17  1  0  0  0  0
 17 33  1  0  0  0  0
 17 34  1  0  0  0  0
 17 35  1  0  0  0  0
 18 19  1  0  0  0  0
 18 36  1  0  0  0  0
 18 37  1  0  0  0  0
 19 20  1  0  0  0  0
 19 38  1  0  0  0  0
 19 39  1  0  0  0  0
 20 40  1  0  0  0  0
 20 41  1  0  0  0  0
 20 42  1  0  0  0  0
 21 22  1  0  0  0  0
 21 43  1  0  0  0  0
 22 24  2  0  0  0  0
 22 23  1  0  0  0  0
 23 44  1  0  0  0  0
 23 45  1  0  0  0  0
 24 46  1  0  0  0  0
 24 47  1  0  0  0  0
M  END
$$$$
