G3G
 OpenBabel04051919173D

 75 79  0  0  1  0  0  0  0  0999 V2000
  -14.3403  -23.7351   21.5747 C   0  0  0  0  0  0  0  0  0  0  0  0
  -15.3625  -24.2045   20.7428 C   0  0  0  0  0  0  0  0  0  0  0  0
  -15.1898  -24.1362   19.3571 C   0  0  0  0  0  0  0  0  0  0  0  0
  -14.0043  -23.6441   18.8087 C   0  0  0  0  0  0  0  0  0  0  0  0
  -12.9953  -23.1817   19.6529 C   0  0  0  0  0  0  0  0  0  0  0  0
  -13.1445  -23.2514   21.0391 C   0  0  0  0  0  0  0  0  0  0  0  0
  -11.4998  -22.5262   18.9579 S   0  0  0  0  0  0  0  0  0  0  0  0
  -10.4050  -22.9304   19.8077 O   0  0  0  0  0  0  0  0  0  0  0  0
  -11.5209  -22.8120   17.5423 O   0  0  0  0  0  0  0  0  0  0  0  0
  -11.7347  -20.8418   19.1395 N   0  0  0  0  0  0  0  0  0  0  0  0
  -11.3052  -20.2301   20.4148 C   0  0  0  0  0  0  0  0  0  0  0  0
  -10.0370  -19.4147   20.3047 C   0  0  0  0  0  0  0  0  0  0  0  0
   -9.7850  -18.3825   21.2219 C   0  0  0  0  0  0  0  0  0  0  0  0
   -8.6062  -17.6363   21.1452 C   0  0  0  0  0  0  0  0  0  0  0  0
   -7.6600  -17.9204   20.1634 C   0  0  0  0  0  0  0  0  0  0  0  0
   -7.8787  -18.9654   19.2736 C   0  0  0  0  0  0  0  0  0  0  0  0
   -9.0518  -19.7147   19.3508 C   0  0  0  0  0  0  0  0  0  0  0  0
  -12.6594  -20.1562   18.1827 C   0  0  1  0  0  0  0  0  0  0  0  0
  -13.9492  -19.6040   18.8167 C   0  0  0  0  0  0  0  0  0  0  0  0
  -13.9216  -18.1109   18.6078 N   0  3  0  0  0  0  0  0  0  0  0  0
  -12.5242  -17.7417   18.2083 C   0  0  0  0  0  0  0  0  0  0  0  0
  -11.9921  -18.9638   17.4642 C   0  0  2  0  0  0  0  0  0  0  0  0
  -12.2232  -18.8877   15.9813 N   0  0  0  0  0  0  0  0  0  0  0  0
  -13.5564  -18.7762   15.3501 C   0  0  0  0  0  0  0  0  0  0  0  0
  -14.4395  -20.0058   15.3706 C   0  0  0  0  0  0  0  0  0  0  0  0
  -15.8366  -19.8662   15.4689 C   0  0  0  0  0  0  0  0  0  0  0  0
  -16.6753  -20.9861   15.4466 C   0  0  0  0  0  0  0  0  0  0  0  0
  -16.1373  -22.2637   15.3192 C   0  0  0  0  0  0  0  0  0  0  0  0
  -14.7611  -22.4187   15.1908 C   0  0  0  0  0  0  0  0  0  0  0  0
  -13.9237  -21.3000   15.1952 C   0  0  0  0  0  0  0  0  0  0  0  0
  -10.9103  -19.2947   14.9586 S   0  0  0  0  0  0  0  0  0  0  0  0
   -9.7942  -17.9080   15.1248 C   0  0  0  0  0  0  0  0  0  0  0  0
  -10.0715  -16.6772   14.5238 C   0  0  0  0  0  0  0  0  0  0  0  0
   -9.1239  -15.6396   14.6096 C   0  0  0  0  0  0  0  0  0  0  0  0
   -7.8886  -15.8373   15.2423 C   0  0  0  0  0  0  0  0  0  0  0  0
   -7.6411  -17.0684   15.8501 C   0  0  0  0  0  0  0  0  0  0  0  0
   -8.5752  -18.1051   15.7790 C   0  0  0  0  0  0  0  0  0  0  0  0
  -11.3687  -19.3059   13.5971 O   0  0  0  0  0  0  0  0  0  0  0  0
  -10.2775  -20.4414   15.5723 O   0  0  0  0  0  0  0  0  0  0  0  0
   -7.0159  -14.7689   15.4726 N   0  0  0  0  0  0  0  0  0  0  0  0
  -16.6205  -24.5004   21.2766 N   0  0  0  0  0  0  0  0  0  0  0  0
  -14.4649  -23.7587   22.6555 H   0  0  0  0  0  0  0  0  0  0  0  0
  -15.9781  -24.4789   18.6902 H   0  0  0  0  0  0  0  0  0  0  0  0
  -13.8805  -23.6330   17.7288 H   0  0  0  0  0  0  0  0  0  0  0  0
  -12.3465  -22.9410   21.7080 H   0  0  0  0  0  0  0  0  0  0  0  0
  -11.1466  -20.9882   21.1881 H   0  0  0  0  0  0  0  0  0  0  0  0
  -12.1055  -19.5898   20.7997 H   0  0  0  0  0  0  0  0  0  0  0  0
  -10.4858  -18.1629   22.0248 H   0  0  0  0  0  0  0  0  0  0  0  0
   -8.4085  -16.8464   21.8666 H   0  0  0  0  0  0  0  0  0  0  0  0
   -6.7372  -17.3472   20.1094 H   0  0  0  0  0  0  0  0  0  0  0  0
   -7.1271  -19.2138   18.5277 H   0  0  0  0  0  0  0  0  0  0  0  0
   -9.1785  -20.5422   18.6531 H   0  0  0  0  0  0  0  0  0  0  0  0
  -12.9593  -20.9047   17.4569 H   0  0  0  0  0  0  0  0  0  0  0  0
  -14.0438  -19.7803   19.8906 H   0  0  0  0  0  0  0  0  0  0  0  0
  -14.8530  -19.9693   18.3217 H   0  0  0  0  0  0  0  0  0  0  0  0
  -14.5804  -17.8578   17.8599 H   0  0  0  0  0  0  0  0  0  0  0  0
  -11.9839  -17.5596   19.1413 H   0  0  0  0  0  0  0  0  0  0  0  0
  -12.5608  -16.8248   17.6144 H   0  0  0  0  0  0  0  0  0  0  0  0
  -10.9117  -18.9815   17.6102 H   0  0  0  0  0  0  0  0  0  0  0  0
  -13.4695  -18.4388   14.3117 H   0  0  0  0  0  0  0  0  0  0  0  0
  -14.0824  -17.9516   15.8434 H   0  0  0  0  0  0  0  0  0  0  0  0
  -16.2999  -18.8832   15.5245 H   0  0  0  0  0  0  0  0  0  0  0  0
  -17.7565  -20.8663   15.4956 H   0  0  0  0  0  0  0  0  0  0  0  0
  -16.7875  -23.1347   15.2826 H   0  0  0  0  0  0  0  0  0  0  0  0
  -14.3323  -23.4122   15.0668 H   0  0  0  0  0  0  0  0  0  0  0  0
  -12.8555  -21.4724   15.0674 H   0  0  0  0  0  0  0  0  0  0  0  0
  -10.9885  -16.5179   13.9639 H   0  0  0  0  0  0  0  0  0  0  0  0
   -9.3413  -14.6775   14.1478 H   0  0  0  0  0  0  0  0  0  0  0  0
   -6.7015  -17.2435   16.3694 H   0  0  0  0  0  0  0  0  0  0  0  0
   -8.3310  -19.0654   16.2245 H   0  0  0  0  0  0  0  0  0  0  0  0
   -7.0585  -14.0163   14.7921 H   0  0  0  0  0  0  0  0  0  0  0  0
   -6.0554  -15.0445   15.6641 H   0  0  0  0  0  0  0  0  0  0  0  0
  -16.6026  -24.8215   22.2411 H   0  0  0  0  0  0  0  0  0  0  0  0
  -17.1892  -25.1102   20.6946 H   0  0  0  0  0  0  0  0  0  0  0  0
  -14.2315  -17.5932   19.4422 H   0  0  0  0  0  0  0  0  0  0  0  0
  1  2  2  0  0  0  0
  1  6  1  0  0  0  0
  1 42  1  0  0  0  0
  2  3  1  0  0  0  0
  2 41  1  0  0  0  0
  3  4  2  0  0  0  0
  3 43  1  0  0  0  0
  4  5  1  0  0  0  0
  4 44  1  0  0  0  0
  5  6  2  0  0  0  0
  5  7  1  0  0  0  0
  6 45  1  0  0  0  0
  7  8  2  0  0  0  0
  7  9  2  0  0  0  0
  7 10  1  0  0  0  0
 10 11  1  0  0  0  0
 10 18  1  0  0  0  0
 11 12  1  0  0  0  0
 11 46  1  0  0  0  0
 11 47  1  0  0  0  0
 12 13  2  0  0  0  0
 12 17  1  0  0  0  0
 13 14  1  0  0  0  0
 13 48  1  0  0  0  0
 14 15  2  0  0  0  0
 14 49  1  0  0  0  0
 15 16  1  0  0  0  0
 15 50  1  0  0  0  0
 16 17  2  0  0  0  0
 16 51  1  0  0  0  0
 17 52  1  0  0  0  0
 18 19  1  0  0  0  0
 18 22  1  0  0  0  0
 18 53  1  6  0  0  0
 19 20  1  0  0  0  0
 19 54  1  0  0  0  0
 19 55  1  0  0  0  0
 20 21  1  0  0  0  0
 20 56  1  0  0  0  0
 20 75  1  0  0  0  0
 21 22  1  0  0  0  0
 21 57  1  0  0  0  0
 21 58  1  0  0  0  0
 22 23  1  0  0  0  0
 22 59  1  1  0  0  0
 23 24  1  0  0  0  0
 23 31  1  0  0  0  0
 24 25  1  0  0  0  0
 24 60  1  0  0  0  0
 24 61  1  0  0  0  0
 25 26  2  0  0  0  0
 25 30  1  0  0  0  0
 26 27  1  0  0  0  0
 26 62  1  0  0  0  0
 27 28  2  0  0  0  0
 27 63  1  0  0  0  0
 28 29  1  0  0  0  0
 28 64  1  0  0  0  0
 29 30  2  0  0  0  0
 29 65  1  0  0  0  0
 30 66  1  0  0  0  0
 31 32  1  0  0  0  0
 31 38  2  0  0  0  0
 31 39  2  0  0  0  0
 32 33  2  0  0  0  0
 32 37  1  0  0  0  0
 33 34  1  0  0  0  0
 33 67  1  0  0  0  0
 34 35  2  0  0  0  0
 34 68  1  0  0  0  0
 35 36  1  0  0  0  0
 35 40  1  0  0  0  0
 36 37  2  0  0  0  0
 36 69  1  0  0  0  0
 37 70  1  0  0  0  0
 40 71  1  0  0  0  0
 40 72  1  0  0  0  0
 41 73  1  0  0  0  0
 41 74  1  0  0  0  0
M  CHG  1  20   1
M  END
$$$$
