G3G
 OpenBabel04051918533D

 75 79  0  0  1  0  0  0  0  0999 V2000
  -14.4022   23.8360   -1.7382 C   0  0  0  0  0  0  0  0  0  0  0  0
  -13.3246   24.2424   -2.5296 C   0  0  0  0  0  0  0  0  0  0  0  0
  -13.4270   24.1409   -3.9192 C   0  0  0  0  0  0  0  0  0  0  0  0
  -14.5803   23.6356   -4.5166 C   0  0  0  0  0  0  0  0  0  0  0  0
  -15.6554   23.2453   -3.7123 C   0  0  0  0  0  0  0  0  0  0  0  0
  -15.5842   23.3712   -2.3228 C   0  0  0  0  0  0  0  0  0  0  0  0
  -17.1329   22.6385   -4.4834 S   0  0  0  0  0  0  0  0  0  0  0  0
  -18.2551   23.0748   -3.6649 O   0  0  0  0  0  0  0  0  0  0  0  0
  -17.0345   22.9359   -5.8951 O   0  0  0  0  0  0  0  0  0  0  0  0
  -16.9677   20.9475   -4.2930 N   0  0  0  0  0  0  0  0  0  0  0  0
  -17.4139   20.3752   -3.0053 C   0  0  0  0  0  0  0  0  0  0  0  0
  -18.6673   19.5325   -3.1033 C   0  0  0  0  0  0  0  0  0  0  0  0
  -18.8309   18.4177   -2.2646 C   0  0  0  0  0  0  0  0  0  0  0  0
  -20.0107   17.6658   -2.2946 C   0  0  0  0  0  0  0  0  0  0  0  0
  -21.0272   18.0021   -3.1815 C   0  0  0  0  0  0  0  0  0  0  0  0
  -20.8769   19.0998   -4.0252 C   0  0  0  0  0  0  0  0  0  0  0  0
  -19.7189   19.8793   -3.9658 C   0  0  0  0  0  0  0  0  0  0  0  0
  -16.0733   20.2219   -5.2576 C   0  0  1  0  0  0  0  0  0  0  0  0
  -14.6934   19.8405   -4.7011 C   0  0  0  0  0  0  0  0  0  0  0  0
  -14.6334   18.3329   -4.6667 N   0  3  0  0  0  0  0  0  0  0  0  0
  -15.9742   17.7913   -5.0676 C   0  0  0  0  0  0  0  0  0  0  0  0
  -16.6888   18.9196   -5.8106 C   0  0  2  0  0  0  0  0  0  0  0  0
  -16.5596   18.7584   -7.2942 N   0  0  0  0  0  0  0  0  0  0  0  0
  -15.2549   18.5851   -7.9713 C   0  0  0  0  0  0  0  0  0  0  0  0
  -14.4043   19.8319   -8.1100 C   0  0  0  0  0  0  0  0  0  0  0  0
  -13.0265   19.8045   -7.8418 C   0  0  0  0  0  0  0  0  0  0  0  0
  -12.2431   20.9498   -7.9817 C   0  0  0  0  0  0  0  0  0  0  0  0
  -12.8266   22.1564   -8.3820 C   0  0  0  0  0  0  0  0  0  0  0  0
  -14.1804   22.1942   -8.6790 C   0  0  0  0  0  0  0  0  0  0  0  0
  -14.9575   21.0426   -8.5590 C   0  0  0  0  0  0  0  0  0  0  0  0
  -17.9029   19.1524   -8.2730 S   0  0  0  0  0  0  0  0  0  0  0  0
  -19.0024   17.7577   -8.1393 C   0  0  0  0  0  0  0  0  0  0  0  0
  -18.7722   16.5481   -8.8073 C   0  0  0  0  0  0  0  0  0  0  0  0
  -19.7380   15.5301   -8.7527 C   0  0  0  0  0  0  0  0  0  0  0  0
  -20.9504   15.7173   -8.0735 C   0  0  0  0  0  0  0  0  0  0  0  0
  -21.1704   16.9376   -7.4342 C   0  0  0  0  0  0  0  0  0  0  0  0
  -20.2129   17.9503   -7.4666 C   0  0  0  0  0  0  0  0  0  0  0  0
  -17.4553   19.1948   -9.6502 O   0  0  0  0  0  0  0  0  0  0  0  0
  -18.5346   20.2813   -7.6370 O   0  0  0  0  0  0  0  0  0  0  0  0
  -21.8836   14.7042   -7.9508 N   0  0  0  0  0  0  0  0  0  0  0  0
  -12.1241   24.6131   -1.9467 N   0  0  0  0  0  0  0  0  0  0  0  0
  -14.3385   23.9080   -0.6545 H   0  0  0  0  0  0  0  0  0  0  0  0
  -12.6100   24.4828   -4.5510 H   0  0  0  0  0  0  0  0  0  0  0  0
  -14.6393   23.5725   -5.6026 H   0  0  0  0  0  0  0  0  0  0  0  0
  -16.4344   23.1263   -1.6904 H   0  0  0  0  0  0  0  0  0  0  0  0
  -17.6134   21.1631   -2.2707 H   0  0  0  0  0  0  0  0  0  0  0  0
  -16.6044   19.7773   -2.5728 H   0  0  0  0  0  0  0  0  0  0  0  0
  -18.0548   18.1296   -1.5618 H   0  0  0  0  0  0  0  0  0  0  0  0
  -20.1436   16.8237   -1.6167 H   0  0  0  0  0  0  0  0  0  0  0  0
  -21.9465   17.4195   -3.2085 H   0  0  0  0  0  0  0  0  0  0  0  0
  -21.6678   19.3574   -4.7260 H   0  0  0  0  0  0  0  0  0  0  0  0
  -19.6495   20.7565   -4.6107 H   0  0  0  0  0  0  0  0  0  0  0  0
  -15.8988   20.9077   -6.0845 H   0  0  0  0  0  0  0  0  0  0  0  0
  -14.4818   20.2001   -3.6938 H   0  0  0  0  0  0  0  0  0  0  0  0
  -13.8780   20.1567   -5.3544 H   0  0  0  0  0  0  0  0  0  0  0  0
  -13.9025   17.9911   -5.3064 H   0  0  0  0  0  0  0  0  0  0  0  0
  -16.4790   17.4955   -4.1462 H   0  0  0  0  0  0  0  0  0  0  0  0
  -15.8072   16.9018   -5.6877 H   0  0  0  0  0  0  0  0  0  0  0  0
  -17.7517   18.8537   -5.5696 H   0  0  0  0  0  0  0  0  0  0  0  0
  -15.3966   18.1275   -8.9536 H   0  0  0  0  0  0  0  0  0  0  0  0
  -14.6843   17.8294   -7.4177 H   0  0  0  0  0  0  0  0  0  0  0  0
  -12.5292   18.8909   -7.5242 H   0  0  0  0  0  0  0  0  0  0  0  0
  -11.1739   20.9317   -7.7832 H   0  0  0  0  0  0  0  0  0  0  0  0
  -12.2047   23.0460   -8.5078 H   0  0  0  0  0  0  0  0  0  0  0  0
  -14.6455   23.1130   -9.0282 H   0  0  0  0  0  0  0  0  0  0  0  0
  -16.0049   21.1279   -8.8174 H   0  0  0  0  0  0  0  0  0  0  0  0
  -17.8672   16.3898   -9.3929 H   0  0  0  0  0  0  0  0  0  0  0  0
  -19.5605   14.5872   -9.2701 H   0  0  0  0  0  0  0  0  0  0  0  0
  -22.1085   17.1219   -6.9163 H   0  0  0  0  0  0  0  0  0  0  0  0
  -20.4295   18.8989   -6.9874 H   0  0  0  0  0  0  0  0  0  0  0  0
  -21.7846   13.8299   -8.4502 H   0  0  0  0  0  0  0  0  0  0  0  0
  -22.7822   14.8903   -7.5199 H   0  0  0  0  0  0  0  0  0  0  0  0
  -12.0697   24.7706   -0.9470 H   0  0  0  0  0  0  0  0  0  0  0  0
  -11.4033   25.0475   -2.5126 H   0  0  0  0  0  0  0  0  0  0  0  0
  -14.3642   17.9966   -3.7339 H   0  0  0  0  0  0  0  0  0  0  0  0
  1  2  2  0  0  0  0
  1  6  1  0  0  0  0
  1 42  1  0  0  0  0
  2  3  1  0  0  0  0
  2 41  1  0  0  0  0
  3  4  2  0  0  0  0
  3 43  1  0  0  0  0
  4  5  1  0  0  0  0
  4 44  1  0  0  0  0
  5  6  2  0  0  0  0
  5  7  1  0  0  0  0
  6 45  1  0  0  0  0
  7  8  2  0  0  0  0
  7  9  2  0  0  0  0
  7 10  1  0  0  0  0
 10 11  1  0  0  0  0
 10 18  1  0  0  0  0
 11 12  1  0  0  0  0
 11 46  1  0  0  0  0
 11 47  1  0  0  0  0
 12 13  2  0  0  0  0
 12 17  1  0  0  0  0
 13 14  1  0  0  0  0
 13 48  1  0  0  0  0
 14 15  2  0  0  0  0
 14 49  1  0  0  0  0
 15 16  1  0  0  0  0
 15 50  1  0  0  0  0
 16 17  2  0  0  0  0
 16 51  1  0  0  0  0
 17 52  1  0  0  0  0
 18 19  1  0  0  0  0
 18 22  1  0  0  0  0
 18 53  1  6  0  0  0
 19 20  1  0  0  0  0
 19 54  1  0  0  0  0
 19 55  1  0  0  0  0
 20 21  1  0  0  0  0
 20 56  1  0  0  0  0
 20 75  1  0  0  0  0
 21 22  1  0  0  0  0
 21 57  1  0  0  0  0
 21 58  1  0  0  0  0
 22 23  1  0  0  0  0
 22 59  1  1  0  0  0
 23 24  1  0  0  0  0
 23 31  1  0  0  0  0
 24 25  1  0  0  0  0
 24 60  1  0  0  0  0
 24 61  1  0  0  0  0
 25 26  2  0  0  0  0
 25 30  1  0  0  0  0
 26 27  1  0  0  0  0
 26 62  1  0  0  0  0
 27 28  2  0  0  0  0
 27 63  1  0  0  0  0
 28 29  1  0  0  0  0
 28 64  1  0  0  0  0
 29 30  2  0  0  0  0
 29 65  1  0  0  0  0
 30 66  1  0  0  0  0
 31 32  1  0  0  0  0
 31 38  2  0  0  0  0
 31 39  2  0  0  0  0
 32 33  2  0  0  0  0
 32 37  1  0  0  0  0
 33 34  1  0  0  0  0
 33 67  1  0  0  0  0
 34 35  2  0  0  0  0
 34 68  1  0  0  0  0
 35 36  1  0  0  0  0
 35 40  1  0  0  0  0
 36 37  2  0  0  0  0
 36 69  1  0  0  0  0
 37 70  1  0  0  0  0
 40 71  1  0  0  0  0
 40 72  1  0  0  0  0
 41 73  1  0  0  0  0
 41 74  1  0  0  0  0
M  CHG  1  20   1
M  END
$$$$
