G3H
 OpenBabel04051917383D

 15 14  0  0  1  0  0  0  0  0999 V2000
   47.0443   27.2991   15.2762 O   0  0  0  0  0  0  0  0  0  0  0  0
   47.8585   28.1176   14.8587 C   0  0  0  0  0  0  0  0  0  0  0  0
   48.4069   28.1623   13.4273 C   0  0  2  0  0  0  0  0  0  0  0  0
   49.3345   29.2503   13.4120 O   0  0  0  0  0  0  0  0  0  0  0  0
   47.2588   28.3055   12.4376 C   0  0  0  0  0  0  0  0  0  0  0  0
   47.7002   28.0324   11.1175 O   0  0  0  0  0  0  0  0  0  0  0  0
   46.7177   30.1226   10.2048 O   0  0  0  0  0  0  0  0  0  0  0  0
   48.3784   28.7321    8.8369 O   0  0  0  0  0  0  0  0  0  0  0  0
   49.1660   29.9847   10.9442 O   0  0  0  0  0  0  0  0  0  0  0  0
   48.0146   29.3356   10.1807 P   0  0  0  0  0  0  0  0  0  0  0  0
   48.2865   28.8682   15.5382 H   0  0  0  0  0  0  0  0  0  0  0  0
   48.9907   27.2559   13.2501 H   0  0  0  0  0  0  0  0  0  0  0  0
   49.3881   29.5393   12.4465 H   0  0  0  0  0  0  0  0  0  0  0  0
   46.7968   29.2987   12.5105 H   0  0  0  0  0  0  0  0  0  0  0  0
   46.4761   27.5662   12.6450 H   0  0  0  0  0  0  0  0  0  0  0  0
  1  2  2  0  0  0  0
  2  3  1  0  0  0  0
  2 11  1  0  0  0  0
  3  4  1  0  0  0  0
  3  5  1  0  0  0  0
  3 12  1  6  0  0  0
  4 13  1  0  0  0  0
  5  6  1  0  0  0  0
  5 14  1  0  0  0  0
  5 15  1  0  0  0  0
  6 10  1  0  0  0  0
  7 10  2  0  0  0  0
  8 10  1  0  0  0  0
  9 10  1  0  0  0  0
M  END
$$$$
