G4G
 OpenBabel04051919173D

 79 83  0  0  1  0  0  0  0  0999 V2000
    9.0968  -15.6814  -14.4951 C   0  0  0  0  0  0  0  0  0  0  0  0
   17.0884  -24.4566  -22.0318 O   0  0  0  0  0  0  0  0  0  0  0  0
    5.6011  -14.9480  -15.4155 N   0  0  0  0  0  0  0  0  0  0  0  0
   14.4938  -23.7413  -21.2477 C   0  0  0  0  0  0  0  0  0  0  0  0
    7.2973  -13.5597  -14.8788 O   0  0  0  0  0  0  0  0  0  0  0  0
   17.4791  -25.5927  -20.1195 N   0  0  0  0  0  0  0  0  0  0  0  0
    7.5507  -17.0711  -15.7405 C   0  0  0  0  0  0  0  0  0  0  0  0
    7.8541  -15.8485  -15.1273 C   0  0  0  0  0  0  0  0  0  0  0  0
   15.1643  -24.2608  -18.9754 C   0  0  0  0  0  0  0  0  0  0  0  0
   15.4400  -24.2632  -20.3504 C   0  0  0  0  0  0  0  0  0  0  0  0
   13.4565  -18.7464  -15.2539 C   0  0  0  0  0  0  0  0  0  0  0  0
   16.7226  -24.7734  -20.9077 C   0  0  0  0  0  0  0  0  0  0  0  0
   10.8136  -19.3317  -14.9393 S   0  0  0  0  0  0  0  0  0  0  0  0
    6.9104  -14.6952  -15.1316 C   0  0  0  0  0  0  0  0  0  0  0  0
   11.4918  -22.5643  -18.8081 S   0  0  0  0  0  0  0  0  0  0  0  0
   10.1851  -20.4518  -15.5986 O   0  0  0  0  0  0  0  0  0  0  0  0
   11.4401  -22.8107  -17.3902 O   0  0  0  0  0  0  0  0  0  0  0  0
   14.3375  -19.9809  -15.2192 C   0  0  0  0  0  0  0  0  0  0  0  0
   13.8256  -21.2312  -14.8381 C   0  0  0  0  0  0  0  0  0  0  0  0
   15.7104  -19.8985  -15.5182 C   0  0  0  0  0  0  0  0  0  0  0  0
   10.0281  -16.7260  -14.4659 C   0  0  0  0  0  0  0  0  0  0  0  0
   13.2787  -23.2350  -20.7836 C   0  0  0  0  0  0  0  0  0  0  0  0
    8.4707  -18.1220  -15.6974 C   0  0  0  0  0  0  0  0  0  0  0  0
   13.9532  -23.7470  -18.5053 C   0  0  0  0  0  0  0  0  0  0  0  0
   12.5334  -17.7649  -18.1154 C   0  0  0  0  0  0  0  0  0  0  0  0
   13.8981  -18.1837  -18.5761 N   0  3  0  0  0  0  0  0  0  0  0  0
   11.9574  -18.9786  -17.3957 C   0  0  1  0  0  0  0  0  0  0  0  0
   12.6303  -20.1959  -18.0502 C   0  0  2  0  0  0  0  0  0  0  0  0
   13.9448  -19.6816  -18.6501 C   0  0  0  0  0  0  0  0  0  0  0  0
    9.7090  -17.9429  -15.0732 C   0  0  0  0  0  0  0  0  0  0  0  0
   13.0232  -23.2293  -19.4112 C   0  0  0  0  0  0  0  0  0  0  0  0
   12.1396  -18.8968  -15.9152 N   0  0  0  0  0  0  0  0  0  0  0  0
   14.6399  -22.3665  -14.8045 C   0  0  0  0  0  0  0  0  0  0  0  0
   16.5314  -21.0329  -15.4630 C   0  0  0  0  0  0  0  0  0  0  0  0
   15.9936  -22.2677  -15.1094 C   0  0  0  0  0  0  0  0  0  0  0  0
   11.7454  -20.8943  -19.0298 N   0  0  0  0  0  0  0  0  0  0  0  0
   11.2838  -20.2851  -20.2967 C   0  0  0  0  0  0  0  0  0  0  0  0
   10.0204  -19.4692  -20.1507 C   0  0  0  0  0  0  0  0  0  0  0  0
    9.0310  -19.8219  -19.2231 C   0  0  0  0  0  0  0  0  0  0  0  0
    7.8695  -19.0634  -19.1013 C   0  0  0  0  0  0  0  0  0  0  0  0
    7.6729  -17.9469  -19.9123 C   0  0  0  0  0  0  0  0  0  0  0  0
    9.7934  -18.3672  -20.9938 C   0  0  0  0  0  0  0  0  0  0  0  0
    8.6337  -17.5974  -20.8632 C   0  0  0  0  0  0  0  0  0  0  0  0
   10.4412  -22.9960  -19.7096 O   0  0  0  0  0  0  0  0  0  0  0  0
   11.2420  -19.3878  -13.5628 O   0  0  0  0  0  0  0  0  0  0  0  0
    9.3272  -14.7335  -14.0081 H   0  0  0  0  0  0  0  0  0  0  0  0
    5.2108  -15.8670  -15.5554 H   0  0  0  0  0  0  0  0  0  0  0  0
    4.9508  -14.1715  -15.3515 H   0  0  0  0  0  0  0  0  0  0  0  0
   14.7007  -23.7470  -22.3179 H   0  0  0  0  0  0  0  0  0  0  0  0
   17.1936  -25.9463  -19.2195 H   0  0  0  0  0  0  0  0  0  0  0  0
   18.3327  -25.9680  -20.5162 H   0  0  0  0  0  0  0  0  0  0  0  0
    6.6120  -17.2281  -16.2624 H   0  0  0  0  0  0  0  0  0  0  0  0
   15.8801  -24.6447  -18.2543 H   0  0  0  0  0  0  0  0  0  0  0  0
   13.9955  -17.9320  -15.7519 H   0  0  0  0  0  0  0  0  0  0  0  0
   13.3187  -18.3788  -14.2321 H   0  0  0  0  0  0  0  0  0  0  0  0
   12.7774  -21.3545  -14.5711 H   0  0  0  0  0  0  0  0  0  0  0  0
   16.1680  -18.9514  -15.7933 H   0  0  0  0  0  0  0  0  0  0  0  0
   10.9706  -16.5870  -13.9421 H   0  0  0  0  0  0  0  0  0  0  0  0
   12.5418  -22.8709  -21.4954 H   0  0  0  0  0  0  0  0  0  0  0  0
    8.2051  -19.0828  -16.1341 H   0  0  0  0  0  0  0  0  0  0  0  0
   13.7404  -23.7645  -17.4375 H   0  0  0  0  0  0  0  0  0  0  0  0
   11.9711  -17.4895  -19.0117 H   0  0  0  0  0  0  0  0  0  0  0  0
   12.6417  -16.8872  -17.4717 H   0  0  0  0  0  0  0  0  0  0  0  0
   14.1303  -17.7631  -19.4866 H   0  0  0  0  0  0  0  0  0  0  0  0
   10.8833  -18.9838  -17.5830 H   0  0  0  0  0  0  0  0  0  0  0  0
   12.8910  -20.9233  -17.2831 H   0  0  0  0  0  0  0  0  0  0  0  0
   14.8242  -20.0006  -18.0842 H   0  0  0  0  0  0  0  0  0  0  0  0
   14.0954  -19.9620  -19.6964 H   0  0  0  0  0  0  0  0  0  0  0  0
   14.2100  -23.3281  -14.5285 H   0  0  0  0  0  0  0  0  0  0  0  0
   17.5966  -20.9563  -15.6798 H   0  0  0  0  0  0  0  0  0  0  0  0
   16.6281  -23.1504  -15.0496 H   0  0  0  0  0  0  0  0  0  0  0  0
   11.0991  -21.0486  -21.0591 H   0  0  0  0  0  0  0  0  0  0  0  0
   12.0725  -19.6464  -20.7095 H   0  0  0  0  0  0  0  0  0  0  0  0
    9.1583  -20.6877  -18.5699 H   0  0  0  0  0  0  0  0  0  0  0  0
    7.1124  -19.3481  -18.3756 H   0  0  0  0  0  0  0  0  0  0  0  0
    6.7629  -17.3635  -19.8202 H   0  0  0  0  0  0  0  0  0  0  0  0
   10.5055  -18.1052  -21.7704 H   0  0  0  0  0  0  0  0  0  0  0  0
    8.4609  -16.7407  -21.5164 H   0  0  0  0  0  0  0  0  0  0  0  0
   14.6086  -17.8434  -17.9141 H   0  0  0  0  0  0  0  0  0  0  0  0
  1  8  2  0  0  0  0
  1 21  1  0  0  0  0
  1 46  1  0  0  0  0
  2 12  2  0  0  0  0
  3 14  1  0  0  0  0
  3 47  1  0  0  0  0
  3 48  1  0  0  0  0
  4 10  2  0  0  0  0
  4 22  1  0  0  0  0
  4 49  1  0  0  0  0
  5 14  2  0  0  0  0
  6 12  1  0  0  0  0
  6 50  1  0  0  0  0
  6 51  1  0  0  0  0
  7  8  1  0  0  0  0
  7 23  2  0  0  0  0
  7 52  1  0  0  0  0
  8 14  1  0  0  0  0
  9 10  1  0  0  0  0
  9 24  2  0  0  0  0
  9 53  1  0  0  0  0
 10 12  1  0  0  0  0
 11 18  1  0  0  0  0
 11 32  1  0  0  0  0
 11 54  1  0  0  0  0
 11 55  1  0  0  0  0
 13 16  2  0  0  0  0
 13 30  1  0  0  0  0
 13 32  1  0  0  0  0
 13 45  2  0  0  0  0
 15 17  2  0  0  0  0
 15 31  1  0  0  0  0
 15 36  1  0  0  0  0
 15 44  2  0  0  0  0
 18 19  2  0  0  0  0
 18 20  1  0  0  0  0
 19 33  1  0  0  0  0
 19 56  1  0  0  0  0
 20 34  2  0  0  0  0
 20 57  1  0  0  0  0
 21 30  2  0  0  0  0
 21 58  1  0  0  0  0
 22 31  2  0  0  0  0
 22 59  1  0  0  0  0
 23 30  1  0  0  0  0
 23 60  1  0  0  0  0
 24 31  1  0  0  0  0
 24 61  1  0  0  0  0
 25 26  1  0  0  0  0
 25 27  1  0  0  0  0
 25 62  1  0  0  0  0
 25 63  1  0  0  0  0
 26 29  1  0  0  0  0
 26 64  1  0  0  0  0
 26 79  1  0  0  0  0
 27 28  1  0  0  0  0
 27 32  1  0  0  0  0
 27 65  1  6  0  0  0
 28 29  1  0  0  0  0
 28 36  1  0  0  0  0
 28 66  1  1  0  0  0
 29 67  1  0  0  0  0
 29 68  1  0  0  0  0
 33 35  2  0  0  0  0
 33 69  1  0  0  0  0
 34 35  1  0  0  0  0
 34 70  1  0  0  0  0
 35 71  1  0  0  0  0
 36 37  1  0  0  0  0
 37 38  1  0  0  0  0
 37 72  1  0  0  0  0
 37 73  1  0  0  0  0
 38 39  2  0  0  0  0
 38 42  1  0  0  0  0
 39 40  1  0  0  0  0
 39 74  1  0  0  0  0
 40 41  2  0  0  0  0
 40 75  1  0  0  0  0
 41 43  1  0  0  0  0
 41 76  1  0  0  0  0
 42 43  2  0  0  0  0
 42 77  1  0  0  0  0
 43 78  1  0  0  0  0
M  CHG  1  26   1
M  END
$$$$
