G4G
 OpenBabel04051919173D

 79 83  0  0  1  0  0  0  0  0999 V2000
   -8.8562   15.2335  -14.5352 C   0  0  0  0  0  0  0  0  0  0  0  0
  -16.6721   24.1997  -22.1033 O   0  0  0  0  0  0  0  0  0  0  0  0
   -5.3199   14.6313  -15.4829 N   0  0  0  0  0  0  0  0  0  0  0  0
  -14.0236   23.7452  -21.1765 C   0  0  0  0  0  0  0  0  0  0  0  0
   -6.9790   13.1797  -15.0074 O   0  0  0  0  0  0  0  0  0  0  0  0
  -17.1264   25.4106  -20.2531 N   0  0  0  0  0  0  0  0  0  0  0  0
   -7.2850   16.7139  -15.6564 C   0  0  0  0  0  0  0  0  0  0  0  0
   -7.5968   15.4554  -15.1266 C   0  0  0  0  0  0  0  0  0  0  0  0
  -15.0564   23.7633  -18.9704 C   0  0  0  0  0  0  0  0  0  0  0  0
  -15.1144   24.0388  -20.3427 C   0  0  0  0  0  0  0  0  0  0  0  0
  -13.2337   18.3317  -15.1376 C   0  0  0  0  0  0  0  0  0  0  0  0
  -16.3606   24.5502  -20.9821 C   0  0  0  0  0  0  0  0  0  0  0  0
  -10.5658   18.9066  -14.8601 S   0  0  0  0  0  0  0  0  0  0  0  0
   -6.6204   14.3262  -15.1932 C   0  0  0  0  0  0  0  0  0  0  0  0
  -11.3121   22.2887  -18.5773 S   0  0  0  0  0  0  0  0  0  0  0  0
   -9.9888   20.0582  -15.4950 O   0  0  0  0  0  0  0  0  0  0  0  0
  -11.3751   22.5395  -17.1531 O   0  0  0  0  0  0  0  0  0  0  0  0
  -14.0346   19.6188  -14.9868 C   0  0  0  0  0  0  0  0  0  0  0  0
  -13.4179   20.7911  -14.5162 C   0  0  0  0  0  0  0  0  0  0  0  0
  -15.4109   19.6776  -15.3069 C   0  0  0  0  0  0  0  0  0  0  0  0
   -9.7942   16.2742  -14.4689 C   0  0  0  0  0  0  0  0  0  0  0  0
  -12.8546   23.2119  -20.6446 C   0  0  0  0  0  0  0  0  0  0  0  0
   -8.2104   17.7517  -15.5804 C   0  0  0  0  0  0  0  0  0  0  0  0
  -13.8886   23.2283  -18.4291 C   0  0  0  0  0  0  0  0  0  0  0  0
  -12.3214   17.5042  -18.1182 C   0  0  0  0  0  0  0  0  0  0  0  0
  -13.7237   17.9444  -18.4351 N   0  3  0  0  0  0  0  0  0  0  0  0
  -11.7433   18.6455  -17.2958 C   0  0  1  0  0  0  0  0  0  0  0  0
  -12.4192   19.9039  -17.8562 C   0  0  2  0  0  0  0  0  0  0  0  0
  -13.7563   19.4517  -18.4466 C   0  0  0  0  0  0  0  0  0  0  0  0
   -9.4623   17.5263  -15.0058 C   0  0  0  0  0  0  0  0  0  0  0  0
  -12.8048   22.9523  -19.2722 C   0  0  0  0  0  0  0  0  0  0  0  0
  -11.9198   18.4680  -15.8228 N   0  0  0  0  0  0  0  0  0  0  0  0
  -14.1391   21.9857  -14.4202 C   0  0  0  0  0  0  0  0  0  0  0  0
  -16.1386   20.8784  -15.2146 C   0  0  0  0  0  0  0  0  0  0  0  0
  -15.4928   22.0301  -14.7649 C   0  0  0  0  0  0  0  0  0  0  0  0
  -11.5574   20.6170  -18.8307 N   0  0  0  0  0  0  0  0  0  0  0  0
  -11.1106   20.0124  -20.1157 C   0  0  0  0  0  0  0  0  0  0  0  0
   -9.8150   19.2269  -20.0379 C   0  0  0  0  0  0  0  0  0  0  0  0
   -8.8523   19.4985  -19.0531 C   0  0  0  0  0  0  0  0  0  0  0  0
   -7.6688   18.7611  -19.0146 C   0  0  0  0  0  0  0  0  0  0  0  0
   -7.4177   17.7826  -19.9839 C   0  0  0  0  0  0  0  0  0  0  0  0
   -9.5543   18.2249  -21.0012 C   0  0  0  0  0  0  0  0  0  0  0  0
   -8.3666   17.4915  -20.9658 C   0  0  0  0  0  0  0  0  0  0  0  0
  -10.2209   22.7068  -19.3929 O   0  0  0  0  0  0  0  0  0  0  0  0
  -10.9999   18.9274  -13.4718 O   0  0  0  0  0  0  0  0  0  0  0  0
   -9.0916   14.2499  -14.1198 H   0  0  0  0  0  0  0  0  0  0  0  0
   -4.9808   15.5677  -15.6233 H   0  0  0  0  0  0  0  0  0  0  0  0
   -4.6397   13.8785  -15.5069 H   0  0  0  0  0  0  0  0  0  0  0  0
  -14.1032   23.9305  -22.2478 H   0  0  0  0  0  0  0  0  0  0  0  0
  -16.8660   25.7480  -19.3389 H   0  0  0  0  0  0  0  0  0  0  0  0
  -17.9697   25.7793  -20.6810 H   0  0  0  0  0  0  0  0  0  0  0  0
   -6.3259   16.9009  -16.1385 H   0  0  0  0  0  0  0  0  0  0  0  0
  -15.9236   23.9291  -18.3335 H   0  0  0  0  0  0  0  0  0  0  0  0
  -13.8292   17.5817  -15.6798 H   0  0  0  0  0  0  0  0  0  0  0  0
  -13.0723   17.8797  -14.1507 H   0  0  0  0  0  0  0  0  0  0  0  0
  -12.3646   20.8034  -14.2351 H   0  0  0  0  0  0  0  0  0  0  0  0
  -15.9339   18.7837  -15.6379 H   0  0  0  0  0  0  0  0  0  0  0  0
  -10.7588   16.0985  -13.9934 H   0  0  0  0  0  0  0  0  0  0  0  0
  -11.9978   23.0042  -21.2878 H   0  0  0  0  0  0  0  0  0  0  0  0
   -7.9495   18.7357  -15.9673 H   0  0  0  0  0  0  0  0  0  0  0  0
  -13.8174   23.0335  -17.3578 H   0  0  0  0  0  0  0  0  0  0  0  0
  -11.8088   17.3646  -19.0778 H   0  0  0  0  0  0  0  0  0  0  0  0
  -12.3582   16.5480  -17.5899 H   0  0  0  0  0  0  0  0  0  0  0  0
  -14.0470   17.5612  -19.3325 H   0  0  0  0  0  0  0  0  0  0  0  0
  -10.6671   18.6498  -17.4789 H   0  0  0  0  0  0  0  0  0  0  0  0
  -12.6316   20.5942  -17.0414 H   0  0  0  0  0  0  0  0  0  0  0  0
  -14.6236   19.7688  -17.8593 H   0  0  0  0  0  0  0  0  0  0  0  0
  -13.9069   19.7731  -19.4803 H   0  0  0  0  0  0  0  0  0  0  0  0
  -13.6367   22.8887  -14.0703 H   0  0  0  0  0  0  0  0  0  0  0  0
  -17.1997   20.9139  -15.4786 H   0  0  0  0  0  0  0  0  0  0  0  0
  -16.0401   22.9683  -14.6627 H   0  0  0  0  0  0  0  0  0  0  0  0
  -10.9848   20.7804  -20.8847 H   0  0  0  0  0  0  0  0  0  0  0  0
  -11.8801   19.3219  -20.4892 H   0  0  0  0  0  0  0  0  0  0  0  0
   -9.0317   20.2769  -18.3046 H   0  0  0  0  0  0  0  0  0  0  0  0
   -6.9332   18.9479  -18.2327 H   0  0  0  0  0  0  0  0  0  0  0  0
   -6.4657   17.2541  -19.9797 H   0  0  0  0  0  0  0  0  0  0  0  0
  -10.2793   18.0221  -21.7901 H   0  0  0  0  0  0  0  0  0  0  0  0
   -8.1742   16.7006  -21.6970 H   0  0  0  0  0  0  0  0  0  0  0  0
  -14.3629   17.5879  -17.7128 H   0  0  0  0  0  0  0  0  0  0  0  0
  1  8  2  0  0  0  0
  1 21  1  0  0  0  0
  1 46  1  0  0  0  0
  2 12  2  0  0  0  0
  3 14  1  0  0  0  0
  3 47  1  0  0  0  0
  3 48  1  0  0  0  0
  4 10  2  0  0  0  0
  4 22  1  0  0  0  0
  4 49  1  0  0  0  0
  5 14  2  0  0  0  0
  6 12  1  0  0  0  0
  6 50  1  0  0  0  0
  6 51  1  0  0  0  0
  7  8  1  0  0  0  0
  7 23  2  0  0  0  0
  7 52  1  0  0  0  0
  8 14  1  0  0  0  0
  9 10  1  0  0  0  0
  9 24  2  0  0  0  0
  9 53  1  0  0  0  0
 10 12  1  0  0  0  0
 11 18  1  0  0  0  0
 11 32  1  0  0  0  0
 11 54  1  0  0  0  0
 11 55  1  0  0  0  0
 13 16  2  0  0  0  0
 13 30  1  0  0  0  0
 13 32  1  0  0  0  0
 13 45  2  0  0  0  0
 15 17  2  0  0  0  0
 15 31  1  0  0  0  0
 15 36  1  0  0  0  0
 15 44  2  0  0  0  0
 18 19  2  0  0  0  0
 18 20  1  0  0  0  0
 19 33  1  0  0  0  0
 19 56  1  0  0  0  0
 20 34  2  0  0  0  0
 20 57  1  0  0  0  0
 21 30  2  0  0  0  0
 21 58  1  0  0  0  0
 22 31  2  0  0  0  0
 22 59  1  0  0  0  0
 23 30  1  0  0  0  0
 23 60  1  0  0  0  0
 24 31  1  0  0  0  0
 24 61  1  0  0  0  0
 25 26  1  0  0  0  0
 25 27  1  0  0  0  0
 25 62  1  0  0  0  0
 25 63  1  0  0  0  0
 26 29  1  0  0  0  0
 26 64  1  0  0  0  0
 26 79  1  0  0  0  0
 27 28  1  0  0  0  0
 27 32  1  0  0  0  0
 27 65  1  6  0  0  0
 28 29  1  0  0  0  0
 28 36  1  0  0  0  0
 28 66  1  1  0  0  0
 29 67  1  0  0  0  0
 29 68  1  0  0  0  0
 33 35  2  0  0  0  0
 33 69  1  0  0  0  0
 34 35  1  0  0  0  0
 34 70  1  0  0  0  0
 35 71  1  0  0  0  0
 36 37  1  0  0  0  0
 37 38  1  0  0  0  0
 37 72  1  0  0  0  0
 37 73  1  0  0  0  0
 38 39  2  0  0  0  0
 38 42  1  0  0  0  0
 39 40  1  0  0  0  0
 39 74  1  0  0  0  0
 40 41  2  0  0  0  0
 40 75  1  0  0  0  0
 41 43  1  0  0  0  0
 41 76  1  0  0  0  0
 42 43  2  0  0  0  0
 42 77  1  0  0  0  0
 43 78  1  0  0  0  0
M  CHG  1  26   1
M  END
$$$$
