G50
 OpenBabel04051919283D

 34 35  0  0  0  0  0  0  0  0999 V2000
   22.0548   37.5235   -4.4503 C   0  0  0  0  0  0  0  0  0  0  0  0
   22.2276   38.8206   -4.9457 C   0  0  0  0  0  0  0  0  0  0  0  0
   21.1417   39.6700   -5.0456 C   0  0  0  0  0  0  0  0  0  0  0  0
   19.8787   39.2221   -4.6451 C   0  0  0  0  0  0  0  0  0  0  0  0
   19.6635   37.9178   -4.1550 C   0  0  0  0  0  0  0  0  0  0  0  0
   20.7863   37.0875   -4.0595 C   0  0  0  0  0  0  0  0  0  0  0  0
   18.2845   37.5189   -3.6911 C   0  0  0  0  0  0  0  0  0  0  0  0
   17.6712   36.1522   -3.9857 C   0  0  0  0  0  0  0  0  0  0  0  0
   16.3786   35.8627   -3.1480 C   0  0  0  0  0  0  0  0  0  0  0  0
   20.7339   35.8098   -3.5772 O   0  0  0  0  0  0  0  0  0  0  0  0
   17.6356   38.3936   -3.1080 O   0  0  0  0  0  0  0  0  0  0  0  0
   15.7289   34.5194   -3.4679 C   0  0  0  0  0  0  0  0  0  0  0  0
   15.7324   34.0646   -4.7910 C   0  0  0  0  0  0  0  0  0  0  0  0
   15.1910   32.8300   -5.1428 C   0  0  0  0  0  0  0  0  0  0  0  0
   14.5953   32.0357   -4.1886 C   0  0  0  0  0  0  0  0  0  0  0  0
   14.5335   32.4719   -2.8670 C   0  0  0  0  0  0  0  0  0  0  0  0
   15.0957   33.7145   -2.5004 C   0  0  0  0  0  0  0  0  0  0  0  0
   14.0702   30.8238   -4.5526 O   0  0  0  0  0  0  0  0  0  0  0  0
   23.4661   39.2189   -5.3300 O   0  0  0  0  0  0  0  0  0  0  0  0
   18.8898   40.1711   -4.7820 O   0  0  0  0  0  0  0  0  0  0  0  0
   22.9218   36.8836   -4.3607 H   0  0  0  0  0  0  0  0  0  0  0  0
   21.2683   40.6856   -5.4087 H   0  0  0  0  0  0  0  0  0  0  0  0
   18.3814   35.3452   -3.8032 H   0  0  0  0  0  0  0  0  0  0  0  0
   17.4261   36.1468   -5.0531 H   0  0  0  0  0  0  0  0  0  0  0  0
   15.6284   36.6488   -3.3165 H   0  0  0  0  0  0  0  0  0  0  0  0
   16.6291   35.8980   -2.0796 H   0  0  0  0  0  0  0  0  0  0  0  0
   20.3894   35.8517   -2.6651 H   0  0  0  0  0  0  0  0  0  0  0  0
   16.1665   34.6629   -5.5826 H   0  0  0  0  0  0  0  0  0  0  0  0
   15.2692   32.5132   -6.1788 H   0  0  0  0  0  0  0  0  0  0  0  0
   14.0544   31.8466   -2.1102 H   0  0  0  0  0  0  0  0  0  0  0  0
   15.0399   34.0301   -1.4586 H   0  0  0  0  0  0  0  0  0  0  0  0
   14.2107   30.7134   -5.5206 H   0  0  0  0  0  0  0  0  0  0  0  0
   23.3857   39.5346   -6.2467 H   0  0  0  0  0  0  0  0  0  0  0  0
   18.4372   40.2263   -3.9160 H   0  0  0  0  0  0  0  0  0  0  0  0
  1  2  2  0  0  0  0
  1  6  1  0  0  0  0
  1 21  1  0  0  0  0
  2  3  1  0  0  0  0
  2 19  1  0  0  0  0
  3  4  2  0  0  0  0
  3 22  1  0  0  0  0
  4  5  1  0  0  0  0
  4 20  1  0  0  0  0
  5  6  2  0  0  0  0
  5  7  1  0  0  0  0
  6 10  1  0  0  0  0
  7  8  1  0  0  0  0
  7 11  2  0  0  0  0
  8  9  1  0  0  0  0
  8 23  1  0  0  0  0
  8 24  1  0  0  0  0
  9 12  1  0  0  0  0
  9 25  1  0  0  0  0
  9 26  1  0  0  0  0
 10 27  1  0  0  0  0
 12 13  2  0  0  0  0
 12 17  1  0  0  0  0
 13 14  1  0  0  0  0
 13 28  1  0  0  0  0
 14 15  2  0  0  0  0
 14 29  1  0  0  0  0
 15 16  1  0  0  0  0
 15 18  1  0  0  0  0
 16 17  2  0  0  0  0
 16 30  1  0  0  0  0
 17 31  1  0  0  0  0
 18 32  1  0  0  0  0
 19 33  1  0  0  0  0
 20 34  1  0  0  0  0
M  END
$$$$
