GAS
 OpenBabel04051917373D

 49 51  0  0  1  0  0  0  0  0999 V2000
   -9.2276   40.6463   17.3721 C   0  0  1  0  0  0  0  0  0  0  0  0
   -9.5515   41.9183   17.6856 N   0  0  0  0  0  0  0  0  0  0  0  0
   -8.7725   42.6744   18.7063 C   0  0  0  0  0  0  0  0  0  0  0  0
   -9.5806   43.6690   19.5723 C   0  0  0  0  0  0  0  0  0  0  0  0
   -8.8772   44.4678   20.2475 O   0  0  0  0  0  0  0  0  0  0  0  0
  -10.8341   43.5885   19.4375 O   0  0  0  0  0  0  0  0  0  0  0  0
  -10.2019   39.7512   17.1184 N   0  0  0  0  0  0  0  0  0  0  0  0
  -11.4775   39.8221   17.8361 C   0  0  0  0  0  0  0  0  0  0  0  0
  -12.4137   40.6970   17.0944 C   0  0  0  0  0  0  0  0  0  0  0  0
  -12.7019   40.4714   15.7485 C   0  0  0  0  0  0  0  0  0  0  0  0
  -13.4474   41.4189   15.0717 C   0  0  0  0  0  0  0  0  0  0  0  0
  -13.9097   42.5377   15.7493 C   0  0  0  0  0  0  0  0  0  0  0  0
  -13.6728   42.7182   17.1048 C   0  0  0  0  0  0  0  0  0  0  0  0
  -12.9568   41.7676   17.7989 C   0  0  0  0  0  0  0  0  0  0  0  0
  -11.9739   38.4389   18.0491 C   0  0  0  0  0  0  0  0  0  0  0  0
  -13.2313   38.0105   17.6253 C   0  0  0  0  0  0  0  0  0  0  0  0
  -13.5858   36.6894   17.7924 C   0  0  0  0  0  0  0  0  0  0  0  0
  -12.6969   35.8112   18.3991 C   0  0  0  0  0  0  0  0  0  0  0  0
  -11.4663   36.2432   18.8665 C   0  0  0  0  0  0  0  0  0  0  0  0
  -11.1083   37.5725   18.7017 C   0  0  0  0  0  0  0  0  0  0  0  0
   -8.0410   40.4690   16.7352 N   0  0  0  0  0  0  0  0  0  0  0  0
   -7.2764   39.2708   16.5701 C   0  0  0  0  0  0  0  0  0  0  0  0
   -7.2803   38.2155   17.4765 C   0  0  0  0  0  0  0  0  0  0  0  0
   -6.4372   37.0883   17.2924 C   0  0  0  0  0  0  0  0  0  0  0  0
   -5.5900   37.0264   16.1726 C   0  0  0  0  0  0  0  0  0  0  0  0
   -4.7142   35.8742   15.9779 C   0  0  0  0  0  0  0  0  0  0  0  0
   -4.0070   34.9580   15.8016 N   0  0  0  0  0  0  0  0  0  0  0  0
   -5.5938   38.0827   15.2669 C   0  0  0  0  0  0  0  0  0  0  0  0
   -6.4096   39.1985   15.4701 C   0  0  0  0  0  0  0  0  0  0  0  0
  -10.4262   42.3481   17.3877 H   0  0  0  0  0  0  0  0  0  0  0  0
   -8.0546   43.2709   18.1439 H   0  0  0  0  0  0  0  0  0  0  0  0
   -8.2510   41.9626   19.3579 H   0  0  0  0  0  0  0  0  0  0  0  0
   -9.9975   38.9532   16.5355 H   0  0  0  0  0  0  0  0  0  0  0  0
  -11.3170   40.2530   18.8237 H   0  0  0  0  0  0  0  0  0  0  0  0
  -12.3373   39.5797   15.2421 H   0  0  0  0  0  0  0  0  0  0  0  0
  -13.6432   41.2770   14.0208 H   0  0  0  0  0  0  0  0  0  0  0  0
  -14.4667   43.2946   15.2086 H   0  0  0  0  0  0  0  0  0  0  0  0
  -14.0347   43.5909   17.6341 H   0  0  0  0  0  0  0  0  0  0  0  0
  -12.7485   41.9018   18.8630 H   0  0  0  0  0  0  0  0  0  0  0  0
  -13.9302   38.6938   17.1473 H   0  0  0  0  0  0  0  0  0  0  0  0
  -14.5487   36.3473   17.4344 H   0  0  0  0  0  0  0  0  0  0  0  0
  -12.9720   34.7714   18.5267 H   0  0  0  0  0  0  0  0  0  0  0  0
  -10.7736   35.5785   19.3452 H   0  0  0  0  0  0  0  0  0  0  0  0
  -10.1526   37.9406   19.0604 H   0  0  0  0  0  0  0  0  0  0  0  0
   -7.6737   41.3142   16.3137 H   0  0  0  0  0  0  0  0  0  0  0  0
   -7.9089   38.2634   18.3607 H   0  0  0  0  0  0  0  0  0  0  0  0
   -6.4439   36.2982   18.0407 H   0  0  0  0  0  0  0  0  0  0  0  0
   -4.9312   38.0448   14.3992 H   0  0  0  0  0  0  0  0  0  0  0  0
   -6.4069   39.9942   14.7346 H   0  0  0  0  0  0  0  0  0  0  0  0
  1  2  1  6  0  0  0
  1  7  1  0  0  0  0
  1 21  1  0  0  0  0
  2  3  1  0  0  0  0
  2 30  1  0  0  0  0
  3  4  1  0  0  0  0
  3 31  1  0  0  0  0
  3 32  1  0  0  0  0
  4  5  2  0  0  0  0
  4  6  1  0  0  0  0
  7  8  1  0  0  0  0
  7 33  1  0  0  0  0
  8  9  1  0  0  0  0
  8 15  1  0  0  0  0
  8 34  1  0  0  0  0
  9 10  2  0  0  0  0
  9 14  1  0  0  0  0
 10 11  1  0  0  0  0
 10 35  1  0  0  0  0
 11 12  2  0  0  0  0
 11 36  1  0  0  0  0
 12 13  1  0  0  0  0
 12 37  1  0  0  0  0
 13 14  2  0  0  0  0
 13 38  1  0  0  0  0
 14 39  1  0  0  0  0
 15 16  2  0  0  0  0
 15 20  1  0  0  0  0
 16 17  1  0  0  0  0
 16 40  1  0  0  0  0
 17 18  2  0  0  0  0
 17 41  1  0  0  0  0
 18 19  1  0  0  0  0
 18 42  1  0  0  0  0
 19 20  2  0  0  0  0
 19 43  1  0  0  0  0
 20 44  1  0  0  0  0
 21 22  1  0  0  0  0
 21 45  1  0  0  0  0
 22 23  2  0  0  0  0
 22 29  1  0  0  0  0
 23 24  1  0  0  0  0
 23 46  1  0  0  0  0
 24 25  2  0  0  0  0
 24 47  1  0  0  0  0
 25 26  1  0  0  0  0
 25 28  1  0  0  0  0
 26 27  3  0  0  0  0
 28 29  2  0  0  0  0
 28 48  1  0  0  0  0
 29 49  1  0  0  0  0
M  END
$$$$
