GCU
 OpenBabel04051919523D

 22 22  0  0  1  0  0  0  0  0999 V2000
   18.1352    7.6728   54.1719 C   0  0  1  0  0  0  0  0  0  0  0  0
   18.9362    6.6574   53.3468 C   0  0  1  0  0  0  0  0  0  0  0  0
   19.0845    7.1941   51.9272 C   0  0  2  0  0  0  0  0  0  0  0  0
   17.7043    7.4453   51.3146 C   0  0  1  0  0  0  0  0  0  0  0  0
   16.9317    8.4382   52.1874 C   0  0  1  0  0  0  0  0  0  0  0  0
   15.4677    8.6074   51.6554 C   0  0  0  0  0  0  0  0  0  0  0  0
   18.9158    8.8507   54.3633 O   0  0  0  0  0  0  0  0  0  0  0  0
   20.2465    6.4188   53.9011 O   0  0  0  0  0  0  0  0  0  0  0  0
   19.8213    6.2628   51.1074 O   0  0  0  0  0  0  0  0  0  0  0  0
   17.9527    7.9337   49.9930 O   0  0  0  0  0  0  0  0  0  0  0  0
   16.8936    7.9900   53.5823 O   0  0  0  0  0  0  0  0  0  0  0  0
   15.3454    8.9354   50.4281 O   0  0  0  0  0  0  0  0  0  0  0  0
   14.5399    8.4449   52.4832 O   0  0  0  0  0  0  0  0  0  0  0  0
   17.9394    7.2542   55.1659 H   0  0  0  0  0  0  0  0  0  0  0  0
   18.4142    5.6937   53.3204 H   0  0  0  0  0  0  0  0  0  0  0  0
   19.6769    8.1201   51.9189 H   0  0  0  0  0  0  0  0  0  0  0  0
   17.1616    6.4925   51.2434 H   0  0  0  0  0  0  0  0  0  0  0  0
   17.4024    9.4229   52.1657 H   0  0  0  0  0  0  0  0  0  0  0  0
   18.3378    9.4208   54.9005 H   0  0  0  0  0  0  0  0  0  0  0  0
   20.6602    7.3010   53.9650 H   0  0  0  0  0  0  0  0  0  0  0  0
   20.6624    6.1199   51.5784 H   0  0  0  0  0  0  0  0  0  0  0  0
   18.3934    7.2077   49.5221 H   0  0  0  0  0  0  0  0  0  0  0  0
  1  2  1  0  0  0  0
  1  7  1  0  0  0  0
  1 11  1  0  0  0  0
  1 14  1  1  0  0  0
  2  3  1  0  0  0  0
  2  8  1  0  0  0  0
  2 15  1  6  0  0  0
  3  4  1  0  0  0  0
  3  9  1  0  0  0  0
  3 16  1  1  0  0  0
  4  5  1  0  0  0  0
  4 10  1  0  0  0  0
  4 17  1  6  0  0  0
  5  6  1  0  0  0  0
  5 11  1  0  0  0  0
  5 18  1  6  0  0  0
  6 12  2  0  0  0  0
  6 13  1  0  0  0  0
  7 19  1  0  0  0  0
  8 20  1  0  0  0  0
  9 21  1  0  0  0  0
 10 22  1  0  0  0  0
M  END
$$$$
