GDM
 OpenBabel04051920433D

 86 87  0  0  1  0  0  0  0  0999 V2000
   25.9945  -34.0959   -5.6514 C   0  0  2  0  0  0  0  0  0  0  0  0
   25.9999  -33.9035   -4.1408 C   0  0  0  0  0  0  0  0  0  0  0  0
   25.4166  -32.6229   -3.5038 C   0  0  0  0  0  0  0  0  0  0  0  0
   24.8312  -31.6813   -4.2809 C   0  0  0  0  0  0  0  0  0  0  0  0
   24.6883  -31.8463   -5.7803 C   0  0  0  0  0  0  0  0  0  0  0  0
   25.1038  -33.1557   -6.4304 C   0  0  1  0  0  0  0  0  0  0  0  0
   25.9111  -35.5688   -6.1219 C   0  0  0  0  0  0  0  0  0  0  0  0
   24.4942  -36.0978   -5.9421 C   0  0  1  0  0  0  0  0  0  0  0  0
   23.7915  -36.1679   -7.2934 C   0  0  0  0  0  0  0  0  0  0  0  0
   22.5136  -36.9962   -7.2170 C   0  0  1  0  0  0  0  0  0  0  0  0
   21.5493  -36.5028   -8.2914 C   0  0  1  0  0  0  0  0  0  0  0  0
   21.0138  -35.0902   -7.9794 C   0  0  2  0  0  0  0  0  0  0  0  0
   20.3744  -34.9769   -6.6040 C   0  0  0  0  0  0  0  0  0  0  0  0
   20.3875  -33.8623   -5.8247 C   0  0  0  0  0  0  0  0  0  0  0  0
   19.6339  -33.8705   -4.4894 C   0  0  1  0  0  0  0  0  0  0  0  0
   20.6319  -33.8806   -3.2950 C   0  0  2  0  0  0  0  0  0  0  0  0
   21.1391  -35.3027   -3.0341 C   0  0  0  0  0  0  0  0  0  0  0  0
   22.2344  -35.4538   -1.9934 C   0  0  0  0  0  0  0  0  0  0  0  0
   23.4660  -34.6546   -2.3174 C   0  0  0  0  0  0  0  0  0  0  0  0
   24.6844  -34.7572   -1.4197 C   0  0  1  0  0  0  0  0  0  0  0  0
   25.3102  -33.3948   -1.0686 C   0  0  0  0  0  0  0  0  0  0  0  0
   25.5373  -32.4526   -2.0958 N   0  0  0  0  0  0  0  0  0  0  0  0
   26.6379  -34.7386   -3.4738 O   0  0  0  0  0  0  0  0  0  0  0  0
   24.0916  -30.9838   -6.4887 O   0  0  0  0  0  0  0  0  0  0  0  0
   25.1602  -33.2788   -7.8468 O   0  0  0  0  0  0  0  0  0  0  0  0
   26.2497  -32.6106   -8.4248 C   0  0  0  0  0  0  0  0  0  0  0  0
   24.5190  -37.4310   -5.2228 C   0  0  0  0  0  0  0  0  0  0  0  0
   22.8908  -38.3688   -7.4516 O   0  0  0  0  0  0  0  0  0  0  0  0
   21.7755  -39.2429   -7.4756 C   0  0  0  0  0  0  0  0  0  0  0  0
   22.2474  -36.5014   -9.5539 O   0  0  0  0  0  0  0  0  0  0  0  0
   19.9755  -34.7172   -9.0331 C   0  0  0  0  0  0  0  0  0  0  0  0
   21.0678  -32.5580   -6.2057 C   0  0  0  0  0  0  0  0  0  0  0  0
   18.7360  -32.6924   -4.3535 O   0  0  0  0  0  0  0  0  0  0  0  0
   17.6334  -32.6751   -5.1027 C   0  0  0  0  0  0  0  0  0  0  0  0
   17.3330  -33.6260   -5.8889 O   0  0  0  0  0  0  0  0  0  0  0  0
   16.8550  -31.5929   -5.0015 N   0  0  0  0  0  0  0  0  0  0  0  0
   19.9993  -33.3938   -2.0968 O   0  0  0  0  0  0  0  0  0  0  0  0
   18.9546  -34.2789   -1.6916 C   0  0  0  0  0  0  0  0  0  0  0  0
   24.7798  -35.9007   -0.4215 C   0  0  0  0  0  0  0  0  0  0  0  0
   25.5663  -33.1159    0.1357 O   0  0  0  0  0  0  0  0  0  0  0  0
   27.0043  -33.8394   -5.9169 H   0  0  0  0  0  0  0  0  0  0  0  0
   24.3722  -30.7788   -3.8683 H   0  0  0  0  0  0  0  0  0  0  0  0
   24.1654  -33.6415   -6.2825 H   0  0  0  0  0  0  0  0  0  0  0  0
   26.6342  -36.1798   -5.5611 H   0  0  0  0  0  0  0  0  0  0  0  0
   26.2230  -35.6246   -7.1804 H   0  0  0  0  0  0  0  0  0  0  0  0
   23.9363  -35.3971   -5.3162 H   0  0  0  0  0  0  0  0  0  0  0  0
   24.4628  -36.5916   -8.0519 H   0  0  0  0  0  0  0  0  0  0  0  0
   23.5564  -35.1525   -7.6246 H   0  0  0  0  0  0  0  0  0  0  0  0
   22.0568  -36.9097   -6.2220 H   0  0  0  0  0  0  0  0  0  0  0  0
   20.6937  -37.1762   -8.3826 H   0  0  0  0  0  0  0  0  0  0  0  0
   21.8497  -34.3907   -8.0634 H   0  0  0  0  0  0  0  0  0  0  0  0
   19.8503  -35.8776   -6.2636 H   0  0  0  0  0  0  0  0  0  0  0  0
   19.0239  -34.7933   -4.4119 H   0  0  0  0  0  0  0  0  0  0  0  0
   21.4853  -33.2296   -3.5345 H   0  0  0  0  0  0  0  0  0  0  0  0
   21.4444  -35.7690   -3.9603 H   0  0  0  0  0  0  0  0  0  0  0  0
   20.3112  -35.9186   -2.6808 H   0  0  0  0  0  0  0  0  0  0  0  0
   22.4798  -36.5190   -1.9713 H   0  0  0  0  0  0  0  0  0  0  0  0
   21.8461  -35.1391   -1.0252 H   0  0  0  0  0  0  0  0  0  0  0  0
   23.1986  -33.6019   -2.3701 H   0  0  0  0  0  0  0  0  0  0  0  0
   23.8151  -34.9822   -3.2997 H   0  0  0  0  0  0  0  0  0  0  0  0
   25.4079  -35.1289   -2.0954 H   0  0  0  0  0  0  0  0  0  0  0  0
   25.8287  -31.5342   -1.7595 H   0  0  0  0  0  0  0  0  0  0  0  0
   26.2005  -32.7212   -9.5120 H   0  0  0  0  0  0  0  0  0  0  0  0
   27.1636  -33.0614   -8.0542 H   0  0  0  0  0  0  0  0  0  0  0  0
   26.2064  -31.5584   -8.1619 H   0  0  0  0  0  0  0  0  0  0  0  0
   25.0198  -37.3338   -4.2569 H   0  0  0  0  0  0  0  0  0  0  0  0
   25.0441  -38.1755   -5.8266 H   0  0  0  0  0  0  0  0  0  0  0  0
   23.5029  -37.7854   -5.0299 H   0  0  0  0  0  0  0  0  0  0  0  0
   22.1129  -40.2603   -7.6685 H   0  0  0  0  0  0  0  0  0  0  0  0
   21.1062  -38.9699   -8.2892 H   0  0  0  0  0  0  0  0  0  0  0  0
   21.2439  -39.1983   -6.5256 H   0  0  0  0  0  0  0  0  0  0  0  0
   22.6031  -37.3965   -9.7044 H   0  0  0  0  0  0  0  0  0  0  0  0
   19.5971  -33.7067   -8.8494 H   0  0  0  0  0  0  0  0  0  0  0  0
   19.1316  -35.4159   -8.9877 H   0  0  0  0  0  0  0  0  0  0  0  0
   20.3960  -34.7500  -10.0459 H   0  0  0  0  0  0  0  0  0  0  0  0
   21.5615  -32.6398   -7.1776 H   0  0  0  0  0  0  0  0  0  0  0  0
   21.8403  -32.2681   -5.4824 H   0  0  0  0  0  0  0  0  0  0  0  0
   20.3583  -31.7231   -6.2805 H   0  0  0  0  0  0  0  0  0  0  0  0
   15.9947  -31.4798   -5.5677 H   0  0  0  0  0  0  0  0  0  0  0  0
   17.0405  -30.8068   -4.3860 H   0  0  0  0  0  0  0  0  0  0  0  0
   18.4734  -33.9057   -0.7976 H   0  0  0  0  0  0  0  0  0  0  0  0
   19.3627  -35.2475   -1.4091 H   0  0  0  0  0  0  0  0  0  0  0  0
   18.2217  -34.4173   -2.4869 H   0  0  0  0  0  0  0  0  0  0  0  0
   25.7037  -35.8120    0.1629 H   0  0  0  0  0  0  0  0  0  0  0  0
   24.8315  -36.8575   -0.9685 H   0  0  0  0  0  0  0  0  0  0  0  0
   23.9299  -35.9389    0.2589 H   0  0  0  0  0  0  0  0  0  0  0  0
  1  2  1  0  0  0  0
  1  6  1  0  0  0  0
  1  7  1  0  0  0  0
  1 41  1  6  0  0  0
  2  3  1  0  0  0  0
  2 23  2  0  0  0  0
  3  4  2  0  0  0  0
  3 22  1  0  0  0  0
  4  5  1  0  0  0  0
  4 42  1  0  0  0  0
  5  6  1  0  0  0  0
  5 24  2  0  0  0  0
  6 25  1  0  0  0  0
  6 43  1  1  0  0  0
  7  8  1  0  0  0  0
  7 44  1  0  0  0  0
  7 45  1  0  0  0  0
  8  9  1  0  0  0  0
  8 27  1  0  0  0  0
  8 46  1  1  0  0  0
  9 10  1  0  0  0  0
  9 47  1  0  0  0  0
  9 48  1  0  0  0  0
 10 11  1  0  0  0  0
 10 28  1  0  0  0  0
 10 49  1  1  0  0  0
 11 12  1  0  0  0  0
 11 30  1  0  0  0  0
 11 50  1  6  0  0  0
 12 13  1  0  0  0  0
 12 31  1  0  0  0  0
 12 51  1  6  0  0  0
 13 14  2  0  0  0  0
 13 52  1  0  0  0  0
 14 15  1  0  0  0  0
 14 32  1  0  0  0  0
 15 16  1  0  0  0  0
 15 33  1  0  0  0  0
 15 53  1  1  0  0  0
 16 17  1  0  0  0  0
 16 37  1  0  0  0  0
 16 54  1  6  0  0  0
 17 18  1  0  0  0  0
 17 55  1  0  0  0  0
 17 56  1  0  0  0  0
 18 19  1  0  0  0  0
 18 57  1  0  0  0  0
 18 58  1  0  0  0  0
 19 20  1  0  0  0  0
 19 59  1  0  0  0  0
 19 60  1  0  0  0  0
 20 21  1  0  0  0  0
 20 39  1  0  0  0  0
 20 61  1  6  0  0  0
 21 22  1  0  0  0  0
 21 40  2  0  0  0  0
 22 62  1  0  0  0  0
 25 26  1  0  0  0  0
 26 63  1  0  0  0  0
 26 64  1  0  0  0  0
 26 65  1  0  0  0  0
 27 66  1  0  0  0  0
 27 67  1  0  0  0  0
 27 68  1  0  0  0  0
 28 29  1  0  0  0  0
 29 69  1  0  0  0  0
 29 70  1  0  0  0  0
 29 71  1  0  0  0  0
 30 72  1  0  0  0  0
 31 73  1  0  0  0  0
 31 74  1  0  0  0  0
 31 75  1  0  0  0  0
 32 76  1  0  0  0  0
 32 77  1  0  0  0  0
 32 78  1  0  0  0  0
 33 34  1  0  0  0  0
 34 35  2  0  0  0  0
 34 36  1  0  0  0  0
 36 79  1  0  0  0  0
 36 80  1  0  0  0  0
 37 38  1  0  0  0  0
 38 81  1  0  0  0  0
 38 82  1  0  0  0  0
 38 83  1  0  0  0  0
 39 84  1  0  0  0  0
 39 85  1  0  0  0  0
 39 86  1  0  0  0  0
M  END
$$$$
