GDM
 OpenBabel04051920433D

 80 81  0  0  1  0  0  0  0  0999 V2000
   25.9553  -34.1230   -5.2805 C   0  0  0  0  0  0  0  0  0  0  0  0
   26.0712  -33.8695   -3.7847 C   0  0  0  0  0  0  0  0  0  0  0  0
   25.4788  -32.5548   -3.2301 C   0  0  0  0  0  0  0  0  0  0  0  0
   24.9463  -31.6451   -4.0738 C   0  0  0  0  0  0  0  0  0  0  0  0
   24.8740  -31.8906   -5.5831 C   0  0  0  0  0  0  0  0  0  0  0  0
   25.4721  -33.1796   -6.1283 C   0  0  0  0  0  0  0  0  0  0  0  0
   26.0614  -35.5924   -5.6862 C   0  0  0  0  0  0  0  0  0  0  0  0
   24.5995  -36.0615   -5.5157 C   0  0  1  0  0  0  0  0  0  0  0  0
   23.9651  -36.2709   -6.8785 C   0  0  0  0  0  0  0  0  0  0  0  0
   22.7265  -37.1534   -6.8386 C   0  0  1  0  0  0  0  0  0  0  0  0
   21.6497  -36.6429   -7.8026 C   0  0  1  0  0  0  0  0  0  0  0  0
   21.2596  -35.1874   -7.4697 C   0  0  2  0  0  0  0  0  0  0  0  0
   20.4383  -35.0899   -6.2047 C   0  0  0  0  0  0  0  0  0  0  0  0
   20.4939  -34.0403   -5.3604 C   0  0  0  0  0  0  0  0  0  0  0  0
   19.5799  -33.9883   -4.1541 C   0  0  1  0  0  0  0  0  0  0  0  0
   20.4169  -34.1365   -2.8539 C   0  0  2  0  0  0  0  0  0  0  0  0
   21.0779  -35.4797   -2.7093 C   0  0  0  0  0  0  0  0  0  0  0  0
   22.2941  -35.6272   -2.1193 C   0  0  0  0  0  0  0  0  0  0  0  0
   23.2593  -34.5009   -1.9096 C   0  0  0  0  0  0  0  0  0  0  0  0
   24.4098  -34.5863   -1.2005 C   0  0  0  0  0  0  0  0  0  0  0  0
   25.2286  -33.3343   -0.8398 C   0  0  0  0  0  0  0  0  0  0  0  0
   25.5150  -32.3599   -1.8221 N   0  0  0  0  0  0  0  0  0  0  0  0
   26.6013  -34.7175   -3.0381 O   0  0  0  0  0  0  0  0  0  0  0  0
   24.3306  -31.0570   -6.3522 O   0  0  0  0  0  0  0  0  0  0  0  0
   25.3746  -33.4171   -7.5144 O   0  0  0  0  0  0  0  0  0  0  0  0
   26.2459  -32.5007   -8.2001 C   0  0  0  0  0  0  0  0  0  0  0  0
   24.4982  -37.2525   -4.5850 C   0  0  0  0  0  0  0  0  0  0  0  0
   23.0865  -38.5171   -7.1449 O   0  0  0  0  0  0  0  0  0  0  0  0
   24.0865  -38.6104   -8.1483 C   0  0  0  0  0  0  0  0  0  0  0  0
   22.1197  -36.6889   -9.1587 O   0  0  0  0  0  0  0  0  0  0  0  0
   20.4704  -34.5882   -8.6238 C   0  0  0  0  0  0  0  0  0  0  0  0
   21.4148  -32.8522   -5.5368 C   0  0  0  0  0  0  0  0  0  0  0  0
   18.8208  -32.7100   -4.1175 O   0  0  0  0  0  0  0  0  0  0  0  0
   17.6389  -32.6991   -4.7532 C   0  0  0  0  0  0  0  0  0  0  0  0
   17.2476  -33.6560   -5.4884 O   0  0  0  0  0  0  0  0  0  0  0  0
   16.8673  -31.6421   -4.5193 N   0  0  0  0  0  0  0  0  0  0  0  0
   19.6116  -33.8635   -1.6796 O   0  0  0  0  0  0  0  0  0  0  0  0
   18.3767  -34.5663   -1.7226 C   0  0  0  0  0  0  0  0  0  0  0  0
   24.7830  -35.8441   -0.4392 C   0  0  0  0  0  0  0  0  0  0  0  0
   25.4905  -33.1481    0.3899 O   0  0  0  0  0  0  0  0  0  0  0  0
   24.4736  -30.7250   -3.7245 H   0  0  0  0  0  0  0  0  0  0  0  0
   26.7228  -36.2069   -5.0513 H   0  0  0  0  0  0  0  0  0  0  0  0
   26.4106  -35.7381   -6.7197 H   0  0  0  0  0  0  0  0  0  0  0  0
   24.0150  -35.2530   -5.0681 H   0  0  0  0  0  0  0  0  0  0  0  0
   24.7323  -36.6135   -7.5413 H   0  0  0  0  0  0  0  0  0  0  0  0
   23.7756  -35.3315   -7.3740 H   0  0  0  0  0  0  0  0  0  0  0  0
   22.2919  -37.1228   -5.8354 H   0  0  0  0  0  0  0  0  0  0  0  0
   20.7581  -37.2783   -7.7381 H   0  0  0  0  0  0  0  0  0  0  0  0
   22.1675  -34.5951   -7.3601 H   0  0  0  0  0  0  0  0  0  0  0  0
   19.7462  -35.9259   -6.0369 H   0  0  0  0  0  0  0  0  0  0  0  0
   18.8581  -34.8279   -4.1658 H   0  0  0  0  0  0  0  0  0  0  0  0
   21.1789  -33.3569   -2.8682 H   0  0  0  0  0  0  0  0  0  0  0  0
   20.5043  -36.3567   -3.0771 H   0  0  0  0  0  0  0  0  0  0  0  0
   22.6130  -36.6197   -1.7770 H   0  0  0  0  0  0  0  0  0  0  0  0
   22.9736  -33.5260   -2.3179 H   0  0  0  0  0  0  0  0  0  0  0  0
   25.8064  -31.4434   -1.4596 H   0  0  0  0  0  0  0  0  0  0  0  0
   26.2193  -32.6652   -9.2881 H   0  0  0  0  0  0  0  0  0  0  0  0
   27.2746  -32.6547   -7.8571 H   0  0  0  0  0  0  0  0  0  0  0  0
   25.9516  -31.4651   -8.0143 H   0  0  0  0  0  0  0  0  0  0  0  0
   24.9367  -37.0063   -3.6153 H   0  0  0  0  0  0  0  0  0  0  0  0
   25.0114  -38.1203   -5.0018 H   0  0  0  0  0  0  0  0  0  0  0  0
   23.4566  -37.5252   -4.3941 H   0  0  0  0  0  0  0  0  0  0  0  0
   24.3372  -39.6338   -8.3791 H   0  0  0  0  0  0  0  0  0  0  0  0
   25.0437  -38.2077   -7.8266 H   0  0  0  0  0  0  0  0  0  0  0  0
   23.8136  -38.1052   -9.0612 H   0  0  0  0  0  0  0  0  0  0  0  0
   22.2772  -37.6258   -9.3640 H   0  0  0  0  0  0  0  0  0  0  0  0
   20.2191  -33.5447   -8.4139 H   0  0  0  0  0  0  0  0  0  0  0  0
   19.5451  -35.1537   -8.7579 H   0  0  0  0  0  0  0  0  0  0  0  0
   21.0356  -34.6175   -9.5648 H   0  0  0  0  0  0  0  0  0  0  0  0
   22.0235  -32.9594   -6.4332 H   0  0  0  0  0  0  0  0  0  0  0  0
   22.1139  -32.7367   -4.7016 H   0  0  0  0  0  0  0  0  0  0  0  0
   20.8633  -31.9122   -5.6456 H   0  0  0  0  0  0  0  0  0  0  0  0
   15.9212  -31.5492   -4.9520 H   0  0  0  0  0  0  0  0  0  0  0  0
   17.1161  -30.8530   -3.9369 H   0  0  0  0  0  0  0  0  0  0  0  0
   17.7835  -34.3397   -0.8404 H   0  0  0  0  0  0  0  0  0  0  0  0
   18.5710  -35.6373   -1.7777 H   0  0  0  0  0  0  0  0  0  0  0  0
   17.7908  -34.2636   -2.5897 H   0  0  0  0  0  0  0  0  0  0  0  0
   24.2600  -36.7233   -0.8248 H   0  0  0  0  0  0  0  0  0  0  0  0
   24.4724  -35.7248    0.6065 H   0  0  0  0  0  0  0  0  0  0  0  0
   25.8488  -36.0983   -0.4557 H   0  0  0  0  0  0  0  0  0  0  0  0
  1  2  1  0  0  0  0
  1  6  2  0  0  0  0
  1  7  1  0  0  0  0
  2  3  1  0  0  0  0
  2 23  2  0  0  0  0
  3  4  2  0  0  0  0
  3 22  1  0  0  0  0
  4  5  1  0  0  0  0
  4 41  1  0  0  0  0
  5  6  1  0  0  0  0
  5 24  2  0  0  0  0
  6 25  1  0  0  0  0
  7  8  1  0  0  0  0
  7 42  1  0  0  0  0
  7 43  1  0  0  0  0
  8  9  1  0  0  0  0
  8 27  1  0  0  0  0
  8 44  1  1  0  0  0
  9 10  1  0  0  0  0
  9 45  1  0  0  0  0
  9 46  1  0  0  0  0
 10 11  1  0  0  0  0
 10 28  1  0  0  0  0
 10 47  1  1  0  0  0
 11 12  1  0  0  0  0
 11 30  1  0  0  0  0
 11 48  1  1  0  0  0
 12 13  1  0  0  0  0
 12 31  1  0  0  0  0
 12 49  1  1  0  0  0
 13 14  2  0  0  0  0
 13 50  1  0  0  0  0
 14 15  1  0  0  0  0
 14 32  1  0  0  0  0
 15 16  1  0  0  0  0
 15 33  1  0  0  0  0
 15 51  1  6  0  0  0
 16 17  1  0  0  0  0
 16 37  1  0  0  0  0
 16 52  1  6  0  0  0
 17 18  2  0  0  0  0
 17 53  1  0  0  0  0
 18 19  1  0  0  0  0
 18 54  1  0  0  0  0
 19 20  2  0  0  0  0
 19 55  1  0  0  0  0
 20 21  1  0  0  0  0
 20 39  1  0  0  0  0
 21 22  1  0  0  0  0
 21 40  2  0  0  0  0
 22 56  1  0  0  0  0
 25 26  1  0  0  0  0
 26 57  1  0  0  0  0
 26 58  1  0  0  0  0
 26 59  1  0  0  0  0
 27 60  1  0  0  0  0
 27 61  1  0  0  0  0
 27 62  1  0  0  0  0
 28 29  1  0  0  0  0
 29 63  1  0  0  0  0
 29 64  1  0  0  0  0
 29 65  1  0  0  0  0
 30 66  1  0  0  0  0
 31 67  1  0  0  0  0
 31 68  1  0  0  0  0
 31 69  1  0  0  0  0
 32 70  1  0  0  0  0
 32 71  1  0  0  0  0
 32 72  1  0  0  0  0
 33 34  1  0  0  0  0
 34 35  2  0  0  0  0
 34 36  1  0  0  0  0
 36 73  1  0  0  0  0
 36 74  1  0  0  0  0
 37 38  1  0  0  0  0
 38 75  1  0  0  0  0
 38 76  1  0  0  0  0
 38 77  1  0  0  0  0
 39 78  1  0  0  0  0
 39 79  1  0  0  0  0
 39 80  1  0  0  0  0
M  END
$$$$
