GDV
 OpenBabel04051918183D

 47 49  0  0  1  0  0  0  0  0999 V2000
    2.9888   -6.4920   34.2483 O   0  0  0  0  0  0  0  0  0  0  0  0
    3.2103   -7.6162   34.6545 C   0  0  0  0  0  0  0  0  0  0  0  0
    4.0661   -7.9330   35.8516 C   0  0  0  0  0  0  0  0  0  0  0  0
    2.6612   -8.7333   34.0662 N   0  0  0  0  0  0  0  0  0  0  0  0
    1.9210   -8.6585   32.8182 C   0  0  2  0  0  0  0  0  0  0  0  0
    2.7733   -8.2900   31.5946 C   0  0  1  0  0  0  0  0  0  0  0  0
    3.1223   -9.5157   30.9355 O   0  0  0  0  0  0  0  0  0  0  0  0
    2.0233   -7.3316   30.6330 C   0  0  2  0  0  0  0  0  0  0  0  0
    2.8584   -7.0534   29.5159 O   0  0  0  0  0  0  0  0  0  0  0  0
    1.5967   -6.0564   31.4251 C   0  0  1  0  0  0  0  0  0  0  0  0
    1.0772   -4.9420   30.5047 C   0  0  0  0  0  0  0  0  0  0  0  0
    0.0049   -5.4112   29.6910 O   0  0  0  0  0  0  0  0  0  0  0  0
    0.7423   -7.7493   32.9782 C   0  0  1  0  0  0  0  0  0  0  0  0
    0.5693   -6.5503   32.3823 N   0  3  2  0  0  0  0  0  0  0  0  0
   -0.6588   -6.0421   32.7274 C   0  0  0  0  0  0  0  0  0  0  0  0
   -1.2798   -6.9863   33.5126 C   0  0  2  0  0  0  0  0  0  0  0  0
   -0.3770   -8.0215   33.6338 N   0  3  0  0  0  0  0  0  0  0  0  0
   -2.6115   -6.8603   34.0200 C   0  0  0  0  0  0  0  0  0  0  0  0
   -3.3449   -5.9189   33.7855 O   0  0  0  0  0  0  0  0  0  0  0  0
   -2.9835   -8.0069   34.7134 N   0  0  0  0  0  0  0  0  0  0  0  0
   -4.2282   -8.0934   35.3607 C   0  0  0  0  0  0  0  0  0  0  0  0
   -4.8765   -9.3296   35.4611 C   0  0  0  0  0  0  0  0  0  0  0  0
   -6.1016   -9.4090   36.1258 C   0  0  0  0  0  0  0  0  0  0  0  0
   -6.6559   -8.2683   36.7136 C   0  0  0  0  0  0  0  0  0  0  0  0
   -6.0062   -7.0438   36.6226 C   0  0  0  0  0  0  0  0  0  0  0  0
   -4.7924   -6.9611   35.9453 C   0  0  0  0  0  0  0  0  0  0  0  0
    4.1495   -9.0142   35.9987 H   0  0  0  0  0  0  0  0  0  0  0  0
    3.6071   -7.4976   36.7412 H   0  0  0  0  0  0  0  0  0  0  0  0
    5.0699   -7.5273   35.7018 H   0  0  0  0  0  0  0  0  0  0  0  0
    2.9849   -9.6520   34.3723 H   0  0  0  0  0  0  0  0  0  0  0  0
    1.4744   -9.6538   32.6886 H   0  0  0  0  0  0  0  0  0  0  0  0
    3.7092   -7.8186   31.9023 H   0  0  0  0  0  0  0  0  0  0  0  0
    3.6831   -9.2790   30.1691 H   0  0  0  0  0  0  0  0  0  0  0  0
    1.1187   -7.8315   30.2567 H   0  0  0  0  0  0  0  0  0  0  0  0
    2.3445   -6.5008   28.8921 H   0  0  0  0  0  0  0  0  0  0  0  0
    2.4470   -5.6524   31.9848 H   0  0  0  0  0  0  0  0  0  0  0  0
    1.8657   -4.6007   29.8280 H   0  0  0  0  0  0  0  0  0  0  0  0
    0.7480   -4.0678   31.0784 H   0  0  0  0  0  0  0  0  0  0  0  0
   -0.7596   -5.6283   30.2531 H   0  0  0  0  0  0  0  0  0  0  0  0
   -0.9990   -5.0918   32.3444 H   0  0  0  0  0  0  0  0  0  0  0  0
   -2.4466   -8.8551   34.7063 H   0  0  0  0  0  0  0  0  0  0  0  0
   -4.4811  -10.2234   34.9871 H   0  0  0  0  0  0  0  0  0  0  0  0
   -6.6328  -10.3562   36.1905 H   0  0  0  0  0  0  0  0  0  0  0  0
   -7.6012   -8.3303   37.2478 H   0  0  0  0  0  0  0  0  0  0  0  0
   -6.4216   -6.1570   37.0726 H   0  0  0  0  0  0  0  0  0  0  0  0
   -4.2888   -6.0018   35.9102 H   0  0  0  0  0  0  0  0  0  0  0  0
   -0.5099   -8.8854   34.1448 H   0  0  0  0  0  0  0  0  0  0  0  0
  1  2  2  0  0  0  0
  2  3  1  0  0  0  0
  2  4  1  0  0  0  0
  3 27  1  0  0  0  0
  3 28  1  0  0  0  0
  3 29  1  0  0  0  0
  4  5  1  0  0  0  0
  4 30  1  0  0  0  0
  5  6  1  0  0  0  0
  5 13  1  0  0  0  0
  5 31  1  6  0  0  0
  6  7  1  0  0  0  0
  6  8  1  0  0  0  0
  6 32  1  1  0  0  0
  7 33  1  0  0  0  0
  8  9  1  0  0  0  0
  8 10  1  0  0  0  0
  8 34  1  6  0  0  0
  9 35  1  0  0  0  0
 10 11  1  0  0  0  0
 10 14  1  0  0  0  0
 10 36  1  1  0  0  0
 11 12  1  0  0  0  0
 11 37  1  0  0  0  0
 11 38  1  0  0  0  0
 12 39  1  0  0  0  0
 13 14  1  0  0  0  0
 13 17  1  6  0  0  0
 14 15  1  6  0  0  0
 15 16  1  0  0  0  0
 15 40  1  0  0  0  0
 16 17  1  0  0  0  0
 16 18  1  6  0  0  0
 17 47  1  0  0  0  0
 18 19  2  0  0  0  0
 18 20  1  0  0  0  0
 20 21  1  0  0  0  0
 20 41  1  0  0  0  0
 21 22  1  0  0  0  0
 21 26  1  0  0  0  0
 22 23  1  0  0  0  0
 22 42  1  0  0  0  0
 23 24  1  0  0  0  0
 23 43  1  0  0  0  0
 24 25  1  0  0  0  0
 24 44  1  0  0  0  0
 25 26  1  0  0  0  0
 25 45  1  0  0  0  0
 26 46  1  0  0  0  0
M  CHG  2  14   1  17   1
M  END
$$$$
