GG9
 OpenBabel04051918483D

 36 36  0  0  1  0  0  0  0  0999 V2000
   56.5876   11.9763   28.0201 C   0  0  0  0  0  0  0  0  0  0  0  0
   55.5390   11.1589   28.2784 C   0  0  0  0  0  0  0  0  0  0  0  0
   55.6037    9.8701   29.0917 C   0  0  2  0  0  0  0  0  0  0  0  0
   56.9386    9.8850   29.9076 C   0  0  2  0  0  0  0  0  0  0  0  0
   58.1886   10.1470   29.0082 C   0  0  1  0  0  0  0  0  0  0  0  0
   58.0113   11.5858   28.4185 C   0  0  0  0  0  0  0  0  0  0  0  0
   56.3845   13.3431   27.2964 C   0  0  0  0  0  0  0  0  0  0  0  0
   55.4485    8.7373   28.2434 O   0  0  0  0  0  0  0  0  0  0  0  0
   57.1124    8.7738   30.8103 O   0  0  0  0  0  0  0  0  0  0  0  0
   59.3712   10.1258   29.8568 O   0  0  0  0  0  0  0  0  0  0  0  0
   55.4205   13.4443   26.4748 O   0  0  0  0  0  0  0  0  0  0  0  0
   57.1186   14.3035   27.6982 O   0  0  0  0  0  0  0  0  0  0  0  0
   53.9877    7.9952   28.1141 P   0  0  0  0  0  0  0  0  0  0  0  0
   53.0133    9.0366   27.5653 O   0  0  0  0  0  0  0  0  0  0  0  0
   53.6013    7.5417   29.5237 O   0  0  0  0  0  0  0  0  0  0  0  0
   54.1925    6.8206   27.1561 O   0  0  0  0  0  0  0  0  0  0  0  0
   60.4264    9.1280   29.5647 C   0  0  2  0  0  0  0  0  0  0  0  0
   59.9421    7.6480   29.5947 C   0  0  0  0  0  0  0  0  0  0  0  0
   61.3184    9.1292   30.9876 C   0  0  0  0  0  0  0  0  0  0  0  0
   61.9740   10.1912   31.2917 O   0  0  0  0  0  0  0  0  0  0  0  0
   61.2321    8.1213   31.7892 O   0  0  0  0  0  0  0  0  0  0  0  0
   61.2785    9.3971   26.9616 P   0  0  0  0  0  0  0  0  0  0  0  0
   62.6357    8.8153   26.5186 O   0  0  0  0  0  0  0  0  0  0  0  0
   61.1356   10.8476   26.5147 O   0  0  0  0  0  0  0  0  0  0  0  0
   60.1314    8.4899   26.6230 O   0  0  0  0  0  0  0  0  0  0  0  0
   61.3980    9.4857   28.5821 O   0  0  0  0  0  0  0  0  0  0  0  0
   58.9872    7.3212   28.6974 F   0  0  0  0  0  0  0  0  0  0  0  0
   60.9444    6.7293   29.4303 F   0  0  0  0  0  0  0  0  0  0  0  0
   54.5449   11.4160   27.9215 H   0  0  0  0  0  0  0  0  0  0  0  0
   54.7866    9.8717   29.8241 H   0  0  0  0  0  0  0  0  0  0  0  0
   56.8777   10.7345   30.6078 H   0  0  0  0  0  0  0  0  0  0  0  0
   58.2562    9.4079   28.2096 H   0  0  0  0  0  0  0  0  0  0  0  0
   58.3668   12.3140   29.1625 H   0  0  0  0  0  0  0  0  0  0  0  0
   58.6783   11.6913   27.5564 H   0  0  0  0  0  0  0  0  0  0  0  0
   58.0408    8.8586   31.0839 H   0  0  0  0  0  0  0  0  0  0  0  0
   59.4631    7.4207   30.5502 H   0  0  0  0  0  0  0  0  0  0  0  0
  1  2  2  0  0  0  0
  1  6  1  0  0  0  0
  1  7  1  0  0  0  0
  2  3  1  0  0  0  0
  2 29  1  0  0  0  0
  3  4  1  0  0  0  0
  3  8  1  0  0  0  0
  3 30  1  1  0  0  0
  4  5  1  0  0  0  0
  4  9  1  0  0  0  0
  4 31  1  1  0  0  0
  5  6  1  0  0  0  0
  5 10  1  0  0  0  0
  5 32  1  6  0  0  0
  6 33  1  0  0  0  0
  6 34  1  0  0  0  0
  7 11  2  0  0  0  0
  7 12  1  0  0  0  0
  8 13  1  0  0  0  0
  9 35  1  0  0  0  0
 13 14  2  0  0  0  0
 13 15  1  0  0  0  0
 13 16  1  0  0  0  0
 17 10  1  1  0  0  0
 17 18  1  0  0  0  0
 17 19  1  0  0  0  0
 17 26  1  0  0  0  0
 18 27  1  0  0  0  0
 18 28  1  0  0  0  0
 18 36  1  0  0  0  0
 19 20  2  0  0  0  0
 19 21  1  0  0  0  0
 22 23  2  0  0  0  0
 22 24  1  0  0  0  0
 22 25  1  0  0  0  0
 22 26  1  0  0  0  0
M  END
$$$$
