GI1
 OpenBabel04051918213D

 35 36  0  0  1  0  0  0  0  0999 V2000
   -0.8702   10.5907   10.5908 C   0  0  2  0  0  0  0  0  0  0  0  0
    0.0800   11.4181    9.7821 C   0  0  2  0  0  0  0  0  0  0  0  0
    0.3425   12.6432   10.4662 O   0  0  0  0  0  0  0  0  0  0  0  0
   -0.4629   11.7058    8.3955 C   0  0  1  0  0  0  0  0  0  0  0  0
    0.6705   11.9736    7.5808 O   0  0  0  0  0  0  0  0  0  0  0  0
   -1.3294   10.5363    7.8879 C   0  0  2  0  0  0  0  0  0  0  0  0
   -2.6772    9.4073   11.1392 C   0  0  0  0  0  0  0  0  0  0  0  0
   -2.0977   10.1800   10.1607 N   0  3  2  0  0  0  0  0  0  0  0  0
   -1.6658   10.7166    6.5191 O   0  0  0  0  0  0  0  0  0  0  0  0
   -2.5822   10.4499    8.8017 C   0  0  2  0  0  0  0  0  0  0  0  0
   -3.5565    9.3706    8.3162 C   0  0  0  0  0  0  0  0  0  0  0  0
   -3.0452    8.0652    8.5628 O   0  0  0  0  0  0  0  0  0  0  0  0
   -0.7349   10.1378   11.8333 N   0  3  0  0  0  0  0  0  0  0  0  0
   -1.8295    9.3676   12.2103 C   0  0  1  0  0  0  0  0  0  0  0  0
   -2.1151    8.6988   13.4912 C   0  0  1  0  0  0  0  0  0  0  0  0
   -2.8526    7.5173   13.2403 O   0  0  0  0  0  0  0  0  0  0  0  0
   -0.2069    7.3267   14.0702 C   0  0  0  0  0  0  0  0  0  0  0  0
   -0.9405    8.5272   14.2653 O   0  0  0  0  0  0  0  0  0  0  0  0
    1.0100   10.8332    9.7450 H   0  0  0  0  0  0  0  0  0  0  0  0
   -0.4907   13.1525   10.4977 H   0  0  0  0  0  0  0  0  0  0  0  0
   -1.0738   12.6124    8.4370 H   0  0  0  0  0  0  0  0  0  0  0  0
    0.3562   12.1769    6.6851 H   0  0  0  0  0  0  0  0  0  0  0  0
   -0.7594    9.6068    7.9843 H   0  0  0  0  0  0  0  0  0  0  0  0
   -3.6407    8.9195   11.0515 H   0  0  0  0  0  0  0  0  0  0  0  0
   -2.1989    9.9555    6.2201 H   0  0  0  0  0  0  0  0  0  0  0  0
   -3.1252   11.4059    8.7887 H   0  0  0  0  0  0  0  0  0  0  0  0
   -3.7570    9.4785    7.2493 H   0  0  0  0  0  0  0  0  0  0  0  0
   -4.5044    9.4712    8.8558 H   0  0  0  0  0  0  0  0  0  0  0  0
   -2.2030    7.9478    8.0861 H   0  0  0  0  0  0  0  0  0  0  0  0
   -2.7789    9.4006   14.0051 H   0  0  0  0  0  0  0  0  0  0  0  0
   -3.1623    7.1911   14.1067 H   0  0  0  0  0  0  0  0  0  0  0  0
    0.6505    7.3361   14.7563 H   0  0  0  0  0  0  0  0  0  0  0  0
    0.1718    7.2537   13.0480 H   0  0  0  0  0  0  0  0  0  0  0  0
   -0.8177    6.4507   14.3071 H   0  0  0  0  0  0  0  0  0  0  0  0
    0.1005   10.3321   12.4281 H   0  0  0  0  0  0  0  0  0  0  0  0
  1  2  1  0  0  0  0
  1  8  1  0  0  0  0
  1 13  1  1  0  0  0
  2  3  1  0  0  0  0
  2  4  1  0  0  0  0
  2 19  1  6  0  0  0
  3 20  1  0  0  0  0
  4  5  1  0  0  0  0
  4  6  1  0  0  0  0
  4 21  1  1  0  0  0
  5 22  1  0  0  0  0
  6  9  1  0  0  0  0
  6 10  1  0  0  0  0
  6 23  1  1  0  0  0
  7 24  1  0  0  0  0
  8  7  1  6  0  0  0
  8 10  1  0  0  0  0
  9 25  1  0  0  0  0
 10 11  1  0  0  0  0
 10 26  1  6  0  0  0
 11 12  1  0  0  0  0
 11 27  1  0  0  0  0
 11 28  1  0  0  0  0
 12 29  1  0  0  0  0
 13 14  1  0  0  0  0
 13 35  1  0  0  0  0
 14  7  1  1  0  0  0
 14 15  1  0  0  0  0
 15 16  1  0  0  0  0
 15 18  1  0  0  0  0
 15 30  1  1  0  0  0
 16 31  1  0  0  0  0
 17 18  1  0  0  0  0
 17 32  1  0  0  0  0
 17 33  1  0  0  0  0
 17 34  1  0  0  0  0
M  CHG  2   8   1  13   1
M  END
$$$$
