GIM
 OpenBabel04051917353D

 26 27  0  0  1  0  0  0  0  0999 V2000
  118.9358   38.7330   63.4664 C   0  0  0  0  0  0  0  0  0  0  0  0
  118.5935   37.6651   62.4684 C   0  0  1  0  0  0  0  0  0  0  0  0
  119.9415   39.6548   63.2568 N   0  3  0  0  0  0  0  0  0  0  0  0
  119.5576   37.6437   61.2691 C   0  0  2  0  0  0  0  0  0  0  0  0
  119.9949   39.0694   60.8873 C   0  0  1  0  0  0  0  0  0  0  0  0
  120.7862   39.6702   62.0671 C   0  0  1  0  0  0  0  0  0  0  0  0
  121.3933   41.0421   61.7356 C   0  0  0  0  0  0  0  0  0  0  0  0
  118.8950   40.1317   65.1069 C   0  0  0  0  0  0  0  0  0  0  0  0
  119.9400   40.5319   64.3030 C   0  0  0  0  0  0  0  0  0  0  0  0
  118.2941   39.0114   64.5816 N   0  0  0  0  0  0  0  0  0  0  0  0
  118.9385   37.0246   60.1327 O   0  0  0  0  0  0  0  0  0  0  0  0
  118.6249   36.3968   63.1354 O   0  0  0  0  0  0  0  0  0  0  0  0
  120.8089   38.9821   59.7055 O   0  0  0  0  0  0  0  0  0  0  0  0
  120.4252   42.0695   61.5424 O   0  0  0  0  0  0  0  0  0  0  0  0
  117.5643   37.8130   62.1219 H   0  0  0  0  0  0  0  0  0  0  0  0
  120.4397   37.0303   61.4974 H   0  0  0  0  0  0  0  0  0  0  0  0
  119.1114   39.6676   60.6354 H   0  0  0  0  0  0  0  0  0  0  0  0
  121.6277   39.0040   62.3007 H   0  0  0  0  0  0  0  0  0  0  0  0
  122.0121   40.9925   60.8333 H   0  0  0  0  0  0  0  0  0  0  0  0
  122.0601   41.3697   62.5405 H   0  0  0  0  0  0  0  0  0  0  0  0
  118.5389   40.5908   66.0118 H   0  0  0  0  0  0  0  0  0  0  0  0
  120.6128   41.3622   64.3882 H   0  0  0  0  0  0  0  0  0  0  0  0
  119.5963   37.0718   59.4128 H   0  0  0  0  0  0  0  0  0  0  0  0
  119.5004   36.2934   63.5428 H   0  0  0  0  0  0  0  0  0  0  0  0
  120.8923   39.8750   59.3210 H   0  0  0  0  0  0  0  0  0  0  0  0
  119.7547   41.7910   60.8973 H   0  0  0  0  0  0  0  0  0  0  0  0
  1  2  1  0  0  0  0
  1  3  2  0  0  0  0
  1 10  1  0  0  0  0
  2  4  1  0  0  0  0
  2 12  1  0  0  0  0
  2 15  1  6  0  0  0
  3  6  1  0  0  0  0
  3  9  1  0  0  0  0
  4  5  1  0  0  0  0
  4 11  1  0  0  0  0
  4 16  1  1  0  0  0
  5  6  1  0  0  0  0
  5 13  1  0  0  0  0
  5 17  1  6  0  0  0
  6  7  1  0  0  0  0
  6 18  1  1  0  0  0
  7 14  1  0  0  0  0
  7 19  1  0  0  0  0
  7 20  1  0  0  0  0
  8  9  2  0  0  0  0
  8 10  1  0  0  0  0
  8 21  1  0  0  0  0
  9 22  1  0  0  0  0
 11 23  1  0  0  0  0
 12 24  1  0  0  0  0
 13 25  1  0  0  0  0
 14 26  1  0  0  0  0
M  CHG  1   3   1
M  END
$$$$
