GIM
 OpenBabel04051917353D

 26 27  0  0  1  0  0  0  0  0999 V2000
   -0.9158   11.0200   10.6611 C   0  0  0  0  0  0  0  0  0  0  0  0
    0.1366   11.6219    9.7908 C   0  0  1  0  0  0  0  0  0  0  0  0
   -2.0417   10.4248   10.1478 N   0  3  0  0  0  0  0  0  0  0  0  0
   -0.3272   11.8324    8.3407 C   0  0  2  0  0  0  0  0  0  0  0  0
   -1.1955   10.6591    7.8458 C   0  0  1  0  0  0  0  0  0  0  0  0
   -2.4413   10.5506    8.7497 C   0  0  1  0  0  0  0  0  0  0  0  0
   -3.4539    9.4952    8.2652 C   0  0  0  0  0  0  0  0  0  0  0  0
   -1.9414   10.0528   12.2836 C   0  0  0  0  0  0  0  0  0  0  0  0
   -2.6753    9.7657   11.1558 C   0  0  0  0  0  0  0  0  0  0  0  0
   -0.8641   10.8520   11.9743 N   0  0  0  0  0  0  0  0  0  0  0  0
    0.8383   11.9957    7.5070 O   0  0  0  0  0  0  0  0  0  0  0  0
    0.5499   12.8881   10.3113 O   0  0  0  0  0  0  0  0  0  0  0  0
   -1.6212   10.9169    6.4983 O   0  0  0  0  0  0  0  0  0  0  0  0
   -3.0036    8.1529    8.4086 O   0  0  0  0  0  0  0  0  0  0  0  0
    1.0200   10.9727    9.8065 H   0  0  0  0  0  0  0  0  0  0  0  0
   -0.8891   12.7745    8.2424 H   0  0  0  0  0  0  0  0  0  0  0  0
   -0.5997    9.7391    7.8417 H   0  0  0  0  0  0  0  0  0  0  0  0
   -2.9727   11.5117    8.6987 H   0  0  0  0  0  0  0  0  0  0  0  0
   -3.7214    9.6560    7.2160 H   0  0  0  0  0  0  0  0  0  0  0  0
   -4.3891    9.5873    8.8314 H   0  0  0  0  0  0  0  0  0  0  0  0
   -2.1195    9.7128   13.2932 H   0  0  0  0  0  0  0  0  0  0  0  0
   -3.5568    9.1531   11.0161 H   0  0  0  0  0  0  0  0  0  0  0  0
    1.3644   12.7138    7.9169 H   0  0  0  0  0  0  0  0  0  0  0  0
   -0.2348   13.3192   10.6902 H   0  0  0  0  0  0  0  0  0  0  0  0
   -1.7070   10.0642    6.0328 H   0  0  0  0  0  0  0  0  0  0  0  0
   -2.1575    8.0361    7.9476 H   0  0  0  0  0  0  0  0  0  0  0  0
  1  2  1  0  0  0  0
  1  3  2  0  0  0  0
  1 10  1  0  0  0  0
  2  4  1  0  0  0  0
  2 12  1  0  0  0  0
  2 15  1  6  0  0  0
  3  6  1  0  0  0  0
  3  9  1  0  0  0  0
  4  5  1  0  0  0  0
  4 11  1  0  0  0  0
  4 16  1  6  0  0  0
  5  6  1  0  0  0  0
  5 13  1  0  0  0  0
  5 17  1  1  0  0  0
  6  7  1  0  0  0  0
  6 18  1  6  0  0  0
  7 14  1  0  0  0  0
  7 19  1  0  0  0  0
  7 20  1  0  0  0  0
  8  9  2  0  0  0  0
  8 10  1  0  0  0  0
  8 21  1  0  0  0  0
  9 22  1  0  0  0  0
 11 23  1  0  0  0  0
 12 24  1  0  0  0  0
 13 25  1  0  0  0  0
 14 26  1  0  0  0  0
M  CHG  1   3   1
M  END
$$$$
