GLU
 OpenBabel04051920333D

 18 17  0  0  1  0  0  0  0  0999 V2000
  -28.4479   34.6559    7.9873 N   0  3  0  0  0  0  0  0  0  0  0  0
  -28.3065   35.4717    6.7021 C   0  0  2  0  0  0  0  0  0  0  0  0
  -29.4619   36.5304    6.5356 C   0  0  0  0  0  0  0  0  0  0  0  0
  -30.1164   36.6812    7.6263 O   0  0  0  0  0  0  0  0  0  0  0  0
  -28.2133   34.5025    5.5250 C   0  0  0  0  0  0  0  0  0  0  0  0
  -26.8567   33.7957    5.4191 C   0  0  0  0  0  0  0  0  0  0  0  0
  -25.7103   34.7349    4.9902 C   0  0  0  0  0  0  0  0  0  0  0  0
  -26.0510   35.8088    4.4487 O   0  0  0  0  0  0  0  0  0  0  0  0
  -24.5572   34.3182    5.3069 O   0  0  0  0  0  0  0  0  0  0  0  0
  -29.6584   37.0200    5.4138 O   0  0  0  0  0  0  0  0  0  0  0  0
  -27.6769   34.0056    8.1226 H   0  0  0  0  0  0  0  0  0  0  0  0
  -28.4807   35.3315    8.7527 H   0  0  0  0  0  0  0  0  0  0  0  0
  -27.3660   36.0084    6.8297 H   0  0  0  0  0  0  0  0  0  0  0  0
  -28.3873   35.0599    4.6009 H   0  0  0  0  0  0  0  0  0  0  0  0
  -29.0077   33.7465    5.5913 H   0  0  0  0  0  0  0  0  0  0  0  0
  -26.9302   33.0068    4.6587 H   0  0  0  0  0  0  0  0  0  0  0  0
  -26.6086   33.3122    6.3695 H   0  0  0  0  0  0  0  0  0  0  0  0
  -29.3699   34.2179    7.9742 H   0  0  0  0  0  0  0  0  0  0  0  0
  1  2  1  0  0  0  0
  1 11  1  0  0  0  0
  1 12  1  0  0  0  0
  1 18  1  0  0  0  0
  2  3  1  0  0  0  0
  2  5  1  0  0  0  0
  2 13  1  1  0  0  0
  3  4  2  0  0  0  0
  3 10  1  0  0  0  0
  5  6  1  0  0  0  0
  5 14  1  0  0  0  0
  5 15  1  0  0  0  0
  6  7  1  0  0  0  0
  6 16  1  0  0  0  0
  6 17  1  0  0  0  0
  7  8  2  0  0  0  0
  7  9  1  0  0  0  0
M  CHG  1   1   1
M  END
$$$$
