GLU
 OpenBabel04051917163D

 18 17  0  0  1  0  0  0  0  0999 V2000
   15.8855   24.1405   38.9419 N   0  3  0  0  0  0  0  0  0  0  0  0
   15.9539   25.1802   37.8233 C   0  0  2  0  0  0  0  0  0  0  0  0
   14.7351   26.1600   37.8756 C   0  0  0  0  0  0  0  0  0  0  0  0
   14.6543   27.0697   37.0274 O   0  0  0  0  0  0  0  0  0  0  0  0
   15.9959   24.4358   36.4871 C   0  0  0  0  0  0  0  0  0  0  0  0
   17.3831   23.9163   36.1142 C   0  0  0  0  0  0  0  0  0  0  0  0
   18.4257   25.0082   35.8719 C   0  0  0  0  0  0  0  0  0  0  0  0
   19.5116   24.8188   36.4947 O   0  0  0  0  0  0  0  0  0  0  0  0
   18.0735   25.9450   35.1186 O   0  0  0  0  0  0  0  0  0  0  0  0
   13.9615   25.8582   38.8543 O   0  0  0  0  0  0  0  0  0  0  0  0
   16.6661   23.4907   38.9377 H   0  0  0  0  0  0  0  0  0  0  0  0
   15.8038   24.6673   39.8197 H   0  0  0  0  0  0  0  0  0  0  0  0
   16.8687   25.7422   38.0280 H   0  0  0  0  0  0  0  0  0  0  0  0
   15.6286   25.0840   35.6886 H   0  0  0  0  0  0  0  0  0  0  0  0
   15.3079   23.5773   36.5235 H   0  0  0  0  0  0  0  0  0  0  0  0
   17.3040   23.3417   35.1851 H   0  0  0  0  0  0  0  0  0  0  0  0
   17.7531   23.2250   36.8864 H   0  0  0  0  0  0  0  0  0  0  0  0
   14.9633   23.6782   38.8623 H   0  0  0  0  0  0  0  0  0  0  0  0
  1  2  1  0  0  0  0
  1 11  1  0  0  0  0
  1 12  1  0  0  0  0
  1 18  1  0  0  0  0
  2  3  1  0  0  0  0
  2  5  1  0  0  0  0
  2 13  1  1  0  0  0
  3  4  2  0  0  0  0
  3 10  1  0  0  0  0
  5  6  1  0  0  0  0
  5 14  1  0  0  0  0
  5 15  1  0  0  0  0
  6  7  1  0  0  0  0
  6 16  1  0  0  0  0
  6 17  1  0  0  0  0
  7  8  2  0  0  0  0
  7  9  1  0  0  0  0
M  CHG  1   1   1
M  END
$$$$
