GNA
 OpenBabel04051919143D

 43 43  0  0  1  0  0  0  0  0999 V2000
   23.5412   19.7378   64.9175 C   0  0  0  0  0  0  0  0  0  0  0  0
   24.3272   18.6505   64.0911 C   0  0  0  0  0  0  0  0  0  0  0  0
   23.6687   17.6222   63.5254 C   0  0  0  0  0  0  0  0  0  0  0  0
   24.3480   16.6902   62.5962 C   0  0  1  0  0  0  0  0  0  0  0  0
   25.8862   16.7317   62.7599 C   0  0  2  0  0  0  0  0  0  0  0  0
   26.2998   18.2065   62.8112 C   0  0  2  0  0  0  0  0  0  0  0  0
   27.8252   18.3868   62.9743 C   0  0  1  0  0  0  0  0  0  0  0  0
   28.2188   19.8831   62.9644 C   0  0  1  0  0  0  0  0  0  0  0  0
   29.7268   20.0895   63.1183 C   0  0  0  0  0  0  0  0  0  0  0  0
   27.0026   14.7043   61.8444 C   0  0  0  0  0  0  0  0  0  0  0  0
   27.7164   14.1722   60.6343 C   0  0  0  0  0  0  0  0  0  0  0  0
   26.5470   15.9920   61.6731 N   0  0  0  0  0  0  0  0  0  0  0  0
   23.8181   15.3283   62.7902 N   0  0  0  0  0  0  0  0  0  0  0  0
   23.7600   14.4044   61.8228 C   0  0  0  0  0  0  0  0  0  0  0  0
   23.8806   14.7042   60.5182 N   0  0  0  0  0  0  0  0  0  0  0  0
   23.5616   13.1257   62.1469 N   0  0  0  0  0  0  0  0  0  0  0  0
   24.2124   20.7733   65.2013 O   0  0  0  0  0  0  0  0  0  0  0  0
   22.3341   19.4555   65.1455 O   0  0  0  0  0  0  0  0  0  0  0  0
   25.6852   18.8616   63.9268 O   0  0  0  0  0  0  0  0  0  0  0  0
   28.2673   17.7477   64.1746 O   0  0  0  0  0  0  0  0  0  0  0  0
   27.8099   20.4740   61.7198 O   0  0  0  0  0  0  0  0  0  0  0  0
   30.4287   19.4066   62.0721 O   0  0  0  0  0  0  0  0  0  0  0  0
   26.7587   14.0152   62.8275 O   0  0  0  0  0  0  0  0  0  0  0  0
   22.5954   17.5397   63.6835 H   0  0  0  0  0  0  0  0  0  0  0  0
   24.0636   17.0282   61.5911 H   0  0  0  0  0  0  0  0  0  0  0  0
   26.1366   16.2467   63.7104 H   0  0  0  0  0  0  0  0  0  0  0  0
   25.9793   18.7119   61.8868 H   0  0  0  0  0  0  0  0  0  0  0  0
   28.3234   17.8857   62.1352 H   0  0  0  0  0  0  0  0  0  0  0  0
   27.7144   20.4172   63.7708 H   0  0  0  0  0  0  0  0  0  0  0  0
   30.0852   19.7194   64.0832 H   0  0  0  0  0  0  0  0  0  0  0  0
   29.9770   21.1534   63.0409 H   0  0  0  0  0  0  0  0  0  0  0  0
   28.1166   13.1778   60.8479 H   0  0  0  0  0  0  0  0  0  0  0  0
   28.5399   14.8350   60.3557 H   0  0  0  0  0  0  0  0  0  0  0  0
   27.0024   14.1004   59.8088 H   0  0  0  0  0  0  0  0  0  0  0  0
   26.7731   16.4823   60.8178 H   0  0  0  0  0  0  0  0  0  0  0  0
   23.5858   15.0695   63.7315 H   0  0  0  0  0  0  0  0  0  0  0  0
   23.8231   13.9898   59.8109 H   0  0  0  0  0  0  0  0  0  0  0  0
   23.9474   15.6606   60.2038 H   0  0  0  0  0  0  0  0  0  0  0  0
   23.5670   12.3956   61.4516 H   0  0  0  0  0  0  0  0  0  0  0  0
   27.7295   18.1252   64.9024 H   0  0  0  0  0  0  0  0  0  0  0  0
   28.2545   19.9902   61.0055 H   0  0  0  0  0  0  0  0  0  0  0  0
   30.3512   19.9610   61.2788 H   0  0  0  0  0  0  0  0  0  0  0  0
   23.5799   12.8462   63.1251 H   0  0  0  0  0  0  0  0  0  0  0  0
  1 18  2  0  0  0  0
  1 17  1  0  0  0  0
  1  2  1  0  0  0  0
  2 19  1  0  0  0  0
  2  3  2  0  0  0  0
  3  4  1  0  0  0  0
  3 24  1  0  0  0  0
  4 13  1  0  0  0  0
  4  5  1  0  0  0  0
  4 25  1  6  0  0  0
  5 12  1  0  0  0  0
  5  6  1  0  0  0  0
  5 26  1  1  0  0  0
  6 19  1  0  0  0  0
  6  7  1  0  0  0  0
  6 27  1  6  0  0  0
  7 20  1  0  0  0  0
  7  8  1  0  0  0  0
  7 28  1  6  0  0  0
  8 21  1  0  0  0  0
  8  9  1  0  0  0  0
  8 29  1  1  0  0  0
  9 22  1  0  0  0  0
  9 30  1  0  0  0  0
  9 31  1  0  0  0  0
 10 12  1  0  0  0  0
 10 23  2  0  0  0  0
 10 11  1  0  0  0  0
 11 32  1  0  0  0  0
 11 33  1  0  0  0  0
 11 34  1  0  0  0  0
 12 35  1  0  0  0  0
 13 14  1  0  0  0  0
 13 36  1  0  0  0  0
 14 16  2  0  0  0  0
 14 15  1  0  0  0  0
 15 37  1  0  0  0  0
 15 38  1  0  0  0  0
 16 39  1  0  0  0  0
 16 43  1  0  0  0  0
 20 40  1  0  0  0  0
 21 41  1  0  0  0  0
 22 42  1  0  0  0  0
M  END
$$$$
