GOX
 OpenBabel04051918203D

 26 26  0  0  1  0  0  0  0  0999 V2000
    0.1059   11.4426   10.3383 C   0  0  0  0  0  0  0  0  0  0  0  0
    0.4770   11.3369   11.6119 N   0  3  0  0  0  0  0  0  0  0  0  0
    1.1142   12.0962    9.4397 C   0  0  2  0  0  0  0  0  0  0  0  0
   -1.0516   11.0158    9.8934 N   0  0  0  0  0  0  0  0  0  0  0  0
   -0.4214   10.7366   12.4852 O   0  0  0  0  0  0  0  0  0  0  0  0
    1.6252   13.2601   10.1022 O   0  0  0  0  0  0  0  0  0  0  0  0
    0.5409   12.4068    8.0486 C   0  0  1  0  0  0  0  0  0  0  0  0
    1.6134   12.6490    7.1331 O   0  0  0  0  0  0  0  0  0  0  0  0
   -0.2953   11.2084    7.5605 C   0  0  2  0  0  0  0  0  0  0  0  0
   -0.6864   11.4338    6.2042 O   0  0  0  0  0  0  0  0  0  0  0  0
   -1.5121   11.1227    8.4875 C   0  0  1  0  0  0  0  0  0  0  0  0
   -2.4145    9.9222    8.1706 C   0  0  0  0  0  0  0  0  0  0  0  0
   -1.7556    8.7039    8.5041 O   0  0  0  0  0  0  0  0  0  0  0  0
    1.9644   11.4149    9.3247 H   0  0  0  0  0  0  0  0  0  0  0  0
   -1.6374   10.5345   10.5725 H   0  0  0  0  0  0  0  0  0  0  0  0
    0.0364   10.7484   13.3545 H   0  0  0  0  0  0  0  0  0  0  0  0
    0.9961   13.9977    9.9964 H   0  0  0  0  0  0  0  0  0  0  0  0
   -0.0652   13.3211    8.0624 H   0  0  0  0  0  0  0  0  0  0  0  0
    1.2124   12.7912    6.2511 H   0  0  0  0  0  0  0  0  0  0  0  0
    0.3205   10.3003    7.5900 H   0  0  0  0  0  0  0  0  0  0  0  0
   -1.0291   10.6013    5.8250 H   0  0  0  0  0  0  0  0  0  0  0  0
   -2.1167   12.0333    8.3931 H   0  0  0  0  0  0  0  0  0  0  0  0
   -2.7247    9.9031    7.1208 H   0  0  0  0  0  0  0  0  0  0  0  0
   -3.3212    9.9757    8.7807 H   0  0  0  0  0  0  0  0  0  0  0  0
   -1.0642    8.5103    7.8458 H   0  0  0  0  0  0  0  0  0  0  0  0
    1.3655   11.7124   11.9317 H   0  0  0  0  0  0  0  0  0  0  0  0
  1  2  2  0  0  0  0
  1  3  1  0  0  0  0
  1  4  1  0  0  0  0
  2  5  1  0  0  0  0
  2 26  1  0  0  0  0
  3  6  1  0  0  0  0
  3  7  1  0  0  0  0
  3 14  1  6  0  0  0
  4 11  1  0  0  0  0
  4 15  1  0  0  0  0
  5 16  1  0  0  0  0
  6 17  1  0  0  0  0
  7  8  1  0  0  0  0
  7  9  1  0  0  0  0
  7 18  1  1  0  0  0
  8 19  1  0  0  0  0
  9 10  1  0  0  0  0
  9 11  1  0  0  0  0
  9 20  1  1  0  0  0
 10 21  1  0  0  0  0
 11 12  1  0  0  0  0
 11 22  1  6  0  0  0
 12 13  1  0  0  0  0
 12 23  1  0  0  0  0
 12 24  1  0  0  0  0
 13 25  1  0  0  0  0
M  CHG  1   2   1
M  END
$$$$
