GPS
 OpenBabel04051918043D

 61 63  0  0  1  0  0  0  0  0999 V2000
   14.5467   14.7034   24.9004 N   0  3  0  0  0  0  0  0  0  0  0  0
   14.2383   15.2921   26.2572 C   0  0  2  0  0  0  0  0  0  0  0  0
   13.3052   16.5339   26.1166 C   0  0  0  0  0  0  0  0  0  0  0  0
   12.5369   16.7654   27.0801 O   0  0  0  0  0  0  0  0  0  0  0  0
   13.3838   17.0313   24.9518 O   0  0  0  0  0  0  0  0  0  0  0  0
   15.5743   15.6204   26.9047 C   0  0  0  0  0  0  0  0  0  0  0  0
   15.3243   15.9540   28.3622 C   0  0  0  0  0  0  0  0  0  0  0  0
   16.5909   16.1112   29.1455 C   0  0  0  0  0  0  0  0  0  0  0  0
   17.7140   15.9955   28.6711 O   0  0  0  0  0  0  0  0  0  0  0  0
   16.3264   16.4303   30.4489 N   0  0  0  0  0  0  0  0  0  0  0  0
   17.3466   17.0263   31.2976 C   0  0  2  0  0  0  0  0  0  0  0  0
   17.2020   16.5170   32.7387 C   0  0  0  0  0  0  0  0  0  0  0  0
   17.8111   17.0402   33.6545 O   0  0  0  0  0  0  0  0  0  0  0  0
   17.1711   18.5557   31.3446 C   0  0  0  0  0  0  0  0  0  0  0  0
   17.2605   19.4389   29.7417 S   0  0  0  0  0  0  0  0  0  0  0  0
   16.3007   15.4763   32.8823 N   0  0  0  0  0  0  0  0  0  0  0  0
   16.0503   14.8834   34.1991 C   0  0  0  0  0  0  0  0  0  0  0  0
   16.7878   13.5665   34.5397 C   0  0  0  0  0  0  0  0  0  0  0  0
   17.6193   13.1578   33.6797 O   0  0  0  0  0  0  0  0  0  0  0  0
   16.4103   13.0249   35.6189 O   0  0  0  0  0  0  0  0  0  0  0  0
   19.0802   19.4297   29.3568 C   0  0  1  0  0  0  0  0  0  0  0  0
   19.4034   20.7599   28.6853 C   0  0  0  0  0  0  0  0  0  0  0  0
   19.2689   20.8881   27.2980 C   0  0  0  0  0  0  0  0  0  0  0  0
   19.6025   22.0838   26.6775 C   0  0  0  0  0  0  0  0  0  0  0  0
   20.0535   23.1622   27.4306 C   0  0  0  0  0  0  0  0  0  0  0  0
   20.1547   23.0525   28.8253 C   0  0  0  0  0  0  0  0  0  0  0  0
   19.8332   21.8572   29.4771 C   0  0  0  0  0  0  0  0  0  0  0  0
   19.9611   21.6956   30.9378 C   0  0  0  0  0  0  0  0  0  0  0  0
   19.9575   22.7787   31.8300 C   0  0  0  0  0  0  0  0  0  0  0  0
   20.0790   22.5766   33.2058 C   0  0  0  0  0  0  0  0  0  0  0  0
   20.1956   21.2867   33.7133 C   0  0  0  0  0  0  0  0  0  0  0  0
   20.1982   20.1956   32.8502 C   0  0  0  0  0  0  0  0  0  0  0  0
   20.0796   20.3952   31.4693 C   0  0  0  0  0  0  0  0  0  0  0  0
   20.0785   19.2174   30.5249 C   0  0  2  0  0  0  0  0  0  0  0  0
   21.4291   19.0683   30.0556 O   0  0  0  0  0  0  0  0  0  0  0  0
   13.6457   14.5281   24.4411 H   0  0  0  0  0  0  0  0  0  0  0  0
   14.9459   15.4827   24.3547 H   0  0  0  0  0  0  0  0  0  0  0  0
   13.7223   14.5021   26.8130 H   0  0  0  0  0  0  0  0  0  0  0  0
   16.0783   16.4560   26.3968 H   0  0  0  0  0  0  0  0  0  0  0  0
   16.2597   14.7639   26.8319 H   0  0  0  0  0  0  0  0  0  0  0  0
   14.7376   15.1565   28.8321 H   0  0  0  0  0  0  0  0  0  0  0  0
   14.7680   16.8945   28.4345 H   0  0  0  0  0  0  0  0  0  0  0  0
   15.3721   16.4591   30.7957 H   0  0  0  0  0  0  0  0  0  0  0  0
   18.3345   16.7373   30.9404 H   0  0  0  0  0  0  0  0  0  0  0  0
   17.8402   19.0213   32.0669 H   0  0  0  0  0  0  0  0  0  0  0  0
   16.1630   18.7749   31.7163 H   0  0  0  0  0  0  0  0  0  0  0  0
   16.2046   14.8496   32.0980 H   0  0  0  0  0  0  0  0  0  0  0  0
   14.9746   14.6858   34.2234 H   0  0  0  0  0  0  0  0  0  0  0  0
   16.2850   15.6235   34.9692 H   0  0  0  0  0  0  0  0  0  0  0  0
   19.2360   18.6296   28.6218 H   0  0  0  0  0  0  0  0  0  0  0  0
   18.9020   20.0529   26.7060 H   0  0  0  0  0  0  0  0  0  0  0  0
   19.5172   22.1800   25.6039 H   0  0  0  0  0  0  0  0  0  0  0  0
   20.3123   24.0919   26.9586 H   0  0  0  0  0  0  0  0  0  0  0  0
   20.5143   23.9126   29.3865 H   0  0  0  0  0  0  0  0  0  0  0  0
   19.8491   23.7974   31.4696 H   0  0  0  0  0  0  0  0  0  0  0  0
   20.0791   23.4300   33.8775 H   0  0  0  0  0  0  0  0  0  0  0  0
   20.2823   21.1241   34.7830 H   0  0  0  0  0  0  0  0  0  0  0  0
   20.2733   19.1872   33.2521 H   0  0  0  0  0  0  0  0  0  0  0  0
   19.8465   18.2913   31.0528 H   0  0  0  0  0  0  0  0  0  0  0  0
   21.4454   18.3256   29.4318 H   0  0  0  0  0  0  0  0  0  0  0  0
   15.1464   13.8808   24.9269 H   0  0  0  0  0  0  0  0  0  0  0  0
  1  2  1  0  0  0  0
  1 36  1  0  0  0  0
  1 37  1  0  0  0  0
  1 61  1  0  0  0  0
  2  6  1  0  0  0  0
  2  3  1  0  0  0  0
  2 38  1  1  0  0  0
  3  5  2  0  0  0  0
  3  4  1  0  0  0  0
  6  7  1  0  0  0  0
  6 39  1  0  0  0  0
  6 40  1  0  0  0  0
  7  8  1  0  0  0  0
  7 41  1  0  0  0  0
  7 42  1  0  0  0  0
  8 10  1  0  0  0  0
  8  9  2  0  0  0  0
 10 11  1  0  0  0  0
 10 43  1  0  0  0  0
 11 14  1  0  0  0  0
 11 12  1  0  0  0  0
 11 44  1  6  0  0  0
 12 16  1  0  0  0  0
 12 13  2  0  0  0  0
 14 15  1  0  0  0  0
 14 45  1  0  0  0  0
 14 46  1  0  0  0  0
 15 21  1  0  0  0  0
 16 17  1  0  0  0  0
 16 47  1  0  0  0  0
 17 18  1  0  0  0  0
 17 48  1  0  0  0  0
 17 49  1  0  0  0  0
 18 20  2  0  0  0  0
 18 19  1  0  0  0  0
 21 22  1  0  0  0  0
 21 34  1  0  0  0  0
 21 50  1  6  0  0  0
 22 27  1  0  0  0  0
 22 23  2  0  0  0  0
 23 24  1  0  0  0  0
 23 51  1  0  0  0  0
 24 25  2  0  0  0  0
 24 52  1  0  0  0  0
 25 26  1  0  0  0  0
 25 53  1  0  0  0  0
 26 27  2  0  0  0  0
 26 54  1  0  0  0  0
 27 28  1  0  0  0  0
 28 33  1  0  0  0  0
 28 29  2  0  0  0  0
 29 30  1  0  0  0  0
 29 55  1  0  0  0  0
 30 31  2  0  0  0  0
 30 56  1  0  0  0  0
 31 32  1  0  0  0  0
 31 57  1  0  0  0  0
 32 33  2  0  0  0  0
 32 58  1  0  0  0  0
 33 34  1  0  0  0  0
 34 35  1  0  0  0  0
 34 59  1  1  0  0  0
 35 60  1  0  0  0  0
M  CHG  1   1   1
M  END
$$$$
