GRL
 OpenBabel04051918093D

 79 82  0  0  1  0  0  0  0  0999 V2000
   15.3090   24.3344   19.2378 C   0  0  2  0  0  0  0  0  0  0  0  0
   15.3593   25.1650   17.9418 C   0  0  0  0  0  0  0  0  0  0  0  0
   18.2898   24.0029   18.6206 O   0  0  0  0  0  0  0  0  0  0  0  0
   18.0656   23.7570   17.2172 C   0  0  0  0  0  0  0  0  0  0  0  0
   16.8094   25.6863   17.7906 C   0  0  2  0  0  0  0  0  0  0  0  0
   16.5010   24.8134   20.0652 C   0  0  0  0  0  0  0  0  0  0  0  0
   17.6004   25.0744   16.6436 C   0  0  0  0  0  0  0  0  0  0  0  0
   17.5600   25.1880   19.0226 C   0  0  1  0  0  0  0  0  0  0  0  0
   15.5428   22.9373   18.9350 O   0  0  0  0  0  0  0  0  0  0  0  0
   14.5585   22.2626   18.3360 C   0  0  0  0  0  0  0  0  0  0  0  0
   14.0529   20.1506   17.1535 C   0  0  2  0  0  0  0  0  0  0  0  0
   14.7953   19.6654   15.8956 C   0  0  0  0  0  0  0  0  0  0  0  0
   15.1842   20.8339   15.0036 C   0  0  0  0  0  0  0  0  0  0  0  0
   14.1995   21.5543   14.3165 C   0  0  0  0  0  0  0  0  0  0  0  0
   14.5364   22.6581   13.5163 C   0  0  0  0  0  0  0  0  0  0  0  0
   15.8662   23.0660   13.3957 C   0  0  0  0  0  0  0  0  0  0  0  0
   16.8535   22.3598   14.0854 C   0  0  0  0  0  0  0  0  0  0  0  0
   16.5158   21.2548   14.8852 C   0  0  0  0  0  0  0  0  0  0  0  0
   13.4144   22.7159   18.1853 O   0  0  0  0  0  0  0  0  0  0  0  0
   14.9528   21.0600   17.8869 N   0  0  0  0  0  0  0  0  0  0  0  0
   13.6527   19.0081   18.1192 C   0  0  1  0  0  0  0  0  0  0  0  0
   12.5687   18.0717   17.5750 C   0  0  0  0  0  0  0  0  0  0  0  0
   10.3092   18.4569   18.6495 C   0  0  0  0  0  0  0  0  0  0  0  0
   10.6474   19.1237   19.9865 C   0  0  0  0  0  0  0  0  0  0  0  0
    9.6281   18.5997   21.0067 C   0  0  0  0  0  0  0  0  0  0  0  0
   10.5670   20.6493   19.8896 C   0  0  0  0  0  0  0  0  0  0  0  0
   14.8170   18.2106   18.4228 O   0  0  0  0  0  0  0  0  0  0  0  0
   11.7134   19.3159   15.1412 O   0  0  0  0  0  0  0  0  0  0  0  0
    9.6994   20.2687   16.3293 O   0  0  0  0  0  0  0  0  0  0  0  0
   11.2656   18.7422   17.5680 N   0  0  0  0  0  0  0  0  0  0  0  0
   10.6082   19.1778   16.0755 S   0  0  0  0  0  0  0  0  0  0  0  0
    9.6366   17.8056   15.5629 C   0  0  0  0  0  0  0  0  0  0  0  0
    8.2399   17.8799   15.7000 C   0  0  0  0  0  0  0  0  0  0  0  0
    7.4543   16.8233   15.2537 C   0  0  0  0  0  0  0  0  0  0  0  0
    8.0575   15.7114   14.6494 C   0  0  0  0  0  0  0  0  0  0  0  0
    9.4574   15.6575   14.5086 C   0  0  0  0  0  0  0  0  0  0  0  0
   10.2517   16.7110   14.9551 C   0  0  0  0  0  0  0  0  0  0  0  0
    7.1931   14.5781   14.1731 C   0  0  0  0  0  0  0  0  0  0  0  0
    7.1422   13.5922   15.1936 O   0  0  0  0  0  0  0  0  0  0  0  0
   14.3475   24.4634   19.7673 H   0  0  0  0  0  0  0  0  0  0  0  0
   14.6579   26.0136   18.0150 H   0  0  0  0  0  0  0  0  0  0  0  0
   15.0619   24.5611   17.0781 H   0  0  0  0  0  0  0  0  0  0  0  0
   17.2977   22.9820   17.1003 H   0  0  0  0  0  0  0  0  0  0  0  0
   18.9895   23.3866   16.7565 H   0  0  0  0  0  0  0  0  0  0  0  0
   16.7787   26.7793   17.7111 H   0  0  0  0  0  0  0  0  0  0  0  0
   16.8599   24.0111   20.7230 H   0  0  0  0  0  0  0  0  0  0  0  0
   16.2329   25.6826   20.6778 H   0  0  0  0  0  0  0  0  0  0  0  0
   17.0197   24.9373   15.7289 H   0  0  0  0  0  0  0  0  0  0  0  0
   18.4757   25.6982   16.3976 H   0  0  0  0  0  0  0  0  0  0  0  0
   18.2775   25.9280   19.4135 H   0  0  0  0  0  0  0  0  0  0  0  0
   13.1385   20.6963   16.8546 H   0  0  0  0  0  0  0  0  0  0  0  0
   14.1828   18.9605   15.3166 H   0  0  0  0  0  0  0  0  0  0  0  0
   15.7029   19.1173   16.1938 H   0  0  0  0  0  0  0  0  0  0  0  0
   13.1566   21.2489   14.4049 H   0  0  0  0  0  0  0  0  0  0  0  0
   13.7501   23.1926   12.9877 H   0  0  0  0  0  0  0  0  0  0  0  0
   16.1380   23.9221   12.7732 H   0  0  0  0  0  0  0  0  0  0  0  0
   17.8949   22.6665   14.0037 H   0  0  0  0  0  0  0  0  0  0  0  0
   17.3036   20.7263   15.4195 H   0  0  0  0  0  0  0  0  0  0  0  0
   15.8985   20.7622   18.0690 H   0  0  0  0  0  0  0  0  0  0  0  0
   13.3155   19.4601   19.0627 H   0  0  0  0  0  0  0  0  0  0  0  0
   12.5382   17.1525   18.1703 H   0  0  0  0  0  0  0  0  0  0  0  0
   12.8491   17.7685   16.5586 H   0  0  0  0  0  0  0  0  0  0  0  0
    9.3251   18.8222   18.3338 H   0  0  0  0  0  0  0  0  0  0  0  0
   10.2326   17.3732   18.7876 H   0  0  0  0  0  0  0  0  0  0  0  0
   11.6550   18.8456   20.3183 H   0  0  0  0  0  0  0  0  0  0  0  0
    9.8007   19.0192   22.0030 H   0  0  0  0  0  0  0  0  0  0  0  0
    9.6890   17.5047   21.0784 H   0  0  0  0  0  0  0  0  0  0  0  0
    8.6074   18.8584   20.6927 H   0  0  0  0  0  0  0  0  0  0  0  0
   11.3066   21.0305   19.1757 H   0  0  0  0  0  0  0  0  0  0  0  0
   10.7595   21.1213   20.8624 H   0  0  0  0  0  0  0  0  0  0  0  0
    9.5718   20.9612   19.5495 H   0  0  0  0  0  0  0  0  0  0  0  0
   15.1083   17.7900   17.5967 H   0  0  0  0  0  0  0  0  0  0  0  0
    7.7747   18.7517   16.1622 H   0  0  0  0  0  0  0  0  0  0  0  0
    6.3715   16.8571   15.3652 H   0  0  0  0  0  0  0  0  0  0  0  0
    9.9197   14.7888   14.0431 H   0  0  0  0  0  0  0  0  0  0  0  0
   11.3327   16.6847   14.8433 H   0  0  0  0  0  0  0  0  0  0  0  0
    7.6048   14.1420   13.2573 H   0  0  0  0  0  0  0  0  0  0  0  0
    6.1807   14.9438   13.9683 H   0  0  0  0  0  0  0  0  0  0  0  0
    6.5746   12.8692   14.8805 H   0  0  0  0  0  0  0  0  0  0  0  0
  1  2  1  0  0  0  0
  1  6  1  0  0  0  0
  1  9  1  0  0  0  0
  1 40  1  1  0  0  0
  2  5  1  0  0  0  0
  2 41  1  0  0  0  0
  2 42  1  0  0  0  0
  3  4  1  0  0  0  0
  3  8  1  0  0  0  0
  4  7  1  0  0  0  0
  4 43  1  0  0  0  0
  4 44  1  0  0  0  0
  5  7  1  0  0  0  0
  5  8  1  0  0  0  0
  5 45  1  6  0  0  0
  6  8  1  0  0  0  0
  6 46  1  0  0  0  0
  6 47  1  0  0  0  0
  7 48  1  0  0  0  0
  7 49  1  0  0  0  0
  8 50  1  1  0  0  0
  9 10  1  0  0  0  0
 10 19  2  0  0  0  0
 10 20  1  0  0  0  0
 11 12  1  0  0  0  0
 11 20  1  0  0  0  0
 11 21  1  0  0  0  0
 11 51  1  6  0  0  0
 12 13  1  0  0  0  0
 12 52  1  0  0  0  0
 12 53  1  0  0  0  0
 13 14  2  0  0  0  0
 13 18  1  0  0  0  0
 14 15  1  0  0  0  0
 14 54  1  0  0  0  0
 15 16  2  0  0  0  0
 15 55  1  0  0  0  0
 16 17  1  0  0  0  0
 16 56  1  0  0  0  0
 17 18  2  0  0  0  0
 17 57  1  0  0  0  0
 18 58  1  0  0  0  0
 20 59  1  0  0  0  0
 21 22  1  0  0  0  0
 21 27  1  0  0  0  0
 21 60  1  1  0  0  0
 22 30  1  0  0  0  0
 22 61  1  0  0  0  0
 22 62  1  0  0  0  0
 23 24  1  0  0  0  0
 23 30  1  0  0  0  0
 23 63  1  0  0  0  0
 23 64  1  0  0  0  0
 24 25  1  0  0  0  0
 24 26  1  0  0  0  0
 24 65  1  0  0  0  0
 25 66  1  0  0  0  0
 25 67  1  0  0  0  0
 25 68  1  0  0  0  0
 26 69  1  0  0  0  0
 26 70  1  0  0  0  0
 26 71  1  0  0  0  0
 27 72  1  0  0  0  0
 28 31  2  0  0  0  0
 29 31  2  0  0  0  0
 30 31  1  0  0  0  0
 31 32  1  0  0  0  0
 32 33  2  0  0  0  0
 32 37  1  0  0  0  0
 33 34  1  0  0  0  0
 33 73  1  0  0  0  0
 34 35  2  0  0  0  0
 34 74  1  0  0  0  0
 35 36  1  0  0  0  0
 35 38  1  0  0  0  0
 36 37  2  0  0  0  0
 36 75  1  0  0  0  0
 37 76  1  0  0  0  0
 38 39  1  0  0  0  0
 38 77  1  0  0  0  0
 38 78  1  0  0  0  0
 39 79  1  0  0  0  0
M  END
$$$$
