GS6
 OpenBabel04051918173D

 52 55  0  0  1  0  0  0  0  0999 V2000
   13.7373    7.3027   26.6628 Cl  0  0  0  0  0  0  0  0  0  0  0  0
   12.0543    7.5285   26.3774 C   0  0  0  0  0  0  0  0  0  0  0  0
   11.6272    8.1291   25.1841 C   0  0  0  0  0  0  0  0  0  0  0  0
   10.2438    8.2826   24.9716 C   0  0  0  0  0  0  0  0  0  0  0  0
    9.3234    7.8525   25.9325 C   0  0  0  0  0  0  0  0  0  0  0  0
    7.9873    8.1061   25.5243 C   0  0  0  0  0  0  0  0  0  0  0  0
    9.7840    7.2547   27.1200 C   0  0  0  0  0  0  0  0  0  0  0  0
   11.1466    7.0957   27.3328 C   0  0  0  0  0  0  0  0  0  0  0  0
    7.8911    8.6963   24.2925 C   0  0  0  0  0  0  0  0  0  0  0  0
    6.4236    9.1403   23.4093 S   0  0  0  0  0  0  0  0  0  0  0  0
    5.3906    9.0481   24.4191 O   0  0  0  0  0  0  0  0  0  0  0  0
    6.6815   10.3648   22.7023 O   0  0  0  0  0  0  0  0  0  0  0  0
    6.0896    7.9672   22.2764 N   0  0  0  0  0  0  0  0  0  0  0  0
    6.1293    6.5439   22.5971 C   0  0  1  0  0  0  0  0  0  0  0  0
    4.8019    5.8466   22.3227 C   0  0  0  0  0  0  0  0  0  0  0  0
    5.1471    4.5211   21.6509 C   0  0  0  0  0  0  0  0  0  0  0  0
    7.1318    5.7785   21.7494 C   0  0  0  0  0  0  0  0  0  0  0  0
    8.2722    6.1354   21.4918 O   0  0  0  0  0  0  0  0  0  0  0  0
    6.5687    4.5608   21.4046 N   0  0  0  0  0  0  0  0  0  0  0  0
    7.3215    3.4980   20.7082 C   0  0  1  0  0  0  0  0  0  0  0  0
    6.9965    2.1154   21.2661 C   0  0  0  0  0  0  0  0  0  0  0  0
    7.1131    3.5096   19.1770 C   0  0  0  0  0  0  0  0  0  0  0  0
    6.1024    4.0285   18.6927 O   0  0  0  0  0  0  0  0  0  0  0  0
    8.0522    2.8694   18.3675 N   0  0  0  0  0  0  0  0  0  0  0  0
    7.7391    2.7382   16.9406 C   0  0  0  0  0  0  0  0  0  0  0  0
    8.9945    2.7471   16.0722 C   0  0  0  0  0  0  0  0  0  0  0  0
    9.9303    1.7594   16.5207 O   0  0  0  0  0  0  0  0  0  0  0  0
   10.3784    2.0857   17.8392 C   0  0  0  0  0  0  0  0  0  0  0  0
    9.2199    2.1091   18.8424 C   0  0  0  0  0  0  0  0  0  0  0  0
    9.4253    8.9717   23.6028 S   0  0  0  0  0  0  0  0  0  0  0  0
   12.3447    8.4731   24.4458 H   0  0  0  0  0  0  0  0  0  0  0  0
    7.1268    7.8598   26.1226 H   0  0  0  0  0  0  0  0  0  0  0  0
    9.0644    6.9250   27.8641 H   0  0  0  0  0  0  0  0  0  0  0  0
   11.4860    6.6364   28.2628 H   0  0  0  0  0  0  0  0  0  0  0  0
    5.7585    8.3023   21.3757 H   0  0  0  0  0  0  0  0  0  0  0  0
    6.4157    6.3731   23.6407 H   0  0  0  0  0  0  0  0  0  0  0  0
    4.1332    6.4424   21.6916 H   0  0  0  0  0  0  0  0  0  0  0  0
    4.2641    5.6651   23.2617 H   0  0  0  0  0  0  0  0  0  0  0  0
    4.5957    4.4099   20.7117 H   0  0  0  0  0  0  0  0  0  0  0  0
    4.9162    3.6722   22.3003 H   0  0  0  0  0  0  0  0  0  0  0  0
    8.3761    3.7197   20.8939 H   0  0  0  0  0  0  0  0  0  0  0  0
    7.5732    1.3230   20.7832 H   0  0  0  0  0  0  0  0  0  0  0  0
    5.9407    1.8613   21.1224 H   0  0  0  0  0  0  0  0  0  0  0  0
    7.2161    2.0705   22.3399 H   0  0  0  0  0  0  0  0  0  0  0  0
    7.0814    3.5520   16.6202 H   0  0  0  0  0  0  0  0  0  0  0  0
    7.1907    1.7945   16.8009 H   0  0  0  0  0  0  0  0  0  0  0  0
    9.4708    3.7348   16.0982 H   0  0  0  0  0  0  0  0  0  0  0  0
    8.7381    2.5264   15.0320 H   0  0  0  0  0  0  0  0  0  0  0  0
   10.8841    3.0576   17.8171 H   0  0  0  0  0  0  0  0  0  0  0  0
   11.1172    1.3361   18.1415 H   0  0  0  0  0  0  0  0  0  0  0  0
    8.8965    1.0762   19.0361 H   0  0  0  0  0  0  0  0  0  0  0  0
    9.5902    2.5251   19.7801 H   0  0  0  0  0  0  0  0  0  0  0  0
  1  2  1  0  0  0  0
  2  3  2  0  0  0  0
  2  8  1  0  0  0  0
  3  4  1  0  0  0  0
  3 31  1  0  0  0  0
  4  5  2  0  0  0  0
  4 30  1  0  0  0  0
  5  6  1  0  0  0  0
  5  7  1  0  0  0  0
  6  9  2  0  0  0  0
  6 32  1  0  0  0  0
  7  8  2  0  0  0  0
  7 33  1  0  0  0  0
  8 34  1  0  0  0  0
  9 10  1  0  0  0  0
  9 30  1  0  0  0  0
 10 11  2  0  0  0  0
 10 12  2  0  0  0  0
 10 13  1  0  0  0  0
 13 14  1  0  0  0  0
 13 35  1  0  0  0  0
 14 15  1  0  0  0  0
 14 17  1  0  0  0  0
 14 36  1  1  0  0  0
 15 16  1  0  0  0  0
 15 37  1  0  0  0  0
 15 38  1  0  0  0  0
 16 19  1  0  0  0  0
 16 39  1  0  0  0  0
 16 40  1  0  0  0  0
 17 18  2  0  0  0  0
 17 19  1  0  0  0  0
 19 20  1  0  0  0  0
 20 21  1  0  0  0  0
 20 22  1  0  0  0  0
 20 41  1  1  0  0  0
 21 42  1  0  0  0  0
 21 43  1  0  0  0  0
 21 44  1  0  0  0  0
 22 23  2  0  0  0  0
 22 24  1  0  0  0  0
 24 25  1  0  0  0  0
 24 29  1  0  0  0  0
 25 26  1  0  0  0  0
 25 45  1  0  0  0  0
 25 46  1  0  0  0  0
 26 27  1  0  0  0  0
 26 47  1  0  0  0  0
 26 48  1  0  0  0  0
 27 28  1  0  0  0  0
 28 29  1  0  0  0  0
 28 49  1  0  0  0  0
 28 50  1  0  0  0  0
 29 51  1  0  0  0  0
 29 52  1  0  0  0  0
M  END
$$$$
