GSI
 OpenBabel04051919373D

 58 61  0  0  1  0  0  0  0  0999 V2000
   13.7890    7.3061   26.1873 Cl  0  0  0  0  0  0  0  0  0  0  0  0
   12.0819    7.4781   26.2491 C   0  0  0  0  0  0  0  0  0  0  0  0
   11.2633    7.0475   27.2570 C   0  0  0  0  0  0  0  0  0  0  0  0
    9.9063    7.3522   26.9665 C   0  0  0  0  0  0  0  0  0  0  0  0
   11.2533    8.2363   24.9817 S   0  0  0  0  0  0  0  0  0  0  0  0
    9.7310    7.9999   25.7469 C   0  0  0  0  0  0  0  0  0  0  0  0
    8.4731    8.4322   25.2345 C   0  0  0  0  0  0  0  0  0  0  0  0
    8.2210    8.8890   24.0015 C   0  0  0  0  0  0  0  0  0  0  0  0
    6.5865    9.3790   23.6643 S   0  0  0  0  0  0  0  0  0  0  0  0
    6.6092   10.6995   23.0809 O   0  0  0  0  0  0  0  0  0  0  0  0
    5.7364    9.0992   24.8116 O   0  0  0  0  0  0  0  0  0  0  0  0
    5.9931    8.4074   22.4625 N   0  0  0  0  0  0  0  0  0  0  0  0
    5.9263    6.9672   22.6199 C   0  0  1  0  0  0  0  0  0  0  0  0
    4.6054    6.4326   22.0750 C   0  0  0  0  0  0  0  0  0  0  0  0
    4.9638    5.0841   21.4718 C   0  0  0  0  0  0  0  0  0  0  0  0
    6.9686    6.2978   21.7431 C   0  0  0  0  0  0  0  0  0  0  0  0
    8.1429    6.6296   21.6684 O   0  0  0  0  0  0  0  0  0  0  0  0
    6.3530    5.2092   21.1285 N   0  0  0  0  0  0  0  0  0  0  0  0
    7.0351    4.2952   20.3130 C   0  0  0  0  0  0  0  0  0  0  0  0
    6.9480    2.9211   20.5669 C   0  0  0  0  0  0  0  0  0  0  0  0
    7.6693    2.0146   19.7816 C   0  0  0  0  0  0  0  0  0  0  0  0
    8.4124    2.4905   18.6913 C   0  0  0  0  0  0  0  0  0  0  0  0
    8.4880    3.8521   18.4104 C   0  0  0  0  0  0  0  0  0  0  0  0
    7.8261    4.7444   19.2466 C   0  0  0  0  0  0  0  0  0  0  0  0
    7.8893    6.0503   18.9516 F   0  0  0  0  0  0  0  0  0  0  0  0
    9.1226    1.5850   17.8878 N   0  3  0  0  0  0  0  0  0  0  0  0
   10.1962    0.8393   18.2990 C   0  0  0  0  0  0  0  0  0  0  0  0
   10.5993    0.1274   17.1956 C   0  0  0  0  0  0  0  0  0  0  0  0
    9.7669    0.3704   16.1291 N   0  0  0  0  0  0  0  0  0  0  0  0
    8.9018    1.2764   16.5551 C   0  0  0  0  0  0  0  0  0  0  0  0
    7.7733    1.8193   15.7439 C   0  0  0  0  0  0  0  0  0  0  0  0
    7.0958    0.7650   14.8826 N   0  3  0  0  0  0  0  0  0  0  0  0
    6.4037   -0.2865   15.7005 C   0  0  0  0  0  0  0  0  0  0  0  0
    6.1604    1.3826   13.8867 C   0  0  0  0  0  0  0  0  0  0  0  0
   11.6033    6.5461   28.1543 H   0  0  0  0  0  0  0  0  0  0  0  0
    9.0793    7.1113   27.6249 H   0  0  0  0  0  0  0  0  0  0  0  0
    7.6565    8.3655   25.9492 H   0  0  0  0  0  0  0  0  0  0  0  0
    8.9484    9.0020   23.2148 H   0  0  0  0  0  0  0  0  0  0  0  0
    5.7949    8.8637   21.5752 H   0  0  0  0  0  0  0  0  0  0  0  0
    6.0772    6.6314   23.6526 H   0  0  0  0  0  0  0  0  0  0  0  0
    4.1982    7.0977   21.3028 H   0  0  0  0  0  0  0  0  0  0  0  0
    3.8406    6.3411   22.8530 H   0  0  0  0  0  0  0  0  0  0  0  0
    4.3749    4.8973   20.5675 H   0  0  0  0  0  0  0  0  0  0  0  0
    4.8205    4.2691   22.1860 H   0  0  0  0  0  0  0  0  0  0  0  0
    6.3885    2.5521   21.4263 H   0  0  0  0  0  0  0  0  0  0  0  0
    7.6351    0.9572   20.0263 H   0  0  0  0  0  0  0  0  0  0  0  0
    9.0902    4.2512   17.5992 H   0  0  0  0  0  0  0  0  0  0  0  0
   10.6180    0.9316   19.2927 H   0  0  0  0  0  0  0  0  0  0  0  0
   11.4527   -0.5362   17.1180 H   0  0  0  0  0  0  0  0  0  0  0  0
    8.1696    2.5727   15.0535 H   0  0  0  0  0  0  0  0  0  0  0  0
    6.9837    2.2706   16.3502 H   0  0  0  0  0  0  0  0  0  0  0  0
    5.9751   -1.0261   15.0189 H   0  0  0  0  0  0  0  0  0  0  0  0
    5.6182    0.2010   16.2845 H   0  0  0  0  0  0  0  0  0  0  0  0
    7.1339   -0.7669   16.3547 H   0  0  0  0  0  0  0  0  0  0  0  0
    6.7195    2.1021   13.2832 H   0  0  0  0  0  0  0  0  0  0  0  0
    5.3567    1.8806   14.4375 H   0  0  0  0  0  0  0  0  0  0  0  0
    5.7580    0.5913   13.2499 H   0  0  0  0  0  0  0  0  0  0  0  0
    7.8657    0.2948   14.3787 H   0  0  0  0  0  0  0  0  0  0  0  0
  1  2  1  0  0  0  0
  2  3  2  0  0  0  0
  2  5  1  0  0  0  0
  3  4  1  0  0  0  0
  3 35  1  0  0  0  0
  4  6  2  0  0  0  0
  4 36  1  0  0  0  0
  5  6  1  0  0  0  0
  6  7  1  0  0  0  0
  7  8  2  0  0  0  0
  7 37  1  0  0  0  0
  8  9  1  0  0  0  0
  8 38  1  0  0  0  0
  9 10  2  0  0  0  0
  9 11  2  0  0  0  0
  9 12  1  0  0  0  0
 12 13  1  0  0  0  0
 12 39  1  0  0  0  0
 13 14  1  0  0  0  0
 13 16  1  0  0  0  0
 13 40  1  1  0  0  0
 14 15  1  0  0  0  0
 14 41  1  0  0  0  0
 14 42  1  0  0  0  0
 15 18  1  0  0  0  0
 15 43  1  0  0  0  0
 15 44  1  0  0  0  0
 16 17  2  0  0  0  0
 16 18  1  0  0  0  0
 18 19  1  0  0  0  0
 19 20  2  0  0  0  0
 19 24  1  0  0  0  0
 20 21  1  0  0  0  0
 20 45  1  0  0  0  0
 21 22  2  0  0  0  0
 21 46  1  0  0  0  0
 22 23  1  0  0  0  0
 22 26  1  0  0  0  0
 23 24  2  0  0  0  0
 23 47  1  0  0  0  0
 24 25  1  0  0  0  0
 26 27  1  0  0  0  0
 26 30  2  0  0  0  0
 27 28  2  0  0  0  0
 27 48  1  0  0  0  0
 28 29  1  0  0  0  0
 28 49  1  0  0  0  0
 29 30  1  0  0  0  0
 30 31  1  0  0  0  0
 31 32  1  0  0  0  0
 31 50  1  0  0  0  0
 31 51  1  0  0  0  0
 32 33  1  0  0  0  0
 32 34  1  0  0  0  0
 32 58  1  0  0  0  0
 33 52  1  0  0  0  0
 33 53  1  0  0  0  0
 33 54  1  0  0  0  0
 34 55  1  0  0  0  0
 34 56  1  0  0  0  0
 34 57  1  0  0  0  0
M  CHG  2  26   1  32   1
M  END
$$$$
