GSZ
 OpenBabel04051918193D

 55 57  0  0  1  0  0  0  0  0999 V2000
   37.0995   40.4870   22.5164 C   0  0  0  0  0  0  0  0  0  0  0  0
   36.5192   41.7294   21.8547 C   0  0  0  0  0  0  0  0  0  0  0  0
   37.0336   42.9731   22.5637 C   0  0  0  0  0  0  0  0  0  0  0  0
   34.9835   41.7117   21.8748 C   0  0  0  0  0  0  0  0  0  0  0  0
   34.3114   40.8017   22.2993 O   0  0  0  0  0  0  0  0  0  0  0  0
   34.3981   42.8157   21.2708 N   0  0  0  0  0  0  0  0  0  0  0  0
   32.9365   42.9964   21.1959 C   0  0  2  0  0  0  0  0  0  0  0  0
   32.2811   43.1776   22.5722 C   0  0  1  0  0  0  0  0  0  0  0  0
   32.2981   44.5880   22.8248 O   0  0  0  0  0  0  0  0  0  0  0  0
   30.8288   42.6407   22.6556 C   0  0  2  0  0  0  0  0  0  0  0  0
   30.3153   42.8942   23.9622 O   0  0  0  0  0  0  0  0  0  0  0  0
   30.8914   41.1353   22.3153 C   0  0  1  0  0  0  0  0  0  0  0  0
   29.5926   40.3811   22.6445 C   0  0  0  0  0  0  0  0  0  0  0  0
   28.5189   40.8202   21.8188 O   0  0  0  0  0  0  0  0  0  0  0  0
   31.3346   41.0312   20.8946 N   0  3  1  0  0  0  0  0  0  0  0  0
   30.9254   40.1578   19.9114 C   0  0  0  0  0  0  0  0  0  0  0  0
   32.2712   41.8824   20.4072 C   0  0  1  0  0  0  0  0  0  0  0  0
   32.4403   41.5350   19.1046 N   0  3  0  0  0  0  0  0  0  0  0  0
   31.6275   40.4617   18.7664 C   0  0  1  0  0  0  0  0  0  0  0  0
   31.5418   39.7748   17.4615 C   0  0  0  0  0  0  0  0  0  0  0  0
   31.3573   40.7456   16.3077 C   0  0  0  0  0  0  0  0  0  0  0  0
   29.9716   41.3408   16.2468 C   0  0  0  0  0  0  0  0  0  0  0  0
   28.9001   40.6295   15.6739 C   0  0  0  0  0  0  0  0  0  0  0  0
   27.6236   41.1893   15.6041 C   0  0  0  0  0  0  0  0  0  0  0  0
   27.4029   42.4648   16.1178 C   0  0  0  0  0  0  0  0  0  0  0  0
   28.4573   43.1791   16.6968 C   0  0  0  0  0  0  0  0  0  0  0  0
   29.7338   42.6188   16.7677 C   0  0  0  0  0  0  0  0  0  0  0  0
   38.1965   40.5178   22.4995 H   0  0  0  0  0  0  0  0  0  0  0  0
   36.7762   39.5823   21.9904 H   0  0  0  0  0  0  0  0  0  0  0  0
   36.7767   40.4087   23.5613 H   0  0  0  0  0  0  0  0  0  0  0  0
   36.8510   41.7538   20.8139 H   0  0  0  0  0  0  0  0  0  0  0  0
   36.6301   43.8789   22.1044 H   0  0  0  0  0  0  0  0  0  0  0  0
   38.1242   43.0217   22.5018 H   0  0  0  0  0  0  0  0  0  0  0  0
   36.7380   42.9647   23.6181 H   0  0  0  0  0  0  0  0  0  0  0  0
   34.9970   43.5718   20.9679 H   0  0  0  0  0  0  0  0  0  0  0  0
   32.7736   43.9215   20.6216 H   0  0  0  0  0  0  0  0  0  0  0  0
   32.8810   42.6830   23.3472 H   0  0  0  0  0  0  0  0  0  0  0  0
   31.8732   44.7249   23.7051 H   0  0  0  0  0  0  0  0  0  0  0  0
   30.2000   43.1802   21.9335 H   0  0  0  0  0  0  0  0  0  0  0  0
   29.4000   42.5628   24.0222 H   0  0  0  0  0  0  0  0  0  0  0  0
   31.6637   40.6871   22.9471 H   0  0  0  0  0  0  0  0  0  0  0  0
   29.2944   40.5088   23.6957 H   0  0  0  0  0  0  0  0  0  0  0  0
   29.7257   39.3055   22.4736 H   0  0  0  0  0  0  0  0  0  0  0  0
   28.3686   41.7682   21.9816 H   0  0  0  0  0  0  0  0  0  0  0  0
   30.2062   39.3795   20.0529 H   0  0  0  0  0  0  0  0  0  0  0  0
   30.7013   39.0723   17.4913 H   0  0  0  0  0  0  0  0  0  0  0  0
   32.4587   39.1892   17.3237 H   0  0  0  0  0  0  0  0  0  0  0  0
   31.5640   40.2197   15.3673 H   0  0  0  0  0  0  0  0  0  0  0  0
   32.0988   41.5473   16.3979 H   0  0  0  0  0  0  0  0  0  0  0  0
   29.0622   39.6320   15.2693 H   0  0  0  0  0  0  0  0  0  0  0  0
   26.7968   40.6369   15.1428 H   0  0  0  0  0  0  0  0  0  0  0  0
   26.4103   42.9066   16.0704 H   0  0  0  0  0  0  0  0  0  0  0  0
   28.2794   44.1792   17.0879 H   0  0  0  0  0  0  0  0  0  0  0  0
   30.5424   43.1889   17.2210 H   0  0  0  0  0  0  0  0  0  0  0  0
   33.0914   41.9794   18.4628 H   0  0  0  0  0  0  0  0  0  0  0  0
  1  2  1  0  0  0  0
  1 28  1  0  0  0  0
  1 29  1  0  0  0  0
  1 30  1  0  0  0  0
  2  3  1  0  0  0  0
  2  4  1  0  0  0  0
  2 31  1  0  0  0  0
  3 32  1  0  0  0  0
  3 33  1  0  0  0  0
  3 34  1  0  0  0  0
  4  5  2  0  0  0  0
  4  6  1  0  0  0  0
  6  7  1  0  0  0  0
  6 35  1  0  0  0  0
  7  8  1  0  0  0  0
  7 17  1  0  0  0  0
  7 36  1  6  0  0  0
  8  9  1  0  0  0  0
  8 10  1  0  0  0  0
  8 37  1  1  0  0  0
  9 38  1  0  0  0  0
 10 11  1  0  0  0  0
 10 12  1  0  0  0  0
 10 39  1  6  0  0  0
 11 40  1  0  0  0  0
 12 13  1  0  0  0  0
 12 15  1  0  0  0  0
 12 41  1  1  0  0  0
 13 14  1  0  0  0  0
 13 42  1  0  0  0  0
 13 43  1  0  0  0  0
 14 44  1  0  0  0  0
 15 16  1  6  0  0  0
 15 17  1  0  0  0  0
 16 19  1  0  0  0  0
 16 45  1  0  0  0  0
 17 18  1  6  0  0  0
 18 19  1  0  0  0  0
 18 55  1  0  0  0  0
 19 20  1  1  0  0  0
 20 21  1  0  0  0  0
 20 46  1  0  0  0  0
 20 47  1  0  0  0  0
 21 22  1  0  0  0  0
 21 48  1  0  0  0  0
 21 49  1  0  0  0  0
 22 23  1  0  0  0  0
 22 27  1  0  0  0  0
 23 24  1  0  0  0  0
 23 50  1  0  0  0  0
 24 25  1  0  0  0  0
 24 51  1  0  0  0  0
 25 26  1  0  0  0  0
 25 52  1  0  0  0  0
 26 27  1  0  0  0  0
 26 53  1  0  0  0  0
 27 54  1  0  0  0  0
M  CHG  2  15   1  18   1
M  END
$$$$
