GTX
 OpenBabel04051917303D

 54 53  0  0  1  0  0  0  0  0999 V2000
  -10.7824   26.4260   -2.1361 N   0  3  0  0  0  0  0  0  0  0  0  0
  -11.8939   27.0219   -2.9757 C   0  0  2  0  0  0  0  0  0  0  0  0
  -12.2340   26.0955   -4.1753 C   0  0  0  0  0  0  0  0  0  0  0  0
  -11.2032   25.4850   -4.5922 O   0  0  0  0  0  0  0  0  0  0  0  0
  -13.4532   25.9679   -4.4331 O   0  0  0  0  0  0  0  0  0  0  0  0
  -11.3978   28.3594   -3.4945 C   0  0  0  0  0  0  0  0  0  0  0  0
  -12.5511   29.1872   -4.0586 C   0  0  0  0  0  0  0  0  0  0  0  0
  -12.0576   30.5572   -4.4363 C   0  0  0  0  0  0  0  0  0  0  0  0
  -11.0292   31.0343   -3.9631 O   0  0  0  0  0  0  0  0  0  0  0  0
  -12.8621   31.1973   -5.3357 N   0  0  0  0  0  0  0  0  0  0  0  0
  -12.4438   32.4399   -5.9685 C   0  0  2  0  0  0  0  0  0  0  0  0
  -13.6514   33.3677   -6.1010 C   0  0  0  0  0  0  0  0  0  0  0  0
  -14.7738   32.9326   -6.3069 O   0  0  0  0  0  0  0  0  0  0  0  0
  -11.9026   32.2487   -7.3986 C   0  0  0  0  0  0  0  0  0  0  0  0
  -10.7764   30.8262   -7.6070 S   0  0  0  0  0  0  0  0  0  0  0  0
   -9.3868   31.5815   -6.7381 C   0  0  0  0  0  0  0  0  0  0  0  0
   -8.1853   30.6595   -6.6250 C   0  0  0  0  0  0  0  0  0  0  0  0
   -7.0617   31.1728   -7.5218 C   0  0  0  0  0  0  0  0  0  0  0  0
   -6.8619   30.2764   -8.7371 C   0  0  0  0  0  0  0  0  0  0  0  0
   -6.3098   31.0763   -9.9140 C   0  0  0  0  0  0  0  0  0  0  0  0
   -5.3750   30.2376  -10.7614 C   0  0  0  0  0  0  0  0  0  0  0  0
  -13.2762   34.6969   -6.1504 N   0  0  0  0  0  0  0  0  0  0  0  0
  -14.2997   35.7434   -6.2924 C   0  0  0  0  0  0  0  0  0  0  0  0
  -14.8818   36.3280   -4.9810 C   0  0  0  0  0  0  0  0  0  0  0  0
  -15.8427   37.1323   -5.1420 O   0  0  0  0  0  0  0  0  0  0  0  0
  -14.2827   35.9829   -3.9174 O   0  0  0  0  0  0  0  0  0  0  0  0
  -10.4898   27.0164   -1.3598 H   0  0  0  0  0  0  0  0  0  0  0  0
  -11.0978   25.5009   -1.8265 H   0  0  0  0  0  0  0  0  0  0  0  0
  -12.7461   27.1351   -2.3001 H   0  0  0  0  0  0  0  0  0  0  0  0
  -10.6331   28.2228   -4.2732 H   0  0  0  0  0  0  0  0  0  0  0  0
  -10.9085   28.9124   -2.6818 H   0  0  0  0  0  0  0  0  0  0  0  0
  -13.3366   29.3105   -3.3057 H   0  0  0  0  0  0  0  0  0  0  0  0
  -12.9794   28.6966   -4.9391 H   0  0  0  0  0  0  0  0  0  0  0  0
  -13.7394   30.7951   -5.6462 H   0  0  0  0  0  0  0  0  0  0  0  0
  -11.6971   32.9281   -5.3351 H   0  0  0  0  0  0  0  0  0  0  0  0
  -11.3455   33.1482   -7.6901 H   0  0  0  0  0  0  0  0  0  0  0  0
  -12.7073   32.1434   -8.1334 H   0  0  0  0  0  0  0  0  0  0  0  0
   -9.6860   31.9022   -5.7413 H   0  0  0  0  0  0  0  0  0  0  0  0
   -9.1553   32.4920   -7.2972 H   0  0  0  0  0  0  0  0  0  0  0  0
   -8.4305   29.6098   -6.8305 H   0  0  0  0  0  0  0  0  0  0  0  0
   -7.8379   30.6859   -5.5848 H   0  0  0  0  0  0  0  0  0  0  0  0
   -6.1287   31.2133   -6.9476 H   0  0  0  0  0  0  0  0  0  0  0  0
   -7.2506   32.2048   -7.8413 H   0  0  0  0  0  0  0  0  0  0  0  0
   -7.8064   29.8109   -9.0447 H   0  0  0  0  0  0  0  0  0  0  0  0
   -6.1854   29.4620   -8.4525 H   0  0  0  0  0  0  0  0  0  0  0  0
   -5.7699   31.9651   -9.5685 H   0  0  0  0  0  0  0  0  0  0  0  0
   -7.1475   31.4310  -10.5276 H   0  0  0  0  0  0  0  0  0  0  0  0
   -5.0012   30.8268  -11.6031 H   0  0  0  0  0  0  0  0  0  0  0  0
   -5.8846   29.3523  -11.1522 H   0  0  0  0  0  0  0  0  0  0  0  0
   -4.5154   29.9099  -10.1673 H   0  0  0  0  0  0  0  0  0  0  0  0
  -12.5113   34.9768   -5.5570 H   0  0  0  0  0  0  0  0  0  0  0  0
  -15.1148   35.3613   -6.9065 H   0  0  0  0  0  0  0  0  0  0  0  0
  -13.8077   36.5657   -6.8315 H   0  0  0  0  0  0  0  0  0  0  0  0
  -10.0171   26.2297   -2.8034 H   0  0  0  0  0  0  0  0  0  0  0  0
  1  2  1  0  0  0  0
  1 27  1  0  0  0  0
  1 28  1  0  0  0  0
  1 54  1  0  0  0  0
  2  3  1  0  0  0  0
  2  6  1  0  0  0  0
  2 29  1  1  0  0  0
  3  4  2  0  0  0  0
  3  5  1  0  0  0  0
  6  7  1  0  0  0  0
  6 30  1  0  0  0  0
  6 31  1  0  0  0  0
  7  8  1  0  0  0  0
  7 32  1  0  0  0  0
  7 33  1  0  0  0  0
  8  9  2  0  0  0  0
  8 10  1  0  0  0  0
 10 11  1  0  0  0  0
 10 34  1  0  0  0  0
 11 12  1  0  0  0  0
 11 14  1  0  0  0  0
 11 35  1  1  0  0  0
 12 13  2  0  0  0  0
 12 22  1  0  0  0  0
 14 15  1  0  0  0  0
 14 36  1  0  0  0  0
 14 37  1  0  0  0  0
 15 16  1  0  0  0  0
 16 17  1  0  0  0  0
 16 38  1  0  0  0  0
 16 39  1  0  0  0  0
 17 18  1  0  0  0  0
 17 40  1  0  0  0  0
 17 41  1  0  0  0  0
 18 19  1  0  0  0  0
 18 42  1  0  0  0  0
 18 43  1  0  0  0  0
 19 20  1  0  0  0  0
 19 44  1  0  0  0  0
 19 45  1  0  0  0  0
 20 21  1  0  0  0  0
 20 46  1  0  0  0  0
 20 47  1  0  0  0  0
 21 48  1  0  0  0  0
 21 49  1  0  0  0  0
 21 50  1  0  0  0  0
 22 23  1  0  0  0  0
 22 51  1  0  0  0  0
 23 24  1  0  0  0  0
 23 52  1  0  0  0  0
 23 53  1  0  0  0  0
 24 25  2  0  0  0  0
 24 26  1  0  0  0  0
M  CHG  1   1   1
M  END
$$$$
