GVR
 OpenBabel04051919373D

 50 53  0  0  1  0  0  0  0  0999 V2000
   56.5495   40.5771   19.8638 O   0  0  0  0  0  0  0  0  0  0  0  0
   57.2426   40.8896   18.8898 C   0  0  0  0  0  0  0  0  0  0  0  0
   58.0052   42.0305   18.8238 N   0  0  0  0  0  0  0  0  0  0  0  0
   58.0494   42.7892   20.0146 O   0  0  0  0  0  0  0  0  0  0  0  0
   57.2094   40.0387   17.6251 C   0  0  1  0  0  0  0  0  0  0  0  0
   55.9618   40.3415   16.7968 C   0  0  0  0  0  0  0  0  0  0  0  0
   55.7103   39.2712   15.7609 C   0  0  0  0  0  0  0  0  0  0  0  0
   55.7818   39.5650   14.3950 C   0  0  0  0  0  0  0  0  0  0  0  0
   55.5480   38.5743   13.4429 C   0  0  0  0  0  0  0  0  0  0  0  0
   55.2381   37.2672   13.8439 C   0  0  0  0  0  0  0  0  0  0  0  0
   55.0000   36.2574   12.9067 C   0  0  0  0  0  0  0  0  0  0  0  0
   55.1703   36.9616   15.2276 C   0  0  0  0  0  0  0  0  0  0  0  0
   54.8754   35.6519   15.6394 C   0  0  0  0  0  0  0  0  0  0  0  0
   54.6391   34.6623   14.6912 C   0  0  0  0  0  0  0  0  0  0  0  0
   54.6948   34.9612   13.3320 C   0  0  0  0  0  0  0  0  0  0  0  0
   55.4090   37.9622   16.1680 C   0  0  0  0  0  0  0  0  0  0  0  0
   58.3902   40.2680   16.7876 N   0  0  0  0  0  0  0  0  0  0  0  0
   59.7112   39.2854   16.9676 S   0  0  0  0  0  0  0  0  0  0  0  0
   59.9515   39.1549   18.3844 O   0  0  0  0  0  0  0  0  0  0  0  0
   60.6994   39.7941   16.0491 O   0  0  0  0  0  0  0  0  0  0  0  0
   59.1400   37.7411   16.3356 C   0  0  0  0  0  0  0  0  0  0  0  0
   58.9205   37.6413   14.9670 C   0  0  0  0  0  0  0  0  0  0  0  0
   58.5320   36.4236   14.4216 C   0  0  0  0  0  0  0  0  0  0  0  0
   58.3713   35.3099   15.2545 C   0  0  0  0  0  0  0  0  0  0  0  0
   57.9923   34.0781   14.7070 C   0  0  0  0  0  0  0  0  0  0  0  0
   58.5866   35.4218   16.6458 C   0  0  0  0  0  0  0  0  0  0  0  0
   58.9748   36.6541   17.1970 C   0  0  0  0  0  0  0  0  0  0  0  0
   58.4174   34.2996   17.4702 C   0  0  0  0  0  0  0  0  0  0  0  0
   58.0348   33.0793   16.9053 C   0  0  0  0  0  0  0  0  0  0  0  0
   57.8236   32.9706   15.5313 C   0  0  0  0  0  0  0  0  0  0  0  0
   58.6212   42.2594   18.0485 H   0  0  0  0  0  0  0  0  0  0  0  0
   58.6811   43.5070   19.8397 H   0  0  0  0  0  0  0  0  0  0  0  0
   57.1851   39.0024   17.9793 H   0  0  0  0  0  0  0  0  0  0  0  0
   56.0761   41.3099   16.2934 H   0  0  0  0  0  0  0  0  0  0  0  0
   55.0743   40.4189   17.4352 H   0  0  0  0  0  0  0  0  0  0  0  0
   56.0151   40.5723   14.0600 H   0  0  0  0  0  0  0  0  0  0  0  0
   55.6037   38.8268   12.3866 H   0  0  0  0  0  0  0  0  0  0  0  0
   55.0505   36.4662   11.8413 H   0  0  0  0  0  0  0  0  0  0  0  0
   54.8457   35.3975   16.6955 H   0  0  0  0  0  0  0  0  0  0  0  0
   54.4324   33.6455   15.0154 H   0  0  0  0  0  0  0  0  0  0  0  0
   54.5052   34.1843   12.5991 H   0  0  0  0  0  0  0  0  0  0  0  0
   55.3657   37.7247   17.2314 H   0  0  0  0  0  0  0  0  0  0  0  0
   58.3937   40.9493   16.0356 H   0  0  0  0  0  0  0  0  0  0  0  0
   59.0315   38.5094   14.3211 H   0  0  0  0  0  0  0  0  0  0  0  0
   58.3376   36.3613   13.3548 H   0  0  0  0  0  0  0  0  0  0  0  0
   57.7974   33.9831   13.6394 H   0  0  0  0  0  0  0  0  0  0  0  0
   59.1607   36.7561   18.2563 H   0  0  0  0  0  0  0  0  0  0  0  0
   58.5923   34.3573   18.5372 H   0  0  0  0  0  0  0  0  0  0  0  0
   57.8916   32.2139   17.5423 H   0  0  0  0  0  0  0  0  0  0  0  0
   57.5147   32.0199   15.1014 H   0  0  0  0  0  0  0  0  0  0  0  0
  1  2  2  0  0  0  0
  2  3  1  0  0  0  0
  2  5  1  0  0  0  0
  3  4  1  0  0  0  0
  3 31  1  0  0  0  0
  4 32  1  0  0  0  0
  5  6  1  0  0  0  0
  5 17  1  0  0  0  0
  5 33  1  1  0  0  0
  6  7  1  0  0  0  0
  6 34  1  0  0  0  0
  6 35  1  0  0  0  0
  7  8  2  0  0  0  0
  7 16  1  0  0  0  0
  8  9  1  0  0  0  0
  8 36  1  0  0  0  0
  9 10  2  0  0  0  0
  9 37  1  0  0  0  0
 10 11  1  0  0  0  0
 10 12  1  0  0  0  0
 11 15  2  0  0  0  0
 11 38  1  0  0  0  0
 12 13  1  0  0  0  0
 12 16  2  0  0  0  0
 13 14  2  0  0  0  0
 13 39  1  0  0  0  0
 14 15  1  0  0  0  0
 14 40  1  0  0  0  0
 15 41  1  0  0  0  0
 16 42  1  0  0  0  0
 17 18  1  0  0  0  0
 17 43  1  0  0  0  0
 18 19  2  0  0  0  0
 18 20  2  0  0  0  0
 18 21  1  0  0  0  0
 21 22  2  0  0  0  0
 21 27  1  0  0  0  0
 22 23  1  0  0  0  0
 22 44  1  0  0  0  0
 23 24  2  0  0  0  0
 23 45  1  0  0  0  0
 24 25  1  0  0  0  0
 24 26  1  0  0  0  0
 25 30  2  0  0  0  0
 25 46  1  0  0  0  0
 26 27  2  0  0  0  0
 26 28  1  0  0  0  0
 27 47  1  0  0  0  0
 28 29  2  0  0  0  0
 28 48  1  0  0  0  0
 29 30  1  0  0  0  0
 29 49  1  0  0  0  0
 30 50  1  0  0  0  0
M  END
$$$$
