GYN
 OpenBabel04051920103D

 84 88  0  0  1  0  0  0  0  0999 V2000
    9.0356   24.9755  -10.4493 O   0  0  0  0  0  0  0  0  0  0  0  0
    7.8166   24.7987  -10.2159 C   0  0  0  0  0  0  0  0  0  0  0  0
    7.1755   25.4424   -9.2040 O   0  0  0  0  0  0  0  0  0  0  0  0
    5.8127   25.0292   -9.2336 C   0  0  1  0  0  0  0  0  0  0  0  0
    5.7124   23.8286  -10.1342 C   0  0  0  0  0  0  0  0  0  0  0  0
    6.9528   23.8865  -10.9931 C   0  0  2  0  0  0  0  0  0  0  0  0
    7.6072   22.5277  -11.2023 C   0  0  0  0  0  0  0  0  0  0  0  0
    5.3008   24.8100   -7.8310 C   0  0  0  0  0  0  0  0  0  0  0  0
    4.3249   25.5844   -7.3063 C   0  0  0  0  0  0  0  0  0  0  0  0
    3.5849   26.5779   -8.1487 C   0  0  0  0  0  0  0  0  0  0  0  0
    3.9319   25.5381   -5.8382 C   0  0  1  0  0  0  0  0  0  0  0  0
    4.9749   24.8072   -4.9575 C   0  0  2  0  0  0  0  0  0  0  0  0
    5.3656   23.5008   -5.6686 C   0  0  0  0  0  0  0  0  0  0  0  0
    5.9531   23.6941   -7.0543 C   0  0  0  0  0  0  0  0  0  0  0  0
    3.6737   26.9417   -5.3186 C   0  0  0  0  0  0  0  0  0  0  0  0
    2.5130   27.4679   -4.9551 C   0  0  0  0  0  0  0  0  0  0  0  0
    1.2163   26.7083   -4.9804 C   0  0  0  0  0  0  0  0  0  0  0  0
    2.4872   28.9051   -4.4863 C   0  0  1  0  0  0  0  0  0  0  0  0
    1.6964   29.6683   -5.3913 O   0  0  0  0  0  0  0  0  0  0  0  0
    1.8864   29.0472   -3.0947 C   0  0  0  0  0  0  0  0  0  0  0  0
    2.8887   28.8772   -1.9634 C   0  0  0  0  0  0  0  0  0  0  0  0
    2.6704   27.6142   -1.1487 C   0  0  1  0  0  0  0  0  0  0  0  0
    3.2632   27.6403    0.2397 C   0  0  0  0  0  0  0  0  0  0  0  0
    2.3378   26.7716    1.0790 C   0  0  1  0  0  0  0  0  0  0  0  0
    1.7116   27.6048    2.1895 C   0  0  0  0  0  0  0  0  0  0  0  0
    1.2966   27.2347   -0.9594 O   0  0  0  0  0  0  0  0  0  0  0  0
    1.2614   26.2749    0.1222 C   0  0  1  0  0  0  0  0  0  0  0  0
    1.5459   24.8581   -0.3701 C   0  0  0  0  0  0  0  0  0  0  0  0
    1.1974   23.7151    0.5427 C   0  0  0  0  0  0  0  0  0  0  0  0
    2.0754   24.6316   -1.5746 C   0  0  0  0  0  0  0  0  0  0  0  0
    2.4710   23.3376   -2.2038 C   0  0  0  0  0  0  0  0  0  0  0  0
    3.0368   23.5707   -3.6083 C   0  0  0  0  0  0  0  0  0  0  0  0
    4.3482   24.3737   -3.6381 C   0  0  0  0  0  0  0  0  0  0  0  0
    4.9308   24.5335   -2.4900 N   0  0  0  0  0  0  0  0  0  0  0  0
    6.2934   25.0059   -2.3450 C   0  0  0  0  0  0  0  0  0  0  0  0
    6.5936   26.0975   -3.3358 C   0  0  0  0  0  0  0  0  0  0  0  0
    6.2225   25.6976   -4.7533 C   0  0  0  0  0  0  0  0  0  0  0  0
    5.2939   25.8438   -9.7247 H   0  0  0  0  0  0  0  0  0  0  0  0
    4.8076   23.8742  -10.7443 H   0  0  0  0  0  0  0  0  0  0  0  0
    5.6828   22.9090   -9.5595 H   0  0  0  0  0  0  0  0  0  0  0  0
    6.7242   24.3143  -11.9773 H   0  0  0  0  0  0  0  0  0  0  0  0
    8.4977   22.6249  -11.8382 H   0  0  0  0  0  0  0  0  0  0  0  0
    6.9148   21.8305  -11.6896 H   0  0  0  0  0  0  0  0  0  0  0  0
    7.9244   22.0973  -10.2444 H   0  0  0  0  0  0  0  0  0  0  0  0
    3.8767   26.5725   -9.1922 H   0  0  0  0  0  0  0  0  0  0  0  0
    3.7592   27.5981   -7.8060 H   0  0  0  0  0  0  0  0  0  0  0  0
    2.5186   26.3504   -8.1680 H   0  0  0  0  0  0  0  0  0  0  0  0
    3.0044   24.9649   -5.7998 H   0  0  0  0  0  0  0  0  0  0  0  0
    4.4752   22.8691   -5.7657 H   0  0  0  0  0  0  0  0  0  0  0  0
    6.0965   22.9682   -5.0469 H   0  0  0  0  0  0  0  0  0  0  0  0
    7.0277   23.8905   -6.9733 H   0  0  0  0  0  0  0  0  0  0  0  0
    5.8326   22.7483   -7.5953 H   0  0  0  0  0  0  0  0  0  0  0  0
    4.5367   27.6104   -5.2858 H   0  0  0  0  0  0  0  0  0  0  0  0
    1.3557   25.6885   -5.3333 H   0  0  0  0  0  0  0  0  0  0  0  0
    0.5008   27.1820   -5.6513 H   0  0  0  0  0  0  0  0  0  0  0  0
    0.7812   26.6282   -3.9839 H   0  0  0  0  0  0  0  0  0  0  0  0
    3.5053   29.3188   -4.4870 H   0  0  0  0  0  0  0  0  0  0  0  0
    2.0851   29.5935   -6.2810 H   0  0  0  0  0  0  0  0  0  0  0  0
    1.0868   28.3158   -2.9771 H   0  0  0  0  0  0  0  0  0  0  0  0
    1.4248   30.0358   -3.0068 H   0  0  0  0  0  0  0  0  0  0  0  0
    2.8091   29.7422   -1.2992 H   0  0  0  0  0  0  0  0  0  0  0  0
    3.9108   28.8627   -2.3688 H   0  0  0  0  0  0  0  0  0  0  0  0
    3.1987   26.8497   -1.7174 H   0  0  0  0  0  0  0  0  0  0  0  0
    3.2965   28.6644    0.6200 H   0  0  0  0  0  0  0  0  0  0  0  0
    4.2812   27.2389    0.2334 H   0  0  0  0  0  0  0  0  0  0  0  0
    2.8871   25.9348    1.5237 H   0  0  0  0  0  0  0  0  0  0  0  0
    1.0412   26.9863    2.7951 H   0  0  0  0  0  0  0  0  0  0  0  0
    1.1324   28.4354    1.7688 H   0  0  0  0  0  0  0  0  0  0  0  0
    2.4914   28.0161    2.8377 H   0  0  0  0  0  0  0  0  0  0  0  0
    0.2646   26.2942    0.5812 H   0  0  0  0  0  0  0  0  0  0  0  0
    1.4620   22.7585    0.0806 H   0  0  0  0  0  0  0  0  0  0  0  0
    0.1217   23.7021    0.7416 H   0  0  0  0  0  0  0  0  0  0  0  0
    1.7348   23.7865    1.4914 H   0  0  0  0  0  0  0  0  0  0  0  0
    2.2659   25.4840   -2.2039 H   0  0  0  0  0  0  0  0  0  0  0  0
    1.5836   22.7066   -2.2667 H   0  0  0  0  0  0  0  0  0  0  0  0
    3.2228   22.8378   -1.5861 H   0  0  0  0  0  0  0  0  0  0  0  0
    2.2755   24.0888   -4.1979 H   0  0  0  0  0  0  0  0  0  0  0  0
    3.2061   22.5879   -4.0694 H   0  0  0  0  0  0  0  0  0  0  0  0
    6.9780   24.1567   -2.4687 H   0  0  0  0  0  0  0  0  0  0  0  0
    6.4301   25.3732   -1.3181 H   0  0  0  0  0  0  0  0  0  0  0  0
    7.6657   26.3389   -3.3019 H   0  0  0  0  0  0  0  0  0  0  0  0
    6.0343   26.9942   -3.0472 H   0  0  0  0  0  0  0  0  0  0  0  0
    6.1121   26.6244   -5.3166 H   0  0  0  0  0  0  0  0  0  0  0  0
    7.0884   25.2026   -5.1954 H   0  0  0  0  0  0  0  0  0  0  0  0
  1  2  2  0  0  0  0
  2  3  1  0  0  0  0
  2  6  1  0  0  0  0
  3  4  1  0  0  0  0
  4  5  1  0  0  0  0
  4  8  1  0  0  0  0
  4 38  1  6  0  0  0
  5  6  1  0  0  0  0
  5 39  1  0  0  0  0
  5 40  1  0  0  0  0
  6  7  1  0  0  0  0
  6 41  1  6  0  0  0
  7 42  1  0  0  0  0
  7 43  1  0  0  0  0
  7 44  1  0  0  0  0
  8  9  2  0  0  0  0
  8 14  1  0  0  0  0
  9 10  1  0  0  0  0
  9 11  1  0  0  0  0
 10 45  1  0  0  0  0
 10 46  1  0  0  0  0
 10 47  1  0  0  0  0
 11 12  1  0  0  0  0
 11 15  1  0  0  0  0
 11 48  1  1  0  0  0
 12 13  1  6  0  0  0
 12 33  1  0  0  0  0
 12 37  1  0  0  0  0
 13 14  1  0  0  0  0
 13 49  1  0  0  0  0
 13 50  1  0  0  0  0
 14 51  1  0  0  0  0
 14 52  1  0  0  0  0
 15 16  2  0  0  0  0
 15 53  1  0  0  0  0
 16 17  1  0  0  0  0
 16 18  1  0  0  0  0
 17 54  1  0  0  0  0
 17 55  1  0  0  0  0
 17 56  1  0  0  0  0
 18 19  1  0  0  0  0
 18 20  1  0  0  0  0
 18 57  1  1  0  0  0
 19 58  1  0  0  0  0
 20 21  1  0  0  0  0
 20 59  1  0  0  0  0
 20 60  1  0  0  0  0
 21 22  1  0  0  0  0
 21 61  1  0  0  0  0
 21 62  1  0  0  0  0
 22 23  1  0  0  0  0
 22 26  1  0  0  0  0
 22 63  1  6  0  0  0
 23 24  1  0  0  0  0
 23 64  1  0  0  0  0
 23 65  1  0  0  0  0
 24 25  1  0  0  0  0
 24 27  1  0  0  0  0
 24 66  1  1  0  0  0
 25 67  1  0  0  0  0
 25 68  1  0  0  0  0
 25 69  1  0  0  0  0
 26 27  1  0  0  0  0
 27 28  1  0  0  0  0
 27 70  1  1  0  0  0
 28 29  1  0  0  0  0
 28 30  2  0  0  0  0
 29 71  1  0  0  0  0
 29 72  1  0  0  0  0
 29 73  1  0  0  0  0
 30 31  1  0  0  0  0
 30 74  1  0  0  0  0
 31 32  1  0  0  0  0
 31 75  1  0  0  0  0
 31 76  1  0  0  0  0
 32 33  1  0  0  0  0
 32 77  1  0  0  0  0
 32 78  1  0  0  0  0
 33 34  2  0  0  0  0
 34 35  1  0  0  0  0
 35 36  1  0  0  0  0
 35 79  1  0  0  0  0
 35 80  1  0  0  0  0
 36 37  1  0  0  0  0
 36 81  1  0  0  0  0
 36 82  1  0  0  0  0
 37 83  1  0  0  0  0
 37 84  1  0  0  0  0
M  END
$$$$
