GZL
 OpenBabel04051919403D

 20 20  0  0  1  0  0  0  0  0999 V2000
   34.3151   26.9587   14.7266 C   0  0  0  0  0  0  0  0  0  0  0  0
   33.7948   26.6772   13.5455 C   0  0  0  0  0  0  0  0  0  0  0  0
   33.0169   27.6452   12.6629 C   0  0  1  0  0  0  0  0  0  0  0  0
   33.1068   29.1080   12.9369 C   0  0  0  0  0  0  0  0  0  0  0  0
   33.3008   29.7670   11.8028 C   0  0  0  0  0  0  0  0  0  0  0  0
   34.9798   26.0385   15.4975 O   0  0  0  0  0  0  0  0  0  0  0  0
   33.8583   25.3620   13.0623 O   0  0  0  0  0  0  0  0  0  0  0  0
   33.4722   27.5201   11.2916 O   0  0  0  0  0  0  0  0  0  0  0  0
   32.8706   29.6513   14.1713 O   0  0  0  0  0  0  0  0  0  0  0  0
   33.5124   28.8147   10.6800 C   0  0  1  0  0  0  0  0  0  0  0  0
   33.3482   31.1205   11.6028 O   0  0  0  0  0  0  0  0  0  0  0  0
   32.4815   28.9378    9.7175 O   0  0  0  0  0  0  0  0  0  0  0  0
   34.2414   27.9428   15.1608 H   0  0  0  0  0  0  0  0  0  0  0  0
   31.9749   27.3407   12.7326 H   0  0  0  0  0  0  0  0  0  0  0  0
   34.3685   25.2992   15.6657 H   0  0  0  0  0  0  0  0  0  0  0  0
   34.3835   24.8549   13.7031 H   0  0  0  0  0  0  0  0  0  0  0  0
   33.6462   30.2005   14.3843 H   0  0  0  0  0  0  0  0  0  0  0  0
   34.4896   28.9930   10.2209 H   0  0  0  0  0  0  0  0  0  0  0  0
   33.1595   31.5516   12.4518 H   0  0  0  0  0  0  0  0  0  0  0  0
   32.6435   28.2554    9.0471 H   0  0  0  0  0  0  0  0  0  0  0  0
  1  2  2  0  0  0  0
  1  6  1  0  0  0  0
  1 13  1  0  0  0  0
  2  3  1  0  0  0  0
  2  7  1  0  0  0  0
  3  4  1  0  0  0  0
  3  8  1  0  0  0  0
  3 14  1  1  0  0  0
  4  5  2  0  0  0  0
  4  9  1  0  0  0  0
  5 10  1  0  0  0  0
  5 11  1  0  0  0  0
  6 15  1  0  0  0  0
  7 16  1  0  0  0  0
  8 10  1  0  0  0  0
  9 17  1  0  0  0  0
 10 12  1  0  0  0  0
 10 18  1  6  0  0  0
 11 19  1  0  0  0  0
 12 20  1  0  0  0  0
M  END
$$$$
