H22
 OpenBabel04051919493D

 53 56  0  0  1  0  0  0  0  0999 V2000
   -3.6340    9.6938   19.7874 F   0  0  0  0  0  0  0  0  0  0  0  0
   -4.8408    9.1050   19.7526 C   0  0  0  0  0  0  0  0  0  0  0  0
   -5.0506    8.0386   18.9036 C   0  0  0  0  0  0  0  0  0  0  0  0
   -6.2818    7.3810   18.9285 C   0  0  0  0  0  0  0  0  0  0  0  0
   -6.5095    6.3092   18.0419 N   0  3  0  0  0  0  0  0  0  0  0  0
   -6.4652    4.9980   18.5058 C   0  0  0  0  0  0  0  0  0  0  0  0
   -6.6055    3.9584   17.6858 C   0  0  0  0  0  0  0  0  0  0  0  0
   -6.8103    4.1782   16.2711 C   0  0  0  0  0  0  0  0  0  0  0  0
   -6.8410    5.4212   15.7762 C   0  0  0  0  0  0  0  0  0  0  0  0
   -6.6659    6.5953   16.6794 C   0  0  0  0  0  0  0  0  0  0  0  0
   -6.6947    7.7235   16.1876 O   0  0  0  0  0  0  0  0  0  0  0  0
   -7.2818    7.7771   19.8350 C   0  0  0  0  0  0  0  0  0  0  0  0
   -7.0558    8.8445   20.7058 C   0  0  0  0  0  0  0  0  0  0  0  0
   -5.8398    9.5173   20.6367 C   0  0  0  0  0  0  0  0  0  0  0  0
   -5.6234   10.6231   21.4682 N   0  0  0  0  0  0  0  0  0  0  0  0
   -5.1840   11.8306   20.9236 C   0  0  0  0  0  0  0  0  0  0  0  0
   -5.0036   12.0215   19.7192 O   0  0  0  0  0  0  0  0  0  0  0  0
   -5.0452   12.9797   21.8764 C   0  0  0  0  0  0  0  0  0  0  0  0
   -4.8764   12.5758   23.3201 N   0  3  1  0  0  0  0  0  0  0  0  0
   -3.5288   11.9289   23.5584 C   0  0  0  0  0  0  0  0  0  0  0  0
   -3.0971   12.4069   24.9504 C   0  0  1  0  0  0  0  0  0  0  0  0
   -4.1537   13.3906   25.4254 C   0  0  0  0  0  0  0  0  0  0  0  0
   -5.0034   13.7443   24.2352 C   0  0  0  0  0  0  0  0  0  0  0  0
   -2.9807   11.2844   25.8797 N   0  0  0  0  0  0  0  0  0  0  0  0
   -1.9892   10.3580   25.6571 C   0  0  0  0  0  0  0  0  0  0  0  0
   -1.2391   10.5445   24.6952 O   0  0  0  0  0  0  0  0  0  0  0  0
   -1.9243    9.1940   26.5301 C   0  0  0  0  0  0  0  0  0  0  0  0
   -2.6814    8.7709   27.6109 C   0  0  0  0  0  0  0  0  0  0  0  0
   -2.2018    7.5238   28.1429 C   0  0  0  0  0  0  0  0  0  0  0  0
   -0.6749    8.0632   26.1683 S   0  0  0  0  0  0  0  0  0  0  0  0
   -1.1243    7.0588   27.4391 C   0  0  0  0  0  0  0  0  0  0  0  0
   -0.2308    5.6202   27.7151 Cl  0  0  0  0  0  0  0  0  0  0  0  0
   -4.2506    7.7200   18.2467 H   0  0  0  0  0  0  0  0  0  0  0  0
   -6.2805    4.8633   19.5698 H   0  0  0  0  0  0  0  0  0  0  0  0
   -6.5537    2.9441   18.0572 H   0  0  0  0  0  0  0  0  0  0  0  0
   -6.9379    3.3094   15.6302 H   0  0  0  0  0  0  0  0  0  0  0  0
   -6.9948    5.6375   14.7305 H   0  0  0  0  0  0  0  0  0  0  0  0
   -8.2539    7.2856   19.8207 H   0  0  0  0  0  0  0  0  0  0  0  0
   -7.8622    9.1867   21.3525 H   0  0  0  0  0  0  0  0  0  0  0  0
   -5.8857   10.4841   22.4260 H   0  0  0  0  0  0  0  0  0  0  0  0
   -5.9471   13.6014   21.8135 H   0  0  0  0  0  0  0  0  0  0  0  0
   -4.1675   13.5725   21.6027 H   0  0  0  0  0  0  0  0  0  0  0  0
   -2.8357   12.2506   22.7719 H   0  0  0  0  0  0  0  0  0  0  0  0
   -3.6768   10.8448   23.4935 H   0  0  0  0  0  0  0  0  0  0  0  0
   -2.1162   12.8961   24.8597 H   0  0  0  0  0  0  0  0  0  0  0  0
   -3.7014   14.2918   25.8471 H   0  0  0  0  0  0  0  0  0  0  0  0
   -4.7788   12.9403   26.2023 H   0  0  0  0  0  0  0  0  0  0  0  0
   -6.0646   13.8479   24.4900 H   0  0  0  0  0  0  0  0  0  0  0  0
   -4.6492   14.6352   23.7128 H   0  0  0  0  0  0  0  0  0  0  0  0
   -3.6710   11.1275   26.6040 H   0  0  0  0  0  0  0  0  0  0  0  0
   -3.5334    9.2945   28.0353 H   0  0  0  0  0  0  0  0  0  0  0  0
   -2.6232    6.9999   28.9911 H   0  0  0  0  0  0  0  0  0  0  0  0
   -5.6169   11.9210   23.5819 H   0  0  0  0  0  0  0  0  0  0  0  0
  1  2  1  0  0  0  0
  2  3  2  0  0  0  0
  2 14  1  0  0  0  0
  3  4  1  0  0  0  0
  3 33  1  0  0  0  0
  4  5  1  0  0  0  0
  4 12  2  0  0  0  0
  5  6  1  0  0  0  0
  5 10  1  0  0  0  0
  6  7  2  0  0  0  0
  6 34  1  0  0  0  0
  7  8  1  0  0  0  0
  7 35  1  0  0  0  0
  8  9  2  0  0  0  0
  8 36  1  0  0  0  0
  9 10  1  0  0  0  0
  9 37  1  0  0  0  0
 10 11  2  0  0  0  0
 12 13  1  0  0  0  0
 12 38  1  0  0  0  0
 13 14  2  0  0  0  0
 13 39  1  0  0  0  0
 14 15  1  0  0  0  0
 15 16  1  0  0  0  0
 15 40  1  0  0  0  0
 16 17  2  0  0  0  0
 16 18  1  0  0  0  0
 18 19  1  0  0  0  0
 18 41  1  0  0  0  0
 18 42  1  0  0  0  0
 19 20  1  0  0  0  0
 19 23  1  0  0  0  0
 19 53  1  1  0  0  0
 20 21  1  0  0  0  0
 20 43  1  0  0  0  0
 20 44  1  0  0  0  0
 21 22  1  0  0  0  0
 21 24  1  0  0  0  0
 21 45  1  6  0  0  0
 22 23  1  0  0  0  0
 22 46  1  0  0  0  0
 22 47  1  0  0  0  0
 23 48  1  0  0  0  0
 23 49  1  0  0  0  0
 24 25  1  0  0  0  0
 24 50  1  0  0  0  0
 25 26  2  0  0  0  0
 25 27  1  0  0  0  0
 27 28  2  0  0  0  0
 27 30  1  0  0  0  0
 28 29  1  0  0  0  0
 28 51  1  0  0  0  0
 29 31  2  0  0  0  0
 29 52  1  0  0  0  0
 30 31  1  0  0  0  0
 31 32  1  0  0  0  0
M  CHG  2   5   1  19   1
M  END
$$$$
