H25
 OpenBabel04051919513D

 54 57  0  0  1  0  0  0  0  0999 V2000
    9.4389   62.0791    1.4535 F   0  0  0  0  0  0  0  0  0  0  0  0
    8.5870   61.6180    2.4012 C   0  0  0  0  0  0  0  0  0  0  0  0
    8.2074   60.2937    2.3852 C   0  0  0  0  0  0  0  0  0  0  0  0
    7.3941   59.8242    3.4094 C   0  0  0  0  0  0  0  0  0  0  0  0
    6.8964   58.5078    3.3452 N   0  3  0  0  0  0  0  0  0  0  0  0
    7.3516   57.5253    4.2238 C   0  0  0  0  0  0  0  0  0  0  0  0
    6.8930   56.2837    4.1636 C   0  0  0  0  0  0  0  0  0  0  0  0
    5.8864   55.9234    3.1930 C   0  0  0  0  0  0  0  0  0  0  0  0
    5.4152   56.8340    2.3369 C   0  0  0  0  0  0  0  0  0  0  0  0
    5.9282   58.2284    2.3656 C   0  0  0  0  0  0  0  0  0  0  0  0
    5.4659   59.0467    1.5699 O   0  0  0  0  0  0  0  0  0  0  0  0
    7.0065   60.6644    4.4692 C   0  0  0  0  0  0  0  0  0  0  0  0
    7.4126   61.9954    4.4799 C   0  0  0  0  0  0  0  0  0  0  0  0
    8.1689   62.4786    3.4166 C   0  0  0  0  0  0  0  0  0  0  0  0
    8.4986   63.8411    3.3549 N   0  0  0  0  0  0  0  0  0  0  0  0
    8.1138   64.5845    2.2456 C   0  0  0  0  0  0  0  0  0  0  0  0
    7.4443   64.1522    1.3104 O   0  0  0  0  0  0  0  0  0  0  0  0
    8.4887   66.0621    2.2404 C   0  0  0  0  0  0  0  0  0  0  0  0
    9.5155   66.4523    3.2798 N   0  3  2  0  0  0  0  0  0  0  0  0
    9.6299   67.9244    3.5144 C   0  0  0  0  0  0  0  0  0  0  0  0
   10.9669   68.0729    4.2327 C   0  0  2  0  0  0  0  0  0  0  0  0
   11.5862   69.3146    3.9458 O   0  0  0  0  0  0  0  0  0  0  0  0
   10.9107   65.9972    2.9088 C   0  0  0  0  0  0  0  0  0  0  0  0
   11.8458   66.9205    3.7063 C   0  0  2  0  0  0  0  0  0  0  0  0
   12.5147   66.1887    4.7813 N   0  0  0  0  0  0  0  0  0  0  0  0
   13.5101   65.2866    4.4493 C   0  0  0  0  0  0  0  0  0  0  0  0
   13.6934   65.0165    3.2603 O   0  0  0  0  0  0  0  0  0  0  0  0
   14.2280   64.6821    5.5595 C   0  0  0  0  0  0  0  0  0  0  0  0
   14.1813   64.9447    6.9230 C   0  0  0  0  0  0  0  0  0  0  0  0
   15.0558   64.0986    7.6707 C   0  0  0  0  0  0  0  0  0  0  0  0
   15.3425   63.4180    5.2205 S   0  0  0  0  0  0  0  0  0  0  0  0
   15.7345   63.2373    6.8488 C   0  0  0  0  0  0  0  0  0  0  0  0
   16.8848   62.0572    7.3242 Cl  0  0  0  0  0  0  0  0  0  0  0  0
    8.5399   59.6554    1.5771 H   0  0  0  0  0  0  0  0  0  0  0  0
    8.1183   57.8236    4.9335 H   0  0  0  0  0  0  0  0  0  0  0  0
    7.2668   55.5103    4.8333 H   0  0  0  0  0  0  0  0  0  0  0  0
    5.5194   54.9024    3.1780 H   0  0  0  0  0  0  0  0  0  0  0  0
    4.6544   56.6147    1.5995 H   0  0  0  0  0  0  0  0  0  0  0  0
    6.3256   60.2935    5.2321 H   0  0  0  0  0  0  0  0  0  0  0  0
    7.0422   62.6551    5.2655 H   0  0  0  0  0  0  0  0  0  0  0  0
    8.7981   64.2339    4.2343 H   0  0  0  0  0  0  0  0  0  0  0  0
    7.5834   66.6514    2.4385 H   0  0  0  0  0  0  0  0  0  0  0  0
    8.8934   66.3280    1.2600 H   0  0  0  0  0  0  0  0  0  0  0  0
    8.7874   68.2369    4.1414 H   0  0  0  0  0  0  0  0  0  0  0  0
    9.5980   68.4504    2.5515 H   0  0  0  0  0  0  0  0  0  0  0  0
   10.8264   67.9942    5.3175 H   0  0  0  0  0  0  0  0  0  0  0  0
   11.0628   70.0473    4.3193 H   0  0  0  0  0  0  0  0  0  0  0  0
   11.0395   66.1462    1.8321 H   0  0  0  0  0  0  0  0  0  0  0  0
   10.9905   64.9378    3.1582 H   0  0  0  0  0  0  0  0  0  0  0  0
   12.6288   67.2968    3.0370 H   0  0  0  0  0  0  0  0  0  0  0  0
   12.3808   66.4411    5.7536 H   0  0  0  0  0  0  0  0  0  0  0  0
   13.5672   65.7067    7.3866 H   0  0  0  0  0  0  0  0  0  0  0  0
   15.1827   64.1291    8.7463 H   0  0  0  0  0  0  0  0  0  0  0  0
    9.2425   66.0461    4.1757 H   0  0  0  0  0  0  0  0  0  0  0  0
  1  2  1  0  0  0  0
  2  3  2  0  0  0  0
  2 14  1  0  0  0  0
  3  4  1  0  0  0  0
  3 34  1  0  0  0  0
  4  5  1  0  0  0  0
  4 12  2  0  0  0  0
  5  6  1  0  0  0  0
  5 10  1  0  0  0  0
  6  7  2  0  0  0  0
  6 35  1  0  0  0  0
  7  8  1  0  0  0  0
  7 36  1  0  0  0  0
  8  9  2  0  0  0  0
  8 37  1  0  0  0  0
  9 10  1  0  0  0  0
  9 38  1  0  0  0  0
 10 11  2  0  0  0  0
 12 13  1  0  0  0  0
 12 39  1  0  0  0  0
 13 14  2  0  0  0  0
 13 40  1  0  0  0  0
 14 15  1  0  0  0  0
 15 16  1  0  0  0  0
 15 41  1  0  0  0  0
 16 17  2  0  0  0  0
 16 18  1  0  0  0  0
 18 19  1  0  0  0  0
 18 42  1  0  0  0  0
 18 43  1  0  0  0  0
 19 20  1  0  0  0  0
 19 23  1  0  0  0  0
 19 54  1  1  0  0  0
 20 21  1  0  0  0  0
 20 44  1  0  0  0  0
 20 45  1  0  0  0  0
 21 22  1  0  0  0  0
 21 24  1  0  0  0  0
 21 46  1  1  0  0  0
 22 47  1  0  0  0  0
 23 24  1  0  0  0  0
 23 48  1  0  0  0  0
 23 49  1  0  0  0  0
 24 25  1  0  0  0  0
 24 50  1  6  0  0  0
 25 26  1  0  0  0  0
 25 51  1  0  0  0  0
 26 27  2  0  0  0  0
 26 28  1  0  0  0  0
 28 29  2  0  0  0  0
 28 31  1  0  0  0  0
 29 30  1  0  0  0  0
 29 52  1  0  0  0  0
 30 32  2  0  0  0  0
 30 53  1  0  0  0  0
 31 32  1  0  0  0  0
 32 33  1  0  0  0  0
M  CHG  2   5   1  19   1
M  END
$$$$
