H35
 OpenBabel04051919293D

 25 27  0  0  0  0  0  0  0  0999 V2000
   39.7747   25.9768   28.7955 C   0  0  0  0  0  0  0  0  0  0  0  0
   40.6151   27.1100   28.7072 C   0  0  0  0  0  0  0  0  0  0  0  0
   41.4565   26.8844   27.6492 C   0  0  0  0  0  0  0  0  0  0  0  0
   41.1963   25.6753   27.0823 O   0  0  0  0  0  0  0  0  0  0  0  0
   40.1550   25.1291   27.7926 C   0  0  0  0  0  0  0  0  0  0  0  0
   39.6065   23.8211   27.3070 C   0  0  0  0  0  0  0  0  0  0  0  0
   39.0520   23.9312   25.9791 N   0  0  0  0  0  0  0  0  0  0  0  0
   38.7402   22.8196   25.2322 C   0  0  0  0  0  0  0  0  0  0  0  0
   38.5312   21.6165   25.8254 N   0  0  0  0  0  0  0  0  0  0  0  0
   38.1565   20.5708   25.0539 C   0  0  0  0  0  0  0  0  0  0  0  0
   37.9716   20.5342   23.7184 N   0  0  0  0  0  0  0  0  0  0  0  0
   38.2096   21.7392   23.1814 C   0  0  0  0  0  0  0  0  0  0  0  0
   38.5793   22.8981   23.8362 C   0  0  0  0  0  0  0  0  0  0  0  0
   38.7223   23.9415   22.9343 N   0  0  0  0  0  0  0  0  0  0  0  0
   38.4560   23.4099   21.7589 C   0  0  0  0  0  0  0  0  0  0  0  0
   38.1306   22.0852   21.8645 N   0  3  0  0  0  0  0  0  0  0  0  0
   38.9605   25.8034   29.4872 H   0  0  0  0  0  0  0  0  0  0  0  0
   40.5956   27.9958   29.3265 H   0  0  0  0  0  0  0  0  0  0  0  0
   42.2470   27.4606   27.1872 H   0  0  0  0  0  0  0  0  0  0  0  0
   38.8019   23.5192   27.9899 H   0  0  0  0  0  0  0  0  0  0  0  0
   40.3866   23.0513   27.3781 H   0  0  0  0  0  0  0  0  0  0  0  0
   39.2114   24.7918   25.4672 H   0  0  0  0  0  0  0  0  0  0  0  0
   37.9750   19.6406   25.5850 H   0  0  0  0  0  0  0  0  0  0  0  0
   38.4819   23.9290   20.8099 H   0  0  0  0  0  0  0  0  0  0  0  0
   37.8769   21.4564   21.1159 H   0  0  0  0  0  0  0  0  0  0  0  0
  1  2  1  0  0  0  0
  1  5  2  0  0  0  0
  1 17  1  0  0  0  0
  2  3  2  0  0  0  0
  2 18  1  0  0  0  0
  3  4  1  0  0  0  0
  3 19  1  0  0  0  0
  4  5  1  0  0  0  0
  5  6  1  0  0  0  0
  6  7  1  0  0  0  0
  6 20  1  0  0  0  0
  6 21  1  0  0  0  0
  7  8  1  0  0  0  0
  7 22  1  0  0  0  0
  8  9  2  0  0  0  0
  8 13  1  0  0  0  0
  9 10  1  0  0  0  0
 10 11  2  0  0  0  0
 10 23  1  0  0  0  0
 11 12  1  0  0  0  0
 12 13  2  0  0  0  0
 12 16  1  0  0  0  0
 13 14  1  0  0  0  0
 14 15  1  0  0  0  0
 15 16  2  0  0  0  0
 15 24  1  0  0  0  0
 16 25  1  0  0  0  0
M  CHG  1  16   1
M  END
$$$$
