HA2
 OpenBabel04051919393D

 57 58  0  0  1  0  0  0  0  0999 V2000
    8.0897   39.2720   67.6035 C   0  0  0  0  0  0  0  0  0  0  0  0
    8.0023   37.9159   67.9253 C   0  0  0  0  0  0  0  0  0  0  0  0
    7.7711   37.5133   69.2469 C   0  0  0  0  0  0  0  0  0  0  0  0
    7.6339   38.4736   70.2487 C   0  0  0  0  0  0  0  0  0  0  0  0
    7.7184   39.8338   69.9287 C   0  0  0  0  0  0  0  0  0  0  0  0
    7.9554   40.2472   68.6006 C   0  0  0  0  0  0  0  0  0  0  0  0
    8.0777   41.7288   68.2712 C   0  0  0  0  0  0  0  0  0  0  0  0
    8.3935   42.0083   66.8758 O   0  0  0  0  0  0  0  0  0  0  0  0
    9.7048   42.1714   66.4942 C   0  0  0  0  0  0  0  0  0  0  0  0
    9.9725   43.1267   65.4881 C   0  0  0  0  0  0  0  0  0  0  0  0
   11.2917   43.3218   65.0139 C   0  0  0  0  0  0  0  0  0  0  0  0
   10.7633   41.3871   66.9596 C   0  0  0  0  0  0  0  0  0  0  0  0
   12.0716   41.5837   66.4891 C   0  0  0  0  0  0  0  0  0  0  0  0
   12.3481   42.5760   65.5314 C   0  0  0  0  0  0  0  0  0  0  0  0
   13.7675   42.8009   65.0682 C   0  0  0  0  0  0  0  0  0  0  0  0
   14.1053   42.1348   63.7284 C   0  0  2  0  0  0  0  0  0  0  0  0
   13.5608   40.7343   63.7194 N   0  3  0  0  0  0  0  0  0  0  0  0
   15.6105   42.0375   63.4670 C   0  0  0  0  0  0  0  0  0  0  0  0
   16.3758   41.7548   64.6874 N   0  0  0  0  0  0  0  0  0  0  0  0
   16.1249   40.5504   65.3535 O   0  0  0  0  0  0  0  0  0  0  0  0
   17.3102   42.6436   65.1562 C   0  0  0  0  0  0  0  0  0  0  0  0
   17.5078   43.6634   64.5240 O   0  0  0  0  0  0  0  0  0  0  0  0
   18.0557   42.2842   66.4291 C   0  0  0  0  0  0  0  0  0  0  0  0
   18.9599   43.4495   66.8322 C   0  0  0  0  0  0  0  0  0  0  0  0
   18.4757   44.0749   68.1367 C   0  0  0  0  0  0  0  0  0  0  0  0
   18.8490   45.5437   68.2164 C   0  0  0  0  0  0  0  0  0  0  0  0
   17.5945   46.4057   68.4648 C   0  0  0  0  0  0  0  0  0  0  0  0
   17.8068   47.3590   69.2877 O   0  0  0  0  0  0  0  0  0  0  0  0
   16.5582   46.0815   67.8738 O   0  0  0  0  0  0  0  0  0  0  0  0
    8.2811   39.5671   66.5744 H   0  0  0  0  0  0  0  0  0  0  0  0
    8.1072   37.1684   67.1452 H   0  0  0  0  0  0  0  0  0  0  0  0
    7.6978   36.4539   69.4826 H   0  0  0  0  0  0  0  0  0  0  0  0
    7.4600   38.1669   71.2812 H   0  0  0  0  0  0  0  0  0  0  0  0
    7.6050   40.5772   70.7132 H   0  0  0  0  0  0  0  0  0  0  0  0
    8.8175   42.1963   68.9361 H   0  0  0  0  0  0  0  0  0  0  0  0
    7.1006   42.1994   68.4942 H   0  0  0  0  0  0  0  0  0  0  0  0
    9.1661   43.7409   65.0939 H   0  0  0  0  0  0  0  0  0  0  0  0
   11.4824   44.1003   64.2619 H   0  0  0  0  0  0  0  0  0  0  0  0
   10.5828   40.6147   67.7066 H   0  0  0  0  0  0  0  0  0  0  0  0
   12.8829   40.9776   66.8994 H   0  0  0  0  0  0  0  0  0  0  0  0
   14.4346   42.4294   65.8521 H   0  0  0  0  0  0  0  0  0  0  0  0
   13.9701   43.8675   64.9783 H   0  0  0  0  0  0  0  0  0  0  0  0
   13.6000   42.6431   62.9029 H   0  0  0  0  0  0  0  0  0  0  0  0
   13.7536   40.2614   62.8282 H   0  0  0  0  0  0  0  0  0  0  0  0
   13.9827   40.1685   64.4612 H   0  0  0  0  0  0  0  0  0  0  0  0
   15.9333   42.9958   63.0512 H   0  0  0  0  0  0  0  0  0  0  0  0
   15.8350   41.2585   62.7264 H   0  0  0  0  0  0  0  0  0  0  0  0
   15.2387   40.6441   65.7356 H   0  0  0  0  0  0  0  0  0  0  0  0
   18.6589   41.3985   66.2566 H   0  0  0  0  0  0  0  0  0  0  0  0
   17.3266   42.0877   67.2185 H   0  0  0  0  0  0  0  0  0  0  0  0
   18.9820   44.2169   66.0531 H   0  0  0  0  0  0  0  0  0  0  0  0
   19.9879   43.0914   66.9586 H   0  0  0  0  0  0  0  0  0  0  0  0
   18.9289   43.5389   68.9786 H   0  0  0  0  0  0  0  0  0  0  0  0
   17.3920   43.9518   68.2189 H   0  0  0  0  0  0  0  0  0  0  0  0
   19.2920   45.8760   67.2588 H   0  0  0  0  0  0  0  0  0  0  0  0
   19.5877   45.7020   68.9965 H   0  0  0  0  0  0  0  0  0  0  0  0
   12.5389   40.7419   63.8748 H   0  0  0  0  0  0  0  0  0  0  0  0
  1  2  2  0  0  0  0
  1  6  1  0  0  0  0
  1 30  1  0  0  0  0
  2  3  1  0  0  0  0
  2 31  1  0  0  0  0
  3  4  2  0  0  0  0
  3 32  1  0  0  0  0
  4  5  1  0  0  0  0
  4 33  1  0  0  0  0
  5  6  2  0  0  0  0
  5 34  1  0  0  0  0
  6  7  1  0  0  0  0
  7  8  1  0  0  0  0
  7 35  1  0  0  0  0
  7 36  1  0  0  0  0
  8  9  1  0  0  0  0
  9 10  2  0  0  0  0
  9 12  1  0  0  0  0
 10 11  1  0  0  0  0
 10 37  1  0  0  0  0
 11 14  2  0  0  0  0
 11 38  1  0  0  0  0
 12 13  2  0  0  0  0
 12 39  1  0  0  0  0
 13 14  1  0  0  0  0
 13 40  1  0  0  0  0
 14 15  1  0  0  0  0
 15 16  1  0  0  0  0
 15 41  1  0  0  0  0
 15 42  1  0  0  0  0
 16 17  1  0  0  0  0
 16 18  1  0  0  0  0
 16 43  1  6  0  0  0
 17 44  1  0  0  0  0
 17 45  1  0  0  0  0
 17 57  1  0  0  0  0
 18 19  1  0  0  0  0
 18 46  1  0  0  0  0
 18 47  1  0  0  0  0
 19 20  1  0  0  0  0
 19 21  1  0  0  0  0
 20 48  1  0  0  0  0
 21 22  2  0  0  0  0
 21 23  1  0  0  0  0
 23 24  1  0  0  0  0
 23 49  1  0  0  0  0
 23 50  1  0  0  0  0
 24 25  1  0  0  0  0
 24 51  1  0  0  0  0
 24 52  1  0  0  0  0
 25 26  1  0  0  0  0
 25 53  1  0  0  0  0
 25 54  1  0  0  0  0
 26 27  1  0  0  0  0
 26 55  1  0  0  0  0
 26 56  1  0  0  0  0
 27 28  2  0  0  0  0
 27 29  1  0  0  0  0
M  CHG  1  17   1
M  END
$$$$
