HFS
 OpenBabel04051917443D

 39 41  0  0  0  0  0  0  0  0999 V2000
    3.2036   10.1176    4.9794 O   0  0  0  0  0  0  0  0  0  0  0  0
    3.9561   10.0073    3.9851 C   0  0  0  0  0  0  0  0  0  0  0  0
    3.4615    9.8930    2.7043 N   0  3  0  0  0  0  0  0  0  0  0  0
    4.2565    9.7329    1.5671 C   0  0  0  0  0  0  0  0  0  0  0  0
    5.5849    9.6909    1.6478 C   0  0  0  0  0  0  0  0  0  0  0  0
    6.3157    9.8160    2.9636 C   0  0  0  0  0  0  0  0  0  0  0  0
    7.7654    9.7422    3.1643 C   0  0  0  0  0  0  0  0  0  0  0  0
    8.2980    9.8801    4.4680 C   0  0  0  0  0  0  0  0  0  0  0  0
    7.4600   10.0869    5.5838 C   0  0  0  0  0  0  0  0  0  0  0  0
    6.0614   10.1536    5.4249 C   0  0  0  0  0  0  0  0  0  0  0  0
    5.4818   10.0086    4.1362 C   0  0  0  0  0  0  0  0  0  0  0  0
    8.9957    9.4755    1.8025 S   0  0  0  0  0  0  0  0  0  0  0  0
    8.6464    8.2452    1.1233 O   0  0  0  0  0  0  0  0  0  0  0  0
    9.0879   10.7155    1.0567 O   0  0  0  0  0  0  0  0  0  0  0  0
   10.6239    9.1539    2.4358 N   0  0  0  0  0  0  0  0  0  0  0  0
   11.4682   10.1860    3.0930 C   0  0  0  0  0  0  0  0  0  0  0  0
   12.6886   10.4740    2.2177 C   0  0  0  0  0  0  0  0  0  0  0  0
   13.7074    9.3494    2.2363 C   0  0  0  0  0  0  0  0  0  0  0  0
   13.1582    8.1283    1.5781 N   0  3  0  0  0  0  0  0  0  0  0  0
   12.3823    7.2795    2.5289 C   0  0  0  0  0  0  0  0  0  0  0  0
   10.9425    7.7545    2.8302 C   0  0  0  0  0  0  0  0  0  0  0  0
    2.4388    9.9095    2.6032 H   0  0  0  0  0  0  0  0  0  0  0  0
    3.7019    9.6293    0.6158 H   0  0  0  0  0  0  0  0  0  0  0  0
    6.1867    9.5601    0.7531 H   0  0  0  0  0  0  0  0  0  0  0  0
    9.3713    9.8272    4.6310 H   0  0  0  0  0  0  0  0  0  0  0  0
    7.9055   10.1894    6.5810 H   0  0  0  0  0  0  0  0  0  0  0  0
    5.4275   10.3047    6.3141 H   0  0  0  0  0  0  0  0  0  0  0  0
   11.8188    9.8237    4.0741 H   0  0  0  0  0  0  0  0  0  0  0  0
   10.9112   11.1083    3.2630 H   0  0  0  0  0  0  0  0  0  0  0  0
   13.1939   11.3747    2.5858 H   0  0  0  0  0  0  0  0  0  0  0  0
   12.3657   10.6625    1.1890 H   0  0  0  0  0  0  0  0  0  0  0  0
   13.9780    9.0736    3.2624 H   0  0  0  0  0  0  0  0  0  0  0  0
   14.6208    9.6267    1.7001 H   0  0  0  0  0  0  0  0  0  0  0  0
   12.5583    8.3894    0.7745 H   0  0  0  0  0  0  0  0  0  0  0  0
   12.9649    7.2509    3.4583 H   0  0  0  0  0  0  0  0  0  0  0  0
   12.3638    6.2664    2.1152 H   0  0  0  0  0  0  0  0  0  0  0  0
   10.2844    7.0670    2.3024 H   0  0  0  0  0  0  0  0  0  0  0  0
   10.7855    7.6292    3.9058 H   0  0  0  0  0  0  0  0  0  0  0  0
   13.9302    7.5760    1.1812 H   0  0  0  0  0  0  0  0  0  0  0  0
  1  2  2  0  0  0  0
  2  3  1  0  0  0  0
  2 11  1  0  0  0  0
  3  4  1  0  0  0  0
  3 22  1  0  0  0  0
  4  5  2  0  0  0  0
  4 23  1  0  0  0  0
  5  6  1  0  0  0  0
  5 24  1  0  0  0  0
  6  7  2  0  0  0  0
  6 11  1  0  0  0  0
  7  8  1  0  0  0  0
  7 12  1  0  0  0  0
  8  9  2  0  0  0  0
  8 25  1  0  0  0  0
  9 10  1  0  0  0  0
  9 26  1  0  0  0  0
 10 11  2  0  0  0  0
 10 27  1  0  0  0  0
 12 13  2  0  0  0  0
 12 14  2  0  0  0  0
 12 15  1  0  0  0  0
 15 16  1  0  0  0  0
 15 21  1  0  0  0  0
 16 17  1  0  0  0  0
 16 28  1  0  0  0  0
 16 29  1  0  0  0  0
 17 18  1  0  0  0  0
 17 30  1  0  0  0  0
 17 31  1  0  0  0  0
 18 19  1  0  0  0  0
 18 32  1  0  0  0  0
 18 33  1  0  0  0  0
 19 20  1  0  0  0  0
 19 34  1  0  0  0  0
 19 39  1  0  0  0  0
 20 21  1  0  0  0  0
 20 35  1  0  0  0  0
 20 36  1  0  0  0  0
 21 37  1  0  0  0  0
 21 38  1  0  0  0  0
M  CHG  2   3   1  19   1
M  END
$$$$
