HYA
 OpenBabel04051918053D

 19 18  0  0  1  0  0  0  0  0999 V2000
   15.7633    5.7924  -12.2259 C   0  0  0  0  0  0  0  0  0  0  0  0
   16.9684    6.4202  -11.4575 C   0  0  1  0  0  0  0  0  0  0  0  0
   16.7432    6.1605   -9.9445 C   0  0  1  0  0  0  0  0  0  0  0  0
   17.9714    6.0834   -9.0283 C   0  0  0  0  0  0  0  0  0  0  0  0
   15.9537    4.6435  -12.9243 N   0  0  0  0  0  0  0  0  0  0  0  0
   14.6481    6.3336  -12.1825 O   0  0  0  0  0  0  0  0  0  0  0  0
   18.2379    6.1334  -11.9807 O   0  0  0  0  0  0  0  0  0  0  0  0
   15.9357    7.2488   -9.4372 O   0  0  0  0  0  0  0  0  0  0  0  0
   18.6795    4.8572   -9.1496 O   0  0  0  0  0  0  0  0  0  0  0  0
   14.8483    4.1173  -13.6175 O   0  0  0  0  0  0  0  0  0  0  0  0
   16.8336    7.4990  -11.6167 H   0  0  0  0  0  0  0  0  0  0  0  0
   16.1578    5.2464   -9.8024 H   0  0  0  0  0  0  0  0  0  0  0  0
   17.6330    6.1523   -7.9798 H   0  0  0  0  0  0  0  0  0  0  0  0
   18.6524    6.9226   -9.1883 H   0  0  0  0  0  0  0  0  0  0  0  0
   16.7703    4.0145  -12.8099 H   0  0  0  0  0  0  0  0  0  0  0  0
   18.2997    6.6038  -12.8415 H   0  0  0  0  0  0  0  0  0  0  0  0
   15.2140    7.4005  -10.0762 H   0  0  0  0  0  0  0  0  0  0  0  0
   19.4125    4.9019   -8.5106 H   0  0  0  0  0  0  0  0  0  0  0  0
   14.0761    4.4394  -13.1012 H   0  0  0  0  0  0  0  0  0  0  0  0
  1  2  1  0  0  0  0
  1  5  1  0  0  0  0
  1  6  2  0  0  0  0
  2  3  1  0  0  0  0
  2  7  1  0  0  0  0
  2 11  1  6  0  0  0
  3  4  1  0  0  0  0
  3  8  1  0  0  0  0
  3 12  1  1  0  0  0
  4  9  1  0  0  0  0
  4 13  1  0  0  0  0
  4 14  1  0  0  0  0
  5 10  1  0  0  0  0
  5 15  1  0  0  0  0
  7 16  1  0  0  0  0
  8 17  1  0  0  0  0
  9 18  1  0  0  0  0
 10 19  1  0  0  0  0
M  END
$$$$
