I38
 OpenBabel04051919013D

 21 20  0  0  1  0  0  0  0  0999 V2000
   12.8151   31.5051   31.7090 S   0  0  0  0  0  0  0  0  0  0  0  0
   13.5208   30.4679   30.4359 C   0  0  0  0  0  0  0  0  0  0  0  0
   12.5374   29.3384   30.2209 C   0  0  0  0  0  0  0  0  0  0  0  0
   12.4387   28.4508   31.4483 C   0  0  0  0  0  0  0  0  0  0  0  0
   12.9803   27.3360   31.4164 O   0  0  0  0  0  0  0  0  0  0  0  0
   11.6983   28.8729   32.4962 N   0  0  0  0  0  0  0  0  0  0  0  0
   11.4901   28.1278   33.7628 C   0  0  2  0  0  0  0  0  0  0  0  0
    9.9841   28.0409   33.9542 C   0  0  0  0  0  0  0  0  0  0  0  0
   12.1514   28.7478   35.0349 C   0  0  0  0  0  0  0  0  0  0  0  0
   12.5156   29.9615   34.9228 O   0  0  0  0  0  0  0  0  0  0  0  0
   12.2456   27.9896   36.0484 O   0  0  0  0  0  0  0  0  0  0  0  0
   13.7890   32.3963   31.7997 H   0  0  0  0  0  0  0  0  0  0  0  0
   14.5218   30.0847   30.7235 H   0  0  0  0  0  0  0  0  0  0  0  0
   13.6274   31.0637   29.5058 H   0  0  0  0  0  0  0  0  0  0  0  0
   12.8775   28.7339   29.3970 H   0  0  0  0  0  0  0  0  0  0  0  0
   11.5472   29.7469   29.9879 H   0  0  0  0  0  0  0  0  0  0  0  0
   11.3878   29.8447   32.5226 H   0  0  0  0  0  0  0  0  0  0  0  0
   11.8898   27.1155   33.6350 H   0  0  0  0  0  0  0  0  0  0  0  0
    9.7321   27.4810   34.8572 H   0  0  0  0  0  0  0  0  0  0  0  0
    9.5224   27.5392   33.0907 H   0  0  0  0  0  0  0  0  0  0  0  0
    9.5445   29.0452   34.0290 H   0  0  0  0  0  0  0  0  0  0  0  0
  1  2  1  0  0  0  0
  1 12  1  0  0  0  0
  2  3  1  0  0  0  0
  2 13  1  0  0  0  0
  2 14  1  0  0  0  0
  3  4  1  0  0  0  0
  3 15  1  0  0  0  0
  3 16  1  0  0  0  0
  4  5  2  0  0  0  0
  4  6  1  0  0  0  0
  6  7  1  0  0  0  0
  6 17  1  0  0  0  0
  7  8  1  0  0  0  0
  7  9  1  0  0  0  0
  7 18  1  6  0  0  0
  8 19  1  0  0  0  0
  8 20  1  0  0  0  0
  8 21  1  0  0  0  0
  9 10  2  0  0  0  0
  9 11  1  0  0  0  0
M  END
$$$$
