I50
 OpenBabel04051919163D

 52 53  0  0  0  0  0  0  0  0999 V2000
   11.2418  -11.9534   24.0809 C   0  0  0  0  0  0  0  0  0  0  0  0
   12.9007  -10.7992   22.8649 O   0  0  0  0  0  0  0  0  0  0  0  0
   13.6370  -11.6180   20.7078 C   0  0  0  0  0  0  0  0  0  0  0  0
   15.8844  -12.5807   20.5431 C   0  0  0  0  0  0  0  0  0  0  0  0
   17.4049  -12.4511   20.7627 C   0  0  0  0  0  0  0  0  0  0  0  0
   18.0416  -13.6667   21.4286 C   0  0  0  0  0  0  0  0  0  0  0  0
   17.4162  -14.3717   22.4747 C   0  0  0  0  0  0  0  0  0  0  0  0
   18.0167  -15.4817   23.0983 C   0  0  0  0  0  0  0  0  0  0  0  0
   19.2770  -15.8735   22.6270 C   0  0  0  0  0  0  0  0  0  0  0  0
   19.9342  -15.1908   21.6039 C   0  0  0  0  0  0  0  0  0  0  0  0
   17.9801  -17.3776   24.7050 C   0  0  0  0  0  0  0  0  0  0  0  0
   18.6212  -17.0814   26.0700 C   0  0  0  0  0  0  0  0  0  0  0  0
   22.2151  -15.9725   25.3467 C   0  0  0  0  0  0  0  0  0  0  0  0
   19.7981  -14.8423   26.1746 C   0  0  0  0  0  0  0  0  0  0  0  0
   11.0534  -10.7641   24.6664 N   0  0  0  0  0  0  0  0  0  0  0  0
   10.3761  -12.9432   24.3331 N   0  0  0  0  0  0  0  0  0  0  0  0
   12.2647  -12.0267   23.1877 N   0  3  0  0  0  0  0  0  0  0  0  0
   12.9157  -10.5215   21.4558 C   0  0  0  0  0  0  0  0  0  0  0  0
   15.0748  -11.5268   20.9175 N   0  0  0  0  0  0  0  0  0  0  0  0
   15.3850  -13.6001   20.1632 O   0  0  0  0  0  0  0  0  0  0  0  0
   19.3329  -14.0961   21.0161 C   0  0  0  0  0  0  0  0  0  0  0  0
   20.1876  -13.2941   19.7423 Cl  0  0  0  0  0  0  0  0  0  0  0  0
   16.2033  -13.9739   22.9084 F   0  0  0  0  0  0  0  0  0  0  0  0
   17.3423  -16.2147   24.0825 N   0  0  0  0  0  0  0  0  0  0  0  0
   19.8686  -16.2252   25.9342 C   0  0  0  0  0  0  0  0  0  0  0  0
   21.0894  -16.7829   25.5134 C   0  0  0  0  0  0  0  0  0  0  0  0
   22.1303  -14.6015   25.5982 C   0  0  0  0  0  0  0  0  0  0  0  0
   20.9239  -14.0359   26.0110 C   0  0  0  0  0  0  0  0  0  0  0  0
   17.6639  -16.4864   26.8494 F   0  0  0  0  0  0  0  0  0  0  0  0
   18.8753  -18.2828   26.6695 F   0  0  0  0  0  0  0  0  0  0  0  0
   13.3991  -11.5775   19.6347 H   0  0  0  0  0  0  0  0  0  0  0  0
   13.2924  -12.5969   21.0653 H   0  0  0  0  0  0  0  0  0  0  0  0
   17.6679  -11.5498   21.3336 H   0  0  0  0  0  0  0  0  0  0  0  0
   17.7961  -12.3484   19.7514 H   0  0  0  0  0  0  0  0  0  0  0  0
   19.8184  -16.7077   23.0503 H   0  0  0  0  0  0  0  0  0  0  0  0
   20.9257  -15.5406   21.2936 H   0  0  0  0  0  0  0  0  0  0  0  0
   17.2369  -18.1768   24.7883 H   0  0  0  0  0  0  0  0  0  0  0  0
   18.7286  -17.8196   24.0493 H   0  0  0  0  0  0  0  0  0  0  0  0
   23.1586  -16.4119   25.0290 H   0  0  0  0  0  0  0  0  0  0  0  0
   18.8546  -14.3935   26.4848 H   0  0  0  0  0  0  0  0  0  0  0  0
   11.6821  -10.0092   24.4189 H   0  0  0  0  0  0  0  0  0  0  0  0
   10.4663  -13.8538   23.9125 H   0  0  0  0  0  0  0  0  0  0  0  0
    9.5228  -12.7724   24.8671 H   0  0  0  0  0  0  0  0  0  0  0  0
   12.6385  -12.9252   22.8707 H   0  0  0  0  0  0  0  0  0  0  0  0
   13.4693   -9.5759   21.3362 H   0  0  0  0  0  0  0  0  0  0  0  0
   11.9030  -10.3383   21.0738 H   0  0  0  0  0  0  0  0  0  0  0  0
   15.4924  -10.6320   21.1820 H   0  0  0  0  0  0  0  0  0  0  0  0
   16.5043  -15.8442   24.5296 H   0  0  0  0  0  0  0  0  0  0  0  0
   21.1602  -17.8489   25.2981 H   0  0  0  0  0  0  0  0  0  0  0  0
   23.0109  -13.9708   25.4764 H   0  0  0  0  0  0  0  0  0  0  0  0
   20.8583  -12.9682   26.2120 H   0  0  0  0  0  0  0  0  0  0  0  0
   10.3347  -10.5950   25.3442 H   0  0  0  0  0  0  0  0  0  0  0  0
  1 15  2  0  0  0  0
  1 16  1  0  0  0  0
  1 17  1  0  0  0  0
  2 17  1  0  0  0  0
  2 18  1  0  0  0  0
  3 18  1  0  0  0  0
  3 19  1  0  0  0  0
  3 31  1  0  0  0  0
  3 32  1  0  0  0  0
  4  5  1  0  0  0  0
  4 19  1  0  0  0  0
  4 20  2  0  0  0  0
  5  6  1  0  0  0  0
  5 33  1  0  0  0  0
  5 34  1  0  0  0  0
  6  7  2  0  0  0  0
  6 21  1  0  0  0  0
  7  8  1  0  0  0  0
  7 23  1  0  0  0  0
  8  9  2  0  0  0  0
  8 24  1  0  0  0  0
  9 10  1  0  0  0  0
  9 35  1  0  0  0  0
 10 21  2  0  0  0  0
 10 36  1  0  0  0  0
 11 12  1  0  0  0  0
 11 24  1  0  0  0  0
 11 37  1  0  0  0  0
 11 38  1  0  0  0  0
 12 25  1  0  0  0  0
 12 29  1  0  0  0  0
 12 30  1  0  0  0  0
 13 26  2  0  0  0  0
 13 27  1  0  0  0  0
 13 39  1  0  0  0  0
 14 25  2  0  0  0  0
 14 28  1  0  0  0  0
 14 40  1  0  0  0  0
 15 41  1  0  0  0  0
 15 52  1  0  0  0  0
 16 42  1  0  0  0  0
 16 43  1  0  0  0  0
 17 44  1  0  0  0  0
 18 45  1  0  0  0  0
 18 46  1  0  0  0  0
 19 47  1  0  0  0  0
 21 22  1  0  0  0  0
 24 48  1  0  0  0  0
 25 26  1  0  0  0  0
 26 49  1  0  0  0  0
 27 28  2  0  0  0  0
 27 50  1  0  0  0  0
 28 51  1  0  0  0  0
M  CHG  1  17   1
M  END
$$$$
