I7C
 OpenBabel04051918473D

 27 27  0  0  0  0  0  0  0  0999 V2000
   -4.9916    1.9415   14.6743 C   0  0  0  0  0  0  0  0  0  0  0  0
   -5.5586    2.1985   15.9233 C   0  0  0  0  0  0  0  0  0  0  0  0
   -5.7774    3.5111   16.3595 C   0  0  0  0  0  0  0  0  0  0  0  0
   -5.4087    4.5571   15.5034 C   0  0  0  0  0  0  0  0  0  0  0  0
   -4.8230    4.3213   14.2327 C   0  0  0  0  0  0  0  0  0  0  0  0
   -4.6119    2.9894   13.8280 C   0  0  0  0  0  0  0  0  0  0  0  0
   -6.0347    0.8597   16.9708 S   0  0  0  0  0  0  0  0  0  0  0  0
   -5.3749   -0.5074   16.3229 N   0  0  0  0  0  0  0  0  0  0  0  0
   -5.3793    1.0423   18.2456 O   0  0  0  0  0  0  0  0  0  0  0  0
   -7.4713    0.7184   16.8602 O   0  0  0  0  0  0  0  0  0  0  0  0
   -3.9915    2.4792   12.2283 S   0  0  0  0  0  0  0  0  0  0  0  0
   -2.3605    2.7397   12.2647 N   0  0  0  0  0  0  0  0  0  0  0  0
   -4.1341    1.0437   12.1389 O   0  0  0  0  0  0  0  0  0  0  0  0
   -4.5559    3.3644   11.2292 O   0  0  0  0  0  0  0  0  0  0  0  0
   -6.3471    3.8180   17.5798 N   0  0  0  0  0  0  0  0  0  0  0  0
   -4.4611    5.5217   13.3886 C   0  0  0  0  0  0  0  0  0  0  0  0
   -5.4114    5.8493   12.4818 F   0  0  0  0  0  0  0  0  0  0  0  0
   -4.2766    6.6461   14.1450 F   0  0  0  0  0  0  0  0  0  0  0  0
   -3.2908    5.3627   12.7185 F   0  0  0  0  0  0  0  0  0  0  0  0
   -4.8513    0.9255   14.3260 H   0  0  0  0  0  0  0  0  0  0  0  0
   -5.5781    5.5827   15.8462 H   0  0  0  0  0  0  0  0  0  0  0  0
   -5.5433   -1.3793   16.8097 H   0  0  0  0  0  0  0  0  0  0  0  0
   -4.8141   -0.4891   15.4845 H   0  0  0  0  0  0  0  0  0  0  0  0
   -1.8447    2.5277   11.4169 H   0  0  0  0  0  0  0  0  0  0  0  0
   -1.9139    3.1668   13.0653 H   0  0  0  0  0  0  0  0  0  0  0  0
   -6.6198    3.0832   18.2295 H   0  0  0  0  0  0  0  0  0  0  0  0
   -6.4891    4.7725   17.8743 H   0  0  0  0  0  0  0  0  0  0  0  0
  1  2  2  0  0  0  0
  1  6  1  0  0  0  0
  1 20  1  0  0  0  0
  2  3  1  0  0  0  0
  2  7  1  0  0  0  0
  3  4  2  0  0  0  0
  3 15  1  0  0  0  0
  4  5  1  0  0  0  0
  4 21  1  0  0  0  0
  5  6  2  0  0  0  0
  5 16  1  0  0  0  0
  6 11  1  0  0  0  0
  7  8  1  0  0  0  0
  7  9  2  0  0  0  0
  7 10  2  0  0  0  0
  8 22  1  0  0  0  0
  8 23  1  0  0  0  0
 11 12  1  0  0  0  0
 11 13  2  0  0  0  0
 11 14  2  0  0  0  0
 12 24  1  0  0  0  0
 12 25  1  0  0  0  0
 15 26  1  0  0  0  0
 15 27  1  0  0  0  0
 16 17  1  0  0  0  0
 16 18  1  0  0  0  0
 16 19  1  0  0  0  0
M  END
$$$$
