IBC
 OpenBabel04051920043D

 31 32  0  0  1  0  0  0  0  0999 V2000
   29.5966    2.2489   76.9167 O   0  0  0  0  0  0  0  0  0  0  0  0
   30.6084    2.3682   76.1579 C   0  0  0  0  0  0  0  0  0  0  0  0
   30.9338    3.2925   75.3463 O   0  0  0  0  0  0  0  0  0  0  0  0
   31.6533    1.2437   76.2179 C   0  0  1  0  0  0  0  0  0  0  0  0
   32.8600    1.5795   75.3545 N   0  3  0  0  0  0  0  0  0  0  0  0
   32.1375    1.0236   77.6613 C   0  0  0  0  0  0  0  0  0  0  0  0
   33.3451    0.0617   77.7498 C   0  0  0  0  0  0  0  0  0  0  0  0
   33.1630   -1.2283   77.5043 C   0  0  0  0  0  0  0  0  0  0  0  0
   34.6356    0.6784   77.9464 C   0  0  0  0  0  0  0  0  0  0  0  0
   35.8246    0.0957   78.0787 C   0  0  0  0  0  0  0  0  0  0  0  0
   36.1938   -1.3400   77.9792 C   0  0  0  0  0  0  0  0  0  0  0  0
   35.5738   -2.0474   76.7860 C   0  0  0  0  0  0  0  0  0  0  0  0
   34.0722   -2.1906   76.8113 C   0  0  1  0  0  0  0  0  0  0  0  0
   33.4603   -3.4880   76.8442 O   0  0  0  0  0  0  0  0  0  0  0  0
   32.0971   -3.2076   77.0896 N   0  0  0  0  0  0  0  0  0  0  0  0
   31.8769   -1.9491   77.5090 C   0  0  0  0  0  0  0  0  0  0  0  0
   30.8141   -1.4763   77.8401 O   0  0  0  0  0  0  0  0  0  0  0  0
   31.2349    0.3273   75.7923 H   0  0  0  0  0  0  0  0  0  0  0  0
   33.5661    0.8498   75.3654 H   0  0  0  0  0  0  0  0  0  0  0  0
   32.4982    1.7899   74.4150 H   0  0  0  0  0  0  0  0  0  0  0  0
   31.3163    0.6383   78.2663 H   0  0  0  0  0  0  0  0  0  0  0  0
   32.3960    1.9879   78.1132 H   0  0  0  0  0  0  0  0  0  0  0  0
   34.6132    1.7673   78.1340 H   0  0  0  0  0  0  0  0  0  0  0  0
   36.6754    0.7554   78.3349 H   0  0  0  0  0  0  0  0  0  0  0  0
   35.9198   -1.8623   78.9049 H   0  0  0  0  0  0  0  0  0  0  0  0
   37.2851   -1.4005   77.8743 H   0  0  0  0  0  0  0  0  0  0  0  0
   36.0465   -3.0185   76.6156 H   0  0  0  0  0  0  0  0  0  0  0  0
   35.7907   -1.4324   75.8928 H   0  0  0  0  0  0  0  0  0  0  0  0
   33.8728   -1.8957   75.7994 H   0  0  0  0  0  0  0  0  0  0  0  0
   31.3607   -3.9191   77.0678 H   0  0  0  0  0  0  0  0  0  0  0  0
   33.2094    2.4810   75.6970 H   0  0  0  0  0  0  0  0  0  0  0  0
  1  2  2  0  0  0  0
  2  3  1  0  0  0  0
  2  4  1  0  0  0  0
  4  5  1  0  0  0  0
  4  6  1  0  0  0  0
  4 18  1  6  0  0  0
  5 19  1  0  0  0  0
  5 20  1  0  0  0  0
  5 31  1  0  0  0  0
  6  7  1  0  0  0  0
  6 21  1  0  0  0  0
  6 22  1  0  0  0  0
  7  8  2  0  0  0  0
  7  9  1  0  0  0  0
  8 13  1  0  0  0  0
  8 16  1  0  0  0  0
  9 10  2  0  0  0  0
  9 23  1  0  0  0  0
 10 11  1  0  0  0  0
 10 24  1  0  0  0  0
 11 12  1  0  0  0  0
 11 25  1  0  0  0  0
 11 26  1  0  0  0  0
 12 13  1  0  0  0  0
 12 27  1  0  0  0  0
 12 28  1  0  0  0  0
 13 14  1  0  0  0  0
 13 29  1  6  0  0  0
 14 15  1  0  0  0  0
 15 16  1  0  0  0  0
 15 30  1  0  0  0  0
 16 17  2  0  0  0  0
M  CHG  1   5   1
M  END
$$$$
