IDZ
 OpenBabel04051917303D

 28 31  0  0  0  0  0  0  0  0999 V2000
   12.8983   -1.0651   10.5525 C   0  0  0  0  0  0  0  0  0  0  0  0
   12.8642   -2.2975   11.2132 C   0  0  0  0  0  0  0  0  0  0  0  0
   13.9992   -3.0936   11.3234 C   0  0  0  0  0  0  0  0  0  0  0  0
   15.2092   -2.6761   10.7740 C   0  0  0  0  0  0  0  0  0  0  0  0
   15.2732   -1.4362   10.1067 C   0  0  0  0  0  0  0  0  0  0  0  0
   16.2573   -0.6637    9.4362 C   0  0  0  0  0  0  0  0  0  0  0  0
   17.6829   -1.0427    9.2468 C   0  0  0  0  0  0  0  0  0  0  0  0
   18.5785   -0.3024    8.6311 N   0  0  0  0  0  0  0  0  0  0  0  0
   19.7367   -1.0191    8.6819 C   0  0  0  0  0  0  0  0  0  0  0  0
   20.9992   -0.7018    8.1757 C   0  0  0  0  0  0  0  0  0  0  0  0
   22.0280   -1.6250    8.3634 C   0  0  0  0  0  0  0  0  0  0  0  0
   21.8053   -2.8351    9.0341 C   0  0  0  0  0  0  0  0  0  0  0  0
   20.5552   -3.1632    9.5470 C   0  0  0  0  0  0  0  0  0  0  0  0
   19.5531   -2.2231    9.3445 C   0  0  0  0  0  0  0  0  0  0  0  0
   14.4815    0.4594    9.3242 N   0  3  0  0  0  0  0  0  0  0  0  0
   14.1205   -0.6662   10.0135 C   0  0  0  0  0  0  0  0  0  0  0  0
   18.2390   -2.2111    9.6917 N   0  3  0  0  0  0  0  0  0  0  0  0
   15.7670    0.4895    8.9658 N   0  0  0  0  0  0  0  0  0  0  0  0
   12.0119   -0.4486   10.4636 H   0  0  0  0  0  0  0  0  0  0  0  0
   11.9309   -2.6428   11.6480 H   0  0  0  0  0  0  0  0  0  0  0  0
   13.9558   -4.0508   11.8367 H   0  0  0  0  0  0  0  0  0  0  0  0
   16.0611   -3.3328   10.8860 H   0  0  0  0  0  0  0  0  0  0  0  0
   21.1455    0.2354    7.6540 H   0  0  0  0  0  0  0  0  0  0  0  0
   23.0219   -1.3992    7.9761 H   0  0  0  0  0  0  0  0  0  0  0  0
   22.6219   -3.5382    9.1566 H   0  0  0  0  0  0  0  0  0  0  0  0
   20.3658   -4.0956   10.0700 H   0  0  0  0  0  0  0  0  0  0  0  0
   13.8986    1.2464    9.0655 H   0  0  0  0  0  0  0  0  0  0  0  0
   17.7742   -2.9517   10.1882 H   0  0  0  0  0  0  0  0  0  0  0  0
  1  2  2  0  0  0  0
  1 16  1  0  0  0  0
  1 19  1  0  0  0  0
  2  3  1  0  0  0  0
  2 20  1  0  0  0  0
  3  4  2  0  0  0  0
  3 21  1  0  0  0  0
  4  5  1  0  0  0  0
  4 22  1  0  0  0  0
  5  6  2  0  0  0  0
  5 16  1  0  0  0  0
  6  7  1  0  0  0  0
  6 18  1  0  0  0  0
  7  8  1  0  0  0  0
  7 17  2  0  0  0  0
  8  9  1  0  0  0  0
  9 10  2  0  0  0  0
  9 14  1  0  0  0  0
 10 11  1  0  0  0  0
 10 23  1  0  0  0  0
 11 12  2  0  0  0  0
 11 24  1  0  0  0  0
 12 13  1  0  0  0  0
 12 25  1  0  0  0  0
 13 14  2  0  0  0  0
 13 26  1  0  0  0  0
 14 17  1  0  0  0  0
 15 16  2  0  0  0  0
 15 18  1  0  0  0  0
 15 27  1  0  0  0  0
 17 28  1  0  0  0  0
M  CHG  2  15   1  17   1
M  END
$$$$
