IFL
 OpenBabel04051919403D

 22 22  0  0  1  0  0  0  0  0999 V2000
   27.4617   49.6653    0.1795 O   0  0  0  0  0  0  0  0  0  0  0  0
   27.8502   48.5561   -0.6569 C   0  0  1  0  0  0  0  0  0  0  0  0
   28.1104   47.3497    0.2563 C   0  0  2  0  0  0  0  0  0  0  0  0
   29.4544   47.4168    0.7563 O   0  0  0  0  0  0  0  0  0  0  0  0
   27.8878   45.9799   -0.4025 C   0  0  0  0  0  0  0  0  0  0  0  0
   27.3709   45.9221   -1.6538 N   0  0  0  0  0  0  0  0  0  0  0  0
   27.1235   47.0762   -2.4923 C   0  0  0  0  0  0  0  0  0  0  0  0
   26.7185   48.2842   -1.6579 C   0  0  2  0  0  0  0  0  0  0  0  0
   26.3819   49.5012   -2.5255 C   0  0  0  0  0  0  0  0  0  0  0  0
   27.4686   49.8381   -3.3753 O   0  0  0  0  0  0  0  0  0  0  0  0
   28.1637   44.9379    0.2040 O   0  0  0  0  0  0  0  0  0  0  0  0
   27.5284   50.4749   -0.3567 H   0  0  0  0  0  0  0  0  0  0  0  0
   28.7759   48.8413   -1.1712 H   0  0  0  0  0  0  0  0  0  0  0  0
   27.4476   47.4035    1.1275 H   0  0  0  0  0  0  0  0  0  0  0  0
   29.5712   46.6122    1.2990 H   0  0  0  0  0  0  0  0  0  0  0  0
   27.3414   44.9967   -2.0538 H   0  0  0  0  0  0  0  0  0  0  0  0
   26.3254   46.7953   -3.1871 H   0  0  0  0  0  0  0  0  0  0  0  0
   28.0337   47.2578   -3.0795 H   0  0  0  0  0  0  0  0  0  0  0  0
   25.8094   48.0448   -1.0865 H   0  0  0  0  0  0  0  0  0  0  0  0
   26.1463   50.3747   -1.9105 H   0  0  0  0  0  0  0  0  0  0  0  0
   25.5052   49.2951   -3.1473 H   0  0  0  0  0  0  0  0  0  0  0  0
   27.1983   50.6220   -3.8915 H   0  0  0  0  0  0  0  0  0  0  0  0
  1  2  1  0  0  0  0
  1 12  1  0  0  0  0
  2  3  1  0  0  0  0
  2  8  1  0  0  0  0
  2 13  1  6  0  0  0
  3  4  1  0  0  0  0
  3  5  1  0  0  0  0
  3 14  1  1  0  0  0
  4 15  1  0  0  0  0
  5  6  1  0  0  0  0
  5 11  2  0  0  0  0
  6  7  1  0  0  0  0
  6 16  1  0  0  0  0
  7  8  1  0  0  0  0
  7 17  1  0  0  0  0
  7 18  1  0  0  0  0
  8  9  1  0  0  0  0
  8 19  1  1  0  0  0
  9 10  1  0  0  0  0
  9 20  1  0  0  0  0
  9 21  1  0  0  0  0
 10 22  1  0  0  0  0
M  END
$$$$
