IID
 OpenBabel04051917273D

 62 65  0  0  1  0  0  0  0  0999 V2000
    2.9497   10.1426   25.6283 C   0  0  0  0  0  0  0  0  0  0  0  0
    4.1071    9.3203   25.5694 C   0  0  0  0  0  0  0  0  0  0  0  0
    4.4709    8.7295   24.3223 C   0  0  1  0  0  0  0  0  0  0  0  0
    3.6819    8.9419   23.1627 C   0  0  2  0  0  0  0  0  0  0  0  0
    2.5365    9.7891   23.2318 C   0  0  0  0  0  0  0  0  0  0  0  0
    2.1732   10.3916   24.4553 C   0  0  0  0  0  0  0  0  0  0  0  0
    5.5547    7.9096   23.9555 N   0  3  2  0  0  0  0  0  0  0  0  0
    5.3616    7.5554   22.6274 C   0  0  1  0  0  0  0  0  0  0  0  0
    4.2618    8.1784   22.1052 C   0  0  0  0  0  0  0  0  0  0  0  0
    6.2598    6.6729   21.9341 C   0  0  0  0  0  0  0  0  0  0  0  0
    5.6437    5.8619   21.0181 N   0  0  0  0  0  0  0  0  0  0  0  0
    6.5364    4.8442   20.5168 C   0  0  2  0  0  0  0  0  0  0  0  0
    7.1524    5.2775   19.2030 C   0  0  0  0  0  0  0  0  0  0  0  0
    6.6399    7.3649   24.8457 C   0  0  0  0  0  0  0  0  0  0  0  0
    8.0178    8.0805   24.9232 C   0  0  2  0  0  0  0  0  0  0  0  0
    8.4344    9.1170   24.0378 C   0  0  0  0  0  0  0  0  0  0  0  0
    9.7260    9.7036   24.2024 C   0  0  0  0  0  0  0  0  0  0  0  0
   10.5957    9.2623   25.2409 C   0  0  0  0  0  0  0  0  0  0  0  0
   10.2093    8.2319   26.1397 C   0  0  2  0  0  0  0  0  0  0  0  0
    8.9396    7.6356   25.9630 C   0  0  0  0  0  0  0  0  0  0  0  0
    8.1757    4.2770   18.7175 C   0  0  0  0  0  0  0  0  0  0  0  0
   11.1284    7.9623   27.1411 O   0  0  0  0  0  0  0  0  0  0  0  0
    7.4192    6.6018   22.1994 O   0  0  0  0  0  0  0  0  0  0  0  0
   11.0736    6.7796   27.9525 C   0  0  0  0  0  0  0  0  0  0  0  0
    5.8461    3.5165   20.3417 C   0  0  0  0  0  0  0  0  0  0  0  0
    6.8191    2.4613   19.8754 C   0  0  0  0  0  0  0  0  0  0  0  0
    7.5561    2.8990   18.6165 N   0  3  2  0  0  0  0  0  0  0  0  0
    8.5291    1.8035   18.2111 C   0  0  0  0  0  0  0  0  0  0  0  0
    9.5195    2.2301   17.1474 C   0  0  0  0  0  0  0  0  0  0  0  0
    7.7210    0.6177   17.7240 C   0  0  0  0  0  0  0  0  0  0  0  0
    2.6460   10.5977   26.5884 H   0  0  0  0  0  0  0  0  0  0  0  0
    4.7046    9.1449   26.4674 H   0  0  0  0  0  0  0  0  0  0  0  0
    1.9304    9.9740   22.3273 H   0  0  0  0  0  0  0  0  0  0  0  0
    1.2937   11.0524   24.5120 H   0  0  0  0  0  0  0  0  0  0  0  0
    3.9198    8.0782   21.0611 H   0  0  0  0  0  0  0  0  0  0  0  0
    4.6934    6.0095   20.7033 H   0  0  0  0  0  0  0  0  0  0  0  0
    7.3243    4.7168   21.2672 H   0  0  0  0  0  0  0  0  0  0  0  0
    7.6411    6.2500   19.3216 H   0  0  0  0  0  0  0  0  0  0  0  0
    6.3532    5.3805   18.4626 H   0  0  0  0  0  0  0  0  0  0  0  0
    6.8138    6.3086   24.5503 H   0  0  0  0  0  0  0  0  0  0  0  0
    6.2092    7.3392   25.8561 H   0  0  0  0  0  0  0  0  0  0  0  0
    7.7863    9.4770   23.2308 H   0  0  0  0  0  0  0  0  0  0  0  0
   10.0563   10.5180   23.5259 H   0  0  0  0  0  0  0  0  0  0  0  0
   11.5874    9.7254   25.3455 H   0  0  0  0  0  0  0  0  0  0  0  0
    8.6064    6.8277   26.6345 H   0  0  0  0  0  0  0  0  0  0  0  0
    9.0313    4.2167   19.3968 H   0  0  0  0  0  0  0  0  0  0  0  0
    8.5147    4.5621   17.7153 H   0  0  0  0  0  0  0  0  0  0  0  0
   11.9050    6.7881   28.6886 H   0  0  0  0  0  0  0  0  0  0  0  0
   11.2002    5.8802   27.3387 H   0  0  0  0  0  0  0  0  0  0  0  0
   10.1405    6.7188   28.5229 H   0  0  0  0  0  0  0  0  0  0  0  0
    5.0435    3.6268   19.6092 H   0  0  0  0  0  0  0  0  0  0  0  0
    5.4107    3.1921   21.2917 H   0  0  0  0  0  0  0  0  0  0  0  0
    6.2650    1.5522   19.6348 H   0  0  0  0  0  0  0  0  0  0  0  0
    7.5706    2.2331   20.6383 H   0  0  0  0  0  0  0  0  0  0  0  0
    9.0839    1.5316   19.1115 H   0  0  0  0  0  0  0  0  0  0  0  0
   10.1739    1.3832   16.9126 H   0  0  0  0  0  0  0  0  0  0  0  0
   10.1499    3.0460   17.5112 H   0  0  0  0  0  0  0  0  0  0  0  0
    9.0110    2.5448   16.2307 H   0  0  0  0  0  0  0  0  0  0  0  0
    8.3946   -0.1840   17.4250 H   0  0  0  0  0  0  0  0  0  0  0  0
    7.0869    0.8965   16.8749 H   0  0  0  0  0  0  0  0  0  0  0  0
    7.0848    0.2298   18.5212 H   0  0  0  0  0  0  0  0  0  0  0  0
    6.8592    2.9612   17.8710 H   0  0  0  0  0  0  0  0  0  0  0  0
  1  2  1  0  0  0  0
  1  6  1  0  0  0  0
  1 31  1  0  0  0  0
  2 32  1  0  0  0  0
  3  2  1  6  0  0  0
  3  4  1  0  0  0  0
  3  7  1  0  0  0  0
  4  5  1  1  0  0  0
  4  9  1  0  0  0  0
  5  6  1  0  0  0  0
  5 33  1  0  0  0  0
  6 34  1  0  0  0  0
  7  8  1  0  0  0  0
  7 14  1  1  0  0  0
  8  9  1  0  0  0  0
  8 10  1  6  0  0  0
  9 35  1  0  0  0  0
 10 11  1  0  0  0  0
 10 23  2  0  0  0  0
 11 12  1  0  0  0  0
 11 36  1  0  0  0  0
 12 13  1  0  0  0  0
 12 25  1  0  0  0  0
 12 37  1  1  0  0  0
 13 21  1  0  0  0  0
 13 38  1  0  0  0  0
 13 39  1  0  0  0  0
 14 40  1  0  0  0  0
 14 41  1  0  0  0  0
 15 14  1  6  0  0  0
 15 16  1  0  0  0  0
 15 20  1  0  0  0  0
 16 17  1  0  0  0  0
 16 42  1  0  0  0  0
 17 18  1  0  0  0  0
 17 43  1  0  0  0  0
 18 19  1  0  0  0  0
 18 44  1  0  0  0  0
 19 20  1  0  0  0  0
 19 22  1  1  0  0  0
 20 45  1  0  0  0  0
 21 27  1  0  0  0  0
 21 46  1  0  0  0  0
 21 47  1  0  0  0  0
 22 24  1  0  0  0  0
 24 48  1  0  0  0  0
 24 49  1  0  0  0  0
 24 50  1  0  0  0  0
 25 26  1  0  0  0  0
 25 51  1  0  0  0  0
 25 52  1  0  0  0  0
 26 27  1  0  0  0  0
 26 53  1  0  0  0  0
 26 54  1  0  0  0  0
 27 28  1  0  0  0  0
 27 62  1  6  0  0  0
 28 29  1  0  0  0  0
 28 30  1  0  0  0  0
 28 55  1  0  0  0  0
 29 56  1  0  0  0  0
 29 57  1  0  0  0  0
 29 58  1  0  0  0  0
 30 59  1  0  0  0  0
 30 60  1  0  0  0  0
 30 61  1  0  0  0  0
M  CHG  2   7   1  27   1
M  END
$$$$
