IMH
 OpenBabel04051918393D

 34 36  0  0  1  0  0  0  0  0999 V2000
   13.5064   11.8529   57.8925 C   0  0  1  0  0  0  0  0  0  0  0  0
   14.4391   12.6166   57.1864 C   0  0  0  0  0  0  0  0  0  0  0  0
   14.8838   11.8955   56.0821 N   0  3  0  0  0  0  0  0  0  0  0  0
   14.2307   10.6923   56.0422 C   0  0  1  0  0  0  0  0  0  0  0  0
   14.3930    9.6081   55.1198 C   0  0  0  0  0  0  0  0  0  0  0  0
   15.1445    9.5976   54.1494 O   0  0  0  0  0  0  0  0  0  0  0  0
   13.5643    8.5497   55.4556 N   0  3  0  0  0  0  0  0  0  0  0  0
   12.7398    8.5566   56.5518 C   0  0  0  0  0  0  0  0  0  0  0  0
   12.6043    9.5553   57.4030 N   0  0  0  0  0  0  0  0  0  0  0  0
   13.3978   10.6623   57.1241 C   0  0  1  0  0  0  0  0  0  0  0  0
   11.7909   15.8750   61.6280 O   0  0  0  0  0  0  0  0  0  0  0  0
   11.0232   14.9988   60.8125 C   0  0  0  0  0  0  0  0  0  0  0  0
   11.6240   13.5812   60.7123 C   0  0  1  0  0  0  0  0  0  0  0  0
   11.7312   13.1125   59.2732 N   0  3  0  0  0  0  0  0  0  0  0  0
   13.0461   13.4851   61.2857 C   0  0  1  0  0  0  0  0  0  0  0  0
   13.0069   12.9681   62.6069 O   0  0  0  0  0  0  0  0  0  0  0  0
   13.8707   12.6821   60.2663 C   0  0  1  0  0  0  0  0  0  0  0  0
   14.6792   11.6893   60.8690 O   0  0  0  0  0  0  0  0  0  0  0  0
   12.8695   12.1192   59.2362 C   0  0  2  0  0  0  0  0  0  0  0  0
   14.8888   13.5829   57.3922 H   0  0  0  0  0  0  0  0  0  0  0  0
   15.5988   12.1992   55.4215 H   0  0  0  0  0  0  0  0  0  0  0  0
   13.6078    7.7508   54.8490 H   0  0  0  0  0  0  0  0  0  0  0  0
   12.1542    7.6493   56.6768 H   0  0  0  0  0  0  0  0  0  0  0  0
   12.6281   16.1192   61.1916 H   0  0  0  0  0  0  0  0  0  0  0  0
   10.9076   15.4614   59.8291 H   0  0  0  0  0  0  0  0  0  0  0  0
   10.0277   14.9472   61.2672 H   0  0  0  0  0  0  0  0  0  0  0  0
   10.9521   12.8673   61.2122 H   0  0  0  0  0  0  0  0  0  0  0  0
   10.8662   12.6397   58.9745 H   0  0  0  0  0  0  0  0  0  0  0  0
   13.5523   14.4493   61.3447 H   0  0  0  0  0  0  0  0  0  0  0  0
   12.6205   13.6518   63.1942 H   0  0  0  0  0  0  0  0  0  0  0  0
   14.5387   13.4058   59.7803 H   0  0  0  0  0  0  0  0  0  0  0  0
   15.2197   11.2617   60.1799 H   0  0  0  0  0  0  0  0  0  0  0  0
   12.4456   11.1809   59.6123 H   0  0  0  0  0  0  0  0  0  0  0  0
   11.8998   13.8856   58.6204 H   0  0  0  0  0  0  0  0  0  0  0  0
  1  2  1  1  0  0  0
  1 10  1  0  0  0  0
  1 19  1  0  0  0  0
  2  3  1  0  0  0  0
  2 20  1  0  0  0  0
  3 21  1  0  0  0  0
  4  3  1  1  0  0  0
  4  5  1  0  0  0  0
  4 10  1  0  0  0  0
  5  6  2  0  0  0  0
  5  7  1  0  0  0  0
  7  8  1  0  0  0  0
  7 22  1  0  0  0  0
  8  9  1  0  0  0  0
  8 23  1  0  0  0  0
 10  9  1  1  0  0  0
 11 12  1  0  0  0  0
 11 24  1  0  0  0  0
 12 13  1  0  0  0  0
 12 25  1  0  0  0  0
 12 26  1  0  0  0  0
 13 14  1  0  0  0  0
 13 15  1  0  0  0  0
 13 27  1  1  0  0  0
 14 19  1  0  0  0  0
 14 28  1  0  0  0  0
 14 34  1  0  0  0  0
 15 16  1  0  0  0  0
 15 17  1  0  0  0  0
 15 29  1  1  0  0  0
 16 30  1  0  0  0  0
 17 18  1  0  0  0  0
 17 19  1  0  0  0  0
 17 31  1  6  0  0  0
 18 32  1  0  0  0  0
 19 33  1  1  0  0  0
M  CHG  3   3   1   7   1  14   1
M  END
$$$$
