ISX
 OpenBabel04051917283D

 45 46  0  0  1  0  0  0  0  0999 V2000
   15.1880   34.6892   17.0627 O   0  0  0  0  0  0  0  0  0  0  0  0
   19.1951   34.2844   14.6411 C   0  0  0  0  0  0  0  0  0  0  0  0
   17.9471   33.9577   13.9134 N   0  3  0  0  0  0  0  0  0  0  0  0
   19.2997   33.5929   16.0097 C   0  0  1  0  0  0  0  0  0  0  0  0
   20.3542   34.2349   16.7168 O   0  0  0  0  0  0  0  0  0  0  0  0
   17.9963   33.7631   16.8064 C   0  0  2  0  0  0  0  0  0  0  0  0
   18.0977   32.9534   17.9757 O   0  0  0  0  0  0  0  0  0  0  0  0
   16.8022   33.2823   15.9742 C   0  0  2  0  0  0  0  0  0  0  0  0
   16.6986   34.1366   14.7152 C   0  0  0  0  0  0  0  0  0  0  0  0
   21.6142   33.5763   16.5540 C   0  0  1  0  0  0  0  0  0  0  0  0
   22.6992   34.5793   16.9742 C   0  0  2  0  0  0  0  0  0  0  0  0
   22.7100   35.6789   16.0402 O   0  0  0  0  0  0  0  0  0  0  0  0
   24.0624   33.8904   17.0529 C   0  0  1  0  0  0  0  0  0  0  0  0
   25.0635   34.7588   17.5969 O   0  0  0  0  0  0  0  0  0  0  0  0
   23.9758   32.6195   17.9135 C   0  0  2  0  0  0  0  0  0  0  0  0
   25.2351   31.9448   17.8827 O   0  0  0  0  0  0  0  0  0  0  0  0
   22.8753   31.7147   17.3452 C   0  0  1  0  0  0  0  0  0  0  0  0
   15.4857   33.3413   16.7425 C   0  0  0  0  0  0  0  0  0  0  0  0
   22.7143   30.4377   18.1773 C   0  0  0  0  0  0  0  0  0  0  0  0
   22.2384   30.7666   19.4782 O   0  0  0  0  0  0  0  0  0  0  0  0
   21.6128   32.3924   17.3208 O   0  0  0  0  0  0  0  0  0  0  0  0
   15.7271   34.9690   17.8257 H   0  0  0  0  0  0  0  0  0  0  0  0
   19.2567   35.3726   14.7293 H   0  0  0  0  0  0  0  0  0  0  0  0
   20.0250   33.9754   13.9918 H   0  0  0  0  0  0  0  0  0  0  0  0
   17.8771   34.5635   13.0809 H   0  0  0  0  0  0  0  0  0  0  0  0
   19.4996   32.5281   15.8820 H   0  0  0  0  0  0  0  0  0  0  0  0
   17.8915   34.8122   17.1235 H   0  0  0  0  0  0  0  0  0  0  0  0
   17.4182   33.2014   18.6264 H   0  0  0  0  0  0  0  0  0  0  0  0
   16.9707   32.2343   15.7035 H   0  0  0  0  0  0  0  0  0  0  0  0
   15.8709   33.8079   14.0724 H   0  0  0  0  0  0  0  0  0  0  0  0
   16.5960   35.1986   14.9207 H   0  0  0  0  0  0  0  0  0  0  0  0
   21.7476   33.3165   15.4954 H   0  0  0  0  0  0  0  0  0  0  0  0
   22.4490   35.0162   17.9475 H   0  0  0  0  0  0  0  0  0  0  0  0
   23.0617   35.3671   15.1896 H   0  0  0  0  0  0  0  0  0  0  0  0
   24.4228   33.6406   16.0489 H   0  0  0  0  0  0  0  0  0  0  0  0
   24.7273   35.1369   18.4284 H   0  0  0  0  0  0  0  0  0  0  0  0
   23.7665   32.8966   18.9523 H   0  0  0  0  0  0  0  0  0  0  0  0
   25.8963   32.5780   18.2258 H   0  0  0  0  0  0  0  0  0  0  0  0
   23.1316   31.4174   16.3201 H   0  0  0  0  0  0  0  0  0  0  0  0
   14.6758   32.9589   16.1114 H   0  0  0  0  0  0  0  0  0  0  0  0
   15.5037   32.7287   17.6493 H   0  0  0  0  0  0  0  0  0  0  0  0
   23.6603   29.8979   18.2706 H   0  0  0  0  0  0  0  0  0  0  0  0
   21.9772   29.7813   17.6971 H   0  0  0  0  0  0  0  0  0  0  0  0
   22.1173   29.9266   19.9647 H   0  0  0  0  0  0  0  0  0  0  0  0
   17.9890   32.9980   13.5523 H   0  0  0  0  0  0  0  0  0  0  0  0
  1 18  1  0  0  0  0
  1 22  1  0  0  0  0
  2  3  1  0  0  0  0
  2  4  1  0  0  0  0
  2 23  1  0  0  0  0
  2 24  1  0  0  0  0
  3  9  1  0  0  0  0
  3 25  1  0  0  0  0
  3 45  1  0  0  0  0
  4  5  1  0  0  0  0
  4  6  1  0  0  0  0
  4 26  1  6  0  0  0
  5 10  1  0  0  0  0
  6  7  1  0  0  0  0
  6  8  1  0  0  0  0
  6 27  1  1  0  0  0
  7 28  1  0  0  0  0
  8  9  1  0  0  0  0
  8 18  1  0  0  0  0
  8 29  1  6  0  0  0
  9 30  1  0  0  0  0
  9 31  1  0  0  0  0
 10 11  1  0  0  0  0
 10 21  1  0  0  0  0
 10 32  1  6  0  0  0
 11 12  1  0  0  0  0
 11 13  1  0  0  0  0
 11 33  1  1  0  0  0
 12 34  1  0  0  0  0
 13 14  1  0  0  0  0
 13 15  1  0  0  0  0
 13 35  1  6  0  0  0
 14 36  1  0  0  0  0
 15 16  1  0  0  0  0
 15 17  1  0  0  0  0
 15 37  1  1  0  0  0
 16 38  1  0  0  0  0
 17 19  1  0  0  0  0
 17 21  1  0  0  0  0
 17 39  1  6  0  0  0
 18 40  1  0  0  0  0
 18 41  1  0  0  0  0
 19 20  1  0  0  0  0
 19 42  1  0  0  0  0
 19 43  1  0  0  0  0
 20 44  1  0  0  0  0
M  CHG  1   3   1
M  END
$$$$
