IVK
 OpenBabel04051920193D

 58 61  0  0  1  0  0  0  0  0999 V2000
   -3.9054   11.8802   24.8021 C   0  0  2  0  0  0  0  0  0  0  0  0
   -3.8184   12.0259   23.2817 C   0  0  2  0  0  0  0  0  0  0  0  0
   -4.7087   13.2294   23.0324 C   0  0  0  0  0  0  0  0  0  0  0  0
   -4.3121   14.1255   24.1089 N   0  0  0  0  0  0  0  0  0  0  0  0
   -3.8563   13.3301   25.2708 C   0  0  0  0  0  0  0  0  0  0  0  0
   -2.7170   11.0597   25.2728 C   0  0  0  0  0  0  0  0  0  0  0  0
   -4.1007   10.7240   22.5269 C   0  0  0  0  0  0  0  0  0  0  0  0
   -5.1930   10.7088   21.6980 N   0  0  0  0  0  0  0  0  0  0  0  0
   -3.4188    9.7260   22.7074 O   0  0  0  0  0  0  0  0  0  0  0  0
   -1.5797   11.2804   24.8595 O   0  0  0  0  0  0  0  0  0  0  0  0
   -3.0823   10.0992   26.1763 N   0  0  0  0  0  0  0  0  0  0  0  0
   -2.3066    9.0293   26.6194 C   0  0  0  0  0  0  0  0  0  0  0  0
   -0.9396    6.7720   27.4409 C   0  0  0  0  0  0  0  0  0  0  0  0
   -1.9994    7.2346   28.2137 C   0  0  0  0  0  0  0  0  0  0  0  0
   -0.5587    7.4347   26.2760 C   0  0  0  0  0  0  0  0  0  0  0  0
   -2.7018    8.3594   27.7863 C   0  0  0  0  0  0  0  0  0  0  0  0
   -0.0757    5.3699   27.9251 Cl  0  0  0  0  0  0  0  0  0  0  0  0
   -5.4885    9.5948   20.8834 C   0  0  0  0  0  0  0  0  0  0  0  0
   -6.7353    8.9750   20.9487 C   0  0  0  0  0  0  0  0  0  0  0  0
   -6.0690    7.4301   19.1921 C   0  0  0  0  0  0  0  0  0  0  0  0
   -4.8402    8.0819   19.0941 C   0  0  0  0  0  0  0  0  0  0  0  0
   -7.0147    7.8777   20.1188 C   0  0  0  0  0  0  0  0  0  0  0  0
   -4.5531    9.1368   19.9563 C   0  0  0  0  0  0  0  0  0  0  0  0
   -6.3793    6.3530   18.3224 N   0  3  0  0  0  0  0  0  0  0  0  0
   -6.2614    5.0317   18.6790 C   0  0  0  0  0  0  0  0  0  0  0  0
   -6.9019    4.3565   16.4525 C   0  0  0  0  0  0  0  0  0  0  0  0
   -7.0511    5.5950   16.0734 C   0  0  0  0  0  0  0  0  0  0  0  0
   -6.4885    4.0471   17.8029 C   0  0  0  0  0  0  0  0  0  0  0  0
   -6.7498    6.7039   16.9994 C   0  0  0  0  0  0  0  0  0  0  0  0
   -6.8699    7.8434   16.6013 O   0  0  0  0  0  0  0  0  0  0  0  0
   -3.3790    9.7740   19.8526 F   0  0  0  0  0  0  0  0  0  0  0  0
   -5.3314   15.1028   24.5266 C   0  0  0  0  0  0  0  0  0  0  0  0
   -4.6306   16.3044   25.1567 C   0  0  0  0  0  0  0  0  0  0  0  0
   -5.4942   17.3139   25.3686 F   0  0  0  0  0  0  0  0  0  0  0  0
   -3.6396   16.7363   24.3446 F   0  0  0  0  0  0  0  0  0  0  0  0
   -4.0728   15.9608   26.3467 F   0  0  0  0  0  0  0  0  0  0  0  0
   -1.2424    8.5666   25.8613 C   0  0  0  0  0  0  0  0  0  0  0  0
   -4.8540   11.4277   25.1298 H   0  0  0  0  0  0  0  0  0  0  0  0
   -2.7817   12.2897   23.0204 H   0  0  0  0  0  0  0  0  0  0  0  0
   -5.7748   12.9798   23.1044 H   0  0  0  0  0  0  0  0  0  0  0  0
   -4.5276   13.6660   22.0387 H   0  0  0  0  0  0  0  0  0  0  0  0
   -2.8453   13.6313   25.5752 H   0  0  0  0  0  0  0  0  0  0  0  0
   -4.5185   13.4841   26.1369 H   0  0  0  0  0  0  0  0  0  0  0  0
   -5.7611   11.5319   21.5931 H   0  0  0  0  0  0  0  0  0  0  0  0
   -4.0159   10.1326   26.5371 H   0  0  0  0  0  0  0  0  0  0  0  0
   -2.2713    6.7272   29.1360 H   0  0  0  0  0  0  0  0  0  0  0  0
    0.2780    7.0864   25.6862 H   0  0  0  0  0  0  0  0  0  0  0  0
   -3.5599    8.6993   28.3589 H   0  0  0  0  0  0  0  0  0  0  0  0
   -7.4862    9.3019   21.6608 H   0  0  0  0  0  0  0  0  0  0  0  0
   -4.1073    7.7674   18.3626 H   0  0  0  0  0  0  0  0  0  0  0  0
   -7.9788    7.3846   20.1833 H   0  0  0  0  0  0  0  0  0  0  0  0
   -5.9647    4.8303   19.6957 H   0  0  0  0  0  0  0  0  0  0  0  0
   -7.0972    3.5394   15.7601 H   0  0  0  0  0  0  0  0  0  0  0  0
   -7.3726    5.9093   15.0848 H   0  0  0  0  0  0  0  0  0  0  0  0
   -6.3719    3.0139   18.0996 H   0  0  0  0  0  0  0  0  0  0  0  0
   -6.0210   14.6400   25.2506 H   0  0  0  0  0  0  0  0  0  0  0  0
   -5.9370   15.4343   23.6719 H   0  0  0  0  0  0  0  0  0  0  0  0
   -0.9886    9.0466   24.9195 H   0  0  0  0  0  0  0  0  0  0  0  0
  1  2  1  0  0  0  0
  1  5  1  0  0  0  0
  1  6  1  0  0  0  0
  1 38  1  1  0  0  0
  2  3  1  0  0  0  0
  2  7  1  0  0  0  0
  2 39  1  6  0  0  0
  3  4  1  0  0  0  0
  3 40  1  0  0  0  0
  3 41  1  0  0  0  0
  4  5  1  0  0  0  0
  4 32  1  0  0  0  0
  5 42  1  0  0  0  0
  5 43  1  0  0  0  0
  6 10  2  0  0  0  0
  6 11  1  0  0  0  0
  7  8  1  0  0  0  0
  7  9  2  0  0  0  0
  8 18  1  0  0  0  0
  8 44  1  0  0  0  0
 11 12  1  0  0  0  0
 11 45  1  0  0  0  0
 12 16  2  0  0  0  0
 12 37  1  0  0  0  0
 13 14  2  0  0  0  0
 13 15  1  0  0  0  0
 13 17  1  0  0  0  0
 14 16  1  0  0  0  0
 14 46  1  0  0  0  0
 15 37  2  0  0  0  0
 15 47  1  0  0  0  0
 16 48  1  0  0  0  0
 18 19  2  0  0  0  0
 18 23  1  0  0  0  0
 19 22  1  0  0  0  0
 19 49  1  0  0  0  0
 20 21  1  0  0  0  0
 20 22  2  0  0  0  0
 20 24  1  0  0  0  0
 21 23  2  0  0  0  0
 21 50  1  0  0  0  0
 22 51  1  0  0  0  0
 23 31  1  0  0  0  0
 24 25  1  0  0  0  0
 24 29  1  0  0  0  0
 25 28  2  0  0  0  0
 25 52  1  0  0  0  0
 26 27  2  0  0  0  0
 26 28  1  0  0  0  0
 26 53  1  0  0  0  0
 27 29  1  0  0  0  0
 27 54  1  0  0  0  0
 28 55  1  0  0  0  0
 29 30  2  0  0  0  0
 32 33  1  0  0  0  0
 32 56  1  0  0  0  0
 32 57  1  0  0  0  0
 33 34  1  0  0  0  0
 33 35  1  0  0  0  0
 33 36  1  0  0  0  0
 37 58  1  0  0  0  0
M  CHG  1  24   1
M  END
$$$$
