IYZ
 OpenBabel04051917303D

 42 45  0  0  0  0  0  0  0  0999 V2000
   28.5957   50.5631   -2.7014 C   0  0  0  0  0  0  0  0  0  0  0  0
   28.2678   50.7404   -4.1597 C   0  0  0  0  0  0  0  0  0  0  0  0
   27.1568   50.5280   -3.1691 C   0  0  0  0  0  0  0  0  0  0  0  0
   26.1887   51.6330   -2.8902 C   0  0  0  0  0  0  0  0  0  0  0  0
   26.8533   52.8045   -2.3580 N   0  0  0  0  0  0  0  0  0  0  0  0
   27.0663   52.9725   -1.0137 C   0  0  0  0  0  0  0  0  0  0  0  0
   27.5179   54.3347   -0.5945 C   0  0  0  0  0  0  0  0  0  0  0  0
   27.5808   54.5943    0.7110 C   0  0  0  0  0  0  0  0  0  0  0  0
   26.8217   51.9617   -0.2108 N   0  0  0  0  0  0  0  0  0  0  0  0
   26.9733   52.2598    1.1446 N   0  3  0  0  0  0  0  0  0  0  0  0
   27.2866   53.4692    1.6123 C   0  0  0  0  0  0  0  0  0  0  0  0
   27.2609   53.4139    2.9262 N   0  3  0  0  0  0  0  0  0  0  0  0
   26.9169   52.1489    3.3227 C   0  0  0  0  0  0  0  0  0  0  0  0
   26.7205   51.3893    2.1875 C   0  0  0  0  0  0  0  0  0  0  0  0
   26.2970   49.9645    2.1644 C   0  0  0  0  0  0  0  0  0  0  0  0
   26.1721   49.2484    0.9693 C   0  0  0  0  0  0  0  0  0  0  0  0
   25.9997   49.3661    3.3933 C   0  0  0  0  0  0  0  0  0  0  0  0
   25.5729   48.0509    3.4358 C   0  0  0  0  0  0  0  0  0  0  0  0
   25.4510   47.3352    2.2496 C   0  0  0  0  0  0  0  0  0  0  0  0
   25.7460   47.9242    1.0121 C   0  0  0  0  0  0  0  0  0  0  0  0
   25.5979   47.0862   -0.2058 C   0  0  0  0  0  0  0  0  0  0  0  0
   25.6087   47.7176   -1.5620 C   0  0  0  0  0  0  0  0  0  0  0  0
   25.4694   45.8652   -0.0798 O   0  0  0  0  0  0  0  0  0  0  0  0
   28.9551   51.4189   -2.1444 H   0  0  0  0  0  0  0  0  0  0  0  0
   29.0653   49.6392   -2.3835 H   0  0  0  0  0  0  0  0  0  0  0  0
   28.5230   49.9273   -4.8304 H   0  0  0  0  0  0  0  0  0  0  0  0
   28.3234   51.7185   -4.6213 H   0  0  0  0  0  0  0  0  0  0  0  0
   26.6452   49.5782   -3.2464 H   0  0  0  0  0  0  0  0  0  0  0  0
   25.4169   51.2902   -2.1896 H   0  0  0  0  0  0  0  0  0  0  0  0
   25.6693   51.9194   -3.8085 H   0  0  0  0  0  0  0  0  0  0  0  0
   27.5108   53.2419   -2.9971 H   0  0  0  0  0  0  0  0  0  0  0  0
   27.6897   55.0768   -1.3572 H   0  0  0  0  0  0  0  0  0  0  0  0
   27.8112   55.5623    1.1163 H   0  0  0  0  0  0  0  0  0  0  0  0
   26.8491   51.9393    4.3758 H   0  0  0  0  0  0  0  0  0  0  0  0
   26.4244   49.6979    0.0127 H   0  0  0  0  0  0  0  0  0  0  0  0
   26.0761   49.8935    4.3362 H   0  0  0  0  0  0  0  0  0  0  0  0
   25.3310   47.5949    4.3903 H   0  0  0  0  0  0  0  0  0  0  0  0
   25.1185   46.3017    2.2957 H   0  0  0  0  0  0  0  0  0  0  0  0
   25.4727   46.9417   -2.3214 H   0  0  0  0  0  0  0  0  0  0  0  0
   26.5807   48.1791   -1.7330 H   0  0  0  0  0  0  0  0  0  0  0  0
   24.7935   48.4405   -1.6656 H   0  0  0  0  0  0  0  0  0  0  0  0
   27.4532   54.1970    3.5496 H   0  0  0  0  0  0  0  0  0  0  0  0
  1  2  1  0  0  0  0
  1  3  1  0  0  0  0
  1 24  1  0  0  0  0
  1 25  1  0  0  0  0
  2  3  1  0  0  0  0
  2 26  1  0  0  0  0
  2 27  1  0  0  0  0
  3  4  1  0  0  0  0
  3 28  1  0  0  0  0
  4  5  1  0  0  0  0
  4 29  1  0  0  0  0
  4 30  1  0  0  0  0
  5  6  1  0  0  0  0
  5 31  1  0  0  0  0
  6  7  2  0  0  0  0
  6  9  1  0  0  0  0
  7  8  1  0  0  0  0
  7 32  1  0  0  0  0
  8 11  2  0  0  0  0
  8 33  1  0  0  0  0
  9 10  1  0  0  0  0
 10 11  1  0  0  0  0
 10 14  2  0  0  0  0
 11 12  1  0  0  0  0
 12 13  2  0  0  0  0
 12 42  1  0  0  0  0
 13 14  1  0  0  0  0
 13 34  1  0  0  0  0
 14 15  1  0  0  0  0
 15 16  2  0  0  0  0
 15 17  1  0  0  0  0
 16 20  1  0  0  0  0
 16 35  1  0  0  0  0
 17 18  2  0  0  0  0
 17 36  1  0  0  0  0
 18 19  1  0  0  0  0
 18 37  1  0  0  0  0
 19 20  2  0  0  0  0
 19 38  1  0  0  0  0
 20 21  1  0  0  0  0
 21 22  1  0  0  0  0
 21 23  2  0  0  0  0
 22 39  1  0  0  0  0
 22 40  1  0  0  0  0
 22 41  1  0  0  0  0
M  CHG  2  10   1  12   1
M  END
$$$$
