JJ3
 OpenBabel04051919023D

 46 49  0  0  1  0  0  0  0  0999 V2000
   -6.4645    8.4313   26.6180 C   0  0  0  0  0  0  0  0  0  0  0  0
   -5.7331    8.2995   25.4312 C   0  0  0  0  0  0  0  0  0  0  0  0
   -5.8645    7.1384   24.6227 C   0  0  0  0  0  0  0  0  0  0  0  0
   -6.7548    6.1123   25.0385 C   0  0  0  0  0  0  0  0  0  0  0  0
   -6.8359    4.9858   24.2356 O   0  0  0  0  0  0  0  0  0  0  0  0
   -8.0623    4.2467   24.3946 C   0  0  2  0  0  0  0  0  0  0  0  0
   -8.2991    3.8693   25.8693 C   0  0  1  0  0  0  0  0  0  0  0  0
   -7.1569    3.0499   26.4992 C   0  0  0  0  0  0  0  0  0  0  0  0
   -7.0908    3.4597   27.9698 C   0  0  0  0  0  0  0  0  0  0  0  0
   -8.0267    4.6550   28.1442 C   0  0  0  0  0  0  0  0  0  0  0  0
   -8.4026    5.1345   26.7294 C   0  0  1  0  0  0  0  0  0  0  0  0
   -7.4704    6.2307   26.2333 C   0  0  0  0  0  0  0  0  0  0  0  0
   -7.3275    7.4125   27.0145 C   0  0  0  0  0  0  0  0  0  0  0  0
   -8.1143    2.9882   23.5129 C   0  0  0  0  0  0  0  0  0  0  0  0
   -7.0335    2.5554   22.7325 C   0  0  0  0  0  0  0  0  0  0  0  0
   -7.1211    1.3871   21.9620 C   0  0  0  0  0  0  0  0  0  0  0  0
   -8.3121    0.6406   21.9720 C   0  0  0  0  0  0  0  0  0  0  0  0
   -8.4171   -0.4974   21.2321 O   0  0  0  0  0  0  0  0  0  0  0  0
   -9.3976    1.0540   22.7373 C   0  0  0  0  0  0  0  0  0  0  0  0
   -9.3001    2.2197   23.4968 C   0  0  0  0  0  0  0  0  0  0  0  0
   -5.0556    7.0607   23.3543 C   0  0  0  0  0  0  0  0  0  0  0  0
   -5.8933    6.8224   22.2211 O   0  0  0  0  0  0  0  0  0  0  0  0
   -6.0193    8.0090   21.4538 C   0  0  0  0  0  0  0  0  0  0  0  0
   -6.3425    9.5331   27.3862 O   0  0  0  0  0  0  0  0  0  0  0  0
   -5.0629    9.1011   25.1144 H   0  0  0  0  0  0  0  0  0  0  0  0
   -8.8755    4.9021   24.0462 H   0  0  0  0  0  0  0  0  0  0  0  0
   -9.2311    3.2936   25.9637 H   0  0  0  0  0  0  0  0  0  0  0  0
   -6.1980    3.2548   26.0067 H   0  0  0  0  0  0  0  0  0  0  0  0
   -7.3378    1.9705   26.4064 H   0  0  0  0  0  0  0  0  0  0  0  0
   -6.0659    3.7349   28.2526 H   0  0  0  0  0  0  0  0  0  0  0  0
   -7.3974    2.6331   28.6241 H   0  0  0  0  0  0  0  0  0  0  0  0
   -7.5274    5.4377   28.7246 H   0  0  0  0  0  0  0  0  0  0  0  0
   -8.9128    4.3469   28.7139 H   0  0  0  0  0  0  0  0  0  0  0  0
   -9.4404    5.5230   26.7279 H   0  0  0  0  0  0  0  0  0  0  0  0
   -7.8862    7.5233   27.9384 H   0  0  0  0  0  0  0  0  0  0  0  0
   -6.1028    3.1300   22.7249 H   0  0  0  0  0  0  0  0  0  0  0  0
   -6.2788    1.0587   21.3566 H   0  0  0  0  0  0  0  0  0  0  0  0
   -9.2977   -0.8823   21.3555 H   0  0  0  0  0  0  0  0  0  0  0  0
  -10.3208    0.4796   22.7464 H   0  0  0  0  0  0  0  0  0  0  0  0
  -10.1574    2.5287   24.0908 H   0  0  0  0  0  0  0  0  0  0  0  0
   -4.3100    6.2599   23.4219 H   0  0  0  0  0  0  0  0  0  0  0  0
   -4.4982    7.9985   23.1882 H   0  0  0  0  0  0  0  0  0  0  0  0
   -6.6761    7.8312   20.6017 H   0  0  0  0  0  0  0  0  0  0  0  0
   -5.0299    8.3001   21.0901 H   0  0  0  0  0  0  0  0  0  0  0  0
   -6.4347    8.8052   22.0764 H   0  0  0  0  0  0  0  0  0  0  0  0
   -5.7069   10.1515   26.9755 H   0  0  0  0  0  0  0  0  0  0  0  0
  1  2  2  0  0  0  0
  1 13  1  0  0  0  0
  1 24  1  0  0  0  0
  2  3  1  0  0  0  0
  2 25  1  0  0  0  0
  3  4  2  0  0  0  0
  3 21  1  0  0  0  0
  4  5  1  0  0  0  0
  4 12  1  0  0  0  0
  5  6  1  0  0  0  0
  6  7  1  0  0  0  0
  6 14  1  0  0  0  0
  6 26  1  6  0  0  0
  7  8  1  0  0  0  0
  7 11  1  0  0  0  0
  7 27  1  1  0  0  0
  8  9  1  0  0  0  0
  8 28  1  0  0  0  0
  8 29  1  0  0  0  0
  9 10  1  0  0  0  0
  9 30  1  0  0  0  0
  9 31  1  0  0  0  0
 10 11  1  0  0  0  0
 10 32  1  0  0  0  0
 10 33  1  0  0  0  0
 11 12  1  0  0  0  0
 11 34  1  6  0  0  0
 12 13  2  0  0  0  0
 13 35  1  0  0  0  0
 14 15  2  0  0  0  0
 14 20  1  0  0  0  0
 15 16  1  0  0  0  0
 15 36  1  0  0  0  0
 16 17  2  0  0  0  0
 16 37  1  0  0  0  0
 17 18  1  0  0  0  0
 17 19  1  0  0  0  0
 18 38  1  0  0  0  0
 19 20  2  0  0  0  0
 19 39  1  0  0  0  0
 20 40  1  0  0  0  0
 21 22  1  0  0  0  0
 21 41  1  0  0  0  0
 21 42  1  0  0  0  0
 22 23  1  0  0  0  0
 23 43  1  0  0  0  0
 23 44  1  0  0  0  0
 23 45  1  0  0  0  0
 24 46  1  0  0  0  0
M  END
$$$$
