JPS
 OpenBabel04051920223D

 37 39  0  0  1  0  0  0  0  0999 V2000
    1.0284   18.5799   26.5259 C   0  0  0  0  0  0  0  0  0  0  0  0
    1.1752   17.4852   25.5047 C   0  0  0  0  0  0  0  0  0  0  0  0
    2.3638   16.5426   25.7091 C   0  0  0  0  0  0  0  0  0  0  0  0
    2.2696   15.3728   24.7722 C   0  0  0  0  0  0  0  0  0  0  0  0
    2.1208   14.0432   25.0868 C   0  0  0  0  0  0  0  0  0  0  0  0
    2.2865   15.5922   23.0643 S   0  0  0  0  0  0  0  0  0  0  0  0
    2.0910   13.9256   22.7870 C   0  0  0  0  0  0  0  0  0  0  0  0
    2.0103   13.1900   23.9565 C   0  0  0  0  0  0  0  0  0  0  0  0
    1.8385   11.6752   23.9514 C   0  0  2  0  0  0  0  0  0  0  0  0
    0.9341   11.2601   25.1759 C   0  0  0  0  0  0  0  0  0  0  0  0
    1.5896   11.1678   26.2801 O   0  0  0  0  0  0  0  0  0  0  0  0
   -0.2905   11.0718   24.9696 O   0  0  0  0  0  0  0  0  0  0  0  0
    3.1362   11.0466   24.0696 O   0  0  0  0  0  0  0  0  0  0  0  0
    1.2417   11.2073   22.6071 C   0  0  0  0  0  0  0  0  0  0  0  0
    2.0512   11.8082   21.4396 C   0  0  1  0  0  0  0  0  0  0  0  0
    1.5458   11.3190   20.1883 O   0  0  0  0  0  0  0  0  0  0  0  0
    1.9138   13.3478   21.4174 C   0  0  2  0  0  0  0  0  0  0  0  0
    2.8645   13.9426   20.5272 O   0  0  0  0  0  0  0  0  0  0  0  0
   -0.2947   19.3194   26.5673 C   0  0  0  0  0  0  0  0  0  0  0  0
    0.9339   20.0106   26.0468 C   0  0  0  0  0  0  0  0  0  0  0  0
    1.5243   18.3690   27.4652 H   0  0  0  0  0  0  0  0  0  0  0  0
    1.2785   17.9503   24.5183 H   0  0  0  0  0  0  0  0  0  0  0  0
    0.2530   16.8953   25.4879 H   0  0  0  0  0  0  0  0  0  0  0  0
    2.3781   16.1809   26.7467 H   0  0  0  0  0  0  0  0  0  0  0  0
    3.3084   17.0697   25.5495 H   0  0  0  0  0  0  0  0  0  0  0  0
    2.0618   13.6847   26.1186 H   0  0  0  0  0  0  0  0  0  0  0  0
    3.3912   11.2565   24.9906 H   0  0  0  0  0  0  0  0  0  0  0  0
    0.1877   11.5029   22.5077 H   0  0  0  0  0  0  0  0  0  0  0  0
    1.2624   10.1113   22.5502 H   0  0  0  0  0  0  0  0  0  0  0  0
    3.1060   11.5116   21.5214 H   0  0  0  0  0  0  0  0  0  0  0  0
    1.6194   10.3505   20.2107 H   0  0  0  0  0  0  0  0  0  0  0  0
    0.9121   13.5875   21.0446 H   0  0  0  0  0  0  0  0  0  0  0  0
    2.7006   14.9005   20.5668 H   0  0  0  0  0  0  0  0  0  0  0  0
   -0.7052   19.6401   27.5180 H   0  0  0  0  0  0  0  0  0  0  0  0
   -1.0680   19.0242   25.8640 H   0  0  0  0  0  0  0  0  0  0  0  0
    1.0156   20.1934   24.9795 H   0  0  0  0  0  0  0  0  0  0  0  0
    1.3730   20.8023   26.6400 H   0  0  0  0  0  0  0  0  0  0  0  0
  1  2  1  0  0  0  0
  1 19  1  0  0  0  0
  1 20  1  0  0  0  0
  1 21  1  0  0  0  0
  2  3  1  0  0  0  0
  2 22  1  0  0  0  0
  2 23  1  0  0  0  0
  3  4  1  0  0  0  0
  3 24  1  0  0  0  0
  3 25  1  0  0  0  0
  4  5  2  0  0  0  0
  4  6  1  0  0  0  0
  5  8  1  0  0  0  0
  5 26  1  0  0  0  0
  6  7  1  0  0  0  0
  7  8  2  0  0  0  0
  7 17  1  0  0  0  0
  8  9  1  0  0  0  0
  9 10  1  1  0  0  0
  9 13  1  0  0  0  0
  9 14  1  0  0  0  0
 10 11  2  0  0  0  0
 10 12  1  0  0  0  0
 13 27  1  0  0  0  0
 14 15  1  0  0  0  0
 14 28  1  0  0  0  0
 14 29  1  0  0  0  0
 15 16  1  0  0  0  0
 15 17  1  0  0  0  0
 15 30  1  1  0  0  0
 16 31  1  0  0  0  0
 17 18  1  0  0  0  0
 17 32  1  6  0  0  0
 18 33  1  0  0  0  0
 19 20  1  0  0  0  0
 19 34  1  0  0  0  0
 19 35  1  0  0  0  0
 20 36  1  0  0  0  0
 20 37  1  0  0  0  0
M  END
$$$$
