K17
 OpenBabel04051918413D

 15 16  0  0  0  0  0  0  0  0999 V2000
  -10.8480    2.5687    6.5789 Br  0  0  0  0  0  0  0  0  0  0  0  0
  -11.0453    4.3067    5.8787 C   0  0  0  0  0  0  0  0  0  0  0  0
  -10.8150    5.4394    6.6734 C   0  0  0  0  0  0  0  0  0  0  0  0
  -10.2390    5.1378    8.4801 Br  0  0  0  0  0  0  0  0  0  0  0  0
  -11.4521    4.4655    4.5607 C   0  0  0  0  0  0  0  0  0  0  0  0
  -11.7401    3.5413    3.5691 N   0  3  0  0  0  0  0  0  0  0  0  0
  -12.0759    4.2787    2.4692 C   0  0  0  0  0  0  0  0  0  0  0  0
  -12.0323    5.5792    2.7134 N   0  0  0  0  0  0  0  0  0  0  0  0
  -11.6410    5.7377    4.0267 C   0  0  0  0  0  0  0  0  0  0  0  0
  -11.4191    6.8970    4.8393 C   0  0  0  0  0  0  0  0  0  0  0  0
  -11.6851    8.6576    4.1439 Br  0  0  0  0  0  0  0  0  0  0  0  0
  -11.0016    6.7309    6.1743 C   0  0  0  0  0  0  0  0  0  0  0  0
  -10.7160    8.2391    7.3269 Br  0  0  0  0  0  0  0  0  0  0  0  0
  -11.7030    2.5527    3.6419 H   0  0  0  0  0  0  0  0  0  0  0  0
  -12.3441    3.8331    1.5192 H   0  0  0  0  0  0  0  0  0  0  0  0
  1  2  1  0  0  0  0
  2  3  2  0  0  0  0
  2  5  1  0  0  0  0
  3  4  1  0  0  0  0
  3 12  1  0  0  0  0
  5  6  1  0  0  0  0
  5  9  2  0  0  0  0
  6  7  2  0  0  0  0
  6 14  1  0  0  0  0
  7  8  1  0  0  0  0
  7 15  1  0  0  0  0
  8  9  1  0  0  0  0
  9 10  1  0  0  0  0
 10 11  1  0  0  0  0
 10 12  2  0  0  0  0
 12 13  1  0  0  0  0
M  CHG  1   6   1
M  END
$$$$
