K32
 OpenBabel04051918403D

 16 17  0  0  0  0  0  0  0  0999 V2000
   20.8144    6.8702   22.6870 Br  0  0  0  0  0  0  0  0  0  0  0  0
   21.2830    7.4057   20.9385 C   0  0  0  0  0  0  0  0  0  0  0  0
   20.6700    8.5035   20.3040 C   0  0  0  0  0  0  0  0  0  0  0  0
   19.3291    9.4665   21.2338 Br  0  0  0  0  0  0  0  0  0  0  0  0
   22.2401    6.7089   20.2617 C   0  0  0  0  0  0  0  0  0  0  0  0
   22.9726    5.6084   20.6502 N   0  3  0  0  0  0  0  0  0  0  0  0
   23.7954    5.3039   19.6021 C   0  0  0  0  0  0  0  0  0  0  0  0
   24.5919    4.3608   19.6187 O   0  0  0  0  0  0  0  0  0  0  0  0
   23.6025    6.1863   18.5666 N   0  3  0  0  0  0  0  0  0  0  0  0
   22.6147    7.0666   18.9921 C   0  0  0  0  0  0  0  0  0  0  0  0
   22.0260    8.1370   18.3601 C   0  0  0  0  0  0  0  0  0  0  0  0
   22.5990    8.5772   16.6375 Br  0  0  0  0  0  0  0  0  0  0  0  0
   21.0286    8.8814   19.0073 C   0  0  0  0  0  0  0  0  0  0  0  0
   20.1691   10.3778   18.1409 Br  0  0  0  0  0  0  0  0  0  0  0  0
   22.9297    5.1064   21.5326 H   0  0  0  0  0  0  0  0  0  0  0  0
   24.0937    6.1793   17.6748 H   0  0  0  0  0  0  0  0  0  0  0  0
  1  2  1  0  0  0  0
  2  3  2  0  0  0  0
  2  5  1  0  0  0  0
  3  4  1  0  0  0  0
  3 13  1  0  0  0  0
  5  6  1  0  0  0  0
  5 10  2  0  0  0  0
  6  7  1  0  0  0  0
  6 15  1  0  0  0  0
  7  8  2  0  0  0  0
  7  9  1  0  0  0  0
  9 10  1  0  0  0  0
  9 16  1  0  0  0  0
 10 11  1  0  0  0  0
 11 12  1  0  0  0  0
 11 13  2  0  0  0  0
 13 14  1  0  0  0  0
M  CHG  2   6   1   9   1
M  END
$$$$
