KAI
 OpenBabel04051920343D

 31 31  0  0  1  0  0  0  0  0999 V2000
   19.6423  -35.0111   -7.8273 N   0  3  0  0  0  0  0  0  0  0  0  0
   19.2729  -33.7099   -7.2329 C   0  0  0  0  0  0  0  0  0  0  0  0
   19.2032  -31.3496   -5.5390 C   0  0  0  0  0  0  0  0  0  0  0  0
   18.9662  -32.8506   -3.4749 C   0  0  0  0  0  0  0  0  0  0  0  0
   20.0398  -35.9710   -6.6765 C   0  0  1  0  0  0  0  0  0  0  0  0
   20.2176  -35.0404   -5.4751 C   0  0  1  0  0  0  0  0  0  0  0  0
   21.6286  -34.4541   -5.4425 C   0  0  0  0  0  0  0  0  0  0  0  0
   19.1812  -33.9253   -5.7289 C   0  0  1  0  0  0  0  0  0  0  0  0
   22.7541  -35.3206   -4.9488 C   0  0  0  0  0  0  0  0  0  0  0  0
   19.4924  -32.6902   -4.8634 C   0  0  0  0  0  0  0  0  0  0  0  0
   18.9478  -37.0525   -6.4518 C   0  0  0  0  0  0  0  0  0  0  0  0
   18.1572  -37.1139   -7.4654 O   0  0  0  0  0  0  0  0  0  0  0  0
   23.8849  -34.7817   -5.0927 O   0  0  0  0  0  0  0  0  0  0  0  0
   22.4072  -36.3984   -4.4156 O   0  0  0  0  0  0  0  0  0  0  0  0
   18.8864  -37.6161   -5.3600 O   0  0  0  0  0  0  0  0  0  0  0  0
   18.8217  -35.5036   -8.2466 H   0  0  0  0  0  0  0  0  0  0  0  0
   18.3206  -33.3806   -7.6655 H   0  0  0  0  0  0  0  0  0  0  0  0
   20.0744  -33.0219   -7.5163 H   0  0  0  0  0  0  0  0  0  0  0  0
   19.5037  -30.5551   -4.8833 H   0  0  0  0  0  0  0  0  0  0  0  0
   18.1284  -31.3030   -5.7521 H   0  0  0  0  0  0  0  0  0  0  0  0
   19.7641  -31.2689   -6.4607 H   0  0  0  0  0  0  0  0  0  0  0  0
   19.2601  -33.8123   -3.0358 H   0  0  0  0  0  0  0  0  0  0  0  0
   17.8880  -32.7636   -3.4606 H   0  0  0  0  0  0  0  0  0  0  0  0
   19.3654  -32.0731   -2.8255 H   0  0  0  0  0  0  0  0  0  0  0  0
   20.9830  -36.4309   -6.9825 H   0  0  0  0  0  0  0  0  0  0  0  0
   19.9881  -35.5634   -4.5460 H   0  0  0  0  0  0  0  0  0  0  0  0
   21.7304  -33.6866   -4.6819 H   0  0  0  0  0  0  0  0  0  0  0  0
   21.8772  -34.0008   -6.4028 H   0  0  0  0  0  0  0  0  0  0  0  0
   18.1688  -34.2877   -5.4887 H   0  0  0  0  0  0  0  0  0  0  0  0
   20.5477  -32.5238   -4.7523 H   0  0  0  0  0  0  0  0  0  0  0  0
   20.3973  -34.9680   -8.5103 H   0  0  0  0  0  0  0  0  0  0  0  0
  1  2  1  0  0  0  0
  1  5  1  0  0  0  0
  1 16  1  0  0  0  0
  1 31  1  0  0  0  0
  2  8  1  0  0  0  0
  2 17  1  0  0  0  0
  2 18  1  0  0  0  0
  3 10  1  0  0  0  0
  3 19  1  0  0  0  0
  3 20  1  0  0  0  0
  3 21  1  0  0  0  0
  4 10  1  0  0  0  0
  4 22  1  0  0  0  0
  4 23  1  0  0  0  0
  4 24  1  0  0  0  0
  5  6  1  0  0  0  0
  5 11  1  0  0  0  0
  5 25  1  6  0  0  0
  6  7  1  0  0  0  0
  6  8  1  0  0  0  0
  6 26  1  1  0  0  0
  7  9  1  0  0  0  0
  7 27  1  0  0  0  0
  7 28  1  0  0  0  0
  8 10  1  0  0  0  0
  8 29  1  1  0  0  0
  9 13  2  0  0  0  0
  9 14  1  0  0  0  0
 10 30  1  0  0  0  0
 11 12  2  0  0  0  0
 11 15  1  0  0  0  0
M  CHG  1   1   1
M  END
$$$$
