KEM
 OpenBabel04051920083D

 48 49  0  0  1  0  0  0  0  0999 V2000
    9.7373  -39.4975    9.4869 C   0  0  0  0  0  0  0  0  0  0  0  0
    9.9018  -40.8612   10.1459 C   0  0  2  0  0  0  0  0  0  0  0  0
    9.3373  -40.8703   11.5571 C   0  0  0  0  0  0  0  0  0  0  0  0
    9.3381  -39.7955   12.3581 C   0  0  0  0  0  0  0  0  0  0  0  0
    8.8187  -39.7747   13.7499 C   0  0  0  0  0  0  0  0  0  0  0  0
    8.5994  -40.7818   14.4139 O   0  0  0  0  0  0  0  0  0  0  0  0
    8.5342  -38.3918   14.3868 C   0  0  0  0  0  0  0  0  0  0  0  0
    8.1388  -37.4928   13.5584 O   0  0  0  0  0  0  0  0  0  0  0  0
    8.7590  -38.2385   15.6182 O   0  0  0  0  0  0  0  0  0  0  0  0
   11.3859  -41.2576   10.1574 C   0  0  0  0  0  0  0  0  0  0  0  0
   11.8555  -41.9520   11.0639 O   0  0  0  0  0  0  0  0  0  0  0  0
   12.3234  -40.6999    9.0769 C   0  0  0  0  0  0  0  0  0  0  0  0
   11.9705  -40.7897    7.5415 C   0  0  0  0  0  0  0  0  0  0  0  0
   13.2748  -40.8772    6.6863 C   0  0  2  0  0  0  0  0  0  0  0  0
   13.2053  -40.6424    5.0989 C   0  0  1  0  0  0  0  0  0  0  0  0
   13.5990  -39.1786    4.7027 C   0  0  0  0  0  0  0  0  0  0  0  0
   14.1645  -39.1974    3.2683 C   0  0  0  0  0  0  0  0  0  0  0  0
   14.7279  -40.5762    3.1816 C   0  0  0  0  0  0  0  0  0  0  0  0
   15.4840  -40.9260    2.2502 O   0  0  0  0  0  0  0  0  0  0  0  0
   14.2583  -41.4863    4.2861 C   0  0  2  0  0  0  0  0  0  0  0  0
   13.6729  -42.7296    3.5891 C   0  0  0  0  0  0  0  0  0  0  0  0
   15.4218  -41.8641    5.2068 C   0  0  0  0  0  0  0  0  0  0  0  0
   14.8816  -42.8788    6.1826 C   0  0  0  0  0  0  0  0  0  0  0  0
   13.8762  -42.2504    7.0623 C   0  0  0  0  0  0  0  0  0  0  0  0
   13.5155  -42.9123    8.0356 O   0  0  0  0  0  0  0  0  0  0  0  0
    8.7201  -39.1119    9.5893 H   0  0  0  0  0  0  0  0  0  0  0  0
    9.9184  -39.5666    8.4185 H   0  0  0  0  0  0  0  0  0  0  0  0
   10.4474  -38.7617    9.8936 H   0  0  0  0  0  0  0  0  0  0  0  0
    9.3629  -41.6024    9.5424 H   0  0  0  0  0  0  0  0  0  0  0  0
    8.9194  -41.8073   11.9258 H   0  0  0  0  0  0  0  0  0  0  0  0
    9.7361  -38.8363   12.0313 H   0  0  0  0  0  0  0  0  0  0  0  0
   13.2781  -41.2013    9.2911 H   0  0  0  0  0  0  0  0  0  0  0  0
   12.5447  -39.6574    9.3321 H   0  0  0  0  0  0  0  0  0  0  0  0
   11.4237  -39.8946    7.2322 H   0  0  0  0  0  0  0  0  0  0  0  0
   11.3176  -41.6508    7.3433 H   0  0  0  0  0  0  0  0  0  0  0  0
   13.9233  -40.0862    7.0869 H   0  0  0  0  0  0  0  0  0  0  0  0
   12.1931  -40.8311    4.7219 H   0  0  0  0  0  0  0  0  0  0  0  0
   14.3771  -38.7856    5.3669 H   0  0  0  0  0  0  0  0  0  0  0  0
   12.7479  -38.4927    4.7583 H   0  0  0  0  0  0  0  0  0  0  0  0
   14.9530  -38.4524    3.1350 H   0  0  0  0  0  0  0  0  0  0  0  0
   13.3858  -39.0834    2.5197 H   0  0  0  0  0  0  0  0  0  0  0  0
   14.4958  -43.3058    3.1384 H   0  0  0  0  0  0  0  0  0  0  0  0
   12.9713  -42.4700    2.7979 H   0  0  0  0  0  0  0  0  0  0  0  0
   13.1336  -43.3983    4.2624 H   0  0  0  0  0  0  0  0  0  0  0  0
   15.8067  -40.9834    5.7384 H   0  0  0  0  0  0  0  0  0  0  0  0
   16.2652  -42.2824    4.6506 H   0  0  0  0  0  0  0  0  0  0  0  0
   15.6694  -43.3433    6.7910 H   0  0  0  0  0  0  0  0  0  0  0  0
   14.3477  -43.7013    5.7178 H   0  0  0  0  0  0  0  0  0  0  0  0
  1  2  1  0  0  0  0
  1 26  1  0  0  0  0
  1 27  1  0  0  0  0
  1 28  1  0  0  0  0
  2  3  1  0  0  0  0
  2 10  1  0  0  0  0
  2 29  1  6  0  0  0
  3  4  2  0  0  0  0
  3 30  1  0  0  0  0
  4  5  1  0  0  0  0
  4 31  1  0  0  0  0
  5  6  2  0  0  0  0
  5  7  1  0  0  0  0
  7  8  2  0  0  0  0
  7  9  1  0  0  0  0
 10 11  2  0  0  0  0
 10 12  1  0  0  0  0
 12 13  1  0  0  0  0
 12 32  1  0  0  0  0
 12 33  1  0  0  0  0
 13 14  1  0  0  0  0
 13 34  1  0  0  0  0
 13 35  1  0  0  0  0
 14 15  1  0  0  0  0
 14 24  1  0  0  0  0
 14 36  1  1  0  0  0
 15 16  1  0  0  0  0
 15 20  1  0  0  0  0
 15 37  1  6  0  0  0
 16 17  1  0  0  0  0
 16 38  1  0  0  0  0
 16 39  1  0  0  0  0
 17 18  1  0  0  0  0
 17 40  1  0  0  0  0
 17 41  1  0  0  0  0
 18 19  2  0  0  0  0
 18 20  1  0  0  0  0
 20 21  1  6  0  0  0
 20 22  1  0  0  0  0
 21 42  1  0  0  0  0
 21 43  1  0  0  0  0
 21 44  1  0  0  0  0
 22 23  1  0  0  0  0
 22 45  1  0  0  0  0
 22 46  1  0  0  0  0
 23 24  1  0  0  0  0
 23 47  1  0  0  0  0
 23 48  1  0  0  0  0
 24 25  2  0  0  0  0
M  END
$$$$
