KGQ
 OpenBabel04051918143D

 98101  0  0  1  0  0  0  0  0999 V2000
   13.4806   22.1165   17.8377 N   0  0  0  0  0  0  0  0  0  0  0  0
   11.7328   18.0108   18.3510 C   0  0  1  0  0  0  0  0  0  0  0  0
   12.3421   18.9497   12.4414 O   0  0  0  0  0  0  0  0  0  0  0  0
   14.4129   22.9698   17.0709 C   0  0  1  0  0  0  0  0  0  0  0  0
   13.7313   23.3990   15.7772 C   0  0  0  0  0  0  0  0  0  0  0  0
   13.3416   22.2417   14.8805 C   0  0  0  0  0  0  0  0  0  0  0  0
   14.2928   21.6099   14.0679 C   0  0  0  0  0  0  0  0  0  0  0  0
   13.9383   20.5149   13.2568 C   0  0  0  0  0  0  0  0  0  0  0  0
   12.6264   20.0134   13.2672 C   0  0  0  0  0  0  0  0  0  0  0  0
   11.4316   17.9788   12.9914 C   0  0  0  0  0  0  0  0  0  0  0  0
   11.4532   16.4034   11.9918 P   0  0  0  0  0  0  0  0  0  0  0  0
   13.0001   15.9043   11.9893 O   0  0  0  0  0  0  0  0  0  0  0  0
   13.5704   15.2048   10.8839 C   0  0  0  0  0  0  0  0  0  0  0  0
   14.9980   14.7873   11.2507 C   0  0  0  0  0  0  0  0  0  0  0  0
   10.5294   15.4069   12.5903 O   0  0  0  0  0  0  0  0  0  0  0  0
   11.1095   16.7743   10.4596 O   0  0  0  0  0  0  0  0  0  0  0  0
    9.8250   17.2624   10.0752 C   0  0  0  0  0  0  0  0  0  0  0  0
    9.8174   17.3867    8.5557 C   0  0  0  0  0  0  0  0  0  0  0  0
   11.6737   20.6509   14.0625 C   0  0  0  0  0  0  0  0  0  0  0  0
   12.0261   21.7498   14.8675 C   0  0  0  0  0  0  0  0  0  0  0  0
   14.7729   24.1773   17.9687 C   0  0  2  0  0  0  0  0  0  0  0  0
   13.5962   25.0000   18.1585 O   0  0  0  0  0  0  0  0  0  0  0  0
   15.9441   25.0566   17.4628 C   0  0  0  0  0  0  0  0  0  0  0  0
   17.2264   24.3325   17.3279 N   0  0  0  0  0  0  0  0  0  0  0  0
   18.2686   24.6150   18.3576 C   0  0  0  0  0  0  0  0  0  0  0  0
   18.1987   23.7545   19.6288 C   0  0  0  0  0  0  0  0  0  0  0  0
   19.5015   22.9917   19.8332 C   0  0  0  0  0  0  0  0  0  0  0  0
   17.0931   22.7341   19.6262 C   0  0  0  0  0  0  0  0  0  0  0  0
   17.8273   24.0811   15.7315 S   0  0  0  0  0  0  0  0  0  0  0  0
   18.8162   23.0274   15.8333 O   0  0  0  0  0  0  0  0  0  0  0  0
   16.7074   23.9535   14.8340 O   0  0  0  0  0  0  0  0  0  0  0  0
   18.6955   25.6107   15.3377 C   0  0  0  0  0  0  0  0  0  0  0  0
   20.0760   25.6973   15.5763 C   0  0  0  0  0  0  0  0  0  0  0  0
   20.7858   26.8659   15.2494 C   0  0  0  0  0  0  0  0  0  0  0  0
   20.1518   27.9558   14.6658 C   0  0  0  0  0  0  0  0  0  0  0  0
   20.7853   29.1214   14.3146 O   0  0  0  0  0  0  0  0  0  0  0  0
   22.1557   29.3009   14.7209 C   0  0  0  0  0  0  0  0  0  0  0  0
   18.7650   27.8546   14.4018 C   0  0  0  0  0  0  0  0  0  0  0  0
   18.0392   26.6838   14.7323 C   0  0  0  0  0  0  0  0  0  0  0  0
   13.7347   20.8022   18.0977 C   0  0  0  0  0  0  0  0  0  0  0  0
   14.7474   20.2223   17.8177 O   0  0  0  0  0  0  0  0  0  0  0  0
   12.6691   20.2696   18.7441 O   0  0  0  0  0  0  0  0  0  0  0  0
   12.7461   18.8767   19.1147 C   0  0  1  0  0  0  0  0  0  0  0  0
   12.2249   18.7971   20.5389 C   0  0  0  0  0  0  0  0  0  0  0  0
   10.7987   18.9172   20.3635 O   0  0  0  0  0  0  0  0  0  0  0  0
   10.4745   18.0961   19.2227 C   0  0  1  0  0  0  0  0  0  0  0  0
    9.4389   18.6907   18.4263 O   0  0  0  0  0  0  0  0  0  0  0  0
   10.0924   19.4235   17.3804 C   0  0  0  0  0  0  0  0  0  0  0  0
   11.2579   18.5346   17.0089 C   0  0  0  0  0  0  0  0  0  0  0  0
   12.5923   22.4974   18.1136 H   0  0  0  0  0  0  0  0  0  0  0  0
   12.1112   16.9792   18.2745 H   0  0  0  0  0  0  0  0  0  0  0  0
   15.3158   22.3876   16.8653 H   0  0  0  0  0  0  0  0  0  0  0  0
   14.3952   24.0705   15.2241 H   0  0  0  0  0  0  0  0  0  0  0  0
   12.8321   23.9909   16.0092 H   0  0  0  0  0  0  0  0  0  0  0  0
   15.3242   21.9754   14.0622 H   0  0  0  0  0  0  0  0  0  0  0  0
   14.7052   20.0486   12.6389 H   0  0  0  0  0  0  0  0  0  0  0  0
   10.3973   18.3530   12.9922 H   0  0  0  0  0  0  0  0  0  0  0  0
   11.7106   17.7307   14.0262 H   0  0  0  0  0  0  0  0  0  0  0  0
   13.6113   15.8720   10.0193 H   0  0  0  0  0  0  0  0  0  0  0  0
   12.9960   14.3109   10.6216 H   0  0  0  0  0  0  0  0  0  0  0  0
   15.4967   14.2749   10.4193 H   0  0  0  0  0  0  0  0  0  0  0  0
   14.9977   14.1122   12.1163 H   0  0  0  0  0  0  0  0  0  0  0  0
   15.6019   15.6625   11.5234 H   0  0  0  0  0  0  0  0  0  0  0  0
    9.6551   18.2489   10.5201 H   0  0  0  0  0  0  0  0  0  0  0  0
    9.0141   16.5912   10.3884 H   0  0  0  0  0  0  0  0  0  0  0  0
    8.8678   17.7870    8.1855 H   0  0  0  0  0  0  0  0  0  0  0  0
    9.9857   16.4087    8.0869 H   0  0  0  0  0  0  0  0  0  0  0  0
   10.6254   18.0493    8.2204 H   0  0  0  0  0  0  0  0  0  0  0  0
   10.6482   20.2992   14.0706 H   0  0  0  0  0  0  0  0  0  0  0  0
   11.2664   22.2204   15.4918 H   0  0  0  0  0  0  0  0  0  0  0  0
   14.8936   23.8387   18.9747 H   0  0  0  0  0  0  0  0  0  0  0  0
   13.8539   25.7274   18.7406 H   0  0  0  0  0  0  0  0  0  0  0  0
   16.0573   25.9081   18.1501 H   0  0  0  0  0  0  0  0  0  0  0  0
   15.6235   25.4786   16.5126 H   0  0  0  0  0  0  0  0  0  0  0  0
   18.2292   25.6790   18.6242 H   0  0  0  0  0  0  0  0  0  0  0  0
   19.2524   24.4460   17.9033 H   0  0  0  0  0  0  0  0  0  0  0  0
   18.0561   24.4288   20.4973 H   0  0  0  0  0  0  0  0  0  0  0  0
   19.4681   22.3823   20.7476 H   0  0  0  0  0  0  0  0  0  0  0  0
   20.3537   23.6697   19.9042 H   0  0  0  0  0  0  0  0  0  0  0  0
   19.6690   22.3130   18.9854 H   0  0  0  0  0  0  0  0  0  0  0  0
   16.1953   23.2212   19.6019 H   0  0  0  0  0  0  0  0  0  0  0  0
   17.0507   22.1332   20.5362 H   0  0  0  0  0  0  0  0  0  0  0  0
   17.1709   22.0444   18.7751 H   0  0  0  0  0  0  0  0  0  0  0  0
   20.6107   24.8639   16.0296 H   0  0  0  0  0  0  0  0  0  0  0  0
   21.8483   26.9054   15.4590 H   0  0  0  0  0  0  0  0  0  0  0  0
   22.5171   30.2771   14.3613 H   0  0  0  0  0  0  0  0  0  0  0  0
   22.8152   28.5341   14.2915 H   0  0  0  0  0  0  0  0  0  0  0  0
   22.2491   29.3012   15.8156 H   0  0  0  0  0  0  0  0  0  0  0  0
   18.2298   28.6889   13.9400 H   0  0  0  0  0  0  0  0  0  0  0  0
   16.9709   26.6231   14.5187 H   0  0  0  0  0  0  0  0  0  0  0  0
   13.7690   18.4992   19.0329 H   0  0  0  0  0  0  0  0  0  0  0  0
   12.5919   19.5985   21.1892 H   0  0  0  0  0  0  0  0  0  0  0  0
   12.4283   17.8304   21.0169 H   0  0  0  0  0  0  0  0  0  0  0  0
   10.1406   17.1231   19.6043 H   0  0  0  0  0  0  0  0  0  0  0  0
   10.4200   20.3955   17.7709 H   0  0  0  0  0  0  0  0  0  0  0  0
    9.4043   19.6173   16.5503 H   0  0  0  0  0  0  0  0  0  0  0  0
   10.8946   17.7131   16.3745 H   0  0  0  0  0  0  0  0  0  0  0  0
   12.0306   19.0715   16.4669 H   0  0  0  0  0  0  0  0  0  0  0  0
  1  4  1  0  0  0  0
  1 40  1  0  0  0  0
  1 50  1  0  0  0  0
  2 43  1  0  0  0  0
  2 46  1  0  0  0  0
  2 49  1  0  0  0  0
  2 51  1  6  0  0  0
  3  9  1  0  0  0  0
  3 10  1  0  0  0  0
  4  5  1  0  0  0  0
  4 21  1  0  0  0  0
  4 52  1  6  0  0  0
  5  6  1  0  0  0  0
  5 53  1  0  0  0  0
  5 54  1  0  0  0  0
  6  7  2  0  0  0  0
  6 20  1  0  0  0  0
  7  8  1  0  0  0  0
  7 55  1  0  0  0  0
  8  9  2  0  0  0  0
  8 56  1  0  0  0  0
  9 19  1  0  0  0  0
 10 11  1  0  0  0  0
 10 57  1  0  0  0  0
 10 58  1  0  0  0  0
 11 12  1  0  0  0  0
 11 15  2  0  0  0  0
 11 16  1  0  0  0  0
 12 13  1  0  0  0  0
 13 14  1  0  0  0  0
 13 59  1  0  0  0  0
 13 60  1  0  0  0  0
 14 61  1  0  0  0  0
 14 62  1  0  0  0  0
 14 63  1  0  0  0  0
 16 17  1  0  0  0  0
 17 18  1  0  0  0  0
 17 64  1  0  0  0  0
 17 65  1  0  0  0  0
 18 66  1  0  0  0  0
 18 67  1  0  0  0  0
 18 68  1  0  0  0  0
 19 20  2  0  0  0  0
 19 69  1  0  0  0  0
 20 70  1  0  0  0  0
 21 22  1  0  0  0  0
 21 23  1  0  0  0  0
 21 71  1  1  0  0  0
 22 72  1  0  0  0  0
 23 24  1  0  0  0  0
 23 73  1  0  0  0  0
 23 74  1  0  0  0  0
 24 25  1  0  0  0  0
 24 29  1  0  0  0  0
 25 26  1  0  0  0  0
 25 75  1  0  0  0  0
 25 76  1  0  0  0  0
 26 27  1  0  0  0  0
 26 28  1  0  0  0  0
 26 77  1  0  0  0  0
 27 78  1  0  0  0  0
 27 79  1  0  0  0  0
 27 80  1  0  0  0  0
 28 81  1  0  0  0  0
 28 82  1  0  0  0  0
 28 83  1  0  0  0  0
 29 30  2  0  0  0  0
 29 31  2  0  0  0  0
 29 32  1  0  0  0  0
 32 33  2  0  0  0  0
 32 39  1  0  0  0  0
 33 34  1  0  0  0  0
 33 84  1  0  0  0  0
 34 35  2  0  0  0  0
 34 85  1  0  0  0  0
 35 36  1  0  0  0  0
 35 38  1  0  0  0  0
 36 37  1  0  0  0  0
 37 86  1  0  0  0  0
 37 87  1  0  0  0  0
 37 88  1  0  0  0  0
 38 39  2  0  0  0  0
 38 89  1  0  0  0  0
 39 90  1  0  0  0  0
 40 41  2  0  0  0  0
 40 42  1  0  0  0  0
 42 43  1  0  0  0  0
 43 44  1  0  0  0  0
 43 91  1  6  0  0  0
 44 45  1  0  0  0  0
 44 92  1  0  0  0  0
 44 93  1  0  0  0  0
 45 46  1  0  0  0  0
 46 47  1  0  0  0  0
 46 94  1  1  0  0  0
 47 48  1  0  0  0  0
 48 49  1  0  0  0  0
 48 95  1  0  0  0  0
 48 96  1  0  0  0  0
 49 97  1  0  0  0  0
 49 98  1  0  0  0  0
M  END
$$$$
