L20
 OpenBabel04051918243D

 54 58  0  0  1  0  0  0  0  0999 V2000
    5.2120   10.4367    5.4978 C   0  0  0  0  0  0  0  0  0  0  0  0
    4.6148   10.2602    4.1533 C   0  0  0  0  0  0  0  0  0  0  0  0
    3.2843   10.2045    4.0107 N   0  0  0  0  0  0  0  0  0  0  0  0
    3.1077   10.0553    2.6886 N   0  3  0  0  0  0  0  0  0  0  0  0
    4.2735    9.9969    1.9726 C   0  0  0  0  0  0  0  0  0  0  0  0
    4.5150    9.8463    0.6120 C   0  0  0  0  0  0  0  0  0  0  0  0
    5.8566    9.8189    0.2140 C   0  0  0  0  0  0  0  0  0  0  0  0
    6.9350    9.9568    1.1154 C   0  0  0  0  0  0  0  0  0  0  0  0
    6.6320   10.1149    2.4809 C   0  0  0  0  0  0  0  0  0  0  0  0
    5.2888   10.1289    2.9102 C   0  0  0  0  0  0  0  0  0  0  0  0
    8.3288    9.9657    0.6173 C   0  0  0  0  0  0  0  0  0  0  0  0
    8.6132   10.4903   -0.6539 C   0  0  0  0  0  0  0  0  0  0  0  0
    9.8314   10.5393   -1.2284 N   0  0  0  0  0  0  0  0  0  0  0  0
   10.8396   10.0687   -0.4858 C   0  0  0  0  0  0  0  0  0  0  0  0
   10.6955    9.5062    0.7795 C   0  0  0  0  0  0  0  0  0  0  0  0
   11.8645    9.0852    1.3004 O   0  0  0  0  0  0  0  0  0  0  0  0
   11.9566    8.1858    2.3869 C   0  0  0  0  0  0  0  0  0  0  0  0
   13.4375    7.7374    2.3759 C   0  0  1  0  0  0  0  0  0  0  0  0
   13.6866    7.0055    1.0783 N   0  3  0  0  0  0  0  0  0  0  0  0
   14.4523    8.9098    2.5229 C   0  0  0  0  0  0  0  0  0  0  0  0
   14.6244    9.8220    1.3317 C   0  0  2  0  0  0  0  0  0  0  0  0
   15.3825    9.5630    0.2058 C   0  0  0  0  0  0  0  0  0  0  0  0
   15.2907   10.6346   -0.6463 N   0  3  0  0  0  0  0  0  0  0  0  0
   14.4828   11.6011   -0.1032 C   0  0  2  0  0  0  0  0  0  0  0  0
   14.1005   12.8440   -0.6270 C   0  0  0  0  0  0  0  0  0  0  0  0
   13.2801   13.6544    0.1573 C   0  0  0  0  0  0  0  0  0  0  0  0
   12.8612   13.2456    1.4129 C   0  0  0  0  0  0  0  0  0  0  0  0
   13.2522   11.9985    1.9258 C   0  0  0  0  0  0  0  0  0  0  0  0
   14.0774   11.1468    1.1580 C   0  0  1  0  0  0  0  0  0  0  0  0
    9.4282    9.4655    1.3480 C   0  0  0  0  0  0  0  0  0  0  0  0
    6.3053   10.4493    5.4465 H   0  0  0  0  0  0  0  0  0  0  0  0
    4.9180    9.6160    6.1592 H   0  0  0  0  0  0  0  0  0  0  0  0
    4.8867   11.3821    5.9425 H   0  0  0  0  0  0  0  0  0  0  0  0
    2.1605    9.9947    2.3306 H   0  0  0  0  0  0  0  0  0  0  0  0
    3.7140    9.7545   -0.1142 H   0  0  0  0  0  0  0  0  0  0  0  0
    6.0419    9.6844   -0.8513 H   0  0  0  0  0  0  0  0  0  0  0  0
    7.4149   10.2535    3.2194 H   0  0  0  0  0  0  0  0  0  0  0  0
    7.8348   10.9217   -1.2779 H   0  0  0  0  0  0  0  0  0  0  0  0
   11.8195   10.1509   -0.9464 H   0  0  0  0  0  0  0  0  0  0  0  0
   11.3004    7.3211    2.2301 H   0  0  0  0  0  0  0  0  0  0  0  0
   11.7080    8.6716    3.3360 H   0  0  0  0  0  0  0  0  0  0  0  0
   13.6093    7.0022    3.1694 H   0  0  0  0  0  0  0  0  0  0  0  0
   14.6707    6.7379    0.9591 H   0  0  0  0  0  0  0  0  0  0  0  0
   13.1036    6.1658    0.9770 H   0  0  0  0  0  0  0  0  0  0  0  0
   15.4381    8.4808    2.7523 H   0  0  0  0  0  0  0  0  0  0  0  0
   14.1742    9.5036    3.4037 H   0  0  0  0  0  0  0  0  0  0  0  0
   16.0141    8.7259   -0.0716 H   0  0  0  0  0  0  0  0  0  0  0  0
   15.7566   10.7282   -1.5394 H   0  0  0  0  0  0  0  0  0  0  0  0
   14.4310   13.1738   -1.6064 H   0  0  0  0  0  0  0  0  0  0  0  0
   12.9622   14.6267   -0.2318 H   0  0  0  0  0  0  0  0  0  0  0  0
   12.2277   13.8929    2.0092 H   0  0  0  0  0  0  0  0  0  0  0  0
   12.9099   11.7043    2.9126 H   0  0  0  0  0  0  0  0  0  0  0  0
    9.2829    9.0673    2.3464 H   0  0  0  0  0  0  0  0  0  0  0  0
   13.4447    7.6394    0.2978 H   0  0  0  0  0  0  0  0  0  0  0  0
  1  2  1  0  0  0  0
  1 31  1  0  0  0  0
  1 32  1  0  0  0  0
  1 33  1  0  0  0  0
  2  3  1  0  0  0  0
  2 10  2  0  0  0  0
  3  4  1  0  0  0  0
  4  5  2  0  0  0  0
  4 34  1  0  0  0  0
  5  6  1  0  0  0  0
  5 10  1  0  0  0  0
  6  7  2  0  0  0  0
  6 35  1  0  0  0  0
  7  8  1  0  0  0  0
  7 36  1  0  0  0  0
  8  9  2  0  0  0  0
  8 11  1  0  0  0  0
  9 10  1  0  0  0  0
  9 37  1  0  0  0  0
 11 12  2  0  0  0  0
 11 30  1  0  0  0  0
 12 13  1  0  0  0  0
 12 38  1  0  0  0  0
 13 14  2  0  0  0  0
 14 15  1  0  0  0  0
 14 39  1  0  0  0  0
 15 16  1  0  0  0  0
 15 30  2  0  0  0  0
 16 17  1  0  0  0  0
 17 18  1  0  0  0  0
 17 40  1  0  0  0  0
 17 41  1  0  0  0  0
 18 19  1  0  0  0  0
 18 20  1  0  0  0  0
 18 42  1  1  0  0  0
 19 43  1  0  0  0  0
 19 44  1  0  0  0  0
 19 54  1  0  0  0  0
 20 45  1  0  0  0  0
 20 46  1  0  0  0  0
 21 20  1  1  0  0  0
 21 22  1  0  0  0  0
 21 29  1  0  0  0  0
 22 23  1  0  0  0  0
 22 47  1  0  0  0  0
 23 48  1  0  0  0  0
 24 23  1  1  0  0  0
 24 25  1  0  0  0  0
 24 29  1  0  0  0  0
 25 26  1  0  0  0  0
 25 49  1  0  0  0  0
 26 27  1  0  0  0  0
 26 50  1  0  0  0  0
 27 28  1  0  0  0  0
 27 51  1  0  0  0  0
 28 52  1  0  0  0  0
 29 28  1  6  0  0  0
 30 53  1  0  0  0  0
M  CHG  3   4   1  19   1  23   1
M  END
$$$$
