LDY
 OpenBabel04051919233D

 19 19  0  0  1  0  0  0  0  0999 V2000
   35.3284   25.9326  -41.9042 C   0  0  0  0  0  0  0  0  0  0  0  0
   34.3406   26.9382  -41.6284 O   0  0  0  0  0  0  0  0  0  0  0  0
   34.3515   27.9849  -42.6008 C   0  0  0  0  0  0  0  0  0  0  0  0
   34.1610   27.4688  -44.0365 C   0  0  1  0  0  0  0  0  0  0  0  0
   34.4310   28.4907  -45.0027 O   0  0  0  0  0  0  0  0  0  0  0  0
   35.0212   26.2395  -44.3485 C   0  0  1  0  0  0  0  0  0  0  0  0
   36.3951   26.6132  -44.5244 O   0  0  0  0  0  0  0  0  0  0  0  0
   34.9441   25.2133  -43.1999 C   0  0  2  0  0  0  0  0  0  0  0  0
   33.6275   24.6687  -43.1103 O   0  0  0  0  0  0  0  0  0  0  0  0
   35.3362   25.2265  -41.0671 H   0  0  0  0  0  0  0  0  0  0  0  0
   36.3246   26.3872  -41.9690 H   0  0  0  0  0  0  0  0  0  0  0  0
   35.2554   28.5913  -42.4978 H   0  0  0  0  0  0  0  0  0  0  0  0
   33.5140   28.6487  -42.3504 H   0  0  0  0  0  0  0  0  0  0  0  0
   33.1049   27.1952  -44.1652 H   0  0  0  0  0  0  0  0  0  0  0  0
   33.9189   29.2747  -44.7748 H   0  0  0  0  0  0  0  0  0  0  0  0
   34.6735   25.7858  -45.2759 H   0  0  0  0  0  0  0  0  0  0  0  0
   36.8896   25.8211  -44.7851 H   0  0  0  0  0  0  0  0  0  0  0  0
   35.6384   24.3903  -43.3777 H   0  0  0  0  0  0  0  0  0  0  0  0
   33.0336   25.3830  -42.8131 H   0  0  0  0  0  0  0  0  0  0  0  0
  1  2  1  0  0  0  0
  1  8  1  0  0  0  0
  1 10  1  0  0  0  0
  1 11  1  0  0  0  0
  2  3  1  0  0  0  0
  3  4  1  0  0  0  0
  3 12  1  0  0  0  0
  3 13  1  0  0  0  0
  4  5  1  0  0  0  0
  4  6  1  0  0  0  0
  4 14  1  6  0  0  0
  5 15  1  0  0  0  0
  6  7  1  0  0  0  0
  6  8  1  0  0  0  0
  6 16  1  6  0  0  0
  7 17  1  0  0  0  0
  8  9  1  0  0  0  0
  8 18  1  6  0  0  0
  9 19  1  0  0  0  0
M  END
$$$$
