LFN
 OpenBabel04051917343D

 32 34  0  0  0  0  0  0  0  0999 V2000
    0.2151   22.3602   -2.7372 N   0  3  0  0  0  0  0  0  0  0  0  0
   -0.5267   22.0654   -3.9016 C   0  0  0  0  0  0  0  0  0  0  0  0
    0.7381   21.4000   -1.9334 C   0  0  0  0  0  0  0  0  0  0  0  0
   -0.9416   23.0161   -4.5212 O   0  0  0  0  0  0  0  0  0  0  0  0
   -0.6807   20.7545   -4.1766 N   0  3  0  0  0  0  0  0  0  0  0  0
   -0.2126   19.7057   -3.4289 C   0  0  0  0  0  0  0  0  0  0  0  0
   -0.4337   18.5504   -3.7556 O   0  0  0  0  0  0  0  0  0  0  0  0
    0.5618   20.0429   -2.2153 C   0  0  0  0  0  0  0  0  0  0  0  0
    1.0516   19.0321   -1.4632 N   0  0  0  0  0  0  0  0  0  0  0  0
    1.7581   19.3529   -0.3722 C   0  0  0  0  0  0  0  0  0  0  0  0
    2.2925   18.3521    0.4334 C   0  0  0  0  0  0  0  0  0  0  0  0
    1.9838   20.7065   -0.0110 C   0  0  0  0  0  0  0  0  0  0  0  0
    3.0456   18.6408    1.5875 C   0  0  0  0  0  0  0  0  0  0  0  0
    3.6061   17.5187    2.4242 C   0  0  0  0  0  0  0  0  0  0  0  0
    3.2676   19.9770    1.9453 C   0  0  0  0  0  0  0  0  0  0  0  0
    4.0609   20.3551    3.1696 C   0  0  0  0  0  0  0  0  0  0  0  0
    2.7331   20.9916    1.1452 C   0  0  0  0  0  0  0  0  0  0  0  0
    1.4621   21.7063   -0.8098 N   0  3  0  0  0  0  0  0  0  0  0  0
    1.7132   23.1140   -0.4239 C   0  0  0  0  0  0  0  0  0  0  0  0
    0.2935   23.3563   -2.5956 H   0  0  0  0  0  0  0  0  0  0  0  0
   -1.2124   20.5202   -5.0060 H   0  0  0  0  0  0  0  0  0  0  0  0
    2.1213   17.3099    0.1564 H   0  0  0  0  0  0  0  0  0  0  0  0
    3.3358   16.5374    2.0231 H   0  0  0  0  0  0  0  0  0  0  0  0
    3.2157   17.5801    3.4457 H   0  0  0  0  0  0  0  0  0  0  0  0
    4.6994   17.5792    2.4510 H   0  0  0  0  0  0  0  0  0  0  0  0
    4.1423   21.4435    3.2710 H   0  0  0  0  0  0  0  0  0  0  0  0
    5.0779   19.9578    3.1034 H   0  0  0  0  0  0  0  0  0  0  0  0
    3.5683   19.9784    4.0708 H   0  0  0  0  0  0  0  0  0  0  0  0
    2.9293   22.0111    1.4652 H   0  0  0  0  0  0  0  0  0  0  0  0
    1.2638   23.8238   -1.1112 H   0  0  0  0  0  0  0  0  0  0  0  0
    2.7947   23.2759   -0.4289 H   0  0  0  0  0  0  0  0  0  0  0  0
    1.2741   23.2760    0.5643 H   0  0  0  0  0  0  0  0  0  0  0  0
  1  2  1  0  0  0  0
  1  3  1  0  0  0  0
  1 20  1  0  0  0  0
  2  4  2  0  0  0  0
  2  5  1  0  0  0  0
  3  8  2  0  0  0  0
  3 18  1  0  0  0  0
  5  6  1  0  0  0  0
  5 21  1  0  0  0  0
  6  7  2  0  0  0  0
  6  8  1  0  0  0  0
  8  9  1  0  0  0  0
  9 10  2  0  0  0  0
 10 11  1  0  0  0  0
 10 12  1  0  0  0  0
 11 13  2  0  0  0  0
 11 22  1  0  0  0  0
 12 17  1  0  0  0  0
 12 18  2  0  0  0  0
 13 14  1  0  0  0  0
 13 15  1  0  0  0  0
 14 23  1  0  0  0  0
 14 24  1  0  0  0  0
 14 25  1  0  0  0  0
 15 16  1  0  0  0  0
 15 17  2  0  0  0  0
 16 26  1  0  0  0  0
 16 27  1  0  0  0  0
 16 28  1  0  0  0  0
 17 29  1  0  0  0  0
 18 19  1  0  0  0  0
 19 30  1  0  0  0  0
 19 31  1  0  0  0  0
 19 32  1  0  0  0  0
M  CHG  3   1   1   5   1  18   1
M  END
$$$$
