LG7
 OpenBabel04051918163D

 36 39  0  0  1  0  0  0  0  0999 V2000
   27.7751    4.2723    3.9221 C   0  0  0  0  0  0  0  0  0  0  0  0
   22.5859    4.3727    4.5030 C   0  0  0  0  0  0  0  0  0  0  0  0
   23.5703    5.3262    4.2503 C   0  0  0  0  0  0  0  0  0  0  0  0
   24.9467    4.9250    4.1421 C   0  0  0  0  0  0  0  0  0  0  0  0
   25.9854    5.8878    3.8869 C   0  0  0  0  0  0  0  0  0  0  0  0
   22.9573    3.0211    4.6622 C   0  0  0  0  0  0  0  0  0  0  0  0
   24.3029    2.5889    4.5642 C   0  0  0  0  0  0  0  0  0  0  0  0
   25.3373    3.5497    4.2898 C   0  0  0  0  0  0  0  0  0  0  0  0
   25.5888    7.3154    3.7925 C   0  0  0  0  0  0  0  0  0  0  0  0
   26.7900    3.3012    4.1861 C   0  0  0  0  0  0  0  0  0  0  0  0
   30.2639    0.9426    3.2319 O   0  0  0  0  0  0  0  0  0  0  0  0
   29.9194   -0.1113    4.1609 C   0  0  2  0  0  0  0  0  0  0  0  0
   29.5289   -1.3750    3.2515 C   0  0  0  0  0  0  0  0  0  0  0  0
   27.9840   -1.3377    3.1327 C   0  0  0  0  0  0  0  0  0  0  0  0
   27.7197   -0.0913    3.8280 N   0  0  0  0  0  0  0  0  0  0  0  0
   28.6427    0.2006    4.9079 C   0  0  2  0  0  0  0  0  0  0  0  0
   28.2830    1.6496    5.2969 C   0  0  0  0  0  0  0  0  0  0  0  0
   28.7555    2.2689    6.2357 O   0  0  0  0  0  0  0  0  0  0  0  0
   27.3326    2.0278    4.3363 N   0  0  0  0  0  0  0  0  0  0  0  0
   27.0703    1.0251    3.4058 C   0  0  0  0  0  0  0  0  0  0  0  0
   26.3544    1.0556    2.4260 O   0  0  0  0  0  0  0  0  0  0  0  0
   27.3664    5.5801    3.7564 C   0  0  0  0  0  0  0  0  0  0  0  0
   25.2421    8.3900    3.7396 N   0  0  0  0  0  0  0  0  0  0  0  0
   28.8354    3.9880    3.8513 H   0  0  0  0  0  0  0  0  0  0  0  0
   21.5365    4.6836    4.5741 H   0  0  0  0  0  0  0  0  0  0  0  0
   23.2476    6.3835    4.1405 H   0  0  0  0  0  0  0  0  0  0  0  0
   22.1582    2.3093    4.8677 H   0  0  0  0  0  0  0  0  0  0  0  0
   24.5408    1.5039    4.6889 H   0  0  0  0  0  0  0  0  0  0  0  0
   30.5042    1.7387    3.7375 H   0  0  0  0  0  0  0  0  0  0  0  0
   30.7783   -0.2785    4.8213 H   0  0  0  0  0  0  0  0  0  0  0  0
   29.8787   -2.3037    3.7212 H   0  0  0  0  0  0  0  0  0  0  0  0
   29.9889   -1.3050    2.2481 H   0  0  0  0  0  0  0  0  0  0  0  0
   27.4629   -2.1499    3.6989 H   0  0  0  0  0  0  0  0  0  0  0  0
   27.5696   -1.3767    2.1065 H   0  0  0  0  0  0  0  0  0  0  0  0
   28.3872   -0.4572    5.7571 H   0  0  0  0  0  0  0  0  0  0  0  0
   28.1308    6.3448    3.5400 H   0  0  0  0  0  0  0  0  0  0  0  0
  1 10  2  0  0  0  0
  1 22  1  0  0  0  0
  1 24  1  0  0  0  0
  2  3  2  0  0  0  0
  2  6  1  0  0  0  0
  2 25  1  0  0  0  0
  3  4  1  0  0  0  0
  3 26  1  0  0  0  0
  4  5  1  0  0  0  0
  4  8  2  0  0  0  0
  5  9  1  0  0  0  0
  5 22  2  0  0  0  0
  6  7  2  0  0  0  0
  6 27  1  0  0  0  0
  7  8  1  0  0  0  0
  7 28  1  0  0  0  0
  8 10  1  0  0  0  0
  9 23  3  0  0  0  0
 10 19  1  0  0  0  0
 11 12  1  0  0  0  0
 11 29  1  0  0  0  0
 12 13  1  0  0  0  0
 12 16  1  0  0  0  0
 12 30  1  1  0  0  0
 13 14  1  0  0  0  0
 13 31  1  0  0  0  0
 13 32  1  0  0  0  0
 14 15  1  0  0  0  0
 14 33  1  0  0  0  0
 14 34  1  0  0  0  0
 15 16  1  0  0  0  0
 15 20  1  0  0  0  0
 16 17  1  0  0  0  0
 16 35  1  1  0  0  0
 17 18  2  0  0  0  0
 17 19  1  0  0  0  0
 19 20  1  0  0  0  0
 20 21  2  0  0  0  0
 22 36  1  0  0  0  0
M  END
$$$$
