LGS
 OpenBabel04051919573D

 51 52  0  0  1  0  0  0  0  0999 V2000
    0.7747    7.5123   14.1781 O   0  0  0  0  0  0  0  0  0  0  0  0
    1.6401    6.6372   13.4626 C   0  0  2  0  0  0  0  0  0  0  0  0
    1.0111    6.1991   12.1439 C   0  0  1  0  0  0  0  0  0  0  0  0
    0.6952    7.2927   11.1442 C   0  0  0  0  0  0  0  0  0  0  0  0
    1.0660    6.7531    9.8610 O   0  0  0  0  0  0  0  0  0  0  0  0
    1.8457    5.3415   14.2685 C   0  0  2  0  0  0  0  0  0  0  0  0
    2.3101    5.6454   15.5875 O   0  0  0  0  0  0  0  0  0  0  0  0
    2.8774    4.4360   13.5738 C   0  0  1  0  0  0  0  0  0  0  0  0
    2.8623    3.1087   14.1416 O   0  0  0  0  0  0  0  0  0  0  0  0
    2.7009    4.3079   12.0289 C   0  0  2  0  0  0  0  0  0  0  0  0
    3.9665    4.2724   11.3857 O   0  0  0  0  0  0  0  0  0  0  0  0
    1.9530    5.3819   11.4021 N   0  0  0  0  0  0  0  0  0  0  0  0
    1.8814    5.7313   10.1246 C   0  0  0  0  0  0  0  0  0  0  0  0
    2.5349    5.1431    9.1364 N   0  0  0  0  0  0  0  0  0  0  0  0
    2.3652    5.3879    7.6817 C   0  0  0  0  0  0  0  0  0  0  0  0
    3.5982    6.0775    7.0959 C   0  0  0  0  0  0  0  0  0  0  0  0
    3.5241    6.1312    5.5633 C   0  0  0  0  0  0  0  0  0  0  0  0
    4.7365    6.8092    4.9134 C   0  0  0  0  0  0  0  0  0  0  0  0
    4.5576    6.8275    3.3898 C   0  0  0  0  0  0  0  0  0  0  0  0
    5.6010    7.6607    2.6459 C   0  0  0  0  0  0  0  0  0  0  0  0
    6.9871    7.0227    2.6928 C   0  0  0  0  0  0  0  0  0  0  0  0
    7.9371    7.6797    1.7060 C   0  0  0  0  0  0  0  0  0  0  0  0
    0.7325    8.3732   13.7195 H   0  0  0  0  0  0  0  0  0  0  0  0
    2.6080    7.1389   13.3152 H   0  0  0  0  0  0  0  0  0  0  0  0
    0.0962    5.6219   12.3357 H   0  0  0  0  0  0  0  0  0  0  0  0
    1.2541    8.2156   11.3361 H   0  0  0  0  0  0  0  0  0  0  0  0
   -0.3700    7.5250   11.1431 H   0  0  0  0  0  0  0  0  0  0  0  0
    0.8915    4.8169   14.4024 H   0  0  0  0  0  0  0  0  0  0  0  0
    1.6685    6.2607   15.9943 H   0  0  0  0  0  0  0  0  0  0  0  0
    3.8791    4.8182   13.8094 H   0  0  0  0  0  0  0  0  0  0  0  0
    1.9584    2.7440   14.1336 H   0  0  0  0  0  0  0  0  0  0  0  0
    2.2080    3.3572   11.8008 H   0  0  0  0  0  0  0  0  0  0  0  0
    4.5312    3.6721   11.9172 H   0  0  0  0  0  0  0  0  0  0  0  0
    1.4555    5.9650    7.4874 H   0  0  0  0  0  0  0  0  0  0  0  0
    2.2369    4.4069    7.2100 H   0  0  0  0  0  0  0  0  0  0  0  0
    4.5076    5.5431    7.3971 H   0  0  0  0  0  0  0  0  0  0  0  0
    3.6725    7.0934    7.4991 H   0  0  0  0  0  0  0  0  0  0  0  0
    2.6175    6.6712    5.2639 H   0  0  0  0  0  0  0  0  0  0  0  0
    3.4383    5.1135    5.1614 H   0  0  0  0  0  0  0  0  0  0  0  0
    5.6505    6.2659    5.1797 H   0  0  0  0  0  0  0  0  0  0  0  0
    4.8423    7.8333    5.2900 H   0  0  0  0  0  0  0  0  0  0  0  0
    3.5665    7.2298    3.1489 H   0  0  0  0  0  0  0  0  0  0  0  0
    4.5790    5.7978    3.0102 H   0  0  0  0  0  0  0  0  0  0  0  0
    5.6396    8.6757    3.0596 H   0  0  0  0  0  0  0  0  0  0  0  0
    5.2795    7.7591    1.6010 H   0  0  0  0  0  0  0  0  0  0  0  0
    6.9156    5.9548    2.4566 H   0  0  0  0  0  0  0  0  0  0  0  0
    7.3999    7.1086    3.7035 H   0  0  0  0  0  0  0  0  0  0  0  0
    8.9223    7.2061    1.7589 H   0  0  0  0  0  0  0  0  0  0  0  0
    8.0548    8.7452    1.9243 H   0  0  0  0  0  0  0  0  0  0  0  0
    7.5670    7.5756    0.6806 H   0  0  0  0  0  0  0  0  0  0  0  0
    3.1981    4.4467    9.4306 H   0  0  0  0  0  0  0  0  0  0  0  0
  1  2  1  0  0  0  0
  1 23  1  0  0  0  0
  2  3  1  0  0  0  0
  2  6  1  0  0  0  0
  2 24  1  6  0  0  0
  3  4  1  0  0  0  0
  3 12  1  0  0  0  0
  3 25  1  1  0  0  0
  4  5  1  0  0  0  0
  4 26  1  0  0  0  0
  4 27  1  0  0  0  0
  5 13  1  0  0  0  0
  6  7  1  0  0  0  0
  6  8  1  0  0  0  0
  6 28  1  1  0  0  0
  7 29  1  0  0  0  0
  8  9  1  0  0  0  0
  8 10  1  0  0  0  0
  8 30  1  1  0  0  0
  9 31  1  0  0  0  0
 10 11  1  0  0  0  0
 10 12  1  0  0  0  0
 10 32  1  6  0  0  0
 11 33  1  0  0  0  0
 12 13  1  0  0  0  0
 13 14  2  0  0  0  0
 14 15  1  0  0  0  0
 14 51  1  0  0  0  0
 15 16  1  0  0  0  0
 15 34  1  0  0  0  0
 15 35  1  0  0  0  0
 16 17  1  0  0  0  0
 16 36  1  0  0  0  0
 16 37  1  0  0  0  0
 17 18  1  0  0  0  0
 17 38  1  0  0  0  0
 17 39  1  0  0  0  0
 18 19  1  0  0  0  0
 18 40  1  0  0  0  0
 18 41  1  0  0  0  0
 19 20  1  0  0  0  0
 19 42  1  0  0  0  0
 19 43  1  0  0  0  0
 20 21  1  0  0  0  0
 20 44  1  0  0  0  0
 20 45  1  0  0  0  0
 21 22  1  0  0  0  0
 21 46  1  0  0  0  0
 21 47  1  0  0  0  0
 22 48  1  0  0  0  0
 22 49  1  0  0  0  0
 22 50  1  0  0  0  0
M  END
$$$$
