LIA
 OpenBabel04051917593D

 51 53  0  0  0  0  0  0  0  0999 V2000
    5.9534   26.3820    6.9927 N   0  0  0  0  0  0  0  0  0  0  0  0
    5.2084   26.2174    5.7252 C   0  0  0  0  0  0  0  0  0  0  0  0
    4.4400   27.4875    5.3710 C   0  0  0  0  0  0  0  0  0  0  0  0
    3.5003   27.8972    6.5025 C   0  0  0  0  0  0  0  0  0  0  0  0
    4.2743   28.0129    7.8256 C   0  0  0  0  0  0  0  0  0  0  0  0
    5.0661   26.7395    8.1262 C   0  0  0  0  0  0  0  0  0  0  0  0
    2.8194   29.1377    6.1523 N   0  0  0  0  0  0  0  0  0  0  0  0
    1.7439   29.5492    6.8997 C   0  0  0  0  0  0  0  0  0  0  0  0
    1.0879   28.6138    7.5933 N   0  0  0  0  0  0  0  0  0  0  0  0
    0.0336   29.0143    8.3174 C   0  0  0  0  0  0  0  0  0  0  0  0
   -0.3818   30.3215    8.4287 C   0  0  0  0  0  0  0  0  0  0  0  0
    0.3510   31.2272    7.6691 C   0  0  0  0  0  0  0  0  0  0  0  0
    1.3976   30.8432    6.8962 N   0  0  0  0  0  0  0  0  0  0  0  0
   -1.5479   30.6754    9.2912 C   0  0  0  0  0  0  0  0  0  0  0  0
   -2.0004   31.8163    9.3104 O   0  0  0  0  0  0  0  0  0  0  0  0
   -2.2107   29.6384   10.1306 C   0  0  0  0  0  0  0  0  0  0  0  0
   -3.5253   29.2745    9.8125 C   0  0  0  0  0  0  0  0  0  0  0  0
   -4.1788   28.2905   10.5479 C   0  0  0  0  0  0  0  0  0  0  0  0
   -3.5418   27.6581   11.6049 C   0  0  0  0  0  0  0  0  0  0  0  0
   -2.2309   28.0085   11.9280 C   0  0  0  0  0  0  0  0  0  0  0  0
   -1.5455   28.9901   11.1940 C   0  0  0  0  0  0  0  0  0  0  0  0
   -0.2497   29.3541   11.4694 O   0  0  0  0  0  0  0  0  0  0  0  0
    0.5270   28.4078   12.2108 C   0  0  0  0  0  0  0  0  0  0  0  0
   -4.1567   29.8217    8.7634 F   0  0  0  0  0  0  0  0  0  0  0  0
   -5.4277   27.9180   10.2322 F   0  0  0  0  0  0  0  0  0  0  0  0
    0.0978   32.5830    7.6767 N   0  0  0  0  0  0  0  0  0  0  0  0
    7.1357   25.1820    7.3146 S   0  0  0  0  0  0  0  0  0  0  0  0
    6.1872   23.7115    7.6906 C   0  0  0  0  0  0  0  0  0  0  0  0
    7.8298   25.5793    8.5229 O   0  0  0  0  0  0  0  0  0  0  0  0
    7.8658   24.9455    6.0993 O   0  0  0  0  0  0  0  0  0  0  0  0
    4.5139   25.3803    5.8433 H   0  0  0  0  0  0  0  0  0  0  0  0
    5.8971   25.9912    4.9064 H   0  0  0  0  0  0  0  0  0  0  0  0
    3.8559   27.3074    4.4599 H   0  0  0  0  0  0  0  0  0  0  0  0
    5.1353   28.3055    5.1444 H   0  0  0  0  0  0  0  0  0  0  0  0
    2.7491   27.1020    6.6016 H   0  0  0  0  0  0  0  0  0  0  0  0
    3.5809   28.1862    8.6588 H   0  0  0  0  0  0  0  0  0  0  0  0
    4.9469   28.8792    7.7980 H   0  0  0  0  0  0  0  0  0  0  0  0
    5.6501   26.8916    9.0403 H   0  0  0  0  0  0  0  0  0  0  0  0
    4.3738   25.9081    8.2949 H   0  0  0  0  0  0  0  0  0  0  0  0
    3.2179   29.8212    5.5254 H   0  0  0  0  0  0  0  0  0  0  0  0
   -0.4603   28.1918    8.8191 H   0  0  0  0  0  0  0  0  0  0  0  0
   -4.0626   26.8887   12.1678 H   0  0  0  0  0  0  0  0  0  0  0  0
   -1.7764   27.4954   12.7700 H   0  0  0  0  0  0  0  0  0  0  0  0
    1.5308   28.8125   12.3727 H   0  0  0  0  0  0  0  0  0  0  0  0
    0.6247   27.4758   11.6432 H   0  0  0  0  0  0  0  0  0  0  0  0
    0.1032   28.2207   13.2024 H   0  0  0  0  0  0  0  0  0  0  0  0
    0.6533   33.1815    7.0843 H   0  0  0  0  0  0  0  0  0  0  0  0
   -0.7189   32.9368    8.1665 H   0  0  0  0  0  0  0  0  0  0  0  0
    6.9019   22.9096    7.8989 H   0  0  0  0  0  0  0  0  0  0  0  0
    5.5743   23.4262    6.8365 H   0  0  0  0  0  0  0  0  0  0  0  0
    5.5766   23.8702    8.5811 H   0  0  0  0  0  0  0  0  0  0  0  0
  1  2  1  0  0  0  0
  1  6  1  0  0  0  0
  1 27  1  0  0  0  0
  2  3  1  0  0  0  0
  2 31  1  0  0  0  0
  2 32  1  0  0  0  0
  3  4  1  0  0  0  0
  3 33  1  0  0  0  0
  3 34  1  0  0  0  0
  4  5  1  0  0  0  0
  4  7  1  0  0  0  0
  4 35  1  0  0  0  0
  5  6  1  0  0  0  0
  5 36  1  0  0  0  0
  5 37  1  0  0  0  0
  6 38  1  0  0  0  0
  6 39  1  0  0  0  0
  7  8  1  0  0  0  0
  7 40  1  0  0  0  0
  8  9  2  0  0  0  0
  8 13  1  0  0  0  0
  9 10  1  0  0  0  0
 10 11  2  0  0  0  0
 10 41  1  0  0  0  0
 11 12  1  0  0  0  0
 11 14  1  0  0  0  0
 12 13  2  0  0  0  0
 12 26  1  0  0  0  0
 14 15  2  0  0  0  0
 14 16  1  0  0  0  0
 16 17  2  0  0  0  0
 16 21  1  0  0  0  0
 17 18  1  0  0  0  0
 17 24  1  0  0  0  0
 18 19  2  0  0  0  0
 18 25  1  0  0  0  0
 19 20  1  0  0  0  0
 19 42  1  0  0  0  0
 20 21  2  0  0  0  0
 20 43  1  0  0  0  0
 21 22  1  0  0  0  0
 22 23  1  0  0  0  0
 23 44  1  0  0  0  0
 23 45  1  0  0  0  0
 23 46  1  0  0  0  0
 26 47  1  0  0  0  0
 26 48  1  0  0  0  0
 27 28  1  0  0  0  0
 27 29  2  0  0  0  0
 27 30  2  0  0  0  0
 28 49  1  0  0  0  0
 28 50  1  0  0  0  0
 28 51  1  0  0  0  0
M  END
$$$$
