LMR
 OpenBabel04051920423D

 13 12  0  0  1  0  0  0  0  0999 V2000
  -60.1081   27.0023   18.9834 C   0  0  0  0  0  0  0  0  0  0  0  0
  -59.3670   28.0304   18.7988 O   0  0  0  0  0  0  0  0  0  0  0  0
  -59.7232   25.8274   19.2552 O   0  0  0  0  0  0  0  0  0  0  0  0
  -61.6497   27.2389   18.9836 C   0  0  1  0  0  0  0  0  0  0  0  0
  -61.9600   28.6051   19.3689 O   0  0  0  0  0  0  0  0  0  0  0  0
  -62.2282   26.9451   17.6096 C   0  0  0  0  0  0  0  0  0  0  0  0
  -63.7376   27.1867   17.5959 C   0  0  0  0  0  0  0  0  0  0  0  0
  -64.1715   27.8596   16.6099 O   0  0  0  0  0  0  0  0  0  0  0  0
  -64.4164   26.6170   18.5035 O   0  0  0  0  0  0  0  0  0  0  0  0
  -62.0992   26.5874   19.7386 H   0  0  0  0  0  0  0  0  0  0  0  0
  -61.4389   28.7394   20.1726 H   0  0  0  0  0  0  0  0  0  0  0  0
  -62.0432   25.8994   17.3389 H   0  0  0  0  0  0  0  0  0  0  0  0
  -61.7409   27.5627   16.8449 H   0  0  0  0  0  0  0  0  0  0  0  0
  1  2  2  0  0  0  0
  1  3  1  0  0  0  0
  1  4  1  0  0  0  0
  4  5  1  0  0  0  0
  4  6  1  0  0  0  0
  4 10  1  1  0  0  0
  5 11  1  0  0  0  0
  6  7  1  0  0  0  0
  6 12  1  0  0  0  0
  6 13  1  0  0  0  0
  7  8  2  0  0  0  0
  7  9  1  0  0  0  0
M  END
$$$$
