LOB
 OpenBabel04051917293D

 53 55  0  0  1  0  0  0  0  0999 V2000
   -5.8148   22.5672    6.1646 O   0  0  0  0  0  0  0  0  0  0  0  0
   -5.8674   23.8142    6.0953 C   0  0  0  0  0  0  0  0  0  0  0  0
   -5.3033   24.6094    7.2132 C   0  0  0  0  0  0  0  0  0  0  0  0
   -4.7756   23.9556    8.3421 C   0  0  0  0  0  0  0  0  0  0  0  0
   -4.2329   24.6819    9.4117 C   0  0  0  0  0  0  0  0  0  0  0  0
   -4.2107   26.0737    9.3714 C   0  0  0  0  0  0  0  0  0  0  0  0
   -4.7235   26.7378    8.2610 C   0  0  0  0  0  0  0  0  0  0  0  0
   -5.2699   26.0147    7.1901 C   0  0  0  0  0  0  0  0  0  0  0  0
   -6.4680   24.4068    4.8674 C   0  0  0  0  0  0  0  0  0  0  0  0
   -7.9823   24.1963    4.6738 C   0  0  2  0  0  0  0  0  0  0  0  0
   -8.4513   22.7811    4.9159 C   0  0  0  0  0  0  0  0  0  0  0  0
   -9.9086   22.6735    4.5307 C   0  0  0  0  0  0  0  0  0  0  0  0
  -10.0267   22.7105    3.0251 C   0  0  0  0  0  0  0  0  0  0  0  0
   -9.2814   23.8489    2.3353 C   0  0  1  0  0  0  0  0  0  0  0  0
   -8.2878   24.5837    3.2190 N   0  3  1  0  0  0  0  0  0  0  0  0
   -8.3248   26.0636    3.0082 C   0  0  0  0  0  0  0  0  0  0  0  0
   -8.5022   23.3128    1.1086 C   0  0  0  0  0  0  0  0  0  0  0  0
   -8.0775   24.4318    0.1522 C   0  0  1  0  0  0  0  0  0  0  0  0
   -6.7132   24.7534    0.4183 O   0  0  0  0  0  0  0  0  0  0  0  0
   -8.2576   24.1142   -1.3000 C   0  0  0  0  0  0  0  0  0  0  0  0
   -7.8568   22.8914   -1.8410 C   0  0  0  0  0  0  0  0  0  0  0  0
   -8.0445   22.6281   -3.1976 C   0  0  0  0  0  0  0  0  0  0  0  0
   -8.6265   23.5856   -4.0248 C   0  0  0  0  0  0  0  0  0  0  0  0
   -9.0166   24.8118   -3.4949 C   0  0  0  0  0  0  0  0  0  0  0  0
   -8.8319   25.0765   -2.1393 C   0  0  0  0  0  0  0  0  0  0  0  0
   -4.7820   22.8678    8.3972 H   0  0  0  0  0  0  0  0  0  0  0  0
   -3.8270   24.1592   10.2777 H   0  0  0  0  0  0  0  0  0  0  0  0
   -3.7930   26.6390   10.2034 H   0  0  0  0  0  0  0  0  0  0  0  0
   -4.7045   27.8252    8.2261 H   0  0  0  0  0  0  0  0  0  0  0  0
   -5.6397   26.5666    6.3474 H   0  0  0  0  0  0  0  0  0  0  0  0
   -5.9420   23.9855    3.9962 H   0  0  0  0  0  0  0  0  0  0  0  0
   -6.2712   25.4850    4.8388 H   0  0  0  0  0  0  0  0  0  0  0  0
   -8.5408   24.8870    5.3201 H   0  0  0  0  0  0  0  0  0  0  0  0
   -8.3378   22.5460    5.9762 H   0  0  0  0  0  0  0  0  0  0  0  0
   -7.8503   22.0726    4.3340 H   0  0  0  0  0  0  0  0  0  0  0  0
  -10.4780   23.5013    4.9681 H   0  0  0  0  0  0  0  0  0  0  0  0
  -10.3243   21.7344    4.9094 H   0  0  0  0  0  0  0  0  0  0  0  0
  -11.0864   22.7865    2.7563 H   0  0  0  0  0  0  0  0  0  0  0  0
   -9.6655   21.7548    2.6274 H   0  0  0  0  0  0  0  0  0  0  0  0
  -10.0232   24.5835    1.9947 H   0  0  0  0  0  0  0  0  0  0  0  0
   -7.6042   26.5192    3.6763 H   0  0  0  0  0  0  0  0  0  0  0  0
   -9.3344   26.4226    3.1979 H   0  0  0  0  0  0  0  0  0  0  0  0
   -8.0181   26.2498    1.9888 H   0  0  0  0  0  0  0  0  0  0  0  0
   -9.1330   22.5967    0.5853 H   0  0  0  0  0  0  0  0  0  0  0  0
   -7.6024   22.7810    1.4648 H   0  0  0  0  0  0  0  0  0  0  0  0
   -8.6788   25.3218    0.3646 H   0  0  0  0  0  0  0  0  0  0  0  0
   -6.1689   23.9677    0.1869 H   0  0  0  0  0  0  0  0  0  0  0  0
   -7.3962   22.1361   -1.2125 H   0  0  0  0  0  0  0  0  0  0  0  0
   -7.7326   21.6724   -3.6112 H   0  0  0  0  0  0  0  0  0  0  0  0
   -8.7726   23.3773   -5.0836 H   0  0  0  0  0  0  0  0  0  0  0  0
   -9.4637   25.5659   -4.1377 H   0  0  0  0  0  0  0  0  0  0  0  0
   -9.1329   26.0427   -1.7409 H   0  0  0  0  0  0  0  0  0  0  0  0
   -7.4034   24.3266    2.7621 H   0  0  0  0  0  0  0  0  0  0  0  0
  1  2  2  0  0  0  0
  2  3  1  0  0  0  0
  2  9  1  0  0  0  0
  3  4  2  0  0  0  0
  3  8  1  0  0  0  0
  4  5  1  0  0  0  0
  4 26  1  0  0  0  0
  5  6  2  0  0  0  0
  5 27  1  0  0  0  0
  6  7  1  0  0  0  0
  6 28  1  0  0  0  0
  7  8  2  0  0  0  0
  7 29  1  0  0  0  0
  8 30  1  0  0  0  0
  9 10  1  0  0  0  0
  9 31  1  0  0  0  0
  9 32  1  0  0  0  0
 10 11  1  0  0  0  0
 10 15  1  0  0  0  0
 10 33  1  1  0  0  0
 11 12  1  0  0  0  0
 11 34  1  0  0  0  0
 11 35  1  0  0  0  0
 12 13  1  0  0  0  0
 12 36  1  0  0  0  0
 12 37  1  0  0  0  0
 13 14  1  0  0  0  0
 13 38  1  0  0  0  0
 13 39  1  0  0  0  0
 14 15  1  0  0  0  0
 14 17  1  0  0  0  0
 14 40  1  6  0  0  0
 15 16  1  0  0  0  0
 15 53  1  6  0  0  0
 16 41  1  0  0  0  0
 16 42  1  0  0  0  0
 16 43  1  0  0  0  0
 17 18  1  0  0  0  0
 17 44  1  0  0  0  0
 17 45  1  0  0  0  0
 18 19  1  0  0  0  0
 18 20  1  0  0  0  0
 18 46  1  1  0  0  0
 19 47  1  0  0  0  0
 20 21  2  0  0  0  0
 20 25  1  0  0  0  0
 21 22  1  0  0  0  0
 21 48  1  0  0  0  0
 22 23  2  0  0  0  0
 22 49  1  0  0  0  0
 23 24  1  0  0  0  0
 23 50  1  0  0  0  0
 24 25  2  0  0  0  0
 24 51  1  0  0  0  0
 25 52  1  0  0  0  0
M  CHG  1  15   1
M  END
$$$$
