LPR
 OpenBabel04051920143D

 60 61  0  0  1  0  0  0  0  0999 V2000
   29.6847   -2.9963   43.3050 O   0  0  0  0  0  0  0  0  0  0  0  0
   27.6567   -1.3715   46.8443 O   0  0  0  0  0  0  0  0  0  0  0  0
   25.6701   -1.6023   45.7114 O   0  0  0  0  0  0  0  0  0  0  0  0
   30.8303   -5.8930   42.5185 O   0  0  0  0  0  0  0  0  0  0  0  0
   32.7464   -4.7326   43.0154 O   0  0  0  0  0  0  0  0  0  0  0  0
   27.1897   -2.1984   43.4497 N   0  3  0  0  0  0  0  0  0  0  0  0
   29.5940   -4.7360   44.7938 N   0  0  0  0  0  0  0  0  0  0  0  0
   27.5648   -7.4221   38.8779 N   0  3  0  0  0  0  0  0  0  0  0  0
   29.0214   -3.7704   44.0210 C   0  0  0  0  0  0  0  0  0  0  0  0
   27.4995   -3.6174   43.9642 C   0  0  2  0  0  0  0  0  0  0  0  0
   26.8957   -1.3096   45.8492 C   0  0  0  0  0  0  0  0  0  0  0  0
   27.5994   -1.0899   44.4776 C   0  0  2  0  0  0  0  0  0  0  0  0
   31.0589   -4.9219   44.7120 C   0  0  1  0  0  0  0  0  0  0  0  0
   31.3478   -6.1328   45.5975 C   0  0  0  0  0  0  0  0  0  0  0  0
   30.1177   -6.2878   46.4841 C   0  0  0  0  0  0  0  0  0  0  0  0
   28.9724   -5.7097   45.6713 C   0  0  0  0  0  0  0  0  0  0  0  0
   31.6008   -5.2117   43.2687 C   0  0  0  0  0  0  0  0  0  0  0  0
   26.8625   -4.6668   43.0087 C   0  0  0  0  0  0  0  0  0  0  0  0
   27.5216   -4.7733   41.6253 C   0  0  0  0  0  0  0  0  0  0  0  0
   26.9597   -5.8959   40.7306 C   0  0  0  0  0  0  0  0  0  0  0  0
   28.0681   -6.3726   39.7964 C   0  0  0  0  0  0  0  0  0  0  0  0
   27.2027    0.2781   43.8870 C   0  0  0  0  0  0  0  0  0  0  0  0
   27.8888    1.4366   44.6436 C   0  0  0  0  0  0  0  0  0  0  0  0
   27.5799    2.8595   44.2135 C   0  0  0  0  0  0  0  0  0  0  0  0
   28.1441    3.9119   44.9549 C   0  0  0  0  0  0  0  0  0  0  0  0
   27.9051    5.2508   44.6205 C   0  0  0  0  0  0  0  0  0  0  0  0
   27.0919    5.5553   43.5328 C   0  0  0  0  0  0  0  0  0  0  0  0
   26.5256    4.5257   42.7878 C   0  0  0  0  0  0  0  0  0  0  0  0
   26.7677    3.1865   43.1218 C   0  0  0  0  0  0  0  0  0  0  0  0
   27.7552   -2.0429   42.6098 H   0  0  0  0  0  0  0  0  0  0  0  0
   28.3327   -7.7333   38.2699 H   0  0  0  0  0  0  0  0  0  0  0  0
   27.2390   -8.2497   39.3937 H   0  0  0  0  0  0  0  0  0  0  0  0
   27.0470   -3.7170   44.9526 H   0  0  0  0  0  0  0  0  0  0  0  0
   28.6874   -1.1476   44.5785 H   0  0  0  0  0  0  0  0  0  0  0  0
   31.5177   -4.0132   45.1276 H   0  0  0  0  0  0  0  0  0  0  0  0
   32.2459   -5.9820   46.2069 H   0  0  0  0  0  0  0  0  0  0  0  0
   31.5025   -7.0409   45.0055 H   0  0  0  0  0  0  0  0  0  0  0  0
   30.2498   -5.7120   47.4071 H   0  0  0  0  0  0  0  0  0  0  0  0
   29.9466   -7.3330   46.7604 H   0  0  0  0  0  0  0  0  0  0  0  0
   28.4984   -6.4812   45.0568 H   0  0  0  0  0  0  0  0  0  0  0  0
   28.2117   -5.2423   46.3017 H   0  0  0  0  0  0  0  0  0  0  0  0
   25.7922   -4.4634   42.8861 H   0  0  0  0  0  0  0  0  0  0  0  0
   26.9363   -5.6530   43.4852 H   0  0  0  0  0  0  0  0  0  0  0  0
   28.5871   -4.9593   41.7633 H   0  0  0  0  0  0  0  0  0  0  0  0
   27.4327   -3.8193   41.0906 H   0  0  0  0  0  0  0  0  0  0  0  0
   26.1077   -5.5120   40.1549 H   0  0  0  0  0  0  0  0  0  0  0  0
   26.5881   -6.7357   41.3266 H   0  0  0  0  0  0  0  0  0  0  0  0
   28.4380   -5.5601   39.1647 H   0  0  0  0  0  0  0  0  0  0  0  0
   28.8995   -6.8247   40.3516 H   0  0  0  0  0  0  0  0  0  0  0  0
   26.1135    0.4097   43.9254 H   0  0  0  0  0  0  0  0  0  0  0  0
   27.4926    0.3225   42.8291 H   0  0  0  0  0  0  0  0  0  0  0  0
   28.9750    1.3019   44.5546 H   0  0  0  0  0  0  0  0  0  0  0  0
   27.6340    1.3591   45.7075 H   0  0  0  0  0  0  0  0  0  0  0  0
   28.7854    3.6972   45.8103 H   0  0  0  0  0  0  0  0  0  0  0  0
   28.3518    6.0476   45.2086 H   0  0  0  0  0  0  0  0  0  0  0  0
   26.8977    6.5927   43.2724 H   0  0  0  0  0  0  0  0  0  0  0  0
   25.8908    4.7649   41.9381 H   0  0  0  0  0  0  0  0  0  0  0  0
   26.3045    2.4169   42.5143 H   0  0  0  0  0  0  0  0  0  0  0  0
   26.1784   -2.0879   43.3253 H   0  0  0  0  0  0  0  0  0  0  0  0
   26.8039   -7.0851   38.2739 H   0  0  0  0  0  0  0  0  0  0  0  0
  1  9  2  0  0  0  0
  2 11  2  0  0  0  0
  3 11  1  0  0  0  0
  4 17  2  0  0  0  0
  5 17  1  0  0  0  0
  6 10  1  0  0  0  0
  6 12  1  0  0  0  0
  6 30  1  0  0  0  0
  6 59  1  0  0  0  0
  7  9  1  0  0  0  0
  7 13  1  0  0  0  0
  7 16  1  0  0  0  0
  8 21  1  0  0  0  0
  8 31  1  0  0  0  0
  8 32  1  0  0  0  0
  8 60  1  0  0  0  0
  9 10  1  0  0  0  0
 10 18  1  0  0  0  0
 10 33  1  1  0  0  0
 11 12  1  0  0  0  0
 12 22  1  0  0  0  0
 12 34  1  1  0  0  0
 13 14  1  0  0  0  0
 13 17  1  0  0  0  0
 13 35  1  1  0  0  0
 14 15  1  0  0  0  0
 14 36  1  0  0  0  0
 14 37  1  0  0  0  0
 15 16  1  0  0  0  0
 15 38  1  0  0  0  0
 15 39  1  0  0  0  0
 16 40  1  0  0  0  0
 16 41  1  0  0  0  0
 18 19  1  0  0  0  0
 18 42  1  0  0  0  0
 18 43  1  0  0  0  0
 19 20  1  0  0  0  0
 19 44  1  0  0  0  0
 19 45  1  0  0  0  0
 20 21  1  0  0  0  0
 20 46  1  0  0  0  0
 20 47  1  0  0  0  0
 21 48  1  0  0  0  0
 21 49  1  0  0  0  0
 22 23  1  0  0  0  0
 22 50  1  0  0  0  0
 22 51  1  0  0  0  0
 23 24  1  0  0  0  0
 23 52  1  0  0  0  0
 23 53  1  0  0  0  0
 24 25  2  0  0  0  0
 24 29  1  0  0  0  0
 25 26  1  0  0  0  0
 25 54  1  0  0  0  0
 26 27  2  0  0  0  0
 26 55  1  0  0  0  0
 27 28  1  0  0  0  0
 27 56  1  0  0  0  0
 28 29  2  0  0  0  0
 28 57  1  0  0  0  0
 29 58  1  0  0  0  0
M  CHG  2   6   1   8   1
M  END
$$$$
