LUM
 OpenBabel04051917333D

 28 30  0  0  0  0  0  0  0  0999 V2000
    0.2072   22.2194   -2.7103 N   0  3  0  0  0  0  0  0  0  0  0  0
   -0.5010   21.9593   -3.8397 C   0  0  0  0  0  0  0  0  0  0  0  0
    0.7326   21.2013   -1.9154 C   0  0  0  0  0  0  0  0  0  0  0  0
   -0.9631   22.8637   -4.5369 O   0  0  0  0  0  0  0  0  0  0  0  0
   -0.6694   20.6483   -4.1798 N   0  3  0  0  0  0  0  0  0  0  0  0
   -0.2120   19.5623   -3.4784 C   0  0  0  0  0  0  0  0  0  0  0  0
   -0.4294   18.4186   -3.8601 O   0  0  0  0  0  0  0  0  0  0  0  0
    0.5384   19.8678   -2.2480 C   0  0  0  0  0  0  0  0  0  0  0  0
    1.0121   18.8342   -1.5152 N   0  0  0  0  0  0  0  0  0  0  0  0
    1.7047   19.1673   -0.4145 C   0  0  0  0  0  0  0  0  0  0  0  0
    2.2258   18.1657    0.3931 C   0  0  0  0  0  0  0  0  0  0  0  0
    1.9138   20.5300   -0.0584 C   0  0  0  0  0  0  0  0  0  0  0  0
    2.9647   18.4633    1.5433 C   0  0  0  0  0  0  0  0  0  0  0  0
    3.5258   17.3474    2.3773 C   0  0  0  0  0  0  0  0  0  0  0  0
    3.1708   19.8013    1.9009 C   0  0  0  0  0  0  0  0  0  0  0  0
    3.9536   20.1310    3.1387 C   0  0  0  0  0  0  0  0  0  0  0  0
    2.6334   20.8180    1.0970 C   0  0  0  0  0  0  0  0  0  0  0  0
    1.4284   21.5441   -0.8147 N   0  0  0  0  0  0  0  0  0  0  0  0
    0.3488   23.1871   -2.4456 H   0  0  0  0  0  0  0  0  0  0  0  0
   -1.1807   20.4533   -5.0308 H   0  0  0  0  0  0  0  0  0  0  0  0
    2.0586   17.1214    0.1274 H   0  0  0  0  0  0  0  0  0  0  0  0
    3.2609   16.3770    1.9488 H   0  0  0  0  0  0  0  0  0  0  0  0
    3.1236   17.3968    3.3949 H   0  0  0  0  0  0  0  0  0  0  0  0
    4.6180   17.4204    2.4166 H   0  0  0  0  0  0  0  0  0  0  0  0
    4.0299   21.2115    3.2752 H   0  0  0  0  0  0  0  0  0  0  0  0
    4.9657   19.7168    3.0635 H   0  0  0  0  0  0  0  0  0  0  0  0
    3.4574   19.7022    4.0167 H   0  0  0  0  0  0  0  0  0  0  0  0
    2.7758   21.8620    1.3797 H   0  0  0  0  0  0  0  0  0  0  0  0
  1  2  1  0  0  0  0
  1  3  1  0  0  0  0
  1 19  1  0  0  0  0
  2  4  2  0  0  0  0
  2  5  1  0  0  0  0
  3  8  2  0  0  0  0
  3 18  1  0  0  0  0
  5  6  1  0  0  0  0
  5 20  1  0  0  0  0
  6  7  2  0  0  0  0
  6  8  1  0  0  0  0
  8  9  1  0  0  0  0
  9 10  2  0  0  0  0
 10 11  1  0  0  0  0
 10 12  1  0  0  0  0
 11 13  2  0  0  0  0
 11 21  1  0  0  0  0
 12 17  1  0  0  0  0
 12 18  2  0  0  0  0
 13 14  1  0  0  0  0
 13 15  1  0  0  0  0
 14 22  1  0  0  0  0
 14 23  1  0  0  0  0
 14 24  1  0  0  0  0
 15 16  1  0  0  0  0
 15 17  2  0  0  0  0
 16 25  1  0  0  0  0
 16 26  1  0  0  0  0
 16 27  1  0  0  0  0
 17 28  1  0  0  0  0
M  CHG  2   1   1   5   1
M  END
$$$$
