LYS
 OpenBabel04051918383D

 69 68  0  0  1  0  0  0  0  0999 V2000
    6.9460   16.7988   15.2148 N   0  3  0  0  0  0  0  0  0  0  0  0
    6.5028   18.1040   14.6570 C   0  0  2  0  0  0  0  0  0  0  0  0
    5.2971   18.5782   15.4754 C   0  0  0  0  0  0  0  0  0  0  0  0
    4.5470   17.8143   16.0134 O   0  0  0  0  0  0  0  0  0  0  0  0
    6.1710   18.0606   13.1716 C   0  0  0  0  0  0  0  0  0  0  0  0
    5.2769   16.9050   12.7409 C   0  0  0  0  0  0  0  0  0  0  0  0
    5.2338   16.7767   11.2170 C   0  0  0  0  0  0  0  0  0  0  0  0
    6.4830   16.0975   10.6817 C   0  0  0  0  0  0  0  0  0  0  0  0
    6.4524   14.6547   11.0336 N   0  3  0  0  0  0  0  0  0  0  0  0
    5.2513   19.9283   15.5810 N   0  0  0  0  0  0  0  0  0  0  0  0
    4.1840   20.5782   16.3332 C   0  0  2  0  0  0  0  0  0  0  0  0
    2.8818   20.5207   15.5482 C   0  0  0  0  0  0  0  0  0  0  0  0
    2.8344   20.7509   14.3320 O   0  0  0  0  0  0  0  0  0  0  0  0
    4.5772   22.0310   16.6137 C   0  0  0  0  0  0  0  0  0  0  0  0
    5.4879   22.0631   17.8518 C   0  0  0  0  0  0  0  0  0  0  0  0
    5.7554   23.4597   18.3647 C   0  0  0  0  0  0  0  0  0  0  0  0
    6.4071   23.5504   19.7385 C   0  0  0  0  0  0  0  0  0  0  0  0
    7.2052   22.3519   20.0901 N   0  3  0  0  0  0  0  0  0  0  0  0
    1.8136   20.1743   16.2975 N   0  0  0  0  0  0  0  0  0  0  0  0
    0.4423   20.2131   15.7781 C   0  0  2  0  0  0  0  0  0  0  0  0
   -0.5725   20.7894   16.8329 C   0  0  0  0  0  0  0  0  0  0  0  0
   -1.7352   20.3116   16.7791 O   0  0  0  0  0  0  0  0  0  0  0  0
    0.0017   18.8191   15.3091 C   0  0  0  0  0  0  0  0  0  0  0  0
   -1.0797   18.9794   14.2254 C   0  0  0  0  0  0  0  0  0  0  0  0
   -1.6894   17.6345   13.8830 C   0  0  0  0  0  0  0  0  0  0  0  0
   -2.6121   17.6486   12.6820 C   0  0  0  0  0  0  0  0  0  0  0  0
   -3.7055   18.6326   12.8311 N   0  3  0  0  0  0  0  0  0  0  0  0
   -0.0847   21.6360   17.6347 O   0  0  0  0  0  0  0  0  0  0  0  0
    7.1402   16.9012   16.2233 H   0  0  0  0  0  0  0  0  0  0  0  0
    6.1860   16.1063   15.1644 H   0  0  0  0  0  0  0  0  0  0  0  0
    7.3430   18.7971   14.7775 H   0  0  0  0  0  0  0  0  0  0  0  0
    7.1101   18.0150   12.6066 H   0  0  0  0  0  0  0  0  0  0  0  0
    5.6654   18.9991   12.9029 H   0  0  0  0  0  0  0  0  0  0  0  0
    4.2666   17.0768   13.1239 H   0  0  0  0  0  0  0  0  0  0  0  0
    5.6593   15.9800   13.1733 H   0  0  0  0  0  0  0  0  0  0  0  0
    5.1621   17.7723   10.7626 H   0  0  0  0  0  0  0  0  0  0  0  0
    4.3483   16.2002   10.9231 H   0  0  0  0  0  0  0  0  0  0  0  0
    7.3793   16.5196   11.1379 H   0  0  0  0  0  0  0  0  0  0  0  0
    6.5419   16.1774    9.5969 H   0  0  0  0  0  0  0  0  0  0  0  0
    7.2861   14.1599   10.6833 H   0  0  0  0  0  0  0  0  0  0  0  0
    6.4032   14.4883   12.0432 H   0  0  0  0  0  0  0  0  0  0  0  0
    5.9180   20.5059   15.0912 H   0  0  0  0  0  0  0  0  0  0  0  0
    4.0523   20.0230   17.2736 H   0  0  0  0  0  0  0  0  0  0  0  0
    3.6775   22.6409   16.7772 H   0  0  0  0  0  0  0  0  0  0  0  0
    5.1017   22.4599   15.7426 H   0  0  0  0  0  0  0  0  0  0  0  0
    6.4575   21.6063   17.6137 H   0  0  0  0  0  0  0  0  0  0  0  0
    5.0196   21.4953   18.6642 H   0  0  0  0  0  0  0  0  0  0  0  0
    4.8000   23.9915   18.4239 H   0  0  0  0  0  0  0  0  0  0  0  0
    6.3991   23.9727   17.6416 H   0  0  0  0  0  0  0  0  0  0  0  0
    5.6419   23.6526   20.5079 H   0  0  0  0  0  0  0  0  0  0  0  0
    7.0894   24.3996   19.7642 H   0  0  0  0  0  0  0  0  0  0  0  0
    7.6255   22.4616   21.0254 H   0  0  0  0  0  0  0  0  0  0  0  0
    6.6188   21.5086   20.1250 H   0  0  0  0  0  0  0  0  0  0  0  0
    1.9073   20.0020   17.2896 H   0  0  0  0  0  0  0  0  0  0  0  0
    0.4430   20.8518   14.8853 H   0  0  0  0  0  0  0  0  0  0  0  0
   -0.3999   18.2464   16.1589 H   0  0  0  0  0  0  0  0  0  0  0  0
    0.8481   18.2437   14.8982 H   0  0  0  0  0  0  0  0  0  0  0  0
   -0.6424   19.4318   13.3260 H   0  0  0  0  0  0  0  0  0  0  0  0
   -1.8710   19.6488   14.5812 H   0  0  0  0  0  0  0  0  0  0  0  0
   -2.2404   17.2710   14.7571 H   0  0  0  0  0  0  0  0  0  0  0  0
   -0.8714   16.9380   13.6708 H   0  0  0  0  0  0  0  0  0  0  0  0
   -3.0714   16.6650   12.5607 H   0  0  0  0  0  0  0  0  0  0  0  0
   -2.0559   17.9106   11.7794 H   0  0  0  0  0  0  0  0  0  0  0  0
   -4.3342   18.6345   12.0171 H   0  0  0  0  0  0  0  0  0  0  0  0
   -4.2815   18.4402   13.6637 H   0  0  0  0  0  0  0  0  0  0  0  0
    7.7891   16.4347   14.7657 H   0  0  0  0  0  0  0  0  0  0  0  0
    5.6364   14.1841   10.6119 H   0  0  0  0  0  0  0  0  0  0  0  0
    7.9696   22.1994   19.4233 H   0  0  0  0  0  0  0  0  0  0  0  0
   -3.3457   19.5915   12.9409 H   0  0  0  0  0  0  0  0  0  0  0  0
  1  2  1  0  0  0  0
  1 29  1  0  0  0  0
  1 30  1  0  0  0  0
  1 66  1  0  0  0  0
  2  5  1  0  0  0  0
  2  3  1  0  0  0  0
  2 31  1  1  0  0  0
  3  4  2  0  0  0  0
  3 10  1  0  0  0  0
  5  6  1  0  0  0  0
  5 32  1  0  0  0  0
  5 33  1  0  0  0  0
  6  7  1  0  0  0  0
  6 34  1  0  0  0  0
  6 35  1  0  0  0  0
  7  8  1  0  0  0  0
  7 36  1  0  0  0  0
  7 37  1  0  0  0  0
  8  9  1  0  0  0  0
  8 38  1  0  0  0  0
  8 39  1  0  0  0  0
  9 40  1  0  0  0  0
  9 41  1  0  0  0  0
  9 67  1  0  0  0  0
 10 11  1  0  0  0  0
 10 42  1  0  0  0  0
 11 14  1  0  0  0  0
 11 12  1  0  0  0  0
 11 43  1  1  0  0  0
 12 13  2  0  0  0  0
 12 19  1  0  0  0  0
 14 15  1  0  0  0  0
 14 44  1  0  0  0  0
 14 45  1  0  0  0  0
 15 16  1  0  0  0  0
 15 46  1  0  0  0  0
 15 47  1  0  0  0  0
 16 17  1  0  0  0  0
 16 48  1  0  0  0  0
 16 49  1  0  0  0  0
 17 18  1  0  0  0  0
 17 50  1  0  0  0  0
 17 51  1  0  0  0  0
 18 52  1  0  0  0  0
 18 53  1  0  0  0  0
 18 68  1  0  0  0  0
 19 20  1  0  0  0  0
 19 54  1  0  0  0  0
 20 23  1  0  0  0  0
 20 21  1  0  0  0  0
 20 55  1  6  0  0  0
 21 22  2  0  0  0  0
 21 28  1  0  0  0  0
 23 24  1  0  0  0  0
 23 56  1  0  0  0  0
 23 57  1  0  0  0  0
 24 25  1  0  0  0  0
 24 58  1  0  0  0  0
 24 59  1  0  0  0  0
 25 26  1  0  0  0  0
 25 60  1  0  0  0  0
 25 61  1  0  0  0  0
 26 27  1  0  0  0  0
 26 62  1  0  0  0  0
 26 63  1  0  0  0  0
 27 64  1  0  0  0  0
 27 65  1  0  0  0  0
 27 69  1  0  0  0  0
M  CHG  4   1   1   9   1  18   1  27   1
M  END
$$$$
