LZG
 OpenBabel04051919513D

 53 56  0  0  1  0  0  0  0  0999 V2000
   16.6012   62.1829    7.3453 Cl  0  0  0  0  0  0  0  0  0  0  0  0
   15.4456   63.3637    6.8845 C   0  0  0  0  0  0  0  0  0  0  0  0
   14.7868   64.2392    7.7062 C   0  0  0  0  0  0  0  0  0  0  0  0
   13.8914   65.0734    6.9636 C   0  0  0  0  0  0  0  0  0  0  0  0
   15.0222   63.5188    5.2601 S   0  0  0  0  0  0  0  0  0  0  0  0
   13.9181   64.7924    5.6022 C   0  0  0  0  0  0  0  0  0  0  0  0
   13.1963   65.3835    4.4939 C   0  0  0  0  0  0  0  0  0  0  0  0
   13.4110   65.1541    3.3018 O   0  0  0  0  0  0  0  0  0  0  0  0
   12.1524   66.2273    4.8217 N   0  0  0  0  0  0  0  0  0  0  0  0
   11.4303   66.9095    3.7499 C   0  0  2  0  0  0  0  0  0  0  0  0
   10.5192   68.0034    4.3078 C   0  0  1  0  0  0  0  0  0  0  0  0
   11.0106   69.2229    4.0044 F   0  0  0  0  0  0  0  0  0  0  0  0
    9.1689   67.8083    3.6572 C   0  0  0  0  0  0  0  0  0  0  0  0
   10.5237   65.9373    2.9906 C   0  0  0  0  0  0  0  0  0  0  0  0
    9.1234   66.3398    3.3975 N   0  3  2  0  0  0  0  0  0  0  0  0
    8.1166   65.9459    2.3627 C   0  0  0  0  0  0  0  0  0  0  0  0
    7.7725   64.4707    2.4131 C   0  0  0  0  0  0  0  0  0  0  0  0
    7.0707   64.0141    1.5069 O   0  0  0  0  0  0  0  0  0  0  0  0
    8.1842   63.7345    3.5182 N   0  0  0  0  0  0  0  0  0  0  0  0
    7.8895   62.3636    3.5863 C   0  0  0  0  0  0  0  0  0  0  0  0
    8.3414   61.5012    2.5845 C   0  0  0  0  0  0  0  0  0  0  0  0
    9.1575   61.9660    1.6258 F   0  0  0  0  0  0  0  0  0  0  0  0
    7.1178   61.8819    4.6420 C   0  0  0  0  0  0  0  0  0  0  0  0
    6.7591   60.5296    4.6561 C   0  0  0  0  0  0  0  0  0  0  0  0
    7.2029   59.6693    3.6407 C   0  0  0  0  0  0  0  0  0  0  0  0
    8.0042   60.1571    2.6020 C   0  0  0  0  0  0  0  0  0  0  0  0
    6.7469   58.3214    3.5982 N   0  3  0  0  0  0  0  0  0  0  0  0
    5.7790   58.0158    2.6344 C   0  0  0  0  0  0  0  0  0  0  0  0
    5.2817   58.8047    1.8450 O   0  0  0  0  0  0  0  0  0  0  0  0
    5.3051   56.5925    2.6147 C   0  0  0  0  0  0  0  0  0  0  0  0
    5.8220   55.7023    3.4639 C   0  0  0  0  0  0  0  0  0  0  0  0
    6.8317   56.0870    4.4154 C   0  0  0  0  0  0  0  0  0  0  0  0
    7.2472   57.3614    4.4732 C   0  0  0  0  0  0  0  0  0  0  0  0
   14.9381   64.2894    8.7784 H   0  0  0  0  0  0  0  0  0  0  0  0
   13.2906   65.8449    7.4254 H   0  0  0  0  0  0  0  0  0  0  0  0
   11.9223   66.3804    5.7958 H   0  0  0  0  0  0  0  0  0  0  0  0
   12.1625   67.3225    3.0453 H   0  0  0  0  0  0  0  0  0  0  0  0
   10.4246   67.9277    5.3966 H   0  0  0  0  0  0  0  0  0  0  0  0
    9.0610   68.3423    2.7106 H   0  0  0  0  0  0  0  0  0  0  0  0
    8.3398   68.0501    4.3315 H   0  0  0  0  0  0  0  0  0  0  0  0
   10.6624   64.8806    3.2468 H   0  0  0  0  0  0  0  0  0  0  0  0
   10.6122   66.0641    1.9051 H   0  0  0  0  0  0  0  0  0  0  0  0
    8.5237   66.1982    1.3840 H   0  0  0  0  0  0  0  0  0  0  0  0
    7.2094   66.5401    2.5353 H   0  0  0  0  0  0  0  0  0  0  0  0
    8.6969   64.0783    4.3185 H   0  0  0  0  0  0  0  0  0  0  0  0
    6.7125   62.5459    5.3958 H   0  0  0  0  0  0  0  0  0  0  0  0
    6.0669   60.1636    5.4102 H   0  0  0  0  0  0  0  0  0  0  0  0
    8.3458   59.5087    1.8042 H   0  0  0  0  0  0  0  0  0  0  0  0
    4.5417   56.3554    1.8967 H   0  0  0  0  0  0  0  0  0  0  0  0
    5.4760   54.6735    3.4567 H   0  0  0  0  0  0  0  0  0  0  0  0
    7.2408   55.3280    5.0723 H   0  0  0  0  0  0  0  0  0  0  0  0
    8.0091   57.6687    5.1790 H   0  0  0  0  0  0  0  0  0  0  0  0
    8.8619   65.8992    4.2840 H   0  0  0  0  0  0  0  0  0  0  0  0
  1  2  1  0  0  0  0
  2  3  2  0  0  0  0
  2  5  1  0  0  0  0
  3  4  1  0  0  0  0
  3 34  1  0  0  0  0
  4  6  2  0  0  0  0
  4 35  1  0  0  0  0
  5  6  1  0  0  0  0
  6  7  1  0  0  0  0
  7  8  2  0  0  0  0
  7  9  1  0  0  0  0
  9 10  1  0  0  0  0
  9 36  1  0  0  0  0
 10 11  1  0  0  0  0
 10 14  1  0  0  0  0
 10 37  1  6  0  0  0
 11 12  1  0  0  0  0
 11 13  1  0  0  0  0
 11 38  1  1  0  0  0
 13 15  1  0  0  0  0
 13 39  1  0  0  0  0
 13 40  1  0  0  0  0
 14 15  1  0  0  0  0
 14 41  1  0  0  0  0
 14 42  1  0  0  0  0
 15 16  1  0  0  0  0
 15 53  1  1  0  0  0
 16 17  1  0  0  0  0
 16 43  1  0  0  0  0
 16 44  1  0  0  0  0
 17 18  2  0  0  0  0
 17 19  1  0  0  0  0
 19 20  1  0  0  0  0
 19 45  1  0  0  0  0
 20 21  2  0  0  0  0
 20 23  1  0  0  0  0
 21 22  1  0  0  0  0
 21 26  1  0  0  0  0
 23 24  2  0  0  0  0
 23 46  1  0  0  0  0
 24 25  1  0  0  0  0
 24 47  1  0  0  0  0
 25 26  2  0  0  0  0
 25 27  1  0  0  0  0
 26 48  1  0  0  0  0
 27 28  1  0  0  0  0
 27 33  1  0  0  0  0
 28 29  2  0  0  0  0
 28 30  1  0  0  0  0
 30 31  2  0  0  0  0
 30 49  1  0  0  0  0
 31 32  1  0  0  0  0
 31 50  1  0  0  0  0
 32 33  2  0  0  0  0
 32 51  1  0  0  0  0
 33 52  1  0  0  0  0
M  CHG  2  15   1  27   1
M  END
$$$$
