LZH
 OpenBabel04051919513D

 57 60  0  0  1  0  0  0  0  0999 V2000
    9.3211   62.4293    1.4085 F   0  0  0  0  0  0  0  0  0  0  0  0
    8.4963   61.9818    2.3690 C   0  0  0  0  0  0  0  0  0  0  0  0
    8.1215   60.6481    2.3882 C   0  0  0  0  0  0  0  0  0  0  0  0
    7.3084   60.1837    3.4240 C   0  0  0  0  0  0  0  0  0  0  0  0
    6.8681   58.8353    3.4338 N   0  3  0  0  0  0  0  0  0  0  0  0
    7.3804   57.8972    4.3258 C   0  0  0  0  0  0  0  0  0  0  0  0
    6.9745   56.6378    4.2889 C   0  0  0  0  0  0  0  0  0  0  0  0
    5.9127   56.2110    3.3952 C   0  0  0  0  0  0  0  0  0  0  0  0
    5.3599   57.0996    2.5701 C   0  0  0  0  0  0  0  0  0  0  0  0
    5.8386   58.5057    2.5431 C   0  0  0  0  0  0  0  0  0  0  0  0
    5.2779   59.2977    1.7840 O   0  0  0  0  0  0  0  0  0  0  0  0
    6.8716   61.0649    4.4211 C   0  0  0  0  0  0  0  0  0  0  0  0
    7.2651   62.4038    4.4076 C   0  0  0  0  0  0  0  0  0  0  0  0
    8.0758   62.8547    3.3750 C   0  0  0  0  0  0  0  0  0  0  0  0
    8.4012   64.2170    3.3045 N   0  0  0  0  0  0  0  0  0  0  0  0
    7.9760   64.9229    2.1789 C   0  0  0  0  0  0  0  0  0  0  0  0
   11.5189   67.4130    3.6977 C   0  0  2  0  0  0  0  0  0  0  0  0
    7.3062   64.4196    1.2772 O   0  0  0  0  0  0  0  0  0  0  0  0
   10.5234   68.3922    4.3169 C   0  0  0  0  0  0  0  0  0  0  0  0
    8.2636   66.3995    2.1349 C   0  0  0  0  0  0  0  0  0  0  0  0
    9.2724   66.8166    3.1612 N   0  3  1  0  0  0  0  0  0  0  0  0
   10.6983   66.4171    2.8612 C   0  0  0  0  0  0  0  0  0  0  0  0
    8.1123   69.0014    1.5172 O   0  0  0  0  0  0  0  0  0  0  0  0
    9.2970   69.1803    2.2770 C   0  0  0  0  0  0  0  0  0  0  0  0
   12.2280   66.7526    4.7855 N   0  0  0  0  0  0  0  0  0  0  0  0
   13.3138   65.9530    4.5007 C   0  0  0  0  0  0  0  0  0  0  0  0
   13.6108   65.7853    3.3219 O   0  0  0  0  0  0  0  0  0  0  0  0
   13.9965   65.3270    5.6229 C   0  0  0  0  0  0  0  0  0  0  0  0
   13.9933   65.5592    6.9923 C   0  0  0  0  0  0  0  0  0  0  0  0
   14.8725   64.6681    7.6965 C   0  0  0  0  0  0  0  0  0  0  0  0
   15.0700   64.0424    5.2210 S   0  0  0  0  0  0  0  0  0  0  0  0
   15.5143   63.8259    6.8279 C   0  0  0  0  0  0  0  0  0  0  0  0
   16.6612   62.6149    7.2144 Cl  0  0  0  0  0  0  0  0  0  0  0  0
    9.2579   68.2750    3.5083 C   0  0  2  0  0  0  0  0  0  0  0  0
    8.4700   59.9846    1.6053 H   0  0  0  0  0  0  0  0  0  0  0  0
    8.1450   58.2296    5.0220 H   0  0  0  0  0  0  0  0  0  0  0  0
    7.4108   55.8797    4.9666 H   0  0  0  0  0  0  0  0  0  0  0  0
    5.5589   55.2005    3.4274 H   0  0  0  0  0  0  0  0  0  0  0  0
    4.5388   56.8574    1.9043 H   0  0  0  0  0  0  0  0  0  0  0  0
    6.1903   60.7087    5.1883 H   0  0  0  0  0  0  0  0  0  0  0  0
    6.8787   63.0819    5.1613 H   0  0  0  0  0  0  0  0  0  0  0  0
    8.9522   64.5653    4.0719 H   0  0  0  0  0  0  0  0  0  0  0  0
   12.2280   67.9227    3.0295 H   0  0  0  0  0  0  0  0  0  0  0  0
   10.9066   69.4129    4.3177 H   0  0  0  0  0  0  0  0  0  0  0  0
   10.3161   68.1088    5.3570 H   0  0  0  0  0  0  0  0  0  0  0  0
    7.3327   66.9367    2.3446 H   0  0  0  0  0  0  0  0  0  0  0  0
    8.6464   66.6540    1.1410 H   0  0  0  0  0  0  0  0  0  0  0  0
   10.8357   65.3814    3.1860 H   0  0  0  0  0  0  0  0  0  0  0  0
   10.8751   66.4973    1.7814 H   0  0  0  0  0  0  0  0  0  0  0  0
    8.1493   69.5858    0.7363 H   0  0  0  0  0  0  0  0  0  0  0  0
    9.3496   70.2195    2.6071 H   0  0  0  0  0  0  0  0  0  0  0  0
   10.1670   68.9459    1.6569 H   0  0  0  0  0  0  0  0  0  0  0  0
   11.9027   66.8355    5.7400 H   0  0  0  0  0  0  0  0  0  0  0  0
   13.4287   66.3341    7.4952 H   0  0  0  0  0  0  0  0  0  0  0  0
   15.0321   64.6549    8.7703 H   0  0  0  0  0  0  0  0  0  0  0  0
    8.3533   68.4500    4.1053 H   0  0  0  0  0  0  0  0  0  0  0  0
    8.9857   66.3548    4.0224 H   0  0  0  0  0  0  0  0  0  0  0  0
  1  2  1  0  0  0  0
  2  3  2  0  0  0  0
  2 14  1  0  0  0  0
  3  4  1  0  0  0  0
  3 35  1  0  0  0  0
  4  5  1  0  0  0  0
  4 12  2  0  0  0  0
  5  6  1  0  0  0  0
  5 10  1  0  0  0  0
  6  7  2  0  0  0  0
  6 36  1  0  0  0  0
  7  8  1  0  0  0  0
  7 37  1  0  0  0  0
  8  9  2  0  0  0  0
  8 38  1  0  0  0  0
  9 10  1  0  0  0  0
  9 39  1  0  0  0  0
 10 11  2  0  0  0  0
 12 13  1  0  0  0  0
 12 40  1  0  0  0  0
 13 14  2  0  0  0  0
 13 41  1  0  0  0  0
 14 15  1  0  0  0  0
 15 16  1  0  0  0  0
 15 42  1  0  0  0  0
 16 18  2  0  0  0  0
 16 20  1  0  0  0  0
 17 19  1  0  0  0  0
 17 22  1  0  0  0  0
 17 25  1  0  0  0  0
 17 43  1  6  0  0  0
 19 34  1  0  0  0  0
 19 44  1  0  0  0  0
 19 45  1  0  0  0  0
 20 21  1  0  0  0  0
 20 46  1  0  0  0  0
 20 47  1  0  0  0  0
 21 22  1  0  0  0  0
 21 34  1  0  0  0  0
 21 57  1  1  0  0  0
 22 48  1  0  0  0  0
 22 49  1  0  0  0  0
 23 24  1  0  0  0  0
 23 50  1  0  0  0  0
 24 34  1  0  0  0  0
 24 51  1  0  0  0  0
 24 52  1  0  0  0  0
 25 26  1  0  0  0  0
 25 53  1  0  0  0  0
 26 27  2  0  0  0  0
 26 28  1  0  0  0  0
 28 29  2  0  0  0  0
 28 31  1  0  0  0  0
 29 30  1  0  0  0  0
 29 54  1  0  0  0  0
 30 32  2  0  0  0  0
 30 55  1  0  0  0  0
 31 32  1  0  0  0  0
 32 33  1  0  0  0  0
 34 56  1  1  0  0  0
M  CHG  2   5   1  21   1
M  END
$$$$
