LZI
 OpenBabel04051919513D

 65 69  0  0  1  0  0  0  0  0999 V2000
   17.5929   11.0635   30.6828 O   0  0  0  0  0  0  0  0  0  0  0  0
   17.4846   10.5386   31.7826 C   0  0  0  0  0  0  0  0  0  0  0  0
   17.8078   11.3416   32.9986 C   0  0  0  0  0  0  0  0  0  0  0  0
   17.7220   10.7999   34.2208 C   0  0  0  0  0  0  0  0  0  0  0  0
   17.3239    9.4249   34.3780 C   0  0  0  0  0  0  0  0  0  0  0  0
   17.0559    8.6760   33.3019 C   0  0  0  0  0  0  0  0  0  0  0  0
   17.1199    9.2010   32.0188 N   0  3  0  0  0  0  0  0  0  0  0  0
   16.8658    8.3786   30.8890 C   0  0  0  0  0  0  0  0  0  0  0  0
   17.8282    7.4559   30.4667 C   0  0  0  0  0  0  0  0  0  0  0  0
   17.5759    6.6676   29.3414 C   0  0  0  0  0  0  0  0  0  0  0  0
   18.5289    5.8293   28.9031 F   0  0  0  0  0  0  0  0  0  0  0  0
   15.6681    8.5109   30.1862 C   0  0  0  0  0  0  0  0  0  0  0  0
   15.4242    7.7165   29.0657 C   0  0  0  0  0  0  0  0  0  0  0  0
   16.3802    6.7975   28.6266 C   0  0  0  0  0  0  0  0  0  0  0  0
   16.1235    6.0271   27.4547 N   0  0  0  0  0  0  0  0  0  0  0  0
   15.6590    6.6734   26.3203 C   0  0  0  0  0  0  0  0  0  0  0  0
   15.5153    7.8965   26.2534 O   0  0  0  0  0  0  0  0  0  0  0  0
   15.3728    5.9043   25.0575 C   0  0  0  0  0  0  0  0  0  0  0  0
   15.0546    4.4706   25.1936 N   0  0  0  0  0  0  0  0  0  0  0  0
   15.5168    3.5088   24.1501 C   0  0  2  0  0  0  0  0  0  0  0  0
   15.0171    3.9894   22.7973 C   0  0  0  0  0  0  0  0  0  0  0  0
   15.8749    3.7627   21.7514 N   0  0  0  0  0  0  0  0  0  0  0  0
   13.9175    4.5155   22.6906 O   0  0  0  0  0  0  0  0  0  0  0  0
   14.0859    4.0194   25.8968 C   0  0  0  0  0  0  0  0  0  0  0  0
   13.6936    2.6441   25.4543 C   0  0  1  0  0  0  0  0  0  0  0  0
   14.8066    2.2172   24.5106 C   0  0  0  0  0  0  0  0  0  0  0  0
   13.6186    1.7884   26.6093 N   0  0  0  0  0  0  0  0  0  0  0  0
   12.5548    1.9270   27.4614 C   0  0  0  0  0  0  0  0  0  0  0  0
   11.7634    2.8649   27.3081 O   0  0  0  0  0  0  0  0  0  0  0  0
   12.4676    0.9557   28.5208 C   0  0  0  0  0  0  0  0  0  0  0  0
   13.2578   -0.1535   28.7887 C   0  0  0  0  0  0  0  0  0  0  0  0
   12.8470   -0.8258   29.9789 C   0  0  0  0  0  0  0  0  0  0  0  0
   11.7976   -0.1772   30.5742 C   0  0  0  0  0  0  0  0  0  0  0  0
   11.2559    1.1651   29.7133 S   0  0  0  0  0  0  0  0  0  0  0  0
   11.0334   -0.5819   32.0521 Cl  0  0  0  0  0  0  0  0  0  0  0  0
   15.4627    4.0315   20.3885 C   0  0  0  0  0  0  0  0  0  0  0  0
   16.6419    3.9200   19.4799 C   0  0  0  0  0  0  0  0  0  0  0  0
   16.5018    3.1966   18.1640 C   0  0  0  0  0  0  0  0  0  0  0  0
   17.3343    2.5960   19.2631 C   0  0  0  0  0  0  0  0  0  0  0  0
   18.1242   12.3633   32.8308 H   0  0  0  0  0  0  0  0  0  0  0  0
   17.9662   11.3788   35.1050 H   0  0  0  0  0  0  0  0  0  0  0  0
   17.2553    9.0184   35.3841 H   0  0  0  0  0  0  0  0  0  0  0  0
   16.7583    7.6364   33.4005 H   0  0  0  0  0  0  0  0  0  0  0  0
   18.7865    7.3929   30.9741 H   0  0  0  0  0  0  0  0  0  0  0  0
   14.9117    9.2267   30.5015 H   0  0  0  0  0  0  0  0  0  0  0  0
   14.4767    7.8265   28.5416 H   0  0  0  0  0  0  0  0  0  0  0  0
   16.6069    5.1375   27.4119 H   0  0  0  0  0  0  0  0  0  0  0  0
   16.2141    6.0145   24.3679 H   0  0  0  0  0  0  0  0  0  0  0  0
   14.4805    6.3566   24.6071 H   0  0  0  0  0  0  0  0  0  0  0  0
   16.6058    3.4158   24.2037 H   0  0  0  0  0  0  0  0  0  0  0  0
   16.7618    3.2883   21.8740 H   0  0  0  0  0  0  0  0  0  0  0  0
   13.5449    4.6130   26.6440 H   0  0  0  0  0  0  0  0  0  0  0  0
   12.7174    2.6994   24.9493 H   0  0  0  0  0  0  0  0  0  0  0  0
   15.4952    1.5200   24.9951 H   0  0  0  0  0  0  0  0  0  0  0  0
   14.3893    1.7022   23.6356 H   0  0  0  0  0  0  0  0  0  0  0  0
   14.1646    0.9341   26.6412 H   0  0  0  0  0  0  0  0  0  0  0  0
   14.0944   -0.4879   28.1838 H   0  0  0  0  0  0  0  0  0  0  0  0
   13.3136   -1.7170   30.3787 H   0  0  0  0  0  0  0  0  0  0  0  0
   15.0256    5.0337   20.3421 H   0  0  0  0  0  0  0  0  0  0  0  0
   14.6802    3.3092   20.1270 H   0  0  0  0  0  0  0  0  0  0  0  0
   17.2536    4.8163   19.4946 H   0  0  0  0  0  0  0  0  0  0  0  0
   17.0157    3.5960   17.2956 H   0  0  0  0  0  0  0  0  0  0  0  0
   15.5523    2.7301   17.9224 H   0  0  0  0  0  0  0  0  0  0  0  0
   16.9520    1.7157   19.7667 H   0  0  0  0  0  0  0  0  0  0  0  0
   18.4111    2.5921   19.1266 H   0  0  0  0  0  0  0  0  0  0  0  0
  1  2  2  0  0  0  0
  2  3  1  0  0  0  0
  2  7  1  0  0  0  0
  3  4  2  0  0  0  0
  3 40  1  0  0  0  0
  4  5  1  0  0  0  0
  4 41  1  0  0  0  0
  5  6  2  0  0  0  0
  5 42  1  0  0  0  0
  6  7  1  0  0  0  0
  6 43  1  0  0  0  0
  7  8  1  0  0  0  0
  8  9  2  0  0  0  0
  8 12  1  0  0  0  0
  9 10  1  0  0  0  0
  9 44  1  0  0  0  0
 10 11  1  0  0  0  0
 10 14  2  0  0  0  0
 12 13  2  0  0  0  0
 12 45  1  0  0  0  0
 13 14  1  0  0  0  0
 13 46  1  0  0  0  0
 14 15  1  0  0  0  0
 15 16  1  0  0  0  0
 15 47  1  0  0  0  0
 16 17  2  0  0  0  0
 16 18  1  0  0  0  0
 18 19  1  0  0  0  0
 18 48  1  0  0  0  0
 18 49  1  0  0  0  0
 19 20  1  0  0  0  0
 19 24  2  0  0  0  0
 20 21  1  0  0  0  0
 20 26  1  0  0  0  0
 20 50  1  1  0  0  0
 21 22  1  0  0  0  0
 21 23  2  0  0  0  0
 22 36  1  0  0  0  0
 22 51  1  0  0  0  0
 24 25  1  0  0  0  0
 24 52  1  0  0  0  0
 25 26  1  0  0  0  0
 25 27  1  0  0  0  0
 25 53  1  6  0  0  0
 26 54  1  0  0  0  0
 26 55  1  0  0  0  0
 27 28  1  0  0  0  0
 27 56  1  0  0  0  0
 28 29  2  0  0  0  0
 28 30  1  0  0  0  0
 30 31  2  0  0  0  0
 30 34  1  0  0  0  0
 31 32  1  0  0  0  0
 31 57  1  0  0  0  0
 32 33  2  0  0  0  0
 32 58  1  0  0  0  0
 33 34  1  0  0  0  0
 33 35  1  0  0  0  0
 36 37  1  0  0  0  0
 36 59  1  0  0  0  0
 36 60  1  0  0  0  0
 37 38  1  0  0  0  0
 37 39  1  0  0  0  0
 37 61  1  0  0  0  0
 38 39  1  0  0  0  0
 38 62  1  0  0  0  0
 38 63  1  0  0  0  0
 39 64  1  0  0  0  0
 39 65  1  0  0  0  0
M  CHG  1   7   1
M  END
$$$$
