LZJ
 OpenBabel04051919343D

 29 31  0  0  0  0  0  0  0  0999 V2000
    7.1597  -21.6957   26.5129 Br  0  0  0  0  0  0  0  0  0  0  0  0
    6.1469  -20.3898   25.5574 C   0  0  0  0  0  0  0  0  0  0  0  0
    6.6141  -19.0729   25.6181 C   0  0  0  0  0  0  0  0  0  0  0  0
    5.9337  -18.0609   24.9487 C   0  0  0  0  0  0  0  0  0  0  0  0
    4.7907  -18.3604   24.2121 C   0  0  0  0  0  0  0  0  0  0  0  0
    4.3251  -19.6777   24.1415 C   0  0  0  0  0  0  0  0  0  0  0  0
    2.7725  -19.9810   23.0751 Br  0  0  0  0  0  0  0  0  0  0  0  0
    4.9917  -20.7247   24.8136 C   0  0  0  0  0  0  0  0  0  0  0  0
    4.5374  -22.1205   24.6864 C   0  0  0  0  0  0  0  0  0  0  0  0
    3.3839  -22.5590   25.3325 C   0  0  0  0  0  0  0  0  0  0  0  0
    2.9742  -23.8861   25.1773 C   0  0  0  0  0  0  0  0  0  0  0  0
    1.8310  -24.4015   25.7693 C   0  0  0  0  0  0  0  0  0  0  0  0
    1.4367  -25.6754   25.6295 N   0  0  0  0  0  0  0  0  0  0  0  0
    5.2325  -23.0575   23.9101 C   0  0  0  0  0  0  0  0  0  0  0  0
    6.3567  -22.6774   23.1989 N   0  0  0  0  0  0  0  0  0  0  0  0
    4.8290  -24.3410   23.7791 N   0  0  0  0  0  0  0  0  0  0  0  0
    3.7132  -24.7738   24.3946 C   0  0  0  0  0  0  0  0  0  0  0  0
    3.3257  -26.0389   24.2549 N   0  0  0  0  0  0  0  0  0  0  0  0
    2.2110  -26.4546   24.8691 C   0  0  0  0  0  0  0  0  0  0  0  0
    1.8393  -27.7565   24.7198 N   0  0  0  0  0  0  0  0  0  0  0  0
    7.5099  -18.8313   26.1858 H   0  0  0  0  0  0  0  0  0  0  0  0
    6.2936  -17.0353   25.0030 H   0  0  0  0  0  0  0  0  0  0  0  0
    4.2691  -17.5622   23.6884 H   0  0  0  0  0  0  0  0  0  0  0  0
    2.7998  -21.8691   25.9364 H   0  0  0  0  0  0  0  0  0  0  0  0
    1.1930  -23.7872   26.3848 H   0  0  0  0  0  0  0  0  0  0  0  0
    6.8660  -23.3943   22.7020 H   0  0  0  0  0  0  0  0  0  0  0  0
    6.7616  -21.7602   23.3064 H   0  0  0  0  0  0  0  0  0  0  0  0
    1.0012  -28.0716   25.1723 H   0  0  0  0  0  0  0  0  0  0  0  0
    2.4060  -28.3442   24.1511 H   0  0  0  0  0  0  0  0  0  0  0  0
  1  2  1  0  0  0  0
  2  3  2  0  0  0  0
  2  8  1  0  0  0  0
  3  4  1  0  0  0  0
  3 21  1  0  0  0  0
  4  5  2  0  0  0  0
  4 22  1  0  0  0  0
  5  6  1  0  0  0  0
  5 23  1  0  0  0  0
  6  7  1  0  0  0  0
  6  8  2  0  0  0  0
  8  9  1  0  0  0  0
  9 10  2  0  0  0  0
  9 14  1  0  0  0  0
 10 11  1  0  0  0  0
 10 24  1  0  0  0  0
 11 12  2  0  0  0  0
 11 17  1  0  0  0  0
 12 13  1  0  0  0  0
 12 25  1  0  0  0  0
 13 19  2  0  0  0  0
 14 15  1  0  0  0  0
 14 16  2  0  0  0  0
 15 26  1  0  0  0  0
 15 27  1  0  0  0  0
 16 17  1  0  0  0  0
 17 18  2  0  0  0  0
 18 19  1  0  0  0  0
 19 20  1  0  0  0  0
 20 28  1  0  0  0  0
 20 29  1  0  0  0  0
M  END
$$$$
