M25
 OpenBabel04051918293D

 30 30  0  0  0  0  0  0  0  0999 V2000
  -17.1003   -0.3194  -19.2226 C   0  0  0  0  0  0  0  0  0  0  0  0
  -17.2589   -1.1814  -18.1339 C   0  0  0  0  0  0  0  0  0  0  0  0
  -17.8346   -0.6957  -16.9597 C   0  0  0  0  0  0  0  0  0  0  0  0
  -18.2597    0.6379  -16.8650 C   0  0  0  0  0  0  0  0  0  0  0  0
  -18.0955    1.4932  -17.9648 C   0  0  0  0  0  0  0  0  0  0  0  0
  -17.5197    1.0151  -19.1459 C   0  0  0  0  0  0  0  0  0  0  0  0
  -16.4314   -0.9330  -20.7475 S   0  0  0  0  0  0  0  0  0  0  0  0
  -16.0095    0.1911  -21.5468 O   0  0  0  0  0  0  0  0  0  0  0  0
  -17.3695   -1.9235  -21.2418 O   0  0  0  0  0  0  0  0  0  0  0  0
  -15.0432   -1.7506  -20.3177 N   0  0  0  0  0  0  0  0  0  0  0  0
  -18.8624    1.1394  -15.5755 C   0  0  0  0  0  0  0  0  0  0  0  0
  -17.8009    1.6261  -14.5951 C   0  0  0  0  0  0  0  0  0  0  0  0
  -18.4005    2.0787  -13.3492 N   0  0  0  0  0  0  0  0  0  0  0  0
  -18.7869    3.3848  -13.1542 C   0  0  0  0  0  0  0  0  0  0  0  0
  -19.4296    3.6195  -11.8107 C   0  0  0  0  0  0  0  0  0  0  0  0
  -18.6403    4.2760  -13.9846 O   0  0  0  0  0  0  0  0  0  0  0  0
  -16.9554   -2.2240  -18.1900 H   0  0  0  0  0  0  0  0  0  0  0  0
  -17.9607   -1.3643  -16.1105 H   0  0  0  0  0  0  0  0  0  0  0  0
  -18.4185    2.5325  -17.9057 H   0  0  0  0  0  0  0  0  0  0  0  0
  -17.4080    1.6780  -20.0029 H   0  0  0  0  0  0  0  0  0  0  0  0
  -14.4943   -2.1625  -21.0682 H   0  0  0  0  0  0  0  0  0  0  0  0
  -14.7400   -1.8218  -19.3555 H   0  0  0  0  0  0  0  0  0  0  0  0
  -19.4398    0.3309  -15.1058 H   0  0  0  0  0  0  0  0  0  0  0  0
  -19.5683    1.9522  -15.7808 H   0  0  0  0  0  0  0  0  0  0  0  0
  -17.2293    2.4473  -15.0403 H   0  0  0  0  0  0  0  0  0  0  0  0
  -17.1035    0.8130  -14.3570 H   0  0  0  0  0  0  0  0  0  0  0  0
  -18.5960    1.3959  -12.6285 H   0  0  0  0  0  0  0  0  0  0  0  0
  -19.7014    4.6734  -11.7134 H   0  0  0  0  0  0  0  0  0  0  0  0
  -18.7272    3.3588  -11.0152 H   0  0  0  0  0  0  0  0  0  0  0  0
  -20.3339    3.0107  -11.7144 H   0  0  0  0  0  0  0  0  0  0  0  0
  1  2  2  0  0  0  0
  1  6  1  0  0  0  0
  1  7  1  0  0  0  0
  2  3  1  0  0  0  0
  2 17  1  0  0  0  0
  3  4  2  0  0  0  0
  3 18  1  0  0  0  0
  4  5  1  0  0  0  0
  4 11  1  0  0  0  0
  5  6  2  0  0  0  0
  5 19  1  0  0  0  0
  6 20  1  0  0  0  0
  7  8  2  0  0  0  0
  7  9  2  0  0  0  0
  7 10  1  0  0  0  0
 10 21  1  0  0  0  0
 10 22  1  0  0  0  0
 11 12  1  0  0  0  0
 11 23  1  0  0  0  0
 11 24  1  0  0  0  0
 12 13  1  0  0  0  0
 12 25  1  0  0  0  0
 12 26  1  0  0  0  0
 13 14  1  0  0  0  0
 13 27  1  0  0  0  0
 14 15  1  0  0  0  0
 14 16  2  0  0  0  0
 15 28  1  0  0  0  0
 15 29  1  0  0  0  0
 15 30  1  0  0  0  0
M  END
$$$$
