M28
 OpenBabel04051918293D

 25 25  0  0  0  0  0  0  0  0999 V2000
  -17.3066   -0.1340  -19.5003 C   0  0  0  0  0  0  0  0  0  0  0  0
  -17.8831    1.1363  -19.6497 C   0  0  0  0  0  0  0  0  0  0  0  0
  -18.4931    1.7512  -18.5541 C   0  0  0  0  0  0  0  0  0  0  0  0
  -18.5102    1.0934  -17.3208 C   0  0  0  0  0  0  0  0  0  0  0  0
  -17.9139   -0.1780  -17.2091 C   0  0  0  0  0  0  0  0  0  0  0  0
  -17.3018   -0.7903  -18.2788 C   0  0  0  0  0  0  0  0  0  0  0  0
  -16.5556   -0.9397  -20.8752 S   0  0  0  0  0  0  0  0  0  0  0  0
  -16.0294    0.0779  -21.7539 O   0  0  0  0  0  0  0  0  0  0  0  0
  -17.4550   -1.9647  -21.3458 O   0  0  0  0  0  0  0  0  0  0  0  0
  -15.2526   -1.7244  -20.2152 N   0  0  0  0  0  0  0  0  0  0  0  0
  -19.1231    1.7238  -16.0784 C   0  0  0  0  0  0  0  0  0  0  0  0
  -18.1467    1.5196  -14.9248 C   0  0  0  0  0  0  0  0  0  0  0  0
  -18.3771    2.0619  -13.5275 C   0  0  0  0  0  0  0  0  0  0  0  0
  -19.1205    3.0785  -13.4475 O   0  0  0  0  0  0  0  0  0  0  0  0
  -17.7816    1.4288  -12.6224 O   0  0  0  0  0  0  0  0  0  0  0  0
  -17.8663    1.6409  -20.6123 H   0  0  0  0  0  0  0  0  0  0  0  0
  -18.9406    2.7373  -18.6612 H   0  0  0  0  0  0  0  0  0  0  0  0
  -17.9049   -0.7083  -16.2628 H   0  0  0  0  0  0  0  0  0  0  0  0
  -16.8553   -1.7689  -18.1351 H   0  0  0  0  0  0  0  0  0  0  0  0
  -14.6866   -2.2996  -20.8246 H   0  0  0  0  0  0  0  0  0  0  0  0
  -15.0772   -1.6788  -19.2213 H   0  0  0  0  0  0  0  0  0  0  0  0
  -20.0883    1.2383  -15.8793 H   0  0  0  0  0  0  0  0  0  0  0  0
  -19.3156    2.7899  -16.2474 H   0  0  0  0  0  0  0  0  0  0  0  0
  -17.1768    1.9129  -15.2575 H   0  0  0  0  0  0  0  0  0  0  0  0
  -18.0236    0.4431  -14.7727 H   0  0  0  0  0  0  0  0  0  0  0  0
  1  2  2  0  0  0  0
  1  6  1  0  0  0  0
  1  7  1  0  0  0  0
  2  3  1  0  0  0  0
  2 16  1  0  0  0  0
  3  4  2  0  0  0  0
  3 17  1  0  0  0  0
  4  5  1  0  0  0  0
  4 11  1  0  0  0  0
  5  6  2  0  0  0  0
  5 18  1  0  0  0  0
  6 19  1  0  0  0  0
  7  8  2  0  0  0  0
  7  9  2  0  0  0  0
  7 10  1  0  0  0  0
 10 20  1  0  0  0  0
 10 21  1  0  0  0  0
 11 12  1  0  0  0  0
 11 22  1  0  0  0  0
 11 23  1  0  0  0  0
 12 13  1  0  0  0  0
 12 24  1  0  0  0  0
 12 25  1  0  0  0  0
 13 14  2  0  0  0  0
 13 15  1  0  0  0  0
M  END
$$$$
