M29
 OpenBabel04051918303D

 32 32  0  0  0  0  0  0  0  0999 V2000
  -17.3635   -0.0725  -19.4239 C   0  0  0  0  0  0  0  0  0  0  0  0
  -18.0848    1.1134  -19.6077 C   0  0  0  0  0  0  0  0  0  0  0  0
  -18.7354    1.7106  -18.5223 C   0  0  0  0  0  0  0  0  0  0  0  0
  -18.6619    1.1400  -17.2426 C   0  0  0  0  0  0  0  0  0  0  0  0
  -17.9182   -0.0386  -17.0710 C   0  0  0  0  0  0  0  0  0  0  0  0
  -17.2717   -0.6477  -18.1538 C   0  0  0  0  0  0  0  0  0  0  0  0
  -16.6067   -0.8352  -20.8393 S   0  0  0  0  0  0  0  0  0  0  0  0
  -16.1579    0.2082  -21.7285 O   0  0  0  0  0  0  0  0  0  0  0  0
  -17.4955   -1.8910  -21.2835 O   0  0  0  0  0  0  0  0  0  0  0  0
  -15.2308   -1.5769  -20.2704 N   0  0  0  0  0  0  0  0  0  0  0  0
  -19.3947    1.7632  -16.0681 C   0  0  0  0  0  0  0  0  0  0  0  0
  -18.7240    3.0377  -15.5412 C   0  0  0  0  0  0  0  0  0  0  0  0
  -19.4717    3.6665  -14.3770 C   0  0  0  0  0  0  0  0  0  0  0  0
  -18.8531    4.8129  -13.9744 O   0  0  0  0  0  0  0  0  0  0  0  0
  -20.4844    3.2091  -13.8757 O   0  0  0  0  0  0  0  0  0  0  0  0
  -19.4810    5.5380  -12.8944 C   0  0  0  0  0  0  0  0  0  0  0  0
  -18.7678    6.8728  -12.7568 C   0  0  0  0  0  0  0  0  0  0  0  0
  -18.1648    1.5611  -20.5973 H   0  0  0  0  0  0  0  0  0  0  0  0
  -19.3141    2.6180  -18.6854 H   0  0  0  0  0  0  0  0  0  0  0  0
  -17.8580   -0.5019  -16.0877 H   0  0  0  0  0  0  0  0  0  0  0  0
  -16.7318   -1.5751  -17.9926 H   0  0  0  0  0  0  0  0  0  0  0  0
  -14.6794   -2.0975  -20.9442 H   0  0  0  0  0  0  0  0  0  0  0  0
  -14.9832   -1.5681  -19.2906 H   0  0  0  0  0  0  0  0  0  0  0  0
  -19.4676    1.0250  -15.2605 H   0  0  0  0  0  0  0  0  0  0  0  0
  -20.4268    1.9748  -16.3747 H   0  0  0  0  0  0  0  0  0  0  0  0
  -18.6727    3.7773  -16.3471 H   0  0  0  0  0  0  0  0  0  0  0  0
  -17.7092    2.7953  -15.2053 H   0  0  0  0  0  0  0  0  0  0  0  0
  -19.3868    4.9747  -11.9582 H   0  0  0  0  0  0  0  0  0  0  0  0
  -20.5422    5.7121  -13.1082 H   0  0  0  0  0  0  0  0  0  0  0  0
  -19.1918    7.4792  -11.9502 H   0  0  0  0  0  0  0  0  0  0  0  0
  -18.8369    7.4377  -13.6926 H   0  0  0  0  0  0  0  0  0  0  0  0
  -17.7026    6.7173  -12.5549 H   0  0  0  0  0  0  0  0  0  0  0  0
  1  2  2  0  0  0  0
  1  6  1  0  0  0  0
  1  7  1  0  0  0  0
  2  3  1  0  0  0  0
  2 18  1  0  0  0  0
  3  4  2  0  0  0  0
  3 19  1  0  0  0  0
  4  5  1  0  0  0  0
  4 11  1  0  0  0  0
  5  6  2  0  0  0  0
  5 20  1  0  0  0  0
  6 21  1  0  0  0  0
  7  8  2  0  0  0  0
  7  9  2  0  0  0  0
  7 10  1  0  0  0  0
 10 22  1  0  0  0  0
 10 23  1  0  0  0  0
 11 12  1  0  0  0  0
 11 24  1  0  0  0  0
 11 25  1  0  0  0  0
 12 13  1  0  0  0  0
 12 26  1  0  0  0  0
 12 27  1  0  0  0  0
 13 14  1  0  0  0  0
 13 15  2  0  0  0  0
 14 16  1  0  0  0  0
 16 17  1  0  0  0  0
 16 28  1  0  0  0  0
 16 29  1  0  0  0  0
 17 30  1  0  0  0  0
 17 31  1  0  0  0  0
 17 32  1  0  0  0  0
M  END
$$$$
