M5P
 OpenBabel04051920483D

 30 30  0  0  1  0  0  0  0  0999 V2000
   34.5263    5.8025  107.6037 C   0  0  0  0  0  0  0  0  0  0  0  0
   35.6165    5.1896  106.9888 C   0  0  0  0  0  0  0  0  0  0  0  0
   36.9172    5.5379  107.3543 C   0  0  0  0  0  0  0  0  0  0  0  0
   37.1252    6.4773  108.3636 C   0  0  0  0  0  0  0  0  0  0  0  0
   36.0416    7.0812  108.9891 C   0  0  0  0  0  0  0  0  0  0  0  0
   34.7245    6.7734  108.5976 C   0  0  0  0  0  0  0  0  0  0  0  0
   33.5531    7.5685  109.1284 C   0  0  0  0  0  0  0  0  0  0  0  0
   33.7213    9.0398  108.7423 C   0  0  0  0  0  0  0  0  0  0  0  0
   32.4278    9.7435  108.3176 C   0  0  0  0  0  0  0  0  0  0  0  0
   32.7684   11.0281  107.5349 C   0  0  1  0  0  0  0  0  0  0  0  0
   31.5106   11.5663  106.8433 C   0  0  0  0  0  0  0  0  0  0  0  0
   31.4105   11.2885  105.6201 O   0  0  0  0  0  0  0  0  0  0  0  0
   30.7149   12.2178  107.5894 O   0  0  0  0  0  0  0  0  0  0  0  0
   33.4061   12.0980  108.4195 C   0  0  0  0  0  0  0  0  0  0  0  0
   35.1959   12.2620  108.0285 S   0  0  0  0  0  0  0  0  0  0  0  0
   33.5193    5.5598  107.2751 H   0  0  0  0  0  0  0  0  0  0  0  0
   35.4494    4.4691  106.1930 H   0  0  0  0  0  0  0  0  0  0  0  0
   37.7610    5.0921  106.8426 H   0  0  0  0  0  0  0  0  0  0  0  0
   38.1405    6.7658  108.6363 H   0  0  0  0  0  0  0  0  0  0  0  0
   36.2164    7.8467  109.7385 H   0  0  0  0  0  0  0  0  0  0  0  0
   33.5017    7.4585  110.2178 H   0  0  0  0  0  0  0  0  0  0  0  0
   32.6139    7.1655  108.7296 H   0  0  0  0  0  0  0  0  0  0  0  0
   34.4319    9.1215  107.9093 H   0  0  0  0  0  0  0  0  0  0  0  0
   34.1755    9.5741  109.5870 H   0  0  0  0  0  0  0  0  0  0  0  0
   31.8139    9.9645  109.2010 H   0  0  0  0  0  0  0  0  0  0  0  0
   31.8295    9.0783  107.6809 H   0  0  0  0  0  0  0  0  0  0  0  0
   33.4455   10.7474  106.7164 H   0  0  0  0  0  0  0  0  0  0  0  0
   33.3371   11.8356  109.4821 H   0  0  0  0  0  0  0  0  0  0  0  0
   32.9541   13.0870  108.3053 H   0  0  0  0  0  0  0  0  0  0  0  0
   35.4639   13.2310  108.9081 H   0  0  0  0  0  0  0  0  0  0  0  0
  1  2  2  0  0  0  0
  1  6  1  0  0  0  0
  1 16  1  0  0  0  0
  2  3  1  0  0  0  0
  2 17  1  0  0  0  0
  3  4  2  0  0  0  0
  3 18  1  0  0  0  0
  4  5  1  0  0  0  0
  4 19  1  0  0  0  0
  5  6  2  0  0  0  0
  5 20  1  0  0  0  0
  6  7  1  0  0  0  0
  7  8  1  0  0  0  0
  7 21  1  0  0  0  0
  7 22  1  0  0  0  0
  8  9  1  0  0  0  0
  8 23  1  0  0  0  0
  8 24  1  0  0  0  0
  9 10  1  0  0  0  0
  9 25  1  0  0  0  0
  9 26  1  0  0  0  0
 10 11  1  0  0  0  0
 10 14  1  0  0  0  0
 10 27  1  6  0  0  0
 11 12  2  0  0  0  0
 11 13  1  0  0  0  0
 14 15  1  0  0  0  0
 14 28  1  0  0  0  0
 14 29  1  0  0  0  0
 15 30  1  0  0  0  0
M  END
$$$$
