MBG
 OpenBabel04051919433D

 27 27  0  0  1  0  0  0  0  0999 V2000
    3.2914   14.6416    7.8603 C   0  0  2  0  0  0  0  0  0  0  0  0
    2.7180   14.4597    9.2828 C   0  0  1  0  0  0  0  0  0  0  0  0
    3.7022   13.6739   10.1440 C   0  0  2  0  0  0  0  0  0  0  0  0
    4.1074   12.3650    9.4714 C   0  0  2  0  0  0  0  0  0  0  0  0
    4.5945   12.6463    8.0394 C   0  0  1  0  0  0  0  0  0  0  0  0
    4.9450   11.3360    7.3175 C   0  0  0  0  0  0  0  0  0  0  0  0
    1.0869   15.3827    7.2136 C   0  0  0  0  0  0  0  0  0  0  0  0
    2.4809   15.4144    6.9642 O   0  0  0  0  0  0  0  0  0  0  0  0
    2.4704   15.7131    9.9371 O   0  0  0  0  0  0  0  0  0  0  0  0
    3.0832   13.4098   11.4152 O   0  0  0  0  0  0  0  0  0  0  0  0
    3.0082   11.4482    9.4696 O   0  0  0  0  0  0  0  0  0  0  0  0
    3.5994   13.3667    7.2840 O   0  0  0  0  0  0  0  0  0  0  0  0
    5.6962   11.5773    6.1257 O   0  0  0  0  0  0  0  0  0  0  0  0
    4.2302   15.2100    7.9205 H   0  0  0  0  0  0  0  0  0  0  0  0
    1.7659   13.9164    9.2440 H   0  0  0  0  0  0  0  0  0  0  0  0
    4.5854   14.2986   10.3315 H   0  0  0  0  0  0  0  0  0  0  0  0
    4.8999   11.8857   10.0579 H   0  0  0  0  0  0  0  0  0  0  0  0
    5.4959   13.2742    8.0771 H   0  0  0  0  0  0  0  0  0  0  0  0
    4.0446   10.7864    7.0282 H   0  0  0  0  0  0  0  0  0  0  0  0
    5.5595   10.6940    7.9579 H   0  0  0  0  0  0  0  0  0  0  0  0
    0.5804   15.9647    6.4401 H   0  0  0  0  0  0  0  0  0  0  0  0
    0.8467   15.8641    8.1664 H   0  0  0  0  0  0  0  0  0  0  0  0
    0.7046   14.3583    7.1968 H   0  0  0  0  0  0  0  0  0  0  0  0
    2.0581   15.4755   10.7882 H   0  0  0  0  0  0  0  0  0  0  0  0
    3.7862   13.1615   12.0348 H   0  0  0  0  0  0  0  0  0  0  0  0
    2.6392   11.4375   10.3737 H   0  0  0  0  0  0  0  0  0  0  0  0
    6.4384   12.1637    6.3441 H   0  0  0  0  0  0  0  0  0  0  0  0
  1  2  1  0  0  0  0
  1  8  1  0  0  0  0
  1 12  1  0  0  0  0
  1 14  1  1  0  0  0
  2  3  1  0  0  0  0
  2  9  1  0  0  0  0
  2 15  1  6  0  0  0
  3  4  1  0  0  0  0
  3 10  1  0  0  0  0
  3 16  1  1  0  0  0
  4  5  1  0  0  0  0
  4 11  1  0  0  0  0
  4 17  1  1  0  0  0
  5  6  1  0  0  0  0
  5 12  1  0  0  0  0
  5 18  1  1  0  0  0
  6 13  1  0  0  0  0
  6 19  1  0  0  0  0
  6 20  1  0  0  0  0
  7  8  1  0  0  0  0
  7 21  1  0  0  0  0
  7 22  1  0  0  0  0
  7 23  1  0  0  0  0
  9 24  1  0  0  0  0
 10 25  1  0  0  0  0
 11 26  1  0  0  0  0
 13 27  1  0  0  0  0
M  END
$$$$
