MCO
 OpenBabel04051917593D

 28 28  0  0  1  0  0  0  0  0999 V2000
   12.4603   27.8329   36.7379 O   0  0  0  0  0  0  0  0  0  0  0  0
   12.2710   28.4255   35.6359 C   0  0  0  0  0  0  0  0  0  0  0  0
   12.4670   29.6532   35.3451 O   0  0  0  0  0  0  0  0  0  0  0  0
   11.5801   27.5729   34.5213 C   0  0  1  0  0  0  0  0  0  0  0  0
   10.1244   27.4911   34.9679 C   0  0  0  0  0  0  0  0  0  0  0  0
    9.2788   28.2016   33.9287 C   0  0  0  0  0  0  0  0  0  0  0  0
   10.1974   28.5812   32.8003 C   0  0  0  0  0  0  0  0  0  0  0  0
   11.5276   28.1385   33.1552 N   0  0  0  0  0  0  0  0  0  0  0  0
   12.6809   28.3298   32.4233 C   0  0  0  0  0  0  0  0  0  0  0  0
   13.7813   27.9384   32.7821 O   0  0  0  0  0  0  0  0  0  0  0  0
   12.5352   28.9830   31.0424 C   0  0  2  0  0  0  0  0  0  0  0  0
   13.1624   28.0518   30.0064 C   0  0  0  0  0  0  0  0  0  0  0  0
   13.2807   30.3085   31.0049 C   0  0  0  0  0  0  0  0  0  0  0  0
   12.4467   31.4765   32.1430 S   0  0  0  0  0  0  0  0  0  0  0  0
   12.0417   26.5785   34.4816 H   0  0  0  0  0  0  0  0  0  0  0  0
    9.9653   27.9705   35.9416 H   0  0  0  0  0  0  0  0  0  0  0  0
    9.7995   26.4463   35.0463 H   0  0  0  0  0  0  0  0  0  0  0  0
    8.8040   29.0955   34.3566 H   0  0  0  0  0  0  0  0  0  0  0  0
    8.4732   27.5472   33.5660 H   0  0  0  0  0  0  0  0  0  0  0  0
   10.1834   29.6593   32.6322 H   0  0  0  0  0  0  0  0  0  0  0  0
    9.9184   28.0681   31.8811 H   0  0  0  0  0  0  0  0  0  0  0  0
   11.4894   29.1489   30.7736 H   0  0  0  0  0  0  0  0  0  0  0  0
   13.1127   28.4957   29.0064 H   0  0  0  0  0  0  0  0  0  0  0  0
   12.6352   27.0941   29.9911 H   0  0  0  0  0  0  0  0  0  0  0  0
   14.2165   27.8553   30.2365 H   0  0  0  0  0  0  0  0  0  0  0  0
   13.2451   30.7310   29.9890 H   0  0  0  0  0  0  0  0  0  0  0  0
   14.3360   30.1848   31.2914 H   0  0  0  0  0  0  0  0  0  0  0  0
   13.2224   32.5577   32.0021 H   0  0  0  0  0  0  0  0  0  0  0  0
  1  2  2  0  0  0  0
  2  3  1  0  0  0  0
  2  4  1  0  0  0  0
  4  5  1  0  0  0  0
  4  8  1  0  0  0  0
  4 15  1  6  0  0  0
  5  6  1  0  0  0  0
  5 16  1  0  0  0  0
  5 17  1  0  0  0  0
  6  7  1  0  0  0  0
  6 18  1  0  0  0  0
  6 19  1  0  0  0  0
  7  8  1  0  0  0  0
  7 20  1  0  0  0  0
  7 21  1  0  0  0  0
  8  9  1  0  0  0  0
  9 10  2  0  0  0  0
  9 11  1  0  0  0  0
 11 12  1  0  0  0  0
 11 13  1  0  0  0  0
 11 22  1  6  0  0  0
 12 23  1  0  0  0  0
 12 24  1  0  0  0  0
 12 25  1  0  0  0  0
 13 14  1  0  0  0  0
 13 26  1  0  0  0  0
 13 27  1  0  0  0  0
 14 28  1  0  0  0  0
M  END
$$$$
