MFU
 OpenBabel04051918233D

 26 26  0  0  1  0  0  0  0  0999 V2000
   12.4155    4.6933   -3.5122 C   0  0  2  0  0  0  0  0  0  0  0  0
   11.0825    4.5102   -2.7494 C   0  0  2  0  0  0  0  0  0  0  0  0
   10.2144    3.4730   -3.4760 C   0  0  1  0  0  0  0  0  0  0  0  0
   11.0098    2.1747   -3.7107 C   0  0  1  0  0  0  0  0  0  0  0  0
   12.3561    2.4838   -4.3960 C   0  0  2  0  0  0  0  0  0  0  0  0
   13.2281    1.2391   -4.5527 C   0  0  0  0  0  0  0  0  0  0  0  0
   12.1551    5.2803   -4.7912 O   0  0  0  0  0  0  0  0  0  0  0  0
   10.3701    5.7571   -2.6421 O   0  0  0  0  0  0  0  0  0  0  0  0
    9.0227    3.2091   -2.7126 O   0  0  0  0  0  0  0  0  0  0  0  0
   11.2076    1.5226   -2.4468 O   0  0  0  0  0  0  0  0  0  0  0  0
   13.1137    3.4508   -3.6519 O   0  0  0  0  0  0  0  0  0  0  0  0
   13.3285    5.7883   -5.4111 C   0  0  0  0  0  0  0  0  0  0  0  0
   13.0479    5.3812   -2.9351 H   0  0  0  0  0  0  0  0  0  0  0  0
   11.2766    4.1613   -1.7278 H   0  0  0  0  0  0  0  0  0  0  0  0
    9.8770    3.8841   -4.4347 H   0  0  0  0  0  0  0  0  0  0  0  0
   10.4166    1.4891   -4.3255 H   0  0  0  0  0  0  0  0  0  0  0  0
   12.1727    2.8825   -5.4005 H   0  0  0  0  0  0  0  0  0  0  0  0
   14.1774    1.4953   -5.0381 H   0  0  0  0  0  0  0  0  0  0  0  0
   12.7215    0.4823   -5.1582 H   0  0  0  0  0  0  0  0  0  0  0  0
   13.4915    0.8000   -3.5859 H   0  0  0  0  0  0  0  0  0  0  0  0
   10.9022    6.3483   -2.0856 H   0  0  0  0  0  0  0  0  0  0  0  0
    8.6041    2.4162   -3.0821 H   0  0  0  0  0  0  0  0  0  0  0  0
   11.6088    0.6523   -2.6062 H   0  0  0  0  0  0  0  0  0  0  0  0
   13.0508    6.1897   -6.3891 H   0  0  0  0  0  0  0  0  0  0  0  0
   14.0673    4.9965   -5.5590 H   0  0  0  0  0  0  0  0  0  0  0  0
   13.7567    6.5965   -4.8117 H   0  0  0  0  0  0  0  0  0  0  0  0
  1  2  1  0  0  0  0
  1  7  1  0  0  0  0
  1 11  1  0  0  0  0
  1 13  1  1  0  0  0
  2  3  1  0  0  0  0
  2  8  1  0  0  0  0
  2 14  1  1  0  0  0
  3  4  1  0  0  0  0
  3  9  1  0  0  0  0
  3 15  1  6  0  0  0
  4  5  1  0  0  0  0
  4 10  1  0  0  0  0
  4 16  1  6  0  0  0
  5  6  1  0  0  0  0
  5 11  1  0  0  0  0
  5 17  1  6  0  0  0
  6 18  1  0  0  0  0
  6 19  1  0  0  0  0
  6 20  1  0  0  0  0
  7 12  1  0  0  0  0
  8 21  1  0  0  0  0
  9 22  1  0  0  0  0
 10 23  1  0  0  0  0
 12 24  1  0  0  0  0
 12 25  1  0  0  0  0
 12 26  1  0  0  0  0
M  END
$$$$
