MFU
 OpenBabel04051918243D

 26 26  0  0  1  0  0  0  0  0999 V2000
  -40.1133   20.3716   11.2622 C   0  0  2  0  0  0  0  0  0  0  0  0
  -38.6625   19.8533   11.4286 C   0  0  2  0  0  0  0  0  0  0  0  0
  -38.0624   20.3640   12.7409 C   0  0  1  0  0  0  0  0  0  0  0  0
  -39.0107   20.0836   13.9214 C   0  0  1  0  0  0  0  0  0  0  0  0
  -40.3949   20.6798   13.6045 C   0  0  2  0  0  0  0  0  0  0  0  0
  -41.3945   20.4948   14.7408 C   0  0  0  0  0  0  0  0  0  0  0  0
  -40.0985   21.7794   10.9952 O   0  0  0  0  0  0  0  0  0  0  0  0
  -37.8254   20.2720   10.3345 O   0  0  0  0  0  0  0  0  0  0  0  0
  -36.7817   19.7470   12.9511 O   0  0  0  0  0  0  0  0  0  0  0  0
  -39.0844   18.6669   14.1348 O   0  0  0  0  0  0  0  0  0  0  0  0
  -40.9274   20.0846   12.4083 O   0  0  0  0  0  0  0  0  0  0  0  0
  -41.3472   22.2319   10.4909 C   0  0  0  0  0  0  0  0  0  0  0  0
  -40.5481   19.8638   10.3939 H   0  0  0  0  0  0  0  0  0  0  0  0
  -38.6610   18.7561   11.4347 H   0  0  0  0  0  0  0  0  0  0  0  0
  -37.8795   21.4429   12.6620 H   0  0  0  0  0  0  0  0  0  0  0  0
  -38.5987   20.5235   14.8347 H   0  0  0  0  0  0  0  0  0  0  0  0
  -40.2985   21.7592   13.4444 H   0  0  0  0  0  0  0  0  0  0  0  0
  -42.3713   20.9110   14.4638 H   0  0  0  0  0  0  0  0  0  0  0  0
  -41.0434   21.0106   15.6409 H   0  0  0  0  0  0  0  0  0  0  0  0
  -41.5618   19.4411   14.9852 H   0  0  0  0  0  0  0  0  0  0  0  0
  -38.1943   19.8856    9.5225 H   0  0  0  0  0  0  0  0  0  0  0  0
  -36.4734   19.9940   13.8359 H   0  0  0  0  0  0  0  0  0  0  0  0
  -39.6415   18.5012   14.9125 H   0  0  0  0  0  0  0  0  0  0  0  0
  -41.2896   23.3146   10.3513 H   0  0  0  0  0  0  0  0  0  0  0  0
  -42.1539   22.0155   11.1972 H   0  0  0  0  0  0  0  0  0  0  0  0
  -41.5566   21.7667    9.5230 H   0  0  0  0  0  0  0  0  0  0  0  0
  1  2  1  0  0  0  0
  1  7  1  0  0  0  0
  1 11  1  0  0  0  0
  1 13  1  6  0  0  0
  2  3  1  0  0  0  0
  2  8  1  0  0  0  0
  2 14  1  1  0  0  0
  3  4  1  0  0  0  0
  3  9  1  0  0  0  0
  3 15  1  6  0  0  0
  4  5  1  0  0  0  0
  4 10  1  0  0  0  0
  4 16  1  1  0  0  0
  5  6  1  0  0  0  0
  5 11  1  0  0  0  0
  5 17  1  6  0  0  0
  6 18  1  0  0  0  0
  6 19  1  0  0  0  0
  6 20  1  0  0  0  0
  7 12  1  0  0  0  0
  8 21  1  0  0  0  0
  9 22  1  0  0  0  0
 10 23  1  0  0  0  0
 12 24  1  0  0  0  0
 12 25  1  0  0  0  0
 12 26  1  0  0  0  0
M  END
$$$$
