MFU
 OpenBabel04051917283D

 26 26  0  0  1  0  0  0  0  0999 V2000
   -2.4298   36.7859   -2.3303 C   0  0  2  0  0  0  0  0  0  0  0  0
   -2.9007   36.6266   -0.8769 C   0  0  2  0  0  0  0  0  0  0  0  0
   -4.3532   37.0922   -0.7891 C   0  0  1  0  0  0  0  0  0  0  0  0
   -5.2173   36.3081   -1.7859 C   0  0  1  0  0  0  0  0  0  0  0  0
   -4.6398   36.5300   -3.1819 C   0  0  2  0  0  0  0  0  0  0  0  0
   -5.3983   35.7707   -4.2515 C   0  0  0  0  0  0  0  0  0  0  0  0
   -2.4206   38.1841   -2.6160 O   0  0  0  0  0  0  0  0  0  0  0  0
   -2.0767   37.3796    0.0181 O   0  0  0  0  0  0  0  0  0  0  0  0
   -4.8427   37.0025    0.5540 O   0  0  0  0  0  0  0  0  0  0  0  0
   -5.1713   34.9020   -1.5272 O   0  0  0  0  0  0  0  0  0  0  0  0
   -3.2800   36.0746   -3.2340 O   0  0  0  0  0  0  0  0  0  0  0  0
   -1.8259   38.4455   -3.8746 C   0  0  0  0  0  0  0  0  0  0  0  0
   -1.4149   36.3825   -2.4372 H   0  0  0  0  0  0  0  0  0  0  0  0
   -2.8402   35.5699   -0.6084 H   0  0  0  0  0  0  0  0  0  0  0  0
   -4.4032   38.1554   -1.0492 H   0  0  0  0  0  0  0  0  0  0  0  0
   -6.2574   36.6466   -1.7382 H   0  0  0  0  0  0  0  0  0  0  0  0
   -4.6911   37.5976   -3.4182 H   0  0  0  0  0  0  0  0  0  0  0  0
   -4.9413   35.9670   -5.2284 H   0  0  0  0  0  0  0  0  0  0  0  0
   -6.4451   36.0851   -4.2771 H   0  0  0  0  0  0  0  0  0  0  0  0
   -5.3492   34.6921   -4.0678 H   0  0  0  0  0  0  0  0  0  0  0  0
   -2.4270   37.2601    0.9200 H   0  0  0  0  0  0  0  0  0  0  0  0
   -4.8282   36.0785    0.8284 H   0  0  0  0  0  0  0  0  0  0  0  0
   -5.5670   34.7374   -0.6374 H   0  0  0  0  0  0  0  0  0  0  0  0
   -1.8399   39.5282   -4.0208 H   0  0  0  0  0  0  0  0  0  0  0  0
   -2.4152   37.9634   -4.6543 H   0  0  0  0  0  0  0  0  0  0  0  0
   -0.8010   38.0816   -3.8747 H   0  0  0  0  0  0  0  0  0  0  0  0
  1  2  1  0  0  0  0
  1  7  1  0  0  0  0
  1 11  1  0  0  0  0
  1 13  1  6  0  0  0
  2  3  1  0  0  0  0
  2  8  1  0  0  0  0
  2 14  1  1  0  0  0
  3  4  1  0  0  0  0
  3  9  1  0  0  0  0
  3 15  1  6  0  0  0
  4  5  1  0  0  0  0
  4 10  1  0  0  0  0
  4 16  1  1  0  0  0
  5  6  1  0  0  0  0
  5 11  1  0  0  0  0
  5 17  1  6  0  0  0
  6 18  1  0  0  0  0
  6 19  1  0  0  0  0
  6 20  1  0  0  0  0
  7 12  1  0  0  0  0
  8 21  1  0  0  0  0
  9 22  1  0  0  0  0
 10 23  1  0  0  0  0
 12 24  1  0  0  0  0
 12 25  1  0  0  0  0
 12 26  1  0  0  0  0
M  END
$$$$
