MFU
 OpenBabel04051918233D

 26 26  0  0  1  0  0  0  0  0999 V2000
  -34.8412    9.0919  -42.3784 C   0  0  2  0  0  0  0  0  0  0  0  0
  -33.7805    8.9003  -41.2942 C   0  0  2  0  0  0  0  0  0  0  0  0
  -33.8612   10.0611  -40.2998 C   0  0  1  0  0  0  0  0  0  0  0  0
  -35.2885   10.2060  -39.7349 C   0  0  1  0  0  0  0  0  0  0  0  0
  -36.3123   10.2696  -40.8926 C   0  0  2  0  0  0  0  0  0  0  0  0
  -37.7578   10.2743  -40.3959 C   0  0  0  0  0  0  0  0  0  0  0  0
  -34.5130   10.2646  -43.1401 O   0  0  0  0  0  0  0  0  0  0  0  0
  -32.4751    8.8596  -41.8995 O   0  0  0  0  0  0  0  0  0  0  0  0
  -32.8959    9.8544  -39.2626 O   0  0  0  0  0  0  0  0  0  0  0  0
  -35.5316    9.1002  -38.8572 O   0  0  0  0  0  0  0  0  0  0  0  0
  -36.1662    9.1787  -41.8181 O   0  0  0  0  0  0  0  0  0  0  0  0
  -35.2129   10.2974  -44.3759 C   0  0  0  0  0  0  0  0  0  0  0  0
  -34.8124    8.2223  -43.0476 H   0  0  0  0  0  0  0  0  0  0  0  0
  -33.9397    7.9469  -40.7745 H   0  0  0  0  0  0  0  0  0  0  0  0
  -33.5828   10.9950  -40.8006 H   0  0  0  0  0  0  0  0  0  0  0  0
  -35.3542   11.1155  -39.1320 H   0  0  0  0  0  0  0  0  0  0  0  0
  -36.1593   11.2026  -41.4477 H   0  0  0  0  0  0  0  0  0  0  0  0
  -38.4534   10.2994  -41.2417 H   0  0  0  0  0  0  0  0  0  0  0  0
  -37.9521   11.1481  -39.7652 H   0  0  0  0  0  0  0  0  0  0  0  0
  -38.0028    9.3724  -39.8251 H   0  0  0  0  0  0  0  0  0  0  0  0
  -32.3485    9.7357  -42.3104 H   0  0  0  0  0  0  0  0  0  0  0  0
  -33.0062   10.5574  -38.6043 H   0  0  0  0  0  0  0  0  0  0  0  0
  -36.3885    9.2258  -38.4256 H   0  0  0  0  0  0  0  0  0  0  0  0
  -34.9182   11.2049  -44.9102 H   0  0  0  0  0  0  0  0  0  0  0  0
  -36.2911   10.3280  -44.2033 H   0  0  0  0  0  0  0  0  0  0  0  0
  -34.9484    9.4357  -44.9958 H   0  0  0  0  0  0  0  0  0  0  0  0
  1  2  1  0  0  0  0
  1  7  1  0  0  0  0
  1 11  1  0  0  0  0
  1 13  1  6  0  0  0
  2  3  1  0  0  0  0
  2  8  1  0  0  0  0
  2 14  1  1  0  0  0
  3  4  1  0  0  0  0
  3  9  1  0  0  0  0
  3 15  1  6  0  0  0
  4  5  1  0  0  0  0
  4 10  1  0  0  0  0
  4 16  1  1  0  0  0
  5  6  1  0  0  0  0
  5 11  1  0  0  0  0
  5 17  1  6  0  0  0
  6 18  1  0  0  0  0
  6 19  1  0  0  0  0
  6 20  1  0  0  0  0
  7 12  1  0  0  0  0
  8 21  1  0  0  0  0
  9 22  1  0  0  0  0
 10 23  1  0  0  0  0
 12 24  1  0  0  0  0
 12 25  1  0  0  0  0
 12 26  1  0  0  0  0
M  END
$$$$
