MGI
 OpenBabel04051920493D

 38 39  0  0  0  0  0  0  0  0999 V2000
   47.1853   28.2521   58.3259 O   0  0  0  0  0  0  0  0  0  0  0  0
   46.8422   29.4381   58.5004 C   0  0  0  0  0  0  0  0  0  0  0  0
   47.7145   30.4590   58.6956 O   0  0  0  0  0  0  0  0  0  0  0  0
   49.1045   30.1082   58.7539 C   0  0  0  0  0  0  0  0  0  0  0  0
   45.3928   29.8382   58.5661 C   0  0  0  0  0  0  0  0  0  0  0  0
   44.4226   28.8067   58.6528 C   0  0  0  0  0  0  0  0  0  0  0  0
   44.7219   27.4711   58.6024 O   0  0  0  0  0  0  0  0  0  0  0  0
   43.0482   29.0682   58.7546 C   0  0  0  0  0  0  0  0  0  0  0  0
   44.9185   31.1726   58.5401 C   0  0  0  0  0  0  0  0  0  0  0  0
   45.8044   32.3811   58.3983 C   0  0  0  0  0  0  0  0  0  0  0  0
   43.5227   31.4086   58.6182 C   0  0  0  0  0  0  0  0  0  0  0  0
   42.5797   30.3735   58.7443 C   0  0  0  0  0  0  0  0  0  0  0  0
   41.2532   30.7625   58.7652 O   0  0  0  0  0  0  0  0  0  0  0  0
   40.2722   29.8520   59.0957 C   0  0  0  0  0  0  0  0  0  0  0  0
   40.2202   29.2459   60.3556 C   0  0  0  0  0  0  0  0  0  0  0  0
   39.2320   29.6209   58.1861 C   0  0  0  0  0  0  0  0  0  0  0  0
   39.1615   30.2654   56.9818 O   0  0  0  0  0  0  0  0  0  0  0  0
   38.1955   28.7418   58.5102 C   0  0  0  0  0  0  0  0  0  0  0  0
   37.2134   28.4375   57.6183 O   0  0  0  0  0  0  0  0  0  0  0  0
   38.1383   28.1515   59.7591 C   0  0  0  0  0  0  0  0  0  0  0  0
   39.1585   28.3802   60.6893 C   0  0  0  0  0  0  0  0  0  0  0  0
   39.0993   27.6896   62.0183 C   0  0  0  0  0  0  0  0  0  0  0  0
   49.6907   31.0361   58.7301 H   0  0  0  0  0  0  0  0  0  0  0  0
   49.4110   29.4957   57.9012 H   0  0  0  0  0  0  0  0  0  0  0  0
   49.3217   29.5984   59.6954 H   0  0  0  0  0  0  0  0  0  0  0  0
   45.6207   27.3627   58.2211 H   0  0  0  0  0  0  0  0  0  0  0  0
   42.3656   28.2261   58.8077 H   0  0  0  0  0  0  0  0  0  0  0  0
   45.2131   33.3010   58.3478 H   0  0  0  0  0  0  0  0  0  0  0  0
   46.3923   32.3334   57.4740 H   0  0  0  0  0  0  0  0  0  0  0  0
   46.4606   32.4823   59.2676 H   0  0  0  0  0  0  0  0  0  0  0  0
   43.1532   32.4330   58.5837 H   0  0  0  0  0  0  0  0  0  0  0  0
   41.0107   29.4400   61.0840 H   0  0  0  0  0  0  0  0  0  0  0  0
   39.4718   31.1743   57.1574 H   0  0  0  0  0  0  0  0  0  0  0  0
   37.6155   28.5678   56.7379 H   0  0  0  0  0  0  0  0  0  0  0  0
   37.3088   27.4941   59.9966 H   0  0  0  0  0  0  0  0  0  0  0  0
   39.9602   27.9458   62.6459 H   0  0  0  0  0  0  0  0  0  0  0  0
   39.1042   26.6062   61.8679 H   0  0  0  0  0  0  0  0  0  0  0  0
   38.1889   27.9730   62.5549 H   0  0  0  0  0  0  0  0  0  0  0  0
  1  2  2  0  0  0  0
  2  3  1  0  0  0  0
  2  5  1  0  0  0  0
  3  4  1  0  0  0  0
  4 23  1  0  0  0  0
  4 24  1  0  0  0  0
  4 25  1  0  0  0  0
  5  6  2  0  0  0  0
  5  9  1  0  0  0  0
  6  7  1  0  0  0  0
  6  8  1  0  0  0  0
  7 26  1  0  0  0  0
  8 12  2  0  0  0  0
  8 27  1  0  0  0  0
  9 10  1  0  0  0  0
  9 11  2  0  0  0  0
 10 28  1  0  0  0  0
 10 29  1  0  0  0  0
 10 30  1  0  0  0  0
 11 12  1  0  0  0  0
 11 31  1  0  0  0  0
 12 13  1  0  0  0  0
 13 14  1  0  0  0  0
 14 15  2  0  0  0  0
 14 16  1  0  0  0  0
 15 21  1  0  0  0  0
 15 32  1  0  0  0  0
 16 17  1  0  0  0  0
 16 18  2  0  0  0  0
 17 33  1  0  0  0  0
 18 19  1  0  0  0  0
 18 20  1  0  0  0  0
 19 34  1  0  0  0  0
 20 21  2  0  0  0  0
 20 35  1  0  0  0  0
 21 22  1  0  0  0  0
 22 36  1  0  0  0  0
 22 37  1  0  0  0  0
 22 38  1  0  0  0  0
M  END
$$$$
