MK1
 OpenBabel04051917213D

 93 97  0  0  1  0  0  0  0  0999 V2000
   22.4324   34.8695   16.1724 N   0  0  0  0  0  0  0  0  0  0  0  0
   21.0932   34.7591   15.5666 C   0  0  0  0  0  0  0  0  0  0  0  0
   20.3121   33.5810   16.1301 C   0  0  1  0  0  0  0  0  0  0  0  0
   18.9801   33.5763   15.4136 C   0  0  0  0  0  0  0  0  0  0  0  0
   18.8721   33.1482   14.2888 O   0  0  0  0  0  0  0  0  0  0  0  0
   17.9503   33.9912   16.2298 N   0  0  0  0  0  0  0  0  0  0  0  0
   16.5738   34.1181   15.8030 C   0  0  0  0  0  0  0  0  0  0  0  0
   15.7918   34.6844   16.9703 C   0  0  0  0  0  0  0  0  0  0  0  0
   16.0124   32.7644   15.4152 C   0  0  0  0  0  0  0  0  0  0  0  0
   16.4718   35.0632   14.6148 C   0  0  0  0  0  0  0  0  0  0  0  0
   21.1003   32.2959   15.8685 N   0  3  1  0  0  0  0  0  0  0  0  0
   22.4969   32.4050   16.4221 C   0  0  0  0  0  0  0  0  0  0  0  0
   23.1905   33.6457   15.8667 C   0  0  0  0  0  0  0  0  0  0  0  0
   20.4287   31.0865   16.4180 C   0  0  0  0  0  0  0  0  0  0  0  0
   20.6080   29.8864   15.4842 C   0  0  1  0  0  0  0  0  0  0  0  0
   20.6254   28.7102   16.2834 O   0  0  0  0  0  0  0  0  0  0  0  0
   19.4704   29.8139   14.4697 C   0  0  0  0  0  0  0  0  0  0  0  0
   19.5715   28.6287   13.5055 C   0  0  1  0  0  0  0  0  0  0  0  0
   18.2654   28.5380   12.6851 C   0  0  0  0  0  0  0  0  0  0  0  0
   18.2819   27.5174   11.5860 C   0  0  0  0  0  0  0  0  0  0  0  0
   18.4163   26.1569   11.8734 C   0  0  0  0  0  0  0  0  0  0  0  0
   18.4531   25.2223   10.8419 C   0  0  0  0  0  0  0  0  0  0  0  0
   18.3718   25.6575    9.5170 C   0  0  0  0  0  0  0  0  0  0  0  0
   18.2387   27.0017    9.2184 C   0  0  0  0  0  0  0  0  0  0  0  0
   18.1795   27.9378   10.2561 C   0  0  0  0  0  0  0  0  0  0  0  0
   20.7299   28.8224   12.5394 C   0  0  0  0  0  0  0  0  0  0  0  0
   20.9587   29.8877   11.9951 O   0  0  0  0  0  0  0  0  0  0  0  0
   21.4141   27.6682   12.2845 N   0  0  0  0  0  0  0  0  0  0  0  0
   22.2850   27.5760   11.1375 C   0  0  2  0  0  0  0  0  0  0  0  0
   22.2188   26.2096   10.4182 C   0  0  2  0  0  0  0  0  0  0  0  0
   22.0875   25.1492   11.3836 O   0  0  0  0  0  0  0  0  0  0  0  0
   23.5618   26.0912    9.6698 C   0  0  0  0  0  0  0  0  0  0  0  0
   24.4948   26.8431   10.5866 C   0  0  0  0  0  0  0  0  0  0  0  0
   25.8816   26.8050   10.6506 C   0  0  0  0  0  0  0  0  0  0  0  0
   26.5384   27.5993   11.6011 C   0  0  0  0  0  0  0  0  0  0  0  0
   25.8130   28.4452   12.4477 C   0  0  0  0  0  0  0  0  0  0  0  0
   24.4132   28.4889   12.3684 C   0  0  0  0  0  0  0  0  0  0  0  0
   23.7644   27.6777   11.4440 C   0  0  0  0  0  0  0  0  0  0  0  0
   23.1367   36.0193   15.5795 C   0  0  0  0  0  0  0  0  0  0  0  0
   22.5536   37.3348   16.0007 C   0  0  0  0  0  0  0  0  0  0  0  0
   22.4458   37.6921   17.3390 C   0  0  0  0  0  0  0  0  0  0  0  0
   21.9166   38.8628   17.7672 N   0  0  0  0  0  0  0  0  0  0  0  0
   21.5185   39.7368   16.8122 C   0  0  0  0  0  0  0  0  0  0  0  0
   21.6076   39.4808   15.4556 C   0  0  0  0  0  0  0  0  0  0  0  0
   22.1083   38.2511   15.0494 C   0  0  0  0  0  0  0  0  0  0  0  0
   21.1853   34.6256   14.4792 H   0  0  0  0  0  0  0  0  0  0  0  0
   20.5158   35.6653   15.7588 H   0  0  0  0  0  0  0  0  0  0  0  0
   20.1795   33.6648   17.2162 H   0  0  0  0  0  0  0  0  0  0  0  0
   18.1696   34.3174   17.1670 H   0  0  0  0  0  0  0  0  0  0  0  0
   14.7308   34.7901   16.7329 H   0  0  0  0  0  0  0  0  0  0  0  0
   16.1978   35.6678   17.2348 H   0  0  0  0  0  0  0  0  0  0  0  0
   15.8994   34.0295   17.8422 H   0  0  0  0  0  0  0  0  0  0  0  0
   14.9724   32.8621   15.0902 H   0  0  0  0  0  0  0  0  0  0  0  0
   16.0639   32.0915   16.2749 H   0  0  0  0  0  0  0  0  0  0  0  0
   16.5883   32.3270   14.5944 H   0  0  0  0  0  0  0  0  0  0  0  0
   15.4369   35.1438   14.2688 H   0  0  0  0  0  0  0  0  0  0  0  0
   17.0811   34.7088   13.7774 H   0  0  0  0  0  0  0  0  0  0  0  0
   16.8342   36.0510   14.9099 H   0  0  0  0  0  0  0  0  0  0  0  0
   23.0269   31.4923   16.1327 H   0  0  0  0  0  0  0  0  0  0  0  0
   22.4066   32.4594   17.5141 H   0  0  0  0  0  0  0  0  0  0  0  0
   24.1850   33.7058   16.3174 H   0  0  0  0  0  0  0  0  0  0  0  0
   23.2962   33.5427   14.7791 H   0  0  0  0  0  0  0  0  0  0  0  0
   19.3692   31.3099   16.5661 H   0  0  0  0  0  0  0  0  0  0  0  0
   20.8742   30.8899   17.4005 H   0  0  0  0  0  0  0  0  0  0  0  0
   21.5753   29.9602   14.9737 H   0  0  0  0  0  0  0  0  0  0  0  0
   19.7728   28.6257   16.7503 H   0  0  0  0  0  0  0  0  0  0  0  0
   19.4455   30.7473   13.8995 H   0  0  0  0  0  0  0  0  0  0  0  0
   18.5286   29.7212   15.0249 H   0  0  0  0  0  0  0  0  0  0  0  0
   19.6989   27.7079   14.0787 H   0  0  0  0  0  0  0  0  0  0  0  0
   18.0424   29.5169   12.2406 H   0  0  0  0  0  0  0  0  0  0  0  0
   17.4311   28.2866   13.3530 H   0  0  0  0  0  0  0  0  0  0  0  0
   18.4934   25.8222   12.9049 H   0  0  0  0  0  0  0  0  0  0  0  0
   18.5445   24.1684   11.0777 H   0  0  0  0  0  0  0  0  0  0  0  0
   18.4076   24.9218    8.7090 H   0  0  0  0  0  0  0  0  0  0  0  0
   18.1777   27.3374    8.1990 H   0  0  0  0  0  0  0  0  0  0  0  0
   18.0571   28.9883   10.0085 H   0  0  0  0  0  0  0  0  0  0  0  0
   21.2930   26.8376   12.8562 H   0  0  0  0  0  0  0  0  0  0  0  0
   22.0149   28.3455   10.4093 H   0  0  0  0  0  0  0  0  0  0  0  0
   21.3607   26.1558    9.7380 H   0  0  0  0  0  0  0  0  0  0  0  0
   22.0704   24.3110   10.8919 H   0  0  0  0  0  0  0  0  0  0  0  0
   23.4941   26.5959    8.6990 H   0  0  0  0  0  0  0  0  0  0  0  0
   23.8500   25.0471    9.5527 H   0  0  0  0  0  0  0  0  0  0  0  0
   26.4795   26.1716   10.0008 H   0  0  0  0  0  0  0  0  0  0  0  0
   27.6234   27.5545   11.6820 H   0  0  0  0  0  0  0  0  0  0  0  0
   26.3422   29.0685   13.1662 H   0  0  0  0  0  0  0  0  0  0  0  0
   23.8650   29.1447   13.0266 H   0  0  0  0  0  0  0  0  0  0  0  0
   23.1035   35.9312   14.4858 H   0  0  0  0  0  0  0  0  0  0  0  0
   24.1907   36.0005   15.8755 H   0  0  0  0  0  0  0  0  0  0  0  0
   22.7898   37.0081   18.1114 H   0  0  0  0  0  0  0  0  0  0  0  0
   21.1060   40.6828   17.1582 H   0  0  0  0  0  0  0  0  0  0  0  0
   21.2989   40.2227   14.7284 H   0  0  0  0  0  0  0  0  0  0  0  0
   22.1558   38.0119   13.9923 H   0  0  0  0  0  0  0  0  0  0  0  0
   21.1498   32.2138   14.8395 H   0  0  0  0  0  0  0  0  0  0  0  0
  1  2  1  0  0  0  0
  1 13  1  0  0  0  0
  1 39  1  0  0  0  0
  2  3  1  0  0  0  0
  2 46  1  0  0  0  0
  2 47  1  0  0  0  0
  3  4  1  0  0  0  0
  3 11  1  0  0  0  0
  3 48  1  1  0  0  0
  4  5  2  0  0  0  0
  4  6  1  0  0  0  0
  6  7  1  0  0  0  0
  6 49  1  0  0  0  0
  7  8  1  0  0  0  0
  7  9  1  0  0  0  0
  7 10  1  0  0  0  0
  8 50  1  0  0  0  0
  8 51  1  0  0  0  0
  8 52  1  0  0  0  0
  9 53  1  0  0  0  0
  9 54  1  0  0  0  0
  9 55  1  0  0  0  0
 10 56  1  0  0  0  0
 10 57  1  0  0  0  0
 10 58  1  0  0  0  0
 11 12  1  0  0  0  0
 11 14  1  0  0  0  0
 11 93  1  6  0  0  0
 12 13  1  0  0  0  0
 12 59  1  0  0  0  0
 12 60  1  0  0  0  0
 13 61  1  0  0  0  0
 13 62  1  0  0  0  0
 14 15  1  0  0  0  0
 14 63  1  0  0  0  0
 14 64  1  0  0  0  0
 15 16  1  0  0  0  0
 15 17  1  0  0  0  0
 15 65  1  6  0  0  0
 16 66  1  0  0  0  0
 17 18  1  0  0  0  0
 17 67  1  0  0  0  0
 17 68  1  0  0  0  0
 18 19  1  0  0  0  0
 18 26  1  0  0  0  0
 18 69  1  1  0  0  0
 19 20  1  0  0  0  0
 19 70  1  0  0  0  0
 19 71  1  0  0  0  0
 20 21  2  0  0  0  0
 20 25  1  0  0  0  0
 21 22  1  0  0  0  0
 21 72  1  0  0  0  0
 22 23  2  0  0  0  0
 22 73  1  0  0  0  0
 23 24  1  0  0  0  0
 23 74  1  0  0  0  0
 24 25  2  0  0  0  0
 24 75  1  0  0  0  0
 25 76  1  0  0  0  0
 26 27  2  0  0  0  0
 26 28  1  0  0  0  0
 28 29  1  0  0  0  0
 28 77  1  0  0  0  0
 29 30  1  0  0  0  0
 29 38  1  0  0  0  0
 29 78  1  6  0  0  0
 30 31  1  0  0  0  0
 30 32  1  0  0  0  0
 30 79  1  6  0  0  0
 31 80  1  0  0  0  0
 32 33  1  0  0  0  0
 32 81  1  0  0  0  0
 32 82  1  0  0  0  0
 33 34  2  0  0  0  0
 33 38  1  0  0  0  0
 34 35  1  0  0  0  0
 34 83  1  0  0  0  0
 35 36  2  0  0  0  0
 35 84  1  0  0  0  0
 36 37  1  0  0  0  0
 36 85  1  0  0  0  0
 37 38  2  0  0  0  0
 37 86  1  0  0  0  0
 39 40  1  0  0  0  0
 39 87  1  0  0  0  0
 39 88  1  0  0  0  0
 40 41  2  0  0  0  0
 40 45  1  0  0  0  0
 41 42  1  0  0  0  0
 41 89  1  0  0  0  0
 42 43  2  0  0  0  0
 43 44  1  0  0  0  0
 43 90  1  0  0  0  0
 44 45  2  0  0  0  0
 44 91  1  0  0  0  0
 45 92  1  0  0  0  0
M  CHG  1  11   1
M  END
$$$$
