MLK
 OpenBabel04051917293D

100107  0  0  1  0  0  0  0  0999 V2000
    1.5775   -0.6623  -13.7119 O   0  0  0  0  0  0  0  0  0  0  0  0
    0.7408   -1.3912  -13.1941 C   0  0  0  0  0  0  0  0  0  0  0  0
   -0.6367   -0.9239  -12.7849 C   0  0  0  0  0  0  0  0  0  0  0  0
   -1.2763   -2.1509  -12.1560 C   0  0  2  0  0  0  0  0  0  0  0  0
   -1.5563   -1.9616  -10.6796 C   0  0  0  0  0  0  0  0  0  0  0  0
   -0.2291   -3.2405  -12.3871 C   0  0  0  0  0  0  0  0  0  0  0  0
   -0.4239   -4.3945  -12.0321 O   0  0  0  0  0  0  0  0  0  0  0  0
    0.8535   -2.7270  -12.9613 N   0  0  0  0  0  0  0  0  0  0  0  0
    1.9204   -3.5282  -13.4355 C   0  0  0  0  0  0  0  0  0  0  0  0
    1.6136   -4.3799  -14.5333 C   0  0  0  0  0  0  0  0  0  0  0  0
    2.6232   -5.1870  -15.0566 C   0  0  0  0  0  0  0  0  0  0  0  0
    3.9057   -5.1685  -14.5006 C   0  0  0  0  0  0  0  0  0  0  0  0
    4.2002   -4.3287  -13.4140 C   0  0  0  0  0  0  0  0  0  0  0  0
    3.2144   -3.4878  -12.8765 C   0  0  0  0  0  0  0  0  0  0  0  0
    3.5366   -2.6053  -11.7026 C   0  0  0  0  0  0  0  0  0  0  0  0
    2.6596   -2.1249  -10.9768 O   0  0  0  0  0  0  0  0  0  0  0  0
    4.8461   -2.3289  -11.5059 O   0  0  0  0  0  0  0  0  0  0  0  0
    5.2294   -1.4079  -10.4217 C   0  0  0  0  0  0  0  0  0  0  0  0
    6.7545   -1.1747  -10.5149 C   0  0  1  0  0  0  0  0  0  0  0  0
    7.4174   -2.5521  -10.3654 C   0  0  0  0  0  0  0  0  0  0  0  0
    8.3065   -2.8854  -11.5380 C   0  0  0  0  0  0  0  0  0  0  0  0
    9.3241   -1.7733  -11.7756 C   0  0  2  0  0  0  0  0  0  0  0  0
   10.2458   -1.6594  -10.6821 O   0  0  0  0  0  0  0  0  0  0  0  0
   11.1073   -2.7979  -10.5449 C   0  0  0  0  0  0  0  0  0  0  0  0
    8.6389   -0.3947  -12.0097 C   0  0  1  0  0  0  0  0  0  0  0  0
    7.0974   -0.5045  -11.8662 C   0  0  2  0  0  0  0  0  0  0  0  0
    8.8754    0.7219  -10.9898 C   0  0  2  0  0  0  0  0  0  0  0  0
    8.6147    0.2128   -9.5847 N   0  3  1  0  0  0  0  0  0  0  0  0
    9.0057    1.2011   -8.5216 C   0  0  0  0  0  0  0  0  0  0  0  0
   10.5007    1.3256   -8.4010 C   0  0  0  0  0  0  0  0  0  0  0  0
    7.2194   -0.2890   -9.3504 C   0  0  0  0  0  0  0  0  0  0  0  0
    9.1241    0.1114  -13.4021 C   0  0  2  0  0  0  0  0  0  0  0  0
   10.6663    0.2403  -13.4637 C   0  0  0  0  0  0  0  0  0  0  0  0
   10.9625    1.6571  -13.9724 C   0  0  2  0  0  0  0  0  0  0  0  0
   11.0569    2.6456  -12.7985 C   0  0  1  0  0  0  0  0  0  0  0  0
   11.9757    3.7046  -13.0906 O   0  0  0  0  0  0  0  0  0  0  0  0
   13.3397    3.3435  -12.9129 C   0  0  0  0  0  0  0  0  0  0  0  0
    9.7117    3.2858  -12.4178 C   0  0  0  0  0  0  0  0  0  0  0  0
    8.6420    1.4863  -13.8968 C   0  0  2  0  0  0  0  0  0  0  0  0
    9.7546    1.9295  -14.8524 C   0  0  1  0  0  0  0  0  0  0  0  0
    9.7128    3.2693  -15.2962 O   0  0  0  0  0  0  0  0  0  0  0  0
    8.6735    3.4890  -16.2387 C   0  0  0  0  0  0  0  0  0  0  0  0
    8.4433    2.4832  -12.7475 C   0  0  2  0  0  0  0  0  0  0  0  0
    7.4424    3.4503  -13.1265 O   0  0  0  0  0  0  0  0  0  0  0  0
    7.8692    1.7867  -11.4953 C   0  0  2  0  0  0  0  0  0  0  0  0
    7.5408    2.7830  -10.5229 O   0  0  0  0  0  0  0  0  0  0  0  0
    6.6041    0.9642  -11.8290 C   0  0  1  0  0  0  0  0  0  0  0  0
    6.0143    1.3456  -13.0608 O   0  0  0  0  0  0  0  0  0  0  0  0
    4.6798    0.8926  -13.2097 C   0  0  0  0  0  0  0  0  0  0  0  0
   -1.2087   -0.6053  -13.6653 H   0  0  0  0  0  0  0  0  0  0  0  0
   -0.5623   -0.0989  -12.0790 H   0  0  0  0  0  0  0  0  0  0  0  0
   -2.2033   -2.4133  -12.6738 H   0  0  0  0  0  0  0  0  0  0  0  0
   -2.0063   -2.8686  -10.2604 H   0  0  0  0  0  0  0  0  0  0  0  0
   -2.2514   -1.1283  -10.5352 H   0  0  0  0  0  0  0  0  0  0  0  0
   -0.6312   -1.7498  -10.1320 H   0  0  0  0  0  0  0  0  0  0  0  0
    0.6138   -4.4108  -14.9842 H   0  0  0  0  0  0  0  0  0  0  0  0
    2.4109   -5.8415  -15.9027 H   0  0  0  0  0  0  0  0  0  0  0  0
    4.6794   -5.8120  -14.9189 H   0  0  0  0  0  0  0  0  0  0  0  0
    5.2039   -4.3406  -12.9970 H   0  0  0  0  0  0  0  0  0  0  0  0
    4.9994   -1.8423   -9.4361 H   0  0  0  0  0  0  0  0  0  0  0  0
    4.6973   -0.4547  -10.5258 H   0  0  0  0  0  0  0  0  0  0  0  0
    6.6452   -3.3247  -10.2708 H   0  0  0  0  0  0  0  0  0  0  0  0
    8.0067   -2.5852   -9.4420 H   0  0  0  0  0  0  0  0  0  0  0  0
    7.6888   -3.0282  -12.4316 H   0  0  0  0  0  0  0  0  0  0  0  0
    8.8130   -3.8291  -11.3365 H   0  0  0  0  0  0  0  0  0  0  0  0
    9.8790   -2.0401  -12.6818 H   0  0  0  0  0  0  0  0  0  0  0  0
   11.7787   -2.6205   -9.6994 H   0  0  0  0  0  0  0  0  0  0  0  0
   11.7015   -2.9507  -11.4509 H   0  0  0  0  0  0  0  0  0  0  0  0
   10.5239   -3.6958  -10.3274 H   0  0  0  0  0  0  0  0  0  0  0  0
    6.6643   -1.0318  -12.7020 H   0  0  0  0  0  0  0  0  0  0  0  0
    9.8919    1.0866  -11.0071 H   0  0  0  0  0  0  0  0  0  0  0  0
    8.5838    0.8484   -7.5804 H   0  0  0  0  0  0  0  0  0  0  0  0
    8.5702    2.1602   -8.7734 H   0  0  0  0  0  0  0  0  0  0  0  0
   10.7327    2.0558   -7.6201 H   0  0  0  0  0  0  0  0  0  0  0  0
   10.9433    1.6759   -9.3361 H   0  0  0  0  0  0  0  0  0  0  0  0
   10.9491    0.3655   -8.1313 H   0  0  0  0  0  0  0  0  0  0  0  0
    7.2292   -0.8529   -8.4154 H   0  0  0  0  0  0  0  0  0  0  0  0
    6.5819    0.5883   -9.2314 H   0  0  0  0  0  0  0  0  0  0  0  0
    8.8038   -0.6437  -14.1314 H   0  0  0  0  0  0  0  0  0  0  0  0
   11.0689   -0.4978  -14.1689 H   0  0  0  0  0  0  0  0  0  0  0  0
   11.1321    0.0650  -12.4897 H   0  0  0  0  0  0  0  0  0  0  0  0
   11.8886    1.6792  -14.5464 H   0  0  0  0  0  0  0  0  0  0  0  0
   11.4413    2.1152  -11.9212 H   0  0  0  0  0  0  0  0  0  0  0  0
   13.9765    4.1992  -13.1631 H   0  0  0  0  0  0  0  0  0  0  0  0
   13.6092    2.5062  -13.5603 H   0  0  0  0  0  0  0  0  0  0  0  0
   13.5131    3.0702  -11.8684 H   0  0  0  0  0  0  0  0  0  0  0  0
    9.6331    4.2617  -12.9097 H   0  0  0  0  0  0  0  0  0  0  0  0
    9.7335    3.4827  -11.3377 H   0  0  0  0  0  0  0  0  0  0  0  0
    7.7178    1.3676  -14.4626 H   0  0  0  0  0  0  0  0  0  0  0  0
    9.7830    1.2697  -15.7234 H   0  0  0  0  0  0  0  0  0  0  0  0
    8.6855    4.5335  -16.5637 H   0  0  0  0  0  0  0  0  0  0  0  0
    7.7059    3.2723  -15.7827 H   0  0  0  0  0  0  0  0  0  0  0  0
    8.8225    2.8441  -17.1093 H   0  0  0  0  0  0  0  0  0  0  0  0
    6.6203    2.9475  -13.3334 H   0  0  0  0  0  0  0  0  0  0  0  0
    6.9065    3.4042  -10.9520 H   0  0  0  0  0  0  0  0  0  0  0  0
    5.8598    1.1339  -11.0525 H   0  0  0  0  0  0  0  0  0  0  0  0
    4.3081    1.2143  -14.1844 H   0  0  0  0  0  0  0  0  0  0  0  0
    4.0722    1.3357  -12.4218 H   0  0  0  0  0  0  0  0  0  0  0  0
    4.6479   -0.1932  -13.1514 H   0  0  0  0  0  0  0  0  0  0  0  0
    9.2565   -0.5988   -9.4796 H   0  0  0  0  0  0  0  0  0  0  0  0
  1  2  2  0  0  0  0
  2  3  1  0  0  0  0
  2  8  1  0  0  0  0
  3  4  1  0  0  0  0
  3 50  1  0  0  0  0
  3 51  1  0  0  0  0
  4  5  1  0  0  0  0
  4  6  1  0  0  0  0
  4 52  1  6  0  0  0
  5 53  1  0  0  0  0
  5 54  1  0  0  0  0
  5 55  1  0  0  0  0
  6  7  2  0  0  0  0
  6  8  1  0  0  0  0
  8  9  1  0  0  0  0
  9 10  2  0  0  0  0
  9 14  1  0  0  0  0
 10 11  1  0  0  0  0
 10 56  1  0  0  0  0
 11 12  2  0  0  0  0
 11 57  1  0  0  0  0
 12 13  1  0  0  0  0
 12 58  1  0  0  0  0
 13 14  2  0  0  0  0
 13 59  1  0  0  0  0
 14 15  1  0  0  0  0
 15 16  2  0  0  0  0
 15 17  1  0  0  0  0
 17 18  1  0  0  0  0
 18 60  1  0  0  0  0
 18 61  1  0  0  0  0
 19 18  1  1  0  0  0
 19 20  1  0  0  0  0
 19 26  1  0  0  0  0
 19 31  1  0  0  0  0
 20 21  1  0  0  0  0
 20 62  1  0  0  0  0
 20 63  1  0  0  0  0
 21 22  1  0  0  0  0
 21 64  1  0  0  0  0
 21 65  1  0  0  0  0
 22 23  1  0  0  0  0
 22 66  1  6  0  0  0
 23 24  1  0  0  0  0
 24 67  1  0  0  0  0
 24 68  1  0  0  0  0
 24 69  1  0  0  0  0
 25 22  1  1  0  0  0
 25 26  1  0  0  0  0
 25 27  1  0  0  0  0
 25 32  1  0  0  0  0
 26 47  1  0  0  0  0
 26 70  1  6  0  0  0
 27 28  1  0  0  0  0
 27 45  1  0  0  0  0
 27 71  1  6  0  0  0
 28 29  1  0  0  0  0
 28 31  1  0  0  0  0
 28100  1  1  0  0  0
 29 30  1  0  0  0  0
 29 72  1  0  0  0  0
 29 73  1  0  0  0  0
 30 74  1  0  0  0  0
 30 75  1  0  0  0  0
 30 76  1  0  0  0  0
 31 77  1  0  0  0  0
 31 78  1  0  0  0  0
 32 33  1  0  0  0  0
 32 39  1  0  0  0  0
 32 79  1  6  0  0  0
 33 34  1  0  0  0  0
 33 80  1  0  0  0  0
 33 81  1  0  0  0  0
 34 35  1  0  0  0  0
 34 40  1  0  0  0  0
 34 82  1  6  0  0  0
 35 36  1  0  0  0  0
 35 38  1  0  0  0  0
 35 83  1  1  0  0  0
 36 37  1  0  0  0  0
 37 84  1  0  0  0  0
 37 85  1  0  0  0  0
 37 86  1  0  0  0  0
 38 43  1  0  0  0  0
 38 87  1  0  0  0  0
 38 88  1  0  0  0  0
 39 40  1  0  0  0  0
 39 43  1  0  0  0  0
 39 89  1  6  0  0  0
 40 41  1  0  0  0  0
 40 90  1  6  0  0  0
 41 42  1  0  0  0  0
 42 91  1  0  0  0  0
 42 92  1  0  0  0  0
 42 93  1  0  0  0  0
 43 44  1  6  0  0  0
 43 45  1  0  0  0  0
 44 94  1  0  0  0  0
 45 46  1  1  0  0  0
 45 47  1  0  0  0  0
 46 95  1  0  0  0  0
 47 48  1  0  0  0  0
 47 96  1  1  0  0  0
 48 49  1  0  0  0  0
 49 97  1  0  0  0  0
 49 98  1  0  0  0  0
 49 99  1  0  0  0  0
M  CHG  1  28   1
M  END
$$$$
