MLR
 OpenBabel04051918023D

 66 68  0  0  1  0  0  0  0  0999 V2000
   21.9303   19.4737   18.1001 C   0  0  1  0  0  0  0  0  0  0  0  0
   21.2246   18.1501   17.7585 C   0  0  1  0  0  0  0  0  0  0  0  0
   21.2280   17.2582   19.0090 C   0  0  2  0  0  0  0  0  0  0  0  0
   22.6810   17.0528   19.4738 C   0  0  1  0  0  0  0  0  0  0  0  0
   23.3617   18.4099   19.7056 C   0  0  1  0  0  0  0  0  0  0  0  0
   24.8583   18.2012   20.0106 C   0  0  0  0  0  0  0  0  0  0  0  0
   21.1813   20.1730   19.0880 O   0  0  0  0  0  0  0  0  0  0  0  0
   19.8900   18.4043   17.2871 O   0  0  0  0  0  0  0  0  0  0  0  0
   20.6186   15.9959   18.7050 O   0  0  0  0  0  0  0  0  0  0  0  0
   22.6633   16.3408   20.7150 O   0  0  0  0  0  0  0  0  0  0  0  0
   23.2551   19.2615   18.5546 O   0  0  0  0  0  0  0  0  0  0  0  0
   25.5253   19.4438   20.2335 O   0  0  0  0  0  0  0  0  0  0  0  0
   23.3253   15.0739   20.6815 C   0  0  2  0  0  0  0  0  0  0  0  0
   22.3790   14.0288   21.2780 C   0  0  1  0  0  0  0  0  0  0  0  0
   22.1231   14.3442   22.7496 C   0  0  2  0  0  0  0  0  0  0  0  0
   23.4580   14.4714   23.5014 C   0  0  1  0  0  0  0  0  0  0  0  0
   24.3703   15.4865   22.7941 C   0  0  1  0  0  0  0  0  0  0  0  0
   25.7519   15.5191   23.4715 C   0  0  0  0  0  0  0  0  0  0  0  0
   21.1237   14.0217   20.5589 O   0  0  0  0  0  0  0  0  0  0  0  0
   21.3234   13.2905   23.3143 O   0  0  0  0  0  0  0  0  0  0  0  0
   23.1866   14.9363   24.8303 O   0  0  0  0  0  0  0  0  0  0  0  0
   24.5487   15.1321   21.4112 O   0  0  0  0  0  0  0  0  0  0  0  0
   26.4102   16.7609   23.2463 O   0  0  0  0  0  0  0  0  0  0  0  0
   23.4360   13.9705   25.8504 C   0  0  2  0  0  0  0  0  0  0  0  0
   22.2699   13.9917   26.8456 C   0  0  1  0  0  0  0  0  0  0  0  0
   22.2293   15.3395   27.5661 C   0  0  2  0  0  0  0  0  0  0  0  0
   23.5956   15.6298   28.2190 C   0  0  1  0  0  0  0  0  0  0  0  0
   24.7183   15.5183   27.1750 C   0  0  1  0  0  0  0  0  0  0  0  0
   26.1091   15.6632   27.8189 C   0  0  0  0  0  0  0  0  0  0  0  0
   21.0279   13.7370   26.1669 O   0  0  0  0  0  0  0  0  0  0  0  0
   21.1652   15.3017   28.5308 O   0  0  0  0  0  0  0  0  0  0  0  0
   23.5974   16.9204   28.8300 O   0  0  0  0  0  0  0  0  0  0  0  0
   24.6820   14.2423   26.4963 O   0  0  0  0  0  0  0  0  0  0  0  0
   27.0818   15.9845   26.8188 O   0  0  0  0  0  0  0  0  0  0  0  0
   21.9679   20.1006   17.2053 H   0  0  0  0  0  0  0  0  0  0  0  0
   21.7554   17.6382   16.9472 H   0  0  0  0  0  0  0  0  0  0  0  0
   20.6189   17.7025   19.8071 H   0  0  0  0  0  0  0  0  0  0  0  0
   23.2099   16.5001   18.6878 H   0  0  0  0  0  0  0  0  0  0  0  0
   22.9136   18.9197   20.5673 H   0  0  0  0  0  0  0  0  0  0  0  0
   25.3558   17.7104   19.1692 H   0  0  0  0  0  0  0  0  0  0  0  0
   25.0067   17.5895   20.9012 H   0  0  0  0  0  0  0  0  0  0  0  0
   21.5591   21.0694   19.0926 H   0  0  0  0  0  0  0  0  0  0  0  0
   19.4175   18.8245   18.0297 H   0  0  0  0  0  0  0  0  0  0  0  0
   20.6624   15.4441   19.5172 H   0  0  0  0  0  0  0  0  0  0  0  0
   25.1320   19.8380   21.0291 H   0  0  0  0  0  0  0  0  0  0  0  0
   23.5684   14.7751   19.6551 H   0  0  0  0  0  0  0  0  0  0  0  0
   22.8095   13.0263   21.1765 H   0  0  0  0  0  0  0  0  0  0  0  0
   21.5251   15.2594   22.8516 H   0  0  0  0  0  0  0  0  0  0  0  0
   23.9513   13.4897   23.5119 H   0  0  0  0  0  0  0  0  0  0  0  0
   23.9372   16.4954   22.8593 H   0  0  0  0  0  0  0  0  0  0  0  0
   26.3951   14.7197   23.0834 H   0  0  0  0  0  0  0  0  0  0  0  0
   25.6656   15.4073   24.5450 H   0  0  0  0  0  0  0  0  0  0  0  0
   20.5515   13.4277   21.0622 H   0  0  0  0  0  0  0  0  0  0  0  0
   21.1132   13.5592   24.2375 H   0  0  0  0  0  0  0  0  0  0  0  0
   27.2409   16.7396   23.7458 H   0  0  0  0  0  0  0  0  0  0  0  0
   23.4902   12.9610   25.4284 H   0  0  0  0  0  0  0  0  0  0  0  0
   22.3994   13.1929   27.5849 H   0  0  0  0  0  0  0  0  0  0  0  0
   21.9613   16.1471   26.8744 H   0  0  0  0  0  0  0  0  0  0  0  0
   23.7633   14.9046   29.0235 H   0  0  0  0  0  0  0  0  0  0  0  0
   24.6129   16.3167   26.4291 H   0  0  0  0  0  0  0  0  0  0  0  0
   26.4270   14.7258   28.2873 H   0  0  0  0  0  0  0  0  0  0  0  0
   26.1373   16.4596   28.5669 H   0  0  0  0  0  0  0  0  0  0  0  0
   20.3259   13.9215   26.8264 H   0  0  0  0  0  0  0  0  0  0  0  0
   21.4467   14.7497   29.2822 H   0  0  0  0  0  0  0  0  0  0  0  0
   23.3679   17.5872   28.1568 H   0  0  0  0  0  0  0  0  0  0  0  0
   27.0815   15.2479   26.1889 H   0  0  0  0  0  0  0  0  0  0  0  0
  1  2  1  0  0  0  0
  1  7  1  0  0  0  0
  1 11  1  0  0  0  0
  1 35  1  6  0  0  0
  2  3  1  0  0  0  0
  2  8  1  0  0  0  0
  2 36  1  6  0  0  0
  3  4  1  0  0  0  0
  3  9  1  0  0  0  0
  3 37  1  1  0  0  0
  4  5  1  0  0  0  0
  4 10  1  0  0  0  0
  4 38  1  6  0  0  0
  5  6  1  0  0  0  0
  5 11  1  0  0  0  0
  5 39  1  1  0  0  0
  6 12  1  0  0  0  0
  6 40  1  0  0  0  0
  6 41  1  0  0  0  0
  7 42  1  0  0  0  0
  8 43  1  0  0  0  0
  9 44  1  0  0  0  0
 10 13  1  0  0  0  0
 12 45  1  0  0  0  0
 13 14  1  0  0  0  0
 13 22  1  0  0  0  0
 13 46  1  6  0  0  0
 14 15  1  0  0  0  0
 14 19  1  0  0  0  0
 14 47  1  6  0  0  0
 15 16  1  0  0  0  0
 15 20  1  0  0  0  0
 15 48  1  1  0  0  0
 16 17  1  0  0  0  0
 16 21  1  0  0  0  0
 16 49  1  1  0  0  0
 17 18  1  0  0  0  0
 17 22  1  0  0  0  0
 17 50  1  1  0  0  0
 18 23  1  0  0  0  0
 18 51  1  0  0  0  0
 18 52  1  0  0  0  0
 19 53  1  0  0  0  0
 20 54  1  0  0  0  0
 21 24  1  0  0  0  0
 23 55  1  0  0  0  0
 24 25  1  0  0  0  0
 24 33  1  0  0  0  0
 24 56  1  6  0  0  0
 25 26  1  0  0  0  0
 25 30  1  0  0  0  0
 25 57  1  1  0  0  0
 26 27  1  0  0  0  0
 26 31  1  0  0  0  0
 26 58  1  6  0  0  0
 27 28  1  0  0  0  0
 27 32  1  0  0  0  0
 27 59  1  1  0  0  0
 28 29  1  0  0  0  0
 28 33  1  0  0  0  0
 28 60  1  6  0  0  0
 29 34  1  0  0  0  0
 29 61  1  0  0  0  0
 29 62  1  0  0  0  0
 30 63  1  0  0  0  0
 31 64  1  0  0  0  0
 32 65  1  0  0  0  0
 34 66  1  0  0  0  0
M  END
$$$$
