MLY
 OpenBabel04051919173D

 31 30  0  0  1  0  0  0  0  0999 V2000
  -27.4347  -20.9986  -15.7015 N   0  3  0  0  0  0  0  0  0  0  0  0
  -27.1396  -20.7610  -17.1589 C   0  0  1  0  0  0  0  0  0  0  0  0
  -25.8546  -19.9408  -17.2490 C   0  0  0  0  0  0  0  0  0  0  0  0
  -25.6386  -19.4696  -18.6825 C   0  0  0  0  0  0  0  0  0  0  0  0
  -24.5778  -18.3819  -18.7724 C   0  0  0  0  0  0  0  0  0  0  0  0
  -24.1237  -18.2749  -20.2241 C   0  0  0  0  0  0  0  0  0  0  0  0
  -23.1962  -17.1095  -20.3968 N   0  3  0  0  0  0  0  0  0  0  0  0
  -22.9670  -16.8247  -21.8572 C   0  0  0  0  0  0  0  0  0  0  0  0
  -21.8834  -17.3124  -19.6869 C   0  0  0  0  0  0  0  0  0  0  0  0
  -26.9418  -22.0832  -17.9641 C   0  0  0  0  0  0  0  0  0  0  0  0
  -26.2247  -22.9083  -17.3359 O   0  0  0  0  0  0  0  0  0  0  0  0
  -27.5609  -22.1357  -19.0541 O   0  0  0  0  0  0  0  0  0  0  0  0
  -28.2716  -21.5927  -15.6500 H   0  0  0  0  0  0  0  0  0  0  0  0
  -26.6682  -21.5842  -15.3343 H   0  0  0  0  0  0  0  0  0  0  0  0
  -27.9941  -20.1982  -17.5513 H   0  0  0  0  0  0  0  0  0  0  0  0
  -24.9847  -20.5319  -16.9275 H   0  0  0  0  0  0  0  0  0  0  0  0
  -25.9119  -19.0794  -16.5754 H   0  0  0  0  0  0  0  0  0  0  0  0
  -26.5763  -19.0882  -19.0982 H   0  0  0  0  0  0  0  0  0  0  0  0
  -25.3381  -20.3304  -19.2971 H   0  0  0  0  0  0  0  0  0  0  0  0
  -23.7430  -18.6380  -18.1208 H   0  0  0  0  0  0  0  0  0  0  0  0
  -25.0012  -17.4350  -18.4305 H   0  0  0  0  0  0  0  0  0  0  0  0
  -24.9789  -18.1151  -20.8915 H   0  0  0  0  0  0  0  0  0  0  0  0
  -23.5823  -19.1765  -20.5428 H   0  0  0  0  0  0  0  0  0  0  0  0
  -22.3319  -15.9393  -21.9369 H   0  0  0  0  0  0  0  0  0  0  0  0
  -23.9401  -16.6294  -22.3182 H   0  0  0  0  0  0  0  0  0  0  0  0
  -22.4897  -17.6990  -22.3026 H   0  0  0  0  0  0  0  0  0  0  0  0
  -22.0727  -17.4455  -18.6186 H   0  0  0  0  0  0  0  0  0  0  0  0
  -21.2710  -16.4192  -19.8319 H   0  0  0  0  0  0  0  0  0  0  0  0
  -21.4002  -18.1975  -20.1096 H   0  0  0  0  0  0  0  0  0  0  0  0
  -27.5621  -20.1428  -15.1639 H   0  0  0  0  0  0  0  0  0  0  0  0
  -23.6473  -16.2657  -19.9964 H   0  0  0  0  0  0  0  0  0  0  0  0
  1  2  1  0  0  0  0
  1 13  1  0  0  0  0
  1 14  1  0  0  0  0
  1 30  1  0  0  0  0
  2  3  1  0  0  0  0
  2 10  1  0  0  0  0
  2 15  1  6  0  0  0
  3  4  1  0  0  0  0
  3 16  1  0  0  0  0
  3 17  1  0  0  0  0
  4  5  1  0  0  0  0
  4 18  1  0  0  0  0
  4 19  1  0  0  0  0
  5  6  1  0  0  0  0
  5 20  1  0  0  0  0
  5 21  1  0  0  0  0
  6  7  1  0  0  0  0
  6 22  1  0  0  0  0
  6 23  1  0  0  0  0
  7  8  1  0  0  0  0
  7  9  1  0  0  0  0
  7 31  1  0  0  0  0
  8 24  1  0  0  0  0
  8 25  1  0  0  0  0
  8 26  1  0  0  0  0
  9 27  1  0  0  0  0
  9 28  1  0  0  0  0
  9 29  1  0  0  0  0
 10 11  2  0  0  0  0
 10 12  1  0  0  0  0
M  CHG  2   1   1   7   1
M  END
$$$$
