MNA
 OpenBabel04051918433D

 42 42  0  0  1  0  0  0  0  0999 V2000
   44.3559   10.2016   18.3077 C   0  0  0  0  0  0  0  0  0  0  0  0
   44.2384   11.4048   19.3659 C   0  0  2  0  0  0  0  0  0  0  0  0
   45.2888   12.4818   19.0745 C   0  0  0  0  0  0  0  0  0  0  0  0
   44.9372   13.3634   17.8838 C   0  0  1  0  0  0  0  0  0  0  0  0
   43.5045   13.9160   17.9891 C   0  0  2  0  0  0  0  0  0  0  0  0
   42.5764   12.7190   18.1838 C   0  0  2  0  0  0  0  0  0  0  0  0
   41.0818   13.0542   18.3081 C   0  0  1  0  0  0  0  0  0  0  0  0
   40.2290   11.7721   18.4100 C   0  0  1  0  0  0  0  0  0  0  0  0
   38.7793   12.0832   18.0225 C   0  0  0  0  0  0  0  0  0  0  0  0
   42.4304   15.8023   16.7586 C   0  0  0  0  0  0  0  0  0  0  0  0
   42.0997   16.3428   15.4150 C   0  0  0  0  0  0  0  0  0  0  0  0
   43.7190    9.8180   21.0937 C   0  0  0  0  0  0  0  0  0  0  0  0
   43.2160   14.6798   16.7515 N   0  0  0  0  0  0  0  0  0  0  0  0
   45.5117    9.7166   18.1354 O   0  0  0  0  0  0  0  0  0  0  0  0
   43.2649    9.8694   17.7508 O   0  0  0  0  0  0  0  0  0  0  0  0
   44.5260   10.9229   20.7076 O   0  0  0  0  0  0  0  0  0  0  0  0
   45.8888   14.4362   17.7987 O   0  0  0  0  0  0  0  0  0  0  0  0
   42.9212   12.0049   19.3848 O   0  0  0  0  0  0  0  0  0  0  0  0
   40.8240   13.8551   19.4722 O   0  0  0  0  0  0  0  0  0  0  0  0
   40.6934   10.7488   17.5254 O   0  0  0  0  0  0  0  0  0  0  0  0
   37.9635   10.9371   18.2842 O   0  0  0  0  0  0  0  0  0  0  0  0
   42.0127   16.3271   17.7976 O   0  0  0  0  0  0  0  0  0  0  0  0
   46.2789   12.0408   18.9093 H   0  0  0  0  0  0  0  0  0  0  0  0
   45.4108   13.1206   19.9588 H   0  0  0  0  0  0  0  0  0  0  0  0
   45.0383   12.7836   16.9568 H   0  0  0  0  0  0  0  0  0  0  0  0
   43.4297   14.5870   18.8481 H   0  0  0  0  0  0  0  0  0  0  0  0
   42.6923   12.0847   17.2956 H   0  0  0  0  0  0  0  0  0  0  0  0
   40.7677   13.6282   17.4307 H   0  0  0  0  0  0  0  0  0  0  0  0
   40.2301   11.3814   19.4366 H   0  0  0  0  0  0  0  0  0  0  0  0
   38.7127   12.3218   16.9525 H   0  0  0  0  0  0  0  0  0  0  0  0
   38.3769   12.9225   18.5987 H   0  0  0  0  0  0  0  0  0  0  0  0
   41.4788   17.2446   15.5389 H   0  0  0  0  0  0  0  0  0  0  0  0
   41.5285   15.6076   14.8411 H   0  0  0  0  0  0  0  0  0  0  0  0
   43.0192   16.6236   14.8909 H   0  0  0  0  0  0  0  0  0  0  0  0
   44.0026    9.5488   22.1149 H   0  0  0  0  0  0  0  0  0  0  0  0
   43.8932    8.9397   20.4653 H   0  0  0  0  0  0  0  0  0  0  0  0
   42.6564   10.0791   21.0944 H   0  0  0  0  0  0  0  0  0  0  0  0
   43.4921   14.2779   15.8748 H   0  0  0  0  0  0  0  0  0  0  0  0
   45.6342   14.9751   17.0297 H   0  0  0  0  0  0  0  0  0  0  0  0
   41.1662   13.3348   20.2262 H   0  0  0  0  0  0  0  0  0  0  0  0
   41.5933   10.4390   17.8150 H   0  0  0  0  0  0  0  0  0  0  0  0
   37.0727   11.1319   17.9652 H   0  0  0  0  0  0  0  0  0  0  0  0
  1 14  2  0  0  0  0
  1 15  1  0  0  0  0
  2  1  1  6  0  0  0
  2  3  1  0  0  0  0
  2 16  1  0  0  0  0
  2 18  1  0  0  0  0
  3  4  1  0  0  0  0
  3 23  1  0  0  0  0
  3 24  1  0  0  0  0
  4  5  1  0  0  0  0
  4 17  1  0  0  0  0
  4 25  1  6  0  0  0
  5  6  1  0  0  0  0
  5 13  1  0  0  0  0
  5 26  1  1  0  0  0
  6  7  1  0  0  0  0
  6 18  1  0  0  0  0
  6 27  1  6  0  0  0
  7  8  1  0  0  0  0
  7 19  1  0  0  0  0
  7 28  1  6  0  0  0
  8  9  1  0  0  0  0
  8 20  1  0  0  0  0
  8 29  1  1  0  0  0
  9 21  1  0  0  0  0
  9 30  1  0  0  0  0
  9 31  1  0  0  0  0
 10 11  1  0  0  0  0
 10 13  1  0  0  0  0
 10 22  2  0  0  0  0
 11 32  1  0  0  0  0
 11 33  1  0  0  0  0
 11 34  1  0  0  0  0
 12 16  1  0  0  0  0
 12 35  1  0  0  0  0
 12 36  1  0  0  0  0
 12 37  1  0  0  0  0
 13 38  1  0  0  0  0
 17 39  1  0  0  0  0
 19 40  1  0  0  0  0
 20 41  1  0  0  0  0
 21 42  1  0  0  0  0
M  END
$$$$
