MNI
 OpenBabel04051918423D

 46 47  0  0  1  0  0  0  0  0999 V2000
   25.3569   58.5674  -32.6630 O   0  0  0  0  0  0  0  0  0  0  0  0
   24.7343   57.5757  -32.2984 C   0  0  0  0  0  0  0  0  0  0  0  0
   24.8150   56.3194  -33.0858 C   0  0  0  0  0  0  0  0  0  0  0  0
   24.1095   55.1612  -32.7697 C   0  0  0  0  0  0  0  0  0  0  0  0
   24.2675   54.0094  -33.5519 C   0  0  0  0  0  0  0  0  0  0  0  0
   25.1072   53.9560  -34.6750 C   0  0  0  0  0  0  0  0  0  0  0  0
   25.2586   52.8220  -35.4422 N   0  0  0  0  0  0  0  0  0  0  0  0
   26.1503   52.8142  -36.6085 C   0  0  0  0  0  0  0  0  0  0  0  0
   24.5839   51.5600  -35.1560 C   0  0  0  0  0  0  0  0  0  0  0  0
   25.7965   55.1533  -34.9790 C   0  0  0  0  0  0  0  0  0  0  0  0
   25.6541   56.3046  -34.2032 C   0  0  0  0  0  0  0  0  0  0  0  0
   23.9573   57.5936  -31.1482 N   0  0  0  0  0  0  0  0  0  0  0  0
   23.6692   58.8810  -30.5226 C   0  0  0  0  0  0  0  0  0  0  0  0
   24.1869   59.0046  -29.0896 C   0  0  1  0  0  0  0  0  0  0  0  0
   23.7557   57.8339  -28.2437 N   0  3  0  0  0  0  0  0  0  0  0  0
   24.9483   57.4143  -27.4122 C   0  0  2  0  0  0  0  0  0  0  0  0
   24.4987   57.0873  -25.9893 C   0  0  0  0  0  0  0  0  0  0  0  0
   23.3896   56.1915  -26.0805 O   0  0  0  0  0  0  0  0  0  0  0  0
   25.9253   58.5790  -27.5183 C   0  0  1  0  0  0  0  0  0  0  0  0
   27.2573   58.1557  -27.2893 O   0  0  0  0  0  0  0  0  0  0  0  0
   25.7171   59.0322  -28.9620 C   0  0  2  0  0  0  0  0  0  0  0  0
   26.2180   60.3501  -29.1237 O   0  0  0  0  0  0  0  0  0  0  0  0
   23.4208   55.0935  -31.9410 H   0  0  0  0  0  0  0  0  0  0  0  0
   23.6893   53.1501  -33.2338 H   0  0  0  0  0  0  0  0  0  0  0  0
   26.1604   51.8371  -37.1020 H   0  0  0  0  0  0  0  0  0  0  0  0
   27.1836   53.0330  -36.3064 H   0  0  0  0  0  0  0  0  0  0  0  0
   25.8241   53.5508  -37.3475 H   0  0  0  0  0  0  0  0  0  0  0  0
   23.9266   51.5753  -34.2881 H   0  0  0  0  0  0  0  0  0  0  0  0
   25.3203   50.7729  -34.9638 H   0  0  0  0  0  0  0  0  0  0  0  0
   23.9596   51.2684  -36.0055 H   0  0  0  0  0  0  0  0  0  0  0  0
   26.4620   55.2052  -35.8285 H   0  0  0  0  0  0  0  0  0  0  0  0
   26.2121   57.1915  -34.4946 H   0  0  0  0  0  0  0  0  0  0  0  0
   23.3631   56.7990  -30.9633 H   0  0  0  0  0  0  0  0  0  0  0  0
   22.5798   58.9942  -30.5334 H   0  0  0  0  0  0  0  0  0  0  0  0
   24.0805   59.7038  -31.1183 H   0  0  0  0  0  0  0  0  0  0  0  0
   23.7557   59.9003  -28.6256 H   0  0  0  0  0  0  0  0  0  0  0  0
   22.9559   58.0591  -27.6352 H   0  0  0  0  0  0  0  0  0  0  0  0
   25.3434   56.5101  -27.8942 H   0  0  0  0  0  0  0  0  0  0  0  0
   24.1583   57.9821  -25.4595 H   0  0  0  0  0  0  0  0  0  0  0  0
   25.3099   56.6194  -25.4234 H   0  0  0  0  0  0  0  0  0  0  0  0
   23.1801   55.8938  -25.1718 H   0  0  0  0  0  0  0  0  0  0  0  0
   25.6848   59.3829  -26.8111 H   0  0  0  0  0  0  0  0  0  0  0  0
   27.8478   58.9313  -27.3405 H   0  0  0  0  0  0  0  0  0  0  0  0
   26.2131   58.3596  -29.6737 H   0  0  0  0  0  0  0  0  0  0  0  0
   27.1932   60.3166  -29.1209 H   0  0  0  0  0  0  0  0  0  0  0  0
   23.4592   57.0256  -28.8008 H   0  0  0  0  0  0  0  0  0  0  0  0
  1  2  2  0  0  0  0
  2  3  1  0  0  0  0
  2 12  1  0  0  0  0
  3  4  2  0  0  0  0
  3 11  1  0  0  0  0
  4  5  1  0  0  0  0
  4 23  1  0  0  0  0
  5  6  2  0  0  0  0
  5 24  1  0  0  0  0
  6  7  1  0  0  0  0
  6 10  1  0  0  0  0
  7  8  1  0  0  0  0
  7  9  1  0  0  0  0
  8 25  1  0  0  0  0
  8 26  1  0  0  0  0
  8 27  1  0  0  0  0
  9 28  1  0  0  0  0
  9 29  1  0  0  0  0
  9 30  1  0  0  0  0
 10 11  2  0  0  0  0
 10 31  1  0  0  0  0
 11 32  1  0  0  0  0
 12 13  1  0  0  0  0
 12 33  1  0  0  0  0
 13 14  1  0  0  0  0
 13 34  1  0  0  0  0
 13 35  1  0  0  0  0
 14 15  1  0  0  0  0
 14 21  1  0  0  0  0
 14 36  1  1  0  0  0
 15 16  1  0  0  0  0
 15 37  1  0  0  0  0
 15 46  1  0  0  0  0
 16 17  1  0  0  0  0
 16 19  1  0  0  0  0
 16 38  1  6  0  0  0
 17 18  1  0  0  0  0
 17 39  1  0  0  0  0
 17 40  1  0  0  0  0
 18 41  1  0  0  0  0
 19 20  1  0  0  0  0
 19 21  1  0  0  0  0
 19 42  1  1  0  0  0
 20 43  1  0  0  0  0
 21 22  1  0  0  0  0
 21 44  1  6  0  0  0
 22 45  1  0  0  0  0
M  CHG  1  15   1
M  END
$$$$
