MNM
 OpenBabel04051919423D

 25 25  0  0  1  0  0  0  0  0999 V2000
   27.9306   47.1872    0.2537 C   0  0  2  0  0  0  0  0  0  0  0  0
   27.3177   45.8649   -0.2776 C   0  0  2  0  0  0  0  0  0  0  0  0
   27.6172   48.3863   -0.6756 C   0  0  2  0  0  0  0  0  0  0  0  0
   29.3598   47.0601    0.3545 O   0  0  0  0  0  0  0  0  0  0  0  0
   27.9521   44.7445    0.2951 O   0  0  0  0  0  0  0  0  0  0  0  0
   27.4406   45.7721   -1.7168 N   0  3  0  0  0  0  0  0  0  0  0  0
   27.2639   49.5136    0.1022 O   0  0  0  0  0  0  0  0  0  0  0  0
   26.5024   48.0740   -1.6847 C   0  0  1  0  0  0  0  0  0  0  0  0
   26.1329   49.2747   -2.5544 C   0  0  0  0  0  0  0  0  0  0  0  0
   26.9588   46.9127   -2.5533 C   0  0  0  0  0  0  0  0  0  0  0  0
   27.2155   49.6415   -3.3841 O   0  0  0  0  0  0  0  0  0  0  0  0
   27.5519   47.3880    1.2636 H   0  0  0  0  0  0  0  0  0  0  0  0
   26.2509   45.8371   -0.0192 H   0  0  0  0  0  0  0  0  0  0  0  0
   28.5433   48.6383   -1.2309 H   0  0  0  0  0  0  0  0  0  0  0  0
   29.5455   46.3533    1.0066 H   0  0  0  0  0  0  0  0  0  0  0  0
   27.5110   43.9355   -0.0156 H   0  0  0  0  0  0  0  0  0  0  0  0
   28.4445   45.6273   -1.9200 H   0  0  0  0  0  0  0  0  0  0  0  0
   27.1766   50.3108   -0.4507 H   0  0  0  0  0  0  0  0  0  0  0  0
   25.5943   47.7938   -1.1367 H   0  0  0  0  0  0  0  0  0  0  0  0
   25.8095   50.1338   -1.9612 H   0  0  0  0  0  0  0  0  0  0  0  0
   25.2829   49.0270   -3.2099 H   0  0  0  0  0  0  0  0  0  0  0  0
   26.1343   46.5397   -3.1862 H   0  0  0  0  0  0  0  0  0  0  0  0
   27.7888   47.1916   -3.2179 H   0  0  0  0  0  0  0  0  0  0  0  0
   27.9410   50.0109   -2.8501 H   0  0  0  0  0  0  0  0  0  0  0  0
   26.9548   44.9254   -2.0430 H   0  0  0  0  0  0  0  0  0  0  0  0
  1  2  1  0  0  0  0
  1  3  1  0  0  0  0
  1  4  1  0  0  0  0
  1 12  1  1  0  0  0
  2  5  1  0  0  0  0
  2  6  1  0  0  0  0
  2 13  1  1  0  0  0
  3  7  1  0  0  0  0
  3  8  1  0  0  0  0
  3 14  1  6  0  0  0
  4 15  1  0  0  0  0
  5 16  1  0  0  0  0
  6 10  1  0  0  0  0
  6 17  1  0  0  0  0
  6 25  1  0  0  0  0
  7 18  1  0  0  0  0
  8  9  1  0  0  0  0
  8 10  1  0  0  0  0
  8 19  1  1  0  0  0
  9 11  1  0  0  0  0
  9 20  1  0  0  0  0
  9 21  1  0  0  0  0
 10 22  1  0  0  0  0
 10 23  1  0  0  0  0
 11 24  1  0  0  0  0
M  CHG  1   6   1
M  END
$$$$
