MP9
 OpenBabel04051918423D

 38 40  0  0  1  0  0  0  0  0999 V2000
    6.2869   24.4856   21.1976 C   0  0  0  0  0  0  0  0  0  0  0  0
    6.6984   24.7503   22.4461 C   0  0  0  0  0  0  0  0  0  0  0  0
    5.9468   24.1326   23.4524 O   0  0  0  0  0  0  0  0  0  0  0  0
    4.9484   23.4493   22.7037 N   0  3  0  0  0  0  0  0  0  0  0  0
    5.1209   23.5965   21.3804 C   0  0  0  0  0  0  0  0  0  0  0  0
    7.8261   25.5549   22.8385 C   0  0  0  0  0  0  0  0  0  0  0  0
    8.1138   25.8424   24.1559 N   0  0  0  0  0  0  0  0  0  0  0  0
    9.2161   26.5890   24.1617 N   0  0  0  0  0  0  0  0  0  0  0  0
    9.5542   26.7342   22.8686 N   0  0  0  0  0  0  0  0  0  0  0  0
    8.7511   26.0660   21.9984 N   0  0  0  0  0  0  0  0  0  0  0  0
   10.7232   27.4780   22.3963 C   0  0  0  0  0  0  0  0  0  0  0  0
   12.8062   29.6648   25.4802 C   0  0  0  0  0  0  0  0  0  0  0  0
   11.8770   30.3168   24.6656 C   0  0  0  0  0  0  0  0  0  0  0  0
   11.2044   29.6112   23.6633 C   0  0  0  0  0  0  0  0  0  0  0  0
   11.4584   28.2440   23.4680 C   0  0  0  0  0  0  0  0  0  0  0  0
   12.3950   27.5966   24.2926 C   0  0  0  0  0  0  0  0  0  0  0  0
   13.0658   28.3050   25.2941 C   0  0  0  0  0  0  0  0  0  0  0  0
    4.4641   23.0807   20.4872 O   0  0  0  0  0  0  0  0  0  0  0  0
    6.7453   24.9613   19.8454 C   0  0  0  0  0  0  0  0  0  0  0  0
    7.5881   23.9382   19.0763 C   0  0  1  0  0  0  0  0  0  0  0  0
    7.2176   23.8858   17.5615 C   0  0  0  0  0  0  0  0  0  0  0  0
    8.2472   24.0413   16.8260 O   0  0  0  0  0  0  0  0  0  0  0  0
    6.0149   23.6990   17.2813 O   0  0  0  0  0  0  0  0  0  0  0  0
    9.0706   24.2688   19.2700 N   0  3  0  0  0  0  0  0  0  0  0  0
    4.2140   22.9246   23.1665 H   0  0  0  0  0  0  0  0  0  0  0  0
   10.3748   28.1648   21.6115 H   0  0  0  0  0  0  0  0  0  0  0  0
   11.4037   26.7599   21.9166 H   0  0  0  0  0  0  0  0  0  0  0  0
   13.3252   30.2152   26.2601 H   0  0  0  0  0  0  0  0  0  0  0  0
   11.6748   31.3745   24.8135 H   0  0  0  0  0  0  0  0  0  0  0  0
   10.4812   30.1329   23.0368 H   0  0  0  0  0  0  0  0  0  0  0  0
   12.5987   26.5340   24.1632 H   0  0  0  0  0  0  0  0  0  0  0  0
   13.7868   27.7980   25.9305 H   0  0  0  0  0  0  0  0  0  0  0  0
    7.3154   25.8872   19.9826 H   0  0  0  0  0  0  0  0  0  0  0  0
    5.8659   25.2420   19.2560 H   0  0  0  0  0  0  0  0  0  0  0  0
    7.4540   22.9428   19.5145 H   0  0  0  0  0  0  0  0  0  0  0  0
    9.6019   23.6006   18.6900 H   0  0  0  0  0  0  0  0  0  0  0  0
    9.2462   25.1755   18.8149 H   0  0  0  0  0  0  0  0  0  0  0  0
    9.3616   24.2719   20.2443 H   0  0  0  0  0  0  0  0  0  0  0  0
  1  2  2  0  0  0  0
  1  5  1  0  0  0  0
  1 19  1  0  0  0  0
  2  3  1  0  0  0  0
  2  6  1  0  0  0  0
  3  4  1  0  0  0  0
  4  5  1  0  0  0  0
  4 25  1  0  0  0  0
  5 18  2  0  0  0  0
  6  7  1  0  0  0  0
  6 10  2  0  0  0  0
  7  8  2  0  0  0  0
  8  9  1  0  0  0  0
  9 10  1  0  0  0  0
  9 11  1  0  0  0  0
 11 15  1  0  0  0  0
 11 26  1  0  0  0  0
 11 27  1  0  0  0  0
 12 13  2  0  0  0  0
 12 17  1  0  0  0  0
 12 28  1  0  0  0  0
 13 14  1  0  0  0  0
 13 29  1  0  0  0  0
 14 15  2  0  0  0  0
 14 30  1  0  0  0  0
 15 16  1  0  0  0  0
 16 17  2  0  0  0  0
 16 31  1  0  0  0  0
 17 32  1  0  0  0  0
 19 20  1  0  0  0  0
 19 33  1  0  0  0  0
 19 34  1  0  0  0  0
 20 21  1  0  0  0  0
 20 24  1  0  0  0  0
 20 35  1  1  0  0  0
 21 22  2  0  0  0  0
 21 23  1  0  0  0  0
 24 36  1  0  0  0  0
 24 37  1  0  0  0  0
 24 38  1  0  0  0  0
M  CHG  2   4   1  24   1
M  END
$$$$
