MTH
 OpenBabel04051919083D

 36 38  0  0  1  0  0  0  0  0999 V2000
   14.2239   -4.4203    1.2100 C   0  0  0  0  0  0  0  0  0  0  0  0
   12.5766   -4.3045    0.4759 S   0  0  0  0  0  0  0  0  0  0  0  0
   12.5037   -2.5025    0.2536 C   0  0  0  0  0  0  0  0  0  0  0  0
   12.0866   -1.7263    1.5135 C   0  0  1  0  0  0  0  0  0  0  0  0
   12.1486   -0.3186    1.1960 O   0  0  0  0  0  0  0  0  0  0  0  0
    9.8434   -0.9957    1.1109 C   0  0  2  0  0  0  0  0  0  0  0  0
    8.7191   -0.4626    1.8293 O   0  0  0  0  0  0  0  0  0  0  0  0
   10.6522   -1.9395    1.9858 C   0  0  2  0  0  0  0  0  0  0  0  0
   10.5270   -1.5359    3.3600 O   0  0  0  0  0  0  0  0  0  0  0  0
   10.8499    0.0815    0.6769 C   0  0  2  0  0  0  0  0  0  0  0  0
   11.0161    0.3641   -0.7465 N   0  3  0  0  0  0  0  0  0  0  0  0
   12.0683    1.1415   -1.2048 C   0  0  0  0  0  0  0  0  0  0  0  0
   11.8872    1.3762   -2.5448 C   0  0  0  0  0  0  0  0  0  0  0  0
   10.7858    0.5867   -2.9596 C   0  0  0  0  0  0  0  0  0  0  0  0
   10.1750    0.3240   -4.1858 C   0  0  0  0  0  0  0  0  0  0  0  0
   10.6550    0.8598   -5.3678 N   0  0  0  0  0  0  0  0  0  0  0  0
    9.1338   -0.5259   -4.2329 N   0  0  0  0  0  0  0  0  0  0  0  0
    8.6849   -1.0270   -3.0716 C   0  0  0  0  0  0  0  0  0  0  0  0
    9.1702   -0.8176   -1.8254 N   0  0  0  0  0  0  0  0  0  0  0  0
   10.2394   -0.0113   -1.8293 C   0  0  0  0  0  0  0  0  0  0  0  0
   14.4642   -5.4707    1.3927 H   0  0  0  0  0  0  0  0  0  0  0  0
   14.2566   -3.8838    2.1613 H   0  0  0  0  0  0  0  0  0  0  0  0
   14.9726   -4.0069    0.5276 H   0  0  0  0  0  0  0  0  0  0  0  0
   11.8146   -2.3045   -0.5725 H   0  0  0  0  0  0  0  0  0  0  0  0
   13.4784   -2.1391   -0.0918 H   0  0  0  0  0  0  0  0  0  0  0  0
   12.8039   -1.9006    2.3222 H   0  0  0  0  0  0  0  0  0  0  0  0
    9.4455   -1.5780    0.2805 H   0  0  0  0  0  0  0  0  0  0  0  0
    9.0774    0.1150    2.5308 H   0  0  0  0  0  0  0  0  0  0  0  0
   10.3127   -2.9777    1.9181 H   0  0  0  0  0  0  0  0  0  0  0  0
    9.6059   -1.7401    3.6101 H   0  0  0  0  0  0  0  0  0  0  0  0
   10.6115    1.0503    1.1336 H   0  0  0  0  0  0  0  0  0  0  0  0
   12.8486    1.4742   -0.5252 H   0  0  0  0  0  0  0  0  0  0  0  0
   12.5149    1.9918   -3.1730 H   0  0  0  0  0  0  0  0  0  0  0  0
   10.3055    0.4431   -6.2217 H   0  0  0  0  0  0  0  0  0  0  0  0
   11.5736    1.2790   -5.3648 H   0  0  0  0  0  0  0  0  0  0  0  0
    7.8283   -1.6848   -3.1409 H   0  0  0  0  0  0  0  0  0  0  0  0
  1  2  1  0  0  0  0
  1 21  1  0  0  0  0
  1 22  1  0  0  0  0
  1 23  1  0  0  0  0
  2  3  1  0  0  0  0
  3  4  1  0  0  0  0
  3 24  1  0  0  0  0
  3 25  1  0  0  0  0
  4  5  1  0  0  0  0
  4  8  1  0  0  0  0
  4 26  1  1  0  0  0
  5 10  1  0  0  0  0
  6  7  1  0  0  0  0
  6  8  1  0  0  0  0
  6 10  1  0  0  0  0
  6 27  1  6  0  0  0
  7 28  1  0  0  0  0
  8  9  1  0  0  0  0
  8 29  1  6  0  0  0
  9 30  1  0  0  0  0
 10 11  1  0  0  0  0
 10 31  1  1  0  0  0
 11 12  1  0  0  0  0
 11 20  2  0  0  0  0
 12 13  2  0  0  0  0
 12 32  1  0  0  0  0
 13 14  1  0  0  0  0
 13 33  1  0  0  0  0
 14 15  2  0  0  0  0
 14 20  1  0  0  0  0
 15 16  1  0  0  0  0
 15 17  1  0  0  0  0
 16 34  1  0  0  0  0
 16 35  1  0  0  0  0
 17 18  1  0  0  0  0
 18 19  2  0  0  0  0
 18 36  1  0  0  0  0
 19 20  1  0  0  0  0
M  CHG  1  11   1
M  END
$$$$
