MU0
 OpenBabel04051918563D

 93 97  0  0  1  0  0  0  0  0999 V2000
   18.6301   32.5326   13.7890 O   0  0  0  0  0  0  0  0  0  0  0  0
   18.3039   32.3783   14.9711 C   0  0  0  0  0  0  0  0  0  0  0  0
   16.9884   32.9694   15.4721 C   0  0  1  0  0  0  0  0  0  0  0  0
   16.5672   32.6157   16.7876 O   0  0  0  0  0  0  0  0  0  0  0  0
   15.9765   33.7122   17.3643 C   0  0  0  0  0  0  0  0  0  0  0  0
   15.3891   33.6808   18.4238 O   0  0  0  0  0  0  0  0  0  0  0  0
   16.2342   34.8191   16.5832 N   0  0  0  0  0  0  0  0  0  0  0  0
   17.0305   34.4834   15.4444 C   0  0  0  0  0  0  0  0  0  0  0  0
   15.9299   36.1187   17.0062 C   0  0  0  0  0  0  0  0  0  0  0  0
   14.6390   36.4321   17.4423 C   0  0  0  0  0  0  0  0  0  0  0  0
   14.3346   37.7281   17.8592 C   0  0  0  0  0  0  0  0  0  0  0  0
   15.3296   38.7020   17.8812 C   0  0  0  0  0  0  0  0  0  0  0  0
   16.6240   38.3826   17.4787 C   0  0  0  0  0  0  0  0  0  0  0  0
   16.9197   37.0960   17.0260 C   0  0  0  0  0  0  0  0  0  0  0  0
   19.0590   31.6544   15.8456 N   0  0  0  0  0  0  0  0  0  0  0  0
   20.2680   30.9423   15.3976 C   0  0  1  0  0  0  0  0  0  0  0  0
   21.5107   31.4409   16.1427 C   0  0  0  0  0  0  0  0  0  0  0  0
   21.7641   32.8991   15.8849 C   0  0  0  0  0  0  0  0  0  0  0  0
   22.2063   33.3163   14.6269 C   0  0  0  0  0  0  0  0  0  0  0  0
   22.4181   34.6673   14.3803 C   0  0  0  0  0  0  0  0  0  0  0  0
   21.5232   33.8465   16.8873 C   0  0  0  0  0  0  0  0  0  0  0  0
   21.7354   35.1994   16.6370 C   0  0  0  0  0  0  0  0  0  0  0  0
   22.1839   35.6080   15.3832 C   0  0  0  0  0  0  0  0  0  0  0  0
   20.1318   29.4247   15.6054 C   0  0  1  0  0  0  0  0  0  0  0  0
   19.9347   29.1448   16.9983 O   0  0  0  0  0  0  0  0  0  0  0  0
   18.9635   28.8131   14.8516 C   0  0  0  0  0  0  0  0  0  0  0  0
   19.1654   28.6566   13.3505 C   0  0  1  0  0  0  0  0  0  0  0  0
   20.4516   28.0473   13.0787 N   0  0  0  0  0  0  0  0  0  0  0  0
   21.2909   28.4957   12.0778 C   0  0  0  0  0  0  0  0  0  0  0  0
   21.1081   29.5152   11.4326 O   0  0  0  0  0  0  0  0  0  0  0  0
   22.5135   27.6052   11.8960 C   0  0  2  0  0  0  0  0  0  0  0  0
   23.7946   28.4466   11.9175 C   0  0  0  0  0  0  0  0  0  0  0  0
   23.8768   29.2311   13.2196 C   0  0  0  0  0  0  0  0  0  0  0  0
   25.0040   27.5374   11.7429 C   0  0  0  0  0  0  0  0  0  0  0  0
   22.3699   26.8381   10.6666 N   0  0  0  0  0  0  0  0  0  0  0  0
   22.3444   27.5362    9.3882 C   0  0  0  0  0  0  0  0  0  0  0  0
   23.0246   26.6683    8.3556 C   0  0  0  0  0  0  0  0  0  0  0  0
   22.1938   25.4781   10.7747 C   0  0  0  0  0  0  0  0  0  0  0  0
   22.1203   24.8973   11.8472 O   0  0  0  0  0  0  0  0  0  0  0  0
   22.1750   24.7698    9.6128 N   0  0  0  0  0  0  0  0  0  0  0  0
   22.2720   25.3593    8.3012 C   0  0  0  0  0  0  0  0  0  0  0  0
   18.0306   27.7408   12.8761 C   0  0  0  0  0  0  0  0  0  0  0  0
   18.0360   27.4924   11.4056 C   0  0  0  0  0  0  0  0  0  0  0  0
   18.6184   26.3378   10.8749 C   0  0  0  0  0  0  0  0  0  0  0  0
   18.6190   26.1244    9.4988 C   0  0  0  0  0  0  0  0  0  0  0  0
   18.0305   27.0655    8.6524 C   0  0  0  0  0  0  0  0  0  0  0  0
   17.4522   28.2110    9.1830 C   0  0  0  0  0  0  0  0  0  0  0  0
   17.4549   28.4382   10.5478 C   0  0  0  0  0  0  0  0  0  0  0  0
   16.2251   32.5995   14.7730 H   0  0  0  0  0  0  0  0  0  0  0  0
   16.5581   34.8785   14.5340 H   0  0  0  0  0  0  0  0  0  0  0  0
   18.0462   34.8862   15.5181 H   0  0  0  0  0  0  0  0  0  0  0  0
   13.8530   35.6798   17.4301 H   0  0  0  0  0  0  0  0  0  0  0  0
   13.3235   37.9777   18.1698 H   0  0  0  0  0  0  0  0  0  0  0  0
   15.0974   39.7101   18.2138 H   0  0  0  0  0  0  0  0  0  0  0  0
   17.4051   39.1363   17.5088 H   0  0  0  0  0  0  0  0  0  0  0  0
   17.9379   36.8507   16.7443 H   0  0  0  0  0  0  0  0  0  0  0  0
   18.7954   31.5878   16.8262 H   0  0  0  0  0  0  0  0  0  0  0  0
   20.4114   31.1255   14.3248 H   0  0  0  0  0  0  0  0  0  0  0  0
   22.3924   30.8721   15.8148 H   0  0  0  0  0  0  0  0  0  0  0  0
   21.3979   31.2748   17.2198 H   0  0  0  0  0  0  0  0  0  0  0  0
   22.3777   32.5888   13.8356 H   0  0  0  0  0  0  0  0  0  0  0  0
   22.7680   34.9836   13.4031 H   0  0  0  0  0  0  0  0  0  0  0  0
   21.1699   33.5279   17.8644 H   0  0  0  0  0  0  0  0  0  0  0  0
   21.5582   35.9323   17.4191 H   0  0  0  0  0  0  0  0  0  0  0  0
   22.3539   36.6612   15.1837 H   0  0  0  0  0  0  0  0  0  0  0  0
   21.0693   28.9441   15.3017 H   0  0  0  0  0  0  0  0  0  0  0  0
   19.8381   28.1837   17.1014 H   0  0  0  0  0  0  0  0  0  0  0  0
   18.0613   29.4117   15.0194 H   0  0  0  0  0  0  0  0  0  0  0  0
   18.7620   27.8247   15.2845 H   0  0  0  0  0  0  0  0  0  0  0  0
   19.1048   29.6299   12.8505 H   0  0  0  0  0  0  0  0  0  0  0  0
   20.7088   27.1973   13.5625 H   0  0  0  0  0  0  0  0  0  0  0  0
   22.5622   26.9157   12.7488 H   0  0  0  0  0  0  0  0  0  0  0  0
   23.7916   29.1704   11.0994 H   0  0  0  0  0  0  0  0  0  0  0  0
   24.7890   29.8296   13.2513 H   0  0  0  0  0  0  0  0  0  0  0  0
   23.8594   28.5572   14.0813 H   0  0  0  0  0  0  0  0  0  0  0  0
   23.0257   29.9155   13.3062 H   0  0  0  0  0  0  0  0  0  0  0  0
   24.9348   26.9829   10.8017 H   0  0  0  0  0  0  0  0  0  0  0  0
   25.0651   26.8114   12.5593 H   0  0  0  0  0  0  0  0  0  0  0  0
   25.9239   28.1245   11.7160 H   0  0  0  0  0  0  0  0  0  0  0  0
   22.8668   28.4920    9.4664 H   0  0  0  0  0  0  0  0  0  0  0  0
   21.3058   27.7507    9.1163 H   0  0  0  0  0  0  0  0  0  0  0  0
   24.0627   26.4819    8.6639 H   0  0  0  0  0  0  0  0  0  0  0  0
   23.0277   27.1535    7.3797 H   0  0  0  0  0  0  0  0  0  0  0  0
   22.0335   23.7807    9.7231 H   0  0  0  0  0  0  0  0  0  0  0  0
   22.7855   24.6461    7.6515 H   0  0  0  0  0  0  0  0  0  0  0  0
   21.2568   25.5123    7.9212 H   0  0  0  0  0  0  0  0  0  0  0  0
   17.0679   28.1906   13.1538 H   0  0  0  0  0  0  0  0  0  0  0  0
   18.0946   26.7756   13.3949 H   0  0  0  0  0  0  0  0  0  0  0  0
   19.0751   25.6034   11.5322 H   0  0  0  0  0  0  0  0  0  0  0  0
   19.0724   25.2312    9.0901 H   0  0  0  0  0  0  0  0  0  0  0  0
   18.0323   26.9015    7.5761 H   0  0  0  0  0  0  0  0  0  0  0  0
   16.9847   28.9426    8.5272 H   0  0  0  0  0  0  0  0  0  0  0  0
   17.0129   29.3371   10.9660 H   0  0  0  0  0  0  0  0  0  0  0  0
  1  2  2  0  0  0  0
  2  3  1  0  0  0  0
  2 15  1  0  0  0  0
  3  4  1  0  0  0  0
  3  8  1  0  0  0  0
  3 49  1  6  0  0  0
  4  5  1  0  0  0  0
  5  6  2  0  0  0  0
  5  7  1  0  0  0  0
  7  8  1  0  0  0  0
  7  9  1  0  0  0  0
  8 50  1  0  0  0  0
  8 51  1  0  0  0  0
  9 10  2  0  0  0  0
  9 14  1  0  0  0  0
 10 11  1  0  0  0  0
 10 52  1  0  0  0  0
 11 12  2  0  0  0  0
 11 53  1  0  0  0  0
 12 13  1  0  0  0  0
 12 54  1  0  0  0  0
 13 14  2  0  0  0  0
 13 55  1  0  0  0  0
 14 56  1  0  0  0  0
 15 16  1  0  0  0  0
 15 57  1  0  0  0  0
 16 17  1  0  0  0  0
 16 24  1  0  0  0  0
 16 58  1  6  0  0  0
 17 18  1  0  0  0  0
 17 59  1  0  0  0  0
 17 60  1  0  0  0  0
 18 19  2  0  0  0  0
 18 21  1  0  0  0  0
 19 20  1  0  0  0  0
 19 61  1  0  0  0  0
 20 23  2  0  0  0  0
 20 62  1  0  0  0  0
 21 22  2  0  0  0  0
 21 63  1  0  0  0  0
 22 23  1  0  0  0  0
 22 64  1  0  0  0  0
 23 65  1  0  0  0  0
 24 25  1  0  0  0  0
 24 26  1  0  0  0  0
 24 66  1  6  0  0  0
 25 67  1  0  0  0  0
 26 27  1  0  0  0  0
 26 68  1  0  0  0  0
 26 69  1  0  0  0  0
 27 28  1  0  0  0  0
 27 42  1  0  0  0  0
 27 70  1  6  0  0  0
 28 29  1  0  0  0  0
 28 71  1  0  0  0  0
 29 30  2  0  0  0  0
 29 31  1  0  0  0  0
 31 32  1  0  0  0  0
 31 35  1  0  0  0  0
 31 72  1  1  0  0  0
 32 33  1  0  0  0  0
 32 34  1  0  0  0  0
 32 73  1  0  0  0  0
 33 74  1  0  0  0  0
 33 75  1  0  0  0  0
 33 76  1  0  0  0  0
 34 77  1  0  0  0  0
 34 78  1  0  0  0  0
 34 79  1  0  0  0  0
 35 36  1  0  0  0  0
 35 38  1  0  0  0  0
 36 37  1  0  0  0  0
 36 80  1  0  0  0  0
 36 81  1  0  0  0  0
 37 41  1  0  0  0  0
 37 82  1  0  0  0  0
 37 83  1  0  0  0  0
 38 39  2  0  0  0  0
 38 40  1  0  0  0  0
 40 41  1  0  0  0  0
 40 84  1  0  0  0  0
 41 85  1  0  0  0  0
 41 86  1  0  0  0  0
 42 43  1  0  0  0  0
 42 87  1  0  0  0  0
 42 88  1  0  0  0  0
 43 44  2  0  0  0  0
 43 48  1  0  0  0  0
 44 45  1  0  0  0  0
 44 89  1  0  0  0  0
 45 46  2  0  0  0  0
 45 90  1  0  0  0  0
 46 47  1  0  0  0  0
 46 91  1  0  0  0  0
 47 48  2  0  0  0  0
 47 92  1  0  0  0  0
 48 93  1  0  0  0  0
M  END
$$$$
