MU1
 OpenBabel04051918563D

 92 95  0  0  1  0  0  0  0  0999 V2000
   21.9586    4.1556   19.0399 O   0  0  0  0  0  0  0  0  0  0  0  0
   21.8967    3.3904   19.9990 C   0  0  0  0  0  0  0  0  0  0  0  0
   21.6800    3.8906   21.4008 C   0  0  0  0  0  0  0  0  0  0  0  0
   22.0615    2.0341   19.8949 N   0  0  0  0  0  0  0  0  0  0  0  0
   22.3819    1.3934   18.6253 C   0  0  1  0  0  0  0  0  0  0  0  0
   23.7521    0.6980   18.7026 C   0  0  0  0  0  0  0  0  0  0  0  0
   24.0376   -0.0892   17.4197 C   0  0  0  0  0  0  0  0  0  0  0  0
   24.8592    1.7332   18.9335 C   0  0  0  0  0  0  0  0  0  0  0  0
   21.2574    0.3912   18.3135 C   0  0  0  0  0  0  0  0  0  0  0  0
   21.1332   -0.6755   18.9080 O   0  0  0  0  0  0  0  0  0  0  0  0
   20.3981    0.8306   17.3246 N   0  0  0  0  0  0  0  0  0  0  0  0
   19.1759    0.1177   16.9653 C   0  0  1  0  0  0  0  0  0  0  0  0
   17.9070    0.8486   17.4484 C   0  0  0  0  0  0  0  0  0  0  0  0
   17.9786    1.3738   18.8514 C   0  0  0  0  0  0  0  0  0  0  0  0
   17.7864    0.5166   19.9365 C   0  0  0  0  0  0  0  0  0  0  0  0
   17.8741    1.0107   21.2339 C   0  0  0  0  0  0  0  0  0  0  0  0
   18.1575    2.3579   21.4528 C   0  0  0  0  0  0  0  0  0  0  0  0
   18.3462    3.2179   20.3717 C   0  0  0  0  0  0  0  0  0  0  0  0
   18.2679    2.7266   19.0739 C   0  0  0  0  0  0  0  0  0  0  0  0
   19.0621    0.0274   15.4408 C   0  0  0  0  0  0  0  0  0  0  0  0
   20.3169   -0.4807   14.7427 C   0  0  2  0  0  0  0  0  0  0  0  0
   20.1844   -0.2046   13.3403 O   0  0  0  0  0  0  0  0  0  0  0  0
   20.5453   -1.9822   14.9693 C   0  0  2  0  0  0  0  0  0  0  0  0
   21.8925   -2.3853   14.3364 C   0  0  0  0  0  0  0  0  0  0  0  0
   22.1537   -3.8629   14.4530 C   0  0  0  0  0  0  0  0  0  0  0  0
   22.0252   -4.6863   13.3286 C   0  0  0  0  0  0  0  0  0  0  0  0
   22.2168   -6.0588   13.4462 C   0  0  0  0  0  0  0  0  0  0  0  0
   22.5329   -6.6123   14.6863 C   0  0  0  0  0  0  0  0  0  0  0  0
   22.6378   -5.8006   15.8137 C   0  0  0  0  0  0  0  0  0  0  0  0
   22.4513   -4.4271   15.6988 C   0  0  0  0  0  0  0  0  0  0  0  0
   19.4444   -2.7774   14.4163 N   0  0  0  0  0  0  0  0  0  0  0  0
   18.7953   -3.7504   15.1518 C   0  0  0  0  0  0  0  0  0  0  0  0
   18.8810   -3.8234   16.3747 O   0  0  0  0  0  0  0  0  0  0  0  0
   17.9572   -4.7287   14.3490 C   0  0  2  0  0  0  0  0  0  0  0  0
   18.4562   -6.1412   14.6112 C   0  0  0  0  0  0  0  0  0  0  0  0
   18.0058   -4.5529   12.9364 O   0  0  0  0  0  0  0  0  0  0  0  0
   18.2798   -5.7588   12.3436 C   0  0  0  0  0  0  0  0  0  0  0  0
   18.3159   -5.8841   11.1326 O   0  0  0  0  0  0  0  0  0  0  0  0
   18.5416   -6.7158   13.3074 N   0  0  0  0  0  0  0  0  0  0  0  0
   18.9239   -8.0521   13.0614 C   0  0  0  0  0  0  0  0  0  0  0  0
   18.4516   -8.7423   11.9400 C   0  0  0  0  0  0  0  0  0  0  0  0
   18.8219  -10.0704   11.7061 C   0  0  0  0  0  0  0  0  0  0  0  0
   19.7031  -10.7193   12.5707 C   0  0  0  0  0  0  0  0  0  0  0  0
   19.7893   -8.7261   13.9374 C   0  0  0  0  0  0  0  0  0  0  0  0
   20.2030  -10.0467   13.6861 C   0  0  0  0  0  0  0  0  0  0  0  0
   21.1796  -10.6840   14.6219 C   0  0  0  0  0  0  0  0  0  0  0  0
   21.5154  -10.0966   15.6482 O   0  0  0  0  0  0  0  0  0  0  0  0
   21.7511  -12.0364   14.2759 C   0  0  0  0  0  0  0  0  0  0  0  0
   21.6337    3.0713   22.1230 H   0  0  0  0  0  0  0  0  0  0  0  0
   20.7452    4.4519   21.4431 H   0  0  0  0  0  0  0  0  0  0  0  0
   22.5080    4.5507   21.6730 H   0  0  0  0  0  0  0  0  0  0  0  0
   21.8735    1.4318   20.6886 H   0  0  0  0  0  0  0  0  0  0  0  0
   22.4149    2.1479   17.8311 H   0  0  0  0  0  0  0  0  0  0  0  0
   23.7603   -0.0036   19.5470 H   0  0  0  0  0  0  0  0  0  0  0  0
   25.0258   -0.5564   17.4609 H   0  0  0  0  0  0  0  0  0  0  0  0
   23.9985    0.5617   16.5395 H   0  0  0  0  0  0  0  0  0  0  0  0
   23.3071   -0.8916   17.2740 H   0  0  0  0  0  0  0  0  0  0  0  0
   24.6865    2.3052   19.8510 H   0  0  0  0  0  0  0  0  0  0  0  0
   24.9153    2.4438   18.1014 H   0  0  0  0  0  0  0  0  0  0  0  0
   25.8330    1.2441   19.0324 H   0  0  0  0  0  0  0  0  0  0  0  0
   20.5257    1.7732   16.9725 H   0  0  0  0  0  0  0  0  0  0  0  0
   19.2074   -0.8830   17.4136 H   0  0  0  0  0  0  0  0  0  0  0  0
   17.0418    0.1803   17.3481 H   0  0  0  0  0  0  0  0  0  0  0  0
   17.6923    1.6971   16.7842 H   0  0  0  0  0  0  0  0  0  0  0  0
   17.5768   -0.5381   19.7731 H   0  0  0  0  0  0  0  0  0  0  0  0
   17.7229    0.3396   22.0746 H   0  0  0  0  0  0  0  0  0  0  0  0
   18.2211    2.7389   22.4671 H   0  0  0  0  0  0  0  0  0  0  0  0
   18.5681    4.2688   20.5333 H   0  0  0  0  0  0  0  0  0  0  0  0
   18.4420    3.4018   18.2384 H   0  0  0  0  0  0  0  0  0  0  0  0
   18.8329    1.0213   15.0360 H   0  0  0  0  0  0  0  0  0  0  0  0
   18.1976   -0.5954   15.1794 H   0  0  0  0  0  0  0  0  0  0  0  0
   21.1994    0.0739   15.0814 H   0  0  0  0  0  0  0  0  0  0  0  0
   20.0806    0.7602   13.2483 H   0  0  0  0  0  0  0  0  0  0  0  0
   20.6059   -2.1744   16.0460 H   0  0  0  0  0  0  0  0  0  0  0  0
   22.7101   -1.8418   14.8266 H   0  0  0  0  0  0  0  0  0  0  0  0
   21.9253   -2.0905   13.2795 H   0  0  0  0  0  0  0  0  0  0  0  0
   21.7612   -4.2639   12.3610 H   0  0  0  0  0  0  0  0  0  0  0  0
   22.1050   -6.6965   12.5734 H   0  0  0  0  0  0  0  0  0  0  0  0
   22.6779   -7.6850   14.7841 H   0  0  0  0  0  0  0  0  0  0  0  0
   22.8551   -6.2395   16.7837 H   0  0  0  0  0  0  0  0  0  0  0  0
   22.5165   -3.8029   16.5880 H   0  0  0  0  0  0  0  0  0  0  0  0
   19.2991   -2.7483   13.4082 H   0  0  0  0  0  0  0  0  0  0  0  0
   16.9109   -4.6068   14.6696 H   0  0  0  0  0  0  0  0  0  0  0  0
   17.7279   -6.7031   15.2054 H   0  0  0  0  0  0  0  0  0  0  0  0
   19.4231   -6.1644   15.1181 H   0  0  0  0  0  0  0  0  0  0  0  0
   17.7500   -8.2741   11.2530 H   0  0  0  0  0  0  0  0  0  0  0  0
   18.4159  -10.5969   10.8461 H   0  0  0  0  0  0  0  0  0  0  0  0
   19.9764  -11.7470   12.3525 H   0  0  0  0  0  0  0  0  0  0  0  0
   20.2070   -8.2096   14.7975 H   0  0  0  0  0  0  0  0  0  0  0  0
   22.4358  -12.3528   15.0694 H   0  0  0  0  0  0  0  0  0  0  0  0
   22.3183  -11.9813   13.3424 H   0  0  0  0  0  0  0  0  0  0  0  0
   20.9555  -12.7819   14.2051 H   0  0  0  0  0  0  0  0  0  0  0  0
  1  2  2  0  0  0  0
  2  3  1  0  0  0  0
  2  4  1  0  0  0  0
  3 49  1  0  0  0  0
  3 50  1  0  0  0  0
  3 51  1  0  0  0  0
  4  5  1  0  0  0  0
  4 52  1  0  0  0  0
  5  6  1  0  0  0  0
  5  9  1  0  0  0  0
  5 53  1  6  0  0  0
  6  7  1  0  0  0  0
  6  8  1  0  0  0  0
  6 54  1  0  0  0  0
  7 55  1  0  0  0  0
  7 56  1  0  0  0  0
  7 57  1  0  0  0  0
  8 58  1  0  0  0  0
  8 59  1  0  0  0  0
  8 60  1  0  0  0  0
  9 10  2  0  0  0  0
  9 11  1  0  0  0  0
 11 12  1  0  0  0  0
 11 61  1  0  0  0  0
 12 13  1  0  0  0  0
 12 20  1  0  0  0  0
 12 62  1  1  0  0  0
 13 14  1  0  0  0  0
 13 63  1  0  0  0  0
 13 64  1  0  0  0  0
 14 15  2  0  0  0  0
 14 19  1  0  0  0  0
 15 16  1  0  0  0  0
 15 65  1  0  0  0  0
 16 17  2  0  0  0  0
 16 66  1  0  0  0  0
 17 18  1  0  0  0  0
 17 67  1  0  0  0  0
 18 19  2  0  0  0  0
 18 68  1  0  0  0  0
 19 69  1  0  0  0  0
 20 21  1  0  0  0  0
 20 70  1  0  0  0  0
 20 71  1  0  0  0  0
 21 22  1  0  0  0  0
 21 23  1  0  0  0  0
 21 72  1  1  0  0  0
 22 73  1  0  0  0  0
 23 24  1  0  0  0  0
 23 31  1  0  0  0  0
 23 74  1  1  0  0  0
 24 25  1  0  0  0  0
 24 75  1  0  0  0  0
 24 76  1  0  0  0  0
 25 26  2  0  0  0  0
 25 30  1  0  0  0  0
 26 27  1  0  0  0  0
 26 77  1  0  0  0  0
 27 28  2  0  0  0  0
 27 78  1  0  0  0  0
 28 29  1  0  0  0  0
 28 79  1  0  0  0  0
 29 30  2  0  0  0  0
 29 80  1  0  0  0  0
 30 81  1  0  0  0  0
 31 32  1  0  0  0  0
 31 82  1  0  0  0  0
 32 33  2  0  0  0  0
 32 34  1  0  0  0  0
 34 35  1  0  0  0  0
 34 36  1  0  0  0  0
 34 83  1  1  0  0  0
 35 39  1  0  0  0  0
 35 84  1  0  0  0  0
 35 85  1  0  0  0  0
 36 37  1  0  0  0  0
 37 38  2  0  0  0  0
 37 39  1  0  0  0  0
 39 40  1  0  0  0  0
 40 41  2  0  0  0  0
 40 44  1  0  0  0  0
 41 42  1  0  0  0  0
 41 86  1  0  0  0  0
 42 43  2  0  0  0  0
 42 87  1  0  0  0  0
 43 45  1  0  0  0  0
 43 88  1  0  0  0  0
 44 45  2  0  0  0  0
 44 89  1  0  0  0  0
 45 46  1  0  0  0  0
 46 47  2  0  0  0  0
 46 48  1  0  0  0  0
 48 90  1  0  0  0  0
 48 91  1  0  0  0  0
 48 92  1  0  0  0  0
M  END
$$$$
