MUI
 OpenBabel04051918123D

 84 87  0  0  1  0  0  0  0  0999 V2000
   20.8860   22.5120    4.6477 O   0  0  0  0  0  0  0  0  0  0  0  0
   20.4848   23.6283    4.9465 C   0  0  0  0  0  0  0  0  0  0  0  0
   19.8085   24.5011    3.9263 C   0  0  0  0  0  0  0  0  0  0  0  0
   20.6702   24.1620    6.3275 C   0  0  0  0  0  0  0  0  0  0  0  0
   20.1340   25.3935    6.6986 C   0  0  0  0  0  0  0  0  0  0  0  0
   20.3188   25.9050    7.9685 C   0  0  0  0  0  0  0  0  0  0  0  0
   21.4009   23.4339    7.2638 C   0  0  0  0  0  0  0  0  0  0  0  0
   21.5806   23.9407    8.5541 C   0  0  0  0  0  0  0  0  0  0  0  0
   21.0381   25.1805    8.9158 C   0  0  0  0  0  0  0  0  0  0  0  0
   21.2362   25.7498   10.1763 N   0  0  0  0  0  0  0  0  0  0  0  0
   21.5896   25.0693   11.3257 C   0  0  0  0  0  0  0  0  0  0  0  0
   21.6452   23.8842   11.5061 O   0  0  0  0  0  0  0  0  0  0  0  0
   21.8716   25.9905   12.3137 O   0  0  0  0  0  0  0  0  0  0  0  0
   21.2081   27.1608   10.4033 C   0  0  0  0  0  0  0  0  0  0  0  0
   21.9089   27.2945   11.7271 C   0  0  1  0  0  0  0  0  0  0  0  0
   21.1926   28.3884   12.5042 C   0  0  0  0  0  0  0  0  0  0  0  0
   21.2152   29.5451   12.1172 O   0  0  0  0  0  0  0  0  0  0  0  0
   20.4773   27.9591   13.5767 N   0  0  0  0  0  0  0  0  0  0  0  0
   19.4874   28.7943   14.2666 C   0  0  1  0  0  0  0  0  0  0  0  0
   18.1772   28.0060   14.2241 C   0  0  0  0  0  0  0  0  0  0  0  0
   17.8558   27.6128   12.7952 C   0  0  0  0  0  0  0  0  0  0  0  0
   17.4923   28.5871   11.8619 C   0  0  0  0  0  0  0  0  0  0  0  0
   17.2552   28.2364   10.5328 C   0  0  0  0  0  0  0  0  0  0  0  0
   17.3797   26.9125   10.1213 C   0  0  0  0  0  0  0  0  0  0  0  0
   17.7680   25.9380   11.0350 C   0  0  0  0  0  0  0  0  0  0  0  0
   18.0098   26.2870   12.3643 C   0  0  0  0  0  0  0  0  0  0  0  0
   19.9725   29.1533   15.6907 C   0  0  2  0  0  0  0  0  0  0  0  0
   19.9042   28.0068   16.5481 O   0  0  0  0  0  0  0  0  0  0  0  0
   19.1396   30.2950   16.2920 C   0  0  0  0  0  0  0  0  0  0  0  0
   19.3843   31.5456   15.5734 N   0  0  0  0  0  0  0  0  0  0  0  0
   20.1879   32.5451   16.2941 C   0  0  0  0  0  0  0  0  0  0  0  0
   21.6649   32.1787   16.2989 C   0  0  0  0  0  0  0  0  0  0  0  0
   22.4260   33.1793   17.1545 C   0  0  0  0  0  0  0  0  0  0  0  0
   22.2577   32.1276   14.8970 C   0  0  0  0  0  0  0  0  0  0  0  0
   18.0620   32.1870   14.7040 S   0  0  0  0  0  0  0  0  0  0  0  0
   17.2128   31.0973   14.2531 O   0  0  0  0  0  0  0  0  0  0  0  0
   18.6340   33.1020   13.7704 O   0  0  0  0  0  0  0  0  0  0  0  0
   17.1718   33.1207   15.8986 C   0  0  0  0  0  0  0  0  0  0  0  0
   16.2015   32.5189   16.6747 C   0  0  0  0  0  0  0  0  0  0  0  0
   15.4722   33.3046   17.5828 C   0  0  0  0  0  0  0  0  0  0  0  0
   15.7143   34.6808   17.6932 C   0  0  0  0  0  0  0  0  0  0  0  0
   14.9552   35.3724   18.6050 O   0  0  0  0  0  0  0  0  0  0  0  0
   15.3005   36.7376   18.8856 C   0  0  0  0  0  0  0  0  0  0  0  0
   16.6790   35.2672   16.8798 C   0  0  0  0  0  0  0  0  0  0  0  0
   17.4073   34.4924   15.9708 C   0  0  0  0  0  0  0  0  0  0  0  0
   19.5134   25.4556    4.3351 H   0  0  0  0  0  0  0  0  0  0  0  0
   18.9070   24.0133    3.5611 H   0  0  0  0  0  0  0  0  0  0  0  0
   20.4962   24.7098    3.1092 H   0  0  0  0  0  0  0  0  0  0  0  0
   19.5578   26.0023    6.0227 H   0  0  0  0  0  0  0  0  0  0  0  0
   19.8887   26.8673    8.2224 H   0  0  0  0  0  0  0  0  0  0  0  0
   21.8312   22.4718    6.9919 H   0  0  0  0  0  0  0  0  0  0  0  0
   22.1864   23.3704    9.2566 H   0  0  0  0  0  0  0  0  0  0  0  0
   20.1791   27.5260   10.4345 H   0  0  0  0  0  0  0  0  0  0  0  0
   21.7427   27.6893    9.6069 H   0  0  0  0  0  0  0  0  0  0  0  0
   22.9505   27.6232   11.6268 H   0  0  0  0  0  0  0  0  0  0  0  0
   20.5014   26.9738   13.8171 H   0  0  0  0  0  0  0  0  0  0  0  0
   19.3783   29.7378   13.7241 H   0  0  0  0  0  0  0  0  0  0  0  0
   17.3559   28.5966   14.6322 H   0  0  0  0  0  0  0  0  0  0  0  0
   18.2782   27.0984   14.8327 H   0  0  0  0  0  0  0  0  0  0  0  0
   17.3888   29.6246   12.1723 H   0  0  0  0  0  0  0  0  0  0  0  0
   16.9676   29.0017    9.8209 H   0  0  0  0  0  0  0  0  0  0  0  0
   17.1755   26.6441    9.0889 H   0  0  0  0  0  0  0  0  0  0  0  0
   17.8833   24.9054   10.7146 H   0  0  0  0  0  0  0  0  0  0  0  0
   18.3169   25.5185   13.0670 H   0  0  0  0  0  0  0  0  0  0  0  0
   21.0242   29.4644   15.6380 H   0  0  0  0  0  0  0  0  0  0  0  0
   20.2155   28.2637   17.4358 H   0  0  0  0  0  0  0  0  0  0  0  0
   19.3972   30.4346   17.3404 H   0  0  0  0  0  0  0  0  0  0  0  0
   18.0801   30.0315   16.2566 H   0  0  0  0  0  0  0  0  0  0  0  0
   19.8059   32.5840   17.3182 H   0  0  0  0  0  0  0  0  0  0  0  0
   20.0564   33.5338   15.8445 H   0  0  0  0  0  0  0  0  0  0  0  0
   21.7788   31.1927   16.7529 H   0  0  0  0  0  0  0  0  0  0  0  0
   23.4918   32.9326   17.1657 H   0  0  0  0  0  0  0  0  0  0  0  0
   22.0528   33.1552   18.1840 H   0  0  0  0  0  0  0  0  0  0  0  0
   22.3053   34.1961   16.7641 H   0  0  0  0  0  0  0  0  0  0  0  0
   21.7141   31.4112   14.2749 H   0  0  0  0  0  0  0  0  0  0  0  0
   23.3055   31.8099   14.9443 H   0  0  0  0  0  0  0  0  0  0  0  0
   22.2138   33.1104   14.4158 H   0  0  0  0  0  0  0  0  0  0  0  0
   16.0058   31.4554   16.5826 H   0  0  0  0  0  0  0  0  0  0  0  0
   14.7199   32.8209   18.2003 H   0  0  0  0  0  0  0  0  0  0  0  0
   14.5900   37.1326   19.6265 H   0  0  0  0  0  0  0  0  0  0  0  0
   15.2302   37.3703   17.9909 H   0  0  0  0  0  0  0  0  0  0  0  0
   16.3077   36.8108   19.3173 H   0  0  0  0  0  0  0  0  0  0  0  0
   16.8781   36.3162   16.9280 H   0  0  0  0  0  0  0  0  0  0  0  0
   18.1536   34.9604   15.3389 H   0  0  0  0  0  0  0  0  0  0  0  0
  1  2  2  0  0  0  0
  2  3  1  0  0  0  0
  2  4  1  0  0  0  0
  3 46  1  0  0  0  0
  3 47  1  0  0  0  0
  3 48  1  0  0  0  0
  4  5  2  0  0  0  0
  4  7  1  0  0  0  0
  5  6  1  0  0  0  0
  5 49  1  0  0  0  0
  6  9  2  0  0  0  0
  6 50  1  0  0  0  0
  7  8  2  0  0  0  0
  7 51  1  0  0  0  0
  8  9  1  0  0  0  0
  8 52  1  0  0  0  0
  9 10  1  0  0  0  0
 10 11  1  0  0  0  0
 10 14  1  0  0  0  0
 11 12  2  0  0  0  0
 11 13  1  0  0  0  0
 13 15  1  0  0  0  0
 14 15  1  0  0  0  0
 14 53  1  0  0  0  0
 14 54  1  0  0  0  0
 15 16  1  0  0  0  0
 15 55  1  6  0  0  0
 16 17  2  0  0  0  0
 16 18  1  0  0  0  0
 18 19  1  0  0  0  0
 18 56  1  0  0  0  0
 19 20  1  0  0  0  0
 19 27  1  0  0  0  0
 19 57  1  6  0  0  0
 20 21  1  0  0  0  0
 20 58  1  0  0  0  0
 20 59  1  0  0  0  0
 21 22  2  0  0  0  0
 21 26  1  0  0  0  0
 22 23  1  0  0  0  0
 22 60  1  0  0  0  0
 23 24  2  0  0  0  0
 23 61  1  0  0  0  0
 24 25  1  0  0  0  0
 24 62  1  0  0  0  0
 25 26  2  0  0  0  0
 25 63  1  0  0  0  0
 26 64  1  0  0  0  0
 27 28  1  0  0  0  0
 27 29  1  0  0  0  0
 27 65  1  6  0  0  0
 28 66  1  0  0  0  0
 29 30  1  0  0  0  0
 29 67  1  0  0  0  0
 29 68  1  0  0  0  0
 30 31  1  0  0  0  0
 30 35  1  0  0  0  0
 31 32  1  0  0  0  0
 31 69  1  0  0  0  0
 31 70  1  0  0  0  0
 32 33  1  0  0  0  0
 32 34  1  0  0  0  0
 32 71  1  0  0  0  0
 33 72  1  0  0  0  0
 33 73  1  0  0  0  0
 33 74  1  0  0  0  0
 34 75  1  0  0  0  0
 34 76  1  0  0  0  0
 34 77  1  0  0  0  0
 35 36  2  0  0  0  0
 35 37  2  0  0  0  0
 35 38  1  0  0  0  0
 38 39  2  0  0  0  0
 38 45  1  0  0  0  0
 39 40  1  0  0  0  0
 39 78  1  0  0  0  0
 40 41  2  0  0  0  0
 40 79  1  0  0  0  0
 41 42  1  0  0  0  0
 41 44  1  0  0  0  0
 42 43  1  0  0  0  0
 43 80  1  0  0  0  0
 43 81  1  0  0  0  0
 43 82  1  0  0  0  0
 44 45  2  0  0  0  0
 44 83  1  0  0  0  0
 45 84  1  0  0  0  0
M  END
$$$$
