MUU
 OpenBabel04051918493D

 71 73  0  0  1  0  0  0  0  0999 V2000
   17.2347   31.3922   14.3607 O   0  0  0  0  0  0  0  0  0  0  0  0
   18.0829   32.4701   14.8250 S   0  0  0  0  0  0  0  0  0  0  0  0
   18.6417   33.4277   13.8973 O   0  0  0  0  0  0  0  0  0  0  0  0
   17.1582   33.3841   16.0340 C   0  0  0  0  0  0  0  0  0  0  0  0
   17.4523   34.7410   16.2221 C   0  0  0  0  0  0  0  0  0  0  0  0
   16.6941   35.5122   17.1021 C   0  0  0  0  0  0  0  0  0  0  0  0
   17.0792   36.8199   17.1966 O   0  0  0  0  0  0  0  0  0  0  0  0
   16.5304   37.6086   18.2484 C   0  0  0  0  0  0  0  0  0  0  0  0
   15.6257   34.9157   17.7704 C   0  0  0  0  0  0  0  0  0  0  0  0
   15.3268   33.5580   17.5717 C   0  0  0  0  0  0  0  0  0  0  0  0
   16.0904   32.7858   16.6982 C   0  0  0  0  0  0  0  0  0  0  0  0
   19.3473   31.7974   15.7170 N   0  0  0  0  0  0  0  0  0  0  0  0
   20.2401   32.7298   16.4295 C   0  0  0  0  0  0  0  0  0  0  0  0
   21.6559   32.2376   16.4022 C   0  0  0  0  0  0  0  0  0  0  0  0
   22.7941   33.2133   16.2395 C   0  0  0  0  0  0  0  0  0  0  0  0
   22.4272   32.2936   15.1053 C   0  0  0  0  0  0  0  0  0  0  0  0
   19.1051   30.5189   16.4049 C   0  0  0  0  0  0  0  0  0  0  0  0
   19.9844   29.4152   15.7902 C   0  0  1  0  0  0  0  0  0  0  0  0
   19.9990   28.2688   16.6572 O   0  0  0  0  0  0  0  0  0  0  0  0
   19.5919   29.0165   14.3556 C   0  0  2  0  0  0  0  0  0  0  0  0
   18.2595   28.2463   14.2930 C   0  0  0  0  0  0  0  0  0  0  0  0
   17.9325   27.8383   12.8825 C   0  0  0  0  0  0  0  0  0  0  0  0
   18.1505   26.5207   12.4633 C   0  0  0  0  0  0  0  0  0  0  0  0
   17.9180   26.1609   11.1392 C   0  0  0  0  0  0  0  0  0  0  0  0
   17.4728   27.1155   10.2288 C   0  0  0  0  0  0  0  0  0  0  0  0
   17.2749   28.4341   10.6355 C   0  0  0  0  0  0  0  0  0  0  0  0
   17.4971   28.7948   11.9598 C   0  0  0  0  0  0  0  0  0  0  0  0
   20.6688   28.1941   13.7665 N   0  0  0  0  0  0  0  0  0  0  0  0
   21.4309   28.6476   12.7214 C   0  0  0  0  0  0  0  0  0  0  0  0
   21.2942   29.7693   12.2178 O   0  0  0  0  0  0  0  0  0  0  0  0
   22.4661   27.6937   12.1980 C   0  0  0  0  0  0  0  0  0  0  0  0
   21.8490   26.6458   11.2894 C   0  0  0  0  0  0  0  0  0  0  0  0
   22.9390   25.7066   10.8076 C   0  0  0  0  0  0  0  0  0  0  0  0
   23.6246   25.0655   11.5943 O   0  0  0  0  0  0  0  0  0  0  0  0
   23.0923   25.6400    9.4465 N   0  0  0  0  0  0  0  0  0  0  0  0
   24.1055   24.8009    8.8606 C   0  0  0  0  0  0  0  0  0  0  0  0
   18.2719   35.2023   15.6734 H   0  0  0  0  0  0  0  0  0  0  0  0
   16.9511   38.6159   18.1580 H   0  0  0  0  0  0  0  0  0  0  0  0
   16.8203   37.2158   19.2281 H   0  0  0  0  0  0  0  0  0  0  0  0
   15.4431   37.7021   18.1687 H   0  0  0  0  0  0  0  0  0  0  0  0
   14.9929   35.4866   18.4413 H   0  0  0  0  0  0  0  0  0  0  0  0
   14.4849   33.1065   18.0919 H   0  0  0  0  0  0  0  0  0  0  0  0
   15.8374   31.7420   16.5269 H   0  0  0  0  0  0  0  0  0  0  0  0
   19.8947   32.8395   17.4645 H   0  0  0  0  0  0  0  0  0  0  0  0
   20.2045   33.7203   15.9679 H   0  0  0  0  0  0  0  0  0  0  0  0
   21.8169   31.3941   17.0636 H   0  0  0  0  0  0  0  0  0  0  0  0
   23.7240   33.0250   16.7646 H   0  0  0  0  0  0  0  0  0  0  0  0
   22.5553   34.2670   16.1511 H   0  0  0  0  0  0  0  0  0  0  0  0
   21.9221   32.7019   14.2343 H   0  0  0  0  0  0  0  0  0  0  0  0
   23.0957   31.4766   14.8563 H   0  0  0  0  0  0  0  0  0  0  0  0
   18.0503   30.2338   16.3699 H   0  0  0  0  0  0  0  0  0  0  0  0
   19.3223   30.6185   17.4754 H   0  0  0  0  0  0  0  0  0  0  0  0
   21.0201   29.7655   15.7524 H   0  0  0  0  0  0  0  0  0  0  0  0
   19.0870   27.9474   16.7504 H   0  0  0  0  0  0  0  0  0  0  0  0
   19.4984   29.9247   13.7488 H   0  0  0  0  0  0  0  0  0  0  0  0
   17.4363   28.8510   14.6883 H   0  0  0  0  0  0  0  0  0  0  0  0
   18.3017   27.3482   14.9202 H   0  0  0  0  0  0  0  0  0  0  0  0
   18.5224   25.7772   13.1637 H   0  0  0  0  0  0  0  0  0  0  0  0
   18.0869   25.1368   10.8200 H   0  0  0  0  0  0  0  0  0  0  0  0
   17.2759   26.8364    9.1975 H   0  0  0  0  0  0  0  0  0  0  0  0
   16.9503   29.1868    9.9228 H   0  0  0  0  0  0  0  0  0  0  0  0
   17.3502   29.8290   12.2660 H   0  0  0  0  0  0  0  0  0  0  0  0
   20.8244   27.2726   14.1488 H   0  0  0  0  0  0  0  0  0  0  0  0
   22.9936   27.2247   13.0386 H   0  0  0  0  0  0  0  0  0  0  0  0
   23.2107   28.2721   11.6420 H   0  0  0  0  0  0  0  0  0  0  0  0
   21.3358   27.1210   10.4444 H   0  0  0  0  0  0  0  0  0  0  0  0
   21.1100   26.0443   11.8261 H   0  0  0  0  0  0  0  0  0  0  0  0
   22.5075   26.2030    8.8414 H   0  0  0  0  0  0  0  0  0  0  0  0
   24.0550   24.8876    7.7702 H   0  0  0  0  0  0  0  0  0  0  0  0
   23.9319   23.7601    9.1602 H   0  0  0  0  0  0  0  0  0  0  0  0
   25.0936   25.1138    9.2128 H   0  0  0  0  0  0  0  0  0  0  0  0
  1  2  2  0  0  0  0
  2  3  2  0  0  0  0
  2  4  1  0  0  0  0
  2 12  1  0  0  0  0
  4  5  2  0  0  0  0
  4 11  1  0  0  0  0
  5  6  1  0  0  0  0
  5 37  1  0  0  0  0
  6  7  1  0  0  0  0
  6  9  2  0  0  0  0
  7  8  1  0  0  0  0
  8 38  1  0  0  0  0
  8 39  1  0  0  0  0
  8 40  1  0  0  0  0
  9 10  1  0  0  0  0
  9 41  1  0  0  0  0
 10 11  2  0  0  0  0
 10 42  1  0  0  0  0
 11 43  1  0  0  0  0
 12 13  1  0  0  0  0
 12 17  1  0  0  0  0
 13 14  1  0  0  0  0
 13 44  1  0  0  0  0
 13 45  1  0  0  0  0
 14 15  1  0  0  0  0
 14 16  1  0  0  0  0
 14 46  1  0  0  0  0
 15 16  1  0  0  0  0
 15 47  1  0  0  0  0
 15 48  1  0  0  0  0
 16 49  1  0  0  0  0
 16 50  1  0  0  0  0
 17 18  1  0  0  0  0
 17 51  1  0  0  0  0
 17 52  1  0  0  0  0
 18 19  1  0  0  0  0
 18 20  1  0  0  0  0
 18 53  1  6  0  0  0
 19 54  1  0  0  0  0
 20 21  1  0  0  0  0
 20 28  1  0  0  0  0
 20 55  1  6  0  0  0
 21 22  1  0  0  0  0
 21 56  1  0  0  0  0
 21 57  1  0  0  0  0
 22 23  2  0  0  0  0
 22 27  1  0  0  0  0
 23 24  1  0  0  0  0
 23 58  1  0  0  0  0
 24 25  2  0  0  0  0
 24 59  1  0  0  0  0
 25 26  1  0  0  0  0
 25 60  1  0  0  0  0
 26 27  2  0  0  0  0
 26 61  1  0  0  0  0
 27 62  1  0  0  0  0
 28 29  1  0  0  0  0
 28 63  1  0  0  0  0
 29 30  2  0  0  0  0
 29 31  1  0  0  0  0
 31 32  1  0  0  0  0
 31 64  1  0  0  0  0
 31 65  1  0  0  0  0
 32 33  1  0  0  0  0
 32 66  1  0  0  0  0
 32 67  1  0  0  0  0
 33 34  2  0  0  0  0
 33 35  1  0  0  0  0
 35 36  1  0  0  0  0
 35 68  1  0  0  0  0
 36 69  1  0  0  0  0
 36 70  1  0  0  0  0
 36 71  1  0  0  0  0
M  END
$$$$
