MVL
 OpenBabel04051920103D

 26 27  0  0  1  0  0  0  0  0999 V2000
   44.1459   24.4793  100.8827 C   0  0  0  0  0  0  0  0  0  0  0  0
   43.9423   23.1995  100.4218 N   0  3  0  0  0  0  0  0  0  0  0  0
   44.9419   23.5983  103.1281 C   0  0  2  0  0  0  0  0  0  0  0  0
   44.2920   22.2828  102.6424 C   0  0  1  0  0  0  0  0  0  0  0  0
   44.4084   22.0178  101.1323 C   0  0  1  0  0  0  0  0  0  0  0  0
   43.6374   20.7434  100.7282 C   0  0  0  0  0  0  0  0  0  0  0  0
   42.9196   24.6170   99.1246 C   0  0  0  0  0  0  0  0  0  0  0  0
   43.1622   23.2719   99.3052 C   0  0  0  0  0  0  0  0  0  0  0  0
   43.5324   25.3495  100.1027 N   0  0  0  0  0  0  0  0  0  0  0  0
   44.1981   24.0217  104.2969 O   0  0  0  0  0  0  0  0  0  0  0  0
   44.5188   25.9773  102.6756 O   0  0  0  0  0  0  0  0  0  0  0  0
   44.8424   21.1660  103.3596 O   0  0  0  0  0  0  0  0  0  0  0  0
   44.9730   24.7516  102.0932 C   0  0  2  0  0  0  0  0  0  0  0  0
   42.2725   20.7764  101.1464 O   0  0  0  0  0  0  0  0  0  0  0  0
   45.9674   23.4064  103.4653 H   0  0  0  0  0  0  0  0  0  0  0  0
   43.2324   22.3279  102.9210 H   0  0  0  0  0  0  0  0  0  0  0  0
   45.4624   21.8783  100.8530 H   0  0  0  0  0  0  0  0  0  0  0  0
   44.1006   19.8434  101.1436 H   0  0  0  0  0  0  0  0  0  0  0  0
   43.6377   20.6181   99.6404 H   0  0  0  0  0  0  0  0  0  0  0  0
   42.3218   25.0785   98.3578 H   0  0  0  0  0  0  0  0  0  0  0  0
   42.8158   22.4223   98.7471 H   0  0  0  0  0  0  0  0  0  0  0  0
   44.3463   23.3886  105.0154 H   0  0  0  0  0  0  0  0  0  0  0  0
   43.6233   25.7836  103.0146 H   0  0  0  0  0  0  0  0  0  0  0  0
   44.7441   21.3224  104.3150 H   0  0  0  0  0  0  0  0  0  0  0  0
   46.0055   24.9112  101.7654 H   0  0  0  0  0  0  0  0  0  0  0  0
   42.2473   20.7630  102.1182 H   0  0  0  0  0  0  0  0  0  0  0  0
  1  2  2  0  0  0  0
  1  9  1  0  0  0  0
  1 13  1  0  0  0  0
  2  5  1  0  0  0  0
  2  8  1  0  0  0  0
  3  4  1  0  0  0  0
  3 10  1  0  0  0  0
  3 13  1  0  0  0  0
  3 15  1  1  0  0  0
  4  5  1  0  0  0  0
  4 12  1  0  0  0  0
  4 16  1  1  0  0  0
  5  6  1  0  0  0  0
  5 17  1  6  0  0  0
  6 14  1  0  0  0  0
  6 18  1  0  0  0  0
  6 19  1  0  0  0  0
  7  8  2  0  0  0  0
  7  9  1  0  0  0  0
  7 20  1  0  0  0  0
  8 21  1  0  0  0  0
 10 22  1  0  0  0  0
 11 13  1  0  0  0  0
 11 23  1  0  0  0  0
 12 24  1  0  0  0  0
 13 25  1  6  0  0  0
 14 26  1  0  0  0  0
M  CHG  1   2   1
M  END
$$$$
