MZ3
 OpenBabel04051919033D

 71 74  0  0  1  0  0  0  0  0999 V2000
   26.0547   27.3133   11.9246 F   0  0  0  0  0  0  0  0  0  0  0  0
   24.7376   27.1942   11.7016 C   0  0  0  0  0  0  0  0  0  0  0  0
   24.2918   26.1698   10.8735 C   0  0  0  0  0  0  0  0  0  0  0  0
   22.9247   26.0308   10.6302 C   0  0  0  0  0  0  0  0  0  0  0  0
   22.0085   26.9123   11.2223 C   0  0  0  0  0  0  0  0  0  0  0  0
   23.8440   28.0939   12.2888 C   0  0  0  0  0  0  0  0  0  0  0  0
   24.3433   29.1978   13.1659 C   0  0  0  0  0  0  0  0  0  0  0  0
   22.4704   27.9463   12.0401 C   0  0  0  0  0  0  0  0  0  0  0  0
   21.5301   28.9616   12.5829 C   0  0  0  0  0  0  0  0  0  0  0  0
   21.5388   30.0932   12.1245 O   0  0  0  0  0  0  0  0  0  0  0  0
   20.7374   28.5499   13.6264 N   0  0  0  0  0  0  0  0  0  0  0  0
   19.6947   29.4114   14.2145 C   0  0  1  0  0  0  0  0  0  0  0  0
   18.3823   28.6076   14.2243 C   0  0  0  0  0  0  0  0  0  0  0  0
   17.9801   28.1686   12.8433 C   0  0  0  0  0  0  0  0  0  0  0  0
   17.5105   29.1066   11.9204 C   0  0  0  0  0  0  0  0  0  0  0  0
   17.1713   28.7082   10.6331 C   0  0  0  0  0  0  0  0  0  0  0  0
   17.3054   27.3730   10.2591 C   0  0  0  0  0  0  0  0  0  0  0  0
   17.7924   26.4344   11.1676 C   0  0  0  0  0  0  0  0  0  0  0  0
   18.1296   26.8312   12.4578 C   0  0  0  0  0  0  0  0  0  0  0  0
   20.1086   29.8511   15.6446 C   0  0  2  0  0  0  0  0  0  0  0  0
   20.1202   28.7205   16.5375 O   0  0  0  0  0  0  0  0  0  0  0  0
   19.1922   30.9239   16.2569 C   0  0  0  0  0  0  0  0  0  0  0  0
   19.3738   32.2138   15.5776 N   0  0  0  0  0  0  0  0  0  0  0  0
   20.1564   33.2116   16.3312 C   0  0  0  0  0  0  0  0  0  0  0  0
   21.6158   33.1476   16.0359 C   0  0  0  0  0  0  0  0  0  0  0  0
   22.6274   33.1583   16.9764 C   0  0  0  0  0  0  0  0  0  0  0  0
   23.9157   33.1259   16.3784 C   0  0  0  0  0  0  0  0  0  0  0  0
   23.8460   33.1214   15.0041 C   0  0  0  0  0  0  0  0  0  0  0  0
   22.2351   33.1576   14.4401 S   0  0  0  0  0  0  0  0  0  0  0  0
   18.0823   32.7679   14.6411 S   0  0  0  0  0  0  0  0  0  0  0  0
   18.5800   33.7392   13.6799 O   0  0  0  0  0  0  0  0  0  0  0  0
   17.2958   31.6278   14.2132 O   0  0  0  0  0  0  0  0  0  0  0  0
   17.0956   33.6714   15.8057 C   0  0  0  0  0  0  0  0  0  0  0  0
   17.3656   35.0323   16.0063 C   0  0  0  0  0  0  0  0  0  0  0  0
   16.5681   35.7945   16.8539 C   0  0  0  0  0  0  0  0  0  0  0  0
   16.9606   37.0950   16.9804 O   0  0  0  0  0  0  0  0  0  0  0  0
   16.1250   37.9820   17.7139 C   0  0  0  0  0  0  0  0  0  0  0  0
   15.4866   35.1838   17.4819 C   0  0  0  0  0  0  0  0  0  0  0  0
   15.2011   33.8232   17.2578 C   0  0  0  0  0  0  0  0  0  0  0  0
   16.0077   33.0590   16.4195 C   0  0  0  0  0  0  0  0  0  0  0  0
   25.0125   25.4955   10.4188 H   0  0  0  0  0  0  0  0  0  0  0  0
   22.5763   25.2445    9.9651 H   0  0  0  0  0  0  0  0  0  0  0  0
   20.9474   26.8090   11.0089 H   0  0  0  0  0  0  0  0  0  0  0  0
   25.4321   29.1758   13.2551 H   0  0  0  0  0  0  0  0  0  0  0  0
   23.9158   29.0868   14.1672 H   0  0  0  0  0  0  0  0  0  0  0  0
   24.0618   30.1683   12.7477 H   0  0  0  0  0  0  0  0  0  0  0  0
   20.7853   27.5955   13.9553 H   0  0  0  0  0  0  0  0  0  0  0  0
   19.5845   30.3056   13.5864 H   0  0  0  0  0  0  0  0  0  0  0  0
   17.5573   29.1660   14.6747 H   0  0  0  0  0  0  0  0  0  0  0  0
   18.5117   27.7116   14.8418 H   0  0  0  0  0  0  0  0  0  0  0  0
   17.4244   30.1556   12.1949 H   0  0  0  0  0  0  0  0  0  0  0  0
   16.8009   29.4441    9.9258 H   0  0  0  0  0  0  0  0  0  0  0  0
   17.0332   27.0659    9.2540 H   0  0  0  0  0  0  0  0  0  0  0  0
   17.9081   25.3965   10.8717 H   0  0  0  0  0  0  0  0  0  0  0  0
   18.5248   26.0985   13.1575 H   0  0  0  0  0  0  0  0  0  0  0  0
   21.1364   30.2293   15.6106 H   0  0  0  0  0  0  0  0  0  0  0  0
   19.2074   28.3952   16.6196 H   0  0  0  0  0  0  0  0  0  0  0  0
   19.3756   31.0107   17.3337 H   0  0  0  0  0  0  0  0  0  0  0  0
   18.1512   30.5994   16.2022 H   0  0  0  0  0  0  0  0  0  0  0  0
   20.0171   33.0430   17.4087 H   0  0  0  0  0  0  0  0  0  0  0  0
   19.8272   34.2327   16.1510 H   0  0  0  0  0  0  0  0  0  0  0  0
   22.4416   33.1923   18.0410 H   0  0  0  0  0  0  0  0  0  0  0  0
   24.8430   33.1234   16.9300 H   0  0  0  0  0  0  0  0  0  0  0  0
   24.6679   33.1031   14.3029 H   0  0  0  0  0  0  0  0  0  0  0  0
   18.2033   35.5036   15.4951 H   0  0  0  0  0  0  0  0  0  0  0  0
   16.6003   38.9685   17.6983 H   0  0  0  0  0  0  0  0  0  0  0  0
   16.0355   37.6779   18.7609 H   0  0  0  0  0  0  0  0  0  0  0  0
   15.1404   38.0823   17.2455 H   0  0  0  0  0  0  0  0  0  0  0  0
   14.8333   35.7334   18.1483 H   0  0  0  0  0  0  0  0  0  0  0  0
   14.3332   33.3638   17.7248 H   0  0  0  0  0  0  0  0  0  0  0  0
   15.7679   32.0164   16.2245 H   0  0  0  0  0  0  0  0  0  0  0  0
  1  2  1  0  0  0  0
  2  3  2  0  0  0  0
  2  6  1  0  0  0  0
  3  4  1  0  0  0  0
  3 41  1  0  0  0  0
  4  5  2  0  0  0  0
  4 42  1  0  0  0  0
  5  8  1  0  0  0  0
  5 43  1  0  0  0  0
  6  7  1  0  0  0  0
  6  8  2  0  0  0  0
  7 44  1  0  0  0  0
  7 45  1  0  0  0  0
  7 46  1  0  0  0  0
  8  9  1  0  0  0  0
  9 10  2  0  0  0  0
  9 11  1  0  0  0  0
 11 12  1  0  0  0  0
 11 47  1  0  0  0  0
 12 13  1  0  0  0  0
 12 20  1  0  0  0  0
 12 48  1  6  0  0  0
 13 14  1  0  0  0  0
 13 49  1  0  0  0  0
 13 50  1  0  0  0  0
 14 15  2  0  0  0  0
 14 19  1  0  0  0  0
 15 16  1  0  0  0  0
 15 51  1  0  0  0  0
 16 17  2  0  0  0  0
 16 52  1  0  0  0  0
 17 18  1  0  0  0  0
 17 53  1  0  0  0  0
 18 19  2  0  0  0  0
 18 54  1  0  0  0  0
 19 55  1  0  0  0  0
 20 21  1  0  0  0  0
 20 22  1  0  0  0  0
 20 56  1  6  0  0  0
 21 57  1  0  0  0  0
 22 23  1  0  0  0  0
 22 58  1  0  0  0  0
 22 59  1  0  0  0  0
 23 24  1  0  0  0  0
 23 30  1  0  0  0  0
 24 25  1  0  0  0  0
 24 60  1  0  0  0  0
 24 61  1  0  0  0  0
 25 26  2  0  0  0  0
 25 29  1  0  0  0  0
 26 27  1  0  0  0  0
 26 62  1  0  0  0  0
 27 28  2  0  0  0  0
 27 63  1  0  0  0  0
 28 29  1  0  0  0  0
 28 64  1  0  0  0  0
 30 31  2  0  0  0  0
 30 32  2  0  0  0  0
 30 33  1  0  0  0  0
 33 34  2  0  0  0  0
 33 40  1  0  0  0  0
 34 35  1  0  0  0  0
 34 65  1  0  0  0  0
 35 36  1  0  0  0  0
 35 38  2  0  0  0  0
 36 37  1  0  0  0  0
 37 66  1  0  0  0  0
 37 67  1  0  0  0  0
 37 68  1  0  0  0  0
 38 39  1  0  0  0  0
 38 69  1  0  0  0  0
 39 40  2  0  0  0  0
 39 70  1  0  0  0  0
 40 71  1  0  0  0  0
M  END
$$$$
