MZ6
 OpenBabel04051919043D

 72 75  0  0  1  0  0  0  0  0999 V2000
   21.5630   29.9329   12.2413 O   0  0  0  0  0  0  0  0  0  0  0  0
   21.4322   28.7674   12.6201 C   0  0  0  0  0  0  0  0  0  0  0  0
   22.1467   27.6777   11.9491 C   0  0  0  0  0  0  0  0  0  0  0  0
   23.4997   27.7997   11.6627 C   0  0  0  0  0  0  0  0  0  0  0  0
   24.1438   26.7537   11.0158 C   0  0  0  0  0  0  0  0  0  0  0  0
   25.4700   26.8818   10.7498 O   0  0  0  0  0  0  0  0  0  0  0  0
   23.4580   25.5882   10.6462 C   0  0  0  0  0  0  0  0  0  0  0  0
   22.1063   25.4708   10.9371 C   0  0  0  0  0  0  0  0  0  0  0  0
   21.4550   26.5115   11.5853 C   0  0  0  0  0  0  0  0  0  0  0  0
   20.6420   28.3700   13.6623 N   0  0  0  0  0  0  0  0  0  0  0  0
   19.6177   29.2191   14.2580 C   0  0  1  0  0  0  0  0  0  0  0  0
   18.2833   28.4501   14.1905 C   0  0  0  0  0  0  0  0  0  0  0  0
   17.9186   28.0922   12.7639 C   0  0  0  0  0  0  0  0  0  0  0  0
   17.5448   29.0862   11.8525 C   0  0  0  0  0  0  0  0  0  0  0  0
   17.2787   28.7657   10.5218 C   0  0  0  0  0  0  0  0  0  0  0  0
   17.3985   27.4498   10.0830 C   0  0  0  0  0  0  0  0  0  0  0  0
   17.7794   26.4531   10.9772 C   0  0  0  0  0  0  0  0  0  0  0  0
   18.0253   26.7706   12.3146 C   0  0  0  0  0  0  0  0  0  0  0  0
   20.0495   29.5871   15.6900 C   0  0  2  0  0  0  0  0  0  0  0  0
   19.9928   28.4195   16.5286 O   0  0  0  0  0  0  0  0  0  0  0  0
   19.1910   30.7107   16.2960 C   0  0  0  0  0  0  0  0  0  0  0  0
   19.3894   31.9801   15.5588 N   0  0  0  0  0  0  0  0  0  0  0  0
   20.1756   32.9960   16.2850 C   0  0  0  0  0  0  0  0  0  0  0  0
   21.6635   32.6518   16.3284 C   0  0  2  0  0  0  0  0  0  0  0  0
   22.4032   33.5908   17.2923 C   0  0  0  0  0  0  0  0  0  0  0  0
   22.2049   35.0730   17.0090 C   0  0  0  0  0  0  0  0  0  0  0  0
   22.2928   32.6716   14.9351 C   0  0  0  0  0  0  0  0  0  0  0  0
   18.0766   32.5877   14.6700 S   0  0  0  0  0  0  0  0  0  0  0  0
   17.2519   31.4753   14.2437 O   0  0  0  0  0  0  0  0  0  0  0  0
   18.5727   33.5661   13.7297 O   0  0  0  0  0  0  0  0  0  0  0  0
   17.1556   33.4628   15.9147 C   0  0  0  0  0  0  0  0  0  0  0  0
   16.2158   32.7583   16.6581 C   0  0  0  0  0  0  0  0  0  0  0  0
   15.4578   33.4241   17.6193 C   0  0  0  0  0  0  0  0  0  0  0  0
   15.6359   34.8100   17.8257 C   0  0  0  0  0  0  0  0  0  0  0  0
   16.5826   35.4906   17.0548 C   0  0  0  0  0  0  0  0  0  0  0  0
   17.3592   34.8399   16.0864 C   0  0  0  0  0  0  0  0  0  0  0  0
   14.9500   35.5907   18.7416 N   0  0  0  0  0  0  0  0  0  0  0  0
   15.3633   36.8375   18.6554 C   0  0  0  0  0  0  0  0  0  0  0  0
   16.5879   37.1551   17.5062 S   0  0  0  0  0  0  0  0  0  0  0  0
   24.0430   28.6968   11.9497 H   0  0  0  0  0  0  0  0  0  0  0  0
   25.7614   26.0823   10.2823 H   0  0  0  0  0  0  0  0  0  0  0  0
   23.9607   24.7816   10.1293 H   0  0  0  0  0  0  0  0  0  0  0  0
   21.5503   24.5818   10.6519 H   0  0  0  0  0  0  0  0  0  0  0  0
   20.4027   26.4315   11.7797 H   0  0  0  0  0  0  0  0  0  0  0  0
   20.6275   27.3921   13.9333 H   0  0  0  0  0  0  0  0  0  0  0  0
   19.5486   30.1383   13.6637 H   0  0  0  0  0  0  0  0  0  0  0  0
   17.4613   29.0159   14.6361 H   0  0  0  0  0  0  0  0  0  0  0  0
   18.3662   27.5263   14.7783 H   0  0  0  0  0  0  0  0  0  0  0  0
   17.4715   30.1234   12.1696 H   0  0  0  0  0  0  0  0  0  0  0  0
   16.9807   29.5489    9.8302 H   0  0  0  0  0  0  0  0  0  0  0  0
   17.1932   27.2033    9.0454 H   0  0  0  0  0  0  0  0  0  0  0  0
   17.9012   25.4309   10.6307 H   0  0  0  0  0  0  0  0  0  0  0  0
   18.3622   25.9893   12.9922 H   0  0  0  0  0  0  0  0  0  0  0  0
   21.1008   29.8998   15.6583 H   0  0  0  0  0  0  0  0  0  0  0  0
   20.3281   28.6659   17.4074 H   0  0  0  0  0  0  0  0  0  0  0  0
   19.4487   30.8431   17.3542 H   0  0  0  0  0  0  0  0  0  0  0  0
   18.1421   30.4096   16.3042 H   0  0  0  0  0  0  0  0  0  0  0  0
   19.7765   33.0734   17.3049 H   0  0  0  0  0  0  0  0  0  0  0  0
   20.0471   33.9718   15.8088 H   0  0  0  0  0  0  0  0  0  0  0  0
   21.7830   31.6408   16.7290 H   0  0  0  0  0  0  0  0  0  0  0  0
   23.4745   33.3620   17.2640 H   0  0  0  0  0  0  0  0  0  0  0  0
   22.0580   33.3840   18.3129 H   0  0  0  0  0  0  0  0  0  0  0  0
   22.7581   35.6696   17.7372 H   0  0  0  0  0  0  0  0  0  0  0  0
   21.1511   35.3588   17.0872 H   0  0  0  0  0  0  0  0  0  0  0  0
   22.5612   35.3361   16.0095 H   0  0  0  0  0  0  0  0  0  0  0  0
   21.7690   31.9962   14.2519 H   0  0  0  0  0  0  0  0  0  0  0  0
   23.3357   32.3422   14.9896 H   0  0  0  0  0  0  0  0  0  0  0  0
   22.2737   33.6718   14.4930 H   0  0  0  0  0  0  0  0  0  0  0  0
   16.0602   31.6950   16.4867 H   0  0  0  0  0  0  0  0  0  0  0  0
   14.7229   32.8752   18.1997 H   0  0  0  0  0  0  0  0  0  0  0  0
   18.0877   35.3915   15.4989 H   0  0  0  0  0  0  0  0  0  0  0  0
   14.9552   37.6215   19.2764 H   0  0  0  0  0  0  0  0  0  0  0  0
  1  2  2  0  0  0  0
  2  3  1  0  0  0  0
  2 10  1  0  0  0  0
  3  4  2  0  0  0  0
  3  9  1  0  0  0  0
  4  5  1  0  0  0  0
  4 40  1  0  0  0  0
  5  6  1  0  0  0  0
  5  7  2  0  0  0  0
  6 41  1  0  0  0  0
  7  8  1  0  0  0  0
  7 42  1  0  0  0  0
  8  9  2  0  0  0  0
  8 43  1  0  0  0  0
  9 44  1  0  0  0  0
 10 11  1  0  0  0  0
 10 45  1  0  0  0  0
 11 12  1  0  0  0  0
 11 19  1  0  0  0  0
 11 46  1  6  0  0  0
 12 13  1  0  0  0  0
 12 47  1  0  0  0  0
 12 48  1  0  0  0  0
 13 14  2  0  0  0  0
 13 18  1  0  0  0  0
 14 15  1  0  0  0  0
 14 49  1  0  0  0  0
 15 16  2  0  0  0  0
 15 50  1  0  0  0  0
 16 17  1  0  0  0  0
 16 51  1  0  0  0  0
 17 18  2  0  0  0  0
 17 52  1  0  0  0  0
 18 53  1  0  0  0  0
 19 20  1  0  0  0  0
 19 21  1  0  0  0  0
 19 54  1  6  0  0  0
 20 55  1  0  0  0  0
 21 22  1  0  0  0  0
 21 56  1  0  0  0  0
 21 57  1  0  0  0  0
 22 23  1  0  0  0  0
 22 28  1  0  0  0  0
 23 24  1  0  0  0  0
 23 58  1  0  0  0  0
 23 59  1  0  0  0  0
 24 25  1  0  0  0  0
 24 27  1  0  0  0  0
 24 60  1  1  0  0  0
 25 26  1  0  0  0  0
 25 61  1  0  0  0  0
 25 62  1  0  0  0  0
 26 63  1  0  0  0  0
 26 64  1  0  0  0  0
 26 65  1  0  0  0  0
 27 66  1  0  0  0  0
 27 67  1  0  0  0  0
 27 68  1  0  0  0  0
 28 29  2  0  0  0  0
 28 30  2  0  0  0  0
 28 31  1  0  0  0  0
 31 32  2  0  0  0  0
 31 36  1  0  0  0  0
 32 33  1  0  0  0  0
 32 69  1  0  0  0  0
 33 34  2  0  0  0  0
 33 70  1  0  0  0  0
 34 35  1  0  0  0  0
 34 37  1  0  0  0  0
 35 36  2  0  0  0  0
 35 39  1  0  0  0  0
 36 71  1  0  0  0  0
 37 38  2  0  0  0  0
 38 39  1  0  0  0  0
 38 72  1  0  0  0  0
M  END
$$$$
