MZ7
 OpenBabel04051919043D

 80 82  0  0  1  0  0  0  0  0999 V2000
   18.6852   33.4438   13.6157 O   0  0  0  0  0  0  0  0  0  0  0  0
   18.1263   32.4506   14.5095 S   0  0  0  0  0  0  0  0  0  0  0  0
   17.3319   31.3482   14.0204 O   0  0  0  0  0  0  0  0  0  0  0  0
   17.1381   33.3175   15.7038 C   0  0  0  0  0  0  0  0  0  0  0  0
   16.1650   32.6222   16.4173 C   0  0  0  0  0  0  0  0  0  0  0  0
   15.3599   33.3054   17.3296 C   0  0  0  0  0  0  0  0  0  0  0  0
   17.3380   34.6943   15.8642 C   0  0  0  0  0  0  0  0  0  0  0  0
   16.5196   35.3587   16.7827 C   0  0  0  0  0  0  0  0  0  0  0  0
   15.5321   34.6941   17.5166 C   0  0  0  0  0  0  0  0  0  0  0  0
   14.8026   35.4936   18.3758 N   0  0  0  0  0  0  0  0  0  0  0  0
   16.5139   37.0271   17.2024 S   0  0  0  0  0  0  0  0  0  0  0  0
   15.2252   36.7333   18.2863 C   0  0  0  0  0  0  0  0  0  0  0  0
   19.3840   31.8309   15.4748 N   0  0  0  0  0  0  0  0  0  0  0  0
   20.1071   32.8138   16.3179 C   0  0  0  0  0  0  0  0  0  0  0  0
   21.6001   32.5242   16.3685 C   0  0  0  0  0  0  0  0  0  0  0  0
   22.3650   33.6465   17.0793 C   0  0  0  0  0  0  0  0  0  0  0  0
   22.2929   35.0212   16.4038 C   0  0  0  0  0  0  0  0  0  0  0  0
   22.7173   35.0011   14.9442 C   0  0  0  0  0  0  0  0  0  0  0  0
   19.1440   30.5261   16.1278 C   0  0  0  0  0  0  0  0  0  0  0  0
   20.0535   29.4480   15.5177 C   0  0  1  0  0  0  0  0  0  0  0  0
   20.0953   28.3120   16.3994 O   0  0  0  0  0  0  0  0  0  0  0  0
   19.6464   29.0247   14.0837 C   0  0  1  0  0  0  0  0  0  0  0  0
   20.7300   28.2252   13.5045 N   0  0  0  0  0  0  0  0  0  0  0  0
   21.4844   28.6377   12.4276 C   0  0  0  0  0  0  0  0  0  0  0  0
   21.3700   29.7150   11.8642 O   0  0  0  0  0  0  0  0  0  0  0  0
   22.4569   27.5377   11.9709 C   0  0  2  0  0  0  0  0  0  0  0  0
   23.8572   28.0941   11.6879 C   0  0  0  0  0  0  0  0  0  0  0  0
   24.7940   26.9584   11.2635 C   0  0  0  0  0  0  0  0  0  0  0  0
   24.4027   28.7793   12.9433 C   0  0  0  0  0  0  0  0  0  0  0  0
   21.9055   26.8779   10.7986 N   0  0  0  0  0  0  0  0  0  0  0  0
   21.6479   25.5303   10.8012 C   0  0  0  0  0  0  0  0  0  0  0  0
   21.7963   24.8081   11.7816 O   0  0  0  0  0  0  0  0  0  0  0  0
   21.2014   25.0021    9.4708 C   0  0  0  0  0  0  0  0  0  0  0  0
   18.3490   28.1902   14.0492 C   0  0  0  0  0  0  0  0  0  0  0  0
   17.9628   27.7946   12.6454 C   0  0  0  0  0  0  0  0  0  0  0  0
   18.2097   26.4960   12.1822 C   0  0  0  0  0  0  0  0  0  0  0  0
   17.9010   26.1511   10.8683 C   0  0  0  0  0  0  0  0  0  0  0  0
   17.3501   27.0983   10.0080 C   0  0  0  0  0  0  0  0  0  0  0  0
   17.1078   28.3943   10.4601 C   0  0  0  0  0  0  0  0  0  0  0  0
   17.4127   28.7407   11.7728 C   0  0  0  0  0  0  0  0  0  0  0  0
   16.0196   31.5556   16.2642 H   0  0  0  0  0  0  0  0  0  0  0  0
   14.5906   32.7783   17.8863 H   0  0  0  0  0  0  0  0  0  0  0  0
   18.0985   35.2341   15.3049 H   0  0  0  0  0  0  0  0  0  0  0  0
   14.7894   37.5361   18.8658 H   0  0  0  0  0  0  0  0  0  0  0  0
   19.6889   32.8091   17.3320 H   0  0  0  0  0  0  0  0  0  0  0  0
   19.9583   33.8160   15.9137 H   0  0  0  0  0  0  0  0  0  0  0  0
   21.9944   32.3671   15.3583 H   0  0  0  0  0  0  0  0  0  0  0  0
   21.7763   31.5886   16.9120 H   0  0  0  0  0  0  0  0  0  0  0  0
   23.4161   33.3490   17.1671 H   0  0  0  0  0  0  0  0  0  0  0  0
   21.9805   33.7450   18.1027 H   0  0  0  0  0  0  0  0  0  0  0  0
   22.9417   35.7134   16.9532 H   0  0  0  0  0  0  0  0  0  0  0  0
   21.2802   35.4333   16.4807 H   0  0  0  0  0  0  0  0  0  0  0  0
   22.6719   36.0099   14.5233 H   0  0  0  0  0  0  0  0  0  0  0  0
   22.0594   34.3677   14.3416 H   0  0  0  0  0  0  0  0  0  0  0  0
   23.7424   34.6321   14.8436 H   0  0  0  0  0  0  0  0  0  0  0  0
   18.0983   30.2188   16.0570 H   0  0  0  0  0  0  0  0  0  0  0  0
   19.3266   30.5965   17.2069 H   0  0  0  0  0  0  0  0  0  0  0  0
   21.0820   29.8281   15.4808 H   0  0  0  0  0  0  0  0  0  0  0  0
   19.1848   28.0056   16.5499 H   0  0  0  0  0  0  0  0  0  0  0  0
   19.5290   29.9211   13.4652 H   0  0  0  0  0  0  0  0  0  0  0  0
   20.8549   27.2917   13.8653 H   0  0  0  0  0  0  0  0  0  0  0  0
   22.5490   26.8049   12.7819 H   0  0  0  0  0  0  0  0  0  0  0  0
   23.8118   28.8319   10.8746 H   0  0  0  0  0  0  0  0  0  0  0  0
   25.8052   27.3324   11.0873 H   0  0  0  0  0  0  0  0  0  0  0  0
   24.4529   26.4840   10.3373 H   0  0  0  0  0  0  0  0  0  0  0  0
   24.8460   26.1819   12.0363 H   0  0  0  0  0  0  0  0  0  0  0  0
   23.7625   29.6071   13.2598 H   0  0  0  0  0  0  0  0  0  0  0  0
   25.4004   29.1828   12.7631 H   0  0  0  0  0  0  0  0  0  0  0  0
   24.4656   28.0705   13.7791 H   0  0  0  0  0  0  0  0  0  0  0  0
   21.7168   27.4401    9.9769 H   0  0  0  0  0  0  0  0  0  0  0  0
   21.0180   23.9269    9.5508 H   0  0  0  0  0  0  0  0  0  0  0  0
   21.9825   25.1741    8.7252 H   0  0  0  0  0  0  0  0  0  0  0  0
   20.2805   25.5007    9.1640 H   0  0  0  0  0  0  0  0  0  0  0  0
   17.5132   28.7331   14.5020 H   0  0  0  0  0  0  0  0  0  0  0  0
   18.4688   27.2760   14.6451 H   0  0  0  0  0  0  0  0  0  0  0  0
   18.6611   25.7514   12.8344 H   0  0  0  0  0  0  0  0  0  0  0  0
   18.1014   25.1438   10.5152 H   0  0  0  0  0  0  0  0  0  0  0  0
   17.1150   26.8324    8.9827 H   0  0  0  0  0  0  0  0  0  0  0  0
   16.6869   29.1407    9.7922 H   0  0  0  0  0  0  0  0  0  0  0  0
   17.2362   29.7603   12.1060 H   0  0  0  0  0  0  0  0  0  0  0  0
  1  2  2  0  0  0  0
  2  3  2  0  0  0  0
  2  4  1  0  0  0  0
  2 13  1  0  0  0  0
  4  5  2  0  0  0  0
  4  7  1  0  0  0  0
  5  6  1  0  0  0  0
  5 41  1  0  0  0  0
  6  9  2  0  0  0  0
  6 42  1  0  0  0  0
  7  8  2  0  0  0  0
  7 43  1  0  0  0  0
  8  9  1  0  0  0  0
  8 11  1  0  0  0  0
  9 10  1  0  0  0  0
 10 12  2  0  0  0  0
 11 12  1  0  0  0  0
 12 44  1  0  0  0  0
 13 14  1  0  0  0  0
 13 19  1  0  0  0  0
 14 15  1  0  0  0  0
 14 45  1  0  0  0  0
 14 46  1  0  0  0  0
 15 16  1  0  0  0  0
 15 47  1  0  0  0  0
 15 48  1  0  0  0  0
 16 17  1  0  0  0  0
 16 49  1  0  0  0  0
 16 50  1  0  0  0  0
 17 18  1  0  0  0  0
 17 51  1  0  0  0  0
 17 52  1  0  0  0  0
 18 53  1  0  0  0  0
 18 54  1  0  0  0  0
 18 55  1  0  0  0  0
 19 20  1  0  0  0  0
 19 56  1  0  0  0  0
 19 57  1  0  0  0  0
 20 21  1  0  0  0  0
 20 22  1  0  0  0  0
 20 58  1  6  0  0  0
 21 59  1  0  0  0  0
 22 23  1  0  0  0  0
 22 34  1  0  0  0  0
 22 60  1  6  0  0  0
 23 24  1  0  0  0  0
 23 61  1  0  0  0  0
 24 25  2  0  0  0  0
 24 26  1  0  0  0  0
 26 27  1  0  0  0  0
 26 30  1  0  0  0  0
 26 62  1  1  0  0  0
 27 28  1  0  0  0  0
 27 29  1  0  0  0  0
 27 63  1  0  0  0  0
 28 64  1  0  0  0  0
 28 65  1  0  0  0  0
 28 66  1  0  0  0  0
 29 67  1  0  0  0  0
 29 68  1  0  0  0  0
 29 69  1  0  0  0  0
 30 31  1  0  0  0  0
 30 70  1  0  0  0  0
 31 32  2  0  0  0  0
 31 33  1  0  0  0  0
 33 71  1  0  0  0  0
 33 72  1  0  0  0  0
 33 73  1  0  0  0  0
 34 35  1  0  0  0  0
 34 74  1  0  0  0  0
 34 75  1  0  0  0  0
 35 36  2  0  0  0  0
 35 40  1  0  0  0  0
 36 37  1  0  0  0  0
 36 76  1  0  0  0  0
 37 38  2  0  0  0  0
 37 77  1  0  0  0  0
 38 39  1  0  0  0  0
 38 78  1  0  0  0  0
 39 40  2  0  0  0  0
 39 79  1  0  0  0  0
 40 80  1  0  0  0  0
M  END
$$$$
