MZ8
 OpenBabel04051919043D

 69 72  0  0  1  0  0  0  0  0999 V2000
   18.7228   33.6651   13.7801 O   0  0  0  0  0  0  0  0  0  0  0  0
   18.2006   32.6737   14.7066 S   0  0  0  0  0  0  0  0  0  0  0  0
   17.3679   31.5935   14.2577 O   0  0  0  0  0  0  0  0  0  0  0  0
   17.2915   33.5574   15.9457 C   0  0  0  0  0  0  0  0  0  0  0  0
   17.5103   34.9323   16.1206 C   0  0  0  0  0  0  0  0  0  0  0  0
   16.7361   35.5891   17.0827 C   0  0  0  0  0  0  0  0  0  0  0  0
   16.7675   37.2517   17.5290 S   0  0  0  0  0  0  0  0  0  0  0  0
   15.5236   36.9543   18.6639 C   0  0  0  0  0  0  0  0  0  0  0  0
   15.0918   35.7171   18.7532 N   0  0  0  0  0  0  0  0  0  0  0  0
   15.7726   34.9212   17.8466 C   0  0  0  0  0  0  0  0  0  0  0  0
   15.5740   33.5386   17.6381 C   0  0  0  0  0  0  0  0  0  0  0  0
   16.3302   32.8680   16.6766 C   0  0  0  0  0  0  0  0  0  0  0  0
   19.5113   32.0340   15.5913 N   0  0  0  0  0  0  0  0  0  0  0  0
   20.3193   33.0122   16.3532 C   0  0  0  0  0  0  0  0  0  0  0  0
   21.8004   32.6417   16.3743 C   0  0  0  0  0  0  0  0  0  0  0  0
   22.4105   32.6230   14.9742 C   0  0  0  0  0  0  0  0  0  0  0  0
   22.5386   33.6378   17.2704 C   0  0  0  0  0  0  0  0  0  0  0  0
   19.2668   30.7505   16.2881 C   0  0  0  0  0  0  0  0  0  0  0  0
   20.0900   29.6079   15.6698 C   0  0  1  0  0  0  0  0  0  0  0  0
   20.0064   28.4491   16.5182 O   0  0  0  0  0  0  0  0  0  0  0  0
   19.6279   29.2494   14.2407 C   0  0  2  0  0  0  0  0  0  0  0  0
   18.2862   28.4883   14.1934 C   0  0  0  0  0  0  0  0  0  0  0  0
   17.8964   28.1446   12.7690 C   0  0  0  0  0  0  0  0  0  0  0  0
   17.9346   26.8167   12.3247 C   0  0  0  0  0  0  0  0  0  0  0  0
   17.6535   26.5081   10.9934 C   0  0  0  0  0  0  0  0  0  0  0  0
   17.3161   27.5216   10.0991 C   0  0  0  0  0  0  0  0  0  0  0  0
   17.2744   28.8448   10.5310 C   0  0  0  0  0  0  0  0  0  0  0  0
   17.5663   29.1554   11.8581 C   0  0  0  0  0  0  0  0  0  0  0  0
   20.6372   28.3948   13.6112 N   0  0  0  0  0  0  0  0  0  0  0  0
   21.4662   28.8201   12.6057 C   0  0  0  0  0  0  0  0  0  0  0  0
   21.6422   29.9865   12.2846 O   0  0  0  0  0  0  0  0  0  0  0  0
   22.1731   27.7289   11.9063 C   0  0  0  0  0  0  0  0  0  0  0  0
   21.4691   26.5879   11.5017 C   0  0  0  0  0  0  0  0  0  0  0  0
   22.1152   25.5615   10.8145 C   0  0  0  0  0  0  0  0  0  0  0  0
   23.4745   25.6803   10.5350 C   0  0  0  0  0  0  0  0  0  0  0  0
   24.1629   26.8220   10.9414 C   0  0  0  0  0  0  0  0  0  0  0  0
   25.4922   26.9547   10.6824 O   0  0  0  0  0  0  0  0  0  0  0  0
   23.5268   27.8517   11.6182 C   0  0  0  0  0  0  0  0  0  0  0  0
   18.2487   35.4764   15.5374 H   0  0  0  0  0  0  0  0  0  0  0  0
   15.1246   37.7546   19.2725 H   0  0  0  0  0  0  0  0  0  0  0  0
   14.8304   32.9977   18.2101 H   0  0  0  0  0  0  0  0  0  0  0  0
   16.1584   31.8062   16.4963 H   0  0  0  0  0  0  0  0  0  0  0  0
   19.9310   33.0554   17.3780 H   0  0  0  0  0  0  0  0  0  0  0  0
   20.2136   34.0169   15.9284 H   0  0  0  0  0  0  0  0  0  0  0  0
   21.9242   31.6488   16.8156 H   0  0  0  0  0  0  0  0  0  0  0  0
   23.4749   32.3715   15.0225 H   0  0  0  0  0  0  0  0  0  0  0  0
   22.3097   33.5933   14.4762 H   0  0  0  0  0  0  0  0  0  0  0  0
   21.9233   31.8710   14.3477 H   0  0  0  0  0  0  0  0  0  0  0  0
   22.0874   33.6571   18.2669 H   0  0  0  0  0  0  0  0  0  0  0  0
   22.4922   34.6517   16.8578 H   0  0  0  0  0  0  0  0  0  0  0  0
   23.5895   33.3557   17.3780 H   0  0  0  0  0  0  0  0  0  0  0  0
   18.2100   30.4823   16.2733 H   0  0  0  0  0  0  0  0  0  0  0  0
   19.5136   30.8479   17.3516 H   0  0  0  0  0  0  0  0  0  0  0  0
   21.1489   29.8892   15.6293 H   0  0  0  0  0  0  0  0  0  0  0  0
   20.3887   28.6856   17.3811 H   0  0  0  0  0  0  0  0  0  0  0  0
   19.5539   30.1724   13.6571 H   0  0  0  0  0  0  0  0  0  0  0  0
   17.4739   29.0552   14.6557 H   0  0  0  0  0  0  0  0  0  0  0  0
   18.3741   27.5565   14.7681 H   0  0  0  0  0  0  0  0  0  0  0  0
   18.2295   26.0203   13.0037 H   0  0  0  0  0  0  0  0  0  0  0  0
   17.7090   25.4786   10.6516 H   0  0  0  0  0  0  0  0  0  0  0  0
   17.0845   27.2820    9.0655 H   0  0  0  0  0  0  0  0  0  0  0  0
   17.0186   29.6406    9.8367 H   0  0  0  0  0  0  0  0  0  0  0  0
   17.5515   30.1965   12.1723 H   0  0  0  0  0  0  0  0  0  0  0  0
   20.5874   27.4104   13.8376 H   0  0  0  0  0  0  0  0  0  0  0  0
   20.4064   26.5130   11.6848 H   0  0  0  0  0  0  0  0  0  0  0  0
   21.5501   24.6946   10.4879 H   0  0  0  0  0  0  0  0  0  0  0  0
   23.9744   24.8946    9.9761 H   0  0  0  0  0  0  0  0  0  0  0  0
   25.9288   26.1633   11.0419 H   0  0  0  0  0  0  0  0  0  0  0  0
   24.0808   28.7387   11.9280 H   0  0  0  0  0  0  0  0  0  0  0  0
  1  2  2  0  0  0  0
  2  3  2  0  0  0  0
  2  4  1  0  0  0  0
  2 13  1  0  0  0  0
  4  5  2  0  0  0  0
  4 12  1  0  0  0  0
  5  6  1  0  0  0  0
  5 39  1  0  0  0  0
  6  7  1  0  0  0  0
  6 10  2  0  0  0  0
  7  8  1  0  0  0  0
  8  9  2  0  0  0  0
  8 40  1  0  0  0  0
  9 10  1  0  0  0  0
 10 11  1  0  0  0  0
 11 12  2  0  0  0  0
 11 41  1  0  0  0  0
 12 42  1  0  0  0  0
 13 14  1  0  0  0  0
 13 18  1  0  0  0  0
 14 15  1  0  0  0  0
 14 43  1  0  0  0  0
 14 44  1  0  0  0  0
 15 16  1  0  0  0  0
 15 17  1  0  0  0  0
 15 45  1  0  0  0  0
 16 46  1  0  0  0  0
 16 47  1  0  0  0  0
 16 48  1  0  0  0  0
 17 49  1  0  0  0  0
 17 50  1  0  0  0  0
 17 51  1  0  0  0  0
 18 19  1  0  0  0  0
 18 52  1  0  0  0  0
 18 53  1  0  0  0  0
 19 20  1  0  0  0  0
 19 21  1  0  0  0  0
 19 54  1  6  0  0  0
 20 55  1  0  0  0  0
 21 22  1  0  0  0  0
 21 29  1  0  0  0  0
 21 56  1  6  0  0  0
 22 23  1  0  0  0  0
 22 57  1  0  0  0  0
 22 58  1  0  0  0  0
 23 24  2  0  0  0  0
 23 28  1  0  0  0  0
 24 25  1  0  0  0  0
 24 59  1  0  0  0  0
 25 26  2  0  0  0  0
 25 60  1  0  0  0  0
 26 27  1  0  0  0  0
 26 61  1  0  0  0  0
 27 28  2  0  0  0  0
 27 62  1  0  0  0  0
 28 63  1  0  0  0  0
 29 30  1  0  0  0  0
 29 64  1  0  0  0  0
 30 31  2  0  0  0  0
 30 32  1  0  0  0  0
 32 33  2  0  0  0  0
 32 38  1  0  0  0  0
 33 34  1  0  0  0  0
 33 65  1  0  0  0  0
 34 35  2  0  0  0  0
 34 66  1  0  0  0  0
 35 36  1  0  0  0  0
 35 67  1  0  0  0  0
 36 37  1  0  0  0  0
 36 38  2  0  0  0  0
 37 68  1  0  0  0  0
 38 69  1  0  0  0  0
M  END
$$$$
