N3C
 OpenBabel04051920483D

103108  0  0  1  0  0  0  0  0999 V2000
   -6.7678   -9.2783    8.0058 O   0  0  0  0  0  0  0  0  0  0  0  0
   -7.9513   -9.6517    8.0756 N   0  0  0  0  0  0  0  0  0  0  0  0
   -8.5213  -10.3105    7.1936 O   0  0  0  0  0  0  0  0  0  0  0  0
   -8.7224   -9.3156    9.2877 C   0  0  0  0  0  0  0  0  0  0  0  0
   -8.0999   -8.7982   10.4583 C   0  0  0  0  0  0  0  0  0  0  0  0
   -6.7414   -8.4916   10.5112 N   0  0  0  0  0  0  0  0  0  0  0  0
   -5.9503   -8.3287   11.7358 C   0  0  1  0  0  0  0  0  0  0  0  0
   -5.9044   -9.5625   12.6623 C   0  0  0  0  0  0  0  0  0  0  0  0
   -5.1238  -11.0400   11.9228 S   0  0  0  0  0  0  0  0  0  0  0  0
   -6.5503  -11.9182   11.3216 C   0  0  0  0  0  0  0  0  0  0  0  0
   -7.5397  -12.3817   12.1897 C   0  0  0  0  0  0  0  0  0  0  0  0
   -8.5923  -13.1553   11.7005 C   0  0  0  0  0  0  0  0  0  0  0  0
   -8.6780  -13.4599   10.3442 C   0  0  0  0  0  0  0  0  0  0  0  0
   -7.6981  -12.9951    9.4728 C   0  0  0  0  0  0  0  0  0  0  0  0
   -6.6325  -12.2359    9.9627 C   0  0  0  0  0  0  0  0  0  0  0  0
   -4.5281   -7.9127   11.3033 C   0  0  0  0  0  0  0  0  0  0  0  0
   -4.4723   -6.4057   11.1119 C   0  0  0  0  0  0  0  0  0  0  0  0
   -3.2475   -5.9950   10.3313 N   0  3  0  0  0  0  0  0  0  0  0  0
   -3.3101   -4.5229   10.0157 C   0  0  0  0  0  0  0  0  0  0  0  0
   -1.9457   -6.3513   10.9953 C   0  0  0  0  0  0  0  0  0  0  0  0
   -8.9388   -8.5250   11.5535 C   0  0  0  0  0  0  0  0  0  0  0  0
  -10.3171   -8.7551   11.5048 C   0  0  0  0  0  0  0  0  0  0  0  0
  -10.1023   -9.5615    9.2369 C   0  0  0  0  0  0  0  0  0  0  0  0
  -10.8885   -9.2683   10.3449 C   0  0  0  0  0  0  0  0  0  0  0  0
  -12.6343   -9.5436   10.2421 S   0  0  0  0  0  0  0  0  0  0  0  0
  -13.3024   -8.7817   11.2790 O   0  0  0  0  0  0  0  0  0  0  0  0
  -13.0078   -9.4257    8.8482 O   0  0  0  0  0  0  0  0  0  0  0  0
  -12.7281  -11.1588   10.5776 N   0  0  0  0  0  0  0  0  0  0  0  0
  -12.3154  -11.7332   11.7811 C   0  0  0  0  0  0  0  0  0  0  0  0
  -11.8705  -11.0898   12.7196 O   0  0  0  0  0  0  0  0  0  0  0  0
  -12.3685  -13.2065   11.8493 C   0  0  0  0  0  0  0  0  0  0  0  0
  -11.8775  -13.8221   13.0031 C   0  0  0  0  0  0  0  0  0  0  0  0
  -11.8411  -15.2120   13.0981 C   0  0  0  0  0  0  0  0  0  0  0  0
  -12.8244  -13.9986   10.8032 C   0  0  0  0  0  0  0  0  0  0  0  0
  -12.7911  -15.3842   10.9147 C   0  0  0  0  0  0  0  0  0  0  0  0
  -12.3193  -16.0340   12.0666 C   0  0  0  0  0  0  0  0  0  0  0  0
  -12.3804  -17.4222   12.1904 N   0  0  0  0  0  0  0  0  0  0  0  0
  -11.7790  -18.0518   13.3717 C   0  0  0  0  0  0  0  0  0  0  0  0
  -12.1715  -19.5142   13.5528 C   0  0  0  0  0  0  0  0  0  0  0  0
  -12.6884  -18.2001   10.9833 C   0  0  0  0  0  0  0  0  0  0  0  0
  -12.9596  -19.6805   11.2138 C   0  0  0  0  0  0  0  0  0  0  0  0
  -12.0655  -20.2929   12.2643 N   0  3  2  0  0  0  0  0  0  0  0  0
  -12.3373  -21.7597   12.5310 C   0  0  0  0  0  0  0  0  0  0  0  0
  -13.1663  -22.4677   11.4922 C   0  0  0  0  0  0  0  0  0  0  0  0
  -14.5691  -22.4599   11.6581 C   0  0  0  0  0  0  0  0  0  0  0  0
  -15.4073  -23.0096   10.6940 C   0  0  0  0  0  0  0  0  0  0  0  0
  -14.8611  -23.5848    9.5555 C   0  0  0  0  0  0  0  0  0  0  0  0
  -13.4794  -23.5998    9.3769 C   0  0  0  0  0  0  0  0  0  0  0  0
  -12.6098  -23.0353   10.3261 C   0  0  0  0  0  0  0  0  0  0  0  0
  -11.1697  -23.0577   10.0432 C   0  0  0  0  0  0  0  0  0  0  0  0
  -10.2973  -23.8165   10.8368 C   0  0  0  0  0  0  0  0  0  0  0  0
   -8.9369  -23.8956   10.5262 C   0  0  0  0  0  0  0  0  0  0  0  0
  -10.6474  -22.3938    8.9264 C   0  0  0  0  0  0  0  0  0  0  0  0
   -9.2881  -22.4748    8.6062 C   0  0  0  0  0  0  0  0  0  0  0  0
   -8.4428  -23.2311    9.4134 C   0  0  0  0  0  0  0  0  0  0  0  0
   -6.7717  -23.3563    9.0129 Cl  0  0  0  0  0  0  0  0  0  0  0  0
   -6.2276   -8.8421    9.6936 H   0  0  0  0  0  0  0  0  0  0  0  0
   -6.3813   -7.5039   12.3174 H   0  0  0  0  0  0  0  0  0  0  0  0
   -6.8891   -9.7931   13.0772 H   0  0  0  0  0  0  0  0  0  0  0  0
   -5.2808   -9.2986   13.5273 H   0  0  0  0  0  0  0  0  0  0  0  0
   -7.4891  -12.1801   13.2569 H   0  0  0  0  0  0  0  0  0  0  0  0
   -9.3273  -13.5423   12.3947 H   0  0  0  0  0  0  0  0  0  0  0  0
   -9.4906  -14.0777    9.9712 H   0  0  0  0  0  0  0  0  0  0  0  0
   -7.7471  -13.2387    8.4135 H   0  0  0  0  0  0  0  0  0  0  0  0
   -5.8617  -11.9021    9.2717 H   0  0  0  0  0  0  0  0  0  0  0  0
   -4.2311   -8.4297   10.3807 H   0  0  0  0  0  0  0  0  0  0  0  0
   -3.8038   -8.1948   12.0761 H   0  0  0  0  0  0  0  0  0  0  0  0
   -4.4321   -5.8938   12.0803 H   0  0  0  0  0  0  0  0  0  0  0  0
   -5.3401   -6.0460   10.5490 H   0  0  0  0  0  0  0  0  0  0  0  0
   -2.4369   -4.2637    9.4137 H   0  0  0  0  0  0  0  0  0  0  0  0
   -3.3184   -3.9718   10.9604 H   0  0  0  0  0  0  0  0  0  0  0  0
   -4.2269   -4.3374    9.4493 H   0  0  0  0  0  0  0  0  0  0  0  0
   -1.9096   -7.4330   11.1425 H   0  0  0  0  0  0  0  0  0  0  0  0
   -1.8890   -5.8230   11.9503 H   0  0  0  0  0  0  0  0  0  0  0  0
   -1.1333   -6.0529   10.3283 H   0  0  0  0  0  0  0  0  0  0  0  0
   -8.5430   -8.1157   12.4787 H   0  0  0  0  0  0  0  0  0  0  0  0
  -10.9314   -8.5486   12.3816 H   0  0  0  0  0  0  0  0  0  0  0  0
  -10.5687   -9.9743    8.3438 H   0  0  0  0  0  0  0  0  0  0  0  0
  -13.0041  -11.6826    9.7575 H   0  0  0  0  0  0  0  0  0  0  0  0
  -11.4921  -13.2275   13.8318 H   0  0  0  0  0  0  0  0  0  0  0  0
  -11.4242  -15.6146   14.0160 H   0  0  0  0  0  0  0  0  0  0  0  0
  -13.2241  -13.5945    9.8817 H   0  0  0  0  0  0  0  0  0  0  0  0
  -13.1694  -15.9265   10.0535 H   0  0  0  0  0  0  0  0  0  0  0  0
  -12.1365  -17.5524   14.2807 H   0  0  0  0  0  0  0  0  0  0  0  0
  -10.6865  -17.9593   13.3411 H   0  0  0  0  0  0  0  0  0  0  0  0
  -13.2133  -19.5885   13.8875 H   0  0  0  0  0  0  0  0  0  0  0  0
  -11.5173  -19.9927   14.2894 H   0  0  0  0  0  0  0  0  0  0  0  0
  -11.8930  -18.0800   10.2368 H   0  0  0  0  0  0  0  0  0  0  0  0
  -13.6213  -17.8308   10.5388 H   0  0  0  0  0  0  0  0  0  0  0  0
  -12.7920  -20.2063   10.2689 H   0  0  0  0  0  0  0  0  0  0  0  0
  -13.9942  -19.8100   11.5448 H   0  0  0  0  0  0  0  0  0  0  0  0
  -12.8625  -21.8237   13.4928 H   0  0  0  0  0  0  0  0  0  0  0  0
  -11.3628  -22.2242   12.6990 H   0  0  0  0  0  0  0  0  0  0  0  0
  -15.0269  -22.0021   12.5353 H   0  0  0  0  0  0  0  0  0  0  0  0
  -16.4865  -22.9982   10.8324 H   0  0  0  0  0  0  0  0  0  0  0  0
  -15.5072  -24.0338    8.8046 H   0  0  0  0  0  0  0  0  0  0  0  0
  -13.0743  -24.0740    8.4824 H   0  0  0  0  0  0  0  0  0  0  0  0
  -10.6771  -24.3879   11.6828 H   0  0  0  0  0  0  0  0  0  0  0  0
   -8.2797  -24.5045   11.1435 H   0  0  0  0  0  0  0  0  0  0  0  0
  -11.3035  -21.8296    8.2572 H   0  0  0  0  0  0  0  0  0  0  0  0
   -8.9028  -21.9760    7.7213 H   0  0  0  0  0  0  0  0  0  0  0  0
   -3.2766   -6.4903    9.4281 H   0  0  0  0  0  0  0  0  0  0  0  0
  -11.1023  -20.2145   11.9125 H   0  0  0  0  0  0  0  0  0  0  0  0
  1  2  2  0  0  0  0
  2  3  2  0  0  0  0
  2  4  1  0  0  0  0
  4  5  2  0  0  0  0
  4 23  1  0  0  0  0
  5  6  1  0  0  0  0
  5 21  1  0  0  0  0
  6  7  1  0  0  0  0
  6 57  1  0  0  0  0
  7  8  1  0  0  0  0
  7 16  1  0  0  0  0
  7 58  1  1  0  0  0
  8  9  1  0  0  0  0
  8 59  1  0  0  0  0
  8 60  1  0  0  0  0
  9 10  1  0  0  0  0
 10 11  2  0  0  0  0
 10 15  1  0  0  0  0
 11 12  1  0  0  0  0
 11 61  1  0  0  0  0
 12 13  2  0  0  0  0
 12 62  1  0  0  0  0
 13 14  1  0  0  0  0
 13 63  1  0  0  0  0
 14 15  2  0  0  0  0
 14 64  1  0  0  0  0
 15 65  1  0  0  0  0
 16 17  1  0  0  0  0
 16 66  1  0  0  0  0
 16 67  1  0  0  0  0
 17 18  1  0  0  0  0
 17 68  1  0  0  0  0
 17 69  1  0  0  0  0
 18 19  1  0  0  0  0
 18 20  1  0  0  0  0
 18102  1  0  0  0  0
 19 70  1  0  0  0  0
 19 71  1  0  0  0  0
 19 72  1  0  0  0  0
 20 73  1  0  0  0  0
 20 74  1  0  0  0  0
 20 75  1  0  0  0  0
 21 22  2  0  0  0  0
 21 76  1  0  0  0  0
 22 24  1  0  0  0  0
 22 77  1  0  0  0  0
 23 24  2  0  0  0  0
 23 78  1  0  0  0  0
 24 25  1  0  0  0  0
 25 26  2  0  0  0  0
 25 27  2  0  0  0  0
 25 28  1  0  0  0  0
 28 29  1  0  0  0  0
 28 79  1  0  0  0  0
 29 30  2  0  0  0  0
 29 31  1  0  0  0  0
 31 32  2  0  0  0  0
 31 34  1  0  0  0  0
 32 33  1  0  0  0  0
 32 80  1  0  0  0  0
 33 36  2  0  0  0  0
 33 81  1  0  0  0  0
 34 35  2  0  0  0  0
 34 82  1  0  0  0  0
 35 36  1  0  0  0  0
 35 83  1  0  0  0  0
 36 37  1  0  0  0  0
 37 38  1  0  0  0  0
 37 40  1  0  0  0  0
 38 39  1  0  0  0  0
 38 84  1  0  0  0  0
 38 85  1  0  0  0  0
 39 42  1  0  0  0  0
 39 86  1  0  0  0  0
 39 87  1  0  0  0  0
 40 41  1  0  0  0  0
 40 88  1  0  0  0  0
 40 89  1  0  0  0  0
 41 42  1  0  0  0  0
 41 90  1  0  0  0  0
 41 91  1  0  0  0  0
 42 43  1  0  0  0  0
 42103  1  6  0  0  0
 43 44  1  0  0  0  0
 43 92  1  0  0  0  0
 43 93  1  0  0  0  0
 44 45  2  0  0  0  0
 44 49  1  0  0  0  0
 45 46  1  0  0  0  0
 45 94  1  0  0  0  0
 46 47  2  0  0  0  0
 46 95  1  0  0  0  0
 47 48  1  0  0  0  0
 47 96  1  0  0  0  0
 48 49  2  0  0  0  0
 48 97  1  0  0  0  0
 49 50  1  0  0  0  0
 50 51  2  0  0  0  0
 50 53  1  0  0  0  0
 51 52  1  0  0  0  0
 51 98  1  0  0  0  0
 52 55  2  0  0  0  0
 52 99  1  0  0  0  0
 53 54  2  0  0  0  0
 53100  1  0  0  0  0
 54 55  1  0  0  0  0
 54101  1  0  0  0  0
 55 56  1  0  0  0  0
M  CHG  2  18   1  42   1
M  END
$$$$
