NB1
 OpenBabel04051918183D

 33 34  0  0  1  0  0  0  0  0999 V2000
    1.3348   -6.2286   33.7015 C   0  0  2  0  0  0  0  0  0  0  0  0
    1.9414   -7.5301   33.1805 C   0  0  1  0  0  0  0  0  0  0  0  0
    2.7790   -7.3163   31.9134 C   0  0  2  0  0  0  0  0  0  0  0  0
    2.1302   -6.3569   30.9104 C   0  0  1  0  0  0  0  0  0  0  0  0
    1.7601   -5.0502   31.6204 C   0  0  1  0  0  0  0  0  0  0  0  0
    1.0669   -4.0293   30.6930 C   0  0  0  0  0  0  0  0  0  0  0  0
    3.2640   -7.1978   35.0204 C   0  0  0  0  0  0  0  0  0  0  0  0
    4.3232   -7.4714   36.0825 C   0  0  0  0  0  0  0  0  0  0  0  0
    5.8667   -6.5436   37.9069 C   0  0  0  0  0  0  0  0  0  0  0  0
    2.8208   -8.1263   34.2432 N   0  0  0  0  0  0  0  0  0  0  0  0
    3.0255   -8.5708   31.2607 O   0  0  0  0  0  0  0  0  0  0  0  0
    3.0857   -6.1403   29.8597 O   0  0  0  0  0  0  0  0  0  0  0  0
    0.8798   -5.3081   32.7194 O   0  0  0  0  0  0  0  0  0  0  0  0
   -0.1496   -4.5128   30.1270 O   0  0  0  0  0  0  0  0  0  0  0  0
    2.6153   -5.5824   34.7906 S   0  0  0  0  0  0  0  0  0  0  0  0
    4.7533   -6.2588   36.9104 C   0  0  0  0  0  0  0  0  0  0  0  0
    0.4711   -6.4578   34.3360 H   0  0  0  0  0  0  0  0  0  0  0  0
    1.1335   -8.2472   32.9629 H   0  0  0  0  0  0  0  0  0  0  0  0
    3.7699   -6.9236   32.1861 H   0  0  0  0  0  0  0  0  0  0  0  0
    1.2517   -6.8469   30.4704 H   0  0  0  0  0  0  0  0  0  0  0  0
    2.6717   -4.5625   31.9880 H   0  0  0  0  0  0  0  0  0  0  0  0
    1.7223   -3.7168   29.8738 H   0  0  0  0  0  0  0  0  0  0  0  0
    0.8047   -3.1348   31.2672 H   0  0  0  0  0  0  0  0  0  0  0  0
    5.1967   -7.8903   35.5662 H   0  0  0  0  0  0  0  0  0  0  0  0
    3.9464   -8.2632   36.7424 H   0  0  0  0  0  0  0  0  0  0  0  0
    6.1065   -5.6266   38.4570 H   0  0  0  0  0  0  0  0  0  0  0  0
    6.7783   -6.8766   37.4029 H   0  0  0  0  0  0  0  0  0  0  0  0
    5.5683   -7.3026   38.6353 H   0  0  0  0  0  0  0  0  0  0  0  0
    3.6683   -8.3692   30.5541 H   0  0  0  0  0  0  0  0  0  0  0  0
    2.6662   -5.6233   29.1522 H   0  0  0  0  0  0  0  0  0  0  0  0
    0.0251   -5.3164   29.6130 H   0  0  0  0  0  0  0  0  0  0  0  0
    3.8889   -5.8722   37.4618 H   0  0  0  0  0  0  0  0  0  0  0  0
    5.1007   -5.4619   36.2429 H   0  0  0  0  0  0  0  0  0  0  0  0
  1  2  1  0  0  0  0
  1 13  1  0  0  0  0
  1 15  1  0  0  0  0
  1 17  1  1  0  0  0
  2  3  1  0  0  0  0
  2 10  1  0  0  0  0
  2 18  1  6  0  0  0
  3  4  1  0  0  0  0
  3 11  1  0  0  0  0
  3 19  1  1  0  0  0
  4  5  1  0  0  0  0
  4 12  1  0  0  0  0
  4 20  1  6  0  0  0
  5  6  1  0  0  0  0
  5 13  1  0  0  0  0
  5 21  1  1  0  0  0
  6 14  1  0  0  0  0
  6 22  1  0  0  0  0
  6 23  1  0  0  0  0
  7  8  1  0  0  0  0
  7 10  2  0  0  0  0
  7 15  1  0  0  0  0
  8 16  1  0  0  0  0
  8 24  1  0  0  0  0
  8 25  1  0  0  0  0
  9 16  1  0  0  0  0
  9 26  1  0  0  0  0
  9 27  1  0  0  0  0
  9 28  1  0  0  0  0
 11 29  1  0  0  0  0
 12 30  1  0  0  0  0
 14 31  1  0  0  0  0
 16 32  1  0  0  0  0
 16 33  1  0  0  0  0
M  END
$$$$
