NBV
 OpenBabel04051919333D

 37 37  0  0  1  0  0  0  0  0999 V2000
   34.6491   34.2122   -1.1833 O   0  0  0  0  0  0  0  0  0  0  0  0
   33.8521   33.4952   -0.2439 C   0  0  0  0  0  0  0  0  0  0  0  0
   34.6453   32.3052    0.3509 C   0  0  2  0  0  0  0  0  0  0  0  0
   35.8420   32.7640    1.1930 C   0  0  1  0  0  0  0  0  0  0  0  0
   35.4112   33.6982    2.1769 O   0  0  0  0  0  0  0  0  0  0  0  0
   36.5049   31.5604    1.8539 C   0  0  2  0  0  0  0  0  0  0  0  0
   37.7250   31.9883    2.4791 O   0  0  0  0  0  0  0  0  0  0  0  0
   36.8868   30.4680    0.8538 C   0  0  1  0  0  0  0  0  0  0  0  0
   37.1358   29.2478    1.5601 O   0  0  0  0  0  0  0  0  0  0  0  0
   35.2185   31.4371   -0.7578 N   0  3  1  0  0  0  0  0  0  0  0  0
   35.8045   30.1828   -0.1865 C   0  0  0  0  0  0  0  0  0  0  0  0
   34.2436   31.2353   -1.8952 C   0  0  0  0  0  0  0  0  0  0  0  0
   34.8010   30.3307   -2.9691 C   0  0  0  0  0  0  0  0  0  0  0  0
   34.1424   30.6582   -4.3096 C   0  0  0  0  0  0  0  0  0  0  0  0
   34.5893   29.7275   -5.4149 C   0  0  0  0  0  0  0  0  0  0  0  0
   35.3736   34.6778   -0.7176 H   0  0  0  0  0  0  0  0  0  0  0  0
   32.9599   33.1460   -0.7630 H   0  0  0  0  0  0  0  0  0  0  0  0
   33.4978   34.1738    0.5486 H   0  0  0  0  0  0  0  0  0  0  0  0
   33.9507   31.6890    0.9368 H   0  0  0  0  0  0  0  0  0  0  0  0
   36.5828   33.2842    0.5496 H   0  0  0  0  0  0  0  0  0  0  0  0
   36.1763   34.0299    2.6815 H   0  0  0  0  0  0  0  0  0  0  0  0
   35.8616   31.1498    2.6435 H   0  0  0  0  0  0  0  0  0  0  0  0
   37.5399   32.5958    3.2191 H   0  0  0  0  0  0  0  0  0  0  0  0
   37.8228   30.7461    0.3417 H   0  0  0  0  0  0  0  0  0  0  0  0
   36.3591   29.0156    2.1012 H   0  0  0  0  0  0  0  0  0  0  0  0
   34.9872   29.6086    0.2649 H   0  0  0  0  0  0  0  0  0  0  0  0
   36.2438   29.5965   -0.9949 H   0  0  0  0  0  0  0  0  0  0  0  0
   34.0601   32.2184   -2.3283 H   0  0  0  0  0  0  0  0  0  0  0  0
   33.3157   30.8416   -1.4627 H   0  0  0  0  0  0  0  0  0  0  0  0
   34.5985   29.2918   -2.6892 H   0  0  0  0  0  0  0  0  0  0  0  0
   35.8914   30.4547   -3.0556 H   0  0  0  0  0  0  0  0  0  0  0  0
   34.3915   31.6907   -4.5849 H   0  0  0  0  0  0  0  0  0  0  0  0
   33.0543   30.6032   -4.1993 H   0  0  0  0  0  0  0  0  0  0  0  0
   34.0998   29.9976   -6.3562 H   0  0  0  0  0  0  0  0  0  0  0  0
   34.3271   28.6917   -5.1813 H   0  0  0  0  0  0  0  0  0  0  0  0
   35.6712   29.7872   -5.5658 H   0  0  0  0  0  0  0  0  0  0  0  0
   35.9851   31.9832   -1.1928 H   0  0  0  0  0  0  0  0  0  0  0  0
  1  2  1  0  0  0  0
  1 16  1  0  0  0  0
  2  3  1  0  0  0  0
  2 17  1  0  0  0  0
  2 18  1  0  0  0  0
  3  4  1  0  0  0  0
  3 10  1  0  0  0  0
  3 19  1  1  0  0  0
  4  5  1  0  0  0  0
  4  6  1  0  0  0  0
  4 20  1  6  0  0  0
  5 21  1  0  0  0  0
  6  7  1  0  0  0  0
  6  8  1  0  0  0  0
  6 22  1  1  0  0  0
  7 23  1  0  0  0  0
  8  9  1  0  0  0  0
  8 11  1  0  0  0  0
  8 24  1  6  0  0  0
  9 25  1  0  0  0  0
 10 11  1  0  0  0  0
 10 12  1  0  0  0  0
 10 37  1  6  0  0  0
 11 26  1  0  0  0  0
 11 27  1  0  0  0  0
 12 13  1  0  0  0  0
 12 28  1  0  0  0  0
 12 29  1  0  0  0  0
 13 14  1  0  0  0  0
 13 30  1  0  0  0  0
 13 31  1  0  0  0  0
 14 15  1  0  0  0  0
 14 32  1  0  0  0  0
 14 33  1  0  0  0  0
 15 34  1  0  0  0  0
 15 35  1  0  0  0  0
 15 36  1  0  0  0  0
M  CHG  1  10   1
M  END
$$$$
