NCN
 OpenBabel04051919083D

 36 37  0  0  1  0  0  0  0  0999 V2000
   16.8967  -29.6117   20.3975 P   0  0  0  0  0  0  0  0  0  0  0  0
   16.5069  -31.0728   20.5824 O   0  0  0  0  0  0  0  0  0  0  0  0
   15.7979  -28.6458   20.8288 O   0  0  0  0  0  0  0  0  0  0  0  0
   18.2906  -29.2424   20.8443 O   0  0  0  0  0  0  0  0  0  0  0  0
   16.9438  -29.4598   18.7704 O   0  0  0  0  0  0  0  0  0  0  0  0
   17.3266  -28.2311   18.1690 C   0  0  0  0  0  0  0  0  0  0  0  0
   16.1642  -27.2535   18.0476 C   0  0  1  0  0  0  0  0  0  0  0  0
   14.8899  -27.9234   17.9752 O   0  0  0  0  0  0  0  0  0  0  0  0
   16.1045  -26.2351   19.1717 C   0  0  1  0  0  0  0  0  0  0  0  0
   16.9739  -25.1139   18.9678 O   0  0  0  0  0  0  0  0  0  0  0  0
   14.6509  -25.8111   19.1416 C   0  0  1  0  0  0  0  0  0  0  0  0
   14.4599  -24.5713   18.4318 O   0  0  0  0  0  0  0  0  0  0  0  0
   13.9307  -27.0004   18.4400 C   0  0  2  0  0  0  0  0  0  0  0  0
   12.8829  -27.4626   19.3721 N   0  0  0  0  0  0  0  0  0  0  0  0
   12.8191  -28.8756   19.6694 C   0  0  0  0  0  0  0  0  0  0  0  0
   11.7834  -29.2963   20.4240 C   0  0  0  0  0  0  0  0  0  0  0  0
   10.6093  -28.4859   20.6834 C   0  0  0  0  0  0  0  0  0  0  0  0
   10.5105  -27.2431   20.1642 C   0  0  0  0  0  0  0  0  0  0  0  0
   11.6127  -26.6726   19.3841 C   0  0  0  0  0  0  0  0  0  0  0  0
    9.2759  -26.3071   20.3478 C   0  0  0  0  0  0  0  0  0  0  0  0
    8.3468  -26.7909   21.0071 O   0  0  0  0  0  0  0  0  0  0  0  0
    9.4121  -25.1847   19.8022 O   0  0  0  0  0  0  0  0  0  0  0  0
   17.6576  -28.4771   17.1509 H   0  0  0  0  0  0  0  0  0  0  0  0
   18.1935  -27.7807   18.6651 H   0  0  0  0  0  0  0  0  0  0  0  0
   16.2683  -26.6986   17.1040 H   0  0  0  0  0  0  0  0  0  0  0  0
   16.3622  -26.6659   20.1365 H   0  0  0  0  0  0  0  0  0  0  0  0
   16.8270  -24.5356   19.7374 H   0  0  0  0  0  0  0  0  0  0  0  0
   14.2889  -25.6234   20.1640 H   0  0  0  0  0  0  0  0  0  0  0  0
   13.5177  -24.3372   18.4451 H   0  0  0  0  0  0  0  0  0  0  0  0
   13.4373  -26.6254   17.5251 H   0  0  0  0  0  0  0  0  0  0  0  0
   13.7235  -29.4884   19.5937 H   0  0  0  0  0  0  0  0  0  0  0  0
   11.8266  -30.2753   20.8840 H   0  0  0  0  0  0  0  0  0  0  0  0
    9.7931  -28.9051   21.2698 H   0  0  0  0  0  0  0  0  0  0  0  0
   11.2986  -26.4598   18.3515 H   0  0  0  0  0  0  0  0  0  0  0  0
   11.9275  -25.7320   19.8607 H   0  0  0  0  0  0  0  0  0  0  0  0
   13.2900  -27.2069   20.2612 H   0  0  0  0  0  0  0  0  0  0  0  0
  1  2  2  0  0  0  0
  1  3  1  0  0  0  0
  1  4  1  0  0  0  0
  1  5  1  0  0  0  0
  5  6  1  0  0  0  0
  6  7  1  0  0  0  0
  6 23  1  0  0  0  0
  6 24  1  0  0  0  0
  7  8  1  0  0  0  0
  7  9  1  0  0  0  0
  7 25  1  6  0  0  0
  8 13  1  0  0  0  0
  9 10  1  0  0  0  0
  9 11  1  0  0  0  0
  9 26  1  1  0  0  0
 10 27  1  0  0  0  0
 11 12  1  0  0  0  0
 11 13  1  0  0  0  0
 11 28  1  1  0  0  0
 12 29  1  0  0  0  0
 13 14  1  0  0  0  0
 13 30  1  6  0  0  0
 14 15  1  0  0  0  0
 14 19  1  0  0  0  0
 14 36  1  0  0  0  0
 15 16  2  0  0  0  0
 15 31  1  0  0  0  0
 16 17  1  0  0  0  0
 16 32  1  0  0  0  0
 17 18  2  0  0  0  0
 17 33  1  0  0  0  0
 18 19  1  0  0  0  0
 18 20  1  0  0  0  0
 19 34  1  0  0  0  0
 19 35  1  0  0  0  0
 20 21  2  0  0  0  0
 20 22  1  0  0  0  0
M  END
$$$$
