NCW
 OpenBabel04051919473D

 50 51  0  0  1  0  0  0  0  0999 V2000
    0.2417    7.9106   11.5473 S   0  0  0  0  0  0  0  0  0  0  0  0
   -0.7049    7.9080   10.1801 C   0  0  0  0  0  0  0  0  0  0  0  0
   -1.4097    9.0139    9.7936 N   0  0  0  0  0  0  0  0  0  0  0  0
   -2.0646    9.2865    8.5439 C   0  0  2  0  0  0  0  0  0  0  0  0
   -1.1245   10.0684    7.6238 C   0  0  1  0  0  0  0  0  0  0  0  0
   -1.8602   10.4100    6.4386 O   0  0  0  0  0  0  0  0  0  0  0  0
   -0.5926   11.3603    8.3087 C   0  0  2  0  0  0  0  0  0  0  0  0
    0.5833   11.8216    7.6529 O   0  0  0  0  0  0  0  0  0  0  0  0
   -0.2237   11.1583    9.7911 C   0  0  1  0  0  0  0  0  0  0  0  0
    0.0053   12.4256   10.4367 O   0  0  0  0  0  0  0  0  0  0  0  0
   -3.1954   10.1479    9.0630 C   0  0  0  0  0  0  0  0  0  0  0  0
   -2.6305   10.8662   10.1988 O   0  0  0  0  0  0  0  0  0  0  0  0
   -1.3286   10.3066   10.4604 C   0  0  1  0  0  0  0  0  0  0  0  0
   -0.6883    6.8619    9.2846 N   0  0  0  0  0  0  0  0  0  0  0  0
    0.2797    5.7835    9.3408 C   0  0  0  0  0  0  0  0  0  0  0  0
   -0.2768    4.5586    8.6648 C   0  0  0  0  0  0  0  0  0  0  0  0
   -0.9269    4.9272    7.3237 C   0  0  0  0  0  0  0  0  0  0  0  0
   -0.4025    4.1881    6.1379 C   0  0  0  0  0  0  0  0  0  0  0  0
    1.1276    4.2354    6.1255 C   0  0  0  0  0  0  0  0  0  0  0  0
    1.7588    2.9246    6.5755 C   0  0  0  0  0  0  0  0  0  0  0  0
    0.7871    1.7537    6.4413 C   0  0  0  0  0  0  0  0  0  0  0  0
    1.0759    0.6602    7.4104 C   0  0  0  0  0  0  0  0  0  0  0  0
   -2.4195    8.3695    8.0671 H   0  0  0  0  0  0  0  0  0  0  0  0
   -0.2773    9.4419    7.3213 H   0  0  0  0  0  0  0  0  0  0  0  0
   -2.1689    9.5808    6.0270 H   0  0  0  0  0  0  0  0  0  0  0  0
   -1.3516   12.1518    8.2258 H   0  0  0  0  0  0  0  0  0  0  0  0
    0.2832   12.0263    6.7128 H   0  0  0  0  0  0  0  0  0  0  0  0
    0.7380   10.6304    9.8456 H   0  0  0  0  0  0  0  0  0  0  0  0
   -0.7931   12.9698   10.3370 H   0  0  0  0  0  0  0  0  0  0  0  0
   -4.0255    9.5325    9.3992 H   0  0  0  0  0  0  0  0  0  0  0  0
   -3.5286   10.8549    8.3162 H   0  0  0  0  0  0  0  0  0  0  0  0
   -1.1486   10.2308   11.5368 H   0  0  0  0  0  0  0  0  0  0  0  0
   -1.4603    6.7892    8.6451 H   0  0  0  0  0  0  0  0  0  0  0  0
    0.5425    5.5353   10.3760 H   0  0  0  0  0  0  0  0  0  0  0  0
    1.1981    6.1246    8.8487 H   0  0  0  0  0  0  0  0  0  0  0  0
   -1.0089    4.0771    9.3240 H   0  0  0  0  0  0  0  0  0  0  0  0
    0.5347    3.8388    8.5678 H   0  0  0  0  0  0  0  0  0  0  0  0
   -0.7393    5.9709    7.0751 H   0  0  0  0  0  0  0  0  0  0  0  0
   -2.0064    4.7752    7.4014 H   0  0  0  0  0  0  0  0  0  0  0  0
   -0.7968    4.5496    5.1925 H   0  0  0  0  0  0  0  0  0  0  0  0
   -0.9100    3.2387    6.1624 H   0  0  0  0  0  0  0  0  0  0  0  0
    1.5058    5.0434    6.7619 H   0  0  0  0  0  0  0  0  0  0  0  0
    1.4804    4.4654    5.1097 H   0  0  0  0  0  0  0  0  0  0  0  0
    2.1137    3.0331    7.6136 H   0  0  0  0  0  0  0  0  0  0  0  0
    2.6573    2.7303    5.9826 H   0  0  0  0  0  0  0  0  0  0  0  0
    0.6644    1.4735    5.4015 H   0  0  0  0  0  0  0  0  0  0  0  0
   -0.1962    1.9595    6.8650 H   0  0  0  0  0  0  0  0  0  0  0  0
    0.2948   -0.0941    7.2974 H   0  0  0  0  0  0  0  0  0  0  0  0
    1.0653    1.0680    8.4267 H   0  0  0  0  0  0  0  0  0  0  0  0
    2.0426    0.2769    7.1514 H   0  0  0  0  0  0  0  0  0  0  0  0
  1  2  2  0  0  0  0
  2  3  1  0  0  0  0
  2 14  1  0  0  0  0
  3  4  1  0  0  0  0
  3 13  1  0  0  0  0
  4  5  1  0  0  0  0
  4 11  1  0  0  0  0
  4 23  1  6  0  0  0
  5  6  1  0  0  0  0
  5  7  1  0  0  0  0
  5 24  1  6  0  0  0
  6 25  1  0  0  0  0
  7  8  1  0  0  0  0
  7  9  1  0  0  0  0
  7 26  1  6  0  0  0
  8 27  1  0  0  0  0
  9 10  1  0  0  0  0
  9 13  1  0  0  0  0
  9 28  1  1  0  0  0
 10 29  1  0  0  0  0
 11 12  1  0  0  0  0
 11 30  1  0  0  0  0
 11 31  1  0  0  0  0
 12 13  1  0  0  0  0
 13 32  1  1  0  0  0
 14 15  1  0  0  0  0
 14 33  1  0  0  0  0
 15 16  1  0  0  0  0
 15 34  1  0  0  0  0
 15 35  1  0  0  0  0
 16 17  1  0  0  0  0
 16 36  1  0  0  0  0
 16 37  1  0  0  0  0
 17 18  1  0  0  0  0
 17 38  1  0  0  0  0
 17 39  1  0  0  0  0
 18 19  1  0  0  0  0
 18 40  1  0  0  0  0
 18 41  1  0  0  0  0
 19 20  1  0  0  0  0
 19 42  1  0  0  0  0
 19 43  1  0  0  0  0
 20 21  1  0  0  0  0
 20 44  1  0  0  0  0
 20 45  1  0  0  0  0
 21 22  1  0  0  0  0
 21 46  1  0  0  0  0
 21 47  1  0  0  0  0
 22 48  1  0  0  0  0
 22 49  1  0  0  0  0
 22 50  1  0  0  0  0
M  END
$$$$
