NGA
 OpenBabel04051919423D

 30 30  0  0  1  0  0  0  0  0999 V2000
   11.1127   10.2196  122.9225 C   0  0  1  0  0  0  0  0  0  0  0  0
   12.1092    9.7476  123.8141 O   0  0  0  0  0  0  0  0  0  0  0  0
   11.3166    9.6493  121.4944 C   0  0  1  0  0  0  0  0  0  0  0  0
   10.1593   10.1395  120.6017 C   0  0  2  0  0  0  0  0  0  0  0  0
    8.7859    9.8482  121.2255 C   0  0  2  0  0  0  0  0  0  0  0  0
    8.7584   10.3776  122.6680 C   0  0  1  0  0  0  0  0  0  0  0  0
    7.4491   10.0268  123.3737 C   0  0  0  0  0  0  0  0  0  0  0  0
   13.7487    9.2912  121.1584 C   0  0  0  0  0  0  0  0  0  0  0  0
   14.9862    9.9137  120.5732 C   0  0  0  0  0  0  0  0  0  0  0  0
   12.6135   10.0444  120.9203 N   0  0  0  0  0  0  0  0  0  0  0  0
   10.2313    9.5411  119.2982 O   0  0  0  0  0  0  0  0  0  0  0  0
    8.4898    8.4489  121.1720 O   0  0  0  0  0  0  0  0  0  0  0  0
    9.8475    9.8459  123.4404 O   0  0  0  0  0  0  0  0  0  0  0  0
    7.3570   10.7955  124.5770 O   0  0  0  0  0  0  0  0  0  0  0  0
   13.7725    8.2248  121.7429 O   0  0  0  0  0  0  0  0  0  0  0  0
   11.1943   11.3151  122.9104 H   0  0  0  0  0  0  0  0  0  0  0  0
   11.9170   10.1644  124.6683 H   0  0  0  0  0  0  0  0  0  0  0  0
   11.2993    8.5525  121.5360 H   0  0  0  0  0  0  0  0  0  0  0  0
   10.2587   11.2244  120.4619 H   0  0  0  0  0  0  0  0  0  0  0  0
    8.0058   10.3369  120.6285 H   0  0  0  0  0  0  0  0  0  0  0  0
    8.8653   11.4708  122.6595 H   0  0  0  0  0  0  0  0  0  0  0  0
    7.4012    8.9655  123.6332 H   0  0  0  0  0  0  0  0  0  0  0  0
    6.5887   10.2946  122.7521 H   0  0  0  0  0  0  0  0  0  0  0  0
   15.8454    9.2724  120.7864 H   0  0  0  0  0  0  0  0  0  0  0  0
   15.1605   10.8969  121.0184 H   0  0  0  0  0  0  0  0  0  0  0  0
   14.8749   10.0079  119.4895 H   0  0  0  0  0  0  0  0  0  0  0  0
   12.6983   10.9261  120.4365 H   0  0  0  0  0  0  0  0  0  0  0  0
    9.5814    9.9827  118.7210 H   0  0  0  0  0  0  0  0  0  0  0  0
    8.7148    8.1375  120.2728 H   0  0  0  0  0  0  0  0  0  0  0  0
    6.5820   10.4658  125.0620 H   0  0  0  0  0  0  0  0  0  0  0  0
  1  2  1  0  0  0  0
  1  3  1  0  0  0  0
  1 13  1  0  0  0  0
  1 16  1  6  0  0  0
  2 17  1  0  0  0  0
  3  4  1  0  0  0  0
  3 10  1  0  0  0  0
  3 18  1  1  0  0  0
  4  5  1  0  0  0  0
  4 11  1  0  0  0  0
  4 19  1  6  0  0  0
  5  6  1  0  0  0  0
  5 12  1  0  0  0  0
  5 20  1  6  0  0  0
  6  7  1  0  0  0  0
  6 13  1  0  0  0  0
  6 21  1  6  0  0  0
  7 14  1  0  0  0  0
  7 22  1  0  0  0  0
  7 23  1  0  0  0  0
  8  9  1  0  0  0  0
  8 10  1  0  0  0  0
  8 15  2  0  0  0  0
  9 24  1  0  0  0  0
  9 25  1  0  0  0  0
  9 26  1  0  0  0  0
 10 27  1  0  0  0  0
 11 28  1  0  0  0  0
 12 29  1  0  0  0  0
 14 30  1  0  0  0  0
M  END
$$$$
