NGT
 OpenBabel04051917443D

 27 28  0  0  1  0  0  0  0  0999 V2000
   23.2863    6.5171   40.3902 C   0  0  1  0  0  0  0  0  0  0  0  0
   24.7211    6.7333   39.9032 C   0  0  1  0  0  0  0  0  0  0  0  0
   25.3429    8.0498   40.4090 C   0  0  2  0  0  0  0  0  0  0  0  0
   24.3656    9.2304   40.3388 C   0  0  1  0  0  0  0  0  0  0  0  0
   23.0713    8.8183   41.0484 C   0  0  1  0  0  0  0  0  0  0  0  0
   22.0240    9.9379   41.0610 C   0  0  0  0  0  0  0  0  0  0  0  0
   25.0522    5.1064   41.4554 C   0  0  0  0  0  0  0  0  0  0  0  0
   25.7048    4.0399   42.2719 C   0  0  0  0  0  0  0  0  0  0  0  0
   25.5787    5.6079   40.3904 N   0  0  0  0  0  0  0  0  0  0  0  0
   23.4983    5.7039   41.9866 S   0  0  0  0  0  0  0  0  0  0  0  0
   26.5281    8.3279   39.6537 O   0  0  0  0  0  0  0  0  0  0  0  0
   24.9539   10.3495   41.0179 O   0  0  0  0  0  0  0  0  0  0  0  0
   22.4711    7.6803   40.4159 O   0  0  0  0  0  0  0  0  0  0  0  0
   21.6180   10.2607   39.7329 O   0  0  0  0  0  0  0  0  0  0  0  0
   22.7883    5.7914   39.7406 H   0  0  0  0  0  0  0  0  0  0  0  0
   24.7331    6.7283   38.8064 H   0  0  0  0  0  0  0  0  0  0  0  0
   25.6703    7.9379   41.4529 H   0  0  0  0  0  0  0  0  0  0  0  0
   24.2009    9.5060   39.2894 H   0  0  0  0  0  0  0  0  0  0  0  0
   23.2889    8.5868   42.1000 H   0  0  0  0  0  0  0  0  0  0  0  0
   22.4069   10.8421   41.5337 H   0  0  0  0  0  0  0  0  0  0  0  0
   21.1361    9.6154   41.6092 H   0  0  0  0  0  0  0  0  0  0  0  0
   26.6680    3.7709   41.8350 H   0  0  0  0  0  0  0  0  0  0  0  0
   25.0692    3.1518   42.3000 H   0  0  0  0  0  0  0  0  0  0  0  0
   25.8678    4.3943   43.2919 H   0  0  0  0  0  0  0  0  0  0  0  0
   27.1101    7.5547   39.7742 H   0  0  0  0  0  0  0  0  0  0  0  0
   24.4075   11.1314   40.8264 H   0  0  0  0  0  0  0  0  0  0  0  0
   21.2740    9.4296   39.3521 H   0  0  0  0  0  0  0  0  0  0  0  0
  1  2  1  0  0  0  0
  1 10  1  0  0  0  0
  1 13  1  0  0  0  0
  1 15  1  6  0  0  0
  2  3  1  0  0  0  0
  2  9  1  0  0  0  0
  2 16  1  6  0  0  0
  3  4  1  0  0  0  0
  3 11  1  0  0  0  0
  3 17  1  1  0  0  0
  4  5  1  0  0  0  0
  4 12  1  0  0  0  0
  4 18  1  6  0  0  0
  5  6  1  0  0  0  0
  5 13  1  0  0  0  0
  5 19  1  1  0  0  0
  6 14  1  0  0  0  0
  6 20  1  0  0  0  0
  6 21  1  0  0  0  0
  7  8  1  0  0  0  0
  7  9  2  0  0  0  0
  7 10  1  0  0  0  0
  8 22  1  0  0  0  0
  8 23  1  0  0  0  0
  8 24  1  0  0  0  0
 11 25  1  0  0  0  0
 12 26  1  0  0  0  0
 14 27  1  0  0  0  0
M  END
$$$$
