NHT
 OpenBabel04051919483D

 33 34  0  0  1  0  0  0  0  0999 V2000
    6.3994  -12.2482    4.2722 C   0  0  2  0  0  0  0  0  0  0  0  0
    7.7403  -11.6808    3.7844 C   0  0  1  0  0  0  0  0  0  0  0  0
    7.5598  -10.6053    2.7093 C   0  0  2  0  0  0  0  0  0  0  0  0
    6.5445  -11.0379    1.6470 C   0  0  1  0  0  0  0  0  0  0  0  0
    5.2181  -11.3280    2.3707 C   0  0  1  0  0  0  0  0  0  0  0  0
    4.0874  -11.7178    1.4147 C   0  0  0  0  0  0  0  0  0  0  0  0
    7.5658  -10.6650    5.9153 C   0  0  0  0  0  0  0  0  0  0  0  0
    7.7454   -9.0526    9.2394 C   0  0  0  0  0  0  0  0  0  0  0  0
    8.3932  -11.0462    4.9687 N   0  0  0  0  0  0  0  0  0  0  0  0
    8.8339  -10.2960    2.1341 O   0  0  0  0  0  0  0  0  0  0  0  0
    6.4141   -9.9626    0.7174 O   0  0  0  0  0  0  0  0  0  0  0  0
    5.3917  -12.4208    3.2882 O   0  0  0  0  0  0  0  0  0  0  0  0
    7.9425   -9.9747    6.9739 N   0  0  0  0  0  0  0  0  0  0  0  0
    4.4760  -12.8631    0.6631 O   0  0  0  0  0  0  0  0  0  0  0  0
    5.9188  -11.1537    5.6367 S   0  0  0  0  0  0  0  0  0  0  0  0
    6.9963   -9.5183    8.0127 C   0  0  0  0  0  0  0  0  0  0  0  0
    6.5724  -13.2287    4.7294 H   0  0  0  0  0  0  0  0  0  0  0  0
    8.3907  -12.4876    3.4194 H   0  0  0  0  0  0  0  0  0  0  0  0
    7.2193   -9.6670    3.1659 H   0  0  0  0  0  0  0  0  0  0  0  0
    6.9283  -11.9148    1.1115 H   0  0  0  0  0  0  0  0  0  0  0  0
    4.8816  -10.4376    2.9178 H   0  0  0  0  0  0  0  0  0  0  0  0
    3.8525  -10.9102    0.7179 H   0  0  0  0  0  0  0  0  0  0  0  0
    3.1784  -11.9692    1.9706 H   0  0  0  0  0  0  0  0  0  0  0  0
    7.0340   -8.7522   10.0147 H   0  0  0  0  0  0  0  0  0  0  0  0
    8.3883   -8.1971    9.0111 H   0  0  0  0  0  0  0  0  0  0  0  0
    8.3732   -9.8537    9.6403 H   0  0  0  0  0  0  0  0  0  0  0  0
    8.6502   -9.6471    1.4212 H   0  0  0  0  0  0  0  0  0  0  0  0
    5.8816  -10.2903   -0.0355 H   0  0  0  0  0  0  0  0  0  0  0  0
    8.9202   -9.7188    7.0441 H   0  0  0  0  0  0  0  0  0  0  0  0
    4.5497  -13.5978    1.3030 H   0  0  0  0  0  0  0  0  0  0  0  0
    6.3973   -8.7018    7.5981 H   0  0  0  0  0  0  0  0  0  0  0  0
    6.3385  -10.3474    8.2943 H   0  0  0  0  0  0  0  0  0  0  0  0
    9.3804  -10.8124    4.9714 H   0  0  0  0  0  0  0  0  0  0  0  0
  1  2  1  0  0  0  0
  1 12  1  0  0  0  0
  1 15  1  0  0  0  0
  1 17  1  1  0  0  0
  2  3  1  0  0  0  0
  2  9  1  0  0  0  0
  2 18  1  6  0  0  0
  3  4  1  0  0  0  0
  3 10  1  0  0  0  0
  3 19  1  1  0  0  0
  4  5  1  0  0  0  0
  4 11  1  0  0  0  0
  4 20  1  6  0  0  0
  5  6  1  0  0  0  0
  5 12  1  0  0  0  0
  5 21  1  1  0  0  0
  6 14  1  0  0  0  0
  6 22  1  0  0  0  0
  6 23  1  0  0  0  0
  7  9  2  0  0  0  0
  7 13  1  0  0  0  0
  7 15  1  0  0  0  0
  8 16  1  0  0  0  0
  8 24  1  0  0  0  0
  8 25  1  0  0  0  0
  8 26  1  0  0  0  0
  9 33  1  0  0  0  0
 10 27  1  0  0  0  0
 11 28  1  0  0  0  0
 13 16  1  0  0  0  0
 13 29  1  0  0  0  0
 14 30  1  0  0  0  0
 16 31  1  0  0  0  0
 16 32  1  0  0  0  0
M  END
$$$$
