NNG
 OpenBabel04051918453D

 34 34  0  0  1  0  0  0  0  0999 V2000
  -35.3453   15.5408  -12.1641 C   0  0  1  0  0  0  0  0  0  0  0  0
  -34.8476   15.6167  -10.6942 C   0  0  1  0  0  0  0  0  0  0  0  0
  -34.8310   17.0798  -10.2366 C   0  0  2  0  0  0  0  0  0  0  0  0
  -34.0649   17.9695  -11.2300 C   0  0  1  0  0  0  0  0  0  0  0  0
  -34.6021   17.7540  -12.6590 C   0  0  1  0  0  0  0  0  0  0  0  0
  -33.8309   18.5923  -13.6846 C   0  0  0  0  0  0  0  0  0  0  0  0
  -35.1162   13.8839   -8.5862 P   0  0  2  0  0  0  0  0  0  0  0  0
  -36.5597   13.1349   -7.8047 C   0  0  0  0  0  0  0  0  0  0  0  0
  -35.7792   14.8400   -9.8149 N   0  0  0  0  0  0  0  0  0  0  0  0
  -36.7362   15.9096  -12.2358 O   0  0  0  0  0  0  0  0  0  0  0  0
  -34.2849   17.2499   -8.9169 O   0  0  0  0  0  0  0  0  0  0  0  0
  -34.2194   19.3455  -10.8278 O   0  0  0  0  0  0  0  0  0  0  0  0
  -34.6124   16.3699  -13.0472 O   0  0  0  0  0  0  0  0  0  0  0  0
  -32.4450   18.3444  -13.6313 O   0  0  0  0  0  0  0  0  0  0  0  0
  -34.3473   12.7797   -9.2540 O   0  0  0  0  0  0  0  0  0  0  0  0
  -34.5157   14.8585   -7.6200 O   0  0  0  0  0  0  0  0  0  0  0  0
  -31.5516   19.2119  -14.7119 P   0  0  0  0  0  0  0  0  0  0  0  0
  -30.1185   19.0799  -14.1884 O   0  0  0  0  0  0  0  0  0  0  0  0
  -31.8116   18.5221  -16.0329 O   0  0  0  0  0  0  0  0  0  0  0  0
  -32.1166   20.6265  -14.6282 O   0  0  0  0  0  0  0  0  0  0  0  0
  -35.2727   14.5092  -12.5274 H   0  0  0  0  0  0  0  0  0  0  0  0
  -33.8329   15.1948  -10.6312 H   0  0  0  0  0  0  0  0  0  0  0  0
  -35.8624   17.4424  -10.1507 H   0  0  0  0  0  0  0  0  0  0  0  0
  -32.9996   17.7241  -11.1785 H   0  0  0  0  0  0  0  0  0  0  0  0
  -35.6420   18.1034  -12.7057 H   0  0  0  0  0  0  0  0  0  0  0  0
  -34.0095   19.6516  -13.4664 H   0  0  0  0  0  0  0  0  0  0  0  0
  -34.1941   18.3703  -14.6932 H   0  0  0  0  0  0  0  0  0  0  0  0
  -36.2126   12.5124   -6.9721 H   0  0  0  0  0  0  0  0  0  0  0  0
  -37.0943   12.4869   -8.5084 H   0  0  0  0  0  0  0  0  0  0  0  0
  -37.2564   13.8816   -7.4137 H   0  0  0  0  0  0  0  0  0  0  0  0
  -36.7646   14.8640  -10.0894 H   0  0  0  0  0  0  0  0  0  0  0  0
  -36.9453   15.8012  -13.1774 H   0  0  0  0  0  0  0  0  0  0  0  0
  -34.5846   16.4698   -8.3825 H   0  0  0  0  0  0  0  0  0  0  0  0
  -35.1624   19.5575  -10.8621 H   0  0  0  0  0  0  0  0  0  0  0  0
  1  2  1  0  0  0  0
  1 10  1  0  0  0  0
  1 13  1  0  0  0  0
  1 21  1  6  0  0  0
  2  3  1  0  0  0  0
  2  9  1  0  0  0  0
  2 22  1  1  0  0  0
  3  4  1  0  0  0  0
  3 11  1  0  0  0  0
  3 23  1  1  0  0  0
  4  5  1  0  0  0  0
  4 12  1  0  0  0  0
  4 24  1  1  0  0  0
  5  6  1  0  0  0  0
  5 13  1  0  0  0  0
  5 25  1  6  0  0  0
  6 14  1  0  0  0  0
  6 26  1  0  0  0  0
  6 27  1  0  0  0  0
  7  8  1  1  0  0  0
  7  9  1  0  0  0  0
  7 15  2  0  0  0  0
  7 16  1  0  0  0  0
  8 28  1  0  0  0  0
  8 29  1  0  0  0  0
  8 30  1  0  0  0  0
  9 31  1  0  0  0  0
 10 32  1  0  0  0  0
 11 33  1  0  0  0  0
 12 34  1  0  0  0  0
 14 17  1  0  0  0  0
 17 18  2  0  0  0  0
 17 19  1  0  0  0  0
 17 20  1  0  0  0  0
M  END
$$$$
