NOJ
 OpenBabel04051918273D

 25 25  0  0  1  0  0  0  0  0999 V2000
   23.5625   44.2877   68.6632 C   0  0  0  0  0  0  0  0  0  0  0  0
   23.2432   43.2871   69.7641 C   0  0  2  0  0  0  0  0  0  0  0  0
   22.6266   43.9599   70.8559 O   0  0  0  0  0  0  0  0  0  0  0  0
   24.5507   42.6411   70.2236 C   0  0  1  0  0  0  0  0  0  0  0  0
   24.2688   41.7454   71.2974 O   0  0  0  0  0  0  0  0  0  0  0  0
   25.2335   41.8829   69.0758 C   0  0  2  0  0  0  0  0  0  0  0  0
   26.5340   41.4540   69.4908 O   0  0  0  0  0  0  0  0  0  0  0  0
   25.4208   42.7633   67.8263 C   0  0  2  0  0  0  0  0  0  0  0  0
   24.2004   43.5933   67.5149 N   0  3  0  0  0  0  0  0  0  0  0  0
   25.6992   41.9136   66.5733 C   0  0  0  0  0  0  0  0  0  0  0  0
   24.5891   41.0427   66.3601 O   0  0  0  0  0  0  0  0  0  0  0  0
   24.2350   45.0814   69.0083 H   0  0  0  0  0  0  0  0  0  0  0  0
   22.6489   44.7659   68.2859 H   0  0  0  0  0  0  0  0  0  0  0  0
   22.5467   42.5103   69.4100 H   0  0  0  0  0  0  0  0  0  0  0  0
   21.7186   44.2164   70.6078 H   0  0  0  0  0  0  0  0  0  0  0  0
   25.2506   43.4004   70.6261 H   0  0  0  0  0  0  0  0  0  0  0  0
   23.9303   42.2918   72.0355 H   0  0  0  0  0  0  0  0  0  0  0  0
   24.6335   40.9654   68.8631 H   0  0  0  0  0  0  0  0  0  0  0  0
   26.7916   40.6541   68.9929 H   0  0  0  0  0  0  0  0  0  0  0  0
   26.2454   43.4632   67.9931 H   0  0  0  0  0  0  0  0  0  0  0  0
   23.4878   43.0035   67.0595 H   0  0  0  0  0  0  0  0  0  0  0  0
   26.5903   41.2930   66.6944 H   0  0  0  0  0  0  0  0  0  0  0  0
   25.8490   42.5427   65.6845 H   0  0  0  0  0  0  0  0  0  0  0  0
   23.9460   41.4304   65.7446 H   0  0  0  0  0  0  0  0  0  0  0  0
   24.4770   44.2906   66.8097 H   0  0  0  0  0  0  0  0  0  0  0  0
  1  2  1  0  0  0  0
  1  9  1  0  0  0  0
  1 12  1  0  0  0  0
  1 13  1  0  0  0  0
  2  3  1  0  0  0  0
  2  4  1  0  0  0  0
  2 14  1  6  0  0  0
  3 15  1  0  0  0  0
  4  5  1  0  0  0  0
  4  6  1  0  0  0  0
  4 16  1  1  0  0  0
  5 17  1  0  0  0  0
  6  7  1  0  0  0  0
  6  8  1  0  0  0  0
  6 18  1  6  0  0  0
  7 19  1  0  0  0  0
  8  9  1  0  0  0  0
  8 10  1  0  0  0  0
  8 20  1  1  0  0  0
  9 21  1  0  0  0  0
  9 25  1  0  0  0  0
 10 11  1  0  0  0  0
 10 22  1  0  0  0  0
 10 23  1  0  0  0  0
 11 24  1  0  0  0  0
M  CHG  1   9   1
M  END
$$$$
