NON
 OpenBabel04051918573D

 18 18  0  0  0  0  0  0  0  0999 V2000
   54.1400   22.2975   28.4117 N   0  3  0  0  0  0  0  0  0  0  0  0
   52.8425   21.6017   28.5535 C   0  0  0  0  0  0  0  0  0  0  0  0
   51.9735   22.2338   29.6027 C   0  0  0  0  0  0  0  0  0  0  0  0
   50.8048   22.9225   29.2392 C   0  0  0  0  0  0  0  0  0  0  0  0
   49.9795   23.4900   30.2145 C   0  0  0  0  0  0  0  0  0  0  0  0
   50.3192   23.3810   31.5605 C   0  0  0  0  0  0  0  0  0  0  0  0
   51.4791   22.7111   31.9379 C   0  0  0  0  0  0  0  0  0  0  0  0
   52.3042   22.1370   30.9651 C   0  0  0  0  0  0  0  0  0  0  0  0
   49.2975   24.0662   32.7602 Cl  0  0  0  0  0  0  0  0  0  0  0  0
   54.7131   21.8728   27.6727 H   0  0  0  0  0  0  0  0  0  0  0  0
   53.9973   23.2873   28.1764 H   0  0  0  0  0  0  0  0  0  0  0  0
   53.0579   20.5578   28.8031 H   0  0  0  0  0  0  0  0  0  0  0  0
   52.3682   21.6293   27.5672 H   0  0  0  0  0  0  0  0  0  0  0  0
   50.5014   23.0129   28.1953 H   0  0  0  0  0  0  0  0  0  0  0  0
   49.0664   24.0051   29.9230 H   0  0  0  0  0  0  0  0  0  0  0  0
   51.7369   22.6211   32.9921 H   0  0  0  0  0  0  0  0  0  0  0  0
   53.1890   21.5973   31.2985 H   0  0  0  0  0  0  0  0  0  0  0  0
   54.6760   22.2655   29.2864 H   0  0  0  0  0  0  0  0  0  0  0  0
  1  2  1  0  0  0  0
  1 10  1  0  0  0  0
  1 11  1  0  0  0  0
  1 18  1  0  0  0  0
  2  3  1  0  0  0  0
  2 12  1  0  0  0  0
  2 13  1  0  0  0  0
  3  4  2  0  0  0  0
  3  8  1  0  0  0  0
  4  5  1  0  0  0  0
  4 14  1  0  0  0  0
  5  6  2  0  0  0  0
  5 15  1  0  0  0  0
  6  7  1  0  0  0  0
  6  9  1  0  0  0  0
  7  8  2  0  0  0  0
  7 16  1  0  0  0  0
  8 17  1  0  0  0  0
M  CHG  1   1   1
M  END
$$$$
