NON
 OpenBabel04051918073D

 24 23  0  0  1  0  0  0  0  0999 V2000
   68.5149   48.0642   63.3098 O   0  0  0  0  0  0  0  0  0  0  0  0
   67.3725   49.0580   63.1780 P   0  0  0  0  0  0  0  0  0  0  0  0
   66.8349   49.1752   61.7838 O   0  0  0  0  0  0  0  0  0  0  0  0
   66.3214   48.9080   64.2942 O   0  0  0  0  0  0  0  0  0  0  0  0
   68.2176   50.6996   63.4997 C   0  0  0  0  0  0  0  0  0  0  0  0
   67.3303   51.8857   63.1877 C   0  0  0  0  0  0  0  0  0  0  0  0
   66.3799   52.2455   63.8683 O   0  0  0  0  0  0  0  0  0  0  0  0
   67.8340   52.6878   62.1701 N   0  0  0  0  0  0  0  0  0  0  0  0
   67.1553   53.8594   61.6697 C   0  0  1  0  0  0  0  0  0  0  0  0
   67.9913   54.5579   60.6115 C   0  0  0  0  0  0  0  0  0  0  0  0
   68.2246   53.6975   59.3601 C   0  0  0  0  0  0  0  0  0  0  0  0
   67.4456   52.7680   59.1275 O   0  0  0  0  0  0  0  0  0  0  0  0
   69.2135   54.1080   58.6490 O   0  0  0  0  0  0  0  0  0  0  0  0
   65.7530   53.5829   61.1115 C   0  0  0  0  0  0  0  0  0  0  0  0
   65.1794   52.5078   61.0808 O   0  0  0  0  0  0  0  0  0  0  0  0
   65.0567   54.7117   60.7227 N   0  0  0  0  0  0  0  0  0  0  0  0
   69.1228   50.7267   62.8750 H   0  0  0  0  0  0  0  0  0  0  0  0
   68.5432   50.7743   64.5489 H   0  0  0  0  0  0  0  0  0  0  0  0
   68.5868   52.3073   61.6085 H   0  0  0  0  0  0  0  0  0  0  0  0
   67.0213   54.5356   62.5311 H   0  0  0  0  0  0  0  0  0  0  0  0
   68.9566   54.8192   61.0555 H   0  0  0  0  0  0  0  0  0  0  0  0
   67.5036   55.4936   60.2998 H   0  0  0  0  0  0  0  0  0  0  0  0
   64.1404   54.5882   60.3252 H   0  0  0  0  0  0  0  0  0  0  0  0
   65.5070   55.6032   60.7550 H   0  0  0  0  0  0  0  0  0  0  0  0
  1  2  2  0  0  0  0
  2  3  1  0  0  0  0
  2  4  1  0  0  0  0
  2  5  1  0  0  0  0
  5  6  1  0  0  0  0
  5 17  1  0  0  0  0
  5 18  1  0  0  0  0
  6  7  2  0  0  0  0
  6  8  1  0  0  0  0
  8  9  1  0  0  0  0
  8 19  1  0  0  0  0
  9 10  1  0  0  0  0
  9 14  1  0  0  0  0
  9 20  1  1  0  0  0
 10 11  1  0  0  0  0
 10 21  1  0  0  0  0
 10 22  1  0  0  0  0
 11 12  2  0  0  0  0
 11 13  1  0  0  0  0
 14 15  2  0  0  0  0
 14 16  1  0  0  0  0
 16 23  1  0  0  0  0
 16 24  1  0  0  0  0
M  END
$$$$
