NON
 OpenBabel04051918103D

 22 22  0  0  0  0  0  0  0  0999 V2000
   53.8076   22.3353   28.2911 N   0  3  0  0  0  0  0  0  0  0  0  0
   52.4344   21.7818   28.4179 C   0  0  0  0  0  0  0  0  0  0  0  0
   51.6245   22.3779   29.5385 C   0  0  0  0  0  0  0  0  0  0  0  0
   50.4231   23.0491   29.2517 C   0  0  0  0  0  0  0  0  0  0  0  0
   49.6080   23.5543   30.2792 C   0  0  0  0  0  0  0  0  0  0  0  0
   49.9841   23.4037   31.6084 C   0  0  0  0  0  0  0  0  0  0  0  0
   51.1567   22.7109   31.9077 C   0  0  0  0  0  0  0  0  0  0  0  0
   51.9786   22.2096   30.8840 C   0  0  0  0  0  0  0  0  0  0  0  0
   49.2435   23.8204   32.6799 O   0  0  0  0  0  0  0  0  0  0  0  0
   48.5001   25.0262   32.4996 C   0  0  0  0  0  0  0  0  0  0  0  0
   54.2994   21.9152   27.4973 H   0  0  0  0  0  0  0  0  0  0  0  0
   53.7781   23.3512   28.1491 H   0  0  0  0  0  0  0  0  0  0  0  0
   52.5392   20.7009   28.5481 H   0  0  0  0  0  0  0  0  0  0  0  0
   51.9607   21.9647   27.4484 H   0  0  0  0  0  0  0  0  0  0  0  0
   50.0728   23.1646   28.2275 H   0  0  0  0  0  0  0  0  0  0  0  0
   48.6643   24.0180   30.0085 H   0  0  0  0  0  0  0  0  0  0  0  0
   51.4259   22.5490   32.9513 H   0  0  0  0  0  0  0  0  0  0  0  0
   52.8703   21.6569   31.1749 H   0  0  0  0  0  0  0  0  0  0  0  0
   47.9741   25.2465   33.4342 H   0  0  0  0  0  0  0  0  0  0  0  0
   47.7384   24.9340   31.7190 H   0  0  0  0  0  0  0  0  0  0  0  0
   49.1742   25.8641   32.2884 H   0  0  0  0  0  0  0  0  0  0  0  0
   54.3604   22.1569   29.1399 H   0  0  0  0  0  0  0  0  0  0  0  0
  1  2  1  0  0  0  0
  1 11  1  0  0  0  0
  1 12  1  0  0  0  0
  1 22  1  0  0  0  0
  2  3  1  0  0  0  0
  2 13  1  0  0  0  0
  2 14  1  0  0  0  0
  3  4  2  0  0  0  0
  3  8  1  0  0  0  0
  4  5  1  0  0  0  0
  4 15  1  0  0  0  0
  5  6  2  0  0  0  0
  5 16  1  0  0  0  0
  6  7  1  0  0  0  0
  6  9  1  0  0  0  0
  7  8  2  0  0  0  0
  7 17  1  0  0  0  0
  8 18  1  0  0  0  0
  9 10  1  0  0  0  0
 10 19  1  0  0  0  0
 10 20  1  0  0  0  0
 10 21  1  0  0  0  0
M  CHG  1   1   1
M  END
$$$$
