NON
 OpenBabel04051917533D

 24 25  0  0  0  0  0  0  0  0999 V2000
   20.9988   86.0488   29.1474 O   0  0  0  0  0  0  0  0  0  0  0  0
   21.6290   85.1094   28.5704 C   0  0  0  0  0  0  0  0  0  0  0  0
   22.2565   84.1694   29.1501 O   0  0  0  0  0  0  0  0  0  0  0  0
   21.6316   85.1096   27.0535 C   0  0  0  0  0  0  0  0  0  0  0  0
   20.9524   86.0997   26.3344 C   0  0  0  0  0  0  0  0  0  0  0  0
   22.3123   84.1231   26.3290 C   0  0  0  0  0  0  0  0  0  0  0  0
   22.3222   84.1352   24.9288 C   0  0  0  0  0  0  0  0  0  0  0  0
   21.6374   85.1214   24.1974 C   0  0  0  0  0  0  0  0  0  0  0  0
   20.9465   86.0985   24.9365 C   0  0  0  0  0  0  0  0  0  0  0  0
   21.6415   85.1377   22.7176 C   0  0  0  0  0  0  0  0  0  0  0  0
   21.6219   83.9589   21.9534 C   0  0  0  0  0  0  0  0  0  0  0  0
   21.5819   82.7548   22.5458 F   0  0  0  0  0  0  0  0  0  0  0  0
   21.6266   83.9731   20.5553 C   0  0  0  0  0  0  0  0  0  0  0  0
   21.6328   85.1819   19.8689 C   0  0  0  0  0  0  0  0  0  0  0  0
   21.6462   86.3689   20.5908 C   0  0  0  0  0  0  0  0  0  0  0  0
   21.6602   86.3399   21.9872 C   0  0  0  0  0  0  0  0  0  0  0  0
   21.7076   87.5262   22.6137 F   0  0  0  0  0  0  0  0  0  0  0  0
   20.4207   86.8802   26.8773 H   0  0  0  0  0  0  0  0  0  0  0  0
   22.8433   83.3405   26.8691 H   0  0  0  0  0  0  0  0  0  0  0  0
   22.8842   83.3535   24.4235 H   0  0  0  0  0  0  0  0  0  0  0  0
   20.3863   86.8846   24.4368 H   0  0  0  0  0  0  0  0  0  0  0  0
   21.6184   83.0292   20.0190 H   0  0  0  0  0  0  0  0  0  0  0  0
   21.6280   85.1977   18.7827 H   0  0  0  0  0  0  0  0  0  0  0  0
   21.6488   87.3298   20.0840 H   0  0  0  0  0  0  0  0  0  0  0  0
  1  2  2  0  0  0  0
  2  3  1  0  0  0  0
  2  4  1  0  0  0  0
  4  5  2  0  0  0  0
  4  6  1  0  0  0  0
  5  9  1  0  0  0  0
  5 18  1  0  0  0  0
  6  7  2  0  0  0  0
  6 19  1  0  0  0  0
  7  8  1  0  0  0  0
  7 20  1  0  0  0  0
  8  9  2  0  0  0  0
  8 10  1  0  0  0  0
  9 21  1  0  0  0  0
 10 11  2  0  0  0  0
 10 16  1  0  0  0  0
 11 12  1  0  0  0  0
 11 13  1  0  0  0  0
 13 14  2  0  0  0  0
 13 22  1  0  0  0  0
 14 15  1  0  0  0  0
 14 23  1  0  0  0  0
 15 16  2  0  0  0  0
 15 24  1  0  0  0  0
 16 17  1  0  0  0  0
M  END
$$$$
