NOS
 OpenBabel04051917583D

 31 33  0  0  1  0  0  0  0  0999 V2000
   33.9727   61.4592   10.3356 N   0  3  0  0  0  0  0  0  0  0  0  0
   34.7538   61.5308    9.2078 C   0  0  0  0  0  0  0  0  0  0  0  0
   35.3602   60.4749    8.5763 N   0  0  0  0  0  0  0  0  0  0  0  0
   36.0295   60.8313    7.5106 C   0  0  0  0  0  0  0  0  0  0  0  0
   36.1496   62.1217    7.0310 N   0  3  0  0  0  0  0  0  0  0  0  0
   35.5478   63.1739    7.6710 C   0  0  0  0  0  0  0  0  0  0  0  0
   35.6447   64.3380    7.2786 O   0  0  0  0  0  0  0  0  0  0  0  0
   34.7887   62.8371    8.8557 C   0  0  0  0  0  0  0  0  0  0  0  0
   34.0710   63.6135    9.7358 N   0  0  0  0  0  0  0  0  0  0  0  0
   33.5971   62.7661   10.6127 C   0  0  0  0  0  0  0  0  0  0  0  0
   31.3461   61.3545   13.6404 C   0  0  0  0  0  0  0  0  0  0  0  0
   31.6143   62.6988   13.2470 O   0  0  0  0  0  0  0  0  0  0  0  0
   32.3420   60.3715   13.0341 C   0  0  1  0  0  0  0  0  0  0  0  0
   32.2579   60.4415   11.5945 O   0  0  0  0  0  0  0  0  0  0  0  0
   33.5920   60.2632   11.0572 C   0  0  2  0  0  0  0  0  0  0  0  0
   34.5073   59.9662   12.2317 C   0  0  2  0  0  0  0  0  0  0  0  0
   34.5333   58.5444   12.4876 O   0  0  0  0  0  0  0  0  0  0  0  0
   33.7944   60.6727   13.3752 C   0  0  2  0  0  0  0  0  0  0  0  0
   34.1888   60.1121   14.6149 O   0  0  0  0  0  0  0  0  0  0  0  0
   36.5536   60.0384    6.9348 H   0  0  0  0  0  0  0  0  0  0  0  0
   36.6879   62.3321    6.1897 H   0  0  0  0  0  0  0  0  0  0  0  0
   32.9804   63.0262   11.4557 H   0  0  0  0  0  0  0  0  0  0  0  0
   30.3323   61.1122   13.3003 H   0  0  0  0  0  0  0  0  0  0  0  0
   31.3814   61.3053   14.7312 H   0  0  0  0  0  0  0  0  0  0  0  0
   32.5042   62.9502   13.5425 H   0  0  0  0  0  0  0  0  0  0  0  0
   32.0854   59.3546   13.3662 H   0  0  0  0  0  0  0  0  0  0  0  0
   33.5692   59.4144   10.3582 H   0  0  0  0  0  0  0  0  0  0  0  0
   35.5328   60.3180   12.0893 H   0  0  0  0  0  0  0  0  0  0  0  0
   34.8597   58.0914   11.6922 H   0  0  0  0  0  0  0  0  0  0  0  0
   34.0075   61.7527   13.3693 H   0  0  0  0  0  0  0  0  0  0  0  0
   33.7247   60.5579   15.3387 H   0  0  0  0  0  0  0  0  0  0  0  0
  1  2  1  0  0  0  0
  1 10  2  0  0  0  0
  1 15  1  0  0  0  0
  2  3  1  0  0  0  0
  2  8  2  0  0  0  0
  3  4  2  0  0  0  0
  4  5  1  0  0  0  0
  4 20  1  0  0  0  0
  5  6  1  0  0  0  0
  5 21  1  0  0  0  0
  6  7  2  0  0  0  0
  6  8  1  0  0  0  0
  8  9  1  0  0  0  0
  9 10  1  0  0  0  0
 10 22  1  0  0  0  0
 11 12  1  0  0  0  0
 11 13  1  0  0  0  0
 11 23  1  0  0  0  0
 11 24  1  0  0  0  0
 12 25  1  0  0  0  0
 13 14  1  0  0  0  0
 13 18  1  0  0  0  0
 13 26  1  1  0  0  0
 14 15  1  0  0  0  0
 15 16  1  0  0  0  0
 15 27  1  6  0  0  0
 16 17  1  0  0  0  0
 16 18  1  0  0  0  0
 16 28  1  6  0  0  0
 17 29  1  0  0  0  0
 18 19  1  0  0  0  0
 18 30  1  6  0  0  0
 19 31  1  0  0  0  0
M  CHG  2   1   1   5   1
M  END
$$$$
