NOY
 OpenBabel04051918193D

 25 25  0  0  1  0  0  0  0  0999 V2000
   -1.7259   10.6873    6.9124 O   0  0  0  0  0  0  0  0  0  0  0  0
   -1.2040   10.4881    8.2250 C   0  0  1  0  0  0  0  0  0  0  0  0
   -0.4432   11.7690    8.6163 C   0  0  2  0  0  0  0  0  0  0  0  0
    0.6511   11.9575    7.7086 O   0  0  0  0  0  0  0  0  0  0  0  0
    0.0829   11.6730   10.0713 C   0  0  2  0  0  0  0  0  0  0  0  0
   -0.9478   11.2101   11.0148 N   0  3  0  0  0  0  0  0  0  0  0  0
   -1.7446   10.0190   10.6103 C   0  0  0  0  0  0  0  0  0  0  0  0
   -2.3412   10.2520    9.2278 C   0  0  2  0  0  0  0  0  0  0  0  0
   -3.2325    9.0709    8.8578 C   0  0  0  0  0  0  0  0  0  0  0  0
    0.5521   12.9055   10.5609 O   0  0  0  0  0  0  0  0  0  0  0  0
   -2.5079    7.8693    9.0461 O   0  0  0  0  0  0  0  0  0  0  0  0
   -2.0387    9.8396    6.5456 H   0  0  0  0  0  0  0  0  0  0  0  0
   -0.5106    9.6405    8.1825 H   0  0  0  0  0  0  0  0  0  0  0  0
   -1.0891   12.6457    8.4984 H   0  0  0  0  0  0  0  0  0  0  0  0
    0.2679   11.9873    6.8074 H   0  0  0  0  0  0  0  0  0  0  0  0
    0.9104   10.9568   10.1124 H   0  0  0  0  0  0  0  0  0  0  0  0
   -0.4599   11.0248   11.8865 H   0  0  0  0  0  0  0  0  0  0  0  0
   -2.5075    9.8981   11.3784 H   0  0  0  0  0  0  0  0  0  0  0  0
   -1.0559    9.1684   10.6509 H   0  0  0  0  0  0  0  0  0  0  0  0
   -2.9801   11.1449    9.2406 H   0  0  0  0  0  0  0  0  0  0  0  0
   -3.6129    9.1308    7.8334 H   0  0  0  0  0  0  0  0  0  0  0  0
   -4.1038    9.0476    9.5221 H   0  0  0  0  0  0  0  0  0  0  0  0
    0.0244   13.6359   10.1948 H   0  0  0  0  0  0  0  0  0  0  0  0
   -1.9390    7.7012    8.2731 H   0  0  0  0  0  0  0  0  0  0  0  0
   -1.5593   12.0052   11.2207 H   0  0  0  0  0  0  0  0  0  0  0  0
  1  2  1  0  0  0  0
  1 12  1  0  0  0  0
  2  3  1  0  0  0  0
  2  8  1  0  0  0  0
  2 13  1  1  0  0  0
  3  4  1  0  0  0  0
  3  5  1  0  0  0  0
  3 14  1  6  0  0  0
  4 15  1  0  0  0  0
  5  6  1  0  0  0  0
  5 10  1  0  0  0  0
  5 16  1  1  0  0  0
  6  7  1  0  0  0  0
  6 17  1  0  0  0  0
  6 25  1  0  0  0  0
  7  8  1  0  0  0  0
  7 18  1  0  0  0  0
  7 19  1  0  0  0  0
  8  9  1  0  0  0  0
  8 20  1  1  0  0  0
  9 11  1  0  0  0  0
  9 21  1  0  0  0  0
  9 22  1  0  0  0  0
 10 23  1  0  0  0  0
 11 24  1  0  0  0  0
M  CHG  1   6   1
M  END
$$$$
