NP6
 OpenBabel04051919593D

 50 51  0  0  1  0  0  0  0  0999 V2000
  -11.6083  -11.9771    3.9233 C   0  0  0  0  0  0  0  0  0  0  0  0
  -10.8748  -11.3231    5.0826 C   0  0  0  0  0  0  0  0  0  0  0  0
   -9.7771  -12.2131    5.6620 C   0  0  0  0  0  0  0  0  0  0  0  0
   -9.1023  -11.5555    6.8572 C   0  0  0  0  0  0  0  0  0  0  0  0
   -9.3052  -10.4019    7.2107 O   0  0  0  0  0  0  0  0  0  0  0  0
   -8.2166  -12.3754    7.5162 N   0  0  0  0  0  0  0  0  0  0  0  0
   -7.5453  -11.9555    8.7526 C   0  0  2  0  0  0  0  0  0  0  0  0
   -8.5056  -11.6444    9.9079 C   0  0  1  0  0  0  0  0  0  0  0  0
   -8.7701  -12.8481   10.6534 O   0  0  0  0  0  0  0  0  0  0  0  0
   -7.9095  -10.5994   10.8538 C   0  0  2  0  0  0  0  0  0  0  0  0
   -8.8370  -10.3710   11.9189 O   0  0  0  0  0  0  0  0  0  0  0  0
   -7.6404   -9.3529   10.0123 C   0  0  1  0  0  0  0  0  0  0  0  0
   -7.1114   -8.1669   10.8349 C   0  0  0  0  0  0  0  0  0  0  0  0
   -5.9308   -8.4895   11.5671 O   0  0  0  0  0  0  0  0  0  0  0  0
   -6.6623   -9.6399    8.9872 O   0  0  0  0  0  0  0  0  0  0  0  0
   -6.4971  -10.8760    8.4785 C   0  0  0  0  0  0  0  0  0  0  0  0
   -5.4282  -11.1823    7.8020 N   0  0  0  0  0  0  0  0  0  0  0  0
   -4.5702  -10.0510    7.7264 O   0  0  0  0  0  0  0  0  0  0  0  0
   -3.2987  -10.3680    7.2706 C   0  0  0  0  0  0  0  0  0  0  0  0
   -2.4513   -9.4906    7.1548 O   0  0  0  0  0  0  0  0  0  0  0  0
   -3.1410  -11.7032    6.9903 N   0  0  0  0  0  0  0  0  0  0  0  0
   -2.0167  -12.3709    6.4818 C   0  0  0  0  0  0  0  0  0  0  0  0
   -2.1380  -13.7454    6.2393 C   0  0  0  0  0  0  0  0  0  0  0  0
   -1.0674  -14.4747    5.7119 C   0  0  0  0  0  0  0  0  0  0  0  0
    0.1366  -13.8364    5.4271 C   0  0  0  0  0  0  0  0  0  0  0  0
    0.2693  -12.4721    5.6721 C   0  0  0  0  0  0  0  0  0  0  0  0
   -0.8023  -11.7423    6.1981 C   0  0  0  0  0  0  0  0  0  0  0  0
  -12.3862  -11.3047    3.5462 H   0  0  0  0  0  0  0  0  0  0  0  0
  -12.0912  -12.9084    4.2356 H   0  0  0  0  0  0  0  0  0  0  0  0
  -10.9256  -12.2003    3.0976 H   0  0  0  0  0  0  0  0  0  0  0  0
  -11.6001  -11.0750    5.8673 H   0  0  0  0  0  0  0  0  0  0  0  0
  -10.4415  -10.3744    4.7422 H   0  0  0  0  0  0  0  0  0  0  0  0
   -9.0125  -12.4134    4.9016 H   0  0  0  0  0  0  0  0  0  0  0  0
  -10.2011  -13.1715    5.9817 H   0  0  0  0  0  0  0  0  0  0  0  0
   -8.1763  -13.3562    7.2688 H   0  0  0  0  0  0  0  0  0  0  0  0
   -6.9614  -12.8399    9.0434 H   0  0  0  0  0  0  0  0  0  0  0  0
   -9.4848  -11.3026    9.5541 H   0  0  0  0  0  0  0  0  0  0  0  0
   -9.3275  -12.5622   11.4052 H   0  0  0  0  0  0  0  0  0  0  0  0
   -6.9893  -11.0021   11.2958 H   0  0  0  0  0  0  0  0  0  0  0  0
   -8.4276   -9.7793   12.5730 H   0  0  0  0  0  0  0  0  0  0  0  0
   -8.5601   -9.0131    9.5189 H   0  0  0  0  0  0  0  0  0  0  0  0
   -7.8651   -7.7990   11.5389 H   0  0  0  0  0  0  0  0  0  0  0  0
   -6.8483   -7.3421   10.1643 H   0  0  0  0  0  0  0  0  0  0  0  0
   -6.1378   -9.1229   12.2706 H   0  0  0  0  0  0  0  0  0  0  0  0
   -3.9923  -12.2216    7.1649 H   0  0  0  0  0  0  0  0  0  0  0  0
   -3.0690  -14.2649    6.4503 H   0  0  0  0  0  0  0  0  0  0  0  0
   -1.1754  -15.5389    5.5211 H   0  0  0  0  0  0  0  0  0  0  0  0
    0.9700  -14.3983    5.0144 H   0  0  0  0  0  0  0  0  0  0  0  0
    1.2067  -11.9671    5.4528 H   0  0  0  0  0  0  0  0  0  0  0  0
   -0.6553  -10.6810    6.3716 H   0  0  0  0  0  0  0  0  0  0  0  0
  1  2  1  0  0  0  0
  1 28  1  0  0  0  0
  1 29  1  0  0  0  0
  1 30  1  0  0  0  0
  2  3  1  0  0  0  0
  2 31  1  0  0  0  0
  2 32  1  0  0  0  0
  3  4  1  0  0  0  0
  3 33  1  0  0  0  0
  3 34  1  0  0  0  0
  4  5  2  0  0  0  0
  4  6  1  0  0  0  0
  6  7  1  0  0  0  0
  6 35  1  0  0  0  0
  7  8  1  0  0  0  0
  7 16  1  0  0  0  0
  7 36  1  1  0  0  0
  8  9  1  0  0  0  0
  8 10  1  0  0  0  0
  8 37  1  6  0  0  0
  9 38  1  0  0  0  0
 10 11  1  0  0  0  0
 10 12  1  0  0  0  0
 10 39  1  1  0  0  0
 11 40  1  0  0  0  0
 12 13  1  0  0  0  0
 12 15  1  0  0  0  0
 12 41  1  6  0  0  0
 13 14  1  0  0  0  0
 13 42  1  0  0  0  0
 13 43  1  0  0  0  0
 14 44  1  0  0  0  0
 15 16  1  0  0  0  0
 16 17  2  0  0  0  0
 17 18  1  0  0  0  0
 18 19  1  0  0  0  0
 19 20  2  0  0  0  0
 19 21  1  0  0  0  0
 21 22  1  0  0  0  0
 21 45  1  0  0  0  0
 22 23  2  0  0  0  0
 22 27  1  0  0  0  0
 23 24  1  0  0  0  0
 23 46  1  0  0  0  0
 24 25  2  0  0  0  0
 24 47  1  0  0  0  0
 25 26  1  0  0  0  0
 25 48  1  0  0  0  0
 26 27  2  0  0  0  0
 26 49  1  0  0  0  0
 27 50  1  0  0  0  0
M  END
$$$$
