NTZ
 OpenBabel04051918213D

 24 25  0  0  1  0  0  0  0  0999 V2000
   34.3571   24.5069   39.0218 C   0  0  0  0  0  0  0  0  0  0  0  0
   34.9991   23.4790   38.1672 C   0  0  1  0  0  0  0  0  0  0  0  0
   35.2580   24.0177   36.7417 C   0  0  2  0  0  0  0  0  0  0  0  0
   34.0460   24.8476   36.2460 C   0  0  1  0  0  0  0  0  0  0  0  0
   33.8820   26.0985   37.1380 C   0  0  1  0  0  0  0  0  0  0  0  0
   32.6409   26.9195   36.7606 C   0  0  0  0  0  0  0  0  0  0  0  0
   33.8772   25.6885   38.5196 N   0  3  0  0  0  0  0  0  0  0  0  0
   33.2095   26.3563   39.4759 N   0  0  0  0  0  0  0  0  0  0  0  0
   33.3074   25.5969   40.5587 N   0  0  0  0  0  0  0  0  0  0  0  0
   34.0245   24.4517   40.3007 N   0  0  0  0  0  0  0  0  0  0  0  0
   36.2139   23.0645   38.7889 O   0  0  0  0  0  0  0  0  0  0  0  0
   35.4978   22.9153   35.8590 O   0  0  0  0  0  0  0  0  0  0  0  0
   34.2848   25.2392   34.8865 O   0  0  0  0  0  0  0  0  0  0  0  0
   31.4499   26.1688   36.9796 O   0  0  0  0  0  0  0  0  0  0  0  0
   34.3487   22.5929   38.1139 H   0  0  0  0  0  0  0  0  0  0  0  0
   36.1663   24.6311   36.7188 H   0  0  0  0  0  0  0  0  0  0  0  0
   33.1495   24.2160   36.2590 H   0  0  0  0  0  0  0  0  0  0  0  0
   34.7586   26.7461   37.0156 H   0  0  0  0  0  0  0  0  0  0  0  0
   32.6607   27.2024   35.7050 H   0  0  0  0  0  0  0  0  0  0  0  0
   32.5836   27.8546   37.3303 H   0  0  0  0  0  0  0  0  0  0  0  0
   36.8353   23.8043   38.7999 H   0  0  0  0  0  0  0  0  0  0  0  0
   35.6297   23.2992   34.9678 H   0  0  0  0  0  0  0  0  0  0  0  0
   33.4507   25.6155   34.5404 H   0  0  0  0  0  0  0  0  0  0  0  0
   31.3516   26.0628   37.9491 H   0  0  0  0  0  0  0  0  0  0  0  0
  1  2  1  0  0  0  0
  1  7  2  0  0  0  0
  1 10  1  0  0  0  0
  2  3  1  0  0  0  0
  2 11  1  0  0  0  0
  2 15  1  6  0  0  0
  3  4  1  0  0  0  0
  3 12  1  0  0  0  0
  3 16  1  1  0  0  0
  4  5  1  0  0  0  0
  4 13  1  0  0  0  0
  4 17  1  1  0  0  0
  5  6  1  0  0  0  0
  5  7  1  0  0  0  0
  5 18  1  6  0  0  0
  6 14  1  0  0  0  0
  6 19  1  0  0  0  0
  6 20  1  0  0  0  0
  7  8  1  0  0  0  0
  8  9  1  0  0  0  0
  9 10  2  0  0  0  0
 11 21  1  0  0  0  0
 12 22  1  0  0  0  0
 13 23  1  0  0  0  0
 14 24  1  0  0  0  0
M  CHG  1   7   1
M  END
$$$$
