NUP
 OpenBabel04051918593D

 35 36  0  0  1  0  0  0  0  0999 V2000
    5.1794  -23.3528  -20.6174 O   0  0  0  0  0  0  0  0  0  0  0  0
    5.8996  -23.8673  -21.4702 C   0  0  0  0  0  0  0  0  0  0  0  0
    5.8203  -25.1830  -21.7410 N   0  0  0  0  0  0  0  0  0  0  0  0
    6.5582  -25.8850  -22.6304 C   0  0  0  0  0  0  0  0  0  0  0  0
    6.4426  -27.0853  -22.7947 O   0  0  0  0  0  0  0  0  0  0  0  0
    6.8731  -23.0506  -22.2288 C   0  0  0  0  0  0  0  0  0  0  0  0
    7.7065  -23.8152  -23.1813 C   0  0  0  0  0  0  0  0  0  0  0  0
    8.5852  -23.0539  -23.8252 N   0  0  0  0  0  0  0  0  0  0  0  0
    7.5620  -25.1268  -23.3181 N   0  0  0  0  0  0  0  0  0  0  0  0
    8.4286  -25.9006  -24.2503 C   0  0  2  0  0  0  0  0  0  0  0  0
    7.6587  -26.3578  -25.3527 O   0  0  0  0  0  0  0  0  0  0  0  0
    9.2017  -27.0541  -23.6216 C   0  0  2  0  0  0  0  0  0  0  0  0
   10.3902  -26.5984  -22.9571 O   0  0  0  0  0  0  0  0  0  0  0  0
    9.4715  -27.8766  -24.8779 C   0  0  2  0  0  0  0  0  0  0  0  0
   10.5759  -27.2634  -25.5839 O   0  0  0  0  0  0  0  0  0  0  0  0
    8.1849  -27.6735  -25.7053 C   0  0  1  0  0  0  0  0  0  0  0  0
    7.1239  -28.7398  -25.4644 C   0  0  0  0  0  0  0  0  0  0  0  0
    7.5614  -29.8902  -26.1409 O   0  0  0  0  0  0  0  0  0  0  0  0
    6.6233  -31.2323  -26.0492 P   0  0  0  0  0  0  0  0  0  0  0  0
    5.5945  -31.0155  -27.1386 O   0  0  0  0  0  0  0  0  0  0  0  0
    7.6370  -32.3299  -26.3052 O   0  0  0  0  0  0  0  0  0  0  0  0
    6.0730  -31.1812  -24.6300 O   0  0  0  0  0  0  0  0  0  0  0  0
    5.1453  -25.7333  -21.2251 H   0  0  0  0  0  0  0  0  0  0  0  0
    7.5319  -22.5604  -21.4939 H   0  0  0  0  0  0  0  0  0  0  0  0
    6.3152  -22.2732  -22.7674 H   0  0  0  0  0  0  0  0  0  0  0  0
    9.2079  -23.3998  -24.5578 H   0  0  0  0  0  0  0  0  0  0  0  0
    9.1752  -25.2262  -24.6702 H   0  0  0  0  0  0  0  0  0  0  0  0
    8.6205  -27.6379  -22.9066 H   0  0  0  0  0  0  0  0  0  0  0  0
   10.1431  -26.1401  -22.1401 H   0  0  0  0  0  0  0  0  0  0  0  0
    9.7386  -28.9151  -24.6556 H   0  0  0  0  0  0  0  0  0  0  0  0
   10.7776  -27.8810  -26.3156 H   0  0  0  0  0  0  0  0  0  0  0  0
    8.4446  -27.6518  -26.7719 H   0  0  0  0  0  0  0  0  0  0  0  0
    6.1510  -28.4003  -25.8388 H   0  0  0  0  0  0  0  0  0  0  0  0
    7.0265  -28.9409  -24.3940 H   0  0  0  0  0  0  0  0  0  0  0  0
    8.6361  -22.0555  -23.6738 H   0  0  0  0  0  0  0  0  0  0  0  0
  1  2  2  0  0  0  0
  2  3  1  0  0  0  0
  2  6  1  0  0  0  0
  3  4  1  0  0  0  0
  3 23  1  0  0  0  0
  4  5  2  0  0  0  0
  4  9  1  0  0  0  0
  6  7  1  0  0  0  0
  6 24  1  0  0  0  0
  6 25  1  0  0  0  0
  7  8  2  0  0  0  0
  7  9  1  0  0  0  0
  8 26  1  0  0  0  0
  8 35  1  0  0  0  0
  9 10  1  0  0  0  0
 10 11  1  0  0  0  0
 10 12  1  0  0  0  0
 10 27  1  6  0  0  0
 11 16  1  0  0  0  0
 12 13  1  0  0  0  0
 12 14  1  0  0  0  0
 12 28  1  1  0  0  0
 13 29  1  0  0  0  0
 14 15  1  0  0  0  0
 14 16  1  0  0  0  0
 14 30  1  1  0  0  0
 15 31  1  0  0  0  0
 16 17  1  0  0  0  0
 16 32  1  6  0  0  0
 17 18  1  0  0  0  0
 17 33  1  0  0  0  0
 17 34  1  0  0  0  0
 18 19  1  0  0  0  0
 19 20  2  0  0  0  0
 19 21  1  0  0  0  0
 19 22  1  0  0  0  0
M  END
$$$$
