O33
 OpenBabel04051918463D

 99104  0  0  1  0  0  0  0  0999 V2000
   18.0651  -23.9585  -17.1533 C   0  0  0  0  0  0  0  0  0  0  0  0
   15.9551  -23.9259  -18.3910 C   0  0  2  0  0  0  0  0  0  0  0  0
   14.8684  -22.9250  -18.0499 C   0  0  0  0  0  0  0  0  0  0  0  0
   14.3777  -20.6212  -17.4187 C   0  0  2  0  0  0  0  0  0  0  0  0
   14.2557  -19.7425  -18.6575 C   0  0  1  0  0  0  0  0  0  0  0  0
   12.9497  -18.9889  -18.5752 C   0  0  0  0  0  0  0  0  0  0  0  0
   14.8751  -19.8734  -16.1810 C   0  0  0  0  0  0  0  0  0  0  0  0
   15.1486  -20.8528  -15.0675 C   0  0  0  0  0  0  0  0  0  0  0  0
   16.4726  -21.1384  -14.7183 C   0  0  0  0  0  0  0  0  0  0  0  0
   15.6793  -22.7479  -13.1129 C   0  0  0  0  0  0  0  0  0  0  0  0
   14.3588  -22.4805  -13.4638 C   0  0  0  0  0  0  0  0  0  0  0  0
   11.8533  -20.7840  -19.9619 C   0  0  0  0  0  0  0  0  0  0  0  0
   10.6432  -18.7452  -19.2583 C   0  0  2  0  0  0  0  0  0  0  0  0
    8.2636  -19.0984  -20.2375 C   0  0  0  0  0  0  0  0  0  0  0  0
   10.2142  -18.6471  -21.6824 C   0  0  0  0  0  0  0  0  0  0  0  0
   15.3049  -25.1692  -18.9671 C   0  0  0  0  0  0  0  0  0  0  0  0
   18.8180  -24.3471  -15.8977 C   0  0  0  0  0  0  0  0  0  0  0  0
   16.4230  -25.1982  -21.4470 C   0  0  0  0  0  0  0  0  0  0  0  0
   18.1879  -26.0717  -11.4717 C   0  0  0  0  0  0  0  0  0  0  0  0
   17.7011  -25.8164  -12.7690 C   0  0  0  0  0  0  0  0  0  0  0  0
   17.3688  -26.7940  -10.6089 C   0  0  0  0  0  0  0  0  0  0  0  0
   15.7000  -26.9890  -12.1876 C   0  0  0  0  0  0  0  0  0  0  0  0
   16.4259  -26.2744  -13.1191 C   0  0  0  0  0  0  0  0  0  0  0  0
    8.3325  -17.4270  -16.5629 C   0  0  1  0  0  0  0  0  0  0  0  0
    9.8969  -19.6966  -17.1591 O   0  0  0  0  0  0  0  0  0  0  0  0
    9.9343  -18.7411  -17.9000 C   0  0  0  0  0  0  0  0  0  0  0  0
    9.2326  -17.5763  -17.6737 N   0  0  0  0  0  0  0  0  0  0  0  0
    8.9217  -16.7928  -15.3379 C   0  0  0  0  0  0  0  0  0  0  0  0
   10.1357  -17.0717  -14.7264 C   0  0  0  0  0  0  0  0  0  0  0  0
   10.4568  -16.4047  -13.5443 C   0  0  0  0  0  0  0  0  0  0  0  0
    9.5676  -15.4670  -12.9985 C   0  0  0  0  0  0  0  0  0  0  0  0
    8.3300  -15.2143  -13.6002 C   0  0  0  0  0  0  0  0  0  0  0  0
    8.0195  -15.8807  -14.7731 C   0  0  0  0  0  0  0  0  0  0  0  0
    6.7682  -15.7671  -15.5951 C   0  0  0  0  0  0  0  0  0  0  0  0
    7.2096  -16.4206  -16.9145 C   0  0  1  0  0  0  0  0  0  0  0  0
    7.7265  -15.4240  -17.8266 O   0  0  0  0  0  0  0  0  0  0  0  0
    9.7608  -19.2977  -20.3784 C   0  0  0  0  0  0  0  0  0  0  0  0
   10.1449  -21.0781  -20.4126 S   0  0  0  0  0  0  0  0  0  0  0  0
   11.8735  -19.5295  -19.2278 N   0  0  0  0  0  0  0  0  0  0  0  0
   12.8703  -17.9224  -17.9737 O   0  0  0  0  0  0  0  0  0  0  0  0
   15.3727  -18.8615  -18.7508 O   0  0  0  0  0  0  0  0  0  0  0  0
   16.7337  -22.0887  -13.7435 C   0  0  0  0  0  0  0  0  0  0  0  0
   14.0918  -21.5320  -14.4443 C   0  0  0  0  0  0  0  0  0  0  0  0
   15.3242  -21.6773  -17.7474 N   0  0  0  0  0  0  0  0  0  0  0  0
   13.6704  -23.1938  -18.0578 O   0  0  0  0  0  0  0  0  0  0  0  0
   14.8207  -24.8619  -20.6992 S   0  0  0  0  0  0  0  0  0  0  0  0
   16.7305  -24.2596  -17.2063 N   0  0  0  0  0  0  0  0  0  0  0  0
   18.6340  -23.4002  -18.0854 O   0  0  0  0  0  0  0  0  0  0  0  0
   17.9580  -24.8962  -14.9189 O   0  0  0  0  0  0  0  0  0  0  0  0
   18.5045  -25.1121  -13.6786 C   0  0  0  0  0  0  0  0  0  0  0  0
   19.7571  -24.6437  -13.2785 C   0  0  0  0  0  0  0  0  0  0  0  0
   20.2310  -24.8932  -11.9927 C   0  0  0  0  0  0  0  0  0  0  0  0
   19.4551  -25.6123  -11.0896 C   0  0  0  0  0  0  0  0  0  0  0  0
   16.1412  -27.2607  -10.9404 N   0  0  0  0  0  0  0  0  0  0  0  0
   16.6151  -23.4522  -19.1301 H   0  0  0  0  0  0  0  0  0  0  0  0
   13.4013  -21.0715  -17.1821 H   0  0  0  0  0  0  0  0  0  0  0  0
   14.2693  -20.3618  -19.5614 H   0  0  0  0  0  0  0  0  0  0  0  0
   14.1453  -19.1347  -15.8373 H   0  0  0  0  0  0  0  0  0  0  0  0
   15.8013  -19.3366  -16.4165 H   0  0  0  0  0  0  0  0  0  0  0  0
   17.2957  -20.6183  -15.2039 H   0  0  0  0  0  0  0  0  0  0  0  0
   15.8918  -23.4784  -12.3390 H   0  0  0  0  0  0  0  0  0  0  0  0
   13.5445  -23.0012  -12.9664 H   0  0  0  0  0  0  0  0  0  0  0  0
   12.4477  -20.6703  -20.8789 H   0  0  0  0  0  0  0  0  0  0  0  0
   12.2716  -21.5909  -19.3652 H   0  0  0  0  0  0  0  0  0  0  0  0
   10.9134  -17.7004  -19.4634 H   0  0  0  0  0  0  0  0  0  0  0  0
    7.7389  -19.5389  -21.0926 H   0  0  0  0  0  0  0  0  0  0  0  0
    8.0306  -18.0283  -20.2218 H   0  0  0  0  0  0  0  0  0  0  0  0
    7.8685  -19.5538  -19.3255 H   0  0  0  0  0  0  0  0  0  0  0  0
   11.2937  -18.7467  -21.8367 H   0  0  0  0  0  0  0  0  0  0  0  0
    9.9903  -17.5735  -21.6469 H   0  0  0  0  0  0  0  0  0  0  0  0
    9.6919  -19.0777  -22.5381 H   0  0  0  0  0  0  0  0  0  0  0  0
   14.4128  -25.4456  -18.3948 H   0  0  0  0  0  0  0  0  0  0  0  0
   15.9934  -26.0175  -18.9197 H   0  0  0  0  0  0  0  0  0  0  0  0
   19.2933  -23.4213  -15.5525 H   0  0  0  0  0  0  0  0  0  0  0  0
   19.5705  -25.0896  -16.1871 H   0  0  0  0  0  0  0  0  0  0  0  0
   16.3377  -25.0357  -22.5212 H   0  0  0  0  0  0  0  0  0  0  0  0
   16.6863  -26.2410  -21.2573 H   0  0  0  0  0  0  0  0  0  0  0  0
   17.2016  -24.5441  -21.0458 H   0  0  0  0  0  0  0  0  0  0  0  0
   17.6971  -27.0234   -9.5974 H   0  0  0  0  0  0  0  0  0  0  0  0
   14.7161  -27.3725  -12.4405 H   0  0  0  0  0  0  0  0  0  0  0  0
   16.0066  -26.0683  -14.0981 H   0  0  0  0  0  0  0  0  0  0  0  0
    7.9094  -18.3954  -16.2760 H   0  0  0  0  0  0  0  0  0  0  0  0
    9.3158  -16.7874  -18.3022 H   0  0  0  0  0  0  0  0  0  0  0  0
   10.8200  -17.7941  -15.1624 H   0  0  0  0  0  0  0  0  0  0  0  0
   11.4012  -16.6138  -13.0452 H   0  0  0  0  0  0  0  0  0  0  0  0
    9.8493  -14.9266  -12.0984 H   0  0  0  0  0  0  0  0  0  0  0  0
    7.6408  -14.5007  -13.1619 H   0  0  0  0  0  0  0  0  0  0  0  0
    6.4786  -14.7228  -15.7409 H   0  0  0  0  0  0  0  0  0  0  0  0
    5.9462  -16.3308  -15.1398 H   0  0  0  0  0  0  0  0  0  0  0  0
    6.3835  -16.9261  -17.4242 H   0  0  0  0  0  0  0  0  0  0  0  0
    7.0331  -14.7561  -17.9578 H   0  0  0  0  0  0  0  0  0  0  0  0
   15.2049  -18.2704  -19.5044 H   0  0  0  0  0  0  0  0  0  0  0  0
   17.7584  -22.3151  -13.4708 H   0  0  0  0  0  0  0  0  0  0  0  0
   13.0616  -21.3202  -14.7266 H   0  0  0  0  0  0  0  0  0  0  0  0
   16.3126  -21.4515  -17.7832 H   0  0  0  0  0  0  0  0  0  0  0  0
   16.2823  -24.6977  -16.4075 H   0  0  0  0  0  0  0  0  0  0  0  0
   20.3848  -24.0716  -13.9509 H   0  0  0  0  0  0  0  0  0  0  0  0
   21.2131  -24.5308  -11.7001 H   0  0  0  0  0  0  0  0  0  0  0  0
   19.8368  -25.8144  -10.0913 H   0  0  0  0  0  0  0  0  0  0  0  0
  1 17  1  0  0  0  0
  1 47  1  0  0  0  0
  1 48  2  0  0  0  0
  2  3  1  0  0  0  0
  2 16  1  0  0  0  0
  2 47  1  0  0  0  0
  2 55  1  6  0  0  0
  3 44  1  0  0  0  0
  3 45  2  0  0  0  0
  4  5  1  0  0  0  0
  4  7  1  0  0  0  0
  4 44  1  0  0  0  0
  4 56  1  1  0  0  0
  5  6  1  0  0  0  0
  5 41  1  0  0  0  0
  5 57  1  6  0  0  0
  6 39  1  0  0  0  0
  6 40  2  0  0  0  0
  7  8  1  0  0  0  0
  7 58  1  0  0  0  0
  7 59  1  0  0  0  0
  8  9  2  0  0  0  0
  8 43  1  0  0  0  0
  9 42  1  0  0  0  0
  9 60  1  0  0  0  0
 10 11  1  0  0  0  0
 10 42  2  0  0  0  0
 10 61  1  0  0  0  0
 11 43  2  0  0  0  0
 11 62  1  0  0  0  0
 12 38  1  0  0  0  0
 12 39  1  0  0  0  0
 12 63  1  0  0  0  0
 12 64  1  0  0  0  0
 13 26  1  0  0  0  0
 13 37  1  0  0  0  0
 13 39  1  0  0  0  0
 13 65  1  6  0  0  0
 14 37  1  0  0  0  0
 14 66  1  0  0  0  0
 14 67  1  0  0  0  0
 14 68  1  0  0  0  0
 15 37  1  0  0  0  0
 15 69  1  0  0  0  0
 15 70  1  0  0  0  0
 15 71  1  0  0  0  0
 16 46  1  0  0  0  0
 16 72  1  0  0  0  0
 16 73  1  0  0  0  0
 17 49  1  0  0  0  0
 17 74  1  0  0  0  0
 17 75  1  0  0  0  0
 18 46  1  0  0  0  0
 18 76  1  0  0  0  0
 18 77  1  0  0  0  0
 18 78  1  0  0  0  0
 19 20  2  0  0  0  0
 19 21  1  0  0  0  0
 19 53  1  0  0  0  0
 20 23  1  0  0  0  0
 20 50  1  0  0  0  0
 21 54  2  0  0  0  0
 21 79  1  0  0  0  0
 22 23  2  0  0  0  0
 22 54  1  0  0  0  0
 22 80  1  0  0  0  0
 23 81  1  0  0  0  0
 24 27  1  0  0  0  0
 24 28  1  0  0  0  0
 24 35  1  0  0  0  0
 24 82  1  1  0  0  0
 25 26  2  0  0  0  0
 26 27  1  0  0  0  0
 27 83  1  0  0  0  0
 28 29  2  0  0  0  0
 28 33  1  0  0  0  0
 29 30  1  0  0  0  0
 29 84  1  0  0  0  0
 30 31  2  0  0  0  0
 30 85  1  0  0  0  0
 31 32  1  0  0  0  0
 31 86  1  0  0  0  0
 32 33  2  0  0  0  0
 32 87  1  0  0  0  0
 33 34  1  0  0  0  0
 34 35  1  0  0  0  0
 34 88  1  0  0  0  0
 34 89  1  0  0  0  0
 35 36  1  0  0  0  0
 35 90  1  6  0  0  0
 36 91  1  0  0  0  0
 37 38  1  0  0  0  0
 41 92  1  0  0  0  0
 42 93  1  0  0  0  0
 43 94  1  0  0  0  0
 44 95  1  0  0  0  0
 47 96  1  0  0  0  0
 49 50  1  0  0  0  0
 50 51  2  0  0  0  0
 51 52  1  0  0  0  0
 51 97  1  0  0  0  0
 52 53  2  0  0  0  0
 52 98  1  0  0  0  0
 53 99  1  0  0  0  0
M  END
$$$$
