OAN
 OpenBabel04051918413D

 44 45  0  0  1  0  0  0  0  0999 V2000
    6.0763   -9.0494   13.5956 C   0  0  0  0  0  0  0  0  0  0  0  0
    5.8124   -8.7634   12.1487 C   0  0  0  0  0  0  0  0  0  0  0  0
    6.6545   -8.1820   11.4479 O   0  0  0  0  0  0  0  0  0  0  0  0
    4.5677   -9.1112   11.7040 N   0  0  0  0  0  0  0  0  0  0  0  0
    4.1584   -8.8894   10.3101 C   0  0  2  0  0  0  0  0  0  0  0  0
    3.1129   -7.7937   10.2898 C   0  0  1  0  0  0  0  0  0  0  0  0
    3.7404   -6.5318   10.5715 O   0  0  0  0  0  0  0  0  0  0  0  0
    2.4313   -7.7337    8.9279 C   0  0  2  0  0  0  0  0  0  0  0  0
    1.4338   -6.7095    8.9635 O   0  0  0  0  0  0  0  0  0  0  0  0
    1.7692   -9.0780    8.6361 C   0  0  1  0  0  0  0  0  0  0  0  0
    1.1746   -9.0811    7.2156 C   0  0  0  0  0  0  0  0  0  0  0  0
    2.1903   -9.1400    6.2213 O   0  0  0  0  0  0  0  0  0  0  0  0
    2.6785  -10.1908    8.7710 O   0  0  0  0  0  0  0  0  0  0  0  0
    3.6899  -10.1837    9.6569 C   0  0  0  0  0  0  0  0  0  0  0  0
    4.3571  -11.2630    9.8971 N   0  0  0  0  0  0  0  0  0  0  0  0
    3.8935  -12.3879    9.1791 O   0  0  0  0  0  0  0  0  0  0  0  0
    4.7194  -13.4640    9.4620 C   0  0  0  0  0  0  0  0  0  0  0  0
    5.6388  -13.4240   10.2696 O   0  0  0  0  0  0  0  0  0  0  0  0
    4.3448  -14.5575    8.7086 N   0  0  0  0  0  0  0  0  0  0  0  0
    4.9618  -15.8265    8.6888 C   0  0  0  0  0  0  0  0  0  0  0  0
    6.0869  -16.1595    9.4543 C   0  0  0  0  0  0  0  0  0  0  0  0
    6.6502  -17.4383    9.3889 C   0  0  0  0  0  0  0  0  0  0  0  0
    6.0931  -18.4058    8.5612 C   0  0  0  0  0  0  0  0  0  0  0  0
    4.9725  -18.0937    7.7938 C   0  0  0  0  0  0  0  0  0  0  0  0
    4.4070  -16.8139    7.8621 C   0  0  0  0  0  0  0  0  0  0  0  0
    5.2183   -9.5273   14.0765 H   0  0  0  0  0  0  0  0  0  0  0  0
    6.2829   -8.1083   14.1074 H   0  0  0  0  0  0  0  0  0  0  0  0
    6.9434   -9.7106   13.6701 H   0  0  0  0  0  0  0  0  0  0  0  0
    3.9342   -9.5996   12.3205 H   0  0  0  0  0  0  0  0  0  0  0  0
    5.0397   -8.5589    9.7439 H   0  0  0  0  0  0  0  0  0  0  0  0
    2.3684   -7.9558   11.0792 H   0  0  0  0  0  0  0  0  0  0  0  0
    4.2283   -6.6274   11.4099 H   0  0  0  0  0  0  0  0  0  0  0  0
    3.1775   -7.4963    8.1602 H   0  0  0  0  0  0  0  0  0  0  0  0
    1.0664   -6.6012    8.0710 H   0  0  0  0  0  0  0  0  0  0  0  0
    0.9315   -9.2471    9.3257 H   0  0  0  0  0  0  0  0  0  0  0  0
    0.5983   -8.1703    7.0236 H   0  0  0  0  0  0  0  0  0  0  0  0
    0.5076   -9.9316    7.0701 H   0  0  0  0  0  0  0  0  0  0  0  0
    2.6167  -10.0113    6.3202 H   0  0  0  0  0  0  0  0  0  0  0  0
    3.5543  -14.4103    8.1006 H   0  0  0  0  0  0  0  0  0  0  0  0
    6.5710  -15.4363   10.1047 H   0  0  0  0  0  0  0  0  0  0  0  0
    7.5256  -17.6696    9.9881 H   0  0  0  0  0  0  0  0  0  0  0  0
    6.5367  -19.3993    8.5100 H   0  0  0  0  0  0  0  0  0  0  0  0
    4.5341  -18.8483    7.1494 H   0  0  0  0  0  0  0  0  0  0  0  0
    3.5369  -16.5996    7.2521 H   0  0  0  0  0  0  0  0  0  0  0  0
  1  2  1  0  0  0  0
  1 26  1  0  0  0  0
  1 27  1  0  0  0  0
  1 28  1  0  0  0  0
  2  3  2  0  0  0  0
  2  4  1  0  0  0  0
  4  5  1  0  0  0  0
  4 29  1  0  0  0  0
  5  6  1  0  0  0  0
  5 14  1  0  0  0  0
  5 30  1  6  0  0  0
  6  7  1  0  0  0  0
  6  8  1  0  0  0  0
  6 31  1  1  0  0  0
  7 32  1  0  0  0  0
  8  9  1  0  0  0  0
  8 10  1  0  0  0  0
  8 33  1  6  0  0  0
  9 34  1  0  0  0  0
 10 11  1  0  0  0  0
 10 13  1  0  0  0  0
 10 35  1  1  0  0  0
 11 12  1  0  0  0  0
 11 36  1  0  0  0  0
 11 37  1  0  0  0  0
 12 38  1  0  0  0  0
 13 14  1  0  0  0  0
 14 15  2  0  0  0  0
 15 16  1  0  0  0  0
 16 17  1  0  0  0  0
 17 18  2  0  0  0  0
 17 19  1  0  0  0  0
 19 20  1  0  0  0  0
 19 39  1  0  0  0  0
 20 21  2  0  0  0  0
 20 25  1  0  0  0  0
 21 22  1  0  0  0  0
 21 40  1  0  0  0  0
 22 23  2  0  0  0  0
 22 41  1  0  0  0  0
 23 24  1  0  0  0  0
 23 42  1  0  0  0  0
 24 25  2  0  0  0  0
 24 43  1  0  0  0  0
 25 44  1  0  0  0  0
M  END
$$$$
