OAN
 OpenBabel04051919483D

 44 45  0  0  1  0  0  0  0  0999 V2000
  -11.0137  -11.0385    5.0161 C   0  0  0  0  0  0  0  0  0  0  0  0
  -10.0812  -10.6506    6.1354 C   0  0  0  0  0  0  0  0  0  0  0  0
  -10.0663   -9.5188    6.6084 O   0  0  0  0  0  0  0  0  0  0  0  0
   -9.2755  -11.6638    6.5914 N   0  0  0  0  0  0  0  0  0  0  0  0
   -8.4714  -11.5561    7.8196 C   0  0  2  0  0  0  0  0  0  0  0  0
   -9.3238  -11.3082    9.0747 C   0  0  1  0  0  0  0  0  0  0  0  0
   -9.6378  -12.5507    9.7307 O   0  0  0  0  0  0  0  0  0  0  0  0
   -8.6070  -10.3829   10.0598 C   0  0  2  0  0  0  0  0  0  0  0  0
   -9.4770  -10.1603   11.1759 O   0  0  0  0  0  0  0  0  0  0  0  0
   -8.2944   -9.0994    9.2960 C   0  0  1  0  0  0  0  0  0  0  0  0
   -7.7200   -7.9987   10.2070 C   0  0  0  0  0  0  0  0  0  0  0  0
   -6.4212   -8.3383   10.6818 O   0  0  0  0  0  0  0  0  0  0  0  0
   -7.3533   -9.3612    8.2312 O   0  0  0  0  0  0  0  0  0  0  0  0
   -7.2731  -10.6000    7.6943 C   0  0  0  0  0  0  0  0  0  0  0  0
   -6.1872  -10.9958    7.1073 N   0  0  0  0  0  0  0  0  0  0  0  0
   -5.1628  -10.0018    7.1841 O   0  0  0  0  0  0  0  0  0  0  0  0
   -3.9731  -10.5345    6.7606 C   0  0  0  0  0  0  0  0  0  0  0  0
   -3.8237  -11.6998    6.3842 O   0  0  0  0  0  0  0  0  0  0  0  0
   -2.9879   -9.5657    6.7833 N   0  0  0  0  0  0  0  0  0  0  0  0
   -1.6558   -9.7373    6.3424 C   0  0  0  0  0  0  0  0  0  0  0  0
   -1.0621  -10.9941    6.1815 C   0  0  0  0  0  0  0  0  0  0  0  0
    0.2399  -11.1210    5.6949 C   0  0  0  0  0  0  0  0  0  0  0  0
    0.9719   -9.9857    5.3750 C   0  0  0  0  0  0  0  0  0  0  0  0
    0.4096   -8.7238    5.5518 C   0  0  0  0  0  0  0  0  0  0  0  0
   -0.8968   -8.5973    6.0474 C   0  0  0  0  0  0  0  0  0  0  0  0
  -10.9630  -12.1080    4.7939 H   0  0  0  0  0  0  0  0  0  0  0  0
  -10.7546  -10.4781    4.1145 H   0  0  0  0  0  0  0  0  0  0  0  0
  -12.0411  -10.8031    5.3120 H   0  0  0  0  0  0  0  0  0  0  0  0
   -9.4125  -12.5963    6.2215 H   0  0  0  0  0  0  0  0  0  0  0  0
   -8.0306  -12.5596    7.9177 H   0  0  0  0  0  0  0  0  0  0  0  0
  -10.2985  -10.8775    8.8177 H   0  0  0  0  0  0  0  0  0  0  0  0
  -10.1339  -12.2927   10.5342 H   0  0  0  0  0  0  0  0  0  0  0  0
   -7.7000  -10.8745   10.4347 H   0  0  0  0  0  0  0  0  0  0  0  0
   -8.9577   -9.6800   11.8469 H   0  0  0  0  0  0  0  0  0  0  0  0
   -9.2052   -8.6862    8.8544 H   0  0  0  0  0  0  0  0  0  0  0  0
   -8.3567   -7.8413   11.0817 H   0  0  0  0  0  0  0  0  0  0  0  0
   -7.6581   -7.0489    9.6650 H   0  0  0  0  0  0  0  0  0  0  0  0
   -6.0916   -7.5710   11.1828 H   0  0  0  0  0  0  0  0  0  0  0  0
   -3.2895   -8.6431    7.0407 H   0  0  0  0  0  0  0  0  0  0  0  0
   -1.5942  -11.9078    6.4433 H   0  0  0  0  0  0  0  0  0  0  0  0
    0.6666  -12.1125    5.5740 H   0  0  0  0  0  0  0  0  0  0  0  0
    1.9804  -10.0898    4.9862 H   0  0  0  0  0  0  0  0  0  0  0  0
    0.9809   -7.8381    5.2941 H   0  0  0  0  0  0  0  0  0  0  0  0
   -1.3197   -7.6011    6.1481 H   0  0  0  0  0  0  0  0  0  0  0  0
  1  2  1  0  0  0  0
  1 26  1  0  0  0  0
  1 27  1  0  0  0  0
  1 28  1  0  0  0  0
  2  3  2  0  0  0  0
  2  4  1  0  0  0  0
  4  5  1  0  0  0  0
  4 29  1  0  0  0  0
  5  6  1  0  0  0  0
  5 14  1  0  0  0  0
  5 30  1  1  0  0  0
  6  7  1  0  0  0  0
  6  8  1  0  0  0  0
  6 31  1  6  0  0  0
  7 32  1  0  0  0  0
  8  9  1  0  0  0  0
  8 10  1  0  0  0  0
  8 33  1  1  0  0  0
  9 34  1  0  0  0  0
 10 11  1  0  0  0  0
 10 13  1  0  0  0  0
 10 35  1  6  0  0  0
 11 12  1  0  0  0  0
 11 36  1  0  0  0  0
 11 37  1  0  0  0  0
 12 38  1  0  0  0  0
 13 14  1  0  0  0  0
 14 15  2  0  0  0  0
 15 16  1  0  0  0  0
 16 17  1  0  0  0  0
 17 18  2  0  0  0  0
 17 19  1  0  0  0  0
 19 20  1  0  0  0  0
 19 39  1  0  0  0  0
 20 21  2  0  0  0  0
 20 25  1  0  0  0  0
 21 22  1  0  0  0  0
 21 40  1  0  0  0  0
 22 23  2  0  0  0  0
 22 41  1  0  0  0  0
 23 24  1  0  0  0  0
 23 42  1  0  0  0  0
 24 25  2  0  0  0  0
 24 43  1  0  0  0  0
 25 44  1  0  0  0  0
M  END
$$$$
