OAN
 OpenBabel04051917323D

 44 45  0  0  1  0  0  0  0  0999 V2000
   36.3453   41.1251   22.3376 C   0  0  0  0  0  0  0  0  0  0  0  0
   34.8515   41.1005   22.1582 C   0  0  0  0  0  0  0  0  0  0  0  0
   34.1567   40.1672   22.5484 O   0  0  0  0  0  0  0  0  0  0  0  0
   34.3262   42.2101   21.5422 N   0  0  0  0  0  0  0  0  0  0  0  0
   32.8774   42.4297   21.4291 C   0  0  2  0  0  0  0  0  0  0  0  0
   32.2185   42.7327   22.7838 C   0  0  1  0  0  0  0  0  0  0  0  0
   32.2790   44.1425   23.0746 O   0  0  0  0  0  0  0  0  0  0  0  0
   30.7599   42.2607   22.8081 C   0  0  2  0  0  0  0  0  0  0  0  0
   30.1901   42.6070   24.0734 O   0  0  0  0  0  0  0  0  0  0  0  0
   30.8125   40.7520   22.5638 C   0  0  1  0  0  0  0  0  0  0  0  0
   29.4688   40.0145   22.7231 C   0  0  0  0  0  0  0  0  0  0  0  0
   28.3865   40.6723   22.0696 O   0  0  0  0  0  0  0  0  0  0  0  0
   31.2996   40.4998   21.2184 O   0  0  0  0  0  0  0  0  0  0  0  0
   32.1977   41.3109   20.6142 C   0  0  0  0  0  0  0  0  0  0  0  0
   32.4625   41.2031   19.3445 N   0  0  0  0  0  0  0  0  0  0  0  0
   31.6431   40.2231   18.6970 O   0  0  0  0  0  0  0  0  0  0  0  0
   31.1865   40.7180   17.4911 C   0  0  0  0  0  0  0  0  0  0  0  0
   31.5466   41.8046   17.0191 O   0  0  0  0  0  0  0  0  0  0  0  0
   30.1939   39.9239   16.9572 N   0  0  0  0  0  0  0  0  0  0  0  0
   29.3748   40.2824   15.8615 C   0  0  0  0  0  0  0  0  0  0  0  0
   29.8709   41.0136   14.7770 C   0  0  0  0  0  0  0  0  0  0  0  0
   29.0444   41.3575   13.7030 C   0  0  0  0  0  0  0  0  0  0  0  0
   27.7002   40.9887   13.7115 C   0  0  0  0  0  0  0  0  0  0  0  0
   27.1892   40.2689   14.7928 C   0  0  0  0  0  0  0  0  0  0  0  0
   28.0276   39.9029   15.8530 C   0  0  0  0  0  0  0  0  0  0  0  0
   36.7800   42.0669   21.9905 H   0  0  0  0  0  0  0  0  0  0  0  0
   36.7914   40.3039   21.7722 H   0  0  0  0  0  0  0  0  0  0  0  0
   36.5824   41.0112   23.3999 H   0  0  0  0  0  0  0  0  0  0  0  0
   34.9348   42.9911   21.3302 H   0  0  0  0  0  0  0  0  0  0  0  0
   32.7947   43.3382   20.8117 H   0  0  0  0  0  0  0  0  0  0  0  0
   32.7689   42.2495   23.5988 H   0  0  0  0  0  0  0  0  0  0  0  0
   31.8246   44.2530   23.9346 H   0  0  0  0  0  0  0  0  0  0  0  0
   30.1943   42.7850   22.0246 H   0  0  0  0  0  0  0  0  0  0  0  0
   29.2604   42.3234   24.0889 H   0  0  0  0  0  0  0  0  0  0  0  0
   31.4956   40.2804   23.2836 H   0  0  0  0  0  0  0  0  0  0  0  0
   29.2030   39.8833   23.7786 H   0  0  0  0  0  0  0  0  0  0  0  0
   29.5402   39.0156   22.2773 H   0  0  0  0  0  0  0  0  0  0  0  0
   28.2313   41.5358   22.4814 H   0  0  0  0  0  0  0  0  0  0  0  0
   29.9058   39.1313   17.5297 H   0  0  0  0  0  0  0  0  0  0  0  0
   30.9228   41.2897   14.7321 H   0  0  0  0  0  0  0  0  0  0  0  0
   29.4621   41.8899   12.8533 H   0  0  0  0  0  0  0  0  0  0  0  0
   27.0558   41.2606   12.8772 H   0  0  0  0  0  0  0  0  0  0  0  0
   26.1326   40.0094   14.8079 H   0  0  0  0  0  0  0  0  0  0  0  0
   27.5885   39.3701   16.6963 H   0  0  0  0  0  0  0  0  0  0  0  0
  1  2  1  0  0  0  0
  1 26  1  0  0  0  0
  1 27  1  0  0  0  0
  1 28  1  0  0  0  0
  2  3  2  0  0  0  0
  2  4  1  0  0  0  0
  4  5  1  0  0  0  0
  4 29  1  0  0  0  0
  5  6  1  0  0  0  0
  5 14  1  0  0  0  0
  5 30  1  6  0  0  0
  6  7  1  0  0  0  0
  6  8  1  0  0  0  0
  6 31  1  1  0  0  0
  7 32  1  0  0  0  0
  8  9  1  0  0  0  0
  8 10  1  0  0  0  0
  8 33  1  6  0  0  0
  9 34  1  0  0  0  0
 10 11  1  0  0  0  0
 10 13  1  0  0  0  0
 10 35  1  1  0  0  0
 11 12  1  0  0  0  0
 11 36  1  0  0  0  0
 11 37  1  0  0  0  0
 12 38  1  0  0  0  0
 13 14  1  0  0  0  0
 14 15  2  0  0  0  0
 15 16  1  0  0  0  0
 16 17  1  0  0  0  0
 17 18  2  0  0  0  0
 17 19  1  0  0  0  0
 19 20  1  0  0  0  0
 19 39  1  0  0  0  0
 20 21  2  0  0  0  0
 20 25  1  0  0  0  0
 21 22  1  0  0  0  0
 21 40  1  0  0  0  0
 22 23  2  0  0  0  0
 22 41  1  0  0  0  0
 23 24  1  0  0  0  0
 23 42  1  0  0  0  0
 24 25  2  0  0  0  0
 24 43  1  0  0  0  0
 25 44  1  0  0  0  0
M  END
$$$$
