OGA
 OpenBabel04051919073D

 13 12  0  0  0  0  0  0  0  0999 V2000
   44.3451   54.5388   16.1224 C   0  0  0  0  0  0  0  0  0  0  0  0
   45.1043   53.8767   17.3211 C   0  0  0  0  0  0  0  0  0  0  0  0
   46.2768   54.3661   19.5128 C   0  0  0  0  0  0  0  0  0  0  0  0
   46.6836   55.5939   20.3689 C   0  0  0  0  0  0  0  0  0  0  0  0
   44.1534   55.7982   16.2279 O   0  0  0  0  0  0  0  0  0  0  0  0
   43.9809   53.7996   15.1482 O   0  0  0  0  0  0  0  0  0  0  0  0
   45.2326   52.6497   17.3233 O   0  0  0  0  0  0  0  0  0  0  0  0
   47.1502   55.3279   21.5107 O   0  0  0  0  0  0  0  0  0  0  0  0
   45.5680   54.7247   18.2996 N   0  0  0  0  0  0  0  0  0  0  0  0
   46.4941   56.7310   19.8406 O   0  0  0  0  0  0  0  0  0  0  0  0
   45.6254   53.7004   20.0899 H   0  0  0  0  0  0  0  0  0  0  0  0
   47.1712   53.8024   19.2299 H   0  0  0  0  0  0  0  0  0  0  0  0
   45.3896   55.7213   18.1503 H   0  0  0  0  0  0  0  0  0  0  0  0
  1  2  1  0  0  0  0
  1  5  2  0  0  0  0
  1  6  1  0  0  0  0
  2  7  2  0  0  0  0
  2  9  1  0  0  0  0
  3  4  1  0  0  0  0
  3  9  1  0  0  0  0
  3 11  1  0  0  0  0
  3 12  1  0  0  0  0
  4  8  2  0  0  0  0
  4 10  1  0  0  0  0
  9 13  1  0  0  0  0
M  END
$$$$
