OHT
 OpenBabel04051918453D

 59 61  0  0  0  0  0  0  0  0999 V2000
   48.2318  -29.3633  -99.8603 C   0  0  0  0  0  0  0  0  0  0  0  0
   49.2340  -29.0626  -98.7397 C   0  0  0  0  0  0  0  0  0  0  0  0
   49.0579  -29.8824  -97.4536 C   0  0  0  0  0  0  0  0  0  0  0  0
   49.3658  -31.3335  -97.6793 C   0  0  0  0  0  0  0  0  0  0  0  0
   48.3858  -32.3047  -97.4229 C   0  0  0  0  0  0  0  0  0  0  0  0
   48.6430  -33.6606  -97.6430 C   0  0  0  0  0  0  0  0  0  0  0  0
   49.8785  -34.0653  -98.1407 C   0  0  0  0  0  0  0  0  0  0  0  0
   50.8595  -33.1132  -98.4214 C   0  0  0  0  0  0  0  0  0  0  0  0
   50.6023  -31.7583  -98.1915 C   0  0  0  0  0  0  0  0  0  0  0  0
   48.7258  -29.3854  -96.2170 C   0  0  0  0  0  0  0  0  0  0  0  0
   48.2955  -27.9335  -96.0109 C   0  0  0  0  0  0  0  0  0  0  0  0
   48.9974  -27.1044  -95.1231 C   0  0  0  0  0  0  0  0  0  0  0  0
   48.5564  -25.7943  -94.8347 C   0  0  0  0  0  0  0  0  0  0  0  0
   47.3841  -25.3153  -95.4305 C   0  0  0  0  0  0  0  0  0  0  0  0
   46.9308  -24.0620  -95.1782 O   0  0  0  0  0  0  0  0  0  0  0  0
   46.6723  -26.1230  -96.2929 C   0  0  0  0  0  0  0  0  0  0  0  0
   47.1094  -27.4279  -96.5823 C   0  0  0  0  0  0  0  0  0  0  0  0
   48.7517  -30.2734  -94.9892 C   0  0  0  0  0  0  0  0  0  0  0  0
   49.9081  -30.9458  -94.5594 C   0  0  0  0  0  0  0  0  0  0  0  0
   49.9051  -31.6963  -93.3732 C   0  0  0  0  0  0  0  0  0  0  0  0
   48.7592  -31.7647  -92.5780 C   0  0  0  0  0  0  0  0  0  0  0  0
   48.8202  -32.6015  -91.4989 O   0  0  0  0  0  0  0  0  0  0  0  0
   48.4435  -32.0572  -90.2267 C   0  0  0  0  0  0  0  0  0  0  0  0
   48.5989  -33.2197  -89.2135 C   0  0  0  0  0  0  0  0  0  0  0  0
   49.9963  -33.3599  -88.5901 N   0  3  0  0  0  0  0  0  0  0  0  0
   51.0811  -32.6355  -89.3432 C   0  0  0  0  0  0  0  0  0  0  0  0
   50.0194  -32.9677  -87.1329 C   0  0  0  0  0  0  0  0  0  0  0  0
   47.5964  -31.1291  -92.9984 C   0  0  0  0  0  0  0  0  0  0  0  0
   47.5984  -30.3892  -94.1948 C   0  0  0  0  0  0  0  0  0  0  0  0
   48.4532  -28.7418 -100.7364 H   0  0  0  0  0  0  0  0  0  0  0  0
   47.2057  -29.1422  -99.5480 H   0  0  0  0  0  0  0  0  0  0  0  0
   48.2749  -30.4047 -100.1932 H   0  0  0  0  0  0  0  0  0  0  0  0
   49.2050  -27.9908  -98.5280 H   0  0  0  0  0  0  0  0  0  0  0  0
   50.2382  -29.2319  -99.1525 H   0  0  0  0  0  0  0  0  0  0  0  0
   47.4083  -32.0086  -97.0501 H   0  0  0  0  0  0  0  0  0  0  0  0
   47.8732  -34.3987  -97.4334 H   0  0  0  0  0  0  0  0  0  0  0  0
   50.0754  -35.1178  -98.3218 H   0  0  0  0  0  0  0  0  0  0  0  0
   51.8192  -33.4266  -98.8272 H   0  0  0  0  0  0  0  0  0  0  0  0
   51.3856  -31.0377  -98.4255 H   0  0  0  0  0  0  0  0  0  0  0  0
   49.8993  -27.4582  -94.6378 H   0  0  0  0  0  0  0  0  0  0  0  0
   49.1320  -25.1594  -94.1711 H   0  0  0  0  0  0  0  0  0  0  0  0
   46.9113  -23.9234  -94.2130 H   0  0  0  0  0  0  0  0  0  0  0  0
   45.7469  -25.7349  -96.7547 H   0  0  0  0  0  0  0  0  0  0  0  0
   46.5105  -28.0487  -97.2318 H   0  0  0  0  0  0  0  0  0  0  0  0
   50.8208  -30.9030  -95.1501 H   0  0  0  0  0  0  0  0  0  0  0  0
   50.8027  -32.2358  -93.0819 H   0  0  0  0  0  0  0  0  0  0  0  0
   47.4083  -31.7028  -90.2198 H   0  0  0  0  0  0  0  0  0  0  0  0
   49.0746  -31.1972  -89.9771 H   0  0  0  0  0  0  0  0  0  0  0  0
   48.4169  -34.1808  -89.7139 H   0  0  0  0  0  0  0  0  0  0  0  0
   47.8886  -33.1192  -88.3865 H   0  0  0  0  0  0  0  0  0  0  0  0
   52.0379  -32.8276  -88.8564 H   0  0  0  0  0  0  0  0  0  0  0  0
   50.8799  -31.5631  -89.2957 H   0  0  0  0  0  0  0  0  0  0  0  0
   51.0878  -33.0107  -90.3686 H   0  0  0  0  0  0  0  0  0  0  0  0
   49.2821  -33.5826  -86.5986 H   0  0  0  0  0  0  0  0  0  0  0  0
   49.7815  -31.9119  -87.0580 H   0  0  0  0  0  0  0  0  0  0  0  0
   51.0202  -33.1797  -86.7400 H   0  0  0  0  0  0  0  0  0  0  0  0
   46.6671  -31.2199  -92.4464 H   0  0  0  0  0  0  0  0  0  0  0  0
   46.6798  -29.9012  -94.5170 H   0  0  0  0  0  0  0  0  0  0  0  0
   50.2337  -34.3575  -88.6329 H   0  0  0  0  0  0  0  0  0  0  0  0
  1  2  1  0  0  0  0
  1 30  1  0  0  0  0
  1 31  1  0  0  0  0
  1 32  1  0  0  0  0
  2  3  1  0  0  0  0
  2 33  1  0  0  0  0
  2 34  1  0  0  0  0
  3  4  1  0  0  0  0
  3 10  2  0  0  0  0
  4  5  2  0  0  0  0
  4  9  1  0  0  0  0
  5  6  1  0  0  0  0
  5 35  1  0  0  0  0
  6  7  2  0  0  0  0
  6 36  1  0  0  0  0
  7  8  1  0  0  0  0
  7 37  1  0  0  0  0
  8  9  2  0  0  0  0
  8 38  1  0  0  0  0
  9 39  1  0  0  0  0
 10 11  1  0  0  0  0
 10 18  1  0  0  0  0
 11 12  2  0  0  0  0
 11 17  1  0  0  0  0
 12 13  1  0  0  0  0
 12 40  1  0  0  0  0
 13 14  2  0  0  0  0
 13 41  1  0  0  0  0
 14 15  1  0  0  0  0
 14 16  1  0  0  0  0
 15 42  1  0  0  0  0
 16 17  2  0  0  0  0
 16 43  1  0  0  0  0
 17 44  1  0  0  0  0
 18 19  2  0  0  0  0
 18 29  1  0  0  0  0
 19 20  1  0  0  0  0
 19 45  1  0  0  0  0
 20 21  2  0  0  0  0
 20 46  1  0  0  0  0
 21 22  1  0  0  0  0
 21 28  1  0  0  0  0
 22 23  1  0  0  0  0
 23 24  1  0  0  0  0
 23 47  1  0  0  0  0
 23 48  1  0  0  0  0
 24 25  1  0  0  0  0
 24 49  1  0  0  0  0
 24 50  1  0  0  0  0
 25 26  1  0  0  0  0
 25 27  1  0  0  0  0
 25 59  1  0  0  0  0
 26 51  1  0  0  0  0
 26 52  1  0  0  0  0
 26 53  1  0  0  0  0
 27 54  1  0  0  0  0
 27 55  1  0  0  0  0
 27 56  1  0  0  0  0
 28 29  2  0  0  0  0
 28 57  1  0  0  0  0
 29 58  1  0  0  0  0
M  CHG  1  25   1
M  END
$$$$
