OIN
 OpenBabel04051917203D

 45 47  0  0  1  0  0  0  0  0999 V2000
   14.3536   22.8787    1.4400 C   0  0  0  0  0  0  0  0  0  0  0  0
   13.9470   23.8064    0.3482 N   0  3  2  0  0  0  0  0  0  0  0  0
   14.3379   25.2043    0.3705 C   0  0  1  0  0  0  0  0  0  0  0  0
   13.9574   25.6020   -1.0345 C   0  0  0  0  0  0  0  0  0  0  0  0
   12.6555   24.8287   -1.2059 C   0  0  0  0  0  0  0  0  0  0  0  0
   12.5543   24.1051    0.1156 C   0  0  2  0  0  0  0  0  0  0  0  0
   11.7911   24.6828    1.2700 C   0  0  0  0  0  0  0  0  0  0  0  0
   12.3663   25.9762    1.7499 C   0  0  2  0  0  0  0  0  0  0  0  0
   13.8937   26.0532    1.5688 C   0  0  0  0  0  0  0  0  0  0  0  0
   11.5261   26.7794    2.6358 O   0  0  0  0  0  0  0  0  0  0  0  0
   10.3838   26.1970    3.1656 C   0  0  0  0  0  0  0  0  0  0  0  0
   10.4626   25.4668    4.1349 O   0  0  0  0  0  0  0  0  0  0  0  0
    8.9953   26.4742    2.5212 C   0  0  2  0  0  0  0  0  0  0  0  0
    7.8626   26.2790    3.5532 C   0  0  0  0  0  0  0  0  0  0  0  0
    7.9388   27.2471    4.6030 O   0  0  0  0  0  0  0  0  0  0  0  0
    8.6900   25.6132    1.3158 C   0  0  0  0  0  0  0  0  0  0  0  0
    8.3598   26.2382    0.1149 C   0  0  0  0  0  0  0  0  0  0  0  0
    8.1376   25.4914   -1.0334 C   0  0  0  0  0  0  0  0  0  0  0  0
    8.2423   24.1081   -0.9980 C   0  0  0  0  0  0  0  0  0  0  0  0
    8.5753   23.4712    0.1884 C   0  0  0  0  0  0  0  0  0  0  0  0
    8.7709   24.2149    1.3488 C   0  0  0  0  0  0  0  0  0  0  0  0
   15.4326   22.7316    1.3702 H   0  0  0  0  0  0  0  0  0  0  0  0
   13.8335   21.9320    1.2875 H   0  0  0  0  0  0  0  0  0  0  0  0
   14.0791   23.3314    2.3800 H   0  0  0  0  0  0  0  0  0  0  0  0
   15.4314   25.1740    0.4318 H   0  0  0  0  0  0  0  0  0  0  0  0
   14.7414   25.2603   -1.7331 H   0  0  0  0  0  0  0  0  0  0  0  0
   13.8334   26.6790   -1.1281 H   0  0  0  0  0  0  0  0  0  0  0  0
   12.7246   24.0826   -2.0135 H   0  0  0  0  0  0  0  0  0  0  0  0
   11.7994   25.4763   -1.3747 H   0  0  0  0  0  0  0  0  0  0  0  0
   12.0861   23.1314   -0.0610 H   0  0  0  0  0  0  0  0  0  0  0  0
   11.6970   23.9418    2.0683 H   0  0  0  0  0  0  0  0  0  0  0  0
   10.8136   24.9127    0.8826 H   0  0  0  0  0  0  0  0  0  0  0  0
   12.1702   26.5571    0.8783 H   0  0  0  0  0  0  0  0  0  0  0  0
   14.1878   27.0856    1.3293 H   0  0  0  0  0  0  0  0  0  0  0  0
   14.4663   25.7244    2.4423 H   0  0  0  0  0  0  0  0  0  0  0  0
    8.9606   27.5175    2.2092 H   0  0  0  0  0  0  0  0  0  0  0  0
    7.9143   25.2774    4.0002 H   0  0  0  0  0  0  0  0  0  0  0  0
    6.8843   26.3978    3.0670 H   0  0  0  0  0  0  0  0  0  0  0  0
    8.7761   27.1351    5.0596 H   0  0  0  0  0  0  0  0  0  0  0  0
    8.2713   27.3192    0.0793 H   0  0  0  0  0  0  0  0  0  0  0  0
    7.8787   25.9926   -1.9594 H   0  0  0  0  0  0  0  0  0  0  0  0
    8.0545   23.5257   -1.8951 H   0  0  0  0  0  0  0  0  0  0  0  0
    8.6674   22.3922    0.2162 H   0  0  0  0  0  0  0  0  0  0  0  0
    9.0527   23.7097    2.2680 H   0  0  0  0  0  0  0  0  0  0  0  0
   14.3149   23.3985   -0.5209 H   0  0  0  0  0  0  0  0  0  0  0  0
  1  2  1  0  0  0  0
  1 22  1  0  0  0  0
  1 23  1  0  0  0  0
  1 24  1  0  0  0  0
  2  3  1  0  0  0  0
  2  6  1  0  0  0  0
  2 45  1  6  0  0  0
  3  4  1  0  0  0  0
  3  9  1  0  0  0  0
  3 25  1  1  0  0  0
  4  5  1  0  0  0  0
  4 26  1  0  0  0  0
  4 27  1  0  0  0  0
  5  6  1  0  0  0  0
  5 28  1  0  0  0  0
  5 29  1  0  0  0  0
  6  7  1  0  0  0  0
  6 30  1  6  0  0  0
  7  8  1  0  0  0  0
  7 31  1  0  0  0  0
  7 32  1  0  0  0  0
  8  9  1  0  0  0  0
  8 10  1  0  0  0  0
  8 33  1  6  0  0  0
  9 34  1  0  0  0  0
  9 35  1  0  0  0  0
 10 11  1  0  0  0  0
 11 12  2  0  0  0  0
 11 13  1  0  0  0  0
 13 14  1  0  0  0  0
 13 16  1  0  0  0  0
 13 36  1  6  0  0  0
 14 15  1  0  0  0  0
 14 37  1  0  0  0  0
 14 38  1  0  0  0  0
 15 39  1  0  0  0  0
 16 17  2  0  0  0  0
 16 21  1  0  0  0  0
 17 18  1  0  0  0  0
 17 40  1  0  0  0  0
 18 19  2  0  0  0  0
 18 41  1  0  0  0  0
 19 20  1  0  0  0  0
 19 42  1  0  0  0  0
 20 21  2  0  0  0  0
 20 43  1  0  0  0  0
 21 44  1  0  0  0  0
M  CHG  1   2   1
M  END
$$$$
