OKD
 OpenBabel04051920273D

 79 79  0  0  1  0  0  0  0  0999 V2000
   28.5307   62.2359   40.7586 C   0  0  0  0  0  0  0  0  0  0  0  0
   29.0290   61.8496   39.4840 O   0  0  0  0  0  0  0  0  0  0  0  0
   28.5563   60.5478   39.1163 C   0  0  0  0  0  0  0  0  0  0  0  0
   29.7110   59.7430   38.5342 C   0  0  0  0  0  0  0  0  0  0  0  0
   29.3425   58.3811   38.3355 O   0  0  0  0  0  0  0  0  0  0  0  0
   29.9716   57.4671   39.2347 C   0  0  0  0  0  0  0  0  0  0  0  0
   29.1073   57.0298   40.4280 C   0  0  0  0  0  0  0  0  0  0  0  0
   27.7060   57.0151   40.1558 O   0  0  0  0  0  0  0  0  0  0  0  0
   27.1938   55.6966   39.9907 C   0  0  0  0  0  0  0  0  0  0  0  0
   26.5845   55.1409   41.2790 C   0  0  0  0  0  0  0  0  0  0  0  0
   26.4839   53.7449   41.0744 O   0  0  0  0  0  0  0  0  0  0  0  0
   25.3561   53.1104   41.6758 C   0  0  0  0  0  0  0  0  0  0  0  0
   25.5985   51.6139   41.4271 C   0  0  0  0  0  0  0  0  0  0  0  0
   25.2653   51.2346   40.0843 O   0  0  0  0  0  0  0  0  0  0  0  0
   25.9801   50.0700   39.5881 C   0  0  0  0  0  0  0  0  0  0  0  0
   25.4533   48.7402   40.0088 C   0  0  0  0  0  0  0  0  0  0  0  0
   25.0226   48.3427   41.2528 C   0  0  0  0  0  0  0  0  0  0  0  0
   25.4930   47.6227   39.1927 N   0  0  0  0  0  0  0  0  0  0  0  0
   25.0877   46.5708   39.8980 N   0  0  0  0  0  0  0  0  0  0  0  0
   24.7603   47.0081   41.1234 N   0  3  0  0  0  0  0  0  0  0  0  0
   24.2870   46.1575   42.1942 C   0  0  0  0  0  0  0  0  0  0  0  0
   22.8480   45.7121   42.0110 C   0  0  0  0  0  0  0  0  0  0  0  0
   22.2068   45.2815   43.3401 C   0  0  0  0  0  0  0  0  0  0  0  0
   20.7178   45.6421   43.3132 C   0  0  0  0  0  0  0  0  0  0  0  0
   19.8530   44.9923   44.4062 C   0  0  1  0  0  0  0  0  0  0  0  0
   20.1441   45.6500   45.7843 C   0  0  0  0  0  0  0  0  0  0  0  0
   20.8921   44.9921   46.5693 O   0  0  0  0  0  0  0  0  0  0  0  0
   19.5849   46.7740   45.9857 O   0  0  0  0  0  0  0  0  0  0  0  0
   18.4305   45.1410   44.0487 N   0  0  0  0  0  0  0  0  0  0  0  0
   17.8461   44.3395   43.1156 C   0  0  0  0  0  0  0  0  0  0  0  0
   18.3939   43.3464   42.6458 O   0  0  0  0  0  0  0  0  0  0  0  0
   16.5691   44.7309   42.8094 N   0  0  0  0  0  0  0  0  0  0  0  0
   16.0277   44.3019   41.5163 C   0  0  2  0  0  0  0  0  0  0  0  0
   17.0047   44.4629   40.2990 C   0  0  0  0  0  0  0  0  0  0  0  0
   16.8100   43.5955   39.3630 O   0  0  0  0  0  0  0  0  0  0  0  0
   17.8424   45.4002   40.3410 O   0  0  0  0  0  0  0  0  0  0  0  0
   14.7228   45.0149   41.1244 C   0  0  0  0  0  0  0  0  0  0  0  0
   14.8363   46.5435   41.1259 C   0  0  0  0  0  0  0  0  0  0  0  0
   13.7208   47.3327   40.4379 C   0  0  0  0  0  0  0  0  0  0  0  0
   13.7162   48.5765   40.6936 O   0  0  0  0  0  0  0  0  0  0  0  0
   12.8970   46.6863   39.7305 O   0  0  0  0  0  0  0  0  0  0  0  0
   28.9025   63.2359   40.9982 H   0  0  0  0  0  0  0  0  0  0  0  0
   28.8942   61.5414   41.5227 H   0  0  0  0  0  0  0  0  0  0  0  0
   27.4370   62.2554   40.7534 H   0  0  0  0  0  0  0  0  0  0  0  0
   27.7561   60.6618   38.3760 H   0  0  0  0  0  0  0  0  0  0  0  0
   28.1351   60.0157   39.9757 H   0  0  0  0  0  0  0  0  0  0  0  0
   30.5956   59.8427   39.1720 H   0  0  0  0  0  0  0  0  0  0  0  0
   29.9951   60.1591   37.5599 H   0  0  0  0  0  0  0  0  0  0  0  0
   30.9178   57.8701   39.6158 H   0  0  0  0  0  0  0  0  0  0  0  0
   30.2456   56.5857   38.6449 H   0  0  0  0  0  0  0  0  0  0  0  0
   29.2631   57.7233   41.2577 H   0  0  0  0  0  0  0  0  0  0  0  0
   29.4607   56.0482   40.7770 H   0  0  0  0  0  0  0  0  0  0  0  0
   27.9653   55.0192   39.6014 H   0  0  0  0  0  0  0  0  0  0  0  0
   26.4107   55.7217   39.2254 H   0  0  0  0  0  0  0  0  0  0  0  0
   25.6101   55.5986   41.4840 H   0  0  0  0  0  0  0  0  0  0  0  0
   27.2342   55.3233   42.1429 H   0  0  0  0  0  0  0  0  0  0  0  0
   24.4266   53.4830   41.2264 H   0  0  0  0  0  0  0  0  0  0  0  0
   25.3459   53.3331   42.7523 H   0  0  0  0  0  0  0  0  0  0  0  0
   25.0001   51.0342   42.1267 H   0  0  0  0  0  0  0  0  0  0  0  0
   26.6657   51.4317   41.6001 H   0  0  0  0  0  0  0  0  0  0  0  0
   27.0323   50.1297   39.8875 H   0  0  0  0  0  0  0  0  0  0  0  0
   25.9501   50.1247   38.4911 H   0  0  0  0  0  0  0  0  0  0  0  0
   24.9028   48.8587   42.1792 H   0  0  0  0  0  0  0  0  0  0  0  0
   24.3661   46.7610   43.1012 H   0  0  0  0  0  0  0  0  0  0  0  0
   24.9761   45.3099   42.2928 H   0  0  0  0  0  0  0  0  0  0  0  0
   22.8059   44.8850   41.2926 H   0  0  0  0  0  0  0  0  0  0  0  0
   22.2706   46.5332   41.5624 H   0  0  0  0  0  0  0  0  0  0  0  0
   22.6837   45.7852   44.1900 H   0  0  0  0  0  0  0  0  0  0  0  0
   22.3544   44.2045   43.4812 H   0  0  0  0  0  0  0  0  0  0  0  0
   20.3281   45.3662   42.3248 H   0  0  0  0  0  0  0  0  0  0  0  0
   20.6329   46.7351   43.3785 H   0  0  0  0  0  0  0  0  0  0  0  0
   20.0640   43.9172   44.4486 H   0  0  0  0  0  0  0  0  0  0  0  0
   18.0454   46.0555   44.2451 H   0  0  0  0  0  0  0  0  0  0  0  0
   16.1907   45.5537   43.2448 H   0  0  0  0  0  0  0  0  0  0  0  0
   15.8253   43.2331   41.6346 H   0  0  0  0  0  0  0  0  0  0  0  0
   13.9247   44.7208   41.8186 H   0  0  0  0  0  0  0  0  0  0  0  0
   14.4028   44.6640   40.1335 H   0  0  0  0  0  0  0  0  0  0  0  0
   15.7702   46.8427   40.6377 H   0  0  0  0  0  0  0  0  0  0  0  0
   14.9018   46.8919   42.1638 H   0  0  0  0  0  0  0  0  0  0  0  0
  1  2  1  0  0  0  0
  1 42  1  0  0  0  0
  1 43  1  0  0  0  0
  1 44  1  0  0  0  0
  2  3  1  0  0  0  0
  3  4  1  0  0  0  0
  3 45  1  0  0  0  0
  3 46  1  0  0  0  0
  4  5  1  0  0  0  0
  4 47  1  0  0  0  0
  4 48  1  0  0  0  0
  5  6  1  0  0  0  0
  6  7  1  0  0  0  0
  6 49  1  0  0  0  0
  6 50  1  0  0  0  0
  7  8  1  0  0  0  0
  7 51  1  0  0  0  0
  7 52  1  0  0  0  0
  8  9  1  0  0  0  0
  9 10  1  0  0  0  0
  9 53  1  0  0  0  0
  9 54  1  0  0  0  0
 10 11  1  0  0  0  0
 10 55  1  0  0  0  0
 10 56  1  0  0  0  0
 11 12  1  0  0  0  0
 12 13  1  0  0  0  0
 12 57  1  0  0  0  0
 12 58  1  0  0  0  0
 13 14  1  0  0  0  0
 13 59  1  0  0  0  0
 13 60  1  0  0  0  0
 14 15  1  0  0  0  0
 15 16  1  0  0  0  0
 15 61  1  0  0  0  0
 15 62  1  0  0  0  0
 16 17  2  0  0  0  0
 16 18  1  0  0  0  0
 17 20  1  0  0  0  0
 17 63  1  0  0  0  0
 18 19  1  0  0  0  0
 19 20  2  0  0  0  0
 20 21  1  0  0  0  0
 21 22  1  0  0  0  0
 21 64  1  0  0  0  0
 21 65  1  0  0  0  0
 22 23  1  0  0  0  0
 22 66  1  0  0  0  0
 22 67  1  0  0  0  0
 23 24  1  0  0  0  0
 23 68  1  0  0  0  0
 23 69  1  0  0  0  0
 24 25  1  0  0  0  0
 24 70  1  0  0  0  0
 24 71  1  0  0  0  0
 25 26  1  0  0  0  0
 25 29  1  0  0  0  0
 25 72  1  1  0  0  0
 26 27  2  0  0  0  0
 26 28  1  0  0  0  0
 29 30  1  0  0  0  0
 29 73  1  0  0  0  0
 30 31  2  0  0  0  0
 30 32  1  0  0  0  0
 32 33  1  0  0  0  0
 32 74  1  0  0  0  0
 33 34  1  0  0  0  0
 33 37  1  0  0  0  0
 33 75  1  1  0  0  0
 34 35  2  0  0  0  0
 34 36  1  0  0  0  0
 37 38  1  0  0  0  0
 37 76  1  0  0  0  0
 37 77  1  0  0  0  0
 38 39  1  0  0  0  0
 38 78  1  0  0  0  0
 38 79  1  0  0  0  0
 39 40  2  0  0  0  0
 39 41  1  0  0  0  0
M  CHG  1  20   1
M  END
$$$$
