P2N
 OpenBabel04051917373D

 41 42  0  0  0  0  0  0  0  0999 V2000
  -18.2335   34.3785   -6.1525 C   0  0  0  0  0  0  0  0  0  0  0  0
  -18.2122   33.4969   -4.9099 C   0  0  0  0  0  0  0  0  0  0  0  0
  -17.2313   32.4499   -4.8727 C   0  0  0  0  0  0  0  0  0  0  0  0
  -17.2415   31.6038   -3.7340 C   0  0  0  0  0  0  0  0  0  0  0  0
  -18.1310   31.7958   -2.7021 C   0  0  0  0  0  0  0  0  0  0  0  0
  -19.0641   32.8447   -2.7253 C   0  0  0  0  0  0  0  0  0  0  0  0
  -19.1041   33.6943   -3.8457 C   0  0  0  0  0  0  0  0  0  0  0  0
  -20.1186   34.7959   -3.8840 C   0  0  0  0  0  0  0  0  0  0  0  0
  -21.5098   34.4060   -4.3030 C   0  0  0  0  0  0  0  0  0  0  0  0
  -21.9196   32.9929   -4.7093 C   0  0  0  0  0  0  0  0  0  0  0  0
  -23.3211   32.8894   -5.3502 C   0  0  0  0  0  0  0  0  0  0  0  0
  -23.4480   31.8130   -6.4281 C   0  0  0  0  0  0  0  0  0  0  0  0
  -22.9680   32.1561   -7.8497 C   0  0  0  0  0  0  0  0  0  0  0  0
  -22.4102   33.5150   -8.1599 C   0  0  0  0  0  0  0  0  0  0  0  0
  -21.1217   33.5566   -8.5566 C   0  0  0  0  0  0  0  0  0  0  0  0
  -20.3050   34.7495   -8.9198 C   0  0  0  0  0  0  0  0  0  0  0  0
  -19.6591   35.5008   -7.7443 C   0  0  0  0  0  0  0  0  0  0  0  0
  -19.5035   34.6759   -6.5666 O   0  0  0  0  0  0  0  0  0  0  0  0
  -17.2310   34.8023   -6.7262 O   0  0  0  0  0  0  0  0  0  0  0  0
  -16.4017   32.2113   -5.8033 O   0  0  0  0  0  0  0  0  0  0  0  0
  -18.1564   30.9657   -1.6022 O   0  0  0  0  0  0  0  0  0  0  0  0
  -20.1260   33.0513   -1.3860 Cl  0  0  0  0  0  0  0  0  0  0  0  0
  -22.3805   35.2921   -4.2819 O   0  0  0  0  0  0  0  0  0  0  0  0
  -16.5140   30.7825   -3.6939 H   0  0  0  0  0  0  0  0  0  0  0  0
  -19.7657   35.5924   -4.5472 H   0  0  0  0  0  0  0  0  0  0  0  0
  -20.1608   35.2681   -2.8961 H   0  0  0  0  0  0  0  0  0  0  0  0
  -21.9164   32.3595   -3.8139 H   0  0  0  0  0  0  0  0  0  0  0  0
  -21.1852   32.6168   -5.4264 H   0  0  0  0  0  0  0  0  0  0  0  0
  -23.6126   33.8454   -5.7886 H   0  0  0  0  0  0  0  0  0  0  0  0
  -24.0487   32.6501   -4.5606 H   0  0  0  0  0  0  0  0  0  0  0  0
  -24.5103   31.5313   -6.5114 H   0  0  0  0  0  0  0  0  0  0  0  0
  -22.9130   30.9111   -6.0939 H   0  0  0  0  0  0  0  0  0  0  0  0
  -23.7993   31.9752   -8.5425 H   0  0  0  0  0  0  0  0  0  0  0  0
  -22.2014   31.4069   -8.0956 H   0  0  0  0  0  0  0  0  0  0  0  0
  -23.0038   34.4130   -8.0869 H   0  0  0  0  0  0  0  0  0  0  0  0
  -20.5987   32.6026   -8.6128 H   0  0  0  0  0  0  0  0  0  0  0  0
  -20.9194   35.4446   -9.5097 H   0  0  0  0  0  0  0  0  0  0  0  0
  -19.4954   34.4072   -9.5862 H   0  0  0  0  0  0  0  0  0  0  0  0
  -20.3093   36.3587   -7.5024 H   0  0  0  0  0  0  0  0  0  0  0  0
  -18.6971   35.9151   -8.0774 H   0  0  0  0  0  0  0  0  0  0  0  0
  -17.4572   30.2948   -1.7389 H   0  0  0  0  0  0  0  0  0  0  0  0
  1  2  1  0  0  0  0
  1 18  1  0  0  0  0
  1 19  2  0  0  0  0
  2  3  2  0  0  0  0
  2  7  1  0  0  0  0
  3  4  1  0  0  0  0
  3 20  1  0  0  0  0
  4  5  2  0  0  0  0
  4 24  1  0  0  0  0
  5  6  1  0  0  0  0
  5 21  1  0  0  0  0
  6  7  2  0  0  0  0
  6 22  1  0  0  0  0
  7  8  1  0  0  0  0
  8  9  1  0  0  0  0
  8 25  1  0  0  0  0
  8 26  1  0  0  0  0
  9 10  1  0  0  0  0
  9 23  2  0  0  0  0
 10 11  1  0  0  0  0
 10 27  1  0  0  0  0
 10 28  1  0  0  0  0
 11 12  1  0  0  0  0
 11 29  1  0  0  0  0
 11 30  1  0  0  0  0
 12 13  1  0  0  0  0
 12 31  1  0  0  0  0
 12 32  1  0  0  0  0
 13 14  1  0  0  0  0
 13 33  1  0  0  0  0
 13 34  1  0  0  0  0
 14 15  2  0  0  0  0
 14 35  1  0  0  0  0
 15 16  1  0  0  0  0
 15 36  1  0  0  0  0
 16 17  1  0  0  0  0
 16 37  1  0  0  0  0
 16 38  1  0  0  0  0
 17 18  1  0  0  0  0
 17 39  1  0  0  0  0
 17 40  1  0  0  0  0
 21 41  1  0  0  0  0
M  END
$$$$
