P45
 OpenBabel04051918523D

 41 44  0  0  0  0  0  0  0  0999 V2000
   20.0843    9.5036   19.7899 N   0  0  0  0  0  0  0  0  0  0  0  0
   20.4088    9.7308   18.5086 C   0  0  0  0  0  0  0  0  0  0  0  0
   21.4242    8.8706   18.0426 C   0  0  0  0  0  0  0  0  0  0  0  0
   21.7252    8.0480   19.1041 C   0  0  0  0  0  0  0  0  0  0  0  0
   20.9082    8.4732   20.1210 N   0  3  0  0  0  0  0  0  0  0  0  0
   22.5905    7.0159   19.3105 N   0  0  0  0  0  0  0  0  0  0  0  0
   22.6245    6.4982   20.5130 C   0  0  0  0  0  0  0  0  0  0  0  0
   21.8617    6.9427   21.5506 N   0  0  0  0  0  0  0  0  0  0  0  0
   20.9923    7.8975   21.3840 C   0  0  0  0  0  0  0  0  0  0  0  0
   20.1961    8.3776   22.3955 N   0  0  0  0  0  0  0  0  0  0  0  0
   20.2246    7.9636   23.7344 C   0  0  0  0  0  0  0  0  0  0  0  0
   20.6080    6.6758   24.1369 C   0  0  0  0  0  0  0  0  0  0  0  0
   20.6124    6.2982   25.4803 C   0  0  0  0  0  0  0  0  0  0  0  0
   20.2596    7.2234   26.4542 C   0  0  0  0  0  0  0  0  0  0  0  0
   19.9563    8.5310   26.0783 C   0  0  0  0  0  0  0  0  0  0  0  0
   19.9513    8.9008   24.7372 C   0  0  0  0  0  0  0  0  0  0  0  0
   23.4583    5.4571   20.7673 N   0  0  0  0  0  0  0  0  0  0  0  0
   23.6307    4.8336   22.0602 C   0  0  0  0  0  0  0  0  0  0  0  0
   22.5945    3.7709   22.3705 C   0  0  0  0  0  0  0  0  0  0  0  0
   22.3659    3.4103   23.7114 C   0  0  0  0  0  0  0  0  0  0  0  0
   21.4399    2.4163   24.0413 C   0  0  0  0  0  0  0  0  0  0  0  0
   20.7464    1.7586   23.0299 C   0  0  0  0  0  0  0  0  0  0  0  0
   20.9490    2.1082   21.6974 C   0  0  0  0  0  0  0  0  0  0  0  0
   21.8756    3.1025   21.3694 C   0  0  0  0  0  0  0  0  0  0  0  0
   22.0169    8.8642   16.7519 C   0  0  0  0  0  0  0  0  0  0  0  0
   22.4722    8.9114   15.6848 N   0  0  0  0  0  0  0  0  0  0  0  0
   19.6530    0.4910   23.4275 Cl  0  0  0  0  0  0  0  0  0  0  0  0
   19.9030   10.5166   17.9558 H   0  0  0  0  0  0  0  0  0  0  0  0
   19.5299    9.1097   22.1601 H   0  0  0  0  0  0  0  0  0  0  0  0
   20.8672    5.9204   23.4031 H   0  0  0  0  0  0  0  0  0  0  0  0
   20.8700    5.2817   25.7569 H   0  0  0  0  0  0  0  0  0  0  0  0
   20.2173    6.9297   27.4976 H   0  0  0  0  0  0  0  0  0  0  0  0
   19.7087    9.2636   26.8384 H   0  0  0  0  0  0  0  0  0  0  0  0
   19.7418    9.9321   24.4646 H   0  0  0  0  0  0  0  0  0  0  0  0
   24.0284    5.1406   19.9981 H   0  0  0  0  0  0  0  0  0  0  0  0
   23.6112    5.5936   22.8510 H   0  0  0  0  0  0  0  0  0  0  0  0
   24.6200    4.3639   22.0966 H   0  0  0  0  0  0  0  0  0  0  0  0
   22.8999    3.9185   24.5130 H   0  0  0  0  0  0  0  0  0  0  0  0
   21.2663    2.1608   25.0835 H   0  0  0  0  0  0  0  0  0  0  0  0
   20.3928    1.6127   20.9064 H   0  0  0  0  0  0  0  0  0  0  0  0
   22.0243    3.3590   20.3235 H   0  0  0  0  0  0  0  0  0  0  0  0
  1  2  1  0  0  0  0
  1  5  1  0  0  0  0
  2  3  2  0  0  0  0
  2 28  1  0  0  0  0
  3  4  1  0  0  0  0
  3 25  1  0  0  0  0
  4  5  2  0  0  0  0
  4  6  1  0  0  0  0
  5  9  1  0  0  0  0
  6  7  2  0  0  0  0
  7  8  1  0  0  0  0
  7 17  1  0  0  0  0
  8  9  2  0  0  0  0
  9 10  1  0  0  0  0
 10 11  1  0  0  0  0
 10 29  1  0  0  0  0
 11 12  2  0  0  0  0
 11 16  1  0  0  0  0
 12 13  1  0  0  0  0
 12 30  1  0  0  0  0
 13 14  2  0  0  0  0
 13 31  1  0  0  0  0
 14 15  1  0  0  0  0
 14 32  1  0  0  0  0
 15 16  2  0  0  0  0
 15 33  1  0  0  0  0
 16 34  1  0  0  0  0
 17 18  1  0  0  0  0
 17 35  1  0  0  0  0
 18 19  1  0  0  0  0
 18 36  1  0  0  0  0
 18 37  1  0  0  0  0
 19 20  2  0  0  0  0
 19 24  1  0  0  0  0
 20 21  1  0  0  0  0
 20 38  1  0  0  0  0
 21 22  2  0  0  0  0
 21 39  1  0  0  0  0
 22 23  1  0  0  0  0
 22 27  1  0  0  0  0
 23 24  2  0  0  0  0
 23 40  1  0  0  0  0
 24 41  1  0  0  0  0
 25 26  3  0  0  0  0
M  CHG  1   5   1
M  END
$$$$
