P4T
 OpenBabel04051919363D

 28 29  0  0  0  0  0  0  0  0999 V2000
   41.8869   69.7143   64.6855 N   0  0  0  0  0  0  0  0  0  0  0  0
   40.5862   69.8649   64.5812 C   0  0  0  0  0  0  0  0  0  0  0  0
   39.5927   69.0662   65.0335 N   0  0  0  0  0  0  0  0  0  0  0  0
   42.5836   70.7852   64.1204 C   0  0  0  0  0  0  0  0  0  0  0  0
   41.7699   71.7637   63.5690 C   0  0  0  0  0  0  0  0  0  0  0  0
   42.0273   73.0241   62.8976 C   0  0  0  0  0  0  0  0  0  0  0  0
   44.0708   70.7028   64.2004 C   0  0  0  0  0  0  0  0  0  0  0  0
   39.6555   67.8211   65.6719 C   0  0  0  0  0  0  0  0  0  0  0  0
   38.5124   67.3669   66.3539 C   0  0  0  0  0  0  0  0  0  0  0  0
   38.5115   66.1556   67.0546 C   0  0  0  0  0  0  0  0  0  0  0  0
   39.6584   65.3720   67.0766 C   0  0  0  0  0  0  0  0  0  0  0  0
   40.8039   65.8049   66.4118 C   0  0  0  0  0  0  0  0  0  0  0  0
   40.8018   67.0238   65.7242 C   0  0  0  0  0  0  0  0  0  0  0  0
   40.1223   71.3130   63.7766 S   0  0  0  0  0  0  0  0  0  0  0  0
   43.4518   73.4768   62.7123 C   0  0  0  0  0  0  0  0  0  0  0  0
   41.1375   73.7557   62.4540 O   0  0  0  0  0  0  0  0  0  0  0  0
   38.6505   69.3959   64.8692 H   0  0  0  0  0  0  0  0  0  0  0  0
   44.5849   71.5484   63.7551 H   0  0  0  0  0  0  0  0  0  0  0  0
   44.4267   69.8083   63.6814 H   0  0  0  0  0  0  0  0  0  0  0  0
   44.3910   70.6519   65.2446 H   0  0  0  0  0  0  0  0  0  0  0  0
   37.6036   67.9665   66.3668 H   0  0  0  0  0  0  0  0  0  0  0  0
   37.6182   65.8298   67.5824 H   0  0  0  0  0  0  0  0  0  0  0  0
   39.6677   64.4291   67.6162 H   0  0  0  0  0  0  0  0  0  0  0  0
   41.7072   65.1985   66.4279 H   0  0  0  0  0  0  0  0  0  0  0  0
   41.7109   67.3322   65.2173 H   0  0  0  0  0  0  0  0  0  0  0  0
   43.4683   74.4468   62.2001 H   0  0  0  0  0  0  0  0  0  0  0  0
   43.9900   72.7658   62.0902 H   0  0  0  0  0  0  0  0  0  0  0  0
   43.9263   73.6138   63.6871 H   0  0  0  0  0  0  0  0  0  0  0  0
  1  2  2  0  0  0  0
  1  4  1  0  0  0  0
  2  3  1  0  0  0  0
  2 14  1  0  0  0  0
  3  8  1  0  0  0  0
  3 17  1  0  0  0  0
  4  5  2  0  0  0  0
  4  7  1  0  0  0  0
  5  6  1  0  0  0  0
  5 14  1  0  0  0  0
  6 15  1  0  0  0  0
  6 16  2  0  0  0  0
  7 18  1  0  0  0  0
  7 19  1  0  0  0  0
  7 20  1  0  0  0  0
  8  9  2  0  0  0  0
  8 13  1  0  0  0  0
  9 10  1  0  0  0  0
  9 21  1  0  0  0  0
 10 11  2  0  0  0  0
 10 22  1  0  0  0  0
 11 12  1  0  0  0  0
 11 23  1  0  0  0  0
 12 13  2  0  0  0  0
 12 24  1  0  0  0  0
 13 25  1  0  0  0  0
 15 26  1  0  0  0  0
 15 27  1  0  0  0  0
 15 28  1  0  0  0  0
M  END
$$$$
