PAH
 OpenBabel04051918503D

 13 12  0  0  0  0  0  0  0  0999 V2000
   11.6713   28.1262   36.3565 C   0  0  0  0  0  0  0  0  0  0  0  0
   13.1513   28.4042   36.3829 C   0  0  0  0  0  0  0  0  0  0  0  0
   13.5423   29.2836   35.4097 N   0  0  0  0  0  0  0  0  0  0  0  0
   14.8753   29.7372   35.3669 O   0  0  0  0  0  0  0  0  0  0  0  0
   13.9795   27.7770   37.0822 O   0  0  0  0  0  0  0  0  0  0  0  0
   10.5141   30.3861   37.0582 O   0  0  0  0  0  0  0  0  0  0  0  0
   11.7882   29.0687   38.8551 O   0  0  0  0  0  0  0  0  0  0  0  0
    9.5721   28.1573   37.9267 O   0  0  0  0  0  0  0  0  0  0  0  0
   10.8054   29.0377   37.7048 P   0  0  0  0  0  0  0  0  0  0  0  0
   11.5082   27.0530   36.4498 H   0  0  0  0  0  0  0  0  0  0  0  0
   11.2401   28.4214   35.3943 H   0  0  0  0  0  0  0  0  0  0  0  0
   12.8458   29.8066   34.8995 H   0  0  0  0  0  0  0  0  0  0  0  0
   15.3598   28.8990   35.2716 H   0  0  0  0  0  0  0  0  0  0  0  0
  1  2  1  0  0  0  0
  1  9  1  0  0  0  0
  1 10  1  0  0  0  0
  1 11  1  0  0  0  0
  2  3  1  0  0  0  0
  2  5  2  0  0  0  0
  3  4  1  0  0  0  0
  3 12  1  0  0  0  0
  4 13  1  0  0  0  0
  6  9  2  0  0  0  0
  7  9  1  0  0  0  0
  8  9  1  0  0  0  0
M  END
$$$$
