PAY
 OpenBabel04051919343D

 34 33  0  0  1  0  0  0  0  0999 V2000
  115.1356   41.3575   43.7041 O   0  0  0  0  0  0  0  0  0  0  0  0
  114.2094   43.3632   44.2585 O   0  0  0  0  0  0  0  0  0  0  0  0
  115.0890   42.4414   44.3475 C   0  0  0  0  0  0  0  0  0  0  0  0
  116.3276   42.8095   45.1832 C   0  0  0  0  0  0  0  0  0  0  0  0
  116.7709   41.6833   46.1425 C   0  0  0  0  0  0  0  0  0  0  0  0
  115.8170   41.4556   47.3616 C   0  0  1  0  0  0  0  0  0  0  0  0
  116.1110   40.0775   48.0293 C   0  0  0  0  0  0  0  0  0  0  0  0
  116.9304   40.0741   49.0043 O   0  0  0  0  0  0  0  0  0  0  0  0
  115.6241   39.0592   47.4372 O   0  0  0  0  0  0  0  0  0  0  0  0
  115.8401   42.6597   48.3587 C   0  0  0  0  0  0  0  0  0  0  0  0
  114.9650   42.5076   49.6468 C   0  0  2  0  0  0  0  0  0  0  0  0
  113.5470   42.0134   49.2902 C   0  0  0  0  0  0  0  0  0  0  0  0
  112.7460   42.9104   48.8351 O   0  0  0  0  0  0  0  0  0  0  0  0
  113.3013   40.8110   49.5045 O   0  0  0  0  0  0  0  0  0  0  0  0
  114.9946   43.8118   50.5140 C   0  0  0  0  0  0  0  0  0  0  0  0
  114.0723   43.8017   51.7636 C   0  0  2  0  0  0  0  0  0  0  0  0
  114.0268   45.1956   52.4223 C   0  0  0  0  0  0  0  0  0  0  0  0
  114.5414   42.7694   52.8158 C   0  0  0  0  0  0  0  0  0  0  0  0
  115.4585   43.1718   53.6195 O   0  0  0  0  0  0  0  0  0  0  0  0
  113.8979   41.6948   52.8795 O   0  0  0  0  0  0  0  0  0  0  0  0
  116.1191   43.7220   45.7547 H   0  0  0  0  0  0  0  0  0  0  0  0
  117.1569   43.0537   44.4965 H   0  0  0  0  0  0  0  0  0  0  0  0
  117.7750   41.9182   46.5134 H   0  0  0  0  0  0  0  0  0  0  0  0
  116.8519   40.7538   45.5613 H   0  0  0  0  0  0  0  0  0  0  0  0
  114.8055   41.3795   46.9525 H   0  0  0  0  0  0  0  0  0  0  0  0
  115.5042   43.5531   47.8234 H   0  0  0  0  0  0  0  0  0  0  0  0
  116.8778   42.8337   48.6688 H   0  0  0  0  0  0  0  0  0  0  0  0
  115.4230   41.7203   50.2562 H   0  0  0  0  0  0  0  0  0  0  0  0
  114.7154   44.6620   49.8793 H   0  0  0  0  0  0  0  0  0  0  0  0
  116.0257   43.9806   50.8495 H   0  0  0  0  0  0  0  0  0  0  0  0
  113.0502   43.5560   51.4515 H   0  0  0  0  0  0  0  0  0  0  0  0
  113.3676   45.1918   53.3044 H   0  0  0  0  0  0  0  0  0  0  0  0
  113.6455   45.9515   51.7273 H   0  0  0  0  0  0  0  0  0  0  0  0
  115.0207   45.5108   52.7539 H   0  0  0  0  0  0  0  0  0  0  0  0
  1  3  2  0  0  0  0
  2  3  1  0  0  0  0
  3  4  1  0  0  0  0
  4  5  1  0  0  0  0
  4 21  1  0  0  0  0
  4 22  1  0  0  0  0
  5  6  1  0  0  0  0
  5 23  1  0  0  0  0
  5 24  1  0  0  0  0
  6  7  1  0  0  0  0
  6 10  1  0  0  0  0
  6 25  1  6  0  0  0
  7  8  2  0  0  0  0
  7  9  1  0  0  0  0
 10 11  1  0  0  0  0
 10 26  1  0  0  0  0
 10 27  1  0  0  0  0
 11 12  1  0  0  0  0
 11 15  1  0  0  0  0
 11 28  1  1  0  0  0
 12 13  2  0  0  0  0
 12 14  1  0  0  0  0
 15 16  1  0  0  0  0
 15 29  1  0  0  0  0
 15 30  1  0  0  0  0
 16 17  1  0  0  0  0
 16 18  1  0  0  0  0
 16 31  1  6  0  0  0
 17 32  1  0  0  0  0
 17 33  1  0  0  0  0
 17 34  1  0  0  0  0
 18 19  2  0  0  0  0
 18 20  1  0  0  0  0
M  END
$$$$
