PCQ
 OpenBabel04051918013D

 22 23  0  0  0  0  0  0  0  0999 V2000
   21.8023   42.9893   30.4440 O   0  0  0  0  0  0  0  0  0  0  0  0
   21.7317   42.9780   29.1931 C   0  0  0  0  0  0  0  0  0  0  0  0
   20.9953   43.8730   28.3978 C   0  0  0  0  0  0  0  0  0  0  0  0
   20.0830   45.0840   29.1991 Cl  0  0  0  0  0  0  0  0  0  0  0  0
   22.4433   42.0367   28.3699 C   0  0  0  0  0  0  0  0  0  0  0  0
   23.4188   40.8537   29.1376 Cl  0  0  0  0  0  0  0  0  0  0  0  0
   22.4005   41.9970   26.9843 C   0  0  0  0  0  0  0  0  0  0  0  0
   21.6340   42.9172   26.2994 C   0  0  0  0  0  0  0  0  0  0  0  0
   20.9261   43.8631   27.0125 C   0  0  0  0  0  0  0  0  0  0  0  0
   21.5739   42.8923   24.8583 C   0  0  0  0  0  0  0  0  0  0  0  0
   21.5668   41.6888   24.1777 C   0  0  0  0  0  0  0  0  0  0  0  0
   21.5241   44.0732   24.1436 C   0  0  0  0  0  0  0  0  0  0  0  0
   21.4686   44.0302   22.7590 C   0  0  0  0  0  0  0  0  0  0  0  0
   21.4133   45.5345   21.9331 Cl  0  0  0  0  0  0  0  0  0  0  0  0
   21.4518   42.8451   21.9890 C   0  0  0  0  0  0  0  0  0  0  0  0
   21.4017   42.8271   20.7188 O   0  0  0  0  0  0  0  0  0  0  0  0
   21.5090   41.6878   22.7920 C   0  0  0  0  0  0  0  0  0  0  0  0
   21.4994   40.1637   22.0017 Cl  0  0  0  0  0  0  0  0  0  0  0  0
   22.9793   41.2436   26.4572 H   0  0  0  0  0  0  0  0  0  0  0  0
   20.3051   44.5995   26.5087 H   0  0  0  0  0  0  0  0  0  0  0  0
   21.5962   40.7423   24.7094 H   0  0  0  0  0  0  0  0  0  0  0  0
   21.5341   45.0368   24.6459 H   0  0  0  0  0  0  0  0  0  0  0  0
  1  2  1  0  0  0  0
  2  3  2  0  0  0  0
  2  5  1  0  0  0  0
  3  4  1  0  0  0  0
  3  9  1  0  0  0  0
  5  6  1  0  0  0  0
  5  7  2  0  0  0  0
  7  8  1  0  0  0  0
  7 19  1  0  0  0  0
  8  9  2  0  0  0  0
  8 10  1  0  0  0  0
  9 20  1  0  0  0  0
 10 11  2  0  0  0  0
 10 12  1  0  0  0  0
 11 17  1  0  0  0  0
 11 21  1  0  0  0  0
 12 13  2  0  0  0  0
 12 22  1  0  0  0  0
 13 14  1  0  0  0  0
 13 15  1  0  0  0  0
 15 16  1  0  0  0  0
 15 17  2  0  0  0  0
 17 18  1  0  0  0  0
M  END
$$$$
