PDD
 OpenBabel04051917263D

 36 36  0  0  1  0  0  0  0  0999 V2000
   75.6812   33.6176   62.1128 N   0  3  0  0  0  0  0  0  0  0  0  0
   74.6541   38.6376   62.4295 N   0  0  0  0  0  0  0  0  0  0  0  0
   74.6144   37.6619   63.3739 C   0  0  0  0  0  0  0  0  0  0  0  0
   73.8945   38.0222   64.6515 C   0  0  0  0  0  0  0  0  0  0  0  0
   75.1946   36.4136   63.1685 C   0  0  0  0  0  0  0  0  0  0  0  0
   75.1033   35.4498   64.1350 O   0  0  0  0  0  0  0  0  0  0  0  0
   75.8618   36.1350   61.9269 C   0  0  0  0  0  0  0  0  0  0  0  0
   76.5157   34.7987   61.7009 C   0  0  0  0  0  0  0  0  0  0  0  0
   75.9501   37.1794   60.9566 C   0  0  0  0  0  0  0  0  0  0  0  0
   76.6473   37.0645   59.5877 C   0  0  0  0  0  0  0  0  0  0  0  0
   77.3435   38.2669   59.2887 O   0  0  0  0  0  0  0  0  0  0  0  0
   77.7157   38.5482   57.7084 P   0  0  0  0  0  0  0  0  0  0  0  0
   76.4250   38.1661   56.9778 O   0  0  0  0  0  0  0  0  0  0  0  0
   78.8823   37.6344   57.4344 O   0  0  0  0  0  0  0  0  0  0  0  0
   78.0311   40.0436   57.6695 O   0  0  0  0  0  0  0  0  0  0  0  0
   75.3120   38.3844   61.2620 C   0  0  0  0  0  0  0  0  0  0  0  0
   76.4446   32.4536   62.7651 C   0  0  2  0  0  0  0  0  0  0  0  0
   77.5220   31.9817   61.7986 C   0  0  0  0  0  0  0  0  0  0  0  0
   75.4914   31.2448   63.1414 C   0  0  0  0  0  0  0  0  0  0  0  0
   75.4903   30.3048   62.3265 O   0  0  0  0  0  0  0  0  0  0  0  0
   74.7574   31.4873   64.1423 O   0  0  0  0  0  0  0  0  0  0  0  0
   74.8875   33.8622   62.7275 H   0  0  0  0  0  0  0  0  0  0  0  0
   73.8790   37.2015   65.3762 H   0  0  0  0  0  0  0  0  0  0  0  0
   72.8555   38.2945   64.4393 H   0  0  0  0  0  0  0  0  0  0  0  0
   74.3757   38.8793   65.1344 H   0  0  0  0  0  0  0  0  0  0  0  0
   75.7167   34.7349   64.0261 H   0  0  0  0  0  0  0  0  0  0  0  0
   76.7539   34.6167   60.6547 H   0  0  0  0  0  0  0  0  0  0  0  0
   77.4410   34.7637   62.2940 H   0  0  0  0  0  0  0  0  0  0  0  0
   75.8886   36.8233   58.8360 H   0  0  0  0  0  0  0  0  0  0  0  0
   77.3814   36.2535   59.6095 H   0  0  0  0  0  0  0  0  0  0  0  0
   75.3341   39.2027   60.5419 H   0  0  0  0  0  0  0  0  0  0  0  0
   76.9176   32.8547   63.6706 H   0  0  0  0  0  0  0  0  0  0  0  0
   78.0940   31.1664   62.2485 H   0  0  0  0  0  0  0  0  0  0  0  0
   78.2278   32.7768   61.5511 H   0  0  0  0  0  0  0  0  0  0  0  0
   77.0847   31.6195   60.8627 H   0  0  0  0  0  0  0  0  0  0  0  0
   75.1725   33.2439   61.2995 H   0  0  0  0  0  0  0  0  0  0  0  0
  1  8  1  0  0  0  0
  1 17  1  0  0  0  0
  1 22  1  0  0  0  0
  1 36  1  0  0  0  0
  2  3  2  0  0  0  0
  2 16  1  0  0  0  0
  3  4  1  0  0  0  0
  3  5  1  0  0  0  0
  4 23  1  0  0  0  0
  4 24  1  0  0  0  0
  4 25  1  0  0  0  0
  5  6  1  0  0  0  0
  5  7  2  0  0  0  0
  6 26  1  0  0  0  0
  7  8  1  0  0  0  0
  7  9  1  0  0  0  0
  8 27  1  0  0  0  0
  8 28  1  0  0  0  0
  9 10  1  0  0  0  0
  9 16  2  0  0  0  0
 10 11  1  0  0  0  0
 10 29  1  0  0  0  0
 10 30  1  0  0  0  0
 11 12  1  0  0  0  0
 12 13  2  0  0  0  0
 12 14  1  0  0  0  0
 12 15  1  0  0  0  0
 16 31  1  0  0  0  0
 17 18  1  0  0  0  0
 17 19  1  0  0  0  0
 17 32  1  1  0  0  0
 18 33  1  0  0  0  0
 18 34  1  0  0  0  0
 18 35  1  0  0  0  0
 19 20  2  0  0  0  0
 19 21  1  0  0  0  0
M  CHG  1   1   1
M  END
$$$$
