PFP
 OpenBabel04051917283D

 50 53  0  0  0  0  0  0  0  0999 V2000
   18.9705   -8.0418   12.9134 C   0  0  0  0  0  0  0  0  0  0  0  0
   17.6700   -7.6059   12.5299 O   0  0  0  0  0  0  0  0  0  0  0  0
   17.6461   -6.3635   11.9564 C   0  0  0  0  0  0  0  0  0  0  0  0
   18.3680   -5.2721   12.4442 C   0  0  0  0  0  0  0  0  0  0  0  0
   18.2509   -4.0240   11.8313 C   0  0  0  0  0  0  0  0  0  0  0  0
   16.7950   -6.2076   10.8680 C   0  0  0  0  0  0  0  0  0  0  0  0
   16.6991   -4.9724   10.2291 C   0  0  0  0  0  0  0  0  0  0  0  0
   17.4241   -3.8764   10.7139 C   0  0  0  0  0  0  0  0  0  0  0  0
   17.2679   -2.5886   10.0738 C   0  0  0  0  0  0  0  0  0  0  0  0
   16.0951   -1.7915   10.0127 C   0  0  0  0  0  0  0  0  0  0  0  0
   14.8001   -1.8793   10.5370 C   0  0  0  0  0  0  0  0  0  0  0  0
   14.4434   -2.8747   11.4239 N   0  0  0  0  0  0  0  0  0  0  0  0
   13.0528   -3.2131   11.6353 C   0  0  0  0  0  0  0  0  0  0  0  0
   12.4626   -2.4223   12.8048 C   0  0  0  0  0  0  0  0  0  0  0  0
   12.0283   -1.1252   12.4096 O   0  0  0  0  0  0  0  0  0  0  0  0
   13.9222   -0.9303   10.1570 N   0  0  0  0  0  0  0  0  0  0  0  0
   14.3410    0.0909    9.3862 C   0  0  0  0  0  0  0  0  0  0  0  0
   15.5683    0.2969    8.8830 N   0  0  0  0  0  0  0  0  0  0  0  0
   16.3962   -0.7016    9.2300 C   0  0  0  0  0  0  0  0  0  0  0  0
   17.6995   -0.7664    8.8293 O   0  0  0  0  0  0  0  0  0  0  0  0
   18.2341   -1.9278    9.3296 C   0  0  0  0  0  0  0  0  0  0  0  0
   19.6244   -2.2035    8.9862 C   0  0  0  0  0  0  0  0  0  0  0  0
   20.4689   -1.2046    8.4936 C   0  0  0  0  0  0  0  0  0  0  0  0
   21.8198   -1.4716    8.2427 C   0  0  0  0  0  0  0  0  0  0  0  0
   22.3482   -2.7395    8.4902 C   0  0  0  0  0  0  0  0  0  0  0  0
   23.6454   -3.1247    8.2997 O   0  0  0  0  0  0  0  0  0  0  0  0
   24.5868   -2.0708    8.1686 C   0  0  0  0  0  0  0  0  0  0  0  0
   21.5123   -3.7475    8.9527 C   0  0  0  0  0  0  0  0  0  0  0  0
   20.1649   -3.4859    9.1693 C   0  0  0  0  0  0  0  0  0  0  0  0
   18.8776   -9.0511   13.3242 H   0  0  0  0  0  0  0  0  0  0  0  0
   19.4016   -7.4139   13.6983 H   0  0  0  0  0  0  0  0  0  0  0  0
   19.6340   -8.0858   12.0429 H   0  0  0  0  0  0  0  0  0  0  0  0
   19.0094   -5.3573   13.3151 H   0  0  0  0  0  0  0  0  0  0  0  0
   18.8189   -3.1812   12.2196 H   0  0  0  0  0  0  0  0  0  0  0  0
   16.2067   -7.0476   10.5049 H   0  0  0  0  0  0  0  0  0  0  0  0
   16.0447   -4.8632    9.3662 H   0  0  0  0  0  0  0  0  0  0  0  0
   15.1216   -3.6006   11.6071 H   0  0  0  0  0  0  0  0  0  0  0  0
   13.0291   -4.2785   11.9036 H   0  0  0  0  0  0  0  0  0  0  0  0
   12.4649   -3.1013   10.7169 H   0  0  0  0  0  0  0  0  0  0  0  0
   13.1943   -2.3213   13.6145 H   0  0  0  0  0  0  0  0  0  0  0  0
   11.5827   -2.9462   13.1870 H   0  0  0  0  0  0  0  0  0  0  0  0
   11.7984   -0.6394   13.2167 H   0  0  0  0  0  0  0  0  0  0  0  0
   13.5896    0.8390    9.1537 H   0  0  0  0  0  0  0  0  0  0  0  0
   20.0884   -0.2017    8.3056 H   0  0  0  0  0  0  0  0  0  0  0  0
   22.4282   -0.6657    7.8495 H   0  0  0  0  0  0  0  0  0  0  0  0
   25.5723   -2.5197    8.0359 H   0  0  0  0  0  0  0  0  0  0  0  0
   24.6066   -1.4615    9.0809 H   0  0  0  0  0  0  0  0  0  0  0  0
   24.3788   -1.4587    7.2875 H   0  0  0  0  0  0  0  0  0  0  0  0
   21.9024   -4.7411    9.1488 H   0  0  0  0  0  0  0  0  0  0  0  0
   19.5594   -4.3207    9.4970 H   0  0  0  0  0  0  0  0  0  0  0  0
  1  2  1  0  0  0  0
  1 30  1  0  0  0  0
  1 31  1  0  0  0  0
  1 32  1  0  0  0  0
  2  3  1  0  0  0  0
  3  4  2  0  0  0  0
  3  6  1  0  0  0  0
  4  5  1  0  0  0  0
  4 33  1  0  0  0  0
  5  8  2  0  0  0  0
  5 34  1  0  0  0  0
  6  7  2  0  0  0  0
  6 35  1  0  0  0  0
  7  8  1  0  0  0  0
  7 36  1  0  0  0  0
  8  9  1  0  0  0  0
  9 10  1  0  0  0  0
  9 21  2  0  0  0  0
 10 11  2  0  0  0  0
 10 19  1  0  0  0  0
 11 12  1  0  0  0  0
 11 16  1  0  0  0  0
 12 13  1  0  0  0  0
 12 37  1  0  0  0  0
 13 14  1  0  0  0  0
 13 38  1  0  0  0  0
 13 39  1  0  0  0  0
 14 15  1  0  0  0  0
 14 40  1  0  0  0  0
 14 41  1  0  0  0  0
 15 42  1  0  0  0  0
 16 17  2  0  0  0  0
 17 18  1  0  0  0  0
 17 43  1  0  0  0  0
 18 19  2  0  0  0  0
 19 20  1  0  0  0  0
 20 21  1  0  0  0  0
 21 22  1  0  0  0  0
 22 23  2  0  0  0  0
 22 29  1  0  0  0  0
 23 24  1  0  0  0  0
 23 44  1  0  0  0  0
 24 25  2  0  0  0  0
 24 45  1  0  0  0  0
 25 26  1  0  0  0  0
 25 28  1  0  0  0  0
 26 27  1  0  0  0  0
 27 46  1  0  0  0  0
 27 47  1  0  0  0  0
 27 48  1  0  0  0  0
 28 29  2  0  0  0  0
 28 49  1  0  0  0  0
 29 50  1  0  0  0  0
M  END
$$$$
