PFQ
 OpenBabel04051917283D

 42 45  0  0  0  0  0  0  0  0999 V2000
   14.3692    0.2912    9.6279 C   0  0  0  0  0  0  0  0  0  0  0  0
   18.2707   -1.7045    9.3194 C   0  0  0  0  0  0  0  0  0  0  0  0
   19.6516   -1.9170    8.9131 C   0  0  0  0  0  0  0  0  0  0  0  0
   20.3492   -3.1026    9.2049 C   0  0  0  0  0  0  0  0  0  0  0  0
   21.6790   -3.2626    8.8165 C   0  0  0  0  0  0  0  0  0  0  0  0
   22.3304   -2.2430    8.1277 C   0  0  0  0  0  0  0  0  0  0  0  0
   21.6549   -1.0670    7.8292 C   0  0  0  0  0  0  0  0  0  0  0  0
   20.3260   -0.9089    8.2143 C   0  0  0  0  0  0  0  0  0  0  0  0
   16.9812   -4.8332   10.0517 C   0  0  0  0  0  0  0  0  0  0  0  0
   17.0513   -6.0692   10.6873 C   0  0  0  0  0  0  0  0  0  0  0  0
   17.6547   -6.1719   11.9411 C   0  0  0  0  0  0  0  0  0  0  0  0
   18.1850   -5.0402   12.5627 C   0  0  0  0  0  0  0  0  0  0  0  0
   15.5683    0.5147    9.0712 N   0  0  0  0  0  0  0  0  0  0  0  0
   16.4144   -0.4899    9.3369 C   0  0  0  0  0  0  0  0  0  0  0  0
   17.6984   -0.5324    8.8840 O   0  0  0  0  0  0  0  0  0  0  0  0
   16.1483   -1.6263   10.0738 C   0  0  0  0  0  0  0  0  0  0  0  0
   14.4935   -2.8657   11.3169 N   0  0  0  0  0  0  0  0  0  0  0  0
   14.8673   -1.7609   10.5931 C   0  0  0  0  0  0  0  0  0  0  0  0
   13.9822   -0.7674   10.3672 N   0  0  0  0  0  0  0  0  0  0  0  0
   18.1112   -3.7989   11.9335 C   0  0  0  0  0  0  0  0  0  0  0  0
   17.3349   -2.4071   10.0609 C   0  0  0  0  0  0  0  0  0  0  0  0
   17.5155   -3.6982   10.6734 C   0  0  0  0  0  0  0  0  0  0  0  0
   12.6800   -2.5006   12.8983 C   0  0  0  0  0  0  0  0  0  0  0  0
   13.0998   -3.1415   11.5752 C   0  0  0  0  0  0  0  0  0  0  0  0
   12.1966   -1.1721   12.7094 O   0  0  0  0  0  0  0  0  0  0  0  0
   13.6078    1.0457    9.4702 H   0  0  0  0  0  0  0  0  0  0  0  0
   19.8856   -3.9250    9.7336 H   0  0  0  0  0  0  0  0  0  0  0  0
   22.2036   -4.1859    9.0559 H   0  0  0  0  0  0  0  0  0  0  0  0
   23.3648   -2.3702    7.8225 H   0  0  0  0  0  0  0  0  0  0  0  0
   22.1556   -0.2656    7.2938 H   0  0  0  0  0  0  0  0  0  0  0  0
   19.8162    0.0200    7.9623 H   0  0  0  0  0  0  0  0  0  0  0  0
   16.4884   -4.7505    9.0839 H   0  0  0  0  0  0  0  0  0  0  0  0
   16.6273   -6.9481   10.2091 H   0  0  0  0  0  0  0  0  0  0  0  0
   17.7093   -7.1380   12.4366 H   0  0  0  0  0  0  0  0  0  0  0  0
   18.6494   -5.1237   13.5422 H   0  0  0  0  0  0  0  0  0  0  0  0
   15.1954   -3.5164   11.6455 H   0  0  0  0  0  0  0  0  0  0  0  0
   18.5106   -2.9169   12.4297 H   0  0  0  0  0  0  0  0  0  0  0  0
   13.5165   -2.4542   13.6045 H   0  0  0  0  0  0  0  0  0  0  0  0
   11.8755   -3.0859   13.3483 H   0  0  0  0  0  0  0  0  0  0  0  0
   12.9856   -4.2282   11.6335 H   0  0  0  0  0  0  0  0  0  0  0  0
   12.4728   -2.7955   10.7438 H   0  0  0  0  0  0  0  0  0  0  0  0
   12.8794   -0.7124   12.1788 H   0  0  0  0  0  0  0  0  0  0  0  0
  1 13  2  0  0  0  0
  1 19  1  0  0  0  0
  1 26  1  0  0  0  0
  2  3  1  0  0  0  0
  2 15  1  0  0  0  0
  2 21  2  0  0  0  0
  3  4  2  0  0  0  0
  3  8  1  0  0  0  0
  4  5  1  0  0  0  0
  4 27  1  0  0  0  0
  5  6  2  0  0  0  0
  5 28  1  0  0  0  0
  6  7  1  0  0  0  0
  6 29  1  0  0  0  0
  7  8  2  0  0  0  0
  7 30  1  0  0  0  0
  8 31  1  0  0  0  0
  9 10  2  0  0  0  0
  9 22  1  0  0  0  0
  9 32  1  0  0  0  0
 10 11  1  0  0  0  0
 10 33  1  0  0  0  0
 11 12  2  0  0  0  0
 11 34  1  0  0  0  0
 12 20  1  0  0  0  0
 12 35  1  0  0  0  0
 13 14  1  0  0  0  0
 14 15  1  0  0  0  0
 14 16  2  0  0  0  0
 16 18  1  0  0  0  0
 16 21  1  0  0  0  0
 17 18  1  0  0  0  0
 17 24  1  0  0  0  0
 17 36  1  0  0  0  0
 18 19  2  0  0  0  0
 20 22  2  0  0  0  0
 20 37  1  0  0  0  0
 21 22  1  0  0  0  0
 23 24  1  0  0  0  0
 23 25  1  0  0  0  0
 23 38  1  0  0  0  0
 23 39  1  0  0  0  0
 24 40  1  0  0  0  0
 24 41  1  0  0  0  0
 25 42  1  0  0  0  0
M  END
$$$$
