PGA
 OpenBabel04051919313D

 11 10  0  0  0  0  0  0  0  0999 V2000
   12.0828   15.9333   15.4166 P   0  0  0  0  0  0  0  0  0  0  0  0
   11.7548   14.3492   15.6612 O   0  0  0  0  0  0  0  0  0  0  0  0
   13.1565   15.9743   14.3312 O   0  0  0  0  0  0  0  0  0  0  0  0
   10.7445   16.5171   14.9708 O   0  0  0  0  0  0  0  0  0  0  0  0
   12.5631   16.4672   16.7634 O   0  0  0  0  0  0  0  0  0  0  0  0
   12.8322   13.4075   15.7773 C   0  0  0  0  0  0  0  0  0  0  0  0
   12.2973   11.9524   15.8701 C   0  0  0  0  0  0  0  0  0  0  0  0
   12.8397   11.1070   15.0875 O   0  0  0  0  0  0  0  0  0  0  0  0
   11.4582   11.6779   16.7861 O   0  0  0  0  0  0  0  0  0  0  0  0
   13.4122   13.6271   16.6773 H   0  0  0  0  0  0  0  0  0  0  0  0
   13.4899   13.4960   14.9081 H   0  0  0  0  0  0  0  0  0  0  0  0
  1  2  1  0  0  0  0
  1  3  2  0  0  0  0
  1  4  1  0  0  0  0
  1  5  1  0  0  0  0
  2  6  1  0  0  0  0
  6  7  1  0  0  0  0
  6 10  1  0  0  0  0
  6 11  1  0  0  0  0
  7  8  2  0  0  0  0
  7  9  1  0  0  0  0
M  END
$$$$
