PGA
 OpenBabel04051919243D

 11 10  0  0  0  0  0  0  0  0999 V2000
   13.1434    3.3323   18.4618 P   0  0  0  0  0  0  0  0  0  0  0  0
   13.9855    4.7288   18.4605 O   0  0  0  0  0  0  0  0  0  0  0  0
   13.5563    2.5859   17.1980 O   0  0  0  0  0  0  0  0  0  0  0  0
   11.6921    3.8108   18.4346 O   0  0  0  0  0  0  0  0  0  0  0  0
   13.4957    2.6049   19.7645 O   0  0  0  0  0  0  0  0  0  0  0  0
   15.2675    4.8170   19.0865 C   0  0  0  0  0  0  0  0  0  0  0  0
   16.3896    5.1987   18.0924 C   0  0  0  0  0  0  0  0  0  0  0  0
   17.4494    4.4782   18.1474 O   0  0  0  0  0  0  0  0  0  0  0  0
   16.2792    6.2957   17.4638 O   0  0  0  0  0  0  0  0  0  0  0  0
   15.5279    3.8979   19.6198 H   0  0  0  0  0  0  0  0  0  0  0  0
   15.1989    5.6099   19.8464 H   0  0  0  0  0  0  0  0  0  0  0  0
  1  2  1  0  0  0  0
  1  3  2  0  0  0  0
  1  4  1  0  0  0  0
  1  5  1  0  0  0  0
  2  6  1  0  0  0  0
  6  7  1  0  0  0  0
  6 10  1  0  0  0  0
  6 11  1  0  0  0  0
  7  8  2  0  0  0  0
  7  9  1  0  0  0  0
M  END
$$$$
