PGA
 OpenBabel04051918173D

 11 10  0  0  0  0  0  0  0  0999 V2000
   13.0412    6.2059    5.4587 P   0  0  0  0  0  0  0  0  0  0  0  0
   14.3329    6.4042    6.4458 O   0  0  0  0  0  0  0  0  0  0  0  0
   13.1939    7.2705    4.3778 O   0  0  0  0  0  0  0  0  0  0  0  0
   11.8174    6.4052    6.3491 O   0  0  0  0  0  0  0  0  0  0  0  0
   13.1802    4.7782    4.9282 O   0  0  0  0  0  0  0  0  0  0  0  0
   14.4911    7.6707    7.0916 C   0  0  0  0  0  0  0  0  0  0  0  0
   15.4874    7.6337    8.2783 C   0  0  0  0  0  0  0  0  0  0  0  0
   15.4387    8.6658    9.0457 O   0  0  0  0  0  0  0  0  0  0  0  0
   16.3163    6.6784    8.3938 O   0  0  0  0  0  0  0  0  0  0  0  0
   13.5236    8.0191    7.4677 H   0  0  0  0  0  0  0  0  0  0  0  0
   14.8655    8.3993    6.3644 H   0  0  0  0  0  0  0  0  0  0  0  0
  1  2  1  0  0  0  0
  1  3  2  0  0  0  0
  1  4  1  0  0  0  0
  1  5  1  0  0  0  0
  2  6  1  0  0  0  0
  6  7  1  0  0  0  0
  6 10  1  0  0  0  0
  6 11  1  0  0  0  0
  7  8  2  0  0  0  0
  7  9  1  0  0  0  0
M  END
$$$$
