PGA
 OpenBabel04051920473D

 11 10  0  0  0  0  0  0  0  0999 V2000
   93.5839   42.7615   47.6255 P   0  0  0  0  0  0  0  0  0  0  0  0
   93.9447   44.2487   47.6044 O   0  0  0  0  0  0  0  0  0  0  0  0
   93.2549   42.1942   46.2494 O   0  0  0  0  0  0  0  0  0  0  0  0
   94.5651   41.9065   48.4162 O   0  0  0  0  0  0  0  0  0  0  0  0
   92.1503   42.6752   48.4323 O   0  0  0  0  0  0  0  0  0  0  0  0
   92.1386   42.7653   49.8622 C   0  0  0  0  0  0  0  0  0  0  0  0
   90.7341   43.0986   50.4353 C   0  0  0  0  0  0  0  0  0  0  0  0
   89.8037   43.5019   49.6878 O   0  0  0  0  0  0  0  0  0  0  0  0
   90.6358   42.9200   51.7030 O   0  0  0  0  0  0  0  0  0  0  0  0
   92.8568   43.5140   50.2073 H   0  0  0  0  0  0  0  0  0  0  0  0
   92.4391   41.7883   50.2559 H   0  0  0  0  0  0  0  0  0  0  0  0
  1  2  2  0  0  0  0
  1  3  1  0  0  0  0
  1  4  1  0  0  0  0
  1  5  1  0  0  0  0
  5  6  1  0  0  0  0
  6  7  1  0  0  0  0
  6 10  1  0  0  0  0
  6 11  1  0  0  0  0
  7  8  2  0  0  0  0
  7  9  1  0  0  0  0
M  END
$$$$
