PGH
 OpenBabel04051919513D

 14 13  0  0  0  0  0  0  0  0999 V2000
   26.4606   -2.6522   11.2736 C   0  0  0  0  0  0  0  0  0  0  0  0
   26.3553   -2.4805    9.7577 C   0  0  0  0  0  0  0  0  0  0  0  0
   25.4419   -2.0089   11.9656 N   0  0  0  0  0  0  0  0  0  0  0  0
   25.4517   -2.0996   13.3687 O   0  0  0  0  0  0  0  0  0  0  0  0
   27.2812   -3.3460   11.8659 O   0  0  0  0  0  0  0  0  0  0  0  0
   27.6332   -2.2795    9.2245 O   0  0  0  0  0  0  0  0  0  0  0  0
   29.1300   -1.5627    7.3967 O   0  0  0  0  0  0  0  0  0  0  0  0
   27.3228   -3.3406    7.0029 O   0  0  0  0  0  0  0  0  0  0  0  0
   26.6514   -0.9114    7.4021 O   0  0  0  0  0  0  0  0  0  0  0  0
   27.6943   -1.9998    7.6130 P   0  0  0  0  0  0  0  0  0  0  0  0
   25.6978   -1.6478    9.5266 H   0  0  0  0  0  0  0  0  0  0  0  0
   25.9026   -3.4007    9.3673 H   0  0  0  0  0  0  0  0  0  0  0  0
   24.8831   -1.2788   11.5379 H   0  0  0  0  0  0  0  0  0  0  0  0
   25.4986   -3.0698   13.4866 H   0  0  0  0  0  0  0  0  0  0  0  0
  1  2  1  0  0  0  0
  1  3  1  0  0  0  0
  1  5  2  0  0  0  0
  2  6  1  0  0  0  0
  2 11  1  0  0  0  0
  2 12  1  0  0  0  0
  3  4  1  0  0  0  0
  3 13  1  0  0  0  0
  4 14  1  0  0  0  0
  6 10  1  0  0  0  0
  7 10  2  0  0  0  0
  8 10  1  0  0  0  0
  9 10  1  0  0  0  0
M  END
$$$$
