PGH
 OpenBabel04051918163D

 14 13  0  0  0  0  0  0  0  0999 V2000
  -24.9093   15.2409   57.0253 C   0  0  0  0  0  0  0  0  0  0  0  0
  -26.3561   15.0148   56.5695 C   0  0  0  0  0  0  0  0  0  0  0  0
  -24.3107   14.0887   57.5039 N   0  0  0  0  0  0  0  0  0  0  0  0
  -23.0088   14.2221   58.0346 O   0  0  0  0  0  0  0  0  0  0  0  0
  -24.3305   16.3182   56.9565 O   0  0  0  0  0  0  0  0  0  0  0  0
  -27.2067   15.5711   57.5415 O   0  0  0  0  0  0  0  0  0  0  0  0
  -29.4478   15.8913   58.5388 O   0  0  0  0  0  0  0  0  0  0  0  0
  -28.9999   14.0034   56.8628 O   0  0  0  0  0  0  0  0  0  0  0  0
  -29.0106   16.4363   56.0650 O   0  0  0  0  0  0  0  0  0  0  0  0
  -28.8089   15.4752   57.2251 P   0  0  0  0  0  0  0  0  0  0  0  0
  -26.5446   13.9402   56.4772 H   0  0  0  0  0  0  0  0  0  0  0  0
  -26.4865   15.4718   55.5855 H   0  0  0  0  0  0  0  0  0  0  0  0
  -24.8484   13.2480   57.6747 H   0  0  0  0  0  0  0  0  0  0  0  0
  -22.8573   13.3704   58.4701 H   0  0  0  0  0  0  0  0  0  0  0  0
  1  2  1  0  0  0  0
  1  3  1  0  0  0  0
  1  5  2  0  0  0  0
  2  6  1  0  0  0  0
  2 11  1  0  0  0  0
  2 12  1  0  0  0  0
  3  4  1  0  0  0  0
  3 13  1  0  0  0  0
  4 14  1  0  0  0  0
  6 10  1  0  0  0  0
  7 10  2  0  0  0  0
  8 10  1  0  0  0  0
  9 10  1  0  0  0  0
M  END
$$$$
