PGI
 OpenBabel04051917363D

 43 45  0  0  1  0  0  0  0  0999 V2000
   -2.7691    8.0388    8.4616 O   0  0  0  0  0  0  0  0  0  0  0  0
   -3.2630    9.3449    8.1846 C   0  0  0  0  0  0  0  0  0  0  0  0
   -2.2954   10.4512    8.6540 C   0  0  2  0  0  0  0  0  0  0  0  0
   -1.1111   10.6640    7.6602 C   0  0  1  0  0  0  0  0  0  0  0  0
   -1.5720   10.9735    6.3437 O   0  0  0  0  0  0  0  0  0  0  0  0
   -0.2592   11.8570    8.1686 C   0  0  2  0  0  0  0  0  0  0  0  0
    0.7944   12.1293    7.2392 O   0  0  0  0  0  0  0  0  0  0  0  0
    0.3534   11.5565    9.5467 C   0  0  1  0  0  0  0  0  0  0  0  0
    0.7234   12.7315   10.2738 O   0  0  0  0  0  0  0  0  0  0  0  0
   -1.7453   10.2131   10.0073 N   0  3  1  0  0  0  0  0  0  0  0  0
   -2.2623    9.4288   11.0230 C   0  0  0  0  0  0  0  0  0  0  0  0
   -1.3507    9.4357   12.0568 C   0  0  2  0  0  0  0  0  0  0  0  0
   -0.3478   10.2874   11.6390 N   0  3  0  0  0  0  0  0  0  0  0  0
   -0.5550   10.7102   10.3935 C   0  0  1  0  0  0  0  0  0  0  0  0
   -1.3532    8.7148   13.3479 C   0  0  0  0  0  0  0  0  0  0  0  0
   -0.0530    7.9461   13.5984 C   0  0  0  0  0  0  0  0  0  0  0  0
    0.2313    6.8554   12.5922 C   0  0  0  0  0  0  0  0  0  0  0  0
    1.1896    7.0433   11.5841 C   0  0  0  0  0  0  0  0  0  0  0  0
    1.4808    6.0220   10.6778 C   0  0  0  0  0  0  0  0  0  0  0  0
   -0.4330    5.6244   12.6696 C   0  0  0  0  0  0  0  0  0  0  0  0
   -0.1353    4.6008   11.7665 C   0  0  0  0  0  0  0  0  0  0  0  0
    0.8202    4.7972   10.7738 C   0  0  0  0  0  0  0  0  0  0  0  0
   -1.9804    7.8519    7.9253 H   0  0  0  0  0  0  0  0  0  0  0  0
   -4.2052    9.4492    8.7323 H   0  0  0  0  0  0  0  0  0  0  0  0
   -3.5087    9.4190    7.1211 H   0  0  0  0  0  0  0  0  0  0  0  0
   -2.8662   11.3873    8.6908 H   0  0  0  0  0  0  0  0  0  0  0  0
   -0.4791    9.7672    7.5996 H   0  0  0  0  0  0  0  0  0  0  0  0
   -1.8480   10.1492    5.8979 H   0  0  0  0  0  0  0  0  0  0  0  0
   -0.8754   12.7647    8.2105 H   0  0  0  0  0  0  0  0  0  0  0  0
    0.3736   12.3568    6.3849 H   0  0  0  0  0  0  0  0  0  0  0  0
    1.2618   10.9518    9.4360 H   0  0  0  0  0  0  0  0  0  0  0  0
    0.0164   13.3975   10.2006 H   0  0  0  0  0  0  0  0  0  0  0  0
   -3.1999    8.9100   10.8833 H   0  0  0  0  0  0  0  0  0  0  0  0
   -2.2134    8.0358   13.3719 H   0  0  0  0  0  0  0  0  0  0  0  0
   -1.4991    9.4567   14.1412 H   0  0  0  0  0  0  0  0  0  0  0  0
   -0.0971    7.4950   14.5983 H   0  0  0  0  0  0  0  0  0  0  0  0
    0.7942    8.6434   13.6281 H   0  0  0  0  0  0  0  0  0  0  0  0
    1.7416    7.9783   11.5088 H   0  0  0  0  0  0  0  0  0  0  0  0
    2.2425    6.1656    9.9158 H   0  0  0  0  0  0  0  0  0  0  0  0
   -1.1655    5.4354   13.4523 H   0  0  0  0  0  0  0  0  0  0  0  0
   -0.6343    3.6385   11.8517 H   0  0  0  0  0  0  0  0  0  0  0  0
    1.0661    3.9910   10.0872 H   0  0  0  0  0  0  0  0  0  0  0  0
    0.4853   10.5421   12.1732 H   0  0  0  0  0  0  0  0  0  0  0  0
  1  2  1  0  0  0  0
  1 23  1  0  0  0  0
  2  3  1  0  0  0  0
  2 24  1  0  0  0  0
  2 25  1  0  0  0  0
  3  4  1  0  0  0  0
  3 10  1  0  0  0  0
  3 26  1  1  0  0  0
  4  5  1  0  0  0  0
  4  6  1  0  0  0  0
  4 27  1  6  0  0  0
  5 28  1  0  0  0  0
  6  7  1  0  0  0  0
  6  8  1  0  0  0  0
  6 29  1  1  0  0  0
  7 30  1  0  0  0  0
  8  9  1  0  0  0  0
  8 14  1  0  0  0  0
  8 31  1  6  0  0  0
  9 32  1  0  0  0  0
 10 11  1  6  0  0  0
 10 14  1  0  0  0  0
 11 12  1  0  0  0  0
 11 33  1  0  0  0  0
 12 13  1  0  0  0  0
 12 15  1  6  0  0  0
 13 43  1  0  0  0  0
 14 13  1  6  0  0  0
 15 16  1  0  0  0  0
 15 34  1  0  0  0  0
 15 35  1  0  0  0  0
 16 17  1  0  0  0  0
 16 36  1  0  0  0  0
 16 37  1  0  0  0  0
 17 18  1  0  0  0  0
 17 20  1  0  0  0  0
 18 19  1  0  0  0  0
 18 38  1  0  0  0  0
 19 22  1  0  0  0  0
 19 39  1  0  0  0  0
 20 21  1  0  0  0  0
 20 40  1  0  0  0  0
 21 22  1  0  0  0  0
 21 41  1  0  0  0  0
 22 42  1  0  0  0  0
M  CHG  2  10   1  13   1
M  END
$$$$
