PH0
 OpenBabel04051919183D

 65 67  0  0  1  0  0  0  0  0999 V2000
   34.1270    4.1762    3.4164 O   0  0  0  0  0  0  0  0  0  0  0  0
   32.6767    2.7568    1.1115 C   0  0  0  0  0  0  0  0  0  0  0  0
   31.9332    1.9812    0.0502 C   0  0  0  0  0  0  0  0  0  0  0  0
   32.3653    1.8412   -1.2685 C   0  0  0  0  0  0  0  0  0  0  0  0
   31.5577    1.1263   -2.1667 C   0  0  0  0  0  0  0  0  0  0  0  0
   30.3275    0.5858   -1.7898 C   0  0  0  0  0  0  0  0  0  0  0  0
   29.9123    0.7041   -0.4796 C   0  0  0  0  0  0  0  0  0  0  0  0
   30.7042    1.4132    0.4189 C   0  0  0  0  0  0  0  0  0  0  0  0
   34.1703    2.4670    1.2923 C   0  0  1  0  0  0  0  0  0  0  0  0
   34.8053    5.2331    0.9934 C   0  0  0  0  0  0  0  0  0  0  0  0
   34.7378    6.5962    1.6789 C   0  0  2  0  0  0  0  0  0  0  0  0
   34.4750    7.6327    0.6382 C   0  0  0  0  0  0  0  0  0  0  0  0
   33.2254    9.5800   -0.1827 C   0  0  1  0  0  0  0  0  0  0  0  0
   32.3168   10.6626    0.3889 C   0  0  0  0  0  0  0  0  0  0  0  0
   31.2164   10.0539    1.2283 C   0  0  0  0  0  0  0  0  0  0  0  0
   31.4242    9.7807    2.5924 C   0  0  0  0  0  0  0  0  0  0  0  0
   30.4164    9.1745    3.3254 C   0  0  0  0  0  0  0  0  0  0  0  0
   29.2159    8.8328    2.7102 C   0  0  0  0  0  0  0  0  0  0  0  0
   29.0086    9.1033    1.3637 C   0  0  0  0  0  0  0  0  0  0  0  0
   30.0138    9.7031    0.6236 C   0  0  0  0  0  0  0  0  0  0  0  0
   34.5147   10.2899   -0.6807 C   0  0  0  0  0  0  0  0  0  0  0  0
   35.0080    3.9205    2.2236 P   0  0  1  0  0  0  0  0  0  0  0  0
   36.4299    3.4762    2.4579 O   0  0  0  0  0  0  0  0  0  0  0  0
   34.2925    1.2212    2.1385 N   0  3  0  0  0  0  0  0  0  0  0  0
   36.1015    6.8947    2.2992 C   0  0  0  0  0  0  0  0  0  0  0  0
   36.0563    8.0093    3.3169 C   0  0  0  0  0  0  0  0  0  0  0  0
   37.2015    8.7819    3.5436 C   0  0  0  0  0  0  0  0  0  0  0  0
   37.1987    9.8392    4.4574 C   0  0  0  0  0  0  0  0  0  0  0  0
   36.0434   10.1102    5.1820 C   0  0  0  0  0  0  0  0  0  0  0  0
   34.9078    9.3186    5.0062 C   0  0  0  0  0  0  0  0  0  0  0  0
   34.9125    8.2727    4.0809 C   0  0  0  0  0  0  0  0  0  0  0  0
   35.1759    7.6169   -0.3941 O   0  0  0  0  0  0  0  0  0  0  0  0
   33.4885    8.5043    0.7882 N   0  0  0  0  0  0  0  0  0  0  0  0
   35.3845   10.6073    0.1540 O   0  0  0  0  0  0  0  0  0  0  0  0
   34.4862   10.5103   -1.9578 O   0  0  0  0  0  0  0  0  0  0  0  0
   32.1829    2.5661    2.0735 H   0  0  0  0  0  0  0  0  0  0  0  0
   32.5525    3.8104    0.8864 H   0  0  0  0  0  0  0  0  0  0  0  0
   33.3034    2.2734   -1.6187 H   0  0  0  0  0  0  0  0  0  0  0  0
   31.8881    0.9786   -3.1909 H   0  0  0  0  0  0  0  0  0  0  0  0
   29.6998    0.0783   -2.5201 H   0  0  0  0  0  0  0  0  0  0  0  0
   28.9792    0.2506   -0.1535 H   0  0  0  0  0  0  0  0  0  0  0  0
   30.3468    1.5313    1.4395 H   0  0  0  0  0  0  0  0  0  0  0  0
   34.6548    2.2736    0.3287 H   0  0  0  0  0  0  0  0  0  0  0  0
   35.6513    5.2031    0.2979 H   0  0  0  0  0  0  0  0  0  0  0  0
   33.8947    5.1107    0.3812 H   0  0  0  0  0  0  0  0  0  0  0  0
   33.9400    6.5857    2.4274 H   0  0  0  0  0  0  0  0  0  0  0  0
   32.7141    9.1175   -1.0404 H   0  0  0  0  0  0  0  0  0  0  0  0
   31.8553   11.2412   -0.4271 H   0  0  0  0  0  0  0  0  0  0  0  0
   32.8829   11.3634    1.0102 H   0  0  0  0  0  0  0  0  0  0  0  0
   32.3788   10.0176    3.0616 H   0  0  0  0  0  0  0  0  0  0  0  0
   30.5591    8.9807    4.3817 H   0  0  0  0  0  0  0  0  0  0  0  0
   28.4340    8.3522    3.2843 H   0  0  0  0  0  0  0  0  0  0  0  0
   28.0664    8.8530    0.8878 H   0  0  0  0  0  0  0  0  0  0  0  0
   29.8612    9.9180   -0.4289 H   0  0  0  0  0  0  0  0  0  0  0  0
   35.2963    1.0539    2.2861 H   0  0  0  0  0  0  0  0  0  0  0  0
   33.9015    1.4558    3.0622 H   0  0  0  0  0  0  0  0  0  0  0  0
   36.8082    7.1569    1.4919 H   0  0  0  0  0  0  0  0  0  0  0  0
   36.4897    5.9933    2.7842 H   0  0  0  0  0  0  0  0  0  0  0  0
   38.1084    8.5551    2.9910 H   0  0  0  0  0  0  0  0  0  0  0  0
   38.0903   10.4450    4.5959 H   0  0  0  0  0  0  0  0  0  0  0  0
   36.0284   10.9359    5.8843 H   0  0  0  0  0  0  0  0  0  0  0  0
   34.0183    9.5164    5.5939 H   0  0  0  0  0  0  0  0  0  0  0  0
   34.0184    7.6771    3.9653 H   0  0  0  0  0  0  0  0  0  0  0  0
   32.8983    8.4439    1.6020 H   0  0  0  0  0  0  0  0  0  0  0  0
   33.8191    0.4314    1.7208 H   0  0  0  0  0  0  0  0  0  0  0  0
  2  3  1  0  0  0  0
  2  9  1  0  0  0  0
  2 36  1  0  0  0  0
  2 37  1  0  0  0  0
  3  4  2  0  0  0  0
  3  8  1  0  0  0  0
  4  5  1  0  0  0  0
  4 38  1  0  0  0  0
  5  6  2  0  0  0  0
  5 39  1  0  0  0  0
  6  7  1  0  0  0  0
  6 40  1  0  0  0  0
  7  8  2  0  0  0  0
  7 41  1  0  0  0  0
  8 42  1  0  0  0  0
  9 22  1  0  0  0  0
  9 24  1  0  0  0  0
  9 43  1  6  0  0  0
 10 11  1  0  0  0  0
 10 22  1  0  0  0  0
 10 44  1  0  0  0  0
 10 45  1  0  0  0  0
 11 12  1  0  0  0  0
 11 25  1  0  0  0  0
 11 46  1  1  0  0  0
 12 32  2  0  0  0  0
 12 33  1  0  0  0  0
 13 14  1  0  0  0  0
 13 21  1  0  0  0  0
 13 33  1  0  0  0  0
 13 47  1  6  0  0  0
 14 15  1  0  0  0  0
 14 48  1  0  0  0  0
 14 49  1  0  0  0  0
 15 16  2  0  0  0  0
 15 20  1  0  0  0  0
 16 17  1  0  0  0  0
 16 50  1  0  0  0  0
 17 18  2  0  0  0  0
 17 51  1  0  0  0  0
 18 19  1  0  0  0  0
 18 52  1  0  0  0  0
 19 20  2  0  0  0  0
 19 53  1  0  0  0  0
 20 54  1  0  0  0  0
 21 34  2  0  0  0  0
 21 35  1  0  0  0  0
 22  1  2  1  0  0  0
 22 23  1  0  0  0  0
 24 55  1  0  0  0  0
 24 56  1  0  0  0  0
 24 65  1  0  0  0  0
 25 26  1  0  0  0  0
 25 57  1  0  0  0  0
 25 58  1  0  0  0  0
 26 27  2  0  0  0  0
 26 31  1  0  0  0  0
 27 28  1  0  0  0  0
 27 59  1  0  0  0  0
 28 29  2  0  0  0  0
 28 60  1  0  0  0  0
 29 30  1  0  0  0  0
 29 61  1  0  0  0  0
 30 31  2  0  0  0  0
 30 62  1  0  0  0  0
 31 63  1  0  0  0  0
 33 64  1  0  0  0  0
M  CHG  1  24   1
M  END
$$$$
