PHE
 OpenBabel04051920483D

 23 23  0  0  1  0  0  0  0  0999 V2000
   80.2107  -61.0680   18.5386 N   0  3  0  0  0  0  0  0  0  0  0  0
   81.6583  -61.0153   18.9842 C   0  0  2  0  0  0  0  0  0  0  0  0
   82.6281  -60.7303   17.8168 C   0  0  0  0  0  0  0  0  0  0  0  0
   83.7162  -60.1873   18.1089 O   0  0  0  0  0  0  0  0  0  0  0  0
   82.0349  -62.2990   19.7227 C   0  0  0  0  0  0  0  0  0  0  0  0
   81.8083  -63.5866   18.9611 C   0  0  0  0  0  0  0  0  0  0  0  0
   82.8055  -64.0779   18.1076 C   0  0  0  0  0  0  0  0  0  0  0  0
   80.6034  -64.3023   19.0782 C   0  0  0  0  0  0  0  0  0  0  0  0
   82.6031  -65.2450   17.3733 C   0  0  0  0  0  0  0  0  0  0  0  0
   80.4076  -65.4719   18.3421 C   0  0  0  0  0  0  0  0  0  0  0  0
   81.4005  -65.9416   17.4860 C   0  0  0  0  0  0  0  0  0  0  0  0
   82.0846  -60.9942   16.6923 O   0  0  0  0  0  0  0  0  0  0  0  0
   79.5471  -61.2751   19.2777 H   0  0  0  0  0  0  0  0  0  0  0  0
   80.0047  -60.1842   18.0542 H   0  0  0  0  0  0  0  0  0  0  0  0
   81.7114  -60.1634   19.6760 H   0  0  0  0  0  0  0  0  0  0  0  0
   81.4579  -62.3497   20.6572 H   0  0  0  0  0  0  0  0  0  0  0  0
   83.0862  -62.2588   20.0347 H   0  0  0  0  0  0  0  0  0  0  0  0
   83.7521  -63.5494   18.0015 H   0  0  0  0  0  0  0  0  0  0  0  0
   79.8225  -63.9703   19.7548 H   0  0  0  0  0  0  0  0  0  0  0  0
   83.3821  -65.6078   16.7112 H   0  0  0  0  0  0  0  0  0  0  0  0
   79.4742  -66.0283   18.4379 H   0  0  0  0  0  0  0  0  0  0  0  0
   81.2463  -66.8486   16.9114 H   0  0  0  0  0  0  0  0  0  0  0  0
   80.1973  -61.7661   17.7750 H   0  0  0  0  0  0  0  0  0  0  0  0
  1  2  1  0  0  0  0
  1 13  1  0  0  0  0
  1 14  1  0  0  0  0
  1 23  1  0  0  0  0
  2  3  1  0  0  0  0
  2  5  1  0  0  0  0
  2 15  1  1  0  0  0
  3  4  2  0  0  0  0
  3 12  1  0  0  0  0
  5  6  1  0  0  0  0
  5 16  1  0  0  0  0
  5 17  1  0  0  0  0
  6  7  2  0  0  0  0
  6  8  1  0  0  0  0
  7  9  1  0  0  0  0
  7 18  1  0  0  0  0
  8 10  2  0  0  0  0
  8 19  1  0  0  0  0
  9 11  2  0  0  0  0
  9 20  1  0  0  0  0
 10 11  1  0  0  0  0
 10 21  1  0  0  0  0
 11 22  1  0  0  0  0
M  CHG  1   1   1
M  END
$$$$
