PLM
 OpenBabel04051918113D

 49 48  0  0  0  0  0  0  0  0999 V2000
   26.1216   48.3380   15.3236 C   0  0  0  0  0  0  0  0  0  0  0  0
   26.2367   49.5631   15.0307 O   0  0  0  0  0  0  0  0  0  0  0  0
   26.6216   47.3288   14.7532 O   0  0  0  0  0  0  0  0  0  0  0  0
   25.2460   48.0641   16.5541 C   0  0  0  0  0  0  0  0  0  0  0  0
   25.4888   46.7164   17.2297 C   0  0  0  0  0  0  0  0  0  0  0  0
   25.0200   46.7063   18.6902 C   0  0  0  0  0  0  0  0  0  0  0  0
   26.0008   45.9449   19.5866 C   0  0  0  0  0  0  0  0  0  0  0  0
   25.5046   45.8653   21.0402 C   0  0  0  0  0  0  0  0  0  0  0  0
   26.6612   45.8177   22.0444 C   0  0  0  0  0  0  0  0  0  0  0  0
   26.6581   47.0604   22.9443 C   0  0  0  0  0  0  0  0  0  0  0  0
   27.9806   47.3375   23.6646 C   0  0  0  0  0  0  0  0  0  0  0  0
   29.2056   47.4963   22.7574 C   0  0  0  0  0  0  0  0  0  0  0  0
   29.0232   48.5290   21.6449 C   0  0  0  0  0  0  0  0  0  0  0  0
   30.2160   48.5147   20.6888 C   0  0  0  0  0  0  0  0  0  0  0  0
   30.1580   49.6892   19.7090 C   0  0  0  0  0  0  0  0  0  0  0  0
   31.0247   49.4896   18.4671 C   0  0  0  0  0  0  0  0  0  0  0  0
   30.5888   48.3365   17.5505 C   0  0  0  0  0  0  0  0  0  0  0  0
   29.1657   48.4719   17.0402 C   0  0  0  0  0  0  0  0  0  0  0  0
   24.1982   48.1435   16.2462 H   0  0  0  0  0  0  0  0  0  0  0  0
   25.4387   48.8768   17.2653 H   0  0  0  0  0  0  0  0  0  0  0  0
   26.5546   46.4609   17.1740 H   0  0  0  0  0  0  0  0  0  0  0  0
   24.9569   45.9339   16.6765 H   0  0  0  0  0  0  0  0  0  0  0  0
   24.0209   46.2574   18.7503 H   0  0  0  0  0  0  0  0  0  0  0  0
   24.9312   47.7302   19.0734 H   0  0  0  0  0  0  0  0  0  0  0  0
   26.9680   46.4596   19.5405 H   0  0  0  0  0  0  0  0  0  0  0  0
   26.1592   44.9316   19.2023 H   0  0  0  0  0  0  0  0  0  0  0  0
   24.8876   44.9669   21.1442 H   0  0  0  0  0  0  0  0  0  0  0  0
   24.8414   46.7151   21.2551 H   0  0  0  0  0  0  0  0  0  0  0  0
   27.6121   45.7057   21.5186 H   0  0  0  0  0  0  0  0  0  0  0  0
   26.5563   44.9282   22.6774 H   0  0  0  0  0  0  0  0  0  0  0  0
   25.8676   46.9432   23.6971 H   0  0  0  0  0  0  0  0  0  0  0  0
   26.3840   47.9504   22.3632 H   0  0  0  0  0  0  0  0  0  0  0  0
   28.1751   46.5306   24.3843 H   0  0  0  0  0  0  0  0  0  0  0  0
   27.8596   48.2523   24.2581 H   0  0  0  0  0  0  0  0  0  0  0  0
   29.4740   46.5244   22.3314 H   0  0  0  0  0  0  0  0  0  0  0  0
   30.0565   47.7945   23.3819 H   0  0  0  0  0  0  0  0  0  0  0  0
   28.8897   49.5243   22.0824 H   0  0  0  0  0  0  0  0  0  0  0  0
   28.1237   48.3127   21.0589 H   0  0  0  0  0  0  0  0  0  0  0  0
   30.2070   47.5565   20.1552 H   0  0  0  0  0  0  0  0  0  0  0  0
   31.1561   48.5617   21.2481 H   0  0  0  0  0  0  0  0  0  0  0  0
   30.5003   50.5916   20.2370 H   0  0  0  0  0  0  0  0  0  0  0  0
   29.1215   49.8971   19.4142 H   0  0  0  0  0  0  0  0  0  0  0  0
   32.0653   49.3190   18.7782 H   0  0  0  0  0  0  0  0  0  0  0  0
   31.0211   50.4203   17.8896 H   0  0  0  0  0  0  0  0  0  0  0  0
   30.7042   47.3768   18.0627 H   0  0  0  0  0  0  0  0  0  0  0  0
   31.2696   48.3086   16.6927 H   0  0  0  0  0  0  0  0  0  0  0  0
   28.9370   47.6347   16.3755 H   0  0  0  0  0  0  0  0  0  0  0  0
   29.0369   49.3995   16.4754 H   0  0  0  0  0  0  0  0  0  0  0  0
   28.4365   48.4522   17.8543 H   0  0  0  0  0  0  0  0  0  0  0  0
  1  2  2  0  0  0  0
  1  3  1  0  0  0  0
  1  4  1  0  0  0  0
  4  5  1  0  0  0  0
  4 19  1  0  0  0  0
  4 20  1  0  0  0  0
  5  6  1  0  0  0  0
  5 21  1  0  0  0  0
  5 22  1  0  0  0  0
  6  7  1  0  0  0  0
  6 23  1  0  0  0  0
  6 24  1  0  0  0  0
  7  8  1  0  0  0  0
  7 25  1  0  0  0  0
  7 26  1  0  0  0  0
  8  9  1  0  0  0  0
  8 27  1  0  0  0  0
  8 28  1  0  0  0  0
  9 10  1  0  0  0  0
  9 29  1  0  0  0  0
  9 30  1  0  0  0  0
 10 11  1  0  0  0  0
 10 31  1  0  0  0  0
 10 32  1  0  0  0  0
 11 12  1  0  0  0  0
 11 33  1  0  0  0  0
 11 34  1  0  0  0  0
 12 13  1  0  0  0  0
 12 35  1  0  0  0  0
 12 36  1  0  0  0  0
 13 14  1  0  0  0  0
 13 37  1  0  0  0  0
 13 38  1  0  0  0  0
 14 15  1  0  0  0  0
 14 39  1  0  0  0  0
 14 40  1  0  0  0  0
 15 16  1  0  0  0  0
 15 41  1  0  0  0  0
 15 42  1  0  0  0  0
 16 17  1  0  0  0  0
 16 43  1  0  0  0  0
 16 44  1  0  0  0  0
 17 18  1  0  0  0  0
 17 45  1  0  0  0  0
 17 46  1  0  0  0  0
 18 47  1  0  0  0  0
 18 48  1  0  0  0  0
 18 49  1  0  0  0  0
M  END
$$$$
