PLS
 OpenBabel04051919553D

 34 34  0  0  1  0  0  0  0  0999 V2000
    6.4181   15.9292   33.5107 N   0  0  0  0  0  0  0  0  0  0  0  0
    5.1925   16.5258   34.1463 C   0  0  1  0  0  0  0  0  0  0  0  0
    4.2201   17.2583   33.2173 C   0  0  0  0  0  0  0  0  0  0  0  0
    4.8767   18.4027   32.6516 O   0  0  0  0  0  0  0  0  0  0  0  0
    4.3776   15.4409   34.9213 C   0  0  0  0  0  0  0  0  0  0  0  0
    4.7253   14.2303   34.7531 O   0  0  0  0  0  0  0  0  0  0  0  0
    3.4790   15.8644   35.7141 O   0  0  0  0  0  0  0  0  0  0  0  0
    9.7532   13.6016   30.4519 N   0  0  0  0  0  0  0  0  0  0  0  0
    9.7262   13.8716   31.7928 C   0  0  0  0  0  0  0  0  0  0  0  0
   10.9261   13.4016   32.5674 C   0  0  0  0  0  0  0  0  0  0  0  0
    8.6676   14.5338   32.4116 C   0  0  0  0  0  0  0  0  0  0  0  0
    8.7476   14.7493   33.7638 O   0  0  0  0  0  0  0  0  0  0  0  0
    7.5656   14.9507   31.6370 C   0  0  0  0  0  0  0  0  0  0  0  0
    6.3983   15.6420   32.2308 C   0  0  0  0  0  0  0  0  0  0  0  0
    7.5651   14.6878   30.2574 C   0  0  0  0  0  0  0  0  0  0  0  0
    8.6707   14.0377   29.7321 C   0  0  0  0  0  0  0  0  0  0  0  0
    6.4279   15.1023   29.3478 C   0  0  0  0  0  0  0  0  0  0  0  0
    6.6037   16.4535   28.9993 O   0  0  0  0  0  0  0  0  0  0  0  0
    5.2831   17.4125   28.8224 P   0  0  0  0  0  0  0  0  0  0  0  0
    4.7151   17.5335   30.2049 O   0  0  0  0  0  0  0  0  0  0  0  0
    4.3955   16.6611   27.8354 O   0  0  0  0  0  0  0  0  0  0  0  0
    5.8930   18.7029   28.2753 O   0  0  0  0  0  0  0  0  0  0  0  0
    5.5723   17.2707   34.8709 H   0  0  0  0  0  0  0  0  0  0  0  0
    3.3564   17.6378   33.7760 H   0  0  0  0  0  0  0  0  0  0  0  0
    3.8438   16.5749   32.4476 H   0  0  0  0  0  0  0  0  0  0  0  0
    5.5539   18.0499   32.0252 H   0  0  0  0  0  0  0  0  0  0  0  0
   10.8384   13.6474   33.6317 H   0  0  0  0  0  0  0  0  0  0  0  0
   11.8382   13.8754   32.1847 H   0  0  0  0  0  0  0  0  0  0  0  0
   11.0373   12.3141   32.4793 H   0  0  0  0  0  0  0  0  0  0  0  0
    7.9050   15.2187   34.0143 H   0  0  0  0  0  0  0  0  0  0  0  0
    5.5670   15.9036   31.5777 H   0  0  0  0  0  0  0  0  0  0  0  0
    8.7100   13.8324   28.6590 H   0  0  0  0  0  0  0  0  0  0  0  0
    5.4816   14.9100   29.8514 H   0  0  0  0  0  0  0  0  0  0  0  0
    6.4683   14.4763   28.4520 H   0  0  0  0  0  0  0  0  0  0  0  0
  1  2  1  0  0  0  0
  1 14  2  0  0  0  0
  2  3  1  0  0  0  0
  2  5  1  0  0  0  0
  2 23  1  1  0  0  0
  3  4  1  0  0  0  0
  3 24  1  0  0  0  0
  3 25  1  0  0  0  0
  4 26  1  0  0  0  0
  5  6  2  0  0  0  0
  5  7  1  0  0  0  0
  8  9  2  0  0  0  0
  8 16  1  0  0  0  0
  9 10  1  0  0  0  0
  9 11  1  0  0  0  0
 10 27  1  0  0  0  0
 10 28  1  0  0  0  0
 10 29  1  0  0  0  0
 11 12  1  0  0  0  0
 11 13  2  0  0  0  0
 12 30  1  0  0  0  0
 13 14  1  0  0  0  0
 13 15  1  0  0  0  0
 14 31  1  0  0  0  0
 15 16  2  0  0  0  0
 15 17  1  0  0  0  0
 16 32  1  0  0  0  0
 17 18  1  0  0  0  0
 17 33  1  0  0  0  0
 17 34  1  0  0  0  0
 18 19  1  0  0  0  0
 19 20  2  0  0  0  0
 19 21  1  0  0  0  0
 19 22  1  0  0  0  0
M  END
$$$$
