PP5
 OpenBabel04051920003D

 70 72  0  0  1  0  0  0  0  0999 V2000
   17.3075    3.9717   19.5993 O   0  0  0  0  0  0  0  0  0  0  0  0
   14.4908    4.2936   19.1583 C   0  0  0  0  0  0  0  0  0  0  0  0
   13.6555    3.1786   18.9740 C   0  0  0  0  0  0  0  0  0  0  0  0
   12.6634    2.8575   19.9090 C   0  0  0  0  0  0  0  0  0  0  0  0
   12.4667    3.6383   21.0595 C   0  0  0  0  0  0  0  0  0  0  0  0
   13.2873    4.7792   21.2766 C   0  0  0  0  0  0  0  0  0  0  0  0
   14.3015    5.1067   20.3217 C   0  0  0  0  0  0  0  0  0  0  0  0
   15.1015    6.2487   20.5676 C   0  0  0  0  0  0  0  0  0  0  0  0
   14.9396    7.0538   21.7007 C   0  0  0  0  0  0  0  0  0  0  0  0
   13.9511    6.7415   22.6250 C   0  0  0  0  0  0  0  0  0  0  0  0
   13.1362    5.6191   22.4129 C   0  0  0  0  0  0  0  0  0  0  0  0
   15.5671    4.5872   18.0756 C   0  0  0  0  0  0  0  0  0  0  0  0
   16.9840    4.7518   18.6762 C   0  0  0  0  0  0  0  0  0  0  0  0
   20.2021    8.8250   21.0778 C   0  0  0  0  0  0  0  0  0  0  0  0
   17.9834    5.5742   18.3980 N   0  0  0  0  0  0  0  0  0  0  0  0
   19.3272    5.8357   19.0159 C   0  0  2  0  0  0  0  0  0  0  0  0
   19.2403    7.2253   19.5846 C   0  0  0  0  0  0  0  0  0  0  0  0
   18.3960    8.0785   19.2061 O   0  0  0  0  0  0  0  0  0  0  0  0
   20.4762    5.9305   17.9823 C   0  0  0  0  0  0  0  0  0  0  0  0
   20.4610    4.5727   17.3307 C   0  0  0  0  0  0  0  0  0  0  0  0
   20.2202    6.9038   16.8302 C   0  0  0  0  0  0  0  0  0  0  0  0
   20.2005    7.5017   20.4880 N   0  0  0  0  0  0  0  0  0  0  0  0
   21.6777    9.1187   22.0970 P   0  0  2  0  0  0  0  0  0  0  0  0
   22.5876   10.1146   21.4312 O   0  0  0  0  0  0  0  0  0  0  0  0
   22.2609    7.8237   22.5701 O   0  0  0  0  0  0  0  0  0  0  0  0
   20.7521   11.1084   23.4315 C   0  0  1  0  0  0  0  0  0  0  0  0
   19.3936   11.3936   24.0629 C   0  0  0  0  0  0  0  0  0  0  0  0
   19.2905   11.0066   25.5164 C   0  0  0  0  0  0  0  0  0  0  0  0
   20.0284   11.6811   26.4924 C   0  0  0  0  0  0  0  0  0  0  0  0
   18.4493    9.9665   25.9077 C   0  0  0  0  0  0  0  0  0  0  0  0
   19.9418   11.3157   27.8302 C   0  0  0  0  0  0  0  0  0  0  0  0
   18.3524    9.6037   27.2484 C   0  0  0  0  0  0  0  0  0  0  0  0
   19.0998   10.2775   28.2095 C   0  0  0  0  0  0  0  0  0  0  0  0
   21.8831   11.8490   24.1211 C   0  0  0  0  0  0  0  0  0  0  0  0
   22.5750   14.1193   24.3993 C   0  0  0  0  0  0  0  0  0  0  0  0
   20.9927    9.7393   23.4190 O   0  0  0  0  0  0  0  0  0  0  0  0
   21.5456   13.1875   24.0792 O   0  0  0  0  0  0  0  0  0  0  0  0
   22.9471   11.4026   24.5035 O   0  0  0  0  0  0  0  0  0  0  0  0
   13.7886    2.5536   18.0910 H   0  0  0  0  0  0  0  0  0  0  0  0
   12.0368    1.9867   19.7347 H   0  0  0  0  0  0  0  0  0  0  0  0
   11.6799    3.3484   21.7686 H   0  0  0  0  0  0  0  0  0  0  0  0
   15.8793    6.5207   19.8596 H   0  0  0  0  0  0  0  0  0  0  0  0
   15.5871    7.9160   21.8476 H   0  0  0  0  0  0  0  0  0  0  0  0
   13.8056    7.3590   23.5101 H   0  0  0  0  0  0  0  0  0  0  0  0
   12.3699    5.3993   23.1503 H   0  0  0  0  0  0  0  0  0  0  0  0
   15.2551    5.4695   17.5220 H   0  0  0  0  0  0  0  0  0  0  0  0
   15.5899    3.7162   17.3875 H   0  0  0  0  0  0  0  0  0  0  0  0
   20.1604    9.5616   20.2625 H   0  0  0  0  0  0  0  0  0  0  0  0
   19.2955    8.9260   21.6903 H   0  0  0  0  0  0  0  0  0  0  0  0
   17.8241    6.2263   17.6588 H   0  0  0  0  0  0  0  0  0  0  0  0
   19.5834    5.0617   19.7695 H   0  0  0  0  0  0  0  0  0  0  0  0
   21.4404    6.1884   18.4817 H   0  0  0  0  0  0  0  0  0  0  0  0
   21.2259    4.5140   16.5608 H   0  0  0  0  0  0  0  0  0  0  0  0
   19.4706    4.4231   16.8626 H   0  0  0  0  0  0  0  0  0  0  0  0
   20.6155    3.7993   18.0831 H   0  0  0  0  0  0  0  0  0  0  0  0
   20.2283    7.9389   17.1731 H   0  0  0  0  0  0  0  0  0  0  0  0
   19.2430    6.6761   16.3830 H   0  0  0  0  0  0  0  0  0  0  0  0
   20.9926    6.7706   16.0587 H   0  0  0  0  0  0  0  0  0  0  0  0
   20.8865    6.7904   20.7660 H   0  0  0  0  0  0  0  0  0  0  0  0
   20.7285   11.4802   22.3987 H   0  0  0  0  0  0  0  0  0  0  0  0
   18.6239   10.8419   23.5042 H   0  0  0  0  0  0  0  0  0  0  0  0
   19.1782   12.4687   23.9835 H   0  0  0  0  0  0  0  0  0  0  0  0
   20.6815   12.4977   26.2100 H   0  0  0  0  0  0  0  0  0  0  0  0
   17.8682    9.4351   25.1612 H   0  0  0  0  0  0  0  0  0  0  0  0
   20.5304   11.8417   28.5736 H   0  0  0  0  0  0  0  0  0  0  0  0
   17.6947    8.7933   27.5423 H   0  0  0  0  0  0  0  0  0  0  0  0
   19.0256    9.9921   29.2528 H   0  0  0  0  0  0  0  0  0  0  0  0
   22.1700   15.1396   24.2826 H   0  0  0  0  0  0  0  0  0  0  0  0
   23.4220   13.9955   23.7190 H   0  0  0  0  0  0  0  0  0  0  0  0
   22.8976   13.9822   25.4338 H   0  0  0  0  0  0  0  0  0  0  0  0
  1 13  2  0  0  0  0
  2  3  2  0  0  0  0
  2  7  1  0  0  0  0
  2 12  1  0  0  0  0
  3  4  1  0  0  0  0
  3 39  1  0  0  0  0
  4  5  2  0  0  0  0
  4 40  1  0  0  0  0
  5  6  1  0  0  0  0
  5 41  1  0  0  0  0
  6  7  2  0  0  0  0
  6 11  1  0  0  0  0
  7  8  1  0  0  0  0
  8  9  2  0  0  0  0
  8 42  1  0  0  0  0
  9 10  1  0  0  0  0
  9 43  1  0  0  0  0
 10 11  2  0  0  0  0
 10 44  1  0  0  0  0
 11 45  1  0  0  0  0
 12 13  1  0  0  0  0
 12 46  1  0  0  0  0
 12 47  1  0  0  0  0
 13 15  1  0  0  0  0
 14 23  1  0  0  0  0
 14 22  1  0  0  0  0
 14 48  1  0  0  0  0
 14 49  1  0  0  0  0
 15 16  1  0  0  0  0
 15 50  1  0  0  0  0
 16 17  1  0  0  0  0
 16 19  1  0  0  0  0
 16 51  1  1  0  0  0
 17 18  2  0  0  0  0
 17 22  1  0  0  0  0
 19 20  1  0  0  0  0
 19 21  1  0  0  0  0
 19 52  1  0  0  0  0
 20 53  1  0  0  0  0
 20 54  1  0  0  0  0
 20 55  1  0  0  0  0
 21 56  1  0  0  0  0
 21 57  1  0  0  0  0
 21 58  1  0  0  0  0
 22 59  1  0  0  0  0
 23 24  2  6  0  0  0
 23 25  1  0  0  0  0
 23 36  1  0  0  0  0
 26 27  1  0  0  0  0
 26 34  1  0  0  0  0
 26 36  1  0  0  0  0
 26 60  1  6  0  0  0
 27 28  1  0  0  0  0
 27 61  1  0  0  0  0
 27 62  1  0  0  0  0
 28 29  2  0  0  0  0
 28 30  1  0  0  0  0
 29 31  1  0  0  0  0
 29 63  1  0  0  0  0
 30 32  2  0  0  0  0
 30 64  1  0  0  0  0
 31 33  2  0  0  0  0
 31 65  1  0  0  0  0
 32 33  1  0  0  0  0
 32 66  1  0  0  0  0
 33 67  1  0  0  0  0
 34 37  1  0  0  0  0
 34 38  2  0  0  0  0
 35 37  1  0  0  0  0
 35 68  1  0  0  0  0
 35 69  1  0  0  0  0
 35 70  1  0  0  0  0
M  END
$$$$
