PP6
 OpenBabel04051920003D

 71 74  0  0  1  0  0  0  0  0999 V2000
   18.5777    8.1511   19.6817 O   0  0  0  0  0  0  0  0  0  0  0  0
   21.0684    5.4785   19.1696 C   0  0  0  0  0  0  0  0  0  0  0  0
   20.9431    4.0877   19.1508 C   0  0  0  0  0  0  0  0  0  0  0  0
   22.0163    3.2611   19.4957 C   0  0  0  0  0  0  0  0  0  0  0  0
   23.2650    3.8087   19.7669 C   0  0  0  0  0  0  0  0  0  0  0  0
   23.4289    5.2030   19.7821 C   0  0  0  0  0  0  0  0  0  0  0  0
   22.3282    6.0465   19.4675 C   0  0  0  0  0  0  0  0  0  0  0  0
   22.5186    7.4368   19.5143 C   0  0  0  0  0  0  0  0  0  0  0  0
   23.7395    8.0086   19.8747 C   0  0  0  0  0  0  0  0  0  0  0  0
   24.8089    7.1763   20.1944 C   0  0  0  0  0  0  0  0  0  0  0  0
   24.6490    5.7922   20.1559 C   0  0  0  0  0  0  0  0  0  0  0  0
   19.8207    6.3049   18.9107 C   0  0  0  0  0  0  0  0  0  0  0  0
   19.4009    7.3413   19.9614 C   0  0  0  0  0  0  0  0  0  0  0  0
   23.8685    9.5046   19.9922 C   0  0  0  0  0  0  0  0  0  0  0  0
   23.3320    9.9818   21.3495 C   0  0  2  0  0  0  0  0  0  0  0  0
   19.9780    7.2653   21.2067 N   0  0  0  0  0  0  0  0  0  0  0  0
   19.9499    8.3422   22.1860 C   0  0  2  0  0  0  0  0  0  0  0  0
   21.4163    8.7324   22.3147 C   0  0  0  0  0  0  0  0  0  0  0  0
   22.1706    8.0363   22.9659 O   0  0  0  0  0  0  0  0  0  0  0  0
   19.3230    7.9205   23.5284 C   0  0  0  0  0  0  0  0  0  0  0  0
   19.1675    9.2996   24.1380 C   0  0  0  0  0  0  0  0  0  0  0  0
   17.9221    7.5097   23.0892 C   0  0  0  0  0  0  0  0  0  0  0  0
   21.9011    9.6673   21.4813 N   0  0  0  0  0  0  0  0  0  0  0  0
   23.5696   11.8161   21.4380 P   0  0  1  0  0  0  0  0  0  0  0  0
   25.0267   12.1256   21.2805 O   0  0  0  0  0  0  0  0  0  0  0  0
   22.5497   12.4476   20.5242 O   0  0  0  0  0  0  0  0  0  0  0  0
   24.0381   12.9457   23.7703 C   0  0  1  0  0  0  0  0  0  0  0  0
   23.2556   13.7784   24.8108 C   0  0  0  0  0  0  0  0  0  0  0  0
   21.9802   13.1515   25.3132 C   0  0  0  0  0  0  0  0  0  0  0  0
   20.9859   12.7647   24.4202 C   0  0  0  0  0  0  0  0  0  0  0  0
   21.7515   12.9826   26.6764 C   0  0  0  0  0  0  0  0  0  0  0  0
   19.8485   12.1329   24.8695 C   0  0  0  0  0  0  0  0  0  0  0  0
   20.5784   12.3867   27.1308 C   0  0  0  0  0  0  0  0  0  0  0  0
   19.6281   11.9577   26.2246 C   0  0  0  0  0  0  0  0  0  0  0  0
   24.8672   11.9212   24.5103 C   0  0  0  0  0  0  0  0  0  0  0  0
   27.0153   11.7681   25.4660 C   0  0  0  0  0  0  0  0  0  0  0  0
   23.1544   12.1713   22.9600 O   0  0  0  0  0  0  0  0  0  0  0  0
   25.8260   12.5188   25.2555 O   0  0  0  0  0  0  0  0  0  0  0  0
   24.6396   10.6843   24.5448 O   0  0  0  0  0  0  0  0  0  0  0  0
   19.9933    3.6359   18.8667 H   0  0  0  0  0  0  0  0  0  0  0  0
   21.8625    2.1853   19.5595 H   0  0  0  0  0  0  0  0  0  0  0  0
   24.1005    3.1261   19.9756 H   0  0  0  0  0  0  0  0  0  0  0  0
   21.6882    8.1175   19.3222 H   0  0  0  0  0  0  0  0  0  0  0  0
   25.7730    7.6034   20.4656 H   0  0  0  0  0  0  0  0  0  0  0  0
   25.4960    5.1767   20.4527 H   0  0  0  0  0  0  0  0  0  0  0  0
   18.9485    5.6448   18.7741 H   0  0  0  0  0  0  0  0  0  0  0  0
   19.9526    6.8635   17.9726 H   0  0  0  0  0  0  0  0  0  0  0  0
   23.3172    9.9838   19.1679 H   0  0  0  0  0  0  0  0  0  0  0  0
   24.9259    9.7835   19.8751 H   0  0  0  0  0  0  0  0  0  0  0  0
   23.9141    9.5024   22.1456 H   0  0  0  0  0  0  0  0  0  0  0  0
   20.6449    6.5491   21.4170 H   0  0  0  0  0  0  0  0  0  0  0  0
   19.3212    9.1756   21.8431 H   0  0  0  0  0  0  0  0  0  0  0  0
   19.8391    7.1863   24.2026 H   0  0  0  0  0  0  0  0  0  0  0  0
   18.7730    9.3238   25.1458 H   0  0  0  0  0  0  0  0  0  0  0  0
   18.4876    9.8736   23.4900 H   0  0  0  0  0  0  0  0  0  0  0  0
   20.1480    9.8073   24.1067 H   0  0  0  0  0  0  0  0  0  0  0  0
   17.9309    6.4945   22.6919 H   0  0  0  0  0  0  0  0  0  0  0  0
   17.6390    8.1832   22.2677 H   0  0  0  0  0  0  0  0  0  0  0  0
   17.1780    7.6275   23.8720 H   0  0  0  0  0  0  0  0  0  0  0  0
   21.2713   10.2852   20.9709 H   0  0  0  0  0  0  0  0  0  0  0  0
   24.6765   13.6385   23.1837 H   0  0  0  0  0  0  0  0  0  0  0  0
   22.9834   14.7526   24.3824 H   0  0  0  0  0  0  0  0  0  0  0  0
   23.8931   13.9767   25.6834 H   0  0  0  0  0  0  0  0  0  0  0  0
   21.0988   12.9594   23.3547 H   0  0  0  0  0  0  0  0  0  0  0  0
   22.4827   13.3343   27.3920 H   0  0  0  0  0  0  0  0  0  0  0  0
   19.1404   11.7498   24.1429 H   0  0  0  0  0  0  0  0  0  0  0  0
   20.4125   12.2473   28.1887 H   0  0  0  0  0  0  0  0  0  0  0  0
   18.7068   11.5008   26.5620 H   0  0  0  0  0  0  0  0  0  0  0  0
   27.6641   12.3487   26.1309 H   0  0  0  0  0  0  0  0  0  0  0  0
   27.5331   11.6412   24.5092 H   0  0  0  0  0  0  0  0  0  0  0  0
   26.8282   10.7929   25.9200 H   0  0  0  0  0  0  0  0  0  0  0  0
  1 13  2  0  0  0  0
  2  3  2  0  0  0  0
  2  7  1  0  0  0  0
  2 12  1  0  0  0  0
  3  4  1  0  0  0  0
  3 40  1  0  0  0  0
  4  5  2  0  0  0  0
  4 41  1  0  0  0  0
  5  6  1  0  0  0  0
  5 42  1  0  0  0  0
  6  7  2  0  0  0  0
  6 11  1  0  0  0  0
  7  8  1  0  0  0  0
  8  9  2  0  0  0  0
  8 43  1  0  0  0  0
  9 10  1  0  0  0  0
  9 14  1  0  0  0  0
 10 11  2  0  0  0  0
 10 44  1  0  0  0  0
 11 45  1  0  0  0  0
 12 13  1  0  0  0  0
 12 46  1  0  0  0  0
 12 47  1  0  0  0  0
 13 16  1  0  0  0  0
 14 15  1  0  0  0  0
 14 48  1  0  0  0  0
 14 49  1  0  0  0  0
 15 23  1  0  0  0  0
 15 24  1  0  0  0  0
 15 50  1  1  0  0  0
 16 17  1  0  0  0  0
 16 51  1  0  0  0  0
 17 18  1  0  0  0  0
 17 20  1  0  0  0  0
 17 52  1  6  0  0  0
 18 19  2  0  0  0  0
 18 23  1  0  0  0  0
 20 21  1  0  0  0  0
 20 22  1  0  0  0  0
 20 53  1  0  0  0  0
 21 54  1  0  0  0  0
 21 55  1  0  0  0  0
 21 56  1  0  0  0  0
 22 57  1  0  0  0  0
 22 58  1  0  0  0  0
 22 59  1  0  0  0  0
 23 60  1  0  0  0  0
 24 25  2  6  0  0  0
 24 26  1  0  0  0  0
 24 37  1  0  0  0  0
 27 28  1  0  0  0  0
 27 35  1  0  0  0  0
 27 37  1  0  0  0  0
 27 61  1  6  0  0  0
 28 29  1  0  0  0  0
 28 62  1  0  0  0  0
 28 63  1  0  0  0  0
 29 30  2  0  0  0  0
 29 31  1  0  0  0  0
 30 32  1  0  0  0  0
 30 64  1  0  0  0  0
 31 33  2  0  0  0  0
 31 65  1  0  0  0  0
 32 34  2  0  0  0  0
 32 66  1  0  0  0  0
 33 34  1  0  0  0  0
 33 67  1  0  0  0  0
 34 68  1  0  0  0  0
 35 38  1  0  0  0  0
 35 39  2  0  0  0  0
 36 38  1  0  0  0  0
 36 69  1  0  0  0  0
 36 70  1  0  0  0  0
 36 71  1  0  0  0  0
M  END
$$$$
