PPF
 OpenBabel04051919243D

  7  6  0  0  0  0  0  0  0  0999 V2000
   23.4646    3.2289    5.0273 C   0  0  0  0  0  0  0  0  0  0  0  0
   22.0501    2.7597    2.5450 O   0  0  0  0  0  0  0  0  0  0  0  0
   20.6147    3.0562    4.6846 O   0  0  0  0  0  0  0  0  0  0  0  0
   21.9419    0.8505    4.3171 O   0  0  0  0  0  0  0  0  0  0  0  0
   24.0828    2.5287    5.9281 O   0  0  0  0  0  0  0  0  0  0  0  0
   23.8055    4.4435    4.7216 O   0  0  0  0  0  0  0  0  0  0  0  0
   21.7884    2.3418    3.9980 P   0  0  0  0  0  0  0  0  0  0  0  0
  1  5  2  0  0  0  0
  1  6  1  0  0  0  0
  1  7  1  0  0  0  0
  2  7  2  0  0  0  0
  3  7  1  0  0  0  0
  4  7  1  0  0  0  0
M  END
$$$$
