PQA
 OpenBabel04051917253D

 50 53  0  0  0  0  0  0  0  0999 V2000
   -3.4754   -1.8559   19.8023 N   0  0  0  0  0  0  0  0  0  0  0  0
   -3.2111   -0.7636   20.5389 C   0  0  0  0  0  0  0  0  0  0  0  0
   -2.7428   -0.6872   21.8274 C   0  0  0  0  0  0  0  0  0  0  0  0
   -2.6433    0.6872   22.0812 C   0  0  0  0  0  0  0  0  0  0  0  0
   -2.9923    1.4493   21.0331 N   0  0  0  0  0  0  0  0  0  0  0  0
   -3.3042    0.5475   20.0627 N   0  3  0  0  0  0  0  0  0  0  0  0
   -3.8842    0.9485   18.8375 C   0  0  0  0  0  0  0  0  0  0  0  0
   -3.1321    1.5594   17.8195 C   0  0  0  0  0  0  0  0  0  0  0  0
   -3.7836    1.9170   16.6170 C   0  0  0  0  0  0  0  0  0  0  0  0
   -5.1453    1.6719   16.4645 C   0  0  0  0  0  0  0  0  0  0  0  0
   -5.7636    2.0281   15.3275 F   0  0  0  0  0  0  0  0  0  0  0  0
   -5.8841    1.0605   17.4676 C   0  0  0  0  0  0  0  0  0  0  0  0
   -5.2389    0.6986   18.6514 C   0  0  0  0  0  0  0  0  0  0  0  0
   -2.4690   -1.8378   22.6736 C   0  0  0  0  0  0  0  0  0  0  0  0
   -2.8545   -2.9663   22.3573 O   0  0  0  0  0  0  0  0  0  0  0  0
   -1.7444   -1.6972   23.9499 C   0  0  0  0  0  0  0  0  0  0  0  0
   -0.6287   -0.8591   24.0698 C   0  0  0  0  0  0  0  0  0  0  0  0
    0.0378   -0.7520   25.2895 C   0  0  0  0  0  0  0  0  0  0  0  0
   -0.3966   -1.4947   26.3865 C   0  0  0  0  0  0  0  0  0  0  0  0
   -1.5107   -2.3269   26.2765 C   0  0  0  0  0  0  0  0  0  0  0  0
   -1.8640   -3.0156   27.4127 O   0  0  0  0  0  0  0  0  0  0  0  0
   -3.2345   -2.7984   27.7949 C   0  0  0  0  0  0  0  0  0  0  0  0
   -3.7679   -4.1082   28.3547 C   0  0  0  0  0  0  0  0  0  0  0  0
   -3.2552   -4.4526   29.7460 C   0  0  0  0  0  0  0  0  0  0  0  0
   -2.3042   -3.4394   30.2631 N   0  3  0  0  0  0  0  0  0  0  0  0
   -2.7815   -2.0415   30.2122 C   0  0  0  0  0  0  0  0  0  0  0  0
   -3.2895   -1.6756   28.8264 C   0  0  0  0  0  0  0  0  0  0  0  0
   -2.1737   -2.4541   25.0569 C   0  0  0  0  0  0  0  0  0  0  0  0
   -3.3543   -2.7987   20.2017 H   0  0  0  0  0  0  0  0  0  0  0  0
   -3.7960   -1.8169   18.8367 H   0  0  0  0  0  0  0  0  0  0  0  0
   -2.3189    1.1591   23.0002 H   0  0  0  0  0  0  0  0  0  0  0  0
   -2.0673    1.7434   17.9111 H   0  0  0  0  0  0  0  0  0  0  0  0
   -3.2360    2.3894   15.8094 H   0  0  0  0  0  0  0  0  0  0  0  0
   -6.9400    0.8692   17.3379 H   0  0  0  0  0  0  0  0  0  0  0  0
   -5.8225    0.2344   19.4474 H   0  0  0  0  0  0  0  0  0  0  0  0
   -0.2655   -0.2907   23.2128 H   0  0  0  0  0  0  0  0  0  0  0  0
    0.9004   -0.0944   25.3912 H   0  0  0  0  0  0  0  0  0  0  0  0
    0.1223   -1.4080   27.3360 H   0  0  0  0  0  0  0  0  0  0  0  0
   -3.8490   -2.5154   26.9337 H   0  0  0  0  0  0  0  0  0  0  0  0
   -3.4971   -4.9322   27.6838 H   0  0  0  0  0  0  0  0  0  0  0  0
   -4.8623   -4.0696   28.4018 H   0  0  0  0  0  0  0  0  0  0  0  0
   -2.7316   -5.4112   29.7384 H   0  0  0  0  0  0  0  0  0  0  0  0
   -4.0855   -4.4981   30.4601 H   0  0  0  0  0  0  0  0  0  0  0  0
   -2.0642   -3.6754   31.2416 H   0  0  0  0  0  0  0  0  0  0  0  0
   -1.9463   -1.3989   30.5051 H   0  0  0  0  0  0  0  0  0  0  0  0
   -3.5812   -1.9490   30.9569 H   0  0  0  0  0  0  0  0  0  0  0  0
   -4.3235   -1.3345   28.9345 H   0  0  0  0  0  0  0  0  0  0  0  0
   -2.6949   -0.8290   28.4709 H   0  0  0  0  0  0  0  0  0  0  0  0
   -3.0289   -3.1167   24.9513 H   0  0  0  0  0  0  0  0  0  0  0  0
   -1.4241   -3.5078   29.7280 H   0  0  0  0  0  0  0  0  0  0  0  0
  1  2  1  0  0  0  0
  1 29  1  0  0  0  0
  1 30  1  0  0  0  0
  2  3  1  0  0  0  0
  2  6  2  0  0  0  0
  3  4  2  0  0  0  0
  3 14  1  0  0  0  0
  4  5  1  0  0  0  0
  4 31  1  0  0  0  0
  5  6  1  0  0  0  0
  6  7  1  0  0  0  0
  7  8  2  0  0  0  0
  7 13  1  0  0  0  0
  8  9  1  0  0  0  0
  8 32  1  0  0  0  0
  9 10  2  0  0  0  0
  9 33  1  0  0  0  0
 10 11  1  0  0  0  0
 10 12  1  0  0  0  0
 12 13  2  0  0  0  0
 12 34  1  0  0  0  0
 13 35  1  0  0  0  0
 14 15  2  0  0  0  0
 14 16  1  0  0  0  0
 16 17  2  0  0  0  0
 16 28  1  0  0  0  0
 17 18  1  0  0  0  0
 17 36  1  0  0  0  0
 18 19  2  0  0  0  0
 18 37  1  0  0  0  0
 19 20  1  0  0  0  0
 19 38  1  0  0  0  0
 20 21  1  0  0  0  0
 20 28  2  0  0  0  0
 21 22  1  0  0  0  0
 22 23  1  0  0  0  0
 22 27  1  0  0  0  0
 22 39  1  0  0  0  0
 23 24  1  0  0  0  0
 23 40  1  0  0  0  0
 23 41  1  0  0  0  0
 24 25  1  0  0  0  0
 24 42  1  0  0  0  0
 24 43  1  0  0  0  0
 25 26  1  0  0  0  0
 25 44  1  0  0  0  0
 25 50  1  0  0  0  0
 26 27  1  0  0  0  0
 26 45  1  0  0  0  0
 26 46  1  0  0  0  0
 27 47  1  0  0  0  0
 27 48  1  0  0  0  0
 28 49  1  0  0  0  0
M  CHG  2   6   1  25   1
M  END
$$$$
