PRL
 OpenBabel04051919333D

 27 29  0  0  0  0  0  0  0  0999 V2000
    5.7122   -3.8283    4.7024 C   0  0  0  0  0  0  0  0  0  0  0  0
    6.4370   -3.0236    3.8273 C   0  0  0  0  0  0  0  0  0  0  0  0
    7.8234   -2.9433    3.9326 C   0  0  0  0  0  0  0  0  0  0  0  0
    8.4740   -3.6921    4.9164 C   0  0  0  0  0  0  0  0  0  0  0  0
    8.4829   -6.6910    8.5702 C   0  0  0  0  0  0  0  0  0  0  0  0
    7.8283   -7.5173    9.4855 C   0  0  0  0  0  0  0  0  0  0  0  0
    6.4404   -7.6297    9.4201 C   0  0  0  0  0  0  0  0  0  0  0  0
    5.7209   -6.9264    8.4599 C   0  0  0  0  0  0  0  0  0  0  0  0
    5.6895   -5.3815    6.5831 C   0  0  0  0  0  0  0  0  0  0  0  0
    8.4663   -5.1916    6.7387 N   0  0  0  0  0  0  0  0  0  0  0  0
    7.7828   -4.5012    5.8060 C   0  0  0  0  0  0  0  0  0  0  0  0
    6.3906   -6.1007    7.5526 C   0  0  0  0  0  0  0  0  0  0  0  0
    6.3820   -4.5658    5.6900 C   0  0  0  0  0  0  0  0  0  0  0  0
    7.7933   -5.9744    7.5977 C   0  0  0  0  0  0  0  0  0  0  0  0
    8.5492   -2.1717    3.0457 N   0  0  0  0  0  0  0  0  0  0  0  0
    8.5312   -8.2278   10.4421 N   0  0  0  0  0  0  0  0  0  0  0  0
    4.6302   -3.8773    4.6083 H   0  0  0  0  0  0  0  0  0  0  0  0
    5.9118   -2.4586    3.0625 H   0  0  0  0  0  0  0  0  0  0  0  0
    9.5566   -3.6487    5.0030 H   0  0  0  0  0  0  0  0  0  0  0  0
    9.5645   -6.5933    8.6048 H   0  0  0  0  0  0  0  0  0  0  0  0
    5.9095   -8.2668   10.1181 H   0  0  0  0  0  0  0  0  0  0  0  0
    4.6401   -7.0282    8.4282 H   0  0  0  0  0  0  0  0  0  0  0  0
    4.6066   -5.4573    6.5263 H   0  0  0  0  0  0  0  0  0  0  0  0
    8.0796   -1.5960    2.3611 H   0  0  0  0  0  0  0  0  0  0  0  0
    9.5521   -2.0894    3.1458 H   0  0  0  0  0  0  0  0  0  0  0  0
    9.5358   -8.1438   10.5127 H   0  0  0  0  0  0  0  0  0  0  0  0
    8.0435   -8.8160   11.1016 H   0  0  0  0  0  0  0  0  0  0  0  0
  1  2  2  0  0  0  0
  1 13  1  0  0  0  0
  1 17  1  0  0  0  0
  2  3  1  0  0  0  0
  2 18  1  0  0  0  0
  3  4  2  0  0  0  0
  3 15  1  0  0  0  0
  4 11  1  0  0  0  0
  4 19  1  0  0  0  0
  5  6  2  0  0  0  0
  5 14  1  0  0  0  0
  5 20  1  0  0  0  0
  6  7  1  0  0  0  0
  6 16  1  0  0  0  0
  7  8  2  0  0  0  0
  7 21  1  0  0  0  0
  8 12  1  0  0  0  0
  8 22  1  0  0  0  0
  9 12  2  0  0  0  0
  9 13  1  0  0  0  0
  9 23  1  0  0  0  0
 10 11  1  0  0  0  0
 10 14  2  0  0  0  0
 11 13  2  0  0  0  0
 12 14  1  0  0  0  0
 15 24  1  0  0  0  0
 15 25  1  0  0  0  0
 16 26  1  0  0  0  0
 16 27  1  0  0  0  0
M  END
$$$$
