PRZ
 OpenBabel04051918303D

 26 26  0  0  0  0  0  0  0  0999 V2000
   50.1773   22.7475   42.6716 N   0  0  0  0  0  0  0  0  0  0  0  0
   50.2339   23.4222   41.4903 C   0  0  0  0  0  0  0  0  0  0  0  0
   51.4123   23.4853   40.7344 C   0  0  0  0  0  0  0  0  0  0  0  0
   52.5560   22.8662   41.1244 N   0  0  0  0  0  0  0  0  0  0  0  0
   52.4740   22.1888   42.2927 C   0  0  0  0  0  0  0  0  0  0  0  0
   51.3172   22.1336   43.0519 C   0  0  0  0  0  0  0  0  0  0  0  0
   48.9462   24.0331   41.0031 C   0  0  0  0  0  0  0  0  0  0  0  0
   48.8603   25.5655   41.1179 C   0  0  0  0  0  0  0  0  0  0  0  0
   48.6736   26.0212   42.5670 C   0  0  0  0  0  0  0  0  0  0  0  0
   47.6838   26.0581   40.2706 C   0  0  0  0  0  0  0  0  0  0  0  0
   51.3816   24.1830   39.5457 O   0  0  0  0  0  0  0  0  0  0  0  0
   52.6063   24.1731   38.8185 C   0  0  0  0  0  0  0  0  0  0  0  0
   53.3768   21.6778   42.6126 H   0  0  0  0  0  0  0  0  0  0  0  0
   51.2711   21.5855   43.9869 H   0  0  0  0  0  0  0  0  0  0  0  0
   48.1125   23.5827   41.5572 H   0  0  0  0  0  0  0  0  0  0  0  0
   48.8048   23.7228   39.9601 H   0  0  0  0  0  0  0  0  0  0  0  0
   49.7766   26.0269   40.7287 H   0  0  0  0  0  0  0  0  0  0  0  0
   48.6125   27.1139   42.6231 H   0  0  0  0  0  0  0  0  0  0  0  0
   49.5090   25.7029   43.1977 H   0  0  0  0  0  0  0  0  0  0  0  0
   47.7500   25.6143   42.9936 H   0  0  0  0  0  0  0  0  0  0  0  0
   47.8078   25.7584   39.2243 H   0  0  0  0  0  0  0  0  0  0  0  0
   47.6058   27.1493   40.2994 H   0  0  0  0  0  0  0  0  0  0  0  0
   46.7379   25.6384   40.6308 H   0  0  0  0  0  0  0  0  0  0  0  0
   52.4616   24.7899   37.9280 H   0  0  0  0  0  0  0  0  0  0  0  0
   52.8581   23.1621   38.4837 H   0  0  0  0  0  0  0  0  0  0  0  0
   53.4258   24.6158   39.3957 H   0  0  0  0  0  0  0  0  0  0  0  0
  1  2  2  0  0  0  0
  1  6  1  0  0  0  0
  2  3  1  0  0  0  0
  2  7  1  0  0  0  0
  3  4  2  0  0  0  0
  3 11  1  0  0  0  0
  4  5  1  0  0  0  0
  5  6  2  0  0  0  0
  5 13  1  0  0  0  0
  6 14  1  0  0  0  0
  7  8  1  0  0  0  0
  7 15  1  0  0  0  0
  7 16  1  0  0  0  0
  8  9  1  0  0  0  0
  8 10  1  0  0  0  0
  8 17  1  0  0  0  0
  9 18  1  0  0  0  0
  9 19  1  0  0  0  0
  9 20  1  0  0  0  0
 10 21  1  0  0  0  0
 10 22  1  0  0  0  0
 10 23  1  0  0  0  0
 11 12  1  0  0  0  0
 12 24  1  0  0  0  0
 12 25  1  0  0  0  0
 12 26  1  0  0  0  0
M  END
$$$$
