PYR
 OpenBabel04051918123D

  9  8  0  0  0  0  0  0  0  0999 V2000
   63.1072   76.2823   27.3434 C   0  0  0  0  0  0  0  0  0  0  0  0
   63.7206   75.1951   27.5978 O   0  0  0  0  0  0  0  0  0  0  0  0
   63.6135   77.4482   27.2926 O   0  0  0  0  0  0  0  0  0  0  0  0
   61.6025   76.1350   27.0884 C   0  0  0  0  0  0  0  0  0  0  0  0
   60.9744   77.1143   26.6850 O   0  0  0  0  0  0  0  0  0  0  0  0
   60.9531   74.8073   27.3372 C   0  0  0  0  0  0  0  0  0  0  0  0
   59.8858   74.8864   27.1140 H   0  0  0  0  0  0  0  0  0  0  0  0
   61.0678   74.5262   28.3881 H   0  0  0  0  0  0  0  0  0  0  0  0
   61.3888   74.0450   26.6885 H   0  0  0  0  0  0  0  0  0  0  0  0
  1  2  2  0  0  0  0
  1  3  1  0  0  0  0
  1  4  1  0  0  0  0
  4  5  2  0  0  0  0
  4  6  1  0  0  0  0
  6  7  1  0  0  0  0
  6  8  1  0  0  0  0
  6  9  1  0  0  0  0
M  END
$$$$
