QFI
 OpenBabel04051918133D

 84 87  0  0  1  0  0  0  0  0999 V2000
   11.8777   18.2268   18.3235 C   0  0  1  0  0  0  0  0  0  0  0  0
   10.7889   18.4881   20.4363 O   0  0  0  0  0  0  0  0  0  0  0  0
   12.7747   19.0571   19.2194 C   0  0  1  0  0  0  0  0  0  0  0  0
   12.7576   20.4423   18.8592 O   0  0  0  0  0  0  0  0  0  0  0  0
   13.8385   20.9048   18.2010 C   0  0  0  0  0  0  0  0  0  0  0  0
   13.5943   22.2012   17.9052 N   0  0  0  0  0  0  0  0  0  0  0  0
   14.5110   23.0517   17.1652 C   0  0  2  0  0  0  0  0  0  0  0  0
   14.8102   24.2544   18.0662 C   0  0  1  0  0  0  0  0  0  0  0  0
   15.9727   25.1287   17.5582 C   0  0  0  0  0  0  0  0  0  0  0  0
   17.2764   24.4181   17.5234 N   0  0  0  0  0  0  0  0  0  0  0  0
   18.2580   24.9359   18.5141 C   0  0  0  0  0  0  0  0  0  0  0  0
   18.3022   24.2012   19.8603 C   0  0  0  0  0  0  0  0  0  0  0  0
   17.4535   22.9481   19.9574 C   0  0  0  0  0  0  0  0  0  0  0  0
   19.7495   23.7951   20.1493 C   0  0  0  0  0  0  0  0  0  0  0  0
   17.9362   24.0681   15.9599 S   0  0  0  0  0  0  0  0  0  0  0  0
   18.8035   25.5736   15.5405 C   0  0  0  0  0  0  0  0  0  0  0  0
   18.1597   26.6301   14.9040 C   0  0  0  0  0  0  0  0  0  0  0  0
   18.9044   27.7887   14.5837 C   0  0  0  0  0  0  0  0  0  0  0  0
   20.2680   27.8615   14.9135 C   0  0  0  0  0  0  0  0  0  0  0  0
   20.9029   29.0382   14.5849 O   0  0  0  0  0  0  0  0  0  0  0  0
   22.2769   29.1185   14.9684 C   0  0  0  0  0  0  0  0  0  0  0  0
   20.8891   26.7890   15.5291 C   0  0  0  0  0  0  0  0  0  0  0  0
   20.1692   25.6345   15.8278 C   0  0  0  0  0  0  0  0  0  0  0  0
   16.8691   23.9242   15.0022 O   0  0  0  0  0  0  0  0  0  0  0  0
   18.9377   23.0451   16.1279 O   0  0  0  0  0  0  0  0  0  0  0  0
   13.6334   25.0833   18.2070 O   0  0  0  0  0  0  0  0  0  0  0  0
   13.8934   23.5145   15.8365 C   0  0  0  0  0  0  0  0  0  0  0  0
   13.3217   22.4042   15.0068 C   0  0  0  0  0  0  0  0  0  0  0  0
   14.1489   21.5308   14.2937 C   0  0  0  0  0  0  0  0  0  0  0  0
   13.5957   20.4918   13.5473 C   0  0  0  0  0  0  0  0  0  0  0  0
   12.2106   20.3145   13.5189 C   0  0  0  0  0  0  0  0  0  0  0  0
   11.6228   19.3489   12.7529 O   0  0  0  0  0  0  0  0  0  0  0  0
   11.9165   18.0288   13.2477 C   0  0  0  0  0  0  0  0  0  0  0  0
   10.9811   16.7119   12.2275 P   0  0  0  0  0  0  0  0  0  0  0  0
    9.5107   17.0855   12.3964 O   0  0  0  0  0  0  0  0  0  0  0  0
   11.3823   15.4189   12.9409 O   0  0  0  0  0  0  0  0  0  0  0  0
   11.5487   16.8575   10.8185 O   0  0  0  0  0  0  0  0  0  0  0  0
   11.3812   21.1948   14.2136 C   0  0  0  0  0  0  0  0  0  0  0  0
   11.9310   22.2243   14.9650 C   0  0  0  0  0  0  0  0  0  0  0  0
   14.8578   20.2847   17.9637 O   0  0  0  0  0  0  0  0  0  0  0  0
   12.1270   18.9682   20.5880 C   0  0  0  0  0  0  0  0  0  0  0  0
   10.5555   18.2169   19.0558 C   0  0  1  0  0  0  0  0  0  0  0  0
    9.7521   19.2274   18.4487 O   0  0  0  0  0  0  0  0  0  0  0  0
   10.0883   19.2069   17.0525 C   0  0  0  0  0  0  0  0  0  0  0  0
   11.5495   18.8172   16.9723 C   0  0  0  0  0  0  0  0  0  0  0  0
   12.2771   17.2088   18.2451 H   0  0  0  0  0  0  0  0  0  0  0  0
   13.7986   18.6667   19.2540 H   0  0  0  0  0  0  0  0  0  0  0  0
   12.6772   22.5542   18.1421 H   0  0  0  0  0  0  0  0  0  0  0  0
   15.4232   22.4718   16.9817 H   0  0  0  0  0  0  0  0  0  0  0  0
   14.9808   23.9082   19.0765 H   0  0  0  0  0  0  0  0  0  0  0  0
   16.0376   25.9977   18.2213 H   0  0  0  0  0  0  0  0  0  0  0  0
   15.7242   25.5511   16.5845 H   0  0  0  0  0  0  0  0  0  0  0  0
   18.0622   26.0025   18.6850 H   0  0  0  0  0  0  0  0  0  0  0  0
   19.2625   24.9172   18.0928 H   0  0  0  0  0  0  0  0  0  0  0  0
   17.9843   24.9071   20.6389 H   0  0  0  0  0  0  0  0  0  0  0  0
   17.5424   22.4751   20.9422 H   0  0  0  0  0  0  0  0  0  0  0  0
   17.7236   22.2195   19.1863 H   0  0  0  0  0  0  0  0  0  0  0  0
   16.4071   23.1794   19.8595 H   0  0  0  0  0  0  0  0  0  0  0  0
   20.4166   24.6629   20.1349 H   0  0  0  0  0  0  0  0  0  0  0  0
   20.0966   23.0854   19.3888 H   0  0  0  0  0  0  0  0  0  0  0  0
   19.8318   23.3131   21.1276 H   0  0  0  0  0  0  0  0  0  0  0  0
   17.1069   26.5749   14.6425 H   0  0  0  0  0  0  0  0  0  0  0  0
   18.4120   28.6102   14.0831 H   0  0  0  0  0  0  0  0  0  0  0  0
   22.6802   30.0793   14.6302 H   0  0  0  0  0  0  0  0  0  0  0  0
   22.8752   28.3306   14.4943 H   0  0  0  0  0  0  0  0  0  0  0  0
   22.3707   29.0822   16.0570 H   0  0  0  0  0  0  0  0  0  0  0  0
   21.9395   26.7984   15.8046 H   0  0  0  0  0  0  0  0  0  0  0  0
   20.6782   24.8086   16.3083 H   0  0  0  0  0  0  0  0  0  0  0  0
   13.8129   25.7251   18.9142 H   0  0  0  0  0  0  0  0  0  0  0  0
   14.6223   24.0543   15.2332 H   0  0  0  0  0  0  0  0  0  0  0  0
   13.1063   24.2554   16.0236 H   0  0  0  0  0  0  0  0  0  0  0  0
   15.2320   21.6548   14.3128 H   0  0  0  0  0  0  0  0  0  0  0  0
   14.2327   19.8245   12.9745 H   0  0  0  0  0  0  0  0  0  0  0  0
   11.5266   17.9091   14.2556 H   0  0  0  0  0  0  0  0  0  0  0  0
   12.9833   17.7887   13.1985 H   0  0  0  0  0  0  0  0  0  0  0  0
   10.3057   21.0464   14.1775 H   0  0  0  0  0  0  0  0  0  0  0  0
   11.2761   22.8817   15.5321 H   0  0  0  0  0  0  0  0  0  0  0  0
   12.6616   18.2709   21.2390 H   0  0  0  0  0  0  0  0  0  0  0  0
   12.0882   19.9430   21.0881 H   0  0  0  0  0  0  0  0  0  0  0  0
   10.0342   17.2575   18.9646 H   0  0  0  0  0  0  0  0  0  0  0  0
    9.8879   20.1920   16.6227 H   0  0  0  0  0  0  0  0  0  0  0  0
    9.4554   18.4708   16.5452 H   0  0  0  0  0  0  0  0  0  0  0  0
   11.7303   18.0883   16.1877 H   0  0  0  0  0  0  0  0  0  0  0  0
   12.1558   19.6853   16.7116 H   0  0  0  0  0  0  0  0  0  0  0  0
  1  3  1  0  0  0  0
  1 42  1  0  0  0  0
  1 45  1  0  0  0  0
  1 46  1  6  0  0  0
  2 41  1  0  0  0  0
  2 42  1  0  0  0  0
  3  4  1  0  0  0  0
  3 41  1  0  0  0  0
  3 47  1  1  0  0  0
  4  5  1  0  0  0  0
  5  6  1  0  0  0  0
  5 40  2  0  0  0  0
  6  7  1  0  0  0  0
  6 48  1  0  0  0  0
  7  8  1  0  0  0  0
  7 27  1  0  0  0  0
  7 49  1  6  0  0  0
  8  9  1  0  0  0  0
  8 26  1  0  0  0  0
  8 50  1  1  0  0  0
  9 10  1  0  0  0  0
  9 51  1  0  0  0  0
  9 52  1  0  0  0  0
 10 11  1  0  0  0  0
 10 15  1  0  0  0  0
 11 12  1  0  0  0  0
 11 53  1  0  0  0  0
 11 54  1  0  0  0  0
 12 13  1  0  0  0  0
 12 14  1  0  0  0  0
 12 55  1  0  0  0  0
 13 56  1  0  0  0  0
 13 57  1  0  0  0  0
 13 58  1  0  0  0  0
 14 59  1  0  0  0  0
 14 60  1  0  0  0  0
 14 61  1  0  0  0  0
 15 16  1  0  0  0  0
 15 24  2  0  0  0  0
 15 25  2  0  0  0  0
 16 17  2  0  0  0  0
 16 23  1  0  0  0  0
 17 18  1  0  0  0  0
 17 62  1  0  0  0  0
 18 19  2  0  0  0  0
 18 63  1  0  0  0  0
 19 20  1  0  0  0  0
 19 22  1  0  0  0  0
 20 21  1  0  0  0  0
 21 64  1  0  0  0  0
 21 65  1  0  0  0  0
 21 66  1  0  0  0  0
 22 23  2  0  0  0  0
 22 67  1  0  0  0  0
 23 68  1  0  0  0  0
 26 69  1  0  0  0  0
 27 28  1  0  0  0  0
 27 70  1  0  0  0  0
 27 71  1  0  0  0  0
 28 29  2  0  0  0  0
 28 39  1  0  0  0  0
 29 30  1  0  0  0  0
 29 72  1  0  0  0  0
 30 31  2  0  0  0  0
 30 73  1  0  0  0  0
 31 32  1  0  0  0  0
 31 38  1  0  0  0  0
 32 33  1  0  0  0  0
 33 34  1  0  0  0  0
 33 74  1  0  0  0  0
 33 75  1  0  0  0  0
 34 35  2  0  0  0  0
 34 36  1  0  0  0  0
 34 37  1  0  0  0  0
 38 39  2  0  0  0  0
 38 76  1  0  0  0  0
 39 77  1  0  0  0  0
 41 78  1  0  0  0  0
 41 79  1  0  0  0  0
 42 43  1  0  0  0  0
 42 80  1  6  0  0  0
 43 44  1  0  0  0  0
 44 45  1  0  0  0  0
 44 81  1  0  0  0  0
 44 82  1  0  0  0  0
 45 83  1  0  0  0  0
 45 84  1  0  0  0  0
M  END
$$$$
