QGG
 OpenBabel04051919443D

 42 44  0  0  1  0  0  0  0  0999 V2000
  -40.9323  177.4850   70.1490 N   0  0  0  0  0  0  0  0  0  0  0  0
  -40.7900  176.3530   69.4695 C   0  0  0  0  0  0  0  0  0  0  0  0
  -40.2464  175.2460   69.9807 N   0  0  0  0  0  0  0  0  0  0  0  0
  -39.7971  175.1060   71.3092 C   0  0  0  0  0  0  0  0  0  0  0  0
  -40.2246  176.0247   72.2014 N   0  0  0  0  0  0  0  0  0  0  0  0
  -39.8393  175.8379   73.4884 C   0  0  0  0  0  0  0  0  0  0  0  0
  -39.0191  174.8095   73.9250 C   0  0  0  0  0  0  0  0  0  0  0  0
  -38.5982  174.7447   75.5967 Cl  0  0  0  0  0  0  0  0  0  0  0  0
  -38.5589  173.8744   72.9841 C   0  0  0  0  0  0  0  0  0  0  0  0
  -37.7142  172.8033   73.3372 C   0  0  0  0  0  0  0  0  0  0  0  0
  -37.2689  171.8963   72.3878 C   0  0  0  0  0  0  0  0  0  0  0  0
  -37.6612  172.0391   71.0650 C   0  0  0  0  0  0  0  0  0  0  0  0
  -38.4846  173.0920   70.6725 C   0  0  0  0  0  0  0  0  0  0  0  0
  -38.9597  174.0154   71.6306 C   0  0  0  0  0  0  0  0  0  0  0  0
  -36.9807  170.9130   69.8470 S   0  0  0  0  0  0  0  0  0  0  0  0
  -37.3414  171.5003   68.5839 O   0  0  0  0  0  0  0  0  0  0  0  0
  -35.6005  170.7569   70.2701 O   0  0  0  0  0  0  0  0  0  0  0  0
  -37.8756  169.5681   70.1984 N   0  0  0  0  0  0  0  0  0  0  0  0
  -37.4899  168.4780   71.0781 C   0  0  0  0  0  0  0  0  0  0  0  0
  -38.8341  167.8782   71.4776 C   0  0  0  0  0  0  0  0  0  0  0  0
  -39.7060  168.0336   70.2362 C   0  0  0  0  0  0  0  0  0  0  0  0
  -39.1299  169.2411   69.4854 C   0  0  2  0  0  0  0  0  0  0  0  0
  -38.9419  168.8488   67.9929 C   0  0  0  0  0  0  0  0  0  0  0  0
  -37.8946  168.2042   67.7167 O   0  0  0  0  0  0  0  0  0  0  0  0
  -39.9043  169.2127   67.2572 O   0  0  0  0  0  0  0  0  0  0  0  0
  -41.1858  176.3050   68.1895 N   0  0  0  0  0  0  0  0  0  0  0  0
  -41.3376  178.3252   69.7678 H   0  0  0  0  0  0  0  0  0  0  0  0
  -40.1344  174.4648   69.3545 H   0  0  0  0  0  0  0  0  0  0  0  0
  -40.2228  176.5679   74.1990 H   0  0  0  0  0  0  0  0  0  0  0  0
  -37.3765  172.6553   74.3610 H   0  0  0  0  0  0  0  0  0  0  0  0
  -36.6007  171.0907   72.6748 H   0  0  0  0  0  0  0  0  0  0  0  0
  -38.7192  173.1809   69.6150 H   0  0  0  0  0  0  0  0  0  0  0  0
  -36.9387  168.8223   71.9562 H   0  0  0  0  0  0  0  0  0  0  0  0
  -36.8875  167.7409   70.5378 H   0  0  0  0  0  0  0  0  0  0  0  0
  -39.2708  168.4454   72.3089 H   0  0  0  0  0  0  0  0  0  0  0  0
  -38.7502  166.8346   71.7954 H   0  0  0  0  0  0  0  0  0  0  0  0
  -40.7527  168.2096   70.5148 H   0  0  0  0  0  0  0  0  0  0  0  0
  -39.6951  167.1138   69.6397 H   0  0  0  0  0  0  0  0  0  0  0  0
  -39.8144  170.0916   69.5726 H   0  0  0  0  0  0  0  0  0  0  0  0
  -41.6285  177.0940   67.7408 H   0  0  0  0  0  0  0  0  0  0  0  0
  -41.0877  175.4584   67.6455 H   0  0  0  0  0  0  0  0  0  0  0  0
  -40.6515  177.4755   71.1326 H   0  0  0  0  0  0  0  0  0  0  0  0
  1  2  2  0  0  0  0
  1 27  1  0  0  0  0
  1 42  1  0  0  0  0
  2  3  1  0  0  0  0
  2 26  1  0  0  0  0
  3  4  1  0  0  0  0
  3 28  1  0  0  0  0
  4  5  2  0  0  0  0
  4 14  1  0  0  0  0
  5  6  1  0  0  0  0
  6  7  2  0  0  0  0
  6 29  1  0  0  0  0
  7  8  1  0  0  0  0
  7  9  1  0  0  0  0
  9 10  2  0  0  0  0
  9 14  1  0  0  0  0
 10 11  1  0  0  0  0
 10 30  1  0  0  0  0
 11 12  2  0  0  0  0
 11 31  1  0  0  0  0
 12 13  1  0  0  0  0
 12 15  1  0  0  0  0
 13 14  2  0  0  0  0
 13 32  1  0  0  0  0
 15 16  2  0  0  0  0
 15 17  2  0  0  0  0
 15 18  1  0  0  0  0
 18 19  1  0  0  0  0
 18 22  1  0  0  0  0
 19 20  1  0  0  0  0
 19 33  1  0  0  0  0
 19 34  1  0  0  0  0
 20 21  1  0  0  0  0
 20 35  1  0  0  0  0
 20 36  1  0  0  0  0
 21 22  1  0  0  0  0
 21 37  1  0  0  0  0
 21 38  1  0  0  0  0
 22 23  1  0  0  0  0
 22 39  1  1  0  0  0
 23 24  2  0  0  0  0
 23 25  1  0  0  0  0
 26 40  1  0  0  0  0
 26 41  1  0  0  0  0
M  END
$$$$
