QN3
 OpenBabel04051919063D

 71 75  0  0  1  0  0  0  0  0999 V2000
  -14.7383   23.2202   -1.7815 C   0  0  0  0  0  0  0  0  0  0  0  0
  -13.6617   23.6779   -2.5523 C   0  0  0  0  0  0  0  0  0  0  0  0
  -13.7705   23.6771   -3.9544 C   0  0  0  0  0  0  0  0  0  0  0  0
  -14.9532   23.2315   -4.5973 C   0  0  0  0  0  0  0  0  0  0  0  0
  -16.0265   22.7633   -3.8257 C   0  0  0  0  0  0  0  0  0  0  0  0
  -17.5987   22.1471   -4.4508 S   0  0  0  0  0  0  0  0  0  0  0  0
  -17.4189   20.4447   -4.1346 N   0  0  0  0  0  0  0  0  0  0  0  0
  -16.5148   19.6973   -5.0817 C   0  0  2  0  0  0  0  0  0  0  0  0
  -17.1296   18.4129   -5.6833 C   0  0  1  0  0  0  0  0  0  0  0  0
  -17.0988   18.3615   -7.1875 N   0  0  0  0  0  0  0  0  0  0  0  0
  -18.5395   18.6946   -8.0983 S   0  0  0  0  0  0  0  0  0  0  0  0
  -19.1081   19.9065   -7.4922 O   0  0  0  0  0  0  0  0  0  0  0  0
  -18.2232   18.6867   -9.4827 O   0  0  0  0  0  0  0  0  0  0  0  0
  -19.7311   17.3563   -7.8328 C   0  0  0  0  0  0  0  0  0  0  0  0
  -20.9556   17.6558   -7.1945 C   0  0  0  0  0  0  0  0  0  0  0  0
  -21.9493   16.6687   -7.0175 C   0  0  0  0  0  0  0  0  0  0  0  0
  -21.7381   15.3641   -7.5035 C   0  0  0  0  0  0  0  0  0  0  0  0
  -20.5349   15.0615   -8.1701 C   0  0  0  0  0  0  0  0  0  0  0  0
  -19.5392   16.0610   -8.3524 C   0  0  0  0  0  0  0  0  0  0  0  0
  -18.0994   15.5761   -9.1855 Cl  0  0  0  0  0  0  0  0  0  0  0  0
  -15.8477   18.1173   -7.9749 C   0  0  0  0  0  0  0  0  0  0  0  0
  -14.9657   19.3321   -8.2690 C   0  0  0  0  0  0  0  0  0  0  0  0
  -15.4817   20.4398   -8.9749 C   0  0  0  0  0  0  0  0  0  0  0  0
  -14.6761   21.5550   -9.2795 C   0  0  0  0  0  0  0  0  0  0  0  0
  -13.3279   21.5819   -8.8761 C   0  0  0  0  0  0  0  0  0  0  0  0
  -12.7918   20.4840   -8.1781 C   0  0  0  0  0  0  0  0  0  0  0  0
  -13.6033   19.3675   -7.8878 C   0  0  0  0  0  0  0  0  0  0  0  0
  -16.3684   17.2679   -5.0001 C   0  0  0  0  0  0  0  0  0  0  0  0
  -15.0005   17.8220   -4.7003 N   0  3  0  0  0  0  0  0  0  0  0  0
  -15.1642   19.2996   -4.4570 C   0  0  0  0  0  0  0  0  0  0  0  0
  -18.0139   19.8274   -2.9176 C   0  0  0  0  0  0  0  0  0  0  0  0
  -19.3902   19.1799   -3.0540 C   0  0  0  0  0  0  0  0  0  0  0  0
  -20.3691   19.6866   -3.9281 C   0  0  0  0  0  0  0  0  0  0  0  0
  -21.6449   19.0886   -4.0048 C   0  0  0  0  0  0  0  0  0  0  0  0
  -21.9625   17.9795   -3.1982 C   0  0  0  0  0  0  0  0  0  0  0  0
  -21.0024   17.4692   -2.3052 C   0  0  0  0  0  0  0  0  0  0  0  0
  -19.7317   18.0760   -2.2310 C   0  0  0  0  0  0  0  0  0  0  0  0
  -17.7127   22.2556   -5.8817 O   0  0  0  0  0  0  0  0  0  0  0  0
  -18.5937   22.7329   -3.5780 O   0  0  0  0  0  0  0  0  0  0  0  0
  -15.9075   22.7684   -2.4153 C   0  0  0  0  0  0  0  0  0  0  0  0
  -14.9549   23.2760   -6.3118 Cl  0  0  0  0  0  0  0  0  0  0  0  0
  -14.6689   23.2206   -0.6922 H   0  0  0  0  0  0  0  0  0  0  0  0
  -12.7532   24.0369   -2.0653 H   0  0  0  0  0  0  0  0  0  0  0  0
  -12.9230   24.0382   -4.5443 H   0  0  0  0  0  0  0  0  0  0  0  0
  -16.2852   20.3827   -5.8979 H   0  0  0  0  0  0  0  0  0  0  0  0
  -18.1784   18.3064   -5.4085 H   0  0  0  0  0  0  0  0  0  0  0  0
  -21.1435   18.6644   -6.8212 H   0  0  0  0  0  0  0  0  0  0  0  0
  -22.8813   16.9140   -6.5030 H   0  0  0  0  0  0  0  0  0  0  0  0
  -22.5067   14.6006   -7.3671 H   0  0  0  0  0  0  0  0  0  0  0  0
  -20.3840   14.0454   -8.5483 H   0  0  0  0  0  0  0  0  0  0  0  0
  -16.1211   17.6367   -8.9231 H   0  0  0  0  0  0  0  0  0  0  0  0
  -15.2493   17.3710   -7.4308 H   0  0  0  0  0  0  0  0  0  0  0  0
  -16.5226   20.4489   -9.2969 H   0  0  0  0  0  0  0  0  0  0  0  0
  -15.1025   22.4106   -9.8095 H   0  0  0  0  0  0  0  0  0  0  0  0
  -12.7094   22.4501   -9.1020 H   0  0  0  0  0  0  0  0  0  0  0  0
  -11.7434   20.5045   -7.8737 H   0  0  0  0  0  0  0  0  0  0  0  0
  -13.1553   18.5279   -7.3624 H   0  0  0  0  0  0  0  0  0  0  0  0
  -16.2489   16.3693   -5.6154 H   0  0  0  0  0  0  0  0  0  0  0  0
  -16.8148   16.9942   -4.0370 H   0  0  0  0  0  0  0  0  0  0  0  0
  -14.5666   17.3550   -3.8916 H   0  0  0  0  0  0  0  0  0  0  0  0
  -15.1262   19.4543   -3.3736 H   0  0  0  0  0  0  0  0  0  0  0  0
  -14.3130   19.8105   -4.9247 H   0  0  0  0  0  0  0  0  0  0  0  0
  -18.0775   20.5881   -2.1319 H   0  0  0  0  0  0  0  0  0  0  0  0
  -17.3300   19.0420   -2.5595 H   0  0  0  0  0  0  0  0  0  0  0  0
  -20.1430   20.5444   -4.5628 H   0  0  0  0  0  0  0  0  0  0  0  0
  -22.3875   19.4858   -4.6973 H   0  0  0  0  0  0  0  0  0  0  0  0
  -22.9493   17.5223   -3.2608 H   0  0  0  0  0  0  0  0  0  0  0  0
  -21.2482   16.6170   -1.6741 H   0  0  0  0  0  0  0  0  0  0  0  0
  -19.0029   17.6736   -1.5267 H   0  0  0  0  0  0  0  0  0  0  0  0
  -16.7394   22.4260   -1.7978 H   0  0  0  0  0  0  0  0  0  0  0  0
  -14.3757   17.6674   -5.5027 H   0  0  0  0  0  0  0  0  0  0  0  0
  1  2  2  0  0  0  0
  1 40  1  0  0  0  0
  1 42  1  0  0  0  0
  2  3  1  0  0  0  0
  2 43  1  0  0  0  0
  3  4  2  0  0  0  0
  3 44  1  0  0  0  0
  4  5  1  0  0  0  0
  4 41  1  0  0  0  0
  5  6  1  0  0  0  0
  5 40  2  0  0  0  0
  6  7  1  0  0  0  0
  6 38  2  0  0  0  0
  6 39  2  0  0  0  0
  7  8  1  0  0  0  0
  7 31  1  0  0  0  0
  8  9  1  0  0  0  0
  8 30  1  0  0  0  0
  8 45  1  6  0  0  0
  9 10  1  0  0  0  0
  9 28  1  0  0  0  0
  9 46  1  1  0  0  0
 10 11  1  0  0  0  0
 10 21  1  0  0  0  0
 11 12  2  0  0  0  0
 11 13  2  0  0  0  0
 11 14  1  0  0  0  0
 14 15  2  0  0  0  0
 14 19  1  0  0  0  0
 15 16  1  0  0  0  0
 15 47  1  0  0  0  0
 16 17  2  0  0  0  0
 16 48  1  0  0  0  0
 17 18  1  0  0  0  0
 17 49  1  0  0  0  0
 18 19  2  0  0  0  0
 18 50  1  0  0  0  0
 19 20  1  0  0  0  0
 21 22  1  0  0  0  0
 21 51  1  0  0  0  0
 21 52  1  0  0  0  0
 22 23  2  0  0  0  0
 22 27  1  0  0  0  0
 23 24  1  0  0  0  0
 23 53  1  0  0  0  0
 24 25  2  0  0  0  0
 24 54  1  0  0  0  0
 25 26  1  0  0  0  0
 25 55  1  0  0  0  0
 26 27  2  0  0  0  0
 26 56  1  0  0  0  0
 27 57  1  0  0  0  0
 28 29  1  0  0  0  0
 28 58  1  0  0  0  0
 28 59  1  0  0  0  0
 29 30  1  0  0  0  0
 29 60  1  0  0  0  0
 29 71  1  0  0  0  0
 30 61  1  0  0  0  0
 30 62  1  0  0  0  0
 31 32  1  0  0  0  0
 31 63  1  0  0  0  0
 31 64  1  0  0  0  0
 32 33  2  0  0  0  0
 32 37  1  0  0  0  0
 33 34  1  0  0  0  0
 33 65  1  0  0  0  0
 34 35  2  0  0  0  0
 34 66  1  0  0  0  0
 35 36  1  0  0  0  0
 35 67  1  0  0  0  0
 36 37  2  0  0  0  0
 36 68  1  0  0  0  0
 37 69  1  0  0  0  0
 40 70  1  0  0  0  0
M  CHG  1  29   1
M  END
$$$$
