QPU
 OpenBabel04051919063D

 68 70  0  0  1  0  0  0  0  0999 V2000
  165.1773   50.6603   14.9804 C   0  0  2  0  0  0  0  0  0  0  0  0
  163.7163   50.2916   14.7377 C   0  0  1  0  0  0  0  0  0  0  0  0
  162.8544   51.5400   14.8491 C   0  0  2  0  0  0  0  0  0  0  0  0
  162.6887   51.8088   16.3465 C   0  0  1  0  0  0  0  0  0  0  0  0
  164.0897   52.0632   16.9221 C   0  0  1  0  0  0  0  0  0  0  0  0
  164.2151   52.6563   18.3208 C   0  0  0  0  0  0  0  0  0  0  0  0
  165.3378   51.4022   16.3122 C   0  0  1  0  0  0  0  0  0  0  0  0
  163.5609   49.6380   13.4906 O   0  0  0  0  0  0  0  0  0  0  0  0
  161.5839   51.3822   14.2432 O   0  0  0  0  0  0  0  0  0  0  0  0
  161.9002   52.9997   16.5072 O   0  0  0  0  0  0  0  0  0  0  0  0
  166.0339   50.5597   17.2044 O   0  0  0  0  0  0  0  0  0  0  0  0
  168.7051   50.7875   10.8646 C   0  0  2  0  0  0  0  0  0  0  0  0
  167.3349   50.1886   10.6841 C   0  0  1  0  0  0  0  0  0  0  0  0
  166.3014   50.9935   11.5081 C   0  0  2  0  0  0  0  0  0  0  0  0
  166.7239   50.8475   12.9716 C   0  0  1  0  0  0  0  0  0  0  0  0
  168.1331   51.4259   13.1292 C   0  0  1  0  0  0  0  0  0  0  0  0
  168.6316   51.3025   14.5673 C   0  0  0  0  0  0  0  0  0  0  0  0
  165.7150   51.5600   13.8519 N   0  3  0  0  0  0  0  0  0  0  0  0
  166.9117   50.2190    9.2910 O   0  0  0  0  0  0  0  0  0  0  0  0
  164.9863   50.4640   11.3242 O   0  0  0  0  0  0  0  0  0  0  0  0
  169.0347   50.7260   12.2677 O   0  0  0  0  0  0  0  0  0  0  0  0
  170.3505   54.1889    7.0450 C   0  0  0  0  0  0  0  0  0  0  0  0
  169.0544   53.4135    6.8584 C   0  0  1  0  0  0  0  0  0  0  0  0
  168.4302   53.1779    8.2276 C   0  0  2  0  0  0  0  0  0  0  0  0
  169.3988   52.3708    9.1223 C   0  0  1  0  0  0  0  0  0  0  0  0
  170.6852   53.2240    9.2346 C   0  0  1  0  0  0  0  0  0  0  0  0
  171.7680   52.5090   10.0538 C   0  0  0  0  0  0  0  0  0  0  0  0
  168.1678   54.1472    6.0093 O   0  0  0  0  0  0  0  0  0  0  0  0
  167.1986   52.4535    8.0702 O   0  0  0  0  0  0  0  0  0  0  0  0
  168.7579   52.1562   10.4115 O   0  0  0  0  0  0  0  0  0  0  0  0
  171.2350   53.5041    7.9310 O   0  0  0  0  0  0  0  0  0  0  0  0
  172.2201   53.3433   11.1288 O   0  0  0  0  0  0  0  0  0  0  0  0
  165.8097   49.7750   14.9482 H   0  0  0  0  0  0  0  0  0  0  0  0
  163.4336   49.5680   15.4784 H   0  0  0  0  0  0  0  0  0  0  0  0
  163.3301   52.4049   14.3617 H   0  0  0  0  0  0  0  0  0  0  0  0
  162.1514   50.9813   16.8252 H   0  0  0  0  0  0  0  0  0  0  0  0
  164.2273   53.0038   16.4145 H   0  0  0  0  0  0  0  0  0  0  0  0
  165.2682   52.6998   18.6291 H   0  0  0  0  0  0  0  0  0  0  0  0
  163.6326   52.1415   19.0884 H   0  0  0  0  0  0  0  0  0  0  0  0
  163.8603   53.6988   18.2653 H   0  0  0  0  0  0  0  0  0  0  0  0
  166.0028   52.2578   16.1313 H   0  0  0  0  0  0  0  0  0  0  0  0
  163.7625   50.2226   12.7732 H   0  0  0  0  0  0  0  0  0  0  0  0
  161.6871   51.1897   13.3018 H   0  0  0  0  0  0  0  0  0  0  0  0
  161.0358   52.8548   16.0877 H   0  0  0  0  0  0  0  0  0  0  0  0
  166.8301   50.2037   16.7851 H   0  0  0  0  0  0  0  0  0  0  0  0
  169.4166   50.1628   10.3083 H   0  0  0  0  0  0  0  0  0  0  0  0
  167.2573   49.1696   10.9671 H   0  0  0  0  0  0  0  0  0  0  0  0
  166.2654   52.0534   11.2286 H   0  0  0  0  0  0  0  0  0  0  0  0
  166.6966   49.7943   13.2509 H   0  0  0  0  0  0  0  0  0  0  0  0
  168.1282   52.4910   12.8724 H   0  0  0  0  0  0  0  0  0  0  0  0
  169.6447   51.7109   14.6593 H   0  0  0  0  0  0  0  0  0  0  0  0
  168.6626   50.2523   14.8787 H   0  0  0  0  0  0  0  0  0  0  0  0
  167.9904   51.8505   15.2649 H   0  0  0  0  0  0  0  0  0  0  0  0
  164.9445   51.9148   13.2873 H   0  0  0  0  0  0  0  0  0  0  0  0
  166.9723   51.0486    8.9610 H   0  0  0  0  0  0  0  0  0  0  0  0
  164.3525   51.0843   11.7120 H   0  0  0  0  0  0  0  0  0  0  0  0
  170.1427   55.1928    7.4378 H   0  0  0  0  0  0  0  0  0  0  0  0
  170.8379   54.3229    6.0692 H   0  0  0  0  0  0  0  0  0  0  0  0
  169.2600   52.4427    6.3917 H   0  0  0  0  0  0  0  0  0  0  0  0
  168.1658   54.1355    8.7116 H   0  0  0  0  0  0  0  0  0  0  0  0
  169.6051   51.4173    8.6141 H   0  0  0  0  0  0  0  0  0  0  0  0
  170.4415   54.1716    9.7359 H   0  0  0  0  0  0  0  0  0  0  0  0
  172.6305   52.2718    9.4224 H   0  0  0  0  0  0  0  0  0  0  0  0
  171.3810   51.5870   10.4982 H   0  0  0  0  0  0  0  0  0  0  0  0
  167.3551   53.6292    5.9005 H   0  0  0  0  0  0  0  0  0  0  0  0
  166.7590   52.5857    8.9444 H   0  0  0  0  0  0  0  0  0  0  0  0
  172.9141   52.8679   11.6112 H   0  0  0  0  0  0  0  0  0  0  0  0
  166.1500   52.4052   14.2385 H   0  0  0  0  0  0  0  0  0  0  0  0
  1  2  1  0  0  0  0
  1  7  1  0  0  0  0
  1 18  1  0  0  0  0
  1 33  1  1  0  0  0
  2  3  1  0  0  0  0
  2  8  1  0  0  0  0
  2 34  1  1  0  0  0
  3  4  1  0  0  0  0
  3  9  1  0  0  0  0
  3 35  1  6  0  0  0
  4  5  1  0  0  0  0
  4 10  1  0  0  0  0
  4 36  1  1  0  0  0
  5  6  1  0  0  0  0
  5  7  1  0  0  0  0
  5 37  1  6  0  0  0
  6 38  1  0  0  0  0
  6 39  1  0  0  0  0
  6 40  1  0  0  0  0
  7 11  1  0  0  0  0
  7 41  1  6  0  0  0
  8 42  1  0  0  0  0
  9 43  1  0  0  0  0
 10 44  1  0  0  0  0
 11 45  1  0  0  0  0
 12 13  1  0  0  0  0
 12 21  1  0  0  0  0
 12 30  1  0  0  0  0
 12 46  1  6  0  0  0
 13 14  1  0  0  0  0
 13 19  1  0  0  0  0
 13 47  1  1  0  0  0
 14 15  1  0  0  0  0
 14 20  1  0  0  0  0
 14 48  1  6  0  0  0
 15 16  1  0  0  0  0
 15 18  1  0  0  0  0
 15 49  1  1  0  0  0
 16 17  1  0  0  0  0
 16 21  1  0  0  0  0
 16 50  1  6  0  0  0
 17 51  1  0  0  0  0
 17 52  1  0  0  0  0
 17 53  1  0  0  0  0
 18 54  1  0  0  0  0
 18 68  1  0  0  0  0
 19 55  1  0  0  0  0
 20 56  1  0  0  0  0
 22 23  1  0  0  0  0
 22 31  1  0  0  0  0
 22 57  1  0  0  0  0
 22 58  1  0  0  0  0
 23 24  1  0  0  0  0
 23 28  1  0  0  0  0
 23 59  1  6  0  0  0
 24 25  1  0  0  0  0
 24 29  1  0  0  0  0
 24 60  1  1  0  0  0
 25 26  1  0  0  0  0
 25 30  1  0  0  0  0
 25 61  1  6  0  0  0
 26 27  1  0  0  0  0
 26 31  1  0  0  0  0
 26 62  1  1  0  0  0
 27 32  1  0  0  0  0
 27 63  1  0  0  0  0
 27 64  1  0  0  0  0
 28 65  1  0  0  0  0
 29 66  1  0  0  0  0
 32 67  1  0  0  0  0
M  CHG  1  18   1
M  END
$$$$
