RBF
 OpenBabel04051917343D

 47 49  0  0  1  0  0  0  0  0999 V2000
    0.2274   22.6676   -2.8677 N   0  0  0  0  0  0  0  0  0  0  0  0
   -0.4580   22.3742   -3.9946 C   0  0  0  0  0  0  0  0  0  0  0  0
   -0.9312   23.2186   -4.7165 O   0  0  0  0  0  0  0  0  0  0  0  0
   -0.6394   21.0501   -4.3234 N   0  3  0  0  0  0  0  0  0  0  0  0
   -0.1755   20.0001   -3.5886 C   0  0  0  0  0  0  0  0  0  0  0  0
   -0.3622   18.8461   -3.9227 O   0  0  0  0  0  0  0  0  0  0  0  0
    0.5724   20.3446   -2.3555 C   0  0  0  0  0  0  0  0  0  0  0  0
    1.0462   19.3942   -1.6010 N   0  0  0  0  0  0  0  0  0  0  0  0
    1.7609   19.7680   -0.4419 C   0  0  0  0  0  0  0  0  0  0  0  0
    2.2592   18.7318    0.3660 C   0  0  0  0  0  0  0  0  0  0  0  0
    2.9840   19.0441    1.5247 C   0  0  0  0  0  0  0  0  0  0  0  0
    3.5271   17.9089    2.3641 C   0  0  0  0  0  0  0  0  0  0  0  0
    3.1942   20.4060    1.8801 C   0  0  0  0  0  0  0  0  0  0  0  0
    3.9605   20.7745    3.1254 C   0  0  0  0  0  0  0  0  0  0  0  0
    2.6855   21.4409    1.0766 C   0  0  0  0  0  0  0  0  0  0  0  0
    1.9705   21.1483   -0.0979 C   0  0  0  0  0  0  0  0  0  0  0  0
    1.4567   22.1605   -0.9336 N   0  3  0  0  0  0  0  0  0  0  0  0
    0.7443   21.8104   -2.0684 C   0  0  0  0  0  0  0  0  0  0  0  0
    1.5785   23.5799   -0.5795 C   0  0  0  0  0  0  0  0  0  0  0  0
    2.5654   24.3589   -1.4558 C   0  0  2  0  0  0  0  0  0  0  0  0
    3.8818   24.1699   -0.9078 O   0  0  0  0  0  0  0  0  0  0  0  0
    2.1760   25.8651   -1.5120 C   0  0  2  0  0  0  0  0  0  0  0  0
    2.0627   26.3862   -0.1821 O   0  0  0  0  0  0  0  0  0  0  0  0
    0.8543   25.9948   -2.3156 C   0  0  2  0  0  0  0  0  0  0  0  0
    1.1487   25.7513   -3.6988 O   0  0  0  0  0  0  0  0  0  0  0  0
    0.0876   27.3083   -2.1751 C   0  0  0  0  0  0  0  0  0  0  0  0
   -1.0482   27.3171   -3.0493 O   0  0  0  0  0  0  0  0  0  0  0  0
   -1.1354   20.8418   -5.1764 H   0  0  0  0  0  0  0  0  0  0  0  0
    2.0766   17.6780    0.0815 H   0  0  0  0  0  0  0  0  0  0  0  0
    3.2649   16.9281    1.9356 H   0  0  0  0  0  0  0  0  0  0  0  0
    3.1136   17.9533    3.3790 H   0  0  0  0  0  0  0  0  0  0  0  0
    4.6213   17.9678    2.4209 H   0  0  0  0  0  0  0  0  0  0  0  0
    4.0321   21.8652    3.2501 H   0  0  0  0  0  0  0  0  0  0  0  0
    4.9763   20.3690    3.0688 H   0  0  0  0  0  0  0  0  0  0  0  0
    3.4541   20.3623    4.0050 H   0  0  0  0  0  0  0  0  0  0  0  0
    2.8631   22.4764    1.3768 H   0  0  0  0  0  0  0  0  0  0  0  0
    1.8932   23.7077    0.4478 H   0  0  0  0  0  0  0  0  0  0  0  0
    0.6012   24.0394   -0.6566 H   0  0  0  0  0  0  0  0  0  0  0  0
    2.5718   23.9779   -2.4769 H   0  0  0  0  0  0  0  0  0  0  0  0
    3.8733   24.4502    0.0236 H   0  0  0  0  0  0  0  0  0  0  0  0
    2.9666   26.4244   -2.0278 H   0  0  0  0  0  0  0  0  0  0  0  0
    2.9309   26.3010    0.2524 H   0  0  0  0  0  0  0  0  0  0  0  0
    0.1646   25.2127   -2.0013 H   0  0  0  0  0  0  0  0  0  0  0  0
    1.7693   26.4339   -4.0025 H   0  0  0  0  0  0  0  0  0  0  0  0
    0.7375   28.1414   -2.4426 H   0  0  0  0  0  0  0  0  0  0  0  0
   -0.2665   27.4183   -1.1485 H   0  0  0  0  0  0  0  0  0  0  0  0
   -1.5238   28.1590   -2.9521 H   0  0  0  0  0  0  0  0  0  0  0  0
  1  2  1  0  0  0  0
  1 18  1  0  0  0  0
  2  3  2  0  0  0  0
  2  4  1  0  0  0  0
  4  5  1  0  0  0  0
  4 28  1  0  0  0  0
  5  6  2  0  0  0  0
  5  7  1  0  0  0  0
  7  8  2  0  0  0  0
  7 18  1  0  0  0  0
  8  9  1  0  0  0  0
  9 10  2  0  0  0  0
  9 16  1  0  0  0  0
 10 11  1  0  0  0  0
 10 29  1  0  0  0  0
 11 12  1  0  0  0  0
 11 13  2  0  0  0  0
 12 30  1  0  0  0  0
 12 31  1  0  0  0  0
 12 32  1  0  0  0  0
 13 14  1  0  0  0  0
 13 15  1  0  0  0  0
 14 33  1  0  0  0  0
 14 34  1  0  0  0  0
 14 35  1  0  0  0  0
 15 16  2  0  0  0  0
 15 36  1  0  0  0  0
 16 17  1  0  0  0  0
 17 18  2  0  0  0  0
 17 19  1  0  0  0  0
 19 20  1  0  0  0  0
 19 37  1  0  0  0  0
 19 38  1  0  0  0  0
 20 21  1  0  0  0  0
 20 22  1  0  0  0  0
 20 39  1  6  0  0  0
 21 40  1  0  0  0  0
 22 23  1  0  0  0  0
 22 24  1  0  0  0  0
 22 41  1  6  0  0  0
 23 42  1  0  0  0  0
 24 25  1  0  0  0  0
 24 26  1  0  0  0  0
 24 43  1  1  0  0  0
 25 44  1  0  0  0  0
 26 27  1  0  0  0  0
 26 45  1  0  0  0  0
 26 46  1  0  0  0  0
 27 47  1  0  0  0  0
M  CHG  2   4   1  17   1
M  END
$$$$
