RC1
 OpenBabel04051918483D

 35 35  0  0  1  0  0  0  0  0999 V2000
 -127.4376   32.1739  127.2733 C   0  0  0  0  0  0  0  0  0  0  0  0
 -127.1370   32.5715  126.0192 C   0  0  0  0  0  0  0  0  0  0  0  0
 -128.1262   32.5189  124.8500 C   0  0  2  0  0  0  0  0  0  0  0  0
 -129.5827   32.5740  125.4217 C   0  0  2  0  0  0  0  0  0  0  0  0
 -129.7681   31.4410  126.4481 C   0  0  1  0  0  0  0  0  0  0  0  0
 -128.7789   31.5769  127.6279 C   0  0  0  0  0  0  0  0  0  0  0  0
 -126.3762   32.1824  128.4014 C   0  0  0  0  0  0  0  0  0  0  0  0
 -127.9818   31.3119  124.0829 O   0  0  0  0  0  0  0  0  0  0  0  0
 -130.5182   32.5121  124.3117 O   0  0  0  0  0  0  0  0  0  0  0  0
 -131.1140   31.4575  126.9191 O   0  0  0  0  0  0  0  0  0  0  0  0
 -125.1249   32.1880  128.0332 O   0  0  0  0  0  0  0  0  0  0  0  0
 -126.7522   32.3180  129.6037 O   0  0  0  0  0  0  0  0  0  0  0  0
 -127.0905   31.2432  122.6910 P   0  0  0  0  0  0  0  0  0  0  0  0
 -125.6382   31.1913  123.1385 O   0  0  0  0  0  0  0  0  0  0  0  0
 -127.4238   32.4930  121.8930 O   0  0  0  0  0  0  0  0  0  0  0  0
 -127.4977   29.9476  121.9682 O   0  0  0  0  0  0  0  0  0  0  0  0
 -131.7842   30.1617  126.7233 C   0  0  1  0  0  0  0  0  0  0  0  0
 -132.0839   29.8417  125.2429 C   0  0  0  0  0  0  0  0  0  0  0  0
 -131.0104   28.9315  127.3202 C   0  0  0  0  0  0  0  0  0  0  0  0
 -130.6976   27.9672  126.5511 O   0  0  0  0  0  0  0  0  0  0  0  0
 -130.5732   29.0167  128.5400 O   0  0  0  0  0  0  0  0  0  0  0  0
 -133.4116   30.3175  127.6927 P   0  0  0  0  0  0  0  0  0  0  0  0
 -134.4637   30.8400  126.6889 O   0  0  0  0  0  0  0  0  0  0  0  0
 -133.1872   31.3394  128.8247 O   0  0  0  0  0  0  0  0  0  0  0  0
 -133.7049   28.8937  128.1302 O   0  0  0  0  0  0  0  0  0  0  0  0
 -126.1324   32.9738  125.7845 H   0  0  0  0  0  0  0  0  0  0  0  0
 -128.0083   33.3959  124.2086 H   0  0  0  0  0  0  0  0  0  0  0  0
 -129.7627   33.5478  125.9099 H   0  0  0  0  0  0  0  0  0  0  0  0
 -129.6003   30.5017  125.9507 H   0  0  0  0  0  0  0  0  0  0  0  0
 -129.2129   32.2058  128.4120 H   0  0  0  0  0  0  0  0  0  0  0  0
 -128.6108   30.5775  128.0486 H   0  0  0  0  0  0  0  0  0  0  0  0
 -131.4125   32.4896  124.7037 H   0  0  0  0  0  0  0  0  0  0  0  0
 -131.1579   29.7189  124.6662 H   0  0  0  0  0  0  0  0  0  0  0  0
 -132.6699   30.6367  124.7718 H   0  0  0  0  0  0  0  0  0  0  0  0
 -132.6557   28.9061  125.1524 H   0  0  0  0  0  0  0  0  0  0  0  0
  1  2  2  0  0  0  0
  1  6  1  0  0  0  0
  1  7  1  0  0  0  0
  2  3  1  0  0  0  0
  2 26  1  0  0  0  0
  3  4  1  0  0  0  0
  3  8  1  0  0  0  0
  3 27  1  6  0  0  0
  4  5  1  0  0  0  0
  4  9  1  0  0  0  0
  4 28  1  1  0  0  0
  5  6  1  0  0  0  0
  5 10  1  0  0  0  0
  5 29  1  6  0  0  0
  6 30  1  0  0  0  0
  6 31  1  0  0  0  0
  7 11  2  0  0  0  0
  7 12  1  0  0  0  0
  8 13  1  0  0  0  0
  9 32  1  0  0  0  0
 13 14  2  0  0  0  0
 13 15  1  0  0  0  0
 13 16  1  0  0  0  0
 17 10  1  1  0  0  0
 17 18  1  0  0  0  0
 17 19  1  0  0  0  0
 17 22  1  0  0  0  0
 18 33  1  0  0  0  0
 18 34  1  0  0  0  0
 18 35  1  0  0  0  0
 19 20  2  0  0  0  0
 19 21  1  0  0  0  0
 22 23  2  0  0  0  0
 22 24  1  0  0  0  0
 22 25  1  0  0  0  0
M  END
$$$$
