RDA
 OpenBabel04051918003D

 46 47  0  0  0  0  0  0  0  0999 V2000
   19.4258   35.6863    7.9725 C   0  0  0  0  0  0  0  0  0  0  0  0
   19.5057   34.8226    6.8306 O   0  0  0  0  0  0  0  0  0  0  0  0
   18.2916   34.6191    6.2453 C   0  0  0  0  0  0  0  0  0  0  0  0
   17.2401   35.1092    6.6540 O   0  0  0  0  0  0  0  0  0  0  0  0
   18.3610   33.7312    5.0525 C   0  0  0  0  0  0  0  0  0  0  0  0
   17.3830   32.7192    4.9291 C   0  0  0  0  0  0  0  0  0  0  0  0
   16.4620   32.5312    5.9230 O   0  0  0  0  0  0  0  0  0  0  0  0
   17.3495   31.8728    3.8206 C   0  0  0  0  0  0  0  0  0  0  0  0
   18.2977   32.0365    2.8192 C   0  0  0  0  0  0  0  0  0  0  0  0
   18.2626   31.1902    1.7452 O   0  0  0  0  0  0  0  0  0  0  0  0
   19.2554   33.0530    2.8929 C   0  0  0  0  0  0  0  0  0  0  0  0
   20.3950   33.1991    1.5886 Cl  0  0  0  0  0  0  0  0  0  0  0  0
   19.2992   33.9222    4.0117 C   0  0  0  0  0  0  0  0  0  0  0  0
   20.3493   35.0032    4.0899 C   0  0  0  0  0  0  0  0  0  0  0  0
   21.6642   34.4218    4.5915 C   0  0  0  0  0  0  0  0  0  0  0  0
   22.7117   35.4842    4.5594 C   0  0  0  0  0  0  0  0  0  0  0  0
   23.1803   35.8423    3.4815 O   0  0  0  0  0  0  0  0  0  0  0  0
   23.0254   35.9844    5.8066 N   0  0  0  0  0  0  0  0  0  0  0  0
   24.0246   36.9298    6.0824 C   0  0  0  0  0  0  0  0  0  0  0  0
   24.8378   37.4766    5.0940 C   0  0  0  0  0  0  0  0  0  0  0  0
   25.8248   38.3829    5.4439 C   0  0  0  0  0  0  0  0  0  0  0  0
   26.6062   38.8751    4.4436 O   0  0  0  0  0  0  0  0  0  0  0  0
   26.0024   38.7653    6.7693 C   0  0  0  0  0  0  0  0  0  0  0  0
   27.0272   39.6182    7.0783 O   0  0  0  0  0  0  0  0  0  0  0  0
   26.5583   40.9658    7.0365 C   0  0  0  0  0  0  0  0  0  0  0  0
   25.1953   38.2377    7.7719 C   0  0  0  0  0  0  0  0  0  0  0  0
   24.2044   37.3282    7.4139 C   0  0  0  0  0  0  0  0  0  0  0  0
   23.3596   36.8195    8.3644 O   0  0  0  0  0  0  0  0  0  0  0  0
   20.4343   35.8847    8.3472 H   0  0  0  0  0  0  0  0  0  0  0  0
   18.8520   35.1959    8.7643 H   0  0  0  0  0  0  0  0  0  0  0  0
   18.9705   36.6481    7.7083 H   0  0  0  0  0  0  0  0  0  0  0  0
   15.8241   31.8440    5.6714 H   0  0  0  0  0  0  0  0  0  0  0  0
   16.5896   31.1046    3.7217 H   0  0  0  0  0  0  0  0  0  0  0  0
   18.4032   30.2866    2.0740 H   0  0  0  0  0  0  0  0  0  0  0  0
   20.0196   35.8303    4.7272 H   0  0  0  0  0  0  0  0  0  0  0  0
   20.4716   35.4833    3.1107 H   0  0  0  0  0  0  0  0  0  0  0  0
   22.0258   33.6084    3.9538 H   0  0  0  0  0  0  0  0  0  0  0  0
   21.5674   34.0007    5.5975 H   0  0  0  0  0  0  0  0  0  0  0  0
   22.5479   35.6222    6.6274 H   0  0  0  0  0  0  0  0  0  0  0  0
   24.7476   37.2165    4.0493 H   0  0  0  0  0  0  0  0  0  0  0  0
   27.2829   39.4207    4.8840 H   0  0  0  0  0  0  0  0  0  0  0  0
   27.3979   41.6159    7.2972 H   0  0  0  0  0  0  0  0  0  0  0  0
   25.7574   41.1242    7.7649 H   0  0  0  0  0  0  0  0  0  0  0  0
   26.2195   41.2360    6.0298 H   0  0  0  0  0  0  0  0  0  0  0  0
   25.3554   38.5216    8.8055 H   0  0  0  0  0  0  0  0  0  0  0  0
   22.9966   37.5923    8.8329 H   0  0  0  0  0  0  0  0  0  0  0  0
  1  2  1  0  0  0  0
  1 29  1  0  0  0  0
  1 30  1  0  0  0  0
  1 31  1  0  0  0  0
  2  3  1  0  0  0  0
  3  4  2  0  0  0  0
  3  5  1  0  0  0  0
  5  6  2  0  0  0  0
  5 13  1  0  0  0  0
  6  7  1  0  0  0  0
  6  8  1  0  0  0  0
  7 32  1  0  0  0  0
  8  9  2  0  0  0  0
  8 33  1  0  0  0  0
  9 10  1  0  0  0  0
  9 11  1  0  0  0  0
 10 34  1  0  0  0  0
 11 12  1  0  0  0  0
 11 13  2  0  0  0  0
 13 14  1  0  0  0  0
 14 15  1  0  0  0  0
 14 35  1  0  0  0  0
 14 36  1  0  0  0  0
 15 16  1  0  0  0  0
 15 37  1  0  0  0  0
 15 38  1  0  0  0  0
 16 17  2  0  0  0  0
 16 18  1  0  0  0  0
 18 19  1  0  0  0  0
 18 39  1  0  0  0  0
 19 20  2  0  0  0  0
 19 27  1  0  0  0  0
 20 21  1  0  0  0  0
 20 40  1  0  0  0  0
 21 22  1  0  0  0  0
 21 23  2  0  0  0  0
 22 41  1  0  0  0  0
 23 24  1  0  0  0  0
 23 26  1  0  0  0  0
 24 25  1  0  0  0  0
 25 42  1  0  0  0  0
 25 43  1  0  0  0  0
 25 44  1  0  0  0  0
 26 27  2  0  0  0  0
 26 45  1  0  0  0  0
 27 28  1  0  0  0  0
 28 46  1  0  0  0  0
M  END
$$$$
