RDC
 OpenBabel04051920023D

 41 43  0  0  1  0  0  0  0  0999 V2000
    2.4111   55.6774   -5.7733 C   0  0  0  0  0  0  0  0  0  0  0  0
    3.3950   55.7206   -4.6271 C   0  0  0  0  0  0  0  0  0  0  0  0
    4.4919   56.6277   -4.7396 C   0  0  0  0  0  0  0  0  0  0  0  0
    5.3496   56.6994   -3.6153 C   0  0  0  0  0  0  0  0  0  0  0  0
    5.1466   55.9480   -2.4619 C   0  0  0  0  0  0  0  0  0  0  0  0
    4.0767   55.0631   -2.3781 C   0  0  0  0  0  0  0  0  0  0  0  0
    3.1760   54.9062   -3.4619 C   0  0  0  0  0  0  0  0  0  0  0  0
    1.9884   53.9726   -3.3308 C   0  0  0  0  0  0  0  0  0  0  0  0
    2.2540   52.5386   -2.8663 C   0  0  0  0  0  0  0  0  0  0  0  0
    3.3058   51.6793   -3.4846 C   0  0  0  0  0  0  0  0  0  0  0  0
    3.7929   51.9112   -4.7011 C   0  0  0  0  0  0  0  0  0  0  0  0
    4.7376   51.0912   -5.4142 C   0  0  0  0  0  0  0  0  0  0  0  0
    5.0938   51.3392   -6.6849 C   0  0  0  0  0  0  0  0  0  0  0  0
    4.6413   52.4356   -7.5619 C   0  0  2  0  0  0  0  0  0  0  0  0
    3.2511   52.3862   -8.1698 C   0  0  1  0  0  0  0  0  0  0  0  0
    2.4904   53.6339   -8.5320 C   0  0  0  0  0  0  0  0  0  0  0  0
    1.5685   54.1500   -7.4203 C   0  0  1  0  0  0  0  0  0  0  0  0
    0.4638   53.1591   -7.0550 C   0  0  0  0  0  0  0  0  0  0  0  0
    2.3897   54.4104   -6.2682 O   0  0  0  0  0  0  0  0  0  0  0  0
    1.6891   56.5878   -6.1509 O   0  0  0  0  0  0  0  0  0  0  0  0
    4.7649   57.3299   -5.7726 O   0  0  0  0  0  0  0  0  0  0  0  0
    6.0239   56.0914   -1.4094 O   0  0  0  0  0  0  0  0  0  0  0  0
    3.8573   54.2153   -0.8703 Cl  0  0  0  0  0  0  0  0  0  0  0  0
    1.5444   52.0123   -2.0015 O   0  0  0  0  0  0  0  0  0  0  0  0
    4.4252   52.1969   -8.9651 O   0  0  0  0  0  0  0  0  0  0  0  0
    6.1718   57.4088   -3.6644 H   0  0  0  0  0  0  0  0  0  0  0  0
    1.4021   53.8849   -4.2445 H   0  0  0  0  0  0  0  0  0  0  0  0
    1.3069   54.4338   -2.6026 H   0  0  0  0  0  0  0  0  0  0  0  0
    3.5822   50.8052   -2.9064 H   0  0  0  0  0  0  0  0  0  0  0  0
    3.4617   52.7852   -5.2428 H   0  0  0  0  0  0  0  0  0  0  0  0
    5.1576   50.2317   -4.8988 H   0  0  0  0  0  0  0  0  0  0  0  0
    5.8122   50.6626   -7.1472 H   0  0  0  0  0  0  0  0  0  0  0  0
    5.0123   53.4140   -7.2755 H   0  0  0  0  0  0  0  0  0  0  0  0
    2.6220   51.5240   -7.9890 H   0  0  0  0  0  0  0  0  0  0  0  0
    1.8992   53.4338   -9.4344 H   0  0  0  0  0  0  0  0  0  0  0  0
    3.2030   54.4304   -8.7829 H   0  0  0  0  0  0  0  0  0  0  0  0
    1.0843   55.0634   -7.7843 H   0  0  0  0  0  0  0  0  0  0  0  0
   -0.1859   53.5804   -6.2809 H   0  0  0  0  0  0  0  0  0  0  0  0
    0.8655   52.2274   -6.6446 H   0  0  0  0  0  0  0  0  0  0  0  0
   -0.1549   52.9197   -7.9264 H   0  0  0  0  0  0  0  0  0  0  0  0
    6.6809   56.7502   -1.6809 H   0  0  0  0  0  0  0  0  0  0  0  0
  1  2  1  0  0  0  0
  1 19  1  0  0  0  0
  1 20  2  0  0  0  0
  2  3  2  0  0  0  0
  2  7  1  0  0  0  0
  3  4  1  0  0  0  0
  3 21  1  0  0  0  0
  4  5  2  0  0  0  0
  4 26  1  0  0  0  0
  5  6  1  0  0  0  0
  5 22  1  0  0  0  0
  6  7  2  0  0  0  0
  6 23  1  0  0  0  0
  7  8  1  0  0  0  0
  8  9  1  0  0  0  0
  8 27  1  0  0  0  0
  8 28  1  0  0  0  0
  9 10  1  0  0  0  0
  9 24  2  0  0  0  0
 10 11  2  0  0  0  0
 10 29  1  0  0  0  0
 11 12  1  0  0  0  0
 11 30  1  0  0  0  0
 12 13  2  0  0  0  0
 12 31  1  0  0  0  0
 13 14  1  0  0  0  0
 13 32  1  0  0  0  0
 14 15  1  0  0  0  0
 14 25  1  0  0  0  0
 14 33  1  1  0  0  0
 15 16  1  0  0  0  0
 15 25  1  0  0  0  0
 15 34  1  1  0  0  0
 16 17  1  0  0  0  0
 16 35  1  0  0  0  0
 16 36  1  0  0  0  0
 17 18  1  0  0  0  0
 17 19  1  0  0  0  0
 17 37  1  6  0  0  0
 18 38  1  0  0  0  0
 18 39  1  0  0  0  0
 18 40  1  0  0  0  0
 22 41  1  0  0  0  0
M  END
$$$$
