RIP
 OpenBabel04051917413D

 20 20  0  0  1  0  0  0  0  0999 V2000
   50.1410   33.6144   44.1547 C   0  0  2  0  0  0  0  0  0  0  0  0
   49.4518   33.0756   45.4254 C   0  0  1  0  0  0  0  0  0  0  0  0
   49.0895   34.2427   46.3422 C   0  0  1  0  0  0  0  0  0  0  0  0
   50.3444   35.0828   46.6091 C   0  0  1  0  0  0  0  0  0  0  0  0
   50.9731   35.5134   45.2818 C   0  0  0  0  0  0  0  0  0  0  0  0
   50.5306   32.5282   43.3172 O   0  0  0  0  0  0  0  0  0  0  0  0
   48.2858   32.3088   45.1326 O   0  0  0  0  0  0  0  0  0  0  0  0
   48.0749   35.0341   45.6963 O   0  0  0  0  0  0  0  0  0  0  0  0
   50.0003   36.2590   47.3574 O   0  0  0  0  0  0  0  0  0  0  0  0
   51.3065   34.3718   44.4845 O   0  0  0  0  0  0  0  0  0  0  0  0
   49.4523   34.2314   43.5675 H   0  0  0  0  0  0  0  0  0  0  0  0
   50.1428   32.4146   45.9606 H   0  0  0  0  0  0  0  0  0  0  0  0
   48.6464   33.8891   47.2825 H   0  0  0  0  0  0  0  0  0  0  0  0
   51.0670   34.4992   47.1928 H   0  0  0  0  0  0  0  0  0  0  0  0
   51.8867   36.0858   45.4779 H   0  0  0  0  0  0  0  0  0  0  0  0
   50.3045   36.1834   44.7210 H   0  0  0  0  0  0  0  0  0  0  0  0
   51.1876   32.0217   43.8219 H   0  0  0  0  0  0  0  0  0  0  0  0
   48.5505   31.6500   44.4675 H   0  0  0  0  0  0  0  0  0  0  0  0
   47.8808   35.7981   46.2763 H   0  0  0  0  0  0  0  0  0  0  0  0
   49.6249   35.9748   48.2069 H   0  0  0  0  0  0  0  0  0  0  0  0
  1  2  1  0  0  0  0
  1  6  1  0  0  0  0
  1 10  1  0  0  0  0
  1 11  1  6  0  0  0
  2  3  1  0  0  0  0
  2  7  1  0  0  0  0
  2 12  1  1  0  0  0
  3  4  1  0  0  0  0
  3  8  1  0  0  0  0
  3 13  1  1  0  0  0
  4  5  1  0  0  0  0
  4  9  1  0  0  0  0
  4 14  1  1  0  0  0
  5 10  1  0  0  0  0
  5 15  1  0  0  0  0
  5 16  1  0  0  0  0
  6 17  1  0  0  0  0
  7 18  1  0  0  0  0
  8 19  1  0  0  0  0
  9 20  1  0  0  0  0
M  END
$$$$
