RR8
 OpenBabel04051920193D

 58 61  0  0  1  0  0  0  0  0999 V2000
    9.1570   70.2285    2.7940 S   0  0  0  0  0  0  0  0  0  0  0  0
    9.6001   66.3198    2.5389 C   0  0  1  0  0  0  0  0  0  0  0  0
   10.1716   66.5739    3.9512 C   0  0  1  0  0  0  0  0  0  0  0  0
    9.6179   68.6249    2.8701 N   0  0  0  0  0  0  0  0  0  0  0  0
    8.7346   65.0842    2.3311 C   0  0  0  0  0  0  0  0  0  0  0  0
    6.8318   58.8693    3.0374 N   0  3  0  0  0  0  0  0  0  0  0  0
   11.4827   65.8160    4.1030 C   0  0  0  0  0  0  0  0  0  0  0  0
   10.3370   68.0919    4.0372 C   0  0  0  0  0  0  0  0  0  0  0  0
    8.7747   67.5731    2.2813 C   0  0  0  0  0  0  0  0  0  0  0  0
    5.8251   58.5328    2.1208 C   0  0  0  0  0  0  0  0  0  0  0  0
    7.3269   60.1971    3.0197 C   0  0  0  0  0  0  0  0  0  0  0  0
    8.9768   64.0347    3.1876 N   0  0  0  0  0  0  0  0  0  0  0  0
    8.1068   60.6437    1.9487 C   0  0  0  0  0  0  0  0  0  0  0  0
   12.1671   66.0042    5.2848 N   0  0  0  0  0  0  0  0  0  0  0  0
    8.3649   62.7797    3.0596 C   0  0  0  0  0  0  0  0  0  0  0  0
    8.6235   61.9357    1.9746 C   0  0  0  0  0  0  0  0  0  0  0  0
   10.2283   71.0082    3.3901 O   0  0  0  0  0  0  0  0  0  0  0  0
    8.6757   70.4971    1.4638 O   0  0  0  0  0  0  0  0  0  0  0  0
    7.3235   57.9523    3.9575 C   0  0  0  0  0  0  0  0  0  0  0  0
    7.8764   65.0595    1.4515 O   0  0  0  0  0  0  0  0  0  0  0  0
   11.7736   64.9652    3.2619 O   0  0  0  0  0  0  0  0  0  0  0  0
    5.3129   57.1369    2.2106 C   0  0  0  0  0  0  0  0  0  0  0  0
    5.3206   59.2905    1.2948 O   0  0  0  0  0  0  0  0  0  0  0  0
    7.0542   61.0446    4.1003 C   0  0  0  0  0  0  0  0  0  0  0  0
    7.5810   62.3340    4.1230 C   0  0  0  0  0  0  0  0  0  0  0  0
    6.8662   56.6956    4.0032 C   0  0  0  0  0  0  0  0  0  0  0  0
    5.8186   56.2806    3.1064 C   0  0  0  0  0  0  0  0  0  0  0  0
   13.3195   65.2725    5.6785 C   0  0  0  0  0  0  0  0  0  0  0  0
    7.7683   70.2877    3.9025 C   0  0  0  0  0  0  0  0  0  0  0  0
    9.4607   62.3170    0.9987 F   0  0  0  0  0  0  0  0  0  0  0  0
   15.4913   63.7427    6.6000 C   0  0  0  0  0  0  0  0  0  0  0  0
   16.7788   62.7605    7.1761 Cl  0  0  0  0  0  0  0  0  0  0  0  0
   13.7526   65.3803    7.0029 C   0  0  0  0  0  0  0  0  0  0  0  0
   14.0289   64.4234    4.8121 C   0  0  0  0  0  0  0  0  0  0  0  0
   15.1050   63.6571    5.2698 C   0  0  0  0  0  0  0  0  0  0  0  0
   14.8309   64.6134    7.4646 C   0  0  0  0  0  0  0  0  0  0  0  0
   10.4057   66.2777    1.7911 H   0  0  0  0  0  0  0  0  0  0  0  0
    9.4828   66.2250    4.7310 H   0  0  0  0  0  0  0  0  0  0  0  0
   11.3827   68.4110    4.0080 H   0  0  0  0  0  0  0  0  0  0  0  0
    9.8844   68.4558    4.9659 H   0  0  0  0  0  0  0  0  0  0  0  0
    7.8085   67.5249    2.7969 H   0  0  0  0  0  0  0  0  0  0  0  0
    8.6095   67.7337    1.2127 H   0  0  0  0  0  0  0  0  0  0  0  0
    9.7006   64.0870    3.8905 H   0  0  0  0  0  0  0  0  0  0  0  0
    8.3521   59.9862    1.1211 H   0  0  0  0  0  0  0  0  0  0  0  0
   11.7769   66.6268    5.9849 H   0  0  0  0  0  0  0  0  0  0  0  0
    8.1197   58.2885    4.6145 H   0  0  0  0  0  0  0  0  0  0  0  0
    4.5178   56.8723    1.5253 H   0  0  0  0  0  0  0  0  0  0  0  0
    6.4017   60.7151    4.9045 H   0  0  0  0  0  0  0  0  0  0  0  0
    7.3412   62.9980    4.9484 H   0  0  0  0  0  0  0  0  0  0  0  0
    7.2727   55.9727    4.7037 H   0  0  0  0  0  0  0  0  0  0  0  0
    5.4479   55.2632    3.1780 H   0  0  0  0  0  0  0  0  0  0  0  0
    7.4037   71.3166    3.9243 H   0  0  0  0  0  0  0  0  0  0  0  0
    8.0926   69.9918    4.9006 H   0  0  0  0  0  0  0  0  0  0  0  0
    6.9845   69.6275    3.5293 H   0  0  0  0  0  0  0  0  0  0  0  0
   13.2495   66.0385    7.7066 H   0  0  0  0  0  0  0  0  0  0  0  0
   13.7796   64.3268    3.7603 H   0  0  0  0  0  0  0  0  0  0  0  0
   15.6190   62.9960    4.5773 H   0  0  0  0  0  0  0  0  0  0  0  0
   15.1435   64.6854    8.5027 H   0  0  0  0  0  0  0  0  0  0  0  0
  1  4  1  0  0  0  0
  1 17  2  0  0  0  0
  1 18  2  0  0  0  0
  1 29  1  0  0  0  0
  2  3  1  0  0  0  0
  2  5  1  0  0  0  0
  2  9  1  0  0  0  0
  2 37  1  6  0  0  0
  3  7  1  0  0  0  0
  3  8  1  0  0  0  0
  3 38  1  1  0  0  0
  4  8  1  0  0  0  0
  4  9  1  0  0  0  0
  5 12  1  0  0  0  0
  5 20  2  0  0  0  0
  6 10  1  0  0  0  0
  6 11  1  0  0  0  0
  6 19  1  0  0  0  0
  7 14  1  0  0  0  0
  7 21  2  0  0  0  0
  8 39  1  0  0  0  0
  8 40  1  0  0  0  0
  9 41  1  0  0  0  0
  9 42  1  0  0  0  0
 10 22  1  0  0  0  0
 10 23  2  0  0  0  0
 11 13  2  0  0  0  0
 11 24  1  0  0  0  0
 12 15  1  0  0  0  0
 12 43  1  0  0  0  0
 13 16  1  0  0  0  0
 13 44  1  0  0  0  0
 14 28  1  0  0  0  0
 14 45  1  0  0  0  0
 15 16  2  0  0  0  0
 15 25  1  0  0  0  0
 16 30  1  0  0  0  0
 19 26  2  0  0  0  0
 19 46  1  0  0  0  0
 22 27  2  0  0  0  0
 22 47  1  0  0  0  0
 24 25  2  0  0  0  0
 24 48  1  0  0  0  0
 25 49  1  0  0  0  0
 26 27  1  0  0  0  0
 26 50  1  0  0  0  0
 27 51  1  0  0  0  0
 28 33  2  0  0  0  0
 28 34  1  0  0  0  0
 29 52  1  0  0  0  0
 29 53  1  0  0  0  0
 29 54  1  0  0  0  0
 31 32  1  0  0  0  0
 31 35  1  0  0  0  0
 31 36  2  0  0  0  0
 33 36  1  0  0  0  0
 33 55  1  0  0  0  0
 34 35  2  0  0  0  0
 34 56  1  0  0  0  0
 35 57  1  0  0  0  0
 36 58  1  0  0  0  0
M  CHG  1   6   1
M  END
$$$$
