RX3
 OpenBabel04051918363D

 78 82  0  0  1  0  0  0  0  0999 V2000
   40.1471   32.3653   42.8506 O   0  0  0  0  0  0  0  0  0  0  0  0
   39.5670   33.3649   42.3306 C   0  0  0  0  0  0  0  0  0  0  0  0
   38.4729   33.3879   41.6808 O   0  0  0  0  0  0  0  0  0  0  0  0
   40.2878   34.7487   42.4390 C   0  0  2  0  0  0  0  0  0  0  0  0
   40.7757   35.1818   41.0517 C   0  0  0  0  0  0  0  0  0  0  0  0
   41.9289   34.3707   40.5070 C   0  0  1  0  0  0  0  0  0  0  0  0
   43.3254   34.5682   40.7669 C   0  0  1  0  0  0  0  0  0  0  0  0
   44.0522   35.4980   41.5410 C   0  0  0  0  0  0  0  0  0  0  0  0
   45.4404   35.3856   41.6414 C   0  0  0  0  0  0  0  0  0  0  0  0
   46.1150   34.3765   40.9589 C   0  0  0  0  0  0  0  0  0  0  0  0
   45.4227   33.4411   40.1805 C   0  0  0  0  0  0  0  0  0  0  0  0
   44.0266   33.5560   40.1126 C   0  0  1  0  0  0  0  0  0  0  0  0
   43.0896   32.7688   39.4820 N   0  3  0  0  0  0  0  0  0  0  0  0
   41.8319   33.2614   39.6915 C   0  0  0  0  0  0  0  0  0  0  0  0
   41.3919   34.8724   43.3976 N   0  0  0  0  0  0  0  0  0  0  0  0
   41.1788   34.7247   44.7394 C   0  0  0  0  0  0  0  0  0  0  0  0
   40.0587   34.6603   45.2345 O   0  0  0  0  0  0  0  0  0  0  0  0
   42.4890   34.6693   45.5290 C   0  0  2  0  0  0  0  0  0  0  0  0
   43.2968   33.3975   45.2395 C   0  0  0  0  0  0  0  0  0  0  0  0
   43.2522   32.5432   46.4928 C   0  0  0  0  0  0  0  0  0  0  0  0
   42.6375   33.3789   47.6083 C   0  0  0  0  0  0  0  0  0  0  0  0
   42.1495   34.6879   47.0148 C   0  0  1  0  0  0  0  0  0  0  0  0
   42.4336   36.2847   47.8413 P   0  0  2  0  0  0  0  0  0  0  0  0
   41.9175   37.4012   46.9524 O   0  0  0  0  0  0  0  0  0  0  0  0
   43.8736   36.3247   48.3141 O   0  0  0  0  0  0  0  0  0  0  0  0
   41.3087   36.1572   49.3519 C   0  0  2  0  0  0  0  0  0  0  0  0
   39.9027   35.5565   49.1661 C   0  0  0  0  0  0  0  0  0  0  0  0
   38.9236   35.8476   50.3279 C   0  0  0  0  0  0  0  0  0  0  0  0
   38.6500   34.8896   51.3094 C   0  0  0  0  0  0  0  0  0  0  0  0
   37.8186   35.1713   52.3768 C   0  0  0  0  0  0  0  0  0  0  0  0
   37.2365   36.4415   52.4909 C   0  0  0  0  0  0  0  0  0  0  0  0
   37.4792   37.4092   51.5262 C   0  0  0  0  0  0  0  0  0  0  0  0
   38.3122   37.1070   50.4281 C   0  0  0  0  0  0  0  0  0  0  0  0
   41.2952   37.4580   50.0234 N   0  0  0  0  0  0  0  0  0  0  0  0
   42.2337   37.7966   50.9330 C   0  0  0  0  0  0  0  0  0  0  0  0
   43.0843   37.0596   51.4247 O   0  0  0  0  0  0  0  0  0  0  0  0
   42.0805   39.0973   51.2607 O   0  0  0  0  0  0  0  0  0  0  0  0
   43.2642   39.6750   51.7958 C   0  0  0  0  0  0  0  0  0  0  0  0
   42.9375   41.1000   52.1752 C   0  0  0  0  0  0  0  0  0  0  0  0
   42.8605   42.0821   51.1773 C   0  0  0  0  0  0  0  0  0  0  0  0
   42.6528   41.4541   53.5004 C   0  0  0  0  0  0  0  0  0  0  0  0
   42.3209   42.7723   53.8233 C   0  0  0  0  0  0  0  0  0  0  0  0
   42.2624   43.7439   52.8247 C   0  0  0  0  0  0  0  0  0  0  0  0
   42.5298   43.3977   51.5013 C   0  0  0  0  0  0  0  0  0  0  0  0
   39.5213   35.4599   42.7762 H   0  0  0  0  0  0  0  0  0  0  0  0
   41.1137   36.2249   41.1196 H   0  0  0  0  0  0  0  0  0  0  0  0
   39.9514   35.1745   40.3295 H   0  0  0  0  0  0  0  0  0  0  0  0
   43.5315   36.2744   42.0969 H   0  0  0  0  0  0  0  0  0  0  0  0
   45.9829   36.0844   42.2721 H   0  0  0  0  0  0  0  0  0  0  0  0
   47.1951   34.3071   41.0514 H   0  0  0  0  0  0  0  0  0  0  0  0
   45.9515   32.6444   39.6700 H   0  0  0  0  0  0  0  0  0  0  0  0
   43.2941   31.9249   38.9681 H   0  0  0  0  0  0  0  0  0  0  0  0
   40.9574   32.7563   39.3004 H   0  0  0  0  0  0  0  0  0  0  0  0
   42.3036   34.5960   43.0728 H   0  0  0  0  0  0  0  0  0  0  0  0
   43.0948   35.5377   45.2339 H   0  0  0  0  0  0  0  0  0  0  0  0
   44.3407   33.6435   45.0051 H   0  0  0  0  0  0  0  0  0  0  0  0
   42.9203   32.8294   44.3802 H   0  0  0  0  0  0  0  0  0  0  0  0
   44.2554   32.1967   46.7666 H   0  0  0  0  0  0  0  0  0  0  0  0
   42.6529   31.6423   46.3106 H   0  0  0  0  0  0  0  0  0  0  0  0
   43.3197   33.5056   48.4510 H   0  0  0  0  0  0  0  0  0  0  0  0
   41.7641   32.8320   47.9880 H   0  0  0  0  0  0  0  0  0  0  0  0
   41.0724   34.6379   47.1280 H   0  0  0  0  0  0  0  0  0  0  0  0
   41.8627   35.4701   49.9832 H   0  0  0  0  0  0  0  0  0  0  0  0
   40.0282   34.4683   49.1303 H   0  0  0  0  0  0  0  0  0  0  0  0
   39.4186   35.8211   48.2243 H   0  0  0  0  0  0  0  0  0  0  0  0
   39.1262   33.8974   51.2328 H   0  0  0  0  0  0  0  0  0  0  0  0
   37.6328   34.4198   53.1315 H   0  0  0  0  0  0  0  0  0  0  0  0
   36.6075   36.6719   53.3486 H   0  0  0  0  0  0  0  0  0  0  0  0
   37.0496   38.3907   51.6103 H   0  0  0  0  0  0  0  0  0  0  0  0
   38.4941   37.8732   49.6858 H   0  0  0  0  0  0  0  0  0  0  0  0
   40.8119   38.2263   49.5788 H   0  0  0  0  0  0  0  0  0  0  0  0
   44.0326   39.6748   51.0118 H   0  0  0  0  0  0  0  0  0  0  0  0
   43.6534   39.1280   52.6620 H   0  0  0  0  0  0  0  0  0  0  0  0
   43.0466   41.8110   50.1388 H   0  0  0  0  0  0  0  0  0  0  0  0
   42.6789   40.7005   54.2842 H   0  0  0  0  0  0  0  0  0  0  0  0
   42.0996   43.0389   54.8525 H   0  0  0  0  0  0  0  0  0  0  0  0
   41.9992   44.7675   53.0735 H   0  0  0  0  0  0  0  0  0  0  0  0
   42.4732   44.1449   50.7151 H   0  0  0  0  0  0  0  0  0  0  0  0
  1  2  2  0  0  0  0
  2  3  1  0  0  0  0
  2  4  1  0  0  0  0
  4  5  1  0  0  0  0
  4 15  1  0  0  0  0
  4 45  1  1  0  0  0
  5 46  1  0  0  0  0
  5 47  1  0  0  0  0
  6  5  1  1  0  0  0
  6  7  1  0  0  0  0
  6 14  1  0  0  0  0
  7  8  1  1  0  0  0
  7 12  1  0  0  0  0
  8  9  1  0  0  0  0
  8 48  1  0  0  0  0
  9 10  1  0  0  0  0
  9 49  1  0  0  0  0
 10 11  1  0  0  0  0
 10 50  1  0  0  0  0
 11 51  1  0  0  0  0
 12 11  1  1  0  0  0
 12 13  1  0  0  0  0
 13 14  1  0  0  0  0
 13 52  1  0  0  0  0
 14 53  1  0  0  0  0
 15 16  1  0  0  0  0
 15 54  1  0  0  0  0
 16 17  2  0  0  0  0
 16 18  1  0  0  0  0
 18 19  1  0  0  0  0
 18 22  1  0  0  0  0
 18 55  1  6  0  0  0
 19 20  1  0  0  0  0
 19 56  1  0  0  0  0
 19 57  1  0  0  0  0
 20 21  1  0  0  0  0
 20 58  1  0  0  0  0
 20 59  1  0  0  0  0
 21 22  1  0  0  0  0
 21 60  1  0  0  0  0
 21 61  1  0  0  0  0
 22 23  1  0  0  0  0
 22 62  1  1  0  0  0
 23 24  2  6  0  0  0
 23 25  1  0  0  0  0
 23 26  1  0  0  0  0
 26 27  1  0  0  0  0
 26 34  1  0  0  0  0
 26 63  1  1  0  0  0
 27 28  1  0  0  0  0
 27 64  1  0  0  0  0
 27 65  1  0  0  0  0
 28 29  1  0  0  0  0
 28 33  1  0  0  0  0
 29 30  1  0  0  0  0
 29 66  1  0  0  0  0
 30 31  1  0  0  0  0
 30 67  1  0  0  0  0
 31 32  1  0  0  0  0
 31 68  1  0  0  0  0
 32 33  1  0  0  0  0
 32 69  1  0  0  0  0
 33 70  1  0  0  0  0
 34 35  1  0  0  0  0
 34 71  1  0  0  0  0
 35 36  2  0  0  0  0
 35 37  1  0  0  0  0
 37 38  1  0  0  0  0
 38 39  1  0  0  0  0
 38 72  1  0  0  0  0
 38 73  1  0  0  0  0
 39 40  1  0  0  0  0
 39 41  1  0  0  0  0
 40 44  1  0  0  0  0
 40 74  1  0  0  0  0
 41 42  1  0  0  0  0
 41 75  1  0  0  0  0
 42 43  1  0  0  0  0
 42 76  1  0  0  0  0
 43 44  1  0  0  0  0
 43 77  1  0  0  0  0
 44 78  1  0  0  0  0
M  CHG  1  13   1
M  END
$$$$
