RX4
 OpenBabel04051920163D

 63 63  0  0  1  0  0  0  0  0999 V2000
   28.2167    3.2549   44.7223 C   0  0  0  0  0  0  0  0  0  0  0  0
   28.0359    4.6217   44.5539 C   0  0  0  0  0  0  0  0  0  0  0  0
   27.3282    5.0849   43.4480 C   0  0  0  0  0  0  0  0  0  0  0  0
   26.8000    4.1818   42.5190 C   0  0  0  0  0  0  0  0  0  0  0  0
   26.9887    2.8084   42.6859 C   0  0  0  0  0  0  0  0  0  0  0  0
   27.7001    2.3359   43.7929 C   0  0  0  0  0  0  0  0  0  0  0  0
   27.8063    0.8536   44.1229 C   0  0  0  0  0  0  0  0  0  0  0  0
   26.5257    0.3521   44.8092 C   0  0  2  0  0  0  0  0  0  0  0  0
   26.2480    1.1542   45.9995 N   0  0  0  0  0  0  0  0  0  0  0  0
   25.1437    1.9707   46.0526 C   0  0  0  0  0  0  0  0  0  0  0  0
   24.2747    1.9581   45.1654 O   0  0  0  0  0  0  0  0  0  0  0  0
   25.0508    2.9554   47.2366 C   0  0  2  0  0  0  0  0  0  0  0  0
   24.4687    2.3021   48.4782 C   0  0  0  0  0  0  0  0  0  0  0  0
   24.8186    3.2399   49.6276 C   0  0  0  0  0  0  0  0  0  0  0  0
   26.0373    3.2853   49.9576 O   0  0  0  0  0  0  0  0  0  0  0  0
   23.8304    3.8345   50.1532 O   0  0  0  0  0  0  0  0  0  0  0  0
   24.1603    4.0390   46.7566 N   0  0  0  0  0  0  0  0  0  0  0  0
   24.6131    5.3013   46.5216 C   0  0  0  0  0  0  0  0  0  0  0  0
   23.5895    6.2193   45.8725 C   0  0  0  0  0  0  0  0  0  0  0  0
   25.7378    5.7100   46.7814 O   0  0  0  0  0  0  0  0  0  0  0  0
   26.5040   -1.4221   45.3502 P   0  0  2  0  0  0  0  0  0  0  0  0
   25.0842   -1.8109   45.7169 O   0  0  0  0  0  0  0  0  0  0  0  0
   27.6280   -1.6483   46.3405 O   0  0  0  0  0  0  0  0  0  0  0  0
   26.8798   -2.3138   43.7865 C   0  0  0  0  0  0  0  0  0  0  0  0
   27.3961   -3.7448   43.9968 C   0  0  1  0  0  0  0  0  0  0  0  0
   27.0664   -4.6556   42.7965 C   0  0  0  0  0  0  0  0  0  0  0  0
   28.9144   -3.6643   44.1230 C   0  0  0  0  0  0  0  0  0  0  0  0
   29.5924   -2.7749   43.5767 O   0  0  0  0  0  0  0  0  0  0  0  0
   29.5406   -4.7363   44.7104 N   0  0  0  0  0  0  0  0  0  0  0  0
   30.9924   -4.7968   44.6653 C   0  0  1  0  0  0  0  0  0  0  0  0
   31.5127   -5.9674   45.4870 C   0  0  0  0  0  0  0  0  0  0  0  0
   31.4141   -4.9761   43.1853 C   0  0  0  0  0  0  0  0  0  0  0  0
   30.7212   -5.5096   42.3232 O   0  0  0  0  0  0  0  0  0  0  0  0
   32.7037   -4.6014   42.8874 N   0  0  0  0  0  0  0  0  0  0  0  0
   28.7062    2.8888   45.6241 H   0  0  0  0  0  0  0  0  0  0  0  0
   28.4134    5.3107   45.3064 H   0  0  0  0  0  0  0  0  0  0  0  0
   27.1706    6.1518   43.3272 H   0  0  0  0  0  0  0  0  0  0  0  0
   26.2227    4.5569   41.6793 H   0  0  0  0  0  0  0  0  0  0  0  0
   26.5284    2.1075   41.9842 H   0  0  0  0  0  0  0  0  0  0  0  0
   28.6774    0.6907   44.7706 H   0  0  0  0  0  0  0  0  0  0  0  0
   28.0165    0.3081   43.1979 H   0  0  0  0  0  0  0  0  0  0  0  0
   25.7033    0.4804   44.0962 H   0  0  0  0  0  0  0  0  0  0  0  0
   26.8586    1.0273   46.8102 H   0  0  0  0  0  0  0  0  0  0  0  0
   26.0513    3.3498   47.4233 H   0  0  0  0  0  0  0  0  0  0  0  0
   24.8997    1.3118   48.6621 H   0  0  0  0  0  0  0  0  0  0  0  0
   23.3824    2.1754   48.3928 H   0  0  0  0  0  0  0  0  0  0  0  0
   23.2775    3.7314   46.3791 H   0  0  0  0  0  0  0  0  0  0  0  0
   24.0193    7.2154   45.7762 H   0  0  0  0  0  0  0  0  0  0  0  0
   22.6942    6.2580   46.4974 H   0  0  0  0  0  0  0  0  0  0  0  0
   23.3468    5.8500   44.8775 H   0  0  0  0  0  0  0  0  0  0  0  0
   27.6246   -1.7321   43.2436 H   0  0  0  0  0  0  0  0  0  0  0  0
   25.9767   -2.3017   43.1740 H   0  0  0  0  0  0  0  0  0  0  0  0
   26.9525   -4.1727   44.9044 H   0  0  0  0  0  0  0  0  0  0  0  0
   27.3970   -5.6874   42.9721 H   0  0  0  0  0  0  0  0  0  0  0  0
   27.5741   -4.3141   41.8862 H   0  0  0  0  0  0  0  0  0  0  0  0
   25.9916   -4.6917   42.5820 H   0  0  0  0  0  0  0  0  0  0  0  0
   28.9901   -5.4995   45.0765 H   0  0  0  0  0  0  0  0  0  0  0  0
   31.4005   -3.8557   45.0645 H   0  0  0  0  0  0  0  0  0  0  0  0
   32.6068   -5.9975   45.5126 H   0  0  0  0  0  0  0  0  0  0  0  0
   31.1644   -6.9163   45.0659 H   0  0  0  0  0  0  0  0  0  0  0  0
   31.1510   -5.9113   46.5199 H   0  0  0  0  0  0  0  0  0  0  0  0
   32.9680   -4.6095   41.9138 H   0  0  0  0  0  0  0  0  0  0  0  0
   33.2624   -4.0610   43.5285 H   0  0  0  0  0  0  0  0  0  0  0  0
  1  2  2  0  0  0  0
  1  6  1  0  0  0  0
  1 35  1  0  0  0  0
  2  3  1  0  0  0  0
  2 36  1  0  0  0  0
  3  4  2  0  0  0  0
  3 37  1  0  0  0  0
  4  5  1  0  0  0  0
  4 38  1  0  0  0  0
  5  6  2  0  0  0  0
  5 39  1  0  0  0  0
  6  7  1  0  0  0  0
  7  8  1  0  0  0  0
  7 40  1  0  0  0  0
  7 41  1  0  0  0  0
  8  9  1  0  0  0  0
  8 21  1  0  0  0  0
  8 42  1  6  0  0  0
  9 10  1  0  0  0  0
  9 43  1  0  0  0  0
 10 11  2  0  0  0  0
 10 12  1  0  0  0  0
 12 13  1  0  0  0  0
 12 17  1  0  0  0  0
 12 44  1  1  0  0  0
 13 14  1  0  0  0  0
 13 45  1  0  0  0  0
 13 46  1  0  0  0  0
 14 15  2  0  0  0  0
 14 16  1  0  0  0  0
 17 18  1  0  0  0  0
 17 47  1  0  0  0  0
 18 19  1  0  0  0  0
 18 20  2  0  0  0  0
 19 48  1  0  0  0  0
 19 49  1  0  0  0  0
 19 50  1  0  0  0  0
 21 22  2  1  0  0  0
 21 23  1  0  0  0  0
 21 24  1  0  0  0  0
 24 25  1  0  0  0  0
 24 51  1  0  0  0  0
 24 52  1  0  0  0  0
 25 26  1  0  0  0  0
 25 27  1  0  0  0  0
 25 53  1  1  0  0  0
 26 54  1  0  0  0  0
 26 55  1  0  0  0  0
 26 56  1  0  0  0  0
 27 28  2  0  0  0  0
 27 29  1  0  0  0  0
 29 30  1  0  0  0  0
 29 57  1  0  0  0  0
 30 31  1  0  0  0  0
 30 32  1  0  0  0  0
 30 58  1  1  0  0  0
 31 59  1  0  0  0  0
 31 60  1  0  0  0  0
 31 61  1  0  0  0  0
 32 33  2  0  0  0  0
 32 34  1  0  0  0  0
 34 62  1  0  0  0  0
 34 63  1  0  0  0  0
M  END
$$$$
