S23
 OpenBabel04051921083D

 55 56  0  0  1  0  0  0  0  0999 V2000
   71.7585   44.9429    6.4300 O   0  0  0  0  0  0  0  0  0  0  0  0
   72.2333   46.0749    7.3076 P   0  0  2  0  0  0  0  0  0  0  0  0
   73.5675   45.9756    8.0153 O   0  0  0  0  0  0  0  0  0  0  0  0
   71.0659   45.9694    8.7579 C   0  0  1  0  0  0  0  0  0  0  0  0
   71.4257   44.7191    9.5150 N   0  3  0  0  0  0  0  0  0  0  0  0
   71.1492   47.1174    9.7413 C   0  0  0  0  0  0  0  0  0  0  0  0
   71.8660   47.6935    6.6510 C   0  0  0  0  0  0  0  0  0  0  0  0
   72.9194   48.1822    5.6708 C   0  0  1  0  0  0  0  0  0  0  0  0
   72.5940   47.7457    4.2404 C   0  0  0  0  0  0  0  0  0  0  0  0
   73.6523   48.2003    3.2668 C   0  0  0  0  0  0  0  0  0  0  0  0
   74.7894   47.4162    3.0550 C   0  0  0  0  0  0  0  0  0  0  0  0
   75.8061   47.8714    2.2184 C   0  0  0  0  0  0  0  0  0  0  0  0
   75.7030   49.1215    1.6074 C   0  0  0  0  0  0  0  0  0  0  0  0
   74.5837   49.9182    1.8316 C   0  0  0  0  0  0  0  0  0  0  0  0
   73.5581   49.4579    2.6513 C   0  0  0  0  0  0  0  0  0  0  0  0
   72.9738   49.6988    5.7418 C   0  0  0  0  0  0  0  0  0  0  0  0
   71.9778   50.3785    5.5355 O   0  0  0  0  0  0  0  0  0  0  0  0
   74.2149   50.1821    6.0382 N   0  0  0  0  0  0  0  0  0  0  0  0
   74.5993   51.5784    5.8142 C   0  0  2  0  0  0  0  0  0  0  0  0
   75.9608   51.7134    5.0666 C   0  0  0  0  0  0  0  0  0  0  0  0
   76.0914   52.7524    4.3570 O   0  0  0  0  0  0  0  0  0  0  0  0
   76.7821   50.7688    5.2761 O   0  0  0  0  0  0  0  0  0  0  0  0
   74.7946   52.2959    7.1523 C   0  0  0  0  0  0  0  0  0  0  0  0
   73.5289   52.3264    7.9887 C   0  0  0  0  0  0  0  0  0  0  0  0
   72.5838   53.3420    7.8019 C   0  0  0  0  0  0  0  0  0  0  0  0
   71.4068   53.3573    8.5519 C   0  0  0  0  0  0  0  0  0  0  0  0
   71.1557   52.3487    9.4820 C   0  0  0  0  0  0  0  0  0  0  0  0
   72.0767   51.3172    9.6556 C   0  0  0  0  0  0  0  0  0  0  0  0
   73.2590   51.3080    8.9151 C   0  0  0  0  0  0  0  0  0  0  0  0
   70.0495   45.8336    8.3733 H   0  0  0  0  0  0  0  0  0  0  0  0
   70.8696   44.5406   10.3424 H   0  0  0  0  0  0  0  0  0  0  0  0
   71.4022   43.9635    8.8147 H   0  0  0  0  0  0  0  0  0  0  0  0
   70.5082   46.9331   10.6096 H   0  0  0  0  0  0  0  0  0  0  0  0
   70.8148   48.0529    9.2922 H   0  0  0  0  0  0  0  0  0  0  0  0
   72.1756   47.2640   10.0947 H   0  0  0  0  0  0  0  0  0  0  0  0
   71.8057   48.4011    7.4837 H   0  0  0  0  0  0  0  0  0  0  0  0
   70.8606   47.6807    6.1993 H   0  0  0  0  0  0  0  0  0  0  0  0
   73.8926   47.7674    5.9682 H   0  0  0  0  0  0  0  0  0  0  0  0
   71.6227   48.1477    3.9219 H   0  0  0  0  0  0  0  0  0  0  0  0
   72.5002   46.6552    4.1899 H   0  0  0  0  0  0  0  0  0  0  0  0
   74.8996   46.4648    3.5700 H   0  0  0  0  0  0  0  0  0  0  0  0
   76.6966   47.2691    2.0741 H   0  0  0  0  0  0  0  0  0  0  0  0
   76.5145   49.4947    0.9913 H   0  0  0  0  0  0  0  0  0  0  0  0
   74.5315   50.9189    1.4084 H   0  0  0  0  0  0  0  0  0  0  0  0
   72.7125   50.1124    2.8577 H   0  0  0  0  0  0  0  0  0  0  0  0
   75.0192   49.5562    6.1093 H   0  0  0  0  0  0  0  0  0  0  0  0
   73.8180   52.0581    5.2150 H   0  0  0  0  0  0  0  0  0  0  0  0
   75.1318   53.3224    6.9825 H   0  0  0  0  0  0  0  0  0  0  0  0
   75.5901   51.8104    7.7348 H   0  0  0  0  0  0  0  0  0  0  0  0
   72.7596   54.1123    7.0547 H   0  0  0  0  0  0  0  0  0  0  0  0
   70.6826   54.1508    8.3962 H   0  0  0  0  0  0  0  0  0  0  0  0
   70.2372   52.3625   10.0596 H   0  0  0  0  0  0  0  0  0  0  0  0
   71.8751   50.5153   10.3578 H   0  0  0  0  0  0  0  0  0  0  0  0
   73.9658   50.4889    9.0339 H   0  0  0  0  0  0  0  0  0  0  0  0
   72.4413   44.8335    9.7031 H   0  0  0  0  0  0  0  0  0  0  0  0
  2  1  2  6  0  0  0
  2  3  1  0  0  0  0
  2  4  1  0  0  0  0
  2  7  1  0  0  0  0
  4  5  1  0  0  0  0
  4  6  1  0  0  0  0
  4 30  1  6  0  0  0
  5 31  1  0  0  0  0
  5 32  1  0  0  0  0
  5 55  1  0  0  0  0
  6 33  1  0  0  0  0
  6 34  1  0  0  0  0
  6 35  1  0  0  0  0
  7  8  1  0  0  0  0
  7 36  1  0  0  0  0
  7 37  1  0  0  0  0
  8  9  1  0  0  0  0
  8 16  1  0  0  0  0
  8 38  1  1  0  0  0
  9 10  1  0  0  0  0
  9 39  1  0  0  0  0
  9 40  1  0  0  0  0
 10 11  2  0  0  0  0
 10 15  1  0  0  0  0
 11 12  1  0  0  0  0
 11 41  1  0  0  0  0
 12 13  2  0  0  0  0
 12 42  1  0  0  0  0
 13 14  1  0  0  0  0
 13 43  1  0  0  0  0
 14 15  2  0  0  0  0
 14 44  1  0  0  0  0
 15 45  1  0  0  0  0
 16 17  2  0  0  0  0
 16 18  1  0  0  0  0
 18 19  1  0  0  0  0
 18 46  1  0  0  0  0
 19 20  1  0  0  0  0
 19 23  1  0  0  0  0
 19 47  1  6  0  0  0
 20 21  2  0  0  0  0
 20 22  1  0  0  0  0
 23 24  1  0  0  0  0
 23 48  1  0  0  0  0
 23 49  1  0  0  0  0
 24 25  2  0  0  0  0
 24 29  1  0  0  0  0
 25 26  1  0  0  0  0
 25 50  1  0  0  0  0
 26 27  2  0  0  0  0
 26 51  1  0  0  0  0
 27 28  1  0  0  0  0
 27 52  1  0  0  0  0
 28 29  2  0  0  0  0
 28 53  1  0  0  0  0
 29 54  1  0  0  0  0
M  CHG  1   5   1
M  END
$$$$
