S79
 OpenBabel04051919153D

 43 47  0  0  0  0  0  0  0  0999 V2000
   14.0772   15.8647   24.9764 N   0  0  0  0  0  0  0  0  0  0  0  0
   14.9311   16.2312   23.9915 C   0  0  0  0  0  0  0  0  0  0  0  0
   14.5836   16.1573   22.7449 N   0  0  0  0  0  0  0  0  0  0  0  0
   15.5088   16.5559   21.7598 C   0  0  0  0  0  0  0  0  0  0  0  0
   15.1358   16.4808   20.4144 C   0  0  0  0  0  0  0  0  0  0  0  0
   16.0537   16.8661   19.4255 C   0  0  0  0  0  0  0  0  0  0  0  0
   15.8984   16.8690   18.0722 N   0  0  0  0  0  0  0  0  0  0  0  0
   17.0385   17.2839   17.5817 C   0  0  0  0  0  0  0  0  0  0  0  0
   17.3022   17.4799   16.2836 N   0  0  0  0  0  0  0  0  0  0  0  0
   16.1327   17.6238   15.4291 C   0  0  0  0  0  0  0  0  0  0  0  0
   16.4561   18.4033   14.1808 C   0  0  0  0  0  0  0  0  0  0  0  0
   16.9194   19.7445   14.2363 C   0  0  0  0  0  0  0  0  0  0  0  0
   17.1236   20.4442   15.4466 C   0  0  0  0  0  0  0  0  0  0  0  0
   17.6097   21.7478   15.4675 C   0  0  0  0  0  0  0  0  0  0  0  0
   17.8798   22.3976   14.2727 C   0  0  0  0  0  0  0  0  0  0  0  0
   17.6694   21.7419   13.0601 C   0  0  0  0  0  0  0  0  0  0  0  0
   17.1932   20.4214   13.0260 C   0  0  0  0  0  0  0  0  0  0  0  0
   16.9851   19.7693   11.8016 C   0  0  0  0  0  0  0  0  0  0  0  0
   16.5096   18.4612   11.7579 C   0  0  0  0  0  0  0  0  0  0  0  0
   16.2441   17.7830   12.9400 C   0  0  0  0  0  0  0  0  0  0  0  0
   17.9351   17.5849   18.5726 N   0  3  0  0  0  0  0  0  0  0  0  0
   17.3192   17.3216   19.7764 C   0  0  0  0  0  0  0  0  0  0  0  0
   17.7286   17.4274   21.1043 C   0  0  0  0  0  0  0  0  0  0  0  0
   16.7898   17.0259   22.0787 C   0  0  0  0  0  0  0  0  0  0  0  0
   17.1350   17.0850   23.5072 C   0  0  0  0  0  0  0  0  0  0  0  0
   18.2355   17.4790   23.8943 O   0  0  0  0  0  0  0  0  0  0  0  0
   16.1586   16.6776   24.3776 N   0  3  0  0  0  0  0  0  0  0  0  0
   13.1656   15.5191   24.7060 H   0  0  0  0  0  0  0  0  0  0  0  0
   14.3011   15.8869   25.9575 H   0  0  0  0  0  0  0  0  0  0  0  0
   14.1581   16.1235   20.1118 H   0  0  0  0  0  0  0  0  0  0  0  0
   18.2134   17.6230   15.8651 H   0  0  0  0  0  0  0  0  0  0  0  0
   15.3224   18.1620   15.9428 H   0  0  0  0  0  0  0  0  0  0  0  0
   15.7475   16.6273   15.1880 H   0  0  0  0  0  0  0  0  0  0  0  0
   16.9011   19.9797   16.4039 H   0  0  0  0  0  0  0  0  0  0  0  0
   17.7653   22.2481   16.4185 H   0  0  0  0  0  0  0  0  0  0  0  0
   18.2471   23.4192   14.2836 H   0  0  0  0  0  0  0  0  0  0  0  0
   17.8817   22.2709   12.1347 H   0  0  0  0  0  0  0  0  0  0  0  0
   17.1892   20.2826   10.8647 H   0  0  0  0  0  0  0  0  0  0  0  0
   16.3450   17.9720   10.8022 H   0  0  0  0  0  0  0  0  0  0  0  0
   15.8624   16.7646   12.8964 H   0  0  0  0  0  0  0  0  0  0  0  0
   18.8536   17.9787   18.4366 H   0  0  0  0  0  0  0  0  0  0  0  0
   18.7156   17.7850   21.3745 H   0  0  0  0  0  0  0  0  0  0  0  0
   16.3963   16.7199   25.3551 H   0  0  0  0  0  0  0  0  0  0  0  0
  1  2  1  0  0  0  0
  1 28  1  0  0  0  0
  1 29  1  0  0  0  0
  2  3  2  0  0  0  0
  2 27  1  0  0  0  0
  3  4  1  0  0  0  0
  4  5  2  0  0  0  0
  4 24  1  0  0  0  0
  5  6  1  0  0  0  0
  5 30  1  0  0  0  0
  6  7  1  0  0  0  0
  6 22  2  0  0  0  0
  7  8  1  0  0  0  0
  8  9  1  0  0  0  0
  8 21  2  0  0  0  0
  9 10  1  0  0  0  0
  9 31  1  0  0  0  0
 10 11  1  0  0  0  0
 10 32  1  0  0  0  0
 10 33  1  0  0  0  0
 11 12  2  0  0  0  0
 11 20  1  0  0  0  0
 12 13  1  0  0  0  0
 12 17  1  0  0  0  0
 13 14  2  0  0  0  0
 13 34  1  0  0  0  0
 14 15  1  0  0  0  0
 14 35  1  0  0  0  0
 15 16  2  0  0  0  0
 15 36  1  0  0  0  0
 16 17  1  0  0  0  0
 16 37  1  0  0  0  0
 17 18  2  0  0  0  0
 18 19  1  0  0  0  0
 18 38  1  0  0  0  0
 19 20  2  0  0  0  0
 19 39  1  0  0  0  0
 20 40  1  0  0  0  0
 21 22  1  0  0  0  0
 21 41  1  0  0  0  0
 22 23  1  0  0  0  0
 23 24  2  0  0  0  0
 23 42  1  0  0  0  0
 24 25  1  0  0  0  0
 25 26  2  0  0  0  0
 25 27  1  0  0  0  0
 27 43  1  0  0  0  0
M  CHG  2  21   1  27   1
M  END
$$$$
