SAH
 OpenBabel04051917153D

 46 48  0  0  1  0  0  0  0  0999 V2000
   18.6996   40.4392    7.5784 N   0  3  0  0  0  0  0  0  0  0  0  0
   19.8787   39.6728    8.1519 C   0  0  1  0  0  0  0  0  0  0  0  0
   21.0532   40.6158    8.4186 C   0  0  0  0  0  0  0  0  0  0  0  0
   20.8488   41.6552    9.5224 C   0  0  0  0  0  0  0  0  0  0  0  0
   22.4695   42.3677   10.0082 S   0  0  0  0  0  0  0  0  0  0  0  0
   19.4584   38.7486    9.3303 C   0  0  0  0  0  0  0  0  0  0  0  0
   18.1971   38.5915    9.3486 O   0  0  0  0  0  0  0  0  0  0  0  0
   20.3707   38.3346   10.0788 O   0  0  0  0  0  0  0  0  0  0  0  0
   22.2477   44.1155    9.5446 C   0  0  0  0  0  0  0  0  0  0  0  0
   22.3058   44.3756    8.0436 C   0  0  1  0  0  0  0  0  0  0  0  0
   21.9811   45.7656    7.7955 O   0  0  0  0  0  0  0  0  0  0  0  0
   23.6686   44.1091    7.3712 C   0  0  1  0  0  0  0  0  0  0  0  0
   23.5122   43.1157    6.3486 O   0  0  0  0  0  0  0  0  0  0  0  0
   24.0649   45.4669    6.7755 C   0  0  1  0  0  0  0  0  0  0  0  0
   24.8005   45.3857    5.5629 O   0  0  0  0  0  0  0  0  0  0  0  0
   22.6966   46.1211    6.6062 C   0  0  2  0  0  0  0  0  0  0  0  0
   22.6706   47.5528    6.4099 N   0  3  0  0  0  0  0  0  0  0  0  0
   23.4641   48.5015    6.9931 C   0  0  0  0  0  0  0  0  0  0  0  0
   23.1967   49.7113    6.5422 N   0  0  0  0  0  0  0  0  0  0  0  0
   22.1819   49.5314    5.6320 C   0  0  0  0  0  0  0  0  0  0  0  0
   21.4577   50.4392    4.8242 C   0  0  0  0  0  0  0  0  0  0  0  0
   21.7032   51.7851    4.8430 N   0  0  0  0  0  0  0  0  0  0  0  0
   20.4985   49.9503    4.0112 N   0  0  0  0  0  0  0  0  0  0  0  0
   20.2837   48.6197    4.0172 C   0  0  0  0  0  0  0  0  0  0  0  0
   20.9007   47.6535    4.7297 N   0  0  0  0  0  0  0  0  0  0  0  0
   21.8380   48.1922    5.5269 C   0  0  0  0  0  0  0  0  0  0  0  0
   17.9507   39.7276    7.4870 H   0  0  0  0  0  0  0  0  0  0  0  0
   18.3189   41.0742    8.2872 H   0  0  0  0  0  0  0  0  0  0  0  0
   20.1695   38.9992    7.3364 H   0  0  0  0  0  0  0  0  0  0  0  0
   21.3052   41.1364    7.4863 H   0  0  0  0  0  0  0  0  0  0  0  0
   21.9147   39.9875    8.6724 H   0  0  0  0  0  0  0  0  0  0  0  0
   20.4056   41.2071   10.4158 H   0  0  0  0  0  0  0  0  0  0  0  0
   20.1831   42.4534    9.1801 H   0  0  0  0  0  0  0  0  0  0  0  0
   23.0256   44.7042   10.0427 H   0  0  0  0  0  0  0  0  0  0  0  0
   21.2934   44.4700    9.9471 H   0  0  0  0  0  0  0  0  0  0  0  0
   21.5218   43.7903    7.5474 H   0  0  0  0  0  0  0  0  0  0  0  0
   24.4274   43.7443    8.0719 H   0  0  0  0  0  0  0  0  0  0  0  0
   22.8579   43.4125    5.6981 H   0  0  0  0  0  0  0  0  0  0  0  0
   24.6747   46.0028    7.5101 H   0  0  0  0  0  0  0  0  0  0  0  0
   24.2693   44.9327    4.8863 H   0  0  0  0  0  0  0  0  0  0  0  0
   22.1789   45.6711    5.7513 H   0  0  0  0  0  0  0  0  0  0  0  0
   24.2271   48.2791    7.7330 H   0  0  0  0  0  0  0  0  0  0  0  0
   21.1645   52.3883    4.2456 H   0  0  0  0  0  0  0  0  0  0  0  0
   22.4337   52.1414    5.4475 H   0  0  0  0  0  0  0  0  0  0  0  0
   19.4843   48.2729    3.3426 H   0  0  0  0  0  0  0  0  0  0  0  0
   18.8882   40.8913    6.6849 H   0  0  0  0  0  0  0  0  0  0  0  0
  1  2  1  0  0  0  0
  1 27  1  0  0  0  0
  1 28  1  0  0  0  0
  1 46  1  0  0  0  0
  2  3  1  0  0  0  0
  2  6  1  0  0  0  0
  2 29  1  6  0  0  0
  3  4  1  0  0  0  0
  3 30  1  0  0  0  0
  3 31  1  0  0  0  0
  4  5  1  0  0  0  0
  4 32  1  0  0  0  0
  4 33  1  0  0  0  0
  5  9  1  0  0  0  0
  6  7  2  0  0  0  0
  6  8  1  0  0  0  0
  9 10  1  0  0  0  0
  9 34  1  0  0  0  0
  9 35  1  0  0  0  0
 10 11  1  0  0  0  0
 10 12  1  0  0  0  0
 10 36  1  6  0  0  0
 11 16  1  0  0  0  0
 12 13  1  0  0  0  0
 12 14  1  0  0  0  0
 12 37  1  1  0  0  0
 13 38  1  0  0  0  0
 14 15  1  0  0  0  0
 14 16  1  0  0  0  0
 14 39  1  1  0  0  0
 15 40  1  0  0  0  0
 16 17  1  0  0  0  0
 16 41  1  6  0  0  0
 17 18  2  0  0  0  0
 17 26  1  0  0  0  0
 18 19  1  0  0  0  0
 18 42  1  0  0  0  0
 19 20  1  0  0  0  0
 20 21  2  0  0  0  0
 20 26  1  0  0  0  0
 21 22  1  0  0  0  0
 21 23  1  0  0  0  0
 22 43  1  0  0  0  0
 22 44  1  0  0  0  0
 23 24  2  0  0  0  0
 24 25  1  0  0  0  0
 24 45  1  0  0  0  0
 25 26  2  0  0  0  0
M  CHG  2   1   1  17   1
M  END
$$$$
