SAH
 OpenBabel04051920073D

 46 48  0  0  1  0  0  0  0  0999 V2000
   17.4756  -42.1284    7.0665 N   0  3  0  0  0  0  0  0  0  0  0  0
   17.6599  -43.2379    6.0425 C   0  0  1  0  0  0  0  0  0  0  0  0
   16.2739  -43.6541    5.5523 C   0  0  0  0  0  0  0  0  0  0  0  0
   16.2840  -45.0493    4.9185 C   0  0  0  0  0  0  0  0  0  0  0  0
   14.5719  -45.4978    4.4655 S   0  0  0  0  0  0  0  0  0  0  0  0
   18.4955  -42.7076    4.8415 C   0  0  0  0  0  0  0  0  0  0  0  0
   18.5231  -41.4379    4.8428 O   0  0  0  0  0  0  0  0  0  0  0  0
   19.0547  -43.5695    4.1308 O   0  0  0  0  0  0  0  0  0  0  0  0
   14.8014  -47.2878    4.1108 C   0  0  0  0  0  0  0  0  0  0  0  0
   14.4219  -48.2067    5.2804 C   0  0  1  0  0  0  0  0  0  0  0  0
   15.2271  -47.9204    6.4336 O   0  0  0  0  0  0  0  0  0  0  0  0
   12.9595  -48.1187    5.7293 C   0  0  1  0  0  0  0  0  0  0  0  0
   12.1520  -49.0613    5.0307 O   0  0  0  0  0  0  0  0  0  0  0  0
   13.0073  -48.3500    7.2404 C   0  0  1  0  0  0  0  0  0  0  0  0
   12.3128  -49.5205    7.6664 O   0  0  0  0  0  0  0  0  0  0  0  0
   14.5071  -48.4279    7.5724 C   0  0  2  0  0  0  0  0  0  0  0  0
   14.8720  -47.6157    8.7099 N   0  3  0  0  0  0  0  0  0  0  0  0
   14.8545  -46.2449    8.7565 C   0  0  0  0  0  0  0  0  0  0  0  0
   15.2066  -45.7762    9.9369 N   0  0  0  0  0  0  0  0  0  0  0  0
   15.4750  -46.9064   10.6875 C   0  0  0  0  0  0  0  0  0  0  0  0
   15.8978  -47.0756   12.0187 C   0  0  0  0  0  0  0  0  0  0  0  0
   16.1537  -46.0133   12.8654 N   0  0  0  0  0  0  0  0  0  0  0  0
   16.0820  -48.3340   12.4828 N   0  0  0  0  0  0  0  0  0  0  0  0
   15.8661  -49.3694   11.6405 C   0  0  0  0  0  0  0  0  0  0  0  0
   15.4566  -49.3299   10.3502 N   0  0  0  0  0  0  0  0  0  0  0  0
   15.2778  -48.0605    9.9442 C   0  0  0  0  0  0  0  0  0  0  0  0
   18.4164  -41.8046    7.3258 H   0  0  0  0  0  0  0  0  0  0  0  0
   17.1115  -41.3228    6.5304 H   0  0  0  0  0  0  0  0  0  0  0  0
   18.1845  -44.0405    6.5676 H   0  0  0  0  0  0  0  0  0  0  0  0
   15.8998  -42.9214    4.8249 H   0  0  0  0  0  0  0  0  0  0  0  0
   15.5742  -43.6495    6.3982 H   0  0  0  0  0  0  0  0  0  0  0  0
   16.6750  -45.7770    5.6359 H   0  0  0  0  0  0  0  0  0  0  0  0
   16.9025  -45.0741    4.0162 H   0  0  0  0  0  0  0  0  0  0  0  0
   15.8467  -47.4513    3.8271 H   0  0  0  0  0  0  0  0  0  0  0  0
   14.1810  -47.5300    3.2410 H   0  0  0  0  0  0  0  0  0  0  0  0
   14.6468  -49.2378    4.9758 H   0  0  0  0  0  0  0  0  0  0  0  0
   12.5433  -47.1241    5.5352 H   0  0  0  0  0  0  0  0  0  0  0  0
   11.2192  -48.8831    5.2370 H   0  0  0  0  0  0  0  0  0  0  0  0
   12.5310  -47.5024    7.7474 H   0  0  0  0  0  0  0  0  0  0  0  0
   11.3983  -49.4679    7.3414 H   0  0  0  0  0  0  0  0  0  0  0  0
   14.8307  -49.4587    7.7537 H   0  0  0  0  0  0  0  0  0  0  0  0
   14.5724  -45.6488    7.9008 H   0  0  0  0  0  0  0  0  0  0  0  0
   16.2561  -46.2421   13.8429 H   0  0  0  0  0  0  0  0  0  0  0  0
   15.8007  -45.1100   12.5818 H   0  0  0  0  0  0  0  0  0  0  0  0
   16.0462  -50.3587   12.0473 H   0  0  0  0  0  0  0  0  0  0  0  0
   16.9120  -42.3630    7.8819 H   0  0  0  0  0  0  0  0  0  0  0  0
  1  2  1  0  0  0  0
  1 27  1  0  0  0  0
  1 28  1  0  0  0  0
  1 46  1  0  0  0  0
  2  3  1  0  0  0  0
  2  6  1  0  0  0  0
  2 29  1  1  0  0  0
  3  4  1  0  0  0  0
  3 30  1  0  0  0  0
  3 31  1  0  0  0  0
  4  5  1  0  0  0  0
  4 32  1  0  0  0  0
  4 33  1  0  0  0  0
  5  9  1  0  0  0  0
  6  7  2  0  0  0  0
  6  8  1  0  0  0  0
  9 10  1  0  0  0  0
  9 34  1  0  0  0  0
  9 35  1  0  0  0  0
 10 11  1  0  0  0  0
 10 12  1  0  0  0  0
 10 36  1  6  0  0  0
 11 16  1  0  0  0  0
 12 13  1  0  0  0  0
 12 14  1  0  0  0  0
 12 37  1  6  0  0  0
 13 38  1  0  0  0  0
 14 15  1  0  0  0  0
 14 16  1  0  0  0  0
 14 39  1  1  0  0  0
 15 40  1  0  0  0  0
 16 17  1  0  0  0  0
 16 41  1  1  0  0  0
 17 18  2  0  0  0  0
 17 26  1  0  0  0  0
 18 19  1  0  0  0  0
 18 42  1  0  0  0  0
 19 20  1  0  0  0  0
 20 21  2  0  0  0  0
 20 26  1  0  0  0  0
 21 22  1  0  0  0  0
 21 23  1  0  0  0  0
 22 43  1  0  0  0  0
 22 44  1  0  0  0  0
 23 24  2  0  0  0  0
 24 25  1  0  0  0  0
 24 45  1  0  0  0  0
 25 26  2  0  0  0  0
M  CHG  2   1   1  17   1
M  END
$$$$
