SAT
 OpenBabel04051919253D

 10  9  0  0  0  0  0  0  0  0999 V2000
    2.2573   -3.8286    9.0992 O   0  0  0  0  0  0  0  0  0  0  0  0
    1.6533   -4.8219    8.2097 S   0  0  0  0  0  0  0  0  0  0  0  0
    0.1838   -4.8246    8.2908 O   0  0  0  0  0  0  0  0  0  0  0  0
    2.1361   -4.7823    6.8291 O   0  0  0  0  0  0  0  0  0  0  0  0
    2.0710   -6.3956    8.8765 C   0  0  0  0  0  0  0  0  0  0  0  0
    3.5213   -6.7472    8.7010 C   0  0  0  0  0  0  0  0  0  0  0  0
    3.8209   -7.4261    7.6672 O   0  0  0  0  0  0  0  0  0  0  0  0
    4.2656   -6.5830    9.7213 O   0  0  0  0  0  0  0  0  0  0  0  0
    1.4432   -7.1477    8.3849 H   0  0  0  0  0  0  0  0  0  0  0  0
    1.7991   -6.3860    9.9369 H   0  0  0  0  0  0  0  0  0  0  0  0
  1  2  2  0  0  0  0
  2  3  2  0  0  0  0
  2  4  1  0  0  0  0
  2  5  1  0  0  0  0
  5  6  1  0  0  0  0
  5  9  1  0  0  0  0
  5 10  1  0  0  0  0
  6  7  2  0  0  0  0
  6  8  1  0  0  0  0
M  END
$$$$
