SB2
 OpenBabel04051917453D

 43 46  0  0  0  0  0  0  0  0999 V2000
   -0.3594    9.2086   23.9620 O   0  0  0  0  0  0  0  0  0  0  0  0
   -1.4209   10.4851   21.8553 C   0  0  0  0  0  0  0  0  0  0  0  0
   -1.6894    9.4398   23.3056 S   0  0  1  0  0  0  0  0  0  0  0  0
   -2.4581    5.4281   22.9288 C   0  0  0  0  0  0  0  0  0  0  0  0
   -2.0423    6.6907   23.3948 C   0  0  0  0  0  0  0  0  0  0  0  0
   -2.1709    7.8361   22.5975 C   0  0  0  0  0  0  0  0  0  0  0  0
   -2.7518    7.6846   21.3359 C   0  0  0  0  0  0  0  0  0  0  0  0
   -3.1657    6.4133   20.8682 C   0  0  0  0  0  0  0  0  0  0  0  0
   -3.0251    5.2590   21.6554 C   0  0  0  0  0  0  0  0  0  0  0  0
   -3.6229   -2.2940   22.7493 N   0  0  0  0  0  0  0  0  0  0  0  0
   -4.0689   -1.2603   23.4920 C   0  0  0  0  0  0  0  0  0  0  0  0
   -4.1513    0.0536   23.0276 C   0  0  0  0  0  0  0  0  0  0  0  0
   -3.7758    0.3486   21.7042 C   0  0  0  0  0  0  0  0  0  0  0  0
   -3.2868   -0.7176   20.9392 C   0  0  0  0  0  0  0  0  0  0  0  0
   -3.2327   -1.9949   21.4936 C   0  0  0  0  0  0  0  0  0  0  0  0
   -3.3589    2.7957   21.9560 N   0  0  0  0  0  0  0  0  0  0  0  0
   -3.4484    3.8997   21.2276 C   0  0  0  0  0  0  0  0  0  0  0  0
   -4.0000    3.5718   20.0036 N   0  3  0  0  0  0  0  0  0  0  0  0
   -4.2354    2.2003   19.9421 C   0  0  0  0  0  0  0  0  0  0  0  0
   -3.8177    1.7307   21.1895 C   0  0  0  0  0  0  0  0  0  0  0  0
   -4.1721    1.7617   17.4892 C   0  0  0  0  0  0  0  0  0  0  0  0
   -4.6811    1.1716   16.3303 C   0  0  0  0  0  0  0  0  0  0  0  0
   -5.8442    0.4121   16.3926 C   0  0  0  0  0  0  0  0  0  0  0  0
   -6.5034    0.2496   17.5961 C   0  0  0  0  0  0  0  0  0  0  0  0
   -5.9894    0.8305   18.7695 C   0  0  0  0  0  0  0  0  0  0  0  0
   -4.8049    1.5848   18.7332 C   0  0  0  0  0  0  0  0  0  0  0  0
   -6.3323   -0.1576   15.2792 F   0  0  0  0  0  0  0  0  0  0  0  0
   -2.3478   10.6003   21.2903 H   0  0  0  0  0  0  0  0  0  0  0  0
   -0.6286   10.0880   21.2164 H   0  0  0  0  0  0  0  0  0  0  0  0
   -1.1235   11.4814   22.2012 H   0  0  0  0  0  0  0  0  0  0  0  0
   -2.3405    4.5642   23.5838 H   0  0  0  0  0  0  0  0  0  0  0  0
   -1.6244    6.7673   24.3991 H   0  0  0  0  0  0  0  0  0  0  0  0
   -2.9118    8.5425   20.6898 H   0  0  0  0  0  0  0  0  0  0  0  0
   -3.6108    6.3670   19.8784 H   0  0  0  0  0  0  0  0  0  0  0  0
   -4.3655   -1.5292   24.5039 H   0  0  0  0  0  0  0  0  0  0  0  0
   -4.5004    0.8268   23.7047 H   0  0  0  0  0  0  0  0  0  0  0  0
   -2.9157   -0.5689   19.9324 H   0  0  0  0  0  0  0  0  0  0  0  0
   -2.8527   -2.8431   20.9266 H   0  0  0  0  0  0  0  0  0  0  0  0
   -4.2035    4.2165   19.2566 H   0  0  0  0  0  0  0  0  0  0  0  0
   -3.2517    2.3372   17.4178 H   0  0  0  0  0  0  0  0  0  0  0  0
   -4.1687    1.2846   15.3741 H   0  0  0  0  0  0  0  0  0  0  0  0
   -7.4239   -0.3385   17.6339 H   0  0  0  0  0  0  0  0  0  0  0  0
   -6.5282    0.6979   19.7054 H   0  0  0  0  0  0  0  0  0  0  0  0
  2  3  1  0  0  0  0
  2 28  1  0  0  0  0
  2 29  1  0  0  0  0
  2 30  1  0  0  0  0
  3  1  2  6  0  0  0
  3  6  1  0  0  0  0
  4  5  2  0  0  0  0
  4  9  1  0  0  0  0
  4 31  1  0  0  0  0
  5  6  1  0  0  0  0
  5 32  1  0  0  0  0
  6  7  2  0  0  0  0
  7  8  1  0  0  0  0
  7 33  1  0  0  0  0
  8  9  2  0  0  0  0
  8 34  1  0  0  0  0
  9 17  1  0  0  0  0
 10 11  2  0  0  0  0
 10 15  1  0  0  0  0
 11 12  1  0  0  0  0
 11 35  1  0  0  0  0
 12 13  2  0  0  0  0
 12 36  1  0  0  0  0
 13 14  1  0  0  0  0
 13 20  1  0  0  0  0
 14 15  2  0  0  0  0
 14 37  1  0  0  0  0
 15 38  1  0  0  0  0
 16 17  1  0  0  0  0
 16 20  1  0  0  0  0
 17 18  2  0  0  0  0
 18 19  1  0  0  0  0
 18 39  1  0  0  0  0
 19 20  2  0  0  0  0
 19 26  1  0  0  0  0
 21 22  2  0  0  0  0
 21 26  1  0  0  0  0
 21 40  1  0  0  0  0
 22 23  1  0  0  0  0
 22 41  1  0  0  0  0
 23 24  2  0  0  0  0
 23 27  1  0  0  0  0
 24 25  1  0  0  0  0
 24 42  1  0  0  0  0
 25 26  2  0  0  0  0
 25 43  1  0  0  0  0
M  CHG  1  18   1
M  END
$$$$
