SC3
 OpenBabel04051917183D

 49 52  0  0  0  0  0  0  0  0999 V2000
   -6.2419   22.0083   -0.6975 N   0  3  0  0  0  0  0  0  0  0  0  0
   -5.2647   22.9618   -0.4634 C   0  0  0  0  0  0  0  0  0  0  0  0
   -4.9714   23.2801    0.8768 N   0  3  0  0  0  0  0  0  0  0  0  0
   -5.6613   22.6454    1.8992 C   0  0  0  0  0  0  0  0  0  0  0  0
   -6.6150   21.7256    1.6383 C   0  0  0  0  0  0  0  0  0  0  0  0
   -6.9541   21.3546    0.2966 C   0  0  0  0  0  0  0  0  0  0  0  0
   -7.1150   21.3079    2.8452 N   0  3  0  0  0  0  0  0  0  0  0  0
   -6.4213   21.9789    3.8284 C   0  0  0  0  0  0  0  0  0  0  0  0
   -5.5430   22.7871    3.2703 N   0  0  0  0  0  0  0  0  0  0  0  0
   -6.6374   21.7528    5.1814 N   0  0  0  0  0  0  0  0  0  0  0  0
   -6.0877   22.8425    6.0387 C   0  0  0  0  0  0  0  0  0  0  0  0
   -4.6274   22.5600    6.3998 C   0  0  0  0  0  0  0  0  0  0  0  0
   -4.5031   21.2649    7.1572 N   0  3  0  0  0  0  0  0  0  0  0  0
   -5.5858   20.2550    6.9459 C   0  0  0  0  0  0  0  0  0  0  0  0
   -6.2151   20.3703    5.5644 C   0  0  0  0  0  0  0  0  0  0  0  0
   -8.3105   20.4945    3.0431 C   0  0  0  0  0  0  0  0  0  0  0  0
   -8.0894   18.9969    3.0767 C   0  0  0  0  0  0  0  0  0  0  0  0
   -9.1853   18.1751    3.4268 C   0  0  0  0  0  0  0  0  0  0  0  0
   -9.0294   16.7832    3.4610 C   0  0  0  0  0  0  0  0  0  0  0  0
   -7.7829   16.2072    3.1480 C   0  0  0  0  0  0  0  0  0  0  0  0
   -6.6913   17.0157    2.7985 C   0  0  0  0  0  0  0  0  0  0  0  0
   -6.8470   18.4067    2.7605 C   0  0  0  0  0  0  0  0  0  0  0  0
   -7.7969   20.5241    0.0725 O   0  0  0  0  0  0  0  0  0  0  0  0
   -6.5521   21.6689   -2.0887 C   0  0  0  0  0  0  0  0  0  0  0  0
   -4.6770   23.5001   -1.4058 O   0  0  0  0  0  0  0  0  0  0  0  0
   -3.9477   24.2739    1.1760 C   0  0  0  0  0  0  0  0  0  0  0  0
   -6.6800   22.9271    6.9650 H   0  0  0  0  0  0  0  0  0  0  0  0
   -6.1349   23.8072    5.5116 H   0  0  0  0  0  0  0  0  0  0  0  0
   -4.2226   23.3568    7.0333 H   0  0  0  0  0  0  0  0  0  0  0  0
   -4.0244   22.4679    5.4908 H   0  0  0  0  0  0  0  0  0  0  0  0
   -3.6100   20.8341    6.9008 H   0  0  0  0  0  0  0  0  0  0  0  0
   -6.3486   20.4187    7.7111 H   0  0  0  0  0  0  0  0  0  0  0  0
   -5.1437   19.2579    7.0712 H   0  0  0  0  0  0  0  0  0  0  0  0
   -5.4720   20.0139    4.8344 H   0  0  0  0  0  0  0  0  0  0  0  0
   -7.0824   19.7022    5.5482 H   0  0  0  0  0  0  0  0  0  0  0  0
   -8.9899   20.7338    2.2257 H   0  0  0  0  0  0  0  0  0  0  0  0
   -8.7589   20.8014    3.9951 H   0  0  0  0  0  0  0  0  0  0  0  0
  -10.1551   18.6256    3.6709 H   0  0  0  0  0  0  0  0  0  0  0  0
   -9.8771   16.1479    3.7289 H   0  0  0  0  0  0  0  0  0  0  0  0
   -7.6655   15.1194    3.1760 H   0  0  0  0  0  0  0  0  0  0  0  0
   -5.7254   16.5642    2.5529 H   0  0  0  0  0  0  0  0  0  0  0  0
   -5.9986   19.0379    2.4849 H   0  0  0  0  0  0  0  0  0  0  0  0
   -5.9271   22.2504   -2.7738 H   0  0  0  0  0  0  0  0  0  0  0  0
   -7.6089   21.8871   -2.2932 H   0  0  0  0  0  0  0  0  0  0  0  0
   -6.3690   20.5989   -2.2555 H   0  0  0  0  0  0  0  0  0  0  0  0
   -3.5054   24.6754    0.2583 H   0  0  0  0  0  0  0  0  0  0  0  0
   -3.1576   23.8063    1.7810 H   0  0  0  0  0  0  0  0  0  0  0  0
   -4.3979   25.0968    1.7488 H   0  0  0  0  0  0  0  0  0  0  0  0
   -4.4685   21.4846    8.1561 H   0  0  0  0  0  0  0  0  0  0  0  0
  1  2  1  0  0  0  0
  1  6  1  0  0  0  0
  1 24  1  0  0  0  0
  2  3  1  0  0  0  0
  2 25  2  0  0  0  0
  3  4  1  0  0  0  0
  3 26  1  0  0  0  0
  4  5  2  0  0  0  0
  4  9  1  0  0  0  0
  5  6  1  0  0  0  0
  5  7  1  0  0  0  0
  6 23  2  0  0  0  0
  7  8  2  0  0  0  0
  7 16  1  0  0  0  0
  8  9  1  0  0  0  0
  8 10  1  0  0  0  0
 10 11  1  0  0  0  0
 10 15  1  0  0  0  0
 11 12  1  0  0  0  0
 11 27  1  0  0  0  0
 11 28  1  0  0  0  0
 12 13  1  0  0  0  0
 12 29  1  0  0  0  0
 12 30  1  0  0  0  0
 13 14  1  0  0  0  0
 13 31  1  0  0  0  0
 13 49  1  0  0  0  0
 14 15  1  0  0  0  0
 14 32  1  0  0  0  0
 14 33  1  0  0  0  0
 15 34  1  0  0  0  0
 15 35  1  0  0  0  0
 16 17  1  0  0  0  0
 16 36  1  0  0  0  0
 16 37  1  0  0  0  0
 17 18  2  0  0  0  0
 17 22  1  0  0  0  0
 18 19  1  0  0  0  0
 18 38  1  0  0  0  0
 19 20  2  0  0  0  0
 19 39  1  0  0  0  0
 20 21  1  0  0  0  0
 20 40  1  0  0  0  0
 21 22  2  0  0  0  0
 21 41  1  0  0  0  0
 22 42  1  0  0  0  0
 24 43  1  0  0  0  0
 24 44  1  0  0  0  0
 24 45  1  0  0  0  0
 26 46  1  0  0  0  0
 26 47  1  0  0  0  0
 26 48  1  0  0  0  0
M  CHG  4   1   1   3   1   7   1  13   1
M  END
$$$$
