SC6
 OpenBabel04051919053D

 84 88  0  0  1  0  0  0  0  0999 V2000
   26.8841   15.4034   24.6203 C   0  0  0  0  0  0  0  0  0  0  0  0
   25.6147   15.8345   25.0454 C   0  0  0  0  0  0  0  0  0  0  0  0
   24.4787   15.0630   24.7138 C   0  0  0  0  0  0  0  0  0  0  0  0
   24.6165   13.8897   23.9547 C   0  0  0  0  0  0  0  0  0  0  0  0
   25.8858   13.4822   23.5235 C   0  0  0  0  0  0  0  0  0  0  0  0
   27.0234   14.2462   23.8228 C   0  0  0  0  0  0  0  0  0  0  0  0
   28.3721   13.7740   23.3489 C   0  0  0  0  0  0  0  0  0  0  0  0
   28.5652   13.5182   21.9918 N   0  0  0  0  0  0  0  0  0  0  0  0
   29.2532   13.6318   24.1866 O   0  0  0  0  0  0  0  0  0  0  0  0
   27.6564   13.6981   20.8731 C   0  0  0  0  0  0  0  0  0  0  0  0
   28.5705   14.2494   19.7946 C   0  0  0  0  0  0  0  0  0  0  0  0
   29.9326   13.5908   20.0547 C   0  0  0  0  0  0  0  0  0  0  0  0
   29.8677   13.0471   21.4936 C   0  0  2  0  0  0  0  0  0  0  0  0
   29.9182   11.4973   21.4877 C   0  0  0  0  0  0  0  0  0  0  0  0
   25.4762   17.0934   25.8589 C   0  0  0  0  0  0  0  0  0  0  0  0
   23.4039   13.0814   23.5940 C   0  0  0  0  0  0  0  0  0  0  0  0
   23.6215   11.7078   23.4966 N   0  0  0  0  0  0  0  0  0  0  0  0
   22.3111   13.5762   23.4631 O   0  0  0  0  0  0  0  0  0  0  0  0
   22.5668   10.7730   23.1241 C   0  0  2  0  0  0  0  0  0  0  0  0
   22.1062    9.9306   24.3443 C   0  0  2  0  0  0  0  0  0  0  0  0
   23.0702    9.8318   22.0007 C   0  0  0  0  0  0  0  0  0  0  0  0
   21.0254    9.0687   23.9766 O   0  0  0  0  0  0  0  0  0  0  0  0
   23.7344   10.5326   20.8381 C   0  0  0  0  0  0  0  0  0  0  0  0
   25.0674   10.2309   20.5074 C   0  0  0  0  0  0  0  0  0  0  0  0
   25.6849   10.8719   19.4266 C   0  0  0  0  0  0  0  0  0  0  0  0
   25.0190   11.8256   18.6579 C   0  0  0  0  0  0  0  0  0  0  0  0
   23.6936   12.1193   18.9940 C   0  0  0  0  0  0  0  0  0  0  0  0
   23.0476   11.4866   20.0619 C   0  0  0  0  0  0  0  0  0  0  0  0
   26.9610   10.5732   19.1386 F   0  0  0  0  0  0  0  0  0  0  0  0
   23.0253   13.0292   18.2686 F   0  0  0  0  0  0  0  0  0  0  0  0
   19.4428   11.4942   26.4702 C   0  0  1  0  0  0  0  0  0  0  0  0
   20.3210   10.8195   27.5199 C   0  0  0  0  0  0  0  0  0  0  0  0
   21.1865    9.9119   26.6882 N   0  3  0  0  0  0  0  0  0  0  0  0
   20.3892   11.6595   25.2743 C   0  0  0  0  0  0  0  0  0  0  0  0
   21.6183   10.7840   25.5294 C   0  0  2  0  0  0  0  0  0  0  0  0
   18.3743   10.5736   26.2036 O   0  0  0  0  0  0  0  0  0  0  0  0
   17.4212   10.8828   25.2688 C   0  0  0  0  0  0  0  0  0  0  0  0
   16.9650   12.1630   24.9310 C   0  0  0  0  0  0  0  0  0  0  0  0
   15.9685   12.3259   23.9404 C   0  0  0  0  0  0  0  0  0  0  0  0
   15.4303   11.2069   23.2868 C   0  0  0  0  0  0  0  0  0  0  0  0
   15.8883    9.9227   23.6332 C   0  0  0  0  0  0  0  0  0  0  0  0
   16.8695    9.7659   24.6200 C   0  0  0  0  0  0  0  0  0  0  0  0
   29.4630    9.5836   22.8348 C   0  0  0  0  0  0  0  0  0  0  0  0
   29.6234   10.9886   22.7918 O   0  0  0  0  0  0  0  0  0  0  0  0
   27.7714   16.0070   24.8500 H   0  0  0  0  0  0  0  0  0  0  0  0
   23.4904   15.3786   25.0557 H   0  0  0  0  0  0  0  0  0  0  0  0
   26.0023   12.5808   22.9321 H   0  0  0  0  0  0  0  0  0  0  0  0
   26.8242   14.3579   21.1044 H   0  0  0  0  0  0  0  0  0  0  0  0
   27.2584   12.7181   20.5729 H   0  0  0  0  0  0  0  0  0  0  0  0
   28.6491   15.3396   19.9040 H   0  0  0  0  0  0  0  0  0  0  0  0
   28.2028   14.0285   18.7874 H   0  0  0  0  0  0  0  0  0  0  0  0
   30.7420   14.3254   19.9444 H   0  0  0  0  0  0  0  0  0  0  0  0
   30.1085   12.7852   19.3323 H   0  0  0  0  0  0  0  0  0  0  0  0
   30.6939   13.4421   22.1018 H   0  0  0  0  0  0  0  0  0  0  0  0
   30.9162   11.1608   21.1779 H   0  0  0  0  0  0  0  0  0  0  0  0
   29.1770   11.1142   20.7738 H   0  0  0  0  0  0  0  0  0  0  0  0
   26.4551   17.5646   26.0177 H   0  0  0  0  0  0  0  0  0  0  0  0
   25.0435   16.8690   26.8416 H   0  0  0  0  0  0  0  0  0  0  0  0
   24.8311   17.8153   25.3429 H   0  0  0  0  0  0  0  0  0  0  0  0
   24.5560   11.3548   23.6227 H   0  0  0  0  0  0  0  0  0  0  0  0
   21.6942   11.3155   22.7461 H   0  0  0  0  0  0  0  0  0  0  0  0
   22.9421    9.2960   24.6828 H   0  0  0  0  0  0  0  0  0  0  0  0
   22.2282    9.2452   21.6083 H   0  0  0  0  0  0  0  0  0  0  0  0
   23.7891    9.1228   22.4398 H   0  0  0  0  0  0  0  0  0  0  0  0
   21.3234    8.5020   23.2402 H   0  0  0  0  0  0  0  0  0  0  0  0
   25.6325    9.4972   21.0819 H   0  0  0  0  0  0  0  0  0  0  0  0
   25.5077   12.3201   17.8281 H   0  0  0  0  0  0  0  0  0  0  0  0
   22.0121   11.7460   20.2938 H   0  0  0  0  0  0  0  0  0  0  0  0
   19.0632   12.4456   26.8497 H   0  0  0  0  0  0  0  0  0  0  0  0
   19.7694   10.2098   28.2370 H   0  0  0  0  0  0  0  0  0  0  0  0
   20.9936   11.5174   28.0314 H   0  0  0  0  0  0  0  0  0  0  0  0
   21.9777    9.5343   27.2125 H   0  0  0  0  0  0  0  0  0  0  0  0
   20.7098   12.7025   25.1973 H   0  0  0  0  0  0  0  0  0  0  0  0
   19.8941   11.3737   24.3472 H   0  0  0  0  0  0  0  0  0  0  0  0
   22.4498   11.3816   25.9152 H   0  0  0  0  0  0  0  0  0  0  0  0
   17.3514   13.0562   25.4159 H   0  0  0  0  0  0  0  0  0  0  0  0
   15.6059   13.3219   23.6697 H   0  0  0  0  0  0  0  0  0  0  0  0
   14.6648   11.3219   22.5217 H   0  0  0  0  0  0  0  0  0  0  0  0
   15.4726    9.0473   23.1302 H   0  0  0  0  0  0  0  0  0  0  0  0
   17.2140    8.7661   24.8715 H   0  0  0  0  0  0  0  0  0  0  0  0
   29.2409    9.2924   23.8698 H   0  0  0  0  0  0  0  0  0  0  0  0
   30.3784    9.0807   22.5150 H   0  0  0  0  0  0  0  0  0  0  0  0
   28.6239    9.2779   22.2013 H   0  0  0  0  0  0  0  0  0  0  0  0
   20.6171    9.1200   26.3316 H   0  0  0  0  0  0  0  0  0  0  0  0
  1  2  2  0  0  0  0
  1  6  1  0  0  0  0
  1 45  1  0  0  0  0
  2  3  1  0  0  0  0
  2 15  1  0  0  0  0
  3  4  2  0  0  0  0
  3 46  1  0  0  0  0
  4  5  1  0  0  0  0
  4 16  1  0  0  0  0
  5  6  2  0  0  0  0
  5 47  1  0  0  0  0
  6  7  1  0  0  0  0
  7  8  1  0  0  0  0
  7  9  2  0  0  0  0
  8 10  1  0  0  0  0
  8 13  1  0  0  0  0
 10 11  1  0  0  0  0
 10 48  1  0  0  0  0
 10 49  1  0  0  0  0
 11 12  1  0  0  0  0
 11 50  1  0  0  0  0
 11 51  1  0  0  0  0
 12 13  1  0  0  0  0
 12 52  1  0  0  0  0
 12 53  1  0  0  0  0
 13 14  1  0  0  0  0
 13 54  1  1  0  0  0
 14 44  1  0  0  0  0
 14 55  1  0  0  0  0
 14 56  1  0  0  0  0
 15 57  1  0  0  0  0
 15 58  1  0  0  0  0
 15 59  1  0  0  0  0
 16 17  1  0  0  0  0
 16 18  2  0  0  0  0
 17 19  1  0  0  0  0
 17 60  1  0  0  0  0
 19 20  1  0  0  0  0
 19 21  1  0  0  0  0
 19 61  1  6  0  0  0
 20 22  1  0  0  0  0
 20 35  1  0  0  0  0
 20 62  1  1  0  0  0
 21 23  1  0  0  0  0
 21 63  1  0  0  0  0
 21 64  1  0  0  0  0
 22 65  1  0  0  0  0
 23 24  2  0  0  0  0
 23 28  1  0  0  0  0
 24 25  1  0  0  0  0
 24 66  1  0  0  0  0
 25 26  2  0  0  0  0
 25 29  1  0  0  0  0
 26 27  1  0  0  0  0
 26 67  1  0  0  0  0
 27 28  2  0  0  0  0
 27 30  1  0  0  0  0
 28 68  1  0  0  0  0
 31 32  1  0  0  0  0
 31 34  1  0  0  0  0
 31 36  1  0  0  0  0
 31 69  1  1  0  0  0
 32 33  1  0  0  0  0
 32 70  1  0  0  0  0
 32 71  1  0  0  0  0
 33 35  1  0  0  0  0
 33 72  1  0  0  0  0
 33 84  1  0  0  0  0
 34 35  1  0  0  0  0
 34 73  1  0  0  0  0
 34 74  1  0  0  0  0
 35 75  1  1  0  0  0
 36 37  1  0  0  0  0
 37 38  2  0  0  0  0
 37 42  1  0  0  0  0
 38 39  1  0  0  0  0
 38 76  1  0  0  0  0
 39 40  2  0  0  0  0
 39 77  1  0  0  0  0
 40 41  1  0  0  0  0
 40 78  1  0  0  0  0
 41 42  2  0  0  0  0
 41 79  1  0  0  0  0
 42 80  1  0  0  0  0
 43 44  1  0  0  0  0
 43 81  1  0  0  0  0
 43 82  1  0  0  0  0
 43 83  1  0  0  0  0
M  CHG  1  33   1
M  END
$$$$
