SRO
 OpenBabel04051920463D

 26 27  0  0  1  0  0  0  0  0999 V2000
   13.3715   10.0619   11.1794 O   0  0  0  0  0  0  0  0  0  0  0  0
   13.4601    9.8498    9.8368 C   0  0  2  0  0  0  0  0  0  0  0  0
   14.4717   10.4037    9.0661 C   0  0  0  0  0  0  0  0  0  0  0  0
   14.5313   10.1495    7.6870 C   0  0  0  0  0  0  0  0  0  0  0  0
   13.5487    9.3130    7.1315 C   0  0  2  0  0  0  0  0  0  0  0  0
   13.3440    8.9088    5.8313 N   0  3  0  0  0  0  0  0  0  0  0  0
   12.2338    8.0913    5.7645 C   0  0  0  0  0  0  0  0  0  0  0  0
   11.6958    7.9904    7.0331 C   0  0  1  0  0  0  0  0  0  0  0  0
   12.5264    8.7569    7.8972 C   0  0  2  0  0  0  0  0  0  0  0  0
   12.4789    9.0518    9.2709 C   0  0  0  0  0  0  0  0  0  0  0  0
   10.4347    7.2985    7.4570 C   0  0  0  0  0  0  0  0  0  0  0  0
   10.3674    5.8170    7.1159 C   0  0  0  0  0  0  0  0  0  0  0  0
   11.4694    5.0433    7.7445 N   0  3  0  0  0  0  0  0  0  0  0  0
   14.2554    9.9308   11.5625 H   0  0  0  0  0  0  0  0  0  0  0  0
   15.2064   11.0662    9.5175 H   0  0  0  0  0  0  0  0  0  0  0  0
   15.3061   10.6000    7.0740 H   0  0  0  0  0  0  0  0  0  0  0  0
   13.9042    9.2004    5.0375 H   0  0  0  0  0  0  0  0  0  0  0  0
   11.9047    7.7157    4.8016 H   0  0  0  0  0  0  0  0  0  0  0  0
   11.6793    8.6712    9.9049 H   0  0  0  0  0  0  0  0  0  0  0  0
    9.5854    7.8112    6.9909 H   0  0  0  0  0  0  0  0  0  0  0  0
   10.2999    7.4114    8.5399 H   0  0  0  0  0  0  0  0  0  0  0  0
   10.4358    5.6398    6.0386 H   0  0  0  0  0  0  0  0  0  0  0  0
    9.4365    5.3871    7.4974 H   0  0  0  0  0  0  0  0  0  0  0  0
   11.3942    4.0476    7.5137 H   0  0  0  0  0  0  0  0  0  0  0  0
   12.3895    5.3749    7.4081 H   0  0  0  0  0  0  0  0  0  0  0  0
   11.4762    5.1323    8.7689 H   0  0  0  0  0  0  0  0  0  0  0  0
  1 14  1  0  0  0  0
  2  1  1  6  0  0  0
  2  3  1  0  0  0  0
  2 10  1  0  0  0  0
  3  4  1  0  0  0  0
  3 15  1  0  0  0  0
  4 16  1  0  0  0  0
  5  4  1  6  0  0  0
  5  6  1  0  0  0  0
  5  9  1  0  0  0  0
  6  7  1  0  0  0  0
  6 17  1  0  0  0  0
  7  8  1  0  0  0  0
  7 18  1  0  0  0  0
  8  9  1  0  0  0  0
  8 11  1  6  0  0  0
  9 10  1  6  0  0  0
 10 19  1  0  0  0  0
 11 12  1  0  0  0  0
 11 20  1  0  0  0  0
 11 21  1  0  0  0  0
 12 13  1  0  0  0  0
 12 22  1  0  0  0  0
 12 23  1  0  0  0  0
 13 24  1  0  0  0  0
 13 25  1  0  0  0  0
 13 26  1  0  0  0  0
M  CHG  2   6   1  13   1
M  END
$$$$
