SRT
 OpenBabel04051917413D

 14 13  0  0  1  0  0  0  0  0999 V2000
   10.2748   36.0985    9.0805 O   0  0  0  0  0  0  0  0  0  0  0  0
    9.6244   35.7115   11.2369 O   0  0  0  0  0  0  0  0  0  0  0  0
    9.6131   35.4764    9.9736 C   0  0  0  0  0  0  0  0  0  0  0  0
    8.7800   34.2393    9.4880 C   0  0  1  0  0  0  0  0  0  0  0  0
    9.3818   33.7114    8.2578 O   0  0  0  0  0  0  0  0  0  0  0  0
    8.6878   33.0566   10.4690 C   0  0  1  0  0  0  0  0  0  0  0  0
    8.7984   33.3750   11.8763 O   0  0  0  0  0  0  0  0  0  0  0  0
    7.3635   32.2702   10.2108 C   0  0  0  0  0  0  0  0  0  0  0  0
    7.5006   31.0036   10.1873 O   0  0  0  0  0  0  0  0  0  0  0  0
    6.2960   32.9180   10.0675 O   0  0  0  0  0  0  0  0  0  0  0  0
    7.8032   34.6250    9.1963 H   0  0  0  0  0  0  0  0  0  0  0  0
   10.3237   33.6280    8.4708 H   0  0  0  0  0  0  0  0  0  0  0  0
    9.5292   32.3781   10.2722 H   0  0  0  0  0  0  0  0  0  0  0  0
    9.4016   34.1562   11.9224 H   0  0  0  0  0  0  0  0  0  0  0  0
  1  3  2  0  0  0  0
  2  3  1  0  0  0  0
  3  4  1  0  0  0  0
  4  5  1  0  0  0  0
  4  6  1  0  0  0  0
  4 11  1  6  0  0  0
  5 12  1  0  0  0  0
  6  7  1  0  0  0  0
  6  8  1  0  0  0  0
  6 13  1  6  0  0  0
  7 14  1  0  0  0  0
  8  9  2  0  0  0  0
  8 10  1  0  0  0  0
M  END
$$$$
