STZ
 OpenBabel04051919533D

 33 33  0  0  1  0  0  0  0  0999 V2000
   -9.3122  -12.1638   11.2201 O   0  0  0  0  0  0  0  0  0  0  0  0
   -8.7456  -11.0134   10.5660 C   0  0  1  0  0  0  0  0  0  0  0  0
   -7.9771  -10.1749   11.5986 C   0  0  2  0  0  0  0  0  0  0  0  0
   -8.9287   -9.6725   12.5443 O   0  0  0  0  0  0  0  0  0  0  0  0
   -7.2080   -9.0577   10.8782 C   0  0  1  0  0  0  0  0  0  0  0  0
   -6.4223   -8.1384   11.8254 C   0  0  0  0  0  0  0  0  0  0  0  0
   -5.6333   -8.8387   12.7842 O   0  0  0  0  0  0  0  0  0  0  0  0
   -6.2915   -9.6487    9.9467 O   0  0  0  0  0  0  0  0  0  0  0  0
   -6.9791  -10.2926    8.8802 C   0  0  1  0  0  0  0  0  0  0  0  0
   -6.0264  -10.7966    7.9476 O   0  0  0  0  0  0  0  0  0  0  0  0
   -7.8282  -11.4689    9.4199 C   0  0  2  0  0  0  0  0  0  0  0  0
   -8.5616  -12.1674    8.3516 N   0  0  0  0  0  0  0  0  0  0  0  0
   -9.5173  -11.5300    7.5914 C   0  0  0  0  0  0  0  0  0  0  0  0
   -9.7368  -10.3201    7.7075 O   0  0  0  0  0  0  0  0  0  0  0  0
  -10.1848  -12.3279    6.6647 N   0  0  0  0  0  0  0  0  0  0  0  0
  -11.1361  -11.6911    5.7721 C   0  0  0  0  0  0  0  0  0  0  0  0
   -9.8496  -13.6782    6.5329 N   0  0  0  0  0  0  0  0  0  0  0  0
  -10.5089  -14.2957    5.6963 O   0  0  0  0  0  0  0  0  0  0  0  0
   -9.8115  -11.8055   11.9811 H   0  0  0  0  0  0  0  0  0  0  0  0
   -9.5980  -10.4342   10.1926 H   0  0  0  0  0  0  0  0  0  0  0  0
   -7.2940  -10.8418   12.1389 H   0  0  0  0  0  0  0  0  0  0  0  0
   -8.4574   -9.1774   13.2355 H   0  0  0  0  0  0  0  0  0  0  0  0
   -7.9046   -8.4131   10.3263 H   0  0  0  0  0  0  0  0  0  0  0  0
   -7.1023   -7.4717   12.3671 H   0  0  0  0  0  0  0  0  0  0  0  0
   -5.7316   -7.5169   11.2460 H   0  0  0  0  0  0  0  0  0  0  0  0
   -6.2059   -9.3754   13.3551 H   0  0  0  0  0  0  0  0  0  0  0  0
   -7.5752   -9.5465    8.3466 H   0  0  0  0  0  0  0  0  0  0  0  0
   -6.5098  -11.4333    7.3959 H   0  0  0  0  0  0  0  0  0  0  0  0
   -7.1445  -12.2334    9.8149 H   0  0  0  0  0  0  0  0  0  0  0  0
   -8.6793  -13.1628    8.4996 H   0  0  0  0  0  0  0  0  0  0  0  0
  -11.6101  -12.3836    5.0743 H   0  0  0  0  0  0  0  0  0  0  0  0
  -10.6150  -10.9136    5.2027 H   0  0  0  0  0  0  0  0  0  0  0  0
  -11.9136  -11.2076    6.3741 H   0  0  0  0  0  0  0  0  0  0  0  0
  1  2  1  0  0  0  0
  1 19  1  0  0  0  0
  2  3  1  0  0  0  0
  2 11  1  0  0  0  0
  2 20  1  6  0  0  0
  3  4  1  0  0  0  0
  3  5  1  0  0  0  0
  3 21  1  1  0  0  0
  4 22  1  0  0  0  0
  5  6  1  0  0  0  0
  5  8  1  0  0  0  0
  5 23  1  6  0  0  0
  6  7  1  0  0  0  0
  6 24  1  0  0  0  0
  6 25  1  0  0  0  0
  7 26  1  0  0  0  0
  8  9  1  0  0  0  0
  9 10  1  0  0  0  0
  9 11  1  0  0  0  0
  9 27  1  6  0  0  0
 10 28  1  0  0  0  0
 11 12  1  0  0  0  0
 11 29  1  1  0  0  0
 12 13  1  0  0  0  0
 12 30  1  0  0  0  0
 13 14  2  0  0  0  0
 13 15  1  0  0  0  0
 15 16  1  0  0  0  0
 15 17  1  0  0  0  0
 16 31  1  0  0  0  0
 16 32  1  0  0  0  0
 16 33  1  0  0  0  0
 17 18  2  0  0  0  0
M  END
$$$$
