SY9
 OpenBabel04051920363D

 50 56  0  0  1  0  0  0  0  0999 V2000
  -42.9681    7.4190  -16.9445 C   0  0  1  0  0  0  0  0  0  0  0  0
  -41.9972    7.1809  -18.1020 C   0  0  0  0  0  0  0  0  0  0  0  0
  -40.7082    6.5563  -17.5771 C   0  0  2  0  0  0  0  0  0  0  0  0
  -41.0614    5.1677  -17.0248 C   0  0  2  0  0  0  0  0  0  0  0  0
  -42.0840    5.2357  -15.8789 C   0  0  2  0  0  0  0  0  0  0  0  0
  -42.7003    3.9164  -15.7108 N   0  0  0  0  0  0  0  0  0  0  0  0
  -44.0280    3.9985  -16.1466 C   0  0  0  0  0  0  0  0  0  0  0  0
  -44.9591    2.9595  -16.3037 C   0  0  0  0  0  0  0  0  0  0  0  0
  -46.2812    3.2403  -16.6449 C   0  0  0  0  0  0  0  0  0  0  0  0
  -46.6763    4.5632  -16.8210 C   0  0  0  0  0  0  0  0  0  0  0  0
  -45.7478    5.6103  -16.6597 C   0  0  0  0  0  0  0  0  0  0  0  0
  -44.4326    5.3188  -16.3343 C   0  0  0  0  0  0  0  0  0  0  0  0
  -43.2741    6.2246  -16.0341 C   0  0  2  0  0  0  0  0  0  0  0  0
  -43.5467    6.8794  -14.6829 C   0  0  0  0  0  0  0  0  0  0  0  0
  -42.4501    7.8910  -14.5747 C   0  0  0  0  0  0  0  0  0  0  0  0
  -42.3340    8.4584  -15.9778 N   0  3  1  0  0  0  0  0  0  0  0  0
  -40.9030    8.7693  -16.2614 C   0  0  0  0  0  0  0  0  0  0  0  0
  -40.1429    7.5040  -16.5039 C   0  0  0  0  0  0  0  0  0  0  0  0
  -39.1579    7.2146  -15.7274 C   0  0  0  0  0  0  0  0  0  0  0  0
  -38.2954    6.0152  -15.8649 C   0  0  0  0  0  0  0  0  0  0  0  0
  -39.0181    4.8510  -15.5706 O   0  0  0  0  0  0  0  0  0  0  0  0
  -39.8650    4.2762  -16.5698 C   0  0  1  0  0  0  0  0  0  0  0  0
  -40.3548    2.9854  -15.8439 C   0  0  0  0  0  0  0  0  0  0  0  0
  -41.8622    2.7879  -16.0584 C   0  0  1  0  0  0  0  0  0  0  0  0
  -42.4375    1.5300  -15.8208 O   0  0  0  0  0  0  0  0  0  0  0  0
  -43.8898    7.8619  -17.3251 H   0  0  0  0  0  0  0  0  0  0  0  0
  -41.7608    8.1351  -18.6069 H   0  0  0  0  0  0  0  0  0  0  0  0
  -42.4772    6.5386  -18.8404 H   0  0  0  0  0  0  0  0  0  0  0  0
  -39.9872    6.4518  -18.3975 H   0  0  0  0  0  0  0  0  0  0  0  0
  -41.5443    4.6403  -17.8658 H   0  0  0  0  0  0  0  0  0  0  0  0
  -41.5259    5.4337  -14.9529 H   0  0  0  0  0  0  0  0  0  0  0  0
  -44.6631    1.9227  -16.1931 H   0  0  0  0  0  0  0  0  0  0  0  0
  -47.0046    2.4257  -16.7756 H   0  0  0  0  0  0  0  0  0  0  0  0
  -47.7089    4.7839  -17.0896 H   0  0  0  0  0  0  0  0  0  0  0  0
  -46.0931    6.6277  -16.7682 H   0  0  0  0  0  0  0  0  0  0  0  0
  -43.5048    6.1689  -13.8521 H   0  0  0  0  0  0  0  0  0  0  0  0
  -44.5254    7.3656  -14.6784 H   0  0  0  0  0  0  0  0  0  0  0  0
  -41.4932    7.4255  -14.3239 H   0  0  0  0  0  0  0  0  0  0  0  0
  -42.6488    8.7023  -13.8829 H   0  0  0  0  0  0  0  0  0  0  0  0
  -40.5052    9.2711  -15.3736 H   0  0  0  0  0  0  0  0  0  0  0  0
  -40.8405    9.4394  -17.1096 H   0  0  0  0  0  0  0  0  0  0  0  0
  -38.8049    7.9439  -14.9591 H   0  0  0  0  0  0  0  0  0  0  0  0
  -37.4860    6.1077  -15.1346 H   0  0  0  0  0  0  0  0  0  0  0  0
  -37.9147    6.0005  -16.8765 H   0  0  0  0  0  0  0  0  0  0  0  0
  -39.2834    4.0218  -17.4702 H   0  0  0  0  0  0  0  0  0  0  0  0
  -40.0611    3.0229  -14.7873 H   0  0  0  0  0  0  0  0  0  0  0  0
  -39.8574    2.1200  -16.2894 H   0  0  0  0  0  0  0  0  0  0  0  0
  -41.8557    2.8063  -17.1164 H   0  0  0  0  0  0  0  0  0  0  0  0
  -41.7288    0.8742  -15.9661 H   0  0  0  0  0  0  0  0  0  0  0  0
  -42.8810    9.3293  -16.0316 H   0  0  0  0  0  0  0  0  0  0  0  0
  1  2  1  0  0  0  0
  1 13  1  0  0  0  0
  1 16  1  0  0  0  0
  1 26  1  6  0  0  0
  2  3  1  0  0  0  0
  2 27  1  0  0  0  0
  2 28  1  0  0  0  0
  3  4  1  0  0  0  0
  3 18  1  0  0  0  0
  3 29  1  6  0  0  0
  4  5  1  0  0  0  0
  4 22  1  0  0  0  0
  4 30  1  6  0  0  0
  5  6  1  0  0  0  0
  5 13  1  0  0  0  0
  5 31  1  1  0  0  0
  6  7  1  0  0  0  0
  6 24  1  0  0  0  0
  7  8  2  0  0  0  0
  7 12  1  0  0  0  0
  8  9  1  0  0  0  0
  8 32  1  0  0  0  0
  9 10  2  0  0  0  0
  9 33  1  0  0  0  0
 10 11  1  0  0  0  0
 10 34  1  0  0  0  0
 11 12  2  0  0  0  0
 11 35  1  0  0  0  0
 13 12  1  6  0  0  0
 13 14  1  0  0  0  0
 14 15  1  0  0  0  0
 14 36  1  0  0  0  0
 14 37  1  0  0  0  0
 15 16  1  0  0  0  0
 15 38  1  0  0  0  0
 15 39  1  0  0  0  0
 16 17  1  0  0  0  0
 16 50  1  6  0  0  0
 17 18  1  0  0  0  0
 17 40  1  0  0  0  0
 17 41  1  0  0  0  0
 18 19  2  0  0  0  0
 19 20  1  0  0  0  0
 19 42  1  0  0  0  0
 20 21  1  0  0  0  0
 20 43  1  0  0  0  0
 20 44  1  0  0  0  0
 21 22  1  0  0  0  0
 22 23  1  0  0  0  0
 22 45  1  6  0  0  0
 23 24  1  0  0  0  0
 23 46  1  0  0  0  0
 23 47  1  0  0  0  0
 24 25  1  0  0  0  0
 24 48  1  6  0  0  0
 25 49  1  0  0  0  0
M  CHG  1  16   1
M  END
$$$$
