TA9
 OpenBabel04051920283D

 51 54  0  0  1  0  0  0  0  0999 V2000
  -30.9419    3.2580   24.2232 C   0  0  0  0  0  0  0  0  0  0  0  0
  -31.7809    3.8425   25.2905 C   0  0  0  0  0  0  0  0  0  0  0  0
  -31.6841    3.6478   26.4610 O   0  0  0  0  0  0  0  0  0  0  0  0
  -32.7741    4.7173   24.6456 C   0  0  0  0  0  0  0  0  0  0  0  0
  -33.7422    5.4927   25.2176 C   0  0  0  0  0  0  0  0  0  0  0  0
  -34.5353    6.2382   24.3491 C   0  0  0  0  0  0  0  0  0  0  0  0
  -34.3441    6.1850   22.9590 C   0  0  0  0  0  0  0  0  0  0  0  0
  -33.3433    5.3791   22.4186 C   0  0  0  0  0  0  0  0  0  0  0  0
  -32.5614    4.6351   23.2752 C   0  0  0  0  0  0  0  0  0  0  0  0
  -31.4638    3.7383   23.0142 C   0  0  0  0  0  0  0  0  0  0  0  0
  -30.9057    3.3353   21.8202 C   0  0  0  0  0  0  0  0  0  0  0  0
  -29.8172    2.4652   21.8431 C   0  0  0  0  0  0  0  0  0  0  0  0
  -29.3108    1.9978   23.0649 C   0  0  0  0  0  0  0  0  0  0  0  0
  -29.8756    2.3911   24.2845 C   0  0  0  0  0  0  0  0  0  0  0  0
  -29.2505    1.8765   25.5261 C   0  0  0  0  0  0  0  0  0  0  0  0
  -28.7242    0.7709   25.5709 O   0  0  0  0  0  0  0  0  0  0  0  0
  -29.0934    2.7914   26.5423 N   0  0  0  0  0  0  0  0  0  0  0  0
  -28.4832    2.4538   27.8115 C   0  0  0  0  0  0  0  0  0  0  0  0
  -26.9859    2.3530   27.6531 C   0  0  1  0  0  0  0  0  0  0  0  0
  -26.4201    3.6915   27.2617 N   0  3  0  0  0  0  0  0  0  0  0  0
  -24.9596    3.5746   26.9649 C   0  0  1  0  0  0  0  0  0  0  0  0
  -24.4224    4.9521   26.6313 C   0  0  0  0  0  0  0  0  0  0  0  0
  -24.2284    2.9282   28.1531 C   0  0  1  0  0  0  0  0  0  0  0  0
  -24.2641    3.8501   29.2491 O   0  0  0  0  0  0  0  0  0  0  0  0
  -24.8723    1.6130   28.5980 C   0  0  1  0  0  0  0  0  0  0  0  0
  -24.1645    1.0856   29.7157 O   0  0  0  0  0  0  0  0  0  0  0  0
  -26.3345    1.8769   28.9467 C   0  0  2  0  0  0  0  0  0  0  0  0
  -26.9906    0.7009   29.3833 O   0  0  0  0  0  0  0  0  0  0  0  0
  -33.8899    5.5243   26.2879 H   0  0  0  0  0  0  0  0  0  0  0  0
  -35.3178    6.8757   24.7527 H   0  0  0  0  0  0  0  0  0  0  0  0
  -34.9810    6.7731   22.2972 H   0  0  0  0  0  0  0  0  0  0  0  0
  -33.1846    5.3497   21.3497 H   0  0  0  0  0  0  0  0  0  0  0  0
  -31.3050    3.6847   20.8774 H   0  0  0  0  0  0  0  0  0  0  0  0
  -29.3618    2.1472   20.9067 H   0  0  0  0  0  0  0  0  0  0  0  0
  -28.4616    1.3150   23.0628 H   0  0  0  0  0  0  0  0  0  0  0  0
  -29.4759    3.7154   26.4107 H   0  0  0  0  0  0  0  0  0  0  0  0
  -28.8633    1.4956   28.1640 H   0  0  0  0  0  0  0  0  0  0  0  0
  -28.7221    3.2388   28.5337 H   0  0  0  0  0  0  0  0  0  0  0  0
  -26.7357    1.6647   26.8382 H   0  0  0  0  0  0  0  0  0  0  0  0
  -26.9279    4.0420   26.4342 H   0  0  0  0  0  0  0  0  0  0  0  0
  -24.8617    2.9008   26.1145 H   0  0  0  0  0  0  0  0  0  0  0  0
  -23.3450    4.8913   26.4241 H   0  0  0  0  0  0  0  0  0  0  0  0
  -24.5747    5.6563   27.4603 H   0  0  0  0  0  0  0  0  0  0  0  0
  -24.9242    5.3490   25.7413 H   0  0  0  0  0  0  0  0  0  0  0  0
  -23.1944    2.7517   27.8554 H   0  0  0  0  0  0  0  0  0  0  0  0
  -23.7654    3.4530   29.9862 H   0  0  0  0  0  0  0  0  0  0  0  0
  -24.8286    0.8733   27.7888 H   0  0  0  0  0  0  0  0  0  0  0  0
  -24.1934    1.7117   30.4571 H   0  0  0  0  0  0  0  0  0  0  0  0
  -26.4110    2.6473   29.7279 H   0  0  0  0  0  0  0  0  0  0  0  0
  -26.5433    0.3440   30.1715 H   0  0  0  0  0  0  0  0  0  0  0  0
  -26.5935    4.3735   28.0223 H   0  0  0  0  0  0  0  0  0  0  0  0
  1  2  1  0  0  0  0
  1 10  2  0  0  0  0
  1 14  1  0  0  0  0
  2  3  2  0  0  0  0
  2  4  1  0  0  0  0
  4  5  2  0  0  0  0
  4  9  1  0  0  0  0
  5  6  1  0  0  0  0
  5 29  1  0  0  0  0
  6  7  2  0  0  0  0
  6 30  1  0  0  0  0
  7  8  1  0  0  0  0
  7 31  1  0  0  0  0
  8  9  2  0  0  0  0
  8 32  1  0  0  0  0
  9 10  1  0  0  0  0
 10 11  1  0  0  0  0
 11 12  2  0  0  0  0
 11 33  1  0  0  0  0
 12 13  1  0  0  0  0
 12 34  1  0  0  0  0
 13 14  2  0  0  0  0
 13 35  1  0  0  0  0
 14 15  1  0  0  0  0
 15 16  2  0  0  0  0
 15 17  1  0  0  0  0
 17 18  1  0  0  0  0
 17 36  1  0  0  0  0
 18 19  1  0  0  0  0
 18 37  1  0  0  0  0
 18 38  1  0  0  0  0
 19 20  1  0  0  0  0
 19 27  1  0  0  0  0
 19 39  1  6  0  0  0
 20 21  1  0  0  0  0
 20 40  1  0  0  0  0
 20 51  1  0  0  0  0
 21 22  1  0  0  0  0
 21 23  1  0  0  0  0
 21 41  1  6  0  0  0
 22 42  1  0  0  0  0
 22 43  1  0  0  0  0
 22 44  1  0  0  0  0
 23 24  1  0  0  0  0
 23 25  1  0  0  0  0
 23 45  1  6  0  0  0
 24 46  1  0  0  0  0
 25 26  1  0  0  0  0
 25 27  1  0  0  0  0
 25 47  1  6  0  0  0
 26 48  1  0  0  0  0
 27 28  1  0  0  0  0
 27 49  1  1  0  0  0
 28 50  1  0  0  0  0
M  CHG  1  20   1
M  END
$$$$
