TKT
 OpenBabel04051920053D

 42 45  0  0  1  0  0  0  0  0999 V2000
  -72.2502  -51.6142  -72.9620 C   0  0  2  0  0  0  0  0  0  0  0  0
  -73.1473  -50.7775  -75.0073 O   0  0  0  0  0  0  0  0  0  0  0  0
  -70.6219  -44.5118  -73.8373 C   0  0  0  0  0  0  0  0  0  0  0  0
  -72.6774  -50.5782  -73.8957 C   0  0  0  0  0  0  0  0  0  0  0  0
  -71.5831  -51.4194  -71.7584 C   0  0  0  0  0  0  0  0  0  0  0  0
  -72.4727  -49.3304  -73.3881 O   0  0  0  0  0  0  0  0  0  0  0  0
  -69.9812  -47.7593  -73.3160 C   0  0  0  0  0  0  0  0  0  0  0  0
  -70.8102  -47.3459  -72.0991 C   0  0  0  0  0  0  0  0  0  0  0  0
  -71.2902  -45.8318  -73.8840 N   0  3  2  0  0  0  0  0  0  0  0  0
  -71.8906  -46.3993  -72.6251 C   0  0  1  0  0  0  0  0  0  0  0  0
  -73.1682  -47.0918  -73.1266 C   0  0  0  0  0  0  0  0  0  0  0  0
  -70.6006  -47.0232  -74.5041 C   0  0  2  0  0  0  0  0  0  0  0  0
  -71.7378  -47.8211  -75.1638 C   0  0  0  0  0  0  0  0  0  0  0  0
  -72.8690  -48.1891  -74.1721 C   0  0  1  0  0  0  0  0  0  0  0  0
  -72.5081  -55.8197  -72.7557 C   0  0  0  0  0  0  0  0  0  0  0  0
  -71.8812  -53.6385  -71.9609 C   0  0  1  0  0  0  0  0  0  0  0  0
  -72.4222  -53.0322  -73.0931 C   0  0  1  0  0  0  0  0  0  0  0  0
  -73.0092  -53.8537  -74.0776 C   0  0  0  0  0  0  0  0  0  0  0  0
  -73.0434  -55.2413  -73.9010 C   0  0  0  0  0  0  0  0  0  0  0  0
  -71.3690  -52.6344  -71.1672 N   0  3  0  0  0  0  0  0  0  0  0  0
  -71.9102  -55.0282  -71.7690 C   0  0  0  0  0  0  0  0  0  0  0  0
  -71.1860  -43.8818  -73.1439 H   0  0  0  0  0  0  0  0  0  0  0  0
  -70.7309  -44.1024  -74.8466 H   0  0  0  0  0  0  0  0  0  0  0  0
  -69.5708  -44.5929  -73.5583 H   0  0  0  0  0  0  0  0  0  0  0  0
  -71.2364  -50.5206  -71.2718 H   0  0  0  0  0  0  0  0  0  0  0  0
  -69.9800  -48.8470  -73.4654 H   0  0  0  0  0  0  0  0  0  0  0  0
  -68.9339  -47.4690  -73.1769 H   0  0  0  0  0  0  0  0  0  0  0  0
  -70.1667  -46.8391  -71.3714 H   0  0  0  0  0  0  0  0  0  0  0  0
  -71.2436  -48.2058  -71.5774 H   0  0  0  0  0  0  0  0  0  0  0  0
  -72.1267  -45.5942  -71.9199 H   0  0  0  0  0  0  0  0  0  0  0  0
  -73.8209  -46.3284  -73.5757 H   0  0  0  0  0  0  0  0  0  0  0  0
  -73.7127  -47.5160  -72.2773 H   0  0  0  0  0  0  0  0  0  0  0  0
  -69.8605  -46.6870  -75.2395 H   0  0  0  0  0  0  0  0  0  0  0  0
  -71.3273  -48.7237  -75.6266 H   0  0  0  0  0  0  0  0  0  0  0  0
  -72.1554  -47.2059  -75.9740 H   0  0  0  0  0  0  0  0  0  0  0  0
  -73.7898  -48.4104  -74.7253 H   0  0  0  0  0  0  0  0  0  0  0  0
  -72.5356  -56.9075  -72.6419 H   0  0  0  0  0  0  0  0  0  0  0  0
  -73.4537  -53.4087  -74.9653 H   0  0  0  0  0  0  0  0  0  0  0  0
  -73.5056  -55.8665  -74.6626 H   0  0  0  0  0  0  0  0  0  0  0  0
  -70.9021  -52.7868  -70.2819 H   0  0  0  0  0  0  0  0  0  0  0  0
  -71.4861  -55.4879  -70.8799 H   0  0  0  0  0  0  0  0  0  0  0  0
  -72.0857  -45.5942  -74.5070 H   0  0  0  0  0  0  0  0  0  0  0  0
  1  4  1  6  0  0  0
  1  5  1  0  0  0  0
  1 17  1  0  0  0  0
  2  4  2  0  0  0  0
  3  9  1  0  0  0  0
  3 22  1  0  0  0  0
  3 23  1  0  0  0  0
  3 24  1  0  0  0  0
  4  6  1  0  0  0  0
  5 20  1  0  0  0  0
  5 25  1  0  0  0  0
  6 14  1  0  0  0  0
  7  8  1  0  0  0  0
  7 12  1  0  0  0  0
  7 26  1  0  0  0  0
  7 27  1  0  0  0  0
  8 10  1  0  0  0  0
  8 28  1  0  0  0  0
  8 29  1  0  0  0  0
  9 10  1  0  0  0  0
  9 12  1  0  0  0  0
  9 42  1  6  0  0  0
 10 11  1  0  0  0  0
 10 30  1  1  0  0  0
 11 14  1  0  0  0  0
 11 31  1  0  0  0  0
 11 32  1  0  0  0  0
 12 13  1  0  0  0  0
 12 33  1  6  0  0  0
 13 14  1  0  0  0  0
 13 34  1  0  0  0  0
 13 35  1  0  0  0  0
 14 36  1  6  0  0  0
 15 19  1  0  0  0  0
 15 21  1  0  0  0  0
 15 37  1  0  0  0  0
 16 17  1  0  0  0  0
 16 20  1  1  0  0  0
 16 21  1  0  0  0  0
 17 18  1  1  0  0  0
 18 19  1  0  0  0  0
 18 38  1  0  0  0  0
 19 39  1  0  0  0  0
 20 40  1  0  0  0  0
 21 41  1  0  0  0  0
M  CHG  2   9   1  20   1
M  END
$$$$
