TOP
 OpenBabel04051919563D

 39 40  0  0  0  0  0  0  0  0999 V2000
    7.0914   -4.2895   14.7289 C   0  0  0  0  0  0  0  0  0  0  0  0
    5.9635   -3.9132   14.0796 N   0  0  0  0  0  0  0  0  0  0  0  0
    6.0751   -2.8801   13.2535 C   0  0  0  0  0  0  0  0  0  0  0  0
    4.9591   -2.5173   12.5700 N   0  0  0  0  0  0  0  0  0  0  0  0
    7.1933   -2.1788   13.0390 N   0  0  0  0  0  0  0  0  0  0  0  0
    8.2787   -2.5562   13.7488 C   0  0  0  0  0  0  0  0  0  0  0  0
    9.4206   -1.8054   13.5575 N   0  0  0  0  0  0  0  0  0  0  0  0
    8.2870   -3.6337   14.6096 C   0  0  0  0  0  0  0  0  0  0  0  0
    9.5357   -4.0393   15.3409 C   0  0  0  0  0  0  0  0  0  0  0  0
    9.5194   -5.2484   16.2188 C   0  0  0  0  0  0  0  0  0  0  0  0
    9.8090   -5.1940   17.5851 C   0  0  0  0  0  0  0  0  0  0  0  0
    9.8300   -6.3261   18.3914 C   0  0  0  0  0  0  0  0  0  0  0  0
   10.0673   -6.3692   19.7304 O   0  0  0  0  0  0  0  0  0  0  0  0
   10.4431   -5.1677   20.3758 C   0  0  0  0  0  0  0  0  0  0  0  0
    9.5202   -7.5438   17.8053 C   0  0  0  0  0  0  0  0  0  0  0  0
    9.5078   -8.6937   18.5700 O   0  0  0  0  0  0  0  0  0  0  0  0
    8.3979   -9.5599   18.2960 C   0  0  0  0  0  0  0  0  0  0  0  0
    9.3022   -7.6035   16.4375 C   0  0  0  0  0  0  0  0  0  0  0  0
    9.0793   -8.8393   15.9494 O   0  0  0  0  0  0  0  0  0  0  0  0
    9.0371   -9.0858   14.5972 C   0  0  0  0  0  0  0  0  0  0  0  0
    9.3110   -6.5008   15.6528 C   0  0  0  0  0  0  0  0  0  0  0  0
    6.9903   -5.1726   15.3471 H   0  0  0  0  0  0  0  0  0  0  0  0
    4.1167   -3.0391   12.7304 H   0  0  0  0  0  0  0  0  0  0  0  0
    5.0129   -1.7377   11.9363 H   0  0  0  0  0  0  0  0  0  0  0  0
   10.2447   -2.0494   14.0779 H   0  0  0  0  0  0  0  0  0  0  0  0
    9.4093   -1.0253   12.9132 H   0  0  0  0  0  0  0  0  0  0  0  0
    9.8174   -3.1981   15.9791 H   0  0  0  0  0  0  0  0  0  0  0  0
   10.3151   -4.1855   14.5816 H   0  0  0  0  0  0  0  0  0  0  0  0
   10.0358   -4.1967   18.0219 H   0  0  0  0  0  0  0  0  0  0  0  0
   10.5817   -5.4072   21.4349 H   0  0  0  0  0  0  0  0  0  0  0  0
    9.6497   -4.4234   20.2758 H   0  0  0  0  0  0  0  0  0  0  0  0
   11.3849   -4.7997   19.9614 H   0  0  0  0  0  0  0  0  0  0  0  0
    8.5012  -10.4471   18.9115 H   0  0  0  0  0  0  0  0  0  0  0  0
    8.3679   -9.9434   17.2781 H   0  0  0  0  0  0  0  0  0  0  0  0
    7.4525   -9.0600   18.5049 H   0  0  0  0  0  0  0  0  0  0  0  0
    8.8067  -10.1465   14.4894 H   0  0  0  0  0  0  0  0  0  0  0  0
   10.0194   -8.8732   14.1858 H   0  0  0  0  0  0  0  0  0  0  0  0
    8.2558   -8.4923   14.1317 H   0  0  0  0  0  0  0  0  0  0  0  0
    9.1213   -6.5771   14.5881 H   0  0  0  0  0  0  0  0  0  0  0  0
  1  2  2  0  0  0  0
  1  8  1  0  0  0  0
  1 22  1  0  0  0  0
  2  3  1  0  0  0  0
  3  4  1  0  0  0  0
  3  5  2  0  0  0  0
  4 23  1  0  0  0  0
  4 24  1  0  0  0  0
  5  6  1  0  0  0  0
  6  7  1  0  0  0  0
  6  8  2  0  0  0  0
  7 25  1  0  0  0  0
  7 26  1  0  0  0  0
  8  9  1  0  0  0  0
  9 10  1  0  0  0  0
  9 27  1  0  0  0  0
  9 28  1  0  0  0  0
 10 11  2  0  0  0  0
 10 21  1  0  0  0  0
 11 12  1  0  0  0  0
 11 29  1  0  0  0  0
 12 13  1  0  0  0  0
 12 15  2  0  0  0  0
 13 14  1  0  0  0  0
 14 30  1  0  0  0  0
 14 31  1  0  0  0  0
 14 32  1  0  0  0  0
 15 16  1  0  0  0  0
 15 18  1  0  0  0  0
 16 17  1  0  0  0  0
 17 33  1  0  0  0  0
 17 34  1  0  0  0  0
 17 35  1  0  0  0  0
 18 19  1  0  0  0  0
 18 21  2  0  0  0  0
 19 20  1  0  0  0  0
 20 36  1  0  0  0  0
 20 37  1  0  0  0  0
 20 38  1  0  0  0  0
 21 39  1  0  0  0  0
M  END
$$$$
