TP6
 OpenBabel04051917303D

 54 55  0  0  1  0  0  0  0  0999 V2000
  -18.1984    3.9923   -1.2776 O   0  0  0  0  0  0  0  0  0  0  0  0
  -18.4160    4.0075    0.2265 P   0  0  0  0  0  0  0  0  0  0  0  0
  -17.1388    3.9197    1.0533 O   0  0  0  0  0  0  0  0  0  0  0  0
  -19.4146    5.0413    0.7283 O   0  0  0  0  0  0  0  0  0  0  0  0
  -19.1744    2.5784    0.5002 O   0  0  0  0  0  0  0  0  0  0  0  0
  -19.3654    2.2534    1.8539 C   0  0  0  0  0  0  0  0  0  0  0  0
  -19.3512    0.7509    1.9898 C   0  0  0  0  0  0  0  0  0  0  0  0
  -19.3878    0.3396    3.4364 C   0  0  0  0  0  0  0  0  0  0  0  0
  -20.7108    0.2877    4.1401 C   0  0  0  0  0  0  0  0  0  0  0  0
  -22.0026    0.5617    3.4142 C   0  0  0  0  0  0  0  0  0  0  0  0
  -23.0555    0.3083    4.3815 N   0  3  0  0  0  0  0  0  0  0  0  0
  -23.4629   -0.8884    4.8925 C   0  0  1  0  0  0  0  0  0  0  0  0
  -23.0947   -2.2493    4.5445 C   0  0  0  0  0  0  0  0  0  0  0  0
  -22.3064   -2.5364    3.6541 O   0  0  0  0  0  0  0  0  0  0  0  0
  -23.7433   -3.2068    5.2799 N   0  3  0  0  0  0  0  0  0  0  0  0
  -23.6112    1.3089    5.1465 C   0  0  0  0  0  0  0  0  0  0  0  0
  -23.4682    2.5342    5.0189 O   0  0  0  0  0  0  0  0  0  0  0  0
  -24.4177    0.6930    6.1110 N   0  3  0  0  0  0  0  0  0  0  0  0
  -24.3212   -0.6576    5.9252 C   0  0  1  0  0  0  0  0  0  0  0  0
  -24.9315   -1.6818    6.5637 N   0  3  0  0  0  0  0  0  0  0  0  0
  -24.6593   -2.9861    6.2781 C   0  0  0  0  0  0  0  0  0  0  0  0
  -25.2037   -3.8960    6.8671 O   0  0  0  0  0  0  0  0  0  0  0  0
  -25.1717    1.5245    6.9873 C   0  0  0  0  0  0  0  0  0  0  0  0
  -25.6786    0.9039    8.2682 C   0  0  1  0  0  0  0  0  0  0  0  0
  -24.8045   -0.0029    8.9303 O   0  0  0  0  0  0  0  0  0  0  0  0
  -26.3373    1.9162    9.2215 C   0  0  2  0  0  0  0  0  0  0  0  0
  -27.7442    1.6522    9.0367 O   0  0  0  0  0  0  0  0  0  0  0  0
  -26.1455    3.4381    9.0170 C   0  0  2  0  0  0  0  0  0  0  0  0
  -24.8000    3.8242    9.2723 O   0  0  0  0  0  0  0  0  0  0  0  0
  -27.0841    4.2138    9.9621 C   0  0  0  0  0  0  0  0  0  0  0  0
  -26.8428    3.8857   11.3305 O   0  0  0  0  0  0  0  0  0  0  0  0
  -20.3298    2.6345    2.1932 H   0  0  0  0  0  0  0  0  0  0  0  0
  -18.5614    2.6526    2.4766 H   0  0  0  0  0  0  0  0  0  0  0  0
  -18.4057    0.3764    1.5813 H   0  0  0  0  0  0  0  0  0  0  0  0
  -20.1724    0.3101    1.4171 H   0  0  0  0  0  0  0  0  0  0  0  0
  -18.7494    0.9979    4.0379 H   0  0  0  0  0  0  0  0  0  0  0  0
  -18.9742   -0.6711    3.4930 H   0  0  0  0  0  0  0  0  0  0  0  0
  -20.6448    0.9644    4.9998 H   0  0  0  0  0  0  0  0  0  0  0  0
  -20.7669   -0.7288    4.5391 H   0  0  0  0  0  0  0  0  0  0  0  0
  -22.1630   -0.0612    2.5356 H   0  0  0  0  0  0  0  0  0  0  0  0
  -22.0544    1.6150    3.1012 H   0  0  0  0  0  0  0  0  0  0  0  0
  -23.5376   -4.1646    5.0463 H   0  0  0  0  0  0  0  0  0  0  0  0
  -25.5516   -1.4944    7.3464 H   0  0  0  0  0  0  0  0  0  0  0  0
  -26.0395    1.8678    6.4188 H   0  0  0  0  0  0  0  0  0  0  0  0
  -24.5873    2.4205    7.1904 H   0  0  0  0  0  0  0  0  0  0  0  0
  -26.4876    0.2533    7.9235 H   0  0  0  0  0  0  0  0  0  0  0  0
  -25.2689   -0.3376    9.7186 H   0  0  0  0  0  0  0  0  0  0  0  0
  -26.0543    1.6619   10.2524 H   0  0  0  0  0  0  0  0  0  0  0  0
  -27.8892    1.7170    8.0689 H   0  0  0  0  0  0  0  0  0  0  0  0
  -26.4006    3.7150    7.9864 H   0  0  0  0  0  0  0  0  0  0  0  0
  -24.7339    4.7920    9.1585 H   0  0  0  0  0  0  0  0  0  0  0  0
  -28.1348    4.0036    9.7362 H   0  0  0  0  0  0  0  0  0  0  0  0
  -26.9210    5.2897    9.8590 H   0  0  0  0  0  0  0  0  0  0  0  0
  -26.9839    2.9283   11.4325 H   0  0  0  0  0  0  0  0  0  0  0  0
  1  2  2  0  0  0  0
  2  3  1  0  0  0  0
  2  4  1  0  0  0  0
  2  5  1  0  0  0  0
  5  6  1  0  0  0  0
  6  7  1  0  0  0  0
  6 32  1  0  0  0  0
  6 33  1  0  0  0  0
  7  8  1  0  0  0  0
  7 34  1  0  0  0  0
  7 35  1  0  0  0  0
  8  9  1  0  0  0  0
  8 36  1  0  0  0  0
  8 37  1  0  0  0  0
  9 10  1  0  0  0  0
  9 38  1  0  0  0  0
  9 39  1  0  0  0  0
 10 11  1  0  0  0  0
 10 40  1  0  0  0  0
 10 41  1  0  0  0  0
 11 16  1  0  0  0  0
 12 11  1  1  0  0  0
 12 13  1  0  0  0  0
 12 19  1  0  0  0  0
 13 14  2  0  0  0  0
 13 15  1  0  0  0  0
 15 21  1  0  0  0  0
 15 42  1  0  0  0  0
 16 17  2  0  0  0  0
 16 18  1  0  0  0  0
 18 23  1  0  0  0  0
 19 18  1  6  0  0  0
 19 20  1  0  0  0  0
 20 21  1  0  0  0  0
 20 43  1  0  0  0  0
 21 22  2  0  0  0  0
 23 24  1  0  0  0  0
 23 44  1  0  0  0  0
 23 45  1  0  0  0  0
 24 25  1  0  0  0  0
 24 26  1  0  0  0  0
 24 46  1  6  0  0  0
 25 47  1  0  0  0  0
 26 27  1  0  0  0  0
 26 28  1  0  0  0  0
 26 48  1  1  0  0  0
 27 49  1  0  0  0  0
 28 29  1  0  0  0  0
 28 30  1  0  0  0  0
 28 50  1  6  0  0  0
 29 51  1  0  0  0  0
 30 31  1  0  0  0  0
 30 52  1  0  0  0  0
 30 53  1  0  0  0  0
 31 54  1  0  0  0  0
M  CHG  4  11   1  15   1  18   1  20   1
M  END
$$$$
