TPV
 OpenBabel04051918333D

 74 77  0  0  1  0  0  0  0  0999 V2000
  -16.1214   22.0340   17.0758 O   0  0  0  0  0  0  0  0  0  0  0  0
  -17.2745   21.3473   17.2712 C   0  0  0  0  0  0  0  0  0  0  0  0
  -17.1919   19.9929   17.8903 C   0  0  0  0  0  0  0  0  0  0  0  0
  -15.9998   19.4044   18.1586 C   0  0  0  0  0  0  0  0  0  0  0  0
  -14.7330   20.1105   17.7501 C   0  0  0  0  0  0  0  0  0  0  0  0
  -14.8775   21.6322   17.6838 C   0  0  2  0  0  0  0  0  0  0  0  0
  -18.3415   21.8481   16.9225 O   0  0  0  0  0  0  0  0  0  0  0  0
  -15.7077   18.2696   18.6325 O   0  0  0  0  0  0  0  0  0  0  0  0
  -14.7944   22.2065   19.1242 C   0  0  0  0  0  0  0  0  0  0  0  0
  -14.9701   23.7227   19.2366 C   0  0  0  0  0  0  0  0  0  0  0  0
  -14.8370   24.1668   20.6848 C   0  0  0  0  0  0  0  0  0  0  0  0
  -13.7439   22.2197   16.8067 C   0  0  0  0  0  0  0  0  0  0  0  0
  -13.8068   21.8085   15.3265 C   0  0  0  0  0  0  0  0  0  0  0  0
  -12.7061   22.4835   14.5438 C   0  0  0  0  0  0  0  0  0  0  0  0
  -11.3962   21.9920   14.6133 C   0  0  0  0  0  0  0  0  0  0  0  0
  -10.3666   22.6328   13.9244 C   0  0  0  0  0  0  0  0  0  0  0  0
  -10.6407   23.7661   13.1620 C   0  0  0  0  0  0  0  0  0  0  0  0
  -11.9422   24.2627   13.0886 C   0  0  0  0  0  0  0  0  0  0  0  0
  -12.9728   23.6251   13.7797 C   0  0  0  0  0  0  0  0  0  0  0  0
  -18.5549   19.2948   18.0737 C   0  0  2  0  0  0  0  0  0  0  0  0
  -18.7146   18.4693   19.3794 C   0  0  0  0  0  0  0  0  0  0  0  0
  -18.5763   19.3142   20.6408 C   0  0  0  0  0  0  0  0  0  0  0  0
  -18.9737   18.4576   16.8467 C   0  0  0  0  0  0  0  0  0  0  0  0
  -18.0355   17.9909   15.9041 C   0  0  0  0  0  0  0  0  0  0  0  0
  -18.4175   17.2265   14.8070 C   0  0  0  0  0  0  0  0  0  0  0  0
  -19.7499   16.8873   14.6302 C   0  0  0  0  0  0  0  0  0  0  0  0
  -20.6936   17.3214   15.5555 C   0  0  0  0  0  0  0  0  0  0  0  0
  -22.0461   16.9770   15.3449 N   0  0  0  0  0  0  0  0  0  0  0  0
  -20.3206   18.1136   16.6464 C   0  0  0  0  0  0  0  0  0  0  0  0
  -22.6573   15.5521   15.9789 S   0  0  0  0  0  0  0  0  0  0  0  0
  -21.7991   14.4423   15.6243 O   0  0  0  0  0  0  0  0  0  0  0  0
  -24.0629   15.5358   15.6044 O   0  0  0  0  0  0  0  0  0  0  0  0
  -22.5961   15.8567   17.7410 C   0  0  0  0  0  0  0  0  0  0  0  0
  -21.5300   15.3327   18.3959 N   0  0  0  0  0  0  0  0  0  0  0  0
  -21.4108   15.6580   19.7004 C   0  0  0  0  0  0  0  0  0  0  0  0
  -22.3240   16.4543   20.3827 C   0  0  0  0  0  0  0  0  0  0  0  0
  -23.4195   16.9628   19.6696 C   0  0  0  0  0  0  0  0  0  0  0  0
  -23.5642   16.6624   18.3215 C   0  0  0  0  0  0  0  0  0  0  0  0
  -22.1020   16.7958   21.8230 C   0  0  0  0  0  0  0  0  0  0  0  0
  -21.4307   15.8340   22.5120 F   0  0  0  0  0  0  0  0  0  0  0  0
  -23.2730   16.9805   22.4992 F   0  0  0  0  0  0  0  0  0  0  0  0
  -21.3990   17.9473   21.9847 F   0  0  0  0  0  0  0  0  0  0  0  0
  -14.4413   19.6893   16.7802 H   0  0  0  0  0  0  0  0  0  0  0  0
  -13.9024   19.8790   18.4361 H   0  0  0  0  0  0  0  0  0  0  0  0
  -13.8269   21.9291   19.5638 H   0  0  0  0  0  0  0  0  0  0  0  0
  -15.5666   21.7390   19.7483 H   0  0  0  0  0  0  0  0  0  0  0  0
  -15.9506   24.0210   18.8503 H   0  0  0  0  0  0  0  0  0  0  0  0
  -14.2104   24.2502   18.6528 H   0  0  0  0  0  0  0  0  0  0  0  0
  -14.9589   25.2509   20.7618 H   0  0  0  0  0  0  0  0  0  0  0  0
  -13.8490   23.9067   21.0800 H   0  0  0  0  0  0  0  0  0  0  0  0
  -15.5947   23.6879   21.3124 H   0  0  0  0  0  0  0  0  0  0  0  0
  -12.7716   21.9409   17.2341 H   0  0  0  0  0  0  0  0  0  0  0  0
  -13.7935   23.3139   16.8247 H   0  0  0  0  0  0  0  0  0  0  0  0
  -14.7800   22.0690   14.8939 H   0  0  0  0  0  0  0  0  0  0  0  0
  -13.6939   20.7280   15.1945 H   0  0  0  0  0  0  0  0  0  0  0  0
  -11.1760   21.1108   15.2125 H   0  0  0  0  0  0  0  0  0  0  0  0
   -9.3540   22.2465   13.9897 H   0  0  0  0  0  0  0  0  0  0  0  0
   -9.8391   24.2654   12.6261 H   0  0  0  0  0  0  0  0  0  0  0  0
  -12.1570   25.1475   12.4976 H   0  0  0  0  0  0  0  0  0  0  0  0
  -13.9836   24.0239   13.7264 H   0  0  0  0  0  0  0  0  0  0  0  0
  -19.3166   20.0856   18.1576 H   0  0  0  0  0  0  0  0  0  0  0  0
  -18.0116   17.6314   19.4168 H   0  0  0  0  0  0  0  0  0  0  0  0
  -19.7033   18.0006   19.4050 H   0  0  0  0  0  0  0  0  0  0  0  0
  -18.6611   18.6778   21.5276 H   0  0  0  0  0  0  0  0  0  0  0  0
  -19.3712   20.0654   20.6890 H   0  0  0  0  0  0  0  0  0  0  0  0
  -17.6135   19.8298   20.6925 H   0  0  0  0  0  0  0  0  0  0  0  0
  -16.9759   18.2063   16.0274 H   0  0  0  0  0  0  0  0  0  0  0  0
  -17.6607   16.8822   14.1071 H   0  0  0  0  0  0  0  0  0  0  0  0
  -20.0430   16.2711   13.7875 H   0  0  0  0  0  0  0  0  0  0  0  0
  -22.6629   17.5923   14.8255 H   0  0  0  0  0  0  0  0  0  0  0  0
  -21.0651   18.4505   17.3611 H   0  0  0  0  0  0  0  0  0  0  0  0
  -20.5210   15.2619   20.1885 H   0  0  0  0  0  0  0  0  0  0  0  0
  -24.1469   17.6066   20.1606 H   0  0  0  0  0  0  0  0  0  0  0  0
  -24.3828   17.0693   17.7375 H   0  0  0  0  0  0  0  0  0  0  0  0
  1  2  1  0  0  0  0
  1  6  1  0  0  0  0
  2  3  1  0  0  0  0
  2  7  2  0  0  0  0
  3  4  2  0  0  0  0
  3 20  1  0  0  0  0
  4  5  1  0  0  0  0
  4  8  1  0  0  0  0
  5  6  1  0  0  0  0
  5 43  1  0  0  0  0
  5 44  1  0  0  0  0
  6  9  1  1  0  0  0
  6 12  1  0  0  0  0
  9 10  1  0  0  0  0
  9 45  1  0  0  0  0
  9 46  1  0  0  0  0
 10 11  1  0  0  0  0
 10 47  1  0  0  0  0
 10 48  1  0  0  0  0
 11 49  1  0  0  0  0
 11 50  1  0  0  0  0
 11 51  1  0  0  0  0
 12 13  1  0  0  0  0
 12 52  1  0  0  0  0
 12 53  1  0  0  0  0
 13 14  1  0  0  0  0
 13 54  1  0  0  0  0
 13 55  1  0  0  0  0
 14 15  2  0  0  0  0
 14 19  1  0  0  0  0
 15 16  1  0  0  0  0
 15 56  1  0  0  0  0
 16 17  2  0  0  0  0
 16 57  1  0  0  0  0
 17 18  1  0  0  0  0
 17 58  1  0  0  0  0
 18 19  2  0  0  0  0
 18 59  1  0  0  0  0
 19 60  1  0  0  0  0
 20 21  1  0  0  0  0
 20 23  1  0  0  0  0
 20 61  1  1  0  0  0
 21 22  1  0  0  0  0
 21 62  1  0  0  0  0
 21 63  1  0  0  0  0
 22 64  1  0  0  0  0
 22 65  1  0  0  0  0
 22 66  1  0  0  0  0
 23 24  2  0  0  0  0
 23 29  1  0  0  0  0
 24 25  1  0  0  0  0
 24 67  1  0  0  0  0
 25 26  2  0  0  0  0
 25 68  1  0  0  0  0
 26 27  1  0  0  0  0
 26 69  1  0  0  0  0
 27 28  1  0  0  0  0
 27 29  2  0  0  0  0
 28 30  1  0  0  0  0
 28 70  1  0  0  0  0
 29 71  1  0  0  0  0
 30 31  2  0  0  0  0
 30 32  2  0  0  0  0
 30 33  1  0  0  0  0
 33 34  2  0  0  0  0
 33 38  1  0  0  0  0
 34 35  1  0  0  0  0
 35 36  2  0  0  0  0
 35 72  1  0  0  0  0
 36 37  1  0  0  0  0
 36 39  1  0  0  0  0
 37 38  2  0  0  0  0
 37 73  1  0  0  0  0
 38 74  1  0  0  0  0
 39 40  1  0  0  0  0
 39 41  1  0  0  0  0
 39 42  1  0  0  0  0
M  END
$$$$
