TPV
 OpenBabel04051918333D

 74 77  0  0  1  0  0  0  0  0999 V2000
   13.4065   22.0929   17.3243 O   0  0  0  0  0  0  0  0  0  0  0  0
   12.2596   21.3854   17.4829 C   0  0  0  0  0  0  0  0  0  0  0  0
   12.3402   20.0251   18.0879 C   0  0  0  0  0  0  0  0  0  0  0  0
   13.5387   19.4343   18.3301 C   0  0  0  0  0  0  0  0  0  0  0  0
   14.8031   20.1527   17.9254 C   0  0  0  0  0  0  0  0  0  0  0  0
   14.6680   21.6821   17.8928 C   0  0  2  0  0  0  0  0  0  0  0  0
   11.1958   21.8788   17.1169 O   0  0  0  0  0  0  0  0  0  0  0  0
   13.8358   18.2928   18.7794 O   0  0  0  0  0  0  0  0  0  0  0  0
   14.8077   22.2234   19.3323 C   0  0  0  0  0  0  0  0  0  0  0  0
   14.4439   23.6952   19.5260 C   0  0  0  0  0  0  0  0  0  0  0  0
   14.5934   24.0475   20.9971 C   0  0  0  0  0  0  0  0  0  0  0  0
   15.7865   22.3142   17.0228 C   0  0  0  0  0  0  0  0  0  0  0  0
   15.6508   22.0435   15.5210 C   0  0  0  0  0  0  0  0  0  0  0  0
   16.7632   22.7160   14.7494 C   0  0  0  0  0  0  0  0  0  0  0  0
   16.4952   23.8375   13.9552 C   0  0  0  0  0  0  0  0  0  0  0  0
   17.5249   24.4666   13.2524 C   0  0  0  0  0  0  0  0  0  0  0  0
   18.8305   23.9878   13.3530 C   0  0  0  0  0  0  0  0  0  0  0  0
   19.1087   22.8781   14.1504 C   0  0  0  0  0  0  0  0  0  0  0  0
   18.0785   22.2400   14.8408 C   0  0  0  0  0  0  0  0  0  0  0  0
   10.9905   19.2941   18.2683 C   0  0  2  0  0  0  0  0  0  0  0  0
   10.8489   18.4450   19.5624 C   0  0  0  0  0  0  0  0  0  0  0  0
   10.9570   19.2633   20.8386 C   0  0  0  0  0  0  0  0  0  0  0  0
   10.6179   18.4208   17.0602 C   0  0  0  0  0  0  0  0  0  0  0  0
   11.5904   17.9024   16.1910 C   0  0  0  0  0  0  0  0  0  0  0  0
   11.2454   17.1039   15.1056 C   0  0  0  0  0  0  0  0  0  0  0  0
    9.9153   16.7844   14.8763 C   0  0  0  0  0  0  0  0  0  0  0  0
    8.9348   17.2811   15.7371 C   0  0  0  0  0  0  0  0  0  0  0  0
    7.5812   16.9881   15.4633 N   0  0  0  0  0  0  0  0  0  0  0  0
    9.2763   18.0999   16.8157 C   0  0  0  0  0  0  0  0  0  0  0  0
    6.8789   15.6053   16.0665 S   0  0  0  0  0  0  0  0  0  0  0  0
    7.6894   14.4480   15.7168 O   0  0  0  0  0  0  0  0  0  0  0  0
    5.4776   15.6488   15.6650 O   0  0  0  0  0  0  0  0  0  0  0  0
    6.9363   15.8606   17.8313 C   0  0  0  0  0  0  0  0  0  0  0  0
    8.0661   15.4258   18.4485 N   0  0  0  0  0  0  0  0  0  0  0  0
    8.1756   15.6939   19.7654 C   0  0  0  0  0  0  0  0  0  0  0  0
    7.1932   16.3595   20.4886 C   0  0  0  0  0  0  0  0  0  0  0  0
    6.0374   16.7773   19.8127 C   0  0  0  0  0  0  0  0  0  0  0  0
    5.8949   16.5237   18.4580 C   0  0  0  0  0  0  0  0  0  0  0  0
    7.4051   16.7032   21.9255 C   0  0  0  0  0  0  0  0  0  0  0  0
    7.9545   15.6994   22.6589 F   0  0  0  0  0  0  0  0  0  0  0  0
    6.2390   17.0243   22.5578 F   0  0  0  0  0  0  0  0  0  0  0  0
    8.2147   17.7825   22.0734 F   0  0  0  0  0  0  0  0  0  0  0  0
   15.0905   19.7753   16.9361 H   0  0  0  0  0  0  0  0  0  0  0  0
   15.6261   19.8953   18.6067 H   0  0  0  0  0  0  0  0  0  0  0  0
   15.8432   22.0721   19.6708 H   0  0  0  0  0  0  0  0  0  0  0  0
   14.1712   21.6330   20.0006 H   0  0  0  0  0  0  0  0  0  0  0  0
   13.4131   23.8820   19.2074 H   0  0  0  0  0  0  0  0  0  0  0  0
   15.0958   24.3486   18.9377 H   0  0  0  0  0  0  0  0  0  0  0  0
   14.3355   25.0927   21.1764 H   0  0  0  0  0  0  0  0  0  0  0  0
   15.6253   23.8828   21.3261 H   0  0  0  0  0  0  0  0  0  0  0  0
   13.9381   23.4172   21.6069 H   0  0  0  0  0  0  0  0  0  0  0  0
   16.7659   21.9663   17.3762 H   0  0  0  0  0  0  0  0  0  0  0  0
   15.7816   23.4041   17.1472 H   0  0  0  0  0  0  0  0  0  0  0  0
   14.6813   22.4044   15.1573 H   0  0  0  0  0  0  0  0  0  0  0  0
   15.6840   20.9710   15.3092 H   0  0  0  0  0  0  0  0  0  0  0  0
   15.4830   24.2274   13.8858 H   0  0  0  0  0  0  0  0  0  0  0  0
   17.3072   25.3295   12.6301 H   0  0  0  0  0  0  0  0  0  0  0  0
   19.6310   24.4804   12.8106 H   0  0  0  0  0  0  0  0  0  0  0  0
   20.1267   22.5091   14.2349 H   0  0  0  0  0  0  0  0  0  0  0  0
   18.3012   21.3727   15.4600 H   0  0  0  0  0  0  0  0  0  0  0  0
   10.1989   20.0595   18.3380 H   0  0  0  0  0  0  0  0  0  0  0  0
   11.5866   17.6390   19.5902 H   0  0  0  0  0  0  0  0  0  0  0  0
    9.8814   17.9326   19.5749 H   0  0  0  0  0  0  0  0  0  0  0  0
   10.8711   18.6064   21.7103 H   0  0  0  0  0  0  0  0  0  0  0  0
   10.1543   20.0043   20.8898 H   0  0  0  0  0  0  0  0  0  0  0  0
   11.9174   19.7794   20.9014 H   0  0  0  0  0  0  0  0  0  0  0  0
   12.6485   18.0911   16.3622 H   0  0  0  0  0  0  0  0  0  0  0  0
   12.0256   16.7369   14.4456 H   0  0  0  0  0  0  0  0  0  0  0  0
    9.6455   16.1497   14.0486 H   0  0  0  0  0  0  0  0  0  0  0  0
    6.9947   17.6731   14.9803 H   0  0  0  0  0  0  0  0  0  0  0  0
    8.5085   18.4772   17.4834 H   0  0  0  0  0  0  0  0  0  0  0  0
    9.1109   15.3771   20.2242 H   0  0  0  0  0  0  0  0  0  0  0  0
    5.2594   17.3213   20.3449 H   0  0  0  0  0  0  0  0  0  0  0  0
    5.0224   16.8581   17.9108 H   0  0  0  0  0  0  0  0  0  0  0  0
  1  2  1  0  0  0  0
  1  6  1  0  0  0  0
  2  3  1  0  0  0  0
  2  7  2  0  0  0  0
  3  4  2  0  0  0  0
  3 20  1  0  0  0  0
  4  5  1  0  0  0  0
  4  8  1  0  0  0  0
  5  6  1  0  0  0  0
  5 43  1  0  0  0  0
  5 44  1  0  0  0  0
  6  9  1  1  0  0  0
  6 12  1  0  0  0  0
  9 10  1  0  0  0  0
  9 45  1  0  0  0  0
  9 46  1  0  0  0  0
 10 11  1  0  0  0  0
 10 47  1  0  0  0  0
 10 48  1  0  0  0  0
 11 49  1  0  0  0  0
 11 50  1  0  0  0  0
 11 51  1  0  0  0  0
 12 13  1  0  0  0  0
 12 52  1  0  0  0  0
 12 53  1  0  0  0  0
 13 14  1  0  0  0  0
 13 54  1  0  0  0  0
 13 55  1  0  0  0  0
 14 15  2  0  0  0  0
 14 19  1  0  0  0  0
 15 16  1  0  0  0  0
 15 56  1  0  0  0  0
 16 17  2  0  0  0  0
 16 57  1  0  0  0  0
 17 18  1  0  0  0  0
 17 58  1  0  0  0  0
 18 19  2  0  0  0  0
 18 59  1  0  0  0  0
 19 60  1  0  0  0  0
 20 21  1  0  0  0  0
 20 23  1  0  0  0  0
 20 61  1  1  0  0  0
 21 22  1  0  0  0  0
 21 62  1  0  0  0  0
 21 63  1  0  0  0  0
 22 64  1  0  0  0  0
 22 65  1  0  0  0  0
 22 66  1  0  0  0  0
 23 24  2  0  0  0  0
 23 29  1  0  0  0  0
 24 25  1  0  0  0  0
 24 67  1  0  0  0  0
 25 26  2  0  0  0  0
 25 68  1  0  0  0  0
 26 27  1  0  0  0  0
 26 69  1  0  0  0  0
 27 28  1  0  0  0  0
 27 29  2  0  0  0  0
 28 30  1  0  0  0  0
 28 70  1  0  0  0  0
 29 71  1  0  0  0  0
 30 31  2  0  0  0  0
 30 32  2  0  0  0  0
 30 33  1  0  0  0  0
 33 34  2  0  0  0  0
 33 38  1  0  0  0  0
 34 35  1  0  0  0  0
 35 36  2  0  0  0  0
 35 72  1  0  0  0  0
 36 37  1  0  0  0  0
 36 39  1  0  0  0  0
 37 38  2  0  0  0  0
 37 73  1  0  0  0  0
 38 74  1  0  0  0  0
 39 40  1  0  0  0  0
 39 41  1  0  0  0  0
 39 42  1  0  0  0  0
M  END
$$$$
