TRP
 OpenBabel04051917153D

 27 28  0  0  1  0  0  0  0  0999 V2000
   49.4961   14.8245   20.1444 N   0  3  0  0  0  0  0  0  0  0  0  0
   49.9257   13.3471   20.2728 C   0  0  2  0  0  0  0  0  0  0  0  0
   49.5456   12.5642   18.9763 C   0  0  0  0  0  0  0  0  0  0  0  0
   49.4010   13.4041   18.0301 O   0  0  0  0  0  0  0  0  0  0  0  0
   49.3241   12.8141   21.5687 C   0  0  0  0  0  0  0  0  0  0  0  0
   49.6535   11.3920   21.8617 C   0  0  2  0  0  0  0  0  0  0  0  0
   50.9186   10.8422   21.9604 C   0  0  0  0  0  0  0  0  0  0  0  0
   48.7169   10.3158   21.9891 C   0  0  2  0  0  0  0  0  0  0  0  0
   50.7800    9.4901   22.1079 N   0  3  0  0  0  0  0  0  0  0  0  0
   49.4539    9.1427   22.1550 C   0  0  2  0  0  0  0  0  0  0  0  0
   47.3118   10.2305   21.9342 C   0  0  0  0  0  0  0  0  0  0  0  0
   48.8463    7.8850   22.2876 C   0  0  0  0  0  0  0  0  0  0  0  0
   46.6906    8.9874   22.0748 C   0  0  0  0  0  0  0  0  0  0  0  0
   47.4509    7.8309   22.2556 C   0  0  0  0  0  0  0  0  0  0  0  0
   49.3843   11.3374   19.0050 O   0  0  0  0  0  0  0  0  0  0  0  0
   49.7823   15.4250   20.9121 H   0  0  0  0  0  0  0  0  0  0  0  0
   49.8709   15.1263   19.2320 H   0  0  0  0  0  0  0  0  0  0  0  0
   51.0196   13.3974   20.3299 H   0  0  0  0  0  0  0  0  0  0  0  0
   48.2371   12.9536   21.5423 H   0  0  0  0  0  0  0  0  0  0  0  0
   49.6877   13.4246   22.4044 H   0  0  0  0  0  0  0  0  0  0  0  0
   51.8988   11.2904   21.8610 H   0  0  0  0  0  0  0  0  0  0  0  0
   51.5429    8.8290   22.1400 H   0  0  0  0  0  0  0  0  0  0  0  0
   46.7099   11.1170   21.7607 H   0  0  0  0  0  0  0  0  0  0  0  0
   49.4409    6.9795   22.3886 H   0  0  0  0  0  0  0  0  0  0  0  0
   45.6059    8.9253   22.0262 H   0  0  0  0  0  0  0  0  0  0  0  0
   46.9493    6.8735   22.3518 H   0  0  0  0  0  0  0  0  0  0  0  0
   48.4791   14.8379   19.9824 H   0  0  0  0  0  0  0  0  0  0  0  0
  1  2  1  0  0  0  0
  1 16  1  0  0  0  0
  1 17  1  0  0  0  0
  1 27  1  0  0  0  0
  2  3  1  0  0  0  0
  2  5  1  0  0  0  0
  2 18  1  1  0  0  0
  3  4  2  0  0  0  0
  3 15  1  0  0  0  0
  5 19  1  0  0  0  0
  5 20  1  0  0  0  0
  6  5  1  6  0  0  0
  6  7  1  0  0  0  0
  6  8  1  0  0  0  0
  7  9  1  0  0  0  0
  7 21  1  0  0  0  0
  8 10  1  0  0  0  0
  8 11  1  6  0  0  0
  9 22  1  0  0  0  0
 10  9  1  6  0  0  0
 10 12  1  0  0  0  0
 11 13  1  0  0  0  0
 11 23  1  0  0  0  0
 12 14  1  0  0  0  0
 12 24  1  0  0  0  0
 13 14  1  0  0  0  0
 13 25  1  0  0  0  0
 14 26  1  0  0  0  0
M  CHG  2   1   1   9   1
M  END
$$$$
