TSF
 OpenBabel04051917313D

 53 54  0  0  1  0  0  0  0  0999 V2000
   47.2764    3.5263   -1.4492 O   0  0  0  0  0  0  0  0  0  0  0  0
   47.2273    3.6856    0.0631 P   0  0  0  0  0  0  0  0  0  0  0  0
   48.6086    3.6772    0.7261 O   0  0  0  0  0  0  0  0  0  0  0  0
   46.3164    4.8138    0.5542 O   0  0  0  0  0  0  0  0  0  0  0  0
   46.4437    2.1624    0.6982 C   0  0  0  0  0  0  0  0  0  0  0  0
   45.1781    2.1038    0.2120 F   0  0  0  0  0  0  0  0  0  0  0  0
   47.1398    1.1234    0.1732 F   0  0  0  0  0  0  0  0  0  0  0  0
   46.4317    2.1125    2.1963 C   0  0  0  0  0  0  0  0  0  0  0  0
   46.4383    0.6855    2.7270 C   0  0  0  0  0  0  0  0  0  0  0  0
   45.4615    0.5344    3.8842 C   0  0  0  0  0  0  0  0  0  0  0  0
   44.0355    0.6643    3.3627 C   0  0  0  0  0  0  0  0  0  0  0  0
   43.0755    0.4106    4.4294 N   0  3  0  0  0  0  0  0  0  0  0  0
   42.5760   -0.7615    4.9077 C   0  0  2  0  0  0  0  0  0  0  0  0
   42.8767   -2.1292    4.4469 C   0  0  0  0  0  0  0  0  0  0  0  0
   43.6508   -2.4263    3.5398 O   0  0  0  0  0  0  0  0  0  0  0  0
   42.1816   -3.0783    5.1424 N   0  3  0  0  0  0  0  0  0  0  0  0
   42.4877    1.3655    5.1950 C   0  0  0  0  0  0  0  0  0  0  0  0
   42.6670    2.5927    5.0853 O   0  0  0  0  0  0  0  0  0  0  0  0
   41.6286    0.8261    6.1222 N   0  3  0  0  0  0  0  0  0  0  0  0
   41.7050   -0.5191    5.9118 C   0  0  2  0  0  0  0  0  0  0  0  0
   41.0772   -1.5345    6.5313 N   0  3  0  0  0  0  0  0  0  0  0  0
   41.3084   -2.8173    6.1657 C   0  0  0  0  0  0  0  0  0  0  0  0
   40.7339   -3.7294    6.7354 O   0  0  0  0  0  0  0  0  0  0  0  0
   40.9009    1.6902    7.0325 C   0  0  0  0  0  0  0  0  0  0  0  0
   40.2268    1.0205    8.2063 C   0  0  1  0  0  0  0  0  0  0  0  0
   41.0757    0.1061    8.9057 O   0  0  0  0  0  0  0  0  0  0  0  0
   39.5582    2.0094    9.1592 C   0  0  2  0  0  0  0  0  0  0  0  0
   38.1563    1.7231    8.9902 O   0  0  0  0  0  0  0  0  0  0  0  0
   39.7639    3.5210    8.9070 C   0  0  2  0  0  0  0  0  0  0  0  0
   41.1208    3.9008    9.1427 O   0  0  0  0  0  0  0  0  0  0  0  0
   38.8716    4.3586    9.8223 C   0  0  0  0  0  0  0  0  0  0  0  0
   39.0491    3.9479   11.1832 O   0  0  0  0  0  0  0  0  0  0  0  0
   45.5395    2.6383    2.5483 H   0  0  0  0  0  0  0  0  0  0  0  0
   47.3150    2.6378    2.5727 H   0  0  0  0  0  0  0  0  0  0  0  0
   47.4488    0.4353    3.0742 H   0  0  0  0  0  0  0  0  0  0  0  0
   46.1545   -0.0095    1.9267 H   0  0  0  0  0  0  0  0  0  0  0  0
   45.6519    1.3084    4.6404 H   0  0  0  0  0  0  0  0  0  0  0  0
   45.5849   -0.4524    4.3495 H   0  0  0  0  0  0  0  0  0  0  0  0
   43.8773   -0.0416    2.5391 H   0  0  0  0  0  0  0  0  0  0  0  0
   43.8842    1.6874    2.9722 H   0  0  0  0  0  0  0  0  0  0  0  0
   42.3250   -4.0453    4.8796 H   0  0  0  0  0  0  0  0  0  0  0  0
   40.4303   -1.3927    7.3008 H   0  0  0  0  0  0  0  0  0  0  0  0
   40.1187    2.2119    6.4465 H   0  0  0  0  0  0  0  0  0  0  0  0
   41.6003    2.4475    7.4145 H   0  0  0  0  0  0  0  0  0  0  0  0
   39.4245    0.4098    7.7791 H   0  0  0  0  0  0  0  0  0  0  0  0
   40.5843   -0.2879    9.6453 H   0  0  0  0  0  0  0  0  0  0  0  0
   39.8662    1.7858   10.1895 H   0  0  0  0  0  0  0  0  0  0  0  0
   38.0121    0.7837    9.2059 H   0  0  0  0  0  0  0  0  0  0  0  0
   39.5033    3.7395    7.8681 H   0  0  0  0  0  0  0  0  0  0  0  0
   41.2095    4.8584    8.9741 H   0  0  0  0  0  0  0  0  0  0  0  0
   37.8198    4.2430    9.5373 H   0  0  0  0  0  0  0  0  0  0  0  0
   39.1496    5.4205    9.7422 H   0  0  0  0  0  0  0  0  0  0  0  0
   38.8039    3.0071   11.2512 H   0  0  0  0  0  0  0  0  0  0  0  0
  1  2  2  0  0  0  0
  2  3  1  0  0  0  0
  2  4  1  0  0  0  0
  2  5  1  0  0  0  0
  5  6  1  0  0  0  0
  5  7  1  0  0  0  0
  5  8  1  0  0  0  0
  8  9  1  0  0  0  0
  8 33  1  0  0  0  0
  8 34  1  0  0  0  0
  9 10  1  0  0  0  0
  9 35  1  0  0  0  0
  9 36  1  0  0  0  0
 10 11  1  0  0  0  0
 10 37  1  0  0  0  0
 10 38  1  0  0  0  0
 11 12  1  0  0  0  0
 11 39  1  0  0  0  0
 11 40  1  0  0  0  0
 12 17  1  0  0  0  0
 13 12  1  6  0  0  0
 13 14  1  0  0  0  0
 13 20  1  0  0  0  0
 14 15  2  0  0  0  0
 14 16  1  0  0  0  0
 16 22  1  0  0  0  0
 16 41  1  0  0  0  0
 17 18  2  0  0  0  0
 17 19  1  0  0  0  0
 19 24  1  0  0  0  0
 20 19  1  1  0  0  0
 20 21  1  0  0  0  0
 21 22  1  0  0  0  0
 21 42  1  0  0  0  0
 22 23  2  0  0  0  0
 24 25  1  0  0  0  0
 24 43  1  0  0  0  0
 24 44  1  0  0  0  0
 25 26  1  0  0  0  0
 25 27  1  0  0  0  0
 25 45  1  6  0  0  0
 26 46  1  0  0  0  0
 27 28  1  0  0  0  0
 27 29  1  0  0  0  0
 27 47  1  1  0  0  0
 28 48  1  0  0  0  0
 29 30  1  0  0  0  0
 29 31  1  0  0  0  0
 29 49  1  6  0  0  0
 30 50  1  0  0  0  0
 31 32  1  0  0  0  0
 31 51  1  0  0  0  0
 31 52  1  0  0  0  0
 32 53  1  0  0  0  0
M  CHG  4  12   1  16   1  19   1  21   1
M  END
$$$$
