TSS
 OpenBabel04051918493D

 25 26  0  0  1  0  0  0  0  0999 V2000
   13.6535  -23.6996    6.3552 N   0  3  0  0  0  0  0  0  0  0  0  0
   12.4757  -22.8364    6.1921 C   0  0  0  0  0  0  0  0  0  0  0  0
   12.8899  -21.3791    6.1237 C   0  0  0  0  0  0  0  0  0  0  0  0
   11.6982  -20.5715    5.7516 C   0  0  2  0  0  0  0  0  0  0  0  0
   10.3684  -20.8460    5.9955 C   0  0  0  0  0  0  0  0  0  0  0  0
    9.5731  -19.8791    5.4559 N   0  3  0  0  0  0  0  0  0  0  0  0
   10.3711  -18.9462    4.8514 C   0  0  2  0  0  0  0  0  0  0  0  0
   11.7092  -19.3590    5.0278 C   0  0  2  0  0  0  0  0  0  0  0  0
   10.0192  -17.7884    4.2067 C   0  0  0  0  0  0  0  0  0  0  0  0
   11.0636  -17.0025    3.7500 C   0  0  0  0  0  0  0  0  0  0  0  0
   12.3913  -17.4465    3.8054 C   0  0  0  0  0  0  0  0  0  0  0  0
   12.7277  -18.5996    4.5075 C   0  0  0  0  0  0  0  0  0  0  0  0
   13.3757  -24.6893    6.4012 H   0  0  0  0  0  0  0  0  0  0  0  0
   14.2975  -23.5841    5.5591 H   0  0  0  0  0  0  0  0  0  0  0  0
   11.8242  -23.0175    7.0512 H   0  0  0  0  0  0  0  0  0  0  0  0
   11.9738  -23.1470    5.2712 H   0  0  0  0  0  0  0  0  0  0  0  0
   13.7031  -21.2644    5.3928 H   0  0  0  0  0  0  0  0  0  0  0  0
   13.2843  -21.0587    7.0972 H   0  0  0  0  0  0  0  0  0  0  0  0
    9.9277  -21.6720    6.5203 H   0  0  0  0  0  0  0  0  0  0  0  0
    8.5605  -19.7924    5.4724 H   0  0  0  0  0  0  0  0  0  0  0  0
    8.9708  -17.5137    4.0744 H   0  0  0  0  0  0  0  0  0  0  0  0
   10.8517  -16.0248    3.3416 H   0  0  0  0  0  0  0  0  0  0  0  0
   13.1633  -16.9013    3.2966 H   0  0  0  0  0  0  0  0  0  0  0  0
   13.7707  -18.8942    4.6566 H   0  0  0  0  0  0  0  0  0  0  0  0
   14.1586  -23.4642    7.2209 H   0  0  0  0  0  0  0  0  0  0  0  0
  1  2  1  0  0  0  0
  1 13  1  0  0  0  0
  1 14  1  0  0  0  0
  1 25  1  0  0  0  0
  2  3  1  0  0  0  0
  2 15  1  0  0  0  0
  2 16  1  0  0  0  0
  3 17  1  0  0  0  0
  3 18  1  0  0  0  0
  4  3  1  6  0  0  0
  4  5  1  0  0  0  0
  4  8  1  0  0  0  0
  5  6  1  0  0  0  0
  5 19  1  0  0  0  0
  6 20  1  0  0  0  0
  7  6  1  1  0  0  0
  7  8  1  0  0  0  0
  7  9  1  0  0  0  0
  8 12  1  6  0  0  0
  9 10  1  0  0  0  0
  9 21  1  0  0  0  0
 10 11  1  0  0  0  0
 10 22  1  0  0  0  0
 11 12  1  0  0  0  0
 11 23  1  0  0  0  0
 12 24  1  0  0  0  0
M  CHG  2   1   1   6   1
M  END
$$$$
