TYD
 OpenBabel04051919333D

 38 39  0  0  1  0  0  0  0  0999 V2000
   11.3862   20.2488    2.1162 P   0  0  1  0  0  0  0  0  0  0  0  0
   12.3990   19.8891    1.0291 O   0  0  0  0  0  0  0  0  0  0  0  0
   10.3624   19.1759    2.4334 O   0  0  0  0  0  0  0  0  0  0  0  0
   12.1447   20.8630    3.3824 O   0  0  0  0  0  0  0  0  0  0  0  0
   11.5777   21.2975    4.8351 P   0  0  0  0  0  0  0  0  0  0  0  0
   12.3437   20.4204    5.8259 O   0  0  0  0  0  0  0  0  0  0  0  0
   11.9382   22.7823    4.9692 O   0  0  0  0  0  0  0  0  0  0  0  0
   10.0719   21.0962    4.8291 O   0  0  0  0  0  0  0  0  0  0  0  0
   10.5915   21.5597    1.5283 O   0  0  0  0  0  0  0  0  0  0  0  0
   11.3465   22.7403    1.2993 C   0  0  0  0  0  0  0  0  0  0  0  0
   10.4130   23.9392    1.0867 C   0  0  1  0  0  0  0  0  0  0  0  0
    9.6475   23.8118   -0.1588 O   0  0  0  0  0  0  0  0  0  0  0  0
    9.3999   24.0918    2.2240 C   0  0  1  0  0  0  0  0  0  0  0  0
    9.1343   25.4964    2.4537 O   0  0  0  0  0  0  0  0  0  0  0  0
    8.1413   23.4951    1.6314 C   0  0  0  0  0  0  0  0  0  0  0  0
    8.2607   23.9841    0.1915 C   0  0  2  0  0  0  0  0  0  0  0  0
    7.4010   23.3020   -0.7885 N   0  3  0  0  0  0  0  0  0  0  0  0
    6.4945   24.0367   -1.5448 C   0  0  0  0  0  0  0  0  0  0  0  0
    6.2825   25.2260   -1.4762 O   0  0  0  0  0  0  0  0  0  0  0  0
    5.7678   23.2954   -2.4598 N   0  3  0  0  0  0  0  0  0  0  0  0
    5.8730   21.9537   -2.6899 C   0  0  0  0  0  0  0  0  0  0  0  0
    5.1910   21.3936   -3.5506 O   0  0  0  0  0  0  0  0  0  0  0  0
    6.8420   21.2304   -1.8510 C   0  0  0  0  0  0  0  0  0  0  0  0
    6.9896   19.7654   -2.0513 C   0  0  0  0  0  0  0  0  0  0  0  0
    7.5534   21.9309   -0.9557 C   0  0  0  0  0  0  0  0  0  0  0  0
   11.9714   22.5963    0.4120 H   0  0  0  0  0  0  0  0  0  0  0  0
   11.9950   22.9614    2.1529 H   0  0  0  0  0  0  0  0  0  0  0  0
   11.0130   24.8502    0.9712 H   0  0  0  0  0  0  0  0  0  0  0  0
    9.7213   23.6390    3.1670 H   0  0  0  0  0  0  0  0  0  0  0  0
    8.6094   25.5100    3.2735 H   0  0  0  0  0  0  0  0  0  0  0  0
    7.2181   23.8308    2.1121 H   0  0  0  0  0  0  0  0  0  0  0  0
    8.1869   22.4038    1.6928 H   0  0  0  0  0  0  0  0  0  0  0  0
    8.0612   25.0602    0.1493 H   0  0  0  0  0  0  0  0  0  0  0  0
    5.1026   23.7988   -3.0155 H   0  0  0  0  0  0  0  0  0  0  0  0
    7.7472   19.3381   -1.3710 H   0  0  0  0  0  0  0  0  0  0  0  0
    7.2994   19.5435   -3.0749 H   0  0  0  0  0  0  0  0  0  0  0  0
    6.0383   19.2517   -1.8538 H   0  0  0  0  0  0  0  0  0  0  0  0
    8.2923   21.4465   -0.3289 H   0  0  0  0  0  0  0  0  0  0  0  0
  1  2  2  6  0  0  0
  1  3  1  0  0  0  0
  1  4  1  0  0  0  0
  1  9  1  0  0  0  0
  4  5  1  0  0  0  0
  5  6  2  0  0  0  0
  5  7  1  0  0  0  0
  5  8  1  0  0  0  0
  9 10  1  0  0  0  0
 10 11  1  0  0  0  0
 10 26  1  0  0  0  0
 10 27  1  0  0  0  0
 11 12  1  0  0  0  0
 11 13  1  0  0  0  0
 11 28  1  6  0  0  0
 12 16  1  0  0  0  0
 13 14  1  0  0  0  0
 13 15  1  0  0  0  0
 13 29  1  1  0  0  0
 14 30  1  0  0  0  0
 15 16  1  0  0  0  0
 15 31  1  0  0  0  0
 15 32  1  0  0  0  0
 16 17  1  0  0  0  0
 16 33  1  6  0  0  0
 17 18  1  0  0  0  0
 17 25  1  0  0  0  0
 18 19  2  0  0  0  0
 18 20  1  0  0  0  0
 20 21  1  0  0  0  0
 20 34  1  0  0  0  0
 21 22  2  0  0  0  0
 21 23  1  0  0  0  0
 23 24  1  0  0  0  0
 23 25  2  0  0  0  0
 24 35  1  0  0  0  0
 24 36  1  0  0  0  0
 24 37  1  0  0  0  0
 25 38  1  0  0  0  0
M  CHG  2  17   1  20   1
M  END
$$$$
