U2F
 OpenBabel04051917193D

 57 59  0  0  1  0  0  0  0  0999 V2000
    2.8382   20.4687   13.3988 C   0  0  2  0  0  0  0  0  0  0  0  0
    4.2358   20.2985   13.4486 O   0  0  0  0  0  0  0  0  0  0  0  0
    4.9483   19.3982   12.2482 P   0  0  1  0  0  0  0  0  0  0  0  0
    6.2805   20.0588   11.9643 O   0  0  0  0  0  0  0  0  0  0  0  0
    4.9382   18.0002   12.8043 O   0  0  0  0  0  0  0  0  0  0  0  0
    3.9528   19.5831   10.9841 O   0  0  0  0  0  0  0  0  0  0  0  0
    3.8056   18.5399    9.7665 P   0  0  2  0  0  0  0  0  0  0  0  0
    4.0030   17.0969   10.1617 O   0  0  0  0  0  0  0  0  0  0  0  0
    4.4628   19.0805    8.5244 O   0  0  0  0  0  0  0  0  0  0  0  0
    2.1673   18.6727    9.5226 O   0  0  0  0  0  0  0  0  0  0  0  0
    1.2730   18.1455   10.5067 C   0  0  0  0  0  0  0  0  0  0  0  0
    0.0534   17.5908    9.7563 C   0  0  1  0  0  0  0  0  0  0  0  0
   -0.6633   18.6474    9.0526 O   0  0  0  0  0  0  0  0  0  0  0  0
   -0.7577   18.2879    7.6605 C   0  0  2  0  0  0  0  0  0  0  0  0
    0.3723   17.3102    7.3835 C   0  0  1  0  0  0  0  0  0  0  0  0
    0.4439   16.5498    8.7036 C   0  0  2  0  0  0  0  0  0  0  0  0
   -0.5200   15.4767    8.7334 O   0  0  0  0  0  0  0  0  0  0  0  0
    0.0335   16.4888    6.2566 O   0  0  0  0  0  0  0  0  0  0  0  0
   -0.7539   19.5146    6.8371 N   0  3  0  0  0  0  0  0  0  0  0  0
   -1.9661   19.9254    6.3026 C   0  0  0  0  0  0  0  0  0  0  0  0
   -3.0388   19.3242    6.4355 O   0  0  0  0  0  0  0  0  0  0  0  0
   -1.9553   21.0762    5.5579 N   0  3  0  0  0  0  0  0  0  0  0  0
   -0.8587   21.7967    5.3559 C   0  0  0  0  0  0  0  0  0  0  0  0
   -0.8931   22.8753    4.6428 O   0  0  0  0  0  0  0  0  0  0  0  0
    0.4068   21.3763    5.9300 C   0  0  0  0  0  0  0  0  0  0  0  0
    0.4083   20.2573    6.6534 C   0  0  0  0  0  0  0  0  0  0  0  0
    2.2480   21.7785   13.9867 C   0  0  2  0  0  0  0  0  0  0  0  0
    2.7966   22.8533   13.3576 F   0  0  0  0  0  0  0  0  0  0  0  0
    2.4854   21.8761   15.5212 C   0  0  1  0  0  0  0  0  0  0  0  0
    2.0048   23.1110   16.1522 O   0  0  0  0  0  0  0  0  0  0  0  0
    1.9223   20.6113   16.2380 C   0  0  2  0  0  0  0  0  0  0  0  0
    2.3775   20.6467   17.6165 O   0  0  0  0  0  0  0  0  0  0  0  0
    2.3635   19.2888   15.4719 C   0  0  1  0  0  0  0  0  0  0  0  0
    1.5900   18.0561   16.0553 C   0  0  0  0  0  0  0  0  0  0  0  0
    1.9440   16.7823   15.5066 O   0  0  0  0  0  0  0  0  0  0  0  0
    2.0852   19.4139   14.0441 O   0  0  0  0  0  0  0  0  0  0  0  0
    2.5949   20.5533   12.3404 H   0  0  0  0  0  0  0  0  0  0  0  0
    0.9895   18.9563   11.1959 H   0  0  0  0  0  0  0  0  0  0  0  0
    1.7470   17.3515   11.1064 H   0  0  0  0  0  0  0  0  0  0  0  0
   -0.6457   17.1642   10.4827 H   0  0  0  0  0  0  0  0  0  0  0  0
   -1.7034   17.7344    7.5049 H   0  0  0  0  0  0  0  0  0  0  0  0
    1.3217   17.8175    7.1778 H   0  0  0  0  0  0  0  0  0  0  0  0
    1.4336   16.1305    8.8886 H   0  0  0  0  0  0  0  0  0  0  0  0
   -0.2999   14.8687    8.0081 H   0  0  0  0  0  0  0  0  0  0  0  0
    0.7178   15.8078    6.1877 H   0  0  0  0  0  0  0  0  0  0  0  0
   -2.8209   21.4031    5.1436 H   0  0  0  0  0  0  0  0  0  0  0  0
    1.2851   21.9883    5.7497 H   0  0  0  0  0  0  0  0  0  0  0  0
    1.3443   19.9121    7.1048 H   0  0  0  0  0  0  0  0  0  0  0  0
    1.1628   21.7351   13.7469 H   0  0  0  0  0  0  0  0  0  0  0  0
    3.5679   21.8871   15.6475 H   0  0  0  0  0  0  0  0  0  0  0  0
    2.2334   23.1066   17.1062 H   0  0  0  0  0  0  0  0  0  0  0  0
    0.8093   20.6818   16.2587 H   0  0  0  0  0  0  0  0  0  0  0  0
    3.3549   20.5976   17.6198 H   0  0  0  0  0  0  0  0  0  0  0  0
    3.4369   19.0744   15.5971 H   0  0  0  0  0  0  0  0  0  0  0  0
    0.5129   18.1797   15.8958 H   0  0  0  0  0  0  0  0  0  0  0  0
    1.7720   17.9806   17.1364 H   0  0  0  0  0  0  0  0  0  0  0  0
    1.8023   16.8152   14.5392 H   0  0  0  0  0  0  0  0  0  0  0  0
  1  2  1  0  0  0  0
  1 27  1  0  0  0  0
  1 36  1  0  0  0  0
  1 37  1  6  0  0  0
  3  2  1  1  0  0  0
  3  4  2  0  0  0  0
  3  5  1  0  0  0  0
  3  6  1  0  0  0  0
  7  6  1  1  0  0  0
  7  8  2  0  0  0  0
  7  9  1  0  0  0  0
  7 10  1  0  0  0  0
 10 11  1  0  0  0  0
 11 12  1  0  0  0  0
 11 38  1  0  0  0  0
 11 39  1  0  0  0  0
 12 13  1  0  0  0  0
 12 16  1  0  0  0  0
 12 40  1  1  0  0  0
 13 14  1  0  0  0  0
 14 15  1  0  0  0  0
 14 19  1  0  0  0  0
 14 41  1  6  0  0  0
 15 16  1  0  0  0  0
 15 18  1  0  0  0  0
 15 42  1  6  0  0  0
 16 17  1  0  0  0  0
 16 43  1  1  0  0  0
 17 44  1  0  0  0  0
 18 45  1  0  0  0  0
 19 20  1  0  0  0  0
 19 26  1  0  0  0  0
 20 21  2  0  0  0  0
 20 22  1  0  0  0  0
 22 23  1  0  0  0  0
 22 46  1  0  0  0  0
 23 24  2  0  0  0  0
 23 25  1  0  0  0  0
 25 26  2  0  0  0  0
 25 47  1  0  0  0  0
 26 48  1  0  0  0  0
 27 28  1  0  0  0  0
 27 29  1  0  0  0  0
 27 49  1  6  0  0  0
 29 30  1  0  0  0  0
 29 31  1  0  0  0  0
 29 50  1  1  0  0  0
 30 51  1  0  0  0  0
 31 32  1  0  0  0  0
 31 33  1  0  0  0  0
 31 52  1  6  0  0  0
 32 53  1  0  0  0  0
 33 34  1  0  0  0  0
 33 36  1  0  0  0  0
 33 54  1  1  0  0  0
 34 35  1  0  0  0  0
 34 55  1  0  0  0  0
 34 56  1  0  0  0  0
 35 57  1  0  0  0  0
M  CHG  2  19   1  22   1
M  END
$$$$
