UBA
 OpenBabel04051917533D

 38 39  0  0  1  0  0  0  0  0999 V2000
  -10.3761   -4.0880   13.7356 O   0  0  0  0  0  0  0  0  0  0  0  0
   -9.6880   -4.8156   14.5204 C   0  0  0  0  0  0  0  0  0  0  0  0
  -10.0136   -5.7297   15.3082 O   0  0  0  0  0  0  0  0  0  0  0  0
   -8.1923   -4.4385   14.4429 C   0  0  1  0  0  0  0  0  0  0  0  0
   -7.9582   -3.3136   13.4352 N   0  3  0  0  0  0  0  0  0  0  0  0
   -7.7000   -3.9866   15.8226 C   0  0  0  0  0  0  0  0  0  0  0  0
   -6.3275   -3.4417   15.7437 N   0  3  0  0  0  0  0  0  0  0  0  0
   -5.2790   -4.3569   15.5749 C   0  0  0  0  0  0  0  0  0  0  0  0
   -5.5253   -5.5573   15.5058 O   0  0  0  0  0  0  0  0  0  0  0  0
   -4.0109   -3.8080   15.4332 N   0  3  0  0  0  0  0  0  0  0  0  0
   -3.7402   -2.4545   15.4250 C   0  0  0  0  0  0  0  0  0  0  0  0
   -2.6444   -1.9467   15.2259 O   0  0  0  0  0  0  0  0  0  0  0  0
   -4.9070   -1.5481   15.6108 C   0  0  0  0  0  0  0  0  0  0  0  0
   -4.6383   -0.0763   15.5799 C   0  0  0  0  0  0  0  0  0  0  0  0
   -6.1184   -2.0829   15.7677 C   0  0  0  0  0  0  0  0  0  0  0  0
   -2.8922   -4.7235   15.1762 C   0  0  0  0  0  0  0  0  0  0  0  0
   -2.5012   -5.5012   16.4146 C   0  0  0  0  0  0  0  0  0  0  0  0
   -2.8164   -5.1316   17.7714 C   0  0  0  0  0  0  0  0  0  0  0  0
   -2.3647   -6.0448   18.6943 C   0  0  0  0  0  0  0  0  0  0  0  0
   -1.5663   -7.3563   17.9579 S   0  0  0  0  0  0  0  0  0  0  0  0
   -1.7934   -6.7045   16.3891 C   0  0  0  0  0  0  0  0  0  0  0  0
   -1.2830   -7.3807   15.1543 C   0  0  0  0  0  0  0  0  0  0  0  0
   -1.2144   -6.6706   14.0992 O   0  0  0  0  0  0  0  0  0  0  0  0
   -0.9576   -8.6051   15.2438 O   0  0  0  0  0  0  0  0  0  0  0  0
   -7.6161   -5.2818   14.0601 H   0  0  0  0  0  0  0  0  0  0  0  0
   -6.9814   -3.0251   13.3788 H   0  0  0  0  0  0  0  0  0  0  0  0
   -8.3209   -3.6618   12.5372 H   0  0  0  0  0  0  0  0  0  0  0  0
   -7.6923   -4.8411   16.5133 H   0  0  0  0  0  0  0  0  0  0  0  0
   -8.3685   -3.2364   16.2604 H   0  0  0  0  0  0  0  0  0  0  0  0
   -5.5597    0.5105   15.6976 H   0  0  0  0  0  0  0  0  0  0  0  0
   -4.1806    0.2247   14.6294 H   0  0  0  0  0  0  0  0  0  0  0  0
   -3.9644    0.2020   16.3939 H   0  0  0  0  0  0  0  0  0  0  0  0
   -6.9968   -1.4489   15.9052 H   0  0  0  0  0  0  0  0  0  0  0  0
   -2.0139   -4.1685   14.8301 H   0  0  0  0  0  0  0  0  0  0  0  0
   -3.2148   -5.3991   14.3785 H   0  0  0  0  0  0  0  0  0  0  0  0
   -3.3684   -4.2458   18.0555 H   0  0  0  0  0  0  0  0  0  0  0  0
   -2.4757   -6.0126   19.7676 H   0  0  0  0  0  0  0  0  0  0  0  0
   -8.6094   -2.5536   13.6775 H   0  0  0  0  0  0  0  0  0  0  0  0
  1  2  2  0  0  0  0
  2  3  1  0  0  0  0
  2  4  1  0  0  0  0
  4  5  1  0  0  0  0
  4  6  1  0  0  0  0
  4 25  1  6  0  0  0
  5 26  1  0  0  0  0
  5 27  1  0  0  0  0
  5 38  1  0  0  0  0
  6  7  1  0  0  0  0
  6 28  1  0  0  0  0
  6 29  1  0  0  0  0
  7  8  1  0  0  0  0
  7 15  1  0  0  0  0
  8  9  2  0  0  0  0
  8 10  1  0  0  0  0
 10 11  1  0  0  0  0
 10 16  1  0  0  0  0
 11 12  2  0  0  0  0
 11 13  1  0  0  0  0
 13 14  1  0  0  0  0
 13 15  2  0  0  0  0
 14 30  1  0  0  0  0
 14 31  1  0  0  0  0
 14 32  1  0  0  0  0
 15 33  1  0  0  0  0
 16 17  1  0  0  0  0
 16 34  1  0  0  0  0
 16 35  1  0  0  0  0
 17 18  1  0  0  0  0
 17 21  2  0  0  0  0
 18 19  2  0  0  0  0
 18 36  1  0  0  0  0
 19 20  1  0  0  0  0
 19 37  1  0  0  0  0
 20 21  1  0  0  0  0
 21 22  1  0  0  0  0
 22 23  2  0  0  0  0
 22 24  1  0  0  0  0
M  CHG  3   5   1   7   1  10   1
M  END
$$$$
