UDP
 OpenBabel04051920093D

 36 37  0  0  1  0  0  0  0  0999 V2000
   -0.3166   -0.0208   24.8563 N   0  3  0  0  0  0  0  0  0  0  0  0
   -1.4928   -0.1065   25.5551 C   0  0  0  0  0  0  0  0  0  0  0  0
   -1.6115   -1.1458   26.4419 N   0  3  0  0  0  0  0  0  0  0  0  0
   -0.6100   -2.0949   26.6717 C   0  0  0  0  0  0  0  0  0  0  0  0
    0.6143   -1.9452   25.8986 C   0  0  0  0  0  0  0  0  0  0  0  0
    0.7186   -0.9178   25.0363 C   0  0  0  0  0  0  0  0  0  0  0  0
   -2.4260    0.6621   25.4377 O   0  0  0  0  0  0  0  0  0  0  0  0
   -0.7693   -2.9984   27.4811 O   0  0  0  0  0  0  0  0  0  0  0  0
   -0.2651    1.0719   23.9088 C   0  0  1  0  0  0  0  0  0  0  0  0
    0.0817    2.4423   24.5393 C   0  0  2  0  0  0  0  0  0  0  0  0
   -0.5503    3.5394   23.8063 O   0  0  0  0  0  0  0  0  0  0  0  0
    1.5877    2.4703   24.3420 C   0  0  1  0  0  0  0  0  0  0  0  0
    1.7079    1.8271   22.9707 C   0  0  2  0  0  0  0  0  0  0  0  0
    0.7375    0.7671   22.9220 O   0  0  0  0  0  0  0  0  0  0  0  0
    2.0756    3.8087   24.3515 O   0  0  0  0  0  0  0  0  0  0  0  0
    3.1518    1.4108   22.6154 C   0  0  0  0  0  0  0  0  0  0  0  0
    3.7382    0.6039   23.6449 O   0  0  0  0  0  0  0  0  0  0  0  0
    5.4094    0.5647   23.7567 P   0  0  1  0  0  0  0  0  0  0  0  0
    5.8345    1.9914   23.9815 O   0  0  0  0  0  0  0  0  0  0  0  0
    5.6434   -0.4645   24.8916 O   0  0  0  0  0  0  0  0  0  0  0  0
    5.7630   -0.0443   22.3208 O   0  0  0  0  0  0  0  0  0  0  0  0
    7.2199    0.2315   21.6479 P   0  0  0  0  0  0  0  0  0  0  0  0
    7.2552    1.7027   21.2993 O   0  0  0  0  0  0  0  0  0  0  0  0
    8.2667   -0.2510   22.6288 O   0  0  0  0  0  0  0  0  0  0  0  0
    7.1952   -0.6335   20.3638 O   0  0  0  0  0  0  0  0  0  0  0  0
   -2.4676   -1.2654   26.9834 H   0  0  0  0  0  0  0  0  0  0  0  0
    1.3995   -2.6831   26.0583 H   0  0  0  0  0  0  0  0  0  0  0  0
    1.6535   -0.8047   24.4422 H   0  0  0  0  0  0  0  0  0  0  0  0
   -1.2227    1.1813   23.3810 H   0  0  0  0  0  0  0  0  0  0  0  0
   -0.2261    2.5264   25.5901 H   0  0  0  0  0  0  0  0  0  0  0  0
   -0.2945    4.3727   24.2459 H   0  0  0  0  0  0  0  0  0  0  0  0
    2.0565    1.8845   25.1426 H   0  0  0  0  0  0  0  0  0  0  0  0
    1.3526    2.5368   22.2168 H   0  0  0  0  0  0  0  0  0  0  0  0
    1.6146    4.2725   23.6302 H   0  0  0  0  0  0  0  0  0  0  0  0
    3.7189    2.3278   22.4754 H   0  0  0  0  0  0  0  0  0  0  0  0
    3.1154    0.8537   21.6751 H   0  0  0  0  0  0  0  0  0  0  0  0
  1  2  1  0  0  0  0
  1  6  1  0  0  0  0
  1  9  1  0  0  0  0
  2  3  1  0  0  0  0
  2  7  2  0  0  0  0
  3  4  1  0  0  0  0
  3 26  1  0  0  0  0
  4  5  1  0  0  0  0
  4  8  2  0  0  0  0
  5  6  2  0  0  0  0
  5 27  1  0  0  0  0
  6 28  1  0  0  0  0
  9 10  1  0  0  0  0
  9 14  1  0  0  0  0
  9 29  1  6  0  0  0
 10 11  1  0  0  0  0
 10 12  1  0  0  0  0
 10 30  1  1  0  0  0
 11 31  1  0  0  0  0
 12 13  1  0  0  0  0
 12 15  1  0  0  0  0
 12 32  1  1  0  0  0
 13 14  1  0  0  0  0
 13 16  1  0  0  0  0
 13 33  1  6  0  0  0
 15 34  1  0  0  0  0
 16 17  1  0  0  0  0
 16 35  1  0  0  0  0
 16 36  1  0  0  0  0
 18 17  1  6  0  0  0
 18 19  2  0  0  0  0
 18 20  1  0  0  0  0
 18 21  1  0  0  0  0
 21 22  1  0  0  0  0
 22 23  2  0  0  0  0
 22 24  1  0  0  0  0
 22 25  1  0  0  0  0
M  CHG  2   1   1   3   1
M  END
$$$$
