UNF
 OpenBabel04051919533D

 38 39  0  0  1  0  0  0  0  0999 V2000
   -1.6747   16.2867    9.7442 C   0  0  1  0  0  0  0  0  0  0  0  0
   -2.2251   17.5664    9.0737 C   0  0  1  0  0  0  0  0  0  0  0  0
   -1.7095   17.5955    7.6388 C   0  0  2  0  0  0  0  0  0  0  0  0
   -0.2425   17.5254    7.6685 C   0  0  0  0  0  0  0  0  0  0  0  0
    0.3811   16.8240    8.6368 C   0  0  0  0  0  0  0  0  0  0  0  0
    1.9306   16.5881    8.5209 C   0  0  0  0  0  0  0  0  0  0  0  0
   -2.2357   15.1343    9.0825 O   0  0  0  0  0  0  0  0  0  0  0  0
   -3.6607   17.6363    9.0563 O   0  0  0  0  0  0  0  0  0  0  0  0
   -2.1423   18.7684    6.9500 O   0  0  0  0  0  0  0  0  0  0  0  0
   -0.2473   16.2427    9.7166 O   0  0  0  0  0  0  0  0  0  0  0  0
    2.3967   15.8337    9.4019 O   0  0  0  0  0  0  0  0  0  0  0  0
   -3.6802   12.0680    8.3759 C   0  0  1  0  0  0  0  0  0  0  0  0
   -2.3910   12.5444    7.6922 C   0  0  1  0  0  0  0  0  0  0  0  0
   -1.3425   12.9009    8.7631 C   0  0  2  0  0  0  0  0  0  0  0  0
   -1.9248   13.9110    9.7828 C   0  0  2  0  0  0  0  0  0  0  0  0
   -3.2123   13.3092   10.3625 C   0  0  1  0  0  0  0  0  0  0  0  0
   -3.8410   14.2617   11.4091 C   0  0  0  0  0  0  0  0  0  0  0  0
   -3.4875   10.7870    8.9865 O   0  0  0  0  0  0  0  0  0  0  0  0
   -1.9357   11.5028    6.7961 O   0  0  0  0  0  0  0  0  0  0  0  0
   -0.1567   13.3676    8.1100 O   0  0  0  0  0  0  0  0  0  0  0  0
   -4.1659   12.9915    9.3184 O   0  0  0  0  0  0  0  0  0  0  0  0
   -3.0759   14.5890   12.3650 O   0  0  0  0  0  0  0  0  0  0  0  0
   -5.0501   14.5997   11.2284 O   0  0  0  0  0  0  0  0  0  0  0  0
    2.4834   17.0860    7.5082 O   0  0  0  0  0  0  0  0  0  0  0  0
   -1.9910   16.2924   10.7917 H   0  0  0  0  0  0  0  0  0  0  0  0
   -1.8467   18.4501    9.6075 H   0  0  0  0  0  0  0  0  0  0  0  0
   -2.0980   16.7437    7.0611 H   0  0  0  0  0  0  0  0  0  0  0  0
    0.3275   17.9819    6.8680 H   0  0  0  0  0  0  0  0  0  0  0  0
   -3.9483   16.7530    8.7460 H   0  0  0  0  0  0  0  0  0  0  0  0
   -3.1177   18.7343    7.0164 H   0  0  0  0  0  0  0  0  0  0  0  0
   -4.4553   11.9421    7.6099 H   0  0  0  0  0  0  0  0  0  0  0  0
   -2.5970   13.4296    7.0791 H   0  0  0  0  0  0  0  0  0  0  0  0
   -1.0418   11.9866    9.2887 H   0  0  0  0  0  0  0  0  0  0  0  0
   -1.1733   14.0829   10.5686 H   0  0  0  0  0  0  0  0  0  0  0  0
   -2.9667   12.3813   10.8994 H   0  0  0  0  0  0  0  0  0  0  0  0
   -3.2537   10.1783    8.2706 H   0  0  0  0  0  0  0  0  0  0  0  0
   -1.5929   10.7893    7.3581 H   0  0  0  0  0  0  0  0  0  0  0  0
    0.4729   13.6849    8.7910 H   0  0  0  0  0  0  0  0  0  0  0  0
  1  2  1  0  0  0  0
  1  7  1  0  0  0  0
  1 10  1  0  0  0  0
  1 25  1  1  0  0  0
  2  3  1  0  0  0  0
  2  8  1  0  0  0  0
  2 26  1  1  0  0  0
  3  4  1  0  0  0  0
  3  9  1  0  0  0  0
  3 27  1  6  0  0  0
  4  5  2  0  0  0  0
  4 28  1  0  0  0  0
  5  6  1  0  0  0  0
  5 10  1  0  0  0  0
  6 11  2  0  0  0  0
  6 24  1  0  0  0  0
  7 15  1  0  0  0  0
  8 29  1  0  0  0  0
  9 30  1  0  0  0  0
 12 13  1  0  0  0  0
 12 18  1  0  0  0  0
 12 21  1  0  0  0  0
 12 31  1  6  0  0  0
 13 14  1  0  0  0  0
 13 19  1  0  0  0  0
 13 32  1  6  0  0  0
 14 15  1  0  0  0  0
 14 20  1  0  0  0  0
 14 33  1  1  0  0  0
 15 16  1  0  0  0  0
 15 34  1  1  0  0  0
 16 17  1  0  0  0  0
 16 21  1  0  0  0  0
 16 35  1  1  0  0  0
 17 22  2  0  0  0  0
 17 23  1  0  0  0  0
 18 36  1  0  0  0  0
 19 37  1  0  0  0  0
 20 38  1  0  0  0  0
M  END
$$$$
