V12
 OpenBabel04051919323D

 49 52  0  0  1  0  0  0  0  0999 V2000
   13.0103  -10.1192   14.9828 O   0  0  0  0  0  0  0  0  0  0  0  0
   13.0720   -9.1586   15.7464 C   0  0  0  0  0  0  0  0  0  0  0  0
   12.3258   -8.0304   15.5086 N   0  3  0  0  0  0  0  0  0  0  0  0
   12.2974   -6.9128   16.2869 C   0  0  0  0  0  0  0  0  0  0  0  0
   11.5414   -5.9332   15.9286 N   0  0  0  0  0  0  0  0  0  0  0  0
   13.1622   -6.9193   17.4683 C   0  0  0  0  0  0  0  0  0  0  0  0
   13.8991   -8.0066   17.7041 C   0  0  0  0  0  0  0  0  0  0  0  0
   13.8840   -9.1172   16.8825 N   0  3  0  0  0  0  0  0  0  0  0  0
   14.6683  -10.3180   17.2066 C   0  0  2  0  0  0  0  0  0  0  0  0
   15.1632  -10.2218   18.5643 O   0  0  0  0  0  0  0  0  0  0  0  0
   15.8719  -10.5636   16.2740 C   0  0  2  0  0  0  0  0  0  0  0  0
   15.9222  -11.9200   15.8039 O   0  0  0  0  0  0  0  0  0  0  0  0
   17.0833  -10.3113   17.1513 C   0  0  2  0  0  0  0  0  0  0  0  0
   18.1523  -11.2121   16.8621 O   0  0  0  0  0  0  0  0  0  0  0  0
   16.5754  -10.4806   18.5780 C   0  0  1  0  0  0  0  0  0  0  0  0
   17.2909   -9.4828   19.5038 C   0  0  0  0  0  0  0  0  0  0  0  0
   16.9475   -9.6470   20.9056 N   0  0  0  0  0  0  0  0  0  0  0  0
   17.7542  -10.3442   21.7808 C   0  0  0  0  0  0  0  0  0  0  0  0
   18.8038  -10.8767   21.4253 O   0  0  0  0  0  0  0  0  0  0  0  0
   17.2380  -10.3753   23.2100 C   0  0  0  0  0  0  0  0  0  0  0  0
   17.5719  -11.6408   23.9312 C   0  0  0  0  0  0  0  0  0  0  0  0
   17.2937  -11.8832   25.1958 N   0  0  0  0  0  0  0  0  0  0  0  0
   17.7685  -13.1483   25.4519 C   0  0  0  0  0  0  0  0  0  0  0  0
   17.7552  -13.8931   26.6393 C   0  0  0  0  0  0  0  0  0  0  0  0
   18.3064  -15.1813   26.6317 C   0  0  0  0  0  0  0  0  0  0  0  0
   18.8592  -15.7150   25.4643 C   0  0  0  0  0  0  0  0  0  0  0  0
   18.8862  -14.9833   24.2714 C   0  0  0  0  0  0  0  0  0  0  0  0
   18.3329  -13.7028   24.3087 C   0  0  0  0  0  0  0  0  0  0  0  0
   18.2052  -12.7236   23.3601 N   0  3  0  0  0  0  0  0  0  0  0  0
   11.7225   -8.0303   14.7005 H   0  0  0  0  0  0  0  0  0  0  0  0
   11.6100   -5.1582   16.5913 H   0  0  0  0  0  0  0  0  0  0  0  0
   13.1699   -6.0621   18.1282 H   0  0  0  0  0  0  0  0  0  0  0  0
   14.5284   -8.0371   18.5873 H   0  0  0  0  0  0  0  0  0  0  0  0
   13.9866  -11.1768   17.1715 H   0  0  0  0  0  0  0  0  0  0  0  0
   15.8652   -9.9117   15.3934 H   0  0  0  0  0  0  0  0  0  0  0  0
   16.6600  -11.9472   15.1628 H   0  0  0  0  0  0  0  0  0  0  0  0
   17.4473   -9.2914   16.9862 H   0  0  0  0  0  0  0  0  0  0  0  0
   17.8099  -12.1149   17.0240 H   0  0  0  0  0  0  0  0  0  0  0  0
   16.7205  -11.5038   18.9449 H   0  0  0  0  0  0  0  0  0  0  0  0
   17.0033   -8.4572   19.2474 H   0  0  0  0  0  0  0  0  0  0  0  0
   18.3763   -9.5737   19.3862 H   0  0  0  0  0  0  0  0  0  0  0  0
   16.0423   -9.3116   21.2134 H   0  0  0  0  0  0  0  0  0  0  0  0
   16.1484  -10.2587   23.2086 H   0  0  0  0  0  0  0  0  0  0  0  0
   17.6685   -9.5236   23.7442 H   0  0  0  0  0  0  0  0  0  0  0  0
   17.3279  -13.4702   27.5410 H   0  0  0  0  0  0  0  0  0  0  0  0
   18.3043  -15.7693   27.5463 H   0  0  0  0  0  0  0  0  0  0  0  0
   19.2810  -16.7191   25.4840 H   0  0  0  0  0  0  0  0  0  0  0  0
   19.3214  -15.3958   23.3678 H   0  0  0  0  0  0  0  0  0  0  0  0
   18.5534  -12.7583   22.4105 H   0  0  0  0  0  0  0  0  0  0  0  0
  1  2  2  0  0  0  0
  2  3  1  0  0  0  0
  2  8  1  0  0  0  0
  3  4  1  0  0  0  0
  3 30  1  0  0  0  0
  4  5  2  0  0  0  0
  4  6  1  0  0  0  0
  5 31  1  0  0  0  0
  6  7  2  0  0  0  0
  6 32  1  0  0  0  0
  7  8  1  0  0  0  0
  7 33  1  0  0  0  0
  8  9  1  0  0  0  0
  9 10  1  0  0  0  0
  9 11  1  0  0  0  0
  9 34  1  6  0  0  0
 10 15  1  0  0  0  0
 11 12  1  0  0  0  0
 11 13  1  0  0  0  0
 11 35  1  6  0  0  0
 12 36  1  0  0  0  0
 13 14  1  0  0  0  0
 13 15  1  0  0  0  0
 13 37  1  6  0  0  0
 14 38  1  0  0  0  0
 15 16  1  0  0  0  0
 15 39  1  1  0  0  0
 16 17  1  0  0  0  0
 16 40  1  0  0  0  0
 16 41  1  0  0  0  0
 17 18  1  0  0  0  0
 17 42  1  0  0  0  0
 18 19  2  0  0  0  0
 18 20  1  0  0  0  0
 20 21  1  0  0  0  0
 20 43  1  0  0  0  0
 20 44  1  0  0  0  0
 21 22  1  0  0  0  0
 21 29  2  0  0  0  0
 22 23  1  0  0  0  0
 23 24  2  0  0  0  0
 23 28  1  0  0  0  0
 24 25  1  0  0  0  0
 24 45  1  0  0  0  0
 25 26  2  0  0  0  0
 25 46  1  0  0  0  0
 26 27  1  0  0  0  0
 26 47  1  0  0  0  0
 27 28  2  0  0  0  0
 27 48  1  0  0  0  0
 28 29  1  0  0  0  0
 29 49  1  0  0  0  0
M  CHG  3   3   1   8   1  29   1
M  END
$$$$
