V15
 OpenBabel04051919313D

 29 30  0  0  0  0  0  0  0  0999 V2000
   -0.1562    5.7772    9.0565 N   0  3  0  0  0  0  0  0  0  0  0  0
    0.7798    4.8712    9.4455 C   0  0  0  0  0  0  0  0  0  0  0  0
   -1.4472    5.7104    9.4660 C   0  0  0  0  0  0  0  0  0  0  0  0
   -1.7720    4.5831   10.3467 C   0  0  0  0  0  0  0  0  0  0  0  0
   -0.7888    3.7294   10.6764 C   0  0  0  0  0  0  0  0  0  0  0  0
    0.5070    3.8788   10.2310 N   0  0  0  0  0  0  0  0  0  0  0  0
   -2.9395    0.3185   10.5675 C   0  0  0  0  0  0  0  0  0  0  0  0
   -3.7544   -0.2921    9.6177 C   0  0  0  0  0  0  0  0  0  0  0  0
   -4.9470    0.3171    9.2282 C   0  0  0  0  0  0  0  0  0  0  0  0
   -5.3202    1.5370    9.7930 C   0  0  0  0  0  0  0  0  0  0  0  0
   -4.5060    2.1494   10.7420 C   0  0  0  0  0  0  0  0  0  0  0  0
    2.0361    5.0380    8.9809 N   0  0  0  0  0  0  0  0  0  0  0  0
   -0.9848    2.5228   11.5777 C   0  0  0  0  0  0  0  0  0  0  0  0
   -3.2953    1.5572   11.1234 C   0  0  0  0  0  0  0  0  0  0  0  0
   -2.3947    2.2422   12.1231 C   0  0  0  0  0  0  0  0  0  0  0  0
   -2.2957    6.5360    9.1464 O   0  0  0  0  0  0  0  0  0  0  0  0
    0.0824    6.5385    8.4453 H   0  0  0  0  0  0  0  0  0  0  0  0
   -2.7956    4.5124   10.6740 H   0  0  0  0  0  0  0  0  0  0  0  0
   -2.0147   -0.1758   10.8590 H   0  0  0  0  0  0  0  0  0  0  0  0
   -3.4612   -1.2420    9.1773 H   0  0  0  0  0  0  0  0  0  0  0  0
   -5.5799   -0.1555    8.4888 H   0  0  0  0  0  0  0  0  0  0  0  0
   -6.2507    2.0125    9.4907 H   0  0  0  0  0  0  0  0  0  0  0  0
   -4.8126    3.1009   11.1669 H   0  0  0  0  0  0  0  0  0  0  0  0
    2.7376    4.3884    9.3135 H   0  0  0  0  0  0  0  0  0  0  0  0
    2.3340    5.8260    8.4299 H   0  0  0  0  0  0  0  0  0  0  0  0
   -0.3180    2.6504   12.4412 H   0  0  0  0  0  0  0  0  0  0  0  0
   -0.6115    1.6437   11.0370 H   0  0  0  0  0  0  0  0  0  0  0  0
   -2.8552    3.1704   12.4848 H   0  0  0  0  0  0  0  0  0  0  0  0
   -2.3225    1.5937   13.0053 H   0  0  0  0  0  0  0  0  0  0  0  0
  1  2  1  0  0  0  0
  1  3  1  0  0  0  0
  1 17  1  0  0  0  0
  2  6  2  0  0  0  0
  2 12  1  0  0  0  0
  3  4  1  0  0  0  0
  3 16  2  0  0  0  0
  4  5  2  0  0  0  0
  4 18  1  0  0  0  0
  5  6  1  0  0  0  0
  5 13  1  0  0  0  0
  7  8  2  0  0  0  0
  7 14  1  0  0  0  0
  7 19  1  0  0  0  0
  8  9  1  0  0  0  0
  8 20  1  0  0  0  0
  9 10  2  0  0  0  0
  9 21  1  0  0  0  0
 10 11  1  0  0  0  0
 10 22  1  0  0  0  0
 11 14  2  0  0  0  0
 11 23  1  0  0  0  0
 12 24  1  0  0  0  0
 12 25  1  0  0  0  0
 13 15  1  0  0  0  0
 13 26  1  0  0  0  0
 13 27  1  0  0  0  0
 14 15  1  0  0  0  0
 15 28  1  0  0  0  0
 15 29  1  0  0  0  0
M  CHG  1   1   1
M  END
$$$$
