VBZ
 OpenBabel04051919453D

 42 44  0  0  1  0  0  0  0  0999 V2000
   28.2115   44.6600   -0.1072 O   0  0  0  0  0  0  0  0  0  0  0  0
   27.5310   45.8454   -0.5018 C   0  0  1  0  0  0  0  0  0  0  0  0
   28.0923   47.0785    0.2425 C   0  0  1  0  0  0  0  0  0  0  0  0
   29.3937   46.7770    0.7569 O   0  0  0  0  0  0  0  0  0  0  0  0
   28.1400   48.2735   -0.7512 C   0  0  2  0  0  0  0  0  0  0  0  0
   28.4002   49.4735   -0.0342 O   0  0  0  0  0  0  0  0  0  0  0  0
   26.7371   48.3329   -1.4290 C   0  0  1  0  0  0  0  0  0  0  0  0
   26.4047   49.6563   -2.1155 C   0  0  0  0  0  0  0  0  0  0  0  0
   27.2385   49.8319   -3.2482 O   0  0  0  0  0  0  0  0  0  0  0  0
   26.5598   47.1259   -2.3813 C   0  0  0  0  0  0  0  0  0  0  0  0
   29.2681   47.9617   -1.7658 C   0  0  0  0  0  0  0  0  0  0  0  0
   28.9769   46.6299   -2.4618 N   0  3  1  0  0  0  0  0  0  0  0  0
   27.6090   46.0722   -2.0413 C   0  0  1  0  0  0  0  0  0  0  0  0
   29.1006   46.6926   -3.9759 C   0  0  0  0  0  0  0  0  0  0  0  0
   30.3059   47.3613   -4.5562 C   0  0  0  0  0  0  0  0  0  0  0  0
   31.5907   46.8718   -4.3134 C   0  0  0  0  0  0  0  0  0  0  0  0
   32.6925   47.4919   -4.9084 C   0  0  0  0  0  0  0  0  0  0  0  0
   30.1397   48.4799   -5.3982 C   0  0  0  0  0  0  0  0  0  0  0  0
   31.2470   49.1023   -5.9817 C   0  0  0  0  0  0  0  0  0  0  0  0
   32.5069   48.6121   -5.7379 C   0  0  0  0  0  0  0  0  0  0  0  0
   27.7089   43.8915   -0.4364 H   0  0  0  0  0  0  0  0  0  0  0  0
   26.4714   45.7333   -0.2223 H   0  0  0  0  0  0  0  0  0  0  0  0
   27.4693   47.3320    1.1108 H   0  0  0  0  0  0  0  0  0  0  0  0
   29.2862   45.9602    1.2883 H   0  0  0  0  0  0  0  0  0  0  0  0
   28.5479   50.2060   -0.6611 H   0  0  0  0  0  0  0  0  0  0  0  0
   25.9914   48.2290   -0.6294 H   0  0  0  0  0  0  0  0  0  0  0  0
   26.5372   50.4987   -1.4378 H   0  0  0  0  0  0  0  0  0  0  0  0
   25.3566   49.6428   -2.4411 H   0  0  0  0  0  0  0  0  0  0  0  0
   26.9418   50.6616   -3.6741 H   0  0  0  0  0  0  0  0  0  0  0  0
   26.5966   47.4311   -3.4286 H   0  0  0  0  0  0  0  0  0  0  0  0
   25.5606   46.6974   -2.2632 H   0  0  0  0  0  0  0  0  0  0  0  0
   30.2502   47.8620   -1.2831 H   0  0  0  0  0  0  0  0  0  0  0  0
   29.3691   48.7538   -2.5097 H   0  0  0  0  0  0  0  0  0  0  0  0
   27.4794   45.1302   -2.5828 H   0  0  0  0  0  0  0  0  0  0  0  0
   28.2295   47.2325   -4.3522 H   0  0  0  0  0  0  0  0  0  0  0  0
   29.0198   45.6627   -4.3458 H   0  0  0  0  0  0  0  0  0  0  0  0
   31.7555   46.0023   -3.6862 H   0  0  0  0  0  0  0  0  0  0  0  0
   33.6944   47.0997   -4.7365 H   0  0  0  0  0  0  0  0  0  0  0  0
   29.1482   48.8792   -5.6127 H   0  0  0  0  0  0  0  0  0  0  0  0
   31.1031   49.9647   -6.6290 H   0  0  0  0  0  0  0  0  0  0  0  0
   33.3753   49.0881   -6.1964 H   0  0  0  0  0  0  0  0  0  0  0  0
   29.6977   45.9779   -2.1160 H   0  0  0  0  0  0  0  0  0  0  0  0
  1  2  1  0  0  0  0
  1 21  1  0  0  0  0
  2  3  1  0  0  0  0
  2 13  1  0  0  0  0
  2 22  1  1  0  0  0
  3  4  1  0  0  0  0
  3  5  1  0  0  0  0
  3 23  1  1  0  0  0
  4 24  1  0  0  0  0
  5  6  1  1  0  0  0
  5  7  1  0  0  0  0
  5 11  1  0  0  0  0
  6 25  1  0  0  0  0
  7  8  1  0  0  0  0
  7 10  1  0  0  0  0
  7 26  1  1  0  0  0
  8  9  1  0  0  0  0
  8 27  1  0  0  0  0
  8 28  1  0  0  0  0
  9 29  1  0  0  0  0
 10 13  1  0  0  0  0
 10 30  1  0  0  0  0
 10 31  1  0  0  0  0
 11 12  1  0  0  0  0
 11 32  1  0  0  0  0
 11 33  1  0  0  0  0
 12 13  1  0  0  0  0
 12 14  1  0  0  0  0
 12 42  1  1  0  0  0
 13 34  1  6  0  0  0
 14 15  1  0  0  0  0
 14 35  1  0  0  0  0
 14 36  1  0  0  0  0
 15 16  2  0  0  0  0
 15 18  1  0  0  0  0
 16 17  1  0  0  0  0
 16 37  1  0  0  0  0
 17 20  2  0  0  0  0
 17 38  1  0  0  0  0
 18 19  2  0  0  0  0
 18 39  1  0  0  0  0
 19 20  1  0  0  0  0
 19 40  1  0  0  0  0
 20 41  1  0  0  0  0
M  CHG  1  12   1
M  END
$$$$
