VD3
 OpenBabel04051918023D

 76 78  0  0  1  0  0  0  0  0999 V2000
   -0.3810    0.1988   24.5552 O   0  0  0  0  0  0  0  0  0  0  0  0
    0.6895    1.3349   21.3983 C   0  0  0  0  0  0  0  0  0  0  0  0
    0.4178    1.6909   22.8556 C   0  0  0  0  0  0  0  0  0  0  0  0
   -0.8182    1.0265   23.4760 C   0  0  1  0  0  0  0  0  0  0  0  0
   -1.6394    0.1916   22.4994 C   0  0  0  0  0  0  0  0  0  0  0  0
   -1.7148    0.7778   21.0864 C   0  0  1  0  0  0  0  0  0  0  0  0
   -3.0652    0.6933   20.3270 C   0  0  0  0  0  0  0  0  0  0  0  0
   -4.3797    1.3392   20.4399 C   0  0  0  0  0  0  0  0  0  0  0  0
   -4.6656    2.7086   19.7992 C   0  0  2  0  0  0  0  0  0  0  0  0
   -4.6919    2.2596   18.3295 C   0  0  0  0  0  0  0  0  0  0  0  0
   -0.5245    1.5854   20.6666 C   0  0  0  0  0  0  0  0  0  0  0  0
   -4.3490    3.2871   17.3028 C   0  0  0  0  0  0  0  0  0  0  0  0
   -4.6608    4.7095   17.6778 C   0  0  0  0  0  0  0  0  0  0  0  0
   -4.3689    5.1517   19.1269 C   0  0  1  0  0  0  0  0  0  0  0  0
   -3.7885    3.9746   19.9911 C   0  0  1  0  0  0  0  0  0  0  0  0
   -3.5628    4.7051   21.3384 C   0  0  0  0  0  0  0  0  0  0  0  0
   -3.2340    6.2241   20.9766 C   0  0  0  0  0  0  0  0  0  0  0  0
   -3.2663    6.3022   19.4180 C   0  0  2  0  0  0  0  0  0  0  0  0
   -5.7745    5.6229   19.6323 C   0  0  0  0  0  0  0  0  0  0  0  0
   -0.5112    2.3819   19.4848 C   0  0  0  0  0  0  0  0  0  0  0  0
   -3.5625    7.6981   18.7448 C   0  0  2  0  0  0  0  0  0  0  0  0
   -2.9096    7.7281   17.3608 C   0  0  0  0  0  0  0  0  0  0  0  0
   -3.1163    9.0473   19.3404 C   0  0  0  0  0  0  0  0  0  0  0  0
   -4.1110   10.2383   18.9779 C   0  0  0  0  0  0  0  0  0  0  0  0
   -3.2446   11.4019   18.4856 C   0  0  0  0  0  0  0  0  0  0  0  0
   -3.4194   12.8195   19.0603 C   0  0  0  0  0  0  0  0  0  0  0  0
   -2.1142   12.8719   19.8450 C   0  0  0  0  0  0  0  0  0  0  0  0
   -3.1290   14.1076   18.2803 C   0  0  0  0  0  0  0  0  0  0  0  0
   -1.1421   -0.2312   24.9972 H   0  0  0  0  0  0  0  0  0  0  0  0
    0.9928    0.2695   21.3314 H   0  0  0  0  0  0  0  0  0  0  0  0
    1.5306    1.9170   21.0253 H   0  0  0  0  0  0  0  0  0  0  0  0
    0.2903    2.7801   22.8787 H   0  0  0  0  0  0  0  0  0  0  0  0
    1.3251    1.4503   23.4229 H   0  0  0  0  0  0  0  0  0  0  0  0
   -1.4633    1.7900   23.9156 H   0  0  0  0  0  0  0  0  0  0  0  0
   -2.6246   -0.0313   22.9124 H   0  0  0  0  0  0  0  0  0  0  0  0
   -1.1405   -0.7814   22.3887 H   0  0  0  0  0  0  0  0  0  0  0  0
   -1.3782   -0.1296   20.5607 H   0  0  0  0  0  0  0  0  0  0  0  0
   -3.3120   -0.3712   20.5009 H   0  0  0  0  0  0  0  0  0  0  0  0
   -2.6978    0.7918   19.2923 H   0  0  0  0  0  0  0  0  0  0  0  0
   -4.8309    1.2442   21.4285 H   0  0  0  0  0  0  0  0  0  0  0  0
   -5.0118    0.6251   19.8063 H   0  0  0  0  0  0  0  0  0  0  0  0
   -5.6599    2.9408   20.1863 H   0  0  0  0  0  0  0  0  0  0  0  0
   -5.6598    1.7829   18.1062 H   0  0  0  0  0  0  0  0  0  0  0  0
   -3.9804    1.4467   18.1328 H   0  0  0  0  0  0  0  0  0  0  0  0
   -4.8821    2.9840   16.3962 H   0  0  0  0  0  0  0  0  0  0  0  0
   -3.2814    3.1810   17.0947 H   0  0  0  0  0  0  0  0  0  0  0  0
   -5.7225    4.8663   17.4501 H   0  0  0  0  0  0  0  0  0  0  0  0
   -4.1382    5.3319   16.9763 H   0  0  0  0  0  0  0  0  0  0  0  0
   -2.8095    3.7328   19.5923 H   0  0  0  0  0  0  0  0  0  0  0  0
   -2.7512    4.2652   21.9243 H   0  0  0  0  0  0  0  0  0  0  0  0
   -4.4574    4.6550   21.9678 H   0  0  0  0  0  0  0  0  0  0  0  0
   -2.2755    6.5473   21.3996 H   0  0  0  0  0  0  0  0  0  0  0  0
   -3.9813    6.9087   21.3966 H   0  0  0  0  0  0  0  0  0  0  0  0
   -2.2828    5.9418   19.0808 H   0  0  0  0  0  0  0  0  0  0  0  0
   -6.5590    4.8881   19.4161 H   0  0  0  0  0  0  0  0  0  0  0  0
   -6.1021    6.5448   19.1411 H   0  0  0  0  0  0  0  0  0  0  0  0
   -5.8139    5.8052   20.7045 H   0  0  0  0  0  0  0  0  0  0  0  0
    0.4016    2.8283   19.2338 H   0  0  0  0  0  0  0  0  0  0  0  0
   -1.3780    2.4972   18.9092 H   0  0  0  0  0  0  0  0  0  0  0  0
   -4.6350    7.7851   18.6236 H   0  0  0  0  0  0  0  0  0  0  0  0
   -3.1083    8.6781   16.8450 H   0  0  0  0  0  0  0  0  0  0  0  0
   -3.2645    6.9434   16.7195 H   0  0  0  0  0  0  0  0  0  0  0  0
   -1.8216    7.6279   17.4582 H   0  0  0  0  0  0  0  0  0  0  0  0
   -2.1173    9.2711   18.9254 H   0  0  0  0  0  0  0  0  0  0  0  0
   -2.9474    9.0069   20.4153 H   0  0  0  0  0  0  0  0  0  0  0  0
   -4.7529   10.5113   19.8214 H   0  0  0  0  0  0  0  0  0  0  0  0
   -4.7932    9.9840   18.1592 H   0  0  0  0  0  0  0  0  0  0  0  0
   -3.1713   11.4131   17.4035 H   0  0  0  0  0  0  0  0  0  0  0  0
   -2.2686   11.0617   18.8236 H   0  0  0  0  0  0  0  0  0  0  0  0
   -4.3532   12.9516   19.6156 H   0  0  0  0  0  0  0  0  0  0  0  0
   -1.9462   13.8431   20.2871 H   0  0  0  0  0  0  0  0  0  0  0  0
   -1.3014   12.7016   19.0901 H   0  0  0  0  0  0  0  0  0  0  0  0
   -2.1415   12.0856   20.5870 H   0  0  0  0  0  0  0  0  0  0  0  0
   -3.9468   14.4320   17.6490 H   0  0  0  0  0  0  0  0  0  0  0  0
   -2.1915   14.0197   17.7091 H   0  0  0  0  0  0  0  0  0  0  0  0
   -2.9631   14.9301   19.0227 H   0  0  0  0  0  0  0  0  0  0  0  0
  1  4  1  0  0  0  0
  1 29  1  0  0  0  0
  2  3  1  0  0  0  0
  2 11  1  0  0  0  0
  2 30  1  0  0  0  0
  2 31  1  0  0  0  0
  3  4  1  0  0  0  0
  3 32  1  0  0  0  0
  3 33  1  0  0  0  0
  4  5  1  0  0  0  0
  4 34  1  1  0  0  0
  5  6  1  0  0  0  0
  5 35  1  0  0  0  0
  5 36  1  0  0  0  0
  6  7  1  0  0  0  0
  6 11  1  0  0  0  0
  6 37  1  6  0  0  0
  7  8  1  0  0  0  0
  7 38  1  0  0  0  0
  7 39  1  0  0  0  0
  8  9  1  0  0  0  0
  8 40  1  0  0  0  0
  8 41  1  0  0  0  0
  9 10  1  0  0  0  0
  9 15  1  0  0  0  0
  9 42  1  1  0  0  0
 10 12  1  0  0  0  0
 10 43  1  0  0  0  0
 10 44  1  0  0  0  0
 11 20  2  0  0  0  0
 12 13  1  0  0  0  0
 12 45  1  0  0  0  0
 12 46  1  0  0  0  0
 13 14  1  0  0  0  0
 13 47  1  0  0  0  0
 13 48  1  0  0  0  0
 14 15  1  0  0  0  0
 14 18  1  0  0  0  0
 14 19  1  1  0  0  0
 15 16  1  0  0  0  0
 15 49  1  6  0  0  0
 16 17  1  0  0  0  0
 16 50  1  0  0  0  0
 16 51  1  0  0  0  0
 17 18  1  0  0  0  0
 17 52  1  0  0  0  0
 17 53  1  0  0  0  0
 18 21  1  0  0  0  0
 18 54  1  6  0  0  0
 19 55  1  0  0  0  0
 19 56  1  0  0  0  0
 19 57  1  0  0  0  0
 20 58  1  0  0  0  0
 20 59  1  0  0  0  0
 21 22  1  0  0  0  0
 21 23  1  0  0  0  0
 21 60  1  6  0  0  0
 22 61  1  0  0  0  0
 22 62  1  0  0  0  0
 22 63  1  0  0  0  0
 23 24  1  0  0  0  0
 23 64  1  0  0  0  0
 23 65  1  0  0  0  0
 24 25  1  0  0  0  0
 24 66  1  0  0  0  0
 24 67  1  0  0  0  0
 25 26  1  0  0  0  0
 25 68  1  0  0  0  0
 25 69  1  0  0  0  0
 26 27  1  0  0  0  0
 26 28  1  0  0  0  0
 26 70  1  0  0  0  0
 27 71  1  0  0  0  0
 27 72  1  0  0  0  0
 27 73  1  0  0  0  0
 28 74  1  0  0  0  0
 28 75  1  0  0  0  0
 28 76  1  0  0  0  0
M  END
$$$$
