VD4
 OpenBabel04051918333D

 72 74  0  0  1  0  0  0  0  0999 V2000
   66.0684   -2.2913   -7.4873 O   0  0  0  0  0  0  0  0  0  0  0  0
   66.7362   -1.2610   -6.7524 C   0  0  0  0  0  0  0  0  0  0  0  0
   68.1803   -1.2265   -7.2487 C   0  0  0  0  0  0  0  0  0  0  0  0
   66.7105   -1.6469   -5.2723 C   0  0  0  0  0  0  0  0  0  0  0  0
   66.0324    0.0942   -7.0112 C   0  0  0  0  0  0  0  0  0  0  0  0
   64.5291    0.0345   -6.7075 C   0  0  0  0  0  0  0  0  0  0  0  0
   63.7252    1.2505   -7.1777 C   0  0  0  0  0  0  0  0  0  0  0  0
   62.2687    1.1346   -6.7401 C   0  0  0  0  0  0  0  0  0  0  0  0
   61.5693   -0.1279   -7.1980 C   0  0  0  0  0  0  0  0  0  0  0  0
   61.6010    2.0289   -5.9766 C   0  0  0  0  0  0  0  0  0  0  0  0
   62.0587    3.3782   -5.4210 C   0  0  1  0  0  0  0  0  0  0  0  0
   62.9559    3.1193   -4.1842 C   0  0  0  0  0  0  0  0  0  0  0  0
   62.7456    4.3832   -6.3785 C   0  0  0  0  0  0  0  0  0  0  0  0
   62.8779    5.7863   -5.7502 C   0  0  0  0  0  0  0  0  0  0  0  0
   61.5505    6.3217   -5.1932 C   0  0  0  0  0  0  0  0  0  0  0  0
   60.1735    1.7592   -5.4935 C   0  0  0  0  0  0  0  0  0  0  0  0
   59.8719    2.8537   -4.4859 C   0  0  0  0  0  0  0  0  0  0  0  0
   60.6779    4.0047   -5.0630 C   0  0  1  0  0  0  0  0  0  0  0  0
   60.8747    5.2925   -4.3126 C   0  0  0  0  0  0  0  0  0  0  0  0
   60.6013    5.4288   -3.0076 C   0  0  0  0  0  0  0  0  0  0  0  0
   60.8253    6.6238   -2.2445 C   0  0  0  0  0  0  0  0  0  0  0  0
   61.1596    6.6843   -0.9452 C   0  0  0  0  0  0  0  0  0  0  0  0
   61.4053    5.4764   -0.0571 C   0  0  0  0  0  0  0  0  0  0  0  0
   60.7237    5.6040    1.3125 C   0  0  1  0  0  0  0  0  0  0  0  0
   61.0692    4.4919    2.1381 O   0  0  0  0  0  0  0  0  0  0  0  0
   61.3486    8.0425   -0.2750 C   0  0  0  0  0  0  0  0  0  0  0  0
   60.7354    8.1221    1.1346 C   0  0  1  0  0  0  0  0  0  0  0  0
   59.3163    8.2056    1.0438 O   0  0  0  0  0  0  0  0  0  0  0  0
   61.1077    6.9212    1.9663 C   0  0  0  0  0  0  0  0  0  0  0  0
   61.7593    7.0487    3.1352 C   0  0  0  0  0  0  0  0  0  0  0  0
   66.0900   -2.0443   -8.4281 H   0  0  0  0  0  0  0  0  0  0  0  0
   68.7784   -0.4873   -6.7079 H   0  0  0  0  0  0  0  0  0  0  0  0
   68.2164   -0.9945   -8.3191 H   0  0  0  0  0  0  0  0  0  0  0  0
   68.6492   -2.2117   -7.1334 H   0  0  0  0  0  0  0  0  0  0  0  0
   67.2201   -0.8966   -4.6559 H   0  0  0  0  0  0  0  0  0  0  0  0
   67.2056   -2.6142   -5.1116 H   0  0  0  0  0  0  0  0  0  0  0  0
   65.6908   -1.7692   -4.8993 H   0  0  0  0  0  0  0  0  0  0  0  0
   66.1629    0.3685   -8.0657 H   0  0  0  0  0  0  0  0  0  0  0  0
   66.5030    0.8809   -6.4095 H   0  0  0  0  0  0  0  0  0  0  0  0
   64.3851   -0.0790   -5.6271 H   0  0  0  0  0  0  0  0  0  0  0  0
   64.1227   -0.8573   -7.1923 H   0  0  0  0  0  0  0  0  0  0  0  0
   63.7664    1.3397   -8.2706 H   0  0  0  0  0  0  0  0  0  0  0  0
   64.2094    2.1378   -6.7741 H   0  0  0  0  0  0  0  0  0  0  0  0
   60.5274   -0.1971   -6.8791 H   0  0  0  0  0  0  0  0  0  0  0  0
   62.0565   -1.0134   -6.7823 H   0  0  0  0  0  0  0  0  0  0  0  0
   61.5631   -0.1844   -8.2901 H   0  0  0  0  0  0  0  0  0  0  0  0
   63.9347    2.7302   -4.4858 H   0  0  0  0  0  0  0  0  0  0  0  0
   62.5155    2.3898   -3.4954 H   0  0  0  0  0  0  0  0  0  0  0  0
   63.1466    4.0271   -3.6039 H   0  0  0  0  0  0  0  0  0  0  0  0
   62.1698    4.4618   -7.3104 H   0  0  0  0  0  0  0  0  0  0  0  0
   63.7499    4.0626   -6.6611 H   0  0  0  0  0  0  0  0  0  0  0  0
   63.2644    6.4841   -6.5031 H   0  0  0  0  0  0  0  0  0  0  0  0
   63.6232    5.7596   -4.9502 H   0  0  0  0  0  0  0  0  0  0  0  0
   60.8799    6.5841   -6.0197 H   0  0  0  0  0  0  0  0  0  0  0  0
   61.7613    7.2587   -4.6585 H   0  0  0  0  0  0  0  0  0  0  0  0
   60.0659    0.7789   -5.0197 H   0  0  0  0  0  0  0  0  0  0  0  0
   59.4834    1.8341   -6.3428 H   0  0  0  0  0  0  0  0  0  0  0  0
   60.1935    2.5510   -3.4841 H   0  0  0  0  0  0  0  0  0  0  0  0
   58.7992    3.0733   -4.4443 H   0  0  0  0  0  0  0  0  0  0  0  0
   60.1587    4.2741   -6.0003 H   0  0  0  0  0  0  0  0  0  0  0  0
   60.2018    4.5727   -2.4618 H   0  0  0  0  0  0  0  0  0  0  0  0
   60.7170    7.5603   -2.7913 H   0  0  0  0  0  0  0  0  0  0  0  0
   62.4863    5.3378    0.0699 H   0  0  0  0  0  0  0  0  0  0  0  0
   61.0519    4.5461   -0.5149 H   0  0  0  0  0  0  0  0  0  0  0  0
   59.6398    5.5736    1.1850 H   0  0  0  0  0  0  0  0  0  0  0  0
   62.0330    4.5026    2.2600 H   0  0  0  0  0  0  0  0  0  0  0  0
   60.9003    8.8304   -0.8926 H   0  0  0  0  0  0  0  0  0  0  0  0
   62.4234    8.2511   -0.2107 H   0  0  0  0  0  0  0  0  0  0  0  0
   61.0727    9.0521    1.6089 H   0  0  0  0  0  0  0  0  0  0  0  0
   58.9724    8.1693    1.9529 H   0  0  0  0  0  0  0  0  0  0  0  0
   62.0484    6.1875    3.7325 H   0  0  0  0  0  0  0  0  0  0  0  0
   62.0259    8.0242    3.5287 H   0  0  0  0  0  0  0  0  0  0  0  0
  1  2  1  0  0  0  0
  1 31  1  0  0  0  0
  2  3  1  0  0  0  0
  2  4  1  0  0  0  0
  2  5  1  0  0  0  0
  3 32  1  0  0  0  0
  3 33  1  0  0  0  0
  3 34  1  0  0  0  0
  4 35  1  0  0  0  0
  4 36  1  0  0  0  0
  4 37  1  0  0  0  0
  5  6  1  0  0  0  0
  5 38  1  0  0  0  0
  5 39  1  0  0  0  0
  6  7  1  0  0  0  0
  6 40  1  0  0  0  0
  6 41  1  0  0  0  0
  7  8  1  0  0  0  0
  7 42  1  0  0  0  0
  7 43  1  0  0  0  0
  8  9  1  0  0  0  0
  8 10  2  0  0  0  0
  9 44  1  0  0  0  0
  9 45  1  0  0  0  0
  9 46  1  0  0  0  0
 10 11  1  0  0  0  0
 10 16  1  0  0  0  0
 11 12  1  1  0  0  0
 11 13  1  0  0  0  0
 11 18  1  0  0  0  0
 12 47  1  0  0  0  0
 12 48  1  0  0  0  0
 12 49  1  0  0  0  0
 13 14  1  0  0  0  0
 13 50  1  0  0  0  0
 13 51  1  0  0  0  0
 14 15  1  0  0  0  0
 14 52  1  0  0  0  0
 14 53  1  0  0  0  0
 15 19  1  0  0  0  0
 15 54  1  0  0  0  0
 15 55  1  0  0  0  0
 16 17  1  0  0  0  0
 16 56  1  0  0  0  0
 16 57  1  0  0  0  0
 17 18  1  0  0  0  0
 17 58  1  0  0  0  0
 17 59  1  0  0  0  0
 18 19  1  0  0  0  0
 18 60  1  6  0  0  0
 19 20  2  0  0  0  0
 20 21  1  0  0  0  0
 20 61  1  0  0  0  0
 21 22  2  0  0  0  0
 21 62  1  0  0  0  0
 22 23  1  0  0  0  0
 22 26  1  0  0  0  0
 23 24  1  0  0  0  0
 23 63  1  0  0  0  0
 23 64  1  0  0  0  0
 24 25  1  0  0  0  0
 24 29  1  0  0  0  0
 24 65  1  6  0  0  0
 25 66  1  0  0  0  0
 26 27  1  0  0  0  0
 26 67  1  0  0  0  0
 26 68  1  0  0  0  0
 27 28  1  0  0  0  0
 27 29  1  0  0  0  0
 27 69  1  1  0  0  0
 28 70  1  0  0  0  0
 29 30  2  0  0  0  0
 30 71  1  0  0  0  0
 30 72  1  0  0  0  0
M  END
$$$$
