VDM
 OpenBabel04051918253D

 49 50  0  0  1  0  0  0  0  0999 V2000
   29.3167   51.0366   15.0925 O   0  0  0  0  0  0  0  0  0  0  0  0
   30.3902   51.0584   14.1741 C   0  0  0  0  0  0  0  0  0  0  0  0
   30.1158   52.1375   13.1659 C   0  0  0  0  0  0  0  0  0  0  0  0
   29.5921   51.8129   11.9516 C   0  0  0  0  0  0  0  0  0  0  0  0
   30.4143   53.5599   13.5769 C   0  0  1  0  0  0  0  0  0  0  0  0
   31.7651   53.6125   14.0198 O   0  0  0  0  0  0  0  0  0  0  0  0
   30.2371   54.6049   12.4404 C   0  0  2  0  0  0  0  0  0  0  0  0
   30.0018   55.8876   13.0255 O   0  0  0  0  0  0  0  0  0  0  0  0
   29.0468   54.2196   11.5300 C   0  0  1  0  0  0  0  0  0  0  0  0
   28.7931   55.1592   10.4800 O   0  0  0  0  0  0  0  0  0  0  0  0
   29.2880   52.8186   10.8914 C   0  0  1  0  0  0  0  0  0  0  0  0
   30.4054   52.9196    9.8585 N   0  3  0  0  0  0  0  0  0  0  0  0
   31.1750   51.6413    9.5210 C   0  0  2  0  0  0  0  0  0  0  0  0
   32.6527   52.0189    9.3570 C   0  0  2  0  0  0  0  0  0  0  0  0
   32.8829   53.0068   10.3848 O   0  0  0  0  0  0  0  0  0  0  0  0
   30.5503   50.9107    8.3507 C   0  0  0  0  0  0  0  0  0  0  0  0
   31.0536   51.3403    6.9600 C   0  0  2  0  0  0  0  0  0  0  0  0
   30.5424   50.3451    5.9153 C   0  0  0  0  0  0  0  0  0  0  0  0
   29.1220   50.3049    6.0029 O   0  0  0  0  0  0  0  0  0  0  0  0
   32.5773   51.4951    6.9176 C   0  0  1  0  0  0  0  0  0  0  0  0
   32.9758   51.9652    5.6316 O   0  0  0  0  0  0  0  0  0  0  0  0
   33.0009   52.5376    7.9582 C   0  0  2  0  0  0  0  0  0  0  0  0
   34.3985   52.7935    7.8660 O   0  0  0  0  0  0  0  0  0  0  0  0
   29.3522   51.8487   15.6251 H   0  0  0  0  0  0  0  0  0  0  0  0
   30.4392   50.0832   13.7025 H   0  0  0  0  0  0  0  0  0  0  0  0
   31.3424   51.1968   14.6928 H   0  0  0  0  0  0  0  0  0  0  0  0
   29.3259   50.7903   11.7518 H   0  0  0  0  0  0  0  0  0  0  0  0
   29.7640   53.8355   14.4152 H   0  0  0  0  0  0  0  0  0  0  0  0
   31.7736   53.4119   14.9740 H   0  0  0  0  0  0  0  0  0  0  0  0
   31.1682   54.7078   11.8701 H   0  0  0  0  0  0  0  0  0  0  0  0
   29.9570   56.5636   12.3290 H   0  0  0  0  0  0  0  0  0  0  0  0
   28.1451   54.1840   12.1475 H   0  0  0  0  0  0  0  0  0  0  0  0
   29.5846   55.6744   10.2574 H   0  0  0  0  0  0  0  0  0  0  0  0
   28.3990   52.5145   10.3303 H   0  0  0  0  0  0  0  0  0  0  0  0
   30.0129   53.3870    9.0227 H   0  0  0  0  0  0  0  0  0  0  0  0
   31.1310   51.0069   10.4020 H   0  0  0  0  0  0  0  0  0  0  0  0
   33.2727   51.1390    9.5694 H   0  0  0  0  0  0  0  0  0  0  0  0
   33.4180   53.7361   10.0187 H   0  0  0  0  0  0  0  0  0  0  0  0
   29.4585   50.9989    8.4032 H   0  0  0  0  0  0  0  0  0  0  0  0
   30.7751   49.8433    8.4846 H   0  0  0  0  0  0  0  0  0  0  0  0
   30.6014   52.3151    6.7264 H   0  0  0  0  0  0  0  0  0  0  0  0
   30.9190   49.3374    6.1218 H   0  0  0  0  0  0  0  0  0  0  0  0
   30.8286   50.6147    4.8951 H   0  0  0  0  0  0  0  0  0  0  0  0
   28.7749   51.0889    5.5423 H   0  0  0  0  0  0  0  0  0  0  0  0
   33.0910   50.5369    7.0955 H   0  0  0  0  0  0  0  0  0  0  0  0
   33.9251   51.7577    5.5201 H   0  0  0  0  0  0  0  0  0  0  0  0
   32.5184   53.5022    7.7754 H   0  0  0  0  0  0  0  0  0  0  0  0
   34.5659   53.2185    7.0096 H   0  0  0  0  0  0  0  0  0  0  0  0
   31.1486   53.5028   10.2558 H   0  0  0  0  0  0  0  0  0  0  0  0
  1  2  1  0  0  0  0
  1 24  1  0  0  0  0
  2  3  1  0  0  0  0
  2 25  1  0  0  0  0
  2 26  1  0  0  0  0
  3  4  2  0  0  0  0
  3  5  1  0  0  0  0
  4 11  1  0  0  0  0
  4 27  1  0  0  0  0
  5  6  1  0  0  0  0
  5  7  1  0  0  0  0
  5 28  1  1  0  0  0
  6 29  1  0  0  0  0
  7  8  1  0  0  0  0
  7  9  1  0  0  0  0
  7 30  1  6  0  0  0
  8 31  1  0  0  0  0
  9 10  1  0  0  0  0
  9 11  1  0  0  0  0
  9 32  1  1  0  0  0
 10 33  1  0  0  0  0
 11 12  1  0  0  0  0
 11 34  1  6  0  0  0
 12 13  1  0  0  0  0
 12 35  1  0  0  0  0
 12 49  1  0  0  0  0
 13 14  1  0  0  0  0
 13 16  1  0  0  0  0
 13 36  1  1  0  0  0
 14 15  1  0  0  0  0
 14 22  1  0  0  0  0
 14 37  1  1  0  0  0
 15 38  1  0  0  0  0
 16 17  1  0  0  0  0
 16 39  1  0  0  0  0
 16 40  1  0  0  0  0
 17 18  1  0  0  0  0
 17 20  1  0  0  0  0
 17 41  1  6  0  0  0
 18 19  1  0  0  0  0
 18 42  1  0  0  0  0
 18 43  1  0  0  0  0
 19 44  1  0  0  0  0
 20 21  1  0  0  0  0
 20 22  1  0  0  0  0
 20 45  1  1  0  0  0
 21 46  1  0  0  0  0
 22 23  1  0  0  0  0
 22 47  1  6  0  0  0
 23 48  1  0  0  0  0
M  CHG  1  12   1
M  END
$$$$
