VHD
 OpenBabel04051920163D

 39 41  0  0  0  0  0  0  0  0999 V2000
    1.5712   31.0775    0.7213 C   0  0  0  0  0  0  0  0  0  0  0  0
    1.2974   32.4787    1.2675 C   0  0  0  0  0  0  0  0  0  0  0  0
    2.3921   33.4523    0.8161 C   0  0  0  0  0  0  0  0  0  0  0  0
   -0.1006   32.9143    0.8606 C   0  0  0  0  0  0  0  0  0  0  0  0
   -0.3437   33.5045   -0.3886 C   0  0  0  0  0  0  0  0  0  0  0  0
   -1.6355   33.8993   -0.7578 C   0  0  0  0  0  0  0  0  0  0  0  0
   -1.7805   34.6341   -2.0362 C   0  0  0  0  0  0  0  0  0  0  0  0
   -2.2505   34.0616   -3.0163 O   0  0  0  0  0  0  0  0  0  0  0  0
   -1.3709   35.9832   -2.1804 N   0  3  0  0  0  0  0  0  0  0  0  0
   -1.4720   36.7634   -3.3375 C   0  0  0  0  0  0  0  0  0  0  0  0
   -1.2412   38.0671   -2.9789 C   0  0  0  0  0  0  0  0  0  0  0  0
   -1.3895   39.1946   -3.7726 C   0  0  0  0  0  0  0  0  0  0  0  0
   -1.1165   40.3712   -3.0268 C   0  0  0  0  0  0  0  0  0  0  0  0
   -0.7207   40.3721   -1.6385 C   0  0  0  0  0  0  0  0  0  0  0  0
   -0.5519   39.2060   -0.8627 C   0  0  0  0  0  0  0  0  0  0  0  0
   -0.8491   38.0761   -1.6178 C   0  0  0  0  0  0  0  0  0  0  0  0
   -0.8320   36.7829   -1.1717 C   0  0  0  0  0  0  0  0  0  0  0  0
   -2.7127   33.6714    0.0947 C   0  0  0  0  0  0  0  0  0  0  0  0
   -3.9607   34.0773   -0.2648 O   0  0  0  0  0  0  0  0  0  0  0  0
   -2.4975   33.0474    1.3306 C   0  0  0  0  0  0  0  0  0  0  0  0
   -1.2016   32.6873    1.6993 C   0  0  0  0  0  0  0  0  0  0  0  0
   -0.9923   32.1047    2.9170 O   0  0  0  0  0  0  0  0  0  0  0  0
    2.5743   30.7391    1.0004 H   0  0  0  0  0  0  0  0  0  0  0  0
    1.4975   31.0535   -0.3725 H   0  0  0  0  0  0  0  0  0  0  0  0
    0.8504   30.3524    1.1170 H   0  0  0  0  0  0  0  0  0  0  0  0
    1.3595   32.4406    2.3623 H   0  0  0  0  0  0  0  0  0  0  0  0
    2.1979   34.4616    1.1955 H   0  0  0  0  0  0  0  0  0  0  0  0
    2.4706   33.5099   -0.2744 H   0  0  0  0  0  0  0  0  0  0  0  0
    3.3697   33.1313    1.1903 H   0  0  0  0  0  0  0  0  0  0  0  0
    0.4735   33.6707   -1.0886 H   0  0  0  0  0  0  0  0  0  0  0  0
   -1.7706   36.3035   -4.2713 H   0  0  0  0  0  0  0  0  0  0  0  0
   -1.6960   39.2109   -4.8091 H   0  0  0  0  0  0  0  0  0  0  0  0
   -1.2201   41.3332   -3.5205 H   0  0  0  0  0  0  0  0  0  0  0  0
   -0.5517   41.3398   -1.1614 H   0  0  0  0  0  0  0  0  0  0  0  0
   -0.2668   39.2151    0.1780 H   0  0  0  0  0  0  0  0  0  0  0  0
   -0.5661   36.3629   -0.2126 H   0  0  0  0  0  0  0  0  0  0  0  0
   -4.6030   33.8004    0.4132 H   0  0  0  0  0  0  0  0  0  0  0  0
   -3.3206   32.8758    2.0140 H   0  0  0  0  0  0  0  0  0  0  0  0
   -1.6223   31.3701    3.0090 H   0  0  0  0  0  0  0  0  0  0  0  0
  1  2  1  0  0  0  0
  1 23  1  0  0  0  0
  1 24  1  0  0  0  0
  1 25  1  0  0  0  0
  2  3  1  0  0  0  0
  2  4  1  0  0  0  0
  2 26  1  0  0  0  0
  3 27  1  0  0  0  0
  3 28  1  0  0  0  0
  3 29  1  0  0  0  0
  4  5  2  0  0  0  0
  4 21  1  0  0  0  0
  5  6  1  0  0  0  0
  5 30  1  0  0  0  0
  6  7  1  0  0  0  0
  6 18  2  0  0  0  0
  7  8  2  0  0  0  0
  7  9  1  0  0  0  0
  9 10  1  0  0  0  0
  9 17  1  0  0  0  0
 10 11  2  0  0  0  0
 10 31  1  0  0  0  0
 11 12  1  0  0  0  0
 11 16  1  0  0  0  0
 12 13  2  0  0  0  0
 12 32  1  0  0  0  0
 13 14  1  0  0  0  0
 13 33  1  0  0  0  0
 14 15  2  0  0  0  0
 14 34  1  0  0  0  0
 15 16  1  0  0  0  0
 15 35  1  0  0  0  0
 16 17  2  0  0  0  0
 17 36  1  0  0  0  0
 18 19  1  0  0  0  0
 18 20  1  0  0  0  0
 19 37  1  0  0  0  0
 20 21  2  0  0  0  0
 20 38  1  0  0  0  0
 21 22  1  0  0  0  0
 22 39  1  0  0  0  0
M  CHG  1   9   1
M  END
$$$$
