WSH
 OpenBabel04051920413D

 53 57  0  0  1  0  0  0  0  0999 V2000
    7.1618    6.5711   21.5556 C   0  0  0  0  0  0  0  0  0  0  0  0
   -2.0287   -2.2410   23.9308 C   0  0  0  0  0  0  0  0  0  0  0  0
    6.4025    7.7038   21.2655 C   0  0  0  0  0  0  0  0  0  0  0  0
    6.5455    5.3266   21.7063 C   0  0  0  0  0  0  0  0  0  0  0  0
    2.4796    7.7654   17.6901 C   0  0  0  0  0  0  0  0  0  0  0  0
   -1.6384   -1.5060   25.0496 C   0  0  0  0  0  0  0  0  0  0  0  0
   -1.4958   -1.9408   22.6760 C   0  0  0  0  0  0  0  0  0  0  0  0
    1.3162    8.4989   17.8570 C   0  0  0  0  0  0  0  0  0  0  0  0
    5.0237    7.5885   21.1281 C   0  0  0  0  0  0  0  0  0  0  0  0
    5.1670    5.2044   21.5681 C   0  0  0  0  0  0  0  0  0  0  0  0
    2.9795    6.9944   18.7405 C   0  0  0  0  0  0  0  0  0  0  0  0
   -0.7186   -0.4679   24.9168 C   0  0  0  0  0  0  0  0  0  0  0  0
   -0.5767   -0.9023   22.5415 C   0  0  0  0  0  0  0  0  0  0  0  0
    0.6517    8.4688   19.0816 C   0  0  0  0  0  0  0  0  0  0  0  0
    4.4056    6.3383   21.2730 C   0  0  0  0  0  0  0  0  0  0  0  0
    2.3151    6.9704   19.9767 C   0  0  0  0  0  0  0  0  0  0  0  0
   -0.1754   -0.1624   23.6624 C   0  0  0  0  0  0  0  0  0  0  0  0
    1.1466    7.7321   20.1474 C   0  0  0  0  0  0  0  0  0  0  0  0
    0.2110    6.5750   22.1183 C   0  0  0  0  0  0  0  0  0  0  0  0
   -0.2940    8.6988   21.9811 C   0  0  0  0  0  0  0  0  0  0  0  0
    2.9341    6.1929   21.0929 C   0  0  0  0  0  0  0  0  0  0  0  0
    0.6546    2.9512   22.3533 C   0  0  0  0  0  0  0  0  0  0  0  0
    0.8496    5.2869   21.7405 C   0  0  1  0  0  0  0  0  0  0  0  0
   -0.2451   10.1307   21.6019 C   0  0  0  0  0  0  0  0  0  0  0  0
    0.8351    0.9386   23.5173 C   0  0  0  0  0  0  0  0  0  0  0  0
   -0.6240    6.8524   23.0986 N   0  0  0  0  0  0  0  0  0  0  0  0
   -0.9307    8.1906   23.0166 N   0  0  0  0  0  0  0  0  0  0  0  0
    2.2939    5.4239   21.9113 N   0  0  0  0  0  0  0  0  0  0  0  0
    0.4181    7.6987   21.3504 N   0  3  0  0  0  0  0  0  0  0  0  0
    0.3569    4.2522   22.5844 N   0  0  0  0  0  0  0  0  0  0  0  0
    1.2754    2.5285   21.3914 O   0  0  0  0  0  0  0  0  0  0  0  0
    0.1899    2.2032   23.3812 O   0  0  0  0  0  0  0  0  0  0  0  0
    8.2368    6.6582   21.6749 H   0  0  0  0  0  0  0  0  0  0  0  0
   -2.7473   -3.0469   24.0342 H   0  0  0  0  0  0  0  0  0  0  0  0
    6.8836    8.6686   21.1476 H   0  0  0  0  0  0  0  0  0  0  0  0
    7.1442    4.4438   21.9358 H   0  0  0  0  0  0  0  0  0  0  0  0
    2.9968    7.7801   16.7361 H   0  0  0  0  0  0  0  0  0  0  0  0
   -2.0542   -1.7391   26.0261 H   0  0  0  0  0  0  0  0  0  0  0  0
   -1.7991   -2.5127   21.8032 H   0  0  0  0  0  0  0  0  0  0  0  0
    0.9054    9.0698   17.0360 H   0  0  0  0  0  0  0  0  0  0  0  0
    4.4404    8.4803   20.9034 H   0  0  0  0  0  0  0  0  0  0  0  0
    4.6841    4.2357   21.6742 H   0  0  0  0  0  0  0  0  0  0  0  0
    3.8941    6.4266   18.5836 H   0  0  0  0  0  0  0  0  0  0  0  0
   -0.4202    0.1010   25.7949 H   0  0  0  0  0  0  0  0  0  0  0  0
   -0.1639   -0.6734   21.5603 H   0  0  0  0  0  0  0  0  0  0  0  0
   -0.3066    8.9806   19.1269 H   0  0  0  0  0  0  0  0  0  0  0  0
    0.5955    5.0034   20.7113 H   0  0  0  0  0  0  0  0  0  0  0  0
   -0.8647   10.7343   22.2659 H   0  0  0  0  0  0  0  0  0  0  0  0
   -0.6341   10.2915   20.5963 H   0  0  0  0  0  0  0  0  0  0  0  0
    0.7832   10.5101   21.6395 H   0  0  0  0  0  0  0  0  0  0  0  0
    1.5245    0.6989   22.7005 H   0  0  0  0  0  0  0  0  0  0  0  0
    1.4443    0.9951   24.4259 H   0  0  0  0  0  0  0  0  0  0  0  0
   -0.1292    4.4942   23.4340 H   0  0  0  0  0  0  0  0  0  0  0  0
  1  3  2  0  0  0  0
  1  4  1  0  0  0  0
  1 33  1  0  0  0  0
  2  6  2  0  0  0  0
  2  7  1  0  0  0  0
  2 34  1  0  0  0  0
  3  9  1  0  0  0  0
  3 35  1  0  0  0  0
  4 10  2  0  0  0  0
  4 36  1  0  0  0  0
  5  8  2  0  0  0  0
  5 11  1  0  0  0  0
  5 37  1  0  0  0  0
  6 12  1  0  0  0  0
  6 38  1  0  0  0  0
  7 13  2  0  0  0  0
  7 39  1  0  0  0  0
  8 14  1  0  0  0  0
  8 40  1  0  0  0  0
  9 15  2  0  0  0  0
  9 41  1  0  0  0  0
 10 15  1  0  0  0  0
 10 42  1  0  0  0  0
 11 16  2  0  0  0  0
 11 43  1  0  0  0  0
 12 17  2  0  0  0  0
 12 44  1  0  0  0  0
 13 17  1  0  0  0  0
 13 45  1  0  0  0  0
 14 18  2  0  0  0  0
 14 46  1  0  0  0  0
 15 21  1  0  0  0  0
 16 18  1  0  0  0  0
 16 21  1  0  0  0  0
 17 25  1  0  0  0  0
 18 29  1  0  0  0  0
 19 23  1  0  0  0  0
 19 26  1  0  0  0  0
 19 29  2  0  0  0  0
 20 24  1  0  0  0  0
 20 27  2  0  0  0  0
 20 29  1  0  0  0  0
 21 28  2  0  0  0  0
 22 30  1  0  0  0  0
 22 31  2  0  0  0  0
 22 32  1  0  0  0  0
 23 28  1  0  0  0  0
 23 30  1  0  0  0  0
 23 47  1  6  0  0  0
 24 48  1  0  0  0  0
 24 49  1  0  0  0  0
 24 50  1  0  0  0  0
 25 32  1  0  0  0  0
 25 51  1  0  0  0  0
 25 52  1  0  0  0  0
 26 27  1  0  0  0  0
 30 53  1  0  0  0  0
M  CHG  1  29   1
M  END
$$$$
