WST
 OpenBabel04051918473D

 39 42  0  0  1  0  0  0  0  0999 V2000
   14.4865   51.0871   58.9989 C   0  0  0  0  0  0  0  0  0  0  0  0
   15.8194   50.8402   58.5702 C   0  0  0  0  0  0  0  0  0  0  0  0
   16.8966   51.3503   59.2528 O   0  0  0  0  0  0  0  0  0  0  0  0
   16.0667   50.0679   57.4239 C   0  0  0  0  0  0  0  0  0  0  0  0
   15.0012   49.5156   56.6817 C   0  0  0  0  0  0  0  0  0  0  0  0
   13.6837   49.7386   57.0905 C   0  0  0  0  0  0  0  0  0  0  0  0
   13.4349   50.5289   58.2310 C   0  0  0  0  0  0  0  0  0  0  0  0
   12.1114   50.6889   58.5643 O   0  0  0  0  0  0  0  0  0  0  0  0
   11.7786   51.9611   59.1655 C   0  0  2  0  0  0  0  0  0  0  0  0
   12.6452   52.2606   60.4062 C   0  0  2  0  0  0  0  0  0  0  0  0
   14.1586   51.9155   60.2232 C   0  0  1  0  0  0  0  0  0  0  0  0
   14.5827   51.2453   61.5485 C   0  0  0  0  0  0  0  0  0  0  0  0
   13.4952   51.5891   62.5558 C   0  0  0  0  0  0  0  0  0  0  0  0
   12.2330   51.5554   61.7102 C   0  0  0  0  0  0  0  0  0  0  0  0
   10.2516   52.0361   59.4333 C   0  0  0  0  0  0  0  0  0  0  0  0
    9.4533   50.8802   59.3101 C   0  0  0  0  0  0  0  0  0  0  0  0
    8.0618   50.9105   59.5611 C   0  0  0  0  0  0  0  0  0  0  0  0
    7.4256   52.0911   59.9407 C   0  0  0  0  0  0  0  0  0  0  0  0
    6.0988   52.0998   60.1753 O   0  0  0  0  0  0  0  0  0  0  0  0
    8.2048   53.2534   60.0610 C   0  0  0  0  0  0  0  0  0  0  0  0
    9.6051   53.2348   59.8123 C   0  0  0  0  0  0  0  0  0  0  0  0
   17.7159   51.0710   58.8053 H   0  0  0  0  0  0  0  0  0  0  0  0
   17.0857   49.8781   57.0845 H   0  0  0  0  0  0  0  0  0  0  0  0
   15.2064   48.9185   55.7941 H   0  0  0  0  0  0  0  0  0  0  0  0
   12.8544   49.3164   56.5169 H   0  0  0  0  0  0  0  0  0  0  0  0
   11.9942   52.7315   58.4089 H   0  0  0  0  0  0  0  0  0  0  0  0
   12.5633   53.3431   60.5988 H   0  0  0  0  0  0  0  0  0  0  0  0
   14.7014   52.8678   60.1355 H   0  0  0  0  0  0  0  0  0  0  0  0
   15.5545   51.6160   61.8929 H   0  0  0  0  0  0  0  0  0  0  0  0
   14.6434   50.1549   61.4339 H   0  0  0  0  0  0  0  0  0  0  0  0
   13.6589   52.5925   62.9752 H   0  0  0  0  0  0  0  0  0  0  0  0
   13.4578   50.8666   63.3781 H   0  0  0  0  0  0  0  0  0  0  0  0
   11.9330   50.5175   61.5243 H   0  0  0  0  0  0  0  0  0  0  0  0
   11.4144   52.0776   62.2190 H   0  0  0  0  0  0  0  0  0  0  0  0
    9.9138   49.9351   59.0175 H   0  0  0  0  0  0  0  0  0  0  0  0
    7.4946   49.9871   59.4540 H   0  0  0  0  0  0  0  0  0  0  0  0
    5.8489   52.9998   60.4204 H   0  0  0  0  0  0  0  0  0  0  0  0
    7.7382   54.1960   60.3533 H   0  0  0  0  0  0  0  0  0  0  0  0
   10.1741   54.1603   59.9215 H   0  0  0  0  0  0  0  0  0  0  0  0
  1  2  2  0  0  0  0
  1  7  1  0  0  0  0
  1 11  1  0  0  0  0
  2  3  1  0  0  0  0
  2  4  1  0  0  0  0
  3 22  1  0  0  0  0
  4  5  2  0  0  0  0
  4 23  1  0  0  0  0
  5  6  1  0  0  0  0
  5 24  1  0  0  0  0
  6  7  2  0  0  0  0
  6 25  1  0  0  0  0
  7  8  1  0  0  0  0
  8  9  1  0  0  0  0
  9 10  1  0  0  0  0
  9 15  1  0  0  0  0
  9 26  1  6  0  0  0
 10 11  1  0  0  0  0
 10 14  1  0  0  0  0
 10 27  1  1  0  0  0
 11 12  1  0  0  0  0
 11 28  1  6  0  0  0
 12 13  1  0  0  0  0
 12 29  1  0  0  0  0
 12 30  1  0  0  0  0
 13 14  1  0  0  0  0
 13 31  1  0  0  0  0
 13 32  1  0  0  0  0
 14 33  1  0  0  0  0
 14 34  1  0  0  0  0
 15 16  2  0  0  0  0
 15 21  1  0  0  0  0
 16 17  1  0  0  0  0
 16 35  1  0  0  0  0
 17 18  2  0  0  0  0
 17 36  1  0  0  0  0
 18 19  1  0  0  0  0
 18 20  1  0  0  0  0
 19 37  1  0  0  0  0
 20 21  2  0  0  0  0
 20 38  1  0  0  0  0
 21 39  1  0  0  0  0
M  END
$$$$
