WZA
 OpenBabel04051920143D

 53 56  0  0  1  0  0  0  0  0999 V2000
    2.0422    4.8759  -17.9498 C   0  0  0  0  0  0  0  0  0  0  0  0
    1.7597    7.6125  -19.3465 O   0  0  0  0  0  0  0  0  0  0  0  0
   -0.5056    7.1098  -18.3631 O   0  0  0  0  0  0  0  0  0  0  0  0
    1.2241    3.8636  -18.4462 C   0  0  0  0  0  0  0  0  0  0  0  0
    1.7993    2.6753  -18.8936 C   0  0  0  0  0  0  0  0  0  0  0  0
    3.1639    2.4328  -18.8093 C   0  0  0  0  0  0  0  0  0  0  0  0
    0.9105    7.2528  -18.2218 S   0  0  0  0  0  0  0  0  0  0  0  0
    1.1045    8.5272  -17.1431 N   0  0  0  0  0  0  0  0  0  0  0  0
    1.5500    6.0212  -17.3674 O   0  0  0  0  0  0  0  0  0  0  0  0
    3.9941    3.3896  -18.2156 C   0  0  0  0  0  0  0  0  0  0  0  0
    3.4249    4.6146  -17.7938 C   0  0  0  0  0  0  0  0  0  0  0  0
   -0.1371    3.9995  -18.5133 O   0  0  0  0  0  0  0  0  0  0  0  0
   -0.8150    2.9071  -17.8815 C   0  0  0  0  0  0  0  0  0  0  0  0
    3.6500    1.0882  -19.2736 C   0  0  1  0  0  0  0  0  0  0  0  0
    5.8175    1.6298  -18.0862 C   0  0  0  0  0  0  0  0  0  0  0  0
    5.4800    3.1304  -18.0807 C   0  0  0  0  0  0  0  0  0  0  0  0
    3.0717    0.6356  -20.6348 C   0  0  0  0  0  0  0  0  0  0  0  0
    3.4158   -0.8249  -20.9420 C   0  0  0  0  0  0  0  0  0  0  0  0
    4.9116   -1.0996  -20.7597 C   0  0  1  0  0  0  0  0  0  0  0  0
    5.2402   -2.5827  -20.5631 C   0  0  2  0  0  0  0  0  0  0  0  0
    5.6569   -0.4985  -21.9685 C   0  0  0  0  0  0  0  0  0  0  0  0
    5.3935   -0.5586  -19.3959 C   0  0  1  0  0  0  0  0  0  0  0  0
    6.7506   -1.1981  -19.1782 C   0  0  0  0  0  0  0  0  0  0  0  0
    6.6200   -2.5652  -19.8810 C   0  0  0  0  0  0  0  0  0  0  0  0
    5.1855    0.9508  -19.2995 C   0  0  1  0  0  0  0  0  0  0  0  0
    5.2506   -3.3191  -21.7688 O   0  0  0  0  0  0  0  0  0  0  0  0
    1.1534    1.9065  -19.3021 H   0  0  0  0  0  0  0  0  0  0  0  0
    0.7938    9.4549  -17.4164 H   0  0  0  0  0  0  0  0  0  0  0  0
    1.5240    8.3371  -16.2411 H   0  0  0  0  0  0  0  0  0  0  0  0
    4.0594    5.3621  -17.3256 H   0  0  0  0  0  0  0  0  0  0  0  0
   -1.8904    3.0455  -18.0201 H   0  0  0  0  0  0  0  0  0  0  0  0
   -0.5882    2.9022  -16.8109 H   0  0  0  0  0  0  0  0  0  0  0  0
   -0.5819    1.9178  -18.3011 H   0  0  0  0  0  0  0  0  0  0  0  0
    3.2605    0.3801  -18.5154 H   0  0  0  0  0  0  0  0  0  0  0  0
    5.4497    1.1667  -17.1634 H   0  0  0  0  0  0  0  0  0  0  0  0
    6.9062    1.5033  -18.1125 H   0  0  0  0  0  0  0  0  0  0  0  0
    5.8637    3.5721  -17.1541 H   0  0  0  0  0  0  0  0  0  0  0  0
    5.9930    3.6239  -18.9175 H   0  0  0  0  0  0  0  0  0  0  0  0
    3.4436    1.2999  -21.4240 H   0  0  0  0  0  0  0  0  0  0  0  0
    1.9824    0.7158  -20.6657 H   0  0  0  0  0  0  0  0  0  0  0  0
    3.0990   -1.0659  -21.9634 H   0  0  0  0  0  0  0  0  0  0  0  0
    2.8332   -1.4675  -20.2703 H   0  0  0  0  0  0  0  0  0  0  0  0
    4.5098   -3.0491  -19.8886 H   0  0  0  0  0  0  0  0  0  0  0  0
    5.4113    0.5571  -22.1147 H   0  0  0  0  0  0  0  0  0  0  0  0
    5.3716   -1.0109  -22.8934 H   0  0  0  0  0  0  0  0  0  0  0  0
    6.7416   -0.5674  -21.8613 H   0  0  0  0  0  0  0  0  0  0  0  0
    4.7608   -1.0150  -18.6163 H   0  0  0  0  0  0  0  0  0  0  0  0
    6.9518   -1.3203  -18.1073 H   0  0  0  0  0  0  0  0  0  0  0  0
    7.5631   -0.6065  -19.6085 H   0  0  0  0  0  0  0  0  0  0  0  0
    7.4267   -2.7031  -20.6071 H   0  0  0  0  0  0  0  0  0  0  0  0
    6.6894   -3.3848  -19.1572 H   0  0  0  0  0  0  0  0  0  0  0  0
    5.5845    1.4620  -20.1841 H   0  0  0  0  0  0  0  0  0  0  0  0
    4.3618   -3.2559  -22.1567 H   0  0  0  0  0  0  0  0  0  0  0  0
  1  4  2  0  0  0  0
  1  9  1  0  0  0  0
  1 11  1  0  0  0  0
  2  7  2  0  0  0  0
  3  7  2  0  0  0  0
  4  5  1  0  0  0  0
  4 12  1  0  0  0  0
  5  6  2  0  0  0  0
  5 27  1  0  0  0  0
  6 10  1  0  0  0  0
  6 14  1  0  0  0  0
  7  8  1  0  0  0  0
  7  9  1  0  0  0  0
  8 28  1  0  0  0  0
  8 29  1  0  0  0  0
 10 11  2  0  0  0  0
 10 16  1  0  0  0  0
 11 30  1  0  0  0  0
 12 13  1  0  0  0  0
 13 31  1  0  0  0  0
 13 32  1  0  0  0  0
 13 33  1  0  0  0  0
 14 17  1  0  0  0  0
 14 25  1  0  0  0  0
 14 34  1  1  0  0  0
 15 16  1  0  0  0  0
 15 25  1  0  0  0  0
 15 35  1  0  0  0  0
 15 36  1  0  0  0  0
 16 37  1  0  0  0  0
 16 38  1  0  0  0  0
 17 18  1  0  0  0  0
 17 39  1  0  0  0  0
 17 40  1  0  0  0  0
 18 19  1  0  0  0  0
 18 41  1  0  0  0  0
 18 42  1  0  0  0  0
 19 20  1  0  0  0  0
 19 21  1  6  0  0  0
 19 22  1  0  0  0  0
 20 24  1  0  0  0  0
 20 26  1  0  0  0  0
 20 43  1  1  0  0  0
 21 44  1  0  0  0  0
 21 45  1  0  0  0  0
 21 46  1  0  0  0  0
 22 23  1  0  0  0  0
 22 25  1  0  0  0  0
 22 47  1  1  0  0  0
 23 24  1  0  0  0  0
 23 48  1  0  0  0  0
 23 49  1  0  0  0  0
 24 50  1  0  0  0  0
 24 51  1  0  0  0  0
 25 52  1  6  0  0  0
 26 53  1  0  0  0  0
M  END
$$$$
