X2O
 OpenBabel04051920113D

 49 50  0  0  1  0  0  0  0  0999 V2000
   54.4869   10.9377   -1.2339 C   0  0  0  0  0  0  0  0  0  0  0  0
   54.5003    9.8943   -2.1237 C   0  0  0  0  0  0  0  0  0  0  0  0
   54.4687    8.5829   -1.6412 C   0  0  0  0  0  0  0  0  0  0  0  0
   54.4319    8.3434   -0.2686 C   0  0  0  0  0  0  0  0  0  0  0  0
   54.4170    9.3926    0.6235 C   0  0  0  0  0  0  0  0  0  0  0  0
   54.4694   10.7118    0.1533 C   0  0  0  0  0  0  0  0  0  0  0  0
   54.4263   11.8814    1.1300 C   0  0  0  0  0  0  0  0  0  0  0  0
   52.5833   11.9536    1.6536 S   0  0  0  0  0  0  0  0  0  0  0  0
   51.8022   12.3925    0.0761 C   0  0  0  0  0  0  0  0  0  0  0  0
   50.3155   12.5925    0.2983 C   0  0  1  0  0  0  0  0  0  0  0  0
   49.6661   13.0304   -1.0392 C   0  0  0  0  0  0  0  0  0  0  0  0
   50.1364   14.0414   -1.5509 O   0  0  0  0  0  0  0  0  0  0  0  0
   48.7110   12.2481   -1.3903 O   0  0  0  0  0  0  0  0  0  0  0  0
   49.7249   11.3154    0.8709 N   0  3  0  0  0  0  0  0  0  0  0  0
   54.8548   13.2244    0.4650 C   0  0  2  0  0  0  0  0  0  0  0  0
   56.2837   13.1916   -0.0846 C   0  0  0  0  0  0  0  0  0  0  0  0
   54.7271   14.4196    1.3951 C   0  0  0  0  0  0  0  0  0  0  0  0
   55.1327   15.6854    0.6632 C   0  0  0  0  0  0  0  0  0  0  0  0
   55.2893   11.6340    2.3809 C   0  0  0  0  0  0  0  0  0  0  0  0
   54.8295   12.0121    3.6519 C   0  0  0  0  0  0  0  0  0  0  0  0
   55.5950   11.8161    4.7818 C   0  0  0  0  0  0  0  0  0  0  0  0
   56.8588   11.2397    4.6719 C   0  0  0  0  0  0  0  0  0  0  0  0
   57.3400   10.8691    3.4160 C   0  0  0  0  0  0  0  0  0  0  0  0
   56.5683   11.0632    2.2816 C   0  0  0  0  0  0  0  0  0  0  0  0
   54.4907   11.9476   -1.6330 H   0  0  0  0  0  0  0  0  0  0  0  0
   54.5342   10.0933   -3.1931 H   0  0  0  0  0  0  0  0  0  0  0  0
   54.4687    7.7647   -2.3408 H   0  0  0  0  0  0  0  0  0  0  0  0
   54.4112    7.3151    0.0935 H   0  0  0  0  0  0  0  0  0  0  0  0
   54.3726    9.2022    1.6966 H   0  0  0  0  0  0  0  0  0  0  0  0
   51.9772   11.5789   -0.6289 H   0  0  0  0  0  0  0  0  0  0  0  0
   52.2392   13.3134   -0.3069 H   0  0  0  0  0  0  0  0  0  0  0  0
   50.1481   13.3671    1.0542 H   0  0  0  0  0  0  0  0  0  0  0  0
   48.7128   11.4662    0.9562 H   0  0  0  0  0  0  0  0  0  0  0  0
   49.8475   10.5824    0.1632 H   0  0  0  0  0  0  0  0  0  0  0  0
   54.1949   13.4198   -0.3865 H   0  0  0  0  0  0  0  0  0  0  0  0
   56.5408   14.1151   -0.5949 H   0  0  0  0  0  0  0  0  0  0  0  0
   56.4272   12.4182   -0.8383 H   0  0  0  0  0  0  0  0  0  0  0  0
   57.0038   13.0424    0.7164 H   0  0  0  0  0  0  0  0  0  0  0  0
   55.3718   14.2779    2.2632 H   0  0  0  0  0  0  0  0  0  0  0  0
   53.6934   14.5229    1.7414 H   0  0  0  0  0  0  0  0  0  0  0  0
   55.0642   16.5449    1.3275 H   0  0  0  0  0  0  0  0  0  0  0  0
   54.5044   15.8306   -0.2130 H   0  0  0  0  0  0  0  0  0  0  0  0
   56.1734   15.6391    0.3466 H   0  0  0  0  0  0  0  0  0  0  0  0
   53.8549   12.4728    3.7658 H   0  0  0  0  0  0  0  0  0  0  0  0
   55.2139   12.1119    5.7558 H   0  0  0  0  0  0  0  0  0  0  0  0
   57.4565   11.0843    5.5539 H   0  0  0  0  0  0  0  0  0  0  0  0
   58.3307   10.4219    3.3299 H   0  0  0  0  0  0  0  0  0  0  0  0
   56.9598   10.7682    1.3086 H   0  0  0  0  0  0  0  0  0  0  0  0
   50.1659   11.0776    1.7440 H   0  0  0  0  0  0  0  0  0  0  0  0
  1  2  2  0  0  0  0
  1  6  1  0  0  0  0
  1 25  1  0  0  0  0
  2  3  1  0  0  0  0
  2 26  1  0  0  0  0
  3  4  2  0  0  0  0
  3 27  1  0  0  0  0
  4  5  1  0  0  0  0
  4 28  1  0  0  0  0
  5  6  2  0  0  0  0
  5 29  1  0  0  0  0
  6  7  1  0  0  0  0
  7  8  1  0  0  0  0
  7 15  1  0  0  0  0
  7 19  1  0  0  0  0
  8  9  1  0  0  0  0
  9 10  1  0  0  0  0
  9 30  1  0  0  0  0
  9 31  1  0  0  0  0
 10 11  1  0  0  0  0
 10 14  1  0  0  0  0
 10 32  1  1  0  0  0
 11 12  2  0  0  0  0
 11 13  1  0  0  0  0
 14 33  1  0  0  0  0
 14 34  1  0  0  0  0
 14 49  1  0  0  0  0
 15 16  1  0  0  0  0
 15 17  1  0  0  0  0
 15 35  1  6  0  0  0
 16 36  1  0  0  0  0
 16 37  1  0  0  0  0
 16 38  1  0  0  0  0
 17 18  1  0  0  0  0
 17 39  1  0  0  0  0
 17 40  1  0  0  0  0
 18 41  1  0  0  0  0
 18 42  1  0  0  0  0
 18 43  1  0  0  0  0
 19 20  2  0  0  0  0
 19 24  1  0  0  0  0
 20 21  1  0  0  0  0
 20 44  1  0  0  0  0
 21 22  2  0  0  0  0
 21 45  1  0  0  0  0
 22 23  1  0  0  0  0
 22 46  1  0  0  0  0
 23 24  2  0  0  0  0
 23 47  1  0  0  0  0
 24 48  1  0  0  0  0
M  CHG  1  14   1
M  END
$$$$
