X4Z
 OpenBabel04051920123D

 66 70  0  0  1  0  0  0  0  0999 V2000
   20.0353   20.5047   61.2578 C   0  0  0  0  0  0  0  0  0  0  0  0
   20.2689   21.6496   61.9616 C   0  0  0  0  0  0  0  0  0  0  0  0
   19.5534   19.5753   62.1924 C   0  0  0  0  0  0  0  0  0  0  0  0
   20.2803   20.6973   59.8364 C   0  0  0  0  0  0  0  0  0  0  0  0
   20.7493   22.8014   61.1736 C   0  0  0  0  0  0  0  0  0  0  0  0
   19.9154   21.4337   63.2202 N   0  3  0  0  0  0  0  0  0  0  0  0
   19.1635   18.3040   61.9234 N   0  0  0  0  0  0  0  0  0  0  0  0
   19.4220   20.1774   63.3961 N   0  0  0  0  0  0  0  0  0  0  0  0
   20.6326   22.1713   59.7956 N   0  0  0  0  0  0  0  0  0  0  0  0
   19.8309   24.0038   61.3917 C   0  0  0  0  0  0  0  0  0  0  0  0
   22.1826   23.1558   61.5891 C   0  0  0  0  0  0  0  0  0  0  0  0
   19.7153   17.3305   61.0721 C   0  0  0  0  0  0  0  0  0  0  0  0
   20.8220   22.9307   58.6727 C   0  0  0  0  0  0  0  0  0  0  0  0
   19.2875   15.9891   61.0834 C   0  0  0  0  0  0  0  0  0  0  0  0
   20.6931   17.6545   60.1867 N   0  0  0  0  0  0  0  0  0  0  0  0
   20.6345   22.3072   57.4664 N   0  0  0  0  0  0  0  0  0  0  0  0
   21.0895   24.1268   58.7021 O   0  0  0  0  0  0  0  0  0  0  0  0
   19.8509   15.0651   60.2026 C   0  0  0  0  0  0  0  0  0  0  0  0
   18.0863   15.2235   62.0715 S   0  0  0  0  0  0  0  0  0  0  0  0
   21.2148   16.7110   59.3852 C   0  0  0  0  0  0  0  0  0  0  0  0
   20.7051   23.0820   56.2192 C   0  0  1  0  0  0  0  0  0  0  0  0
   20.8291   15.4267   59.3203 N   0  0  0  0  0  0  0  0  0  0  0  0
   19.2724   13.7599   60.3515 C   0  0  0  0  0  0  0  0  0  0  0  0
   18.3075   13.6938   61.3250 C   0  0  0  0  0  0  0  0  0  0  0  0
   22.2966   17.1917   58.4527 C   0  0  0  0  0  0  0  0  0  0  0  0
   22.1077   23.5078   55.8043 C   0  0  0  0  0  0  0  0  0  0  0  0
   20.0560   22.3165   55.0451 C   0  0  0  0  0  0  0  0  0  0  0  0
   22.2504   24.5796   54.8956 C   0  0  0  0  0  0  0  0  0  0  0  0
   23.2626   22.8704   56.2766 C   0  0  0  0  0  0  0  0  0  0  0  0
   18.5294   22.3060   55.0671 N   0  3  0  0  0  0  0  0  0  0  0  0
   23.5120   24.9992   54.4753 C   0  0  0  0  0  0  0  0  0  0  0  0
   24.5271   23.2978   55.8631 C   0  0  0  0  0  0  0  0  0  0  0  0
   24.6493   24.3576   54.9629 C   0  0  0  0  0  0  0  0  0  0  0  0
   17.8731   21.8136   56.3238 C   0  0  0  0  0  0  0  0  0  0  0  0
   18.0322   21.5053   53.8966 C   0  0  0  0  0  0  0  0  0  0  0  0
   19.4006   20.5156   59.2124 H   0  0  0  0  0  0  0  0  0  0  0  0
   21.1338   20.1325   59.4602 H   0  0  0  0  0  0  0  0  0  0  0  0
   19.9333   22.0971   64.0090 H   0  0  0  0  0  0  0  0  0  0  0  0
   18.5021   17.8818   62.5634 H   0  0  0  0  0  0  0  0  0  0  0  0
   19.9715   24.4146   62.4042 H   0  0  0  0  0  0  0  0  0  0  0  0
   18.7763   23.7320   61.2996 H   0  0  0  0  0  0  0  0  0  0  0  0
   20.0356   24.8221   60.6975 H   0  0  0  0  0  0  0  0  0  0  0  0
   22.1891   23.5943   62.5949 H   0  0  0  0  0  0  0  0  0  0  0  0
   22.6387   23.8838   60.9124 H   0  0  0  0  0  0  0  0  0  0  0  0
   22.8281   22.2701   61.6271 H   0  0  0  0  0  0  0  0  0  0  0  0
   20.4460   21.3179   57.4519 H   0  0  0  0  0  0  0  0  0  0  0  0
   20.1380   24.0084   56.3922 H   0  0  0  0  0  0  0  0  0  0  0  0
   19.5554   12.8915   59.7471 H   0  0  0  0  0  0  0  0  0  0  0  0
   17.7501   12.8269   61.6502 H   0  0  0  0  0  0  0  0  0  0  0  0
   22.5057   18.2552   58.6045 H   0  0  0  0  0  0  0  0  0  0  0  0
   21.9873   17.0617   57.4126 H   0  0  0  0  0  0  0  0  0  0  0  0
   23.2242   16.6409   58.6266 H   0  0  0  0  0  0  0  0  0  0  0  0
   20.3808   21.2698   55.0264 H   0  0  0  0  0  0  0  0  0  0  0  0
   20.3161   22.7830   54.0871 H   0  0  0  0  0  0  0  0  0  0  0  0
   21.3767   25.1062   54.5138 H   0  0  0  0  0  0  0  0  0  0  0  0
   23.1950   22.0532   56.9905 H   0  0  0  0  0  0  0  0  0  0  0  0
   23.6137   25.8292   53.7797 H   0  0  0  0  0  0  0  0  0  0  0  0
   25.4205   22.8112   56.2497 H   0  0  0  0  0  0  0  0  0  0  0  0
   25.6355   24.6898   54.6467 H   0  0  0  0  0  0  0  0  0  0  0  0
   16.7912   21.8903   56.1820 H   0  0  0  0  0  0  0  0  0  0  0  0
   18.1642   22.4492   57.1591 H   0  0  0  0  0  0  0  0  0  0  0  0
   18.1679   20.7724   56.4793 H   0  0  0  0  0  0  0  0  0  0  0  0
   18.5181   21.8802   52.9932 H   0  0  0  0  0  0  0  0  0  0  0  0
   16.9504   21.6345   53.8358 H   0  0  0  0  0  0  0  0  0  0  0  0
   18.2964   20.4582   54.0753 H   0  0  0  0  0  0  0  0  0  0  0  0
   18.2236   23.2824   54.9356 H   0  0  0  0  0  0  0  0  0  0  0  0
  1  2  1  0  0  0  0
  1  3  2  0  0  0  0
  1  4  1  0  0  0  0
  2  5  1  0  0  0  0
  2  6  2  0  0  0  0
  3  7  1  0  0  0  0
  3  8  1  0  0  0  0
  4  9  1  0  0  0  0
  4 36  1  0  0  0  0
  4 37  1  0  0  0  0
  5  9  1  0  0  0  0
  5 10  1  0  0  0  0
  5 11  1  0  0  0  0
  6  8  1  0  0  0  0
  6 38  1  0  0  0  0
  7 12  1  0  0  0  0
  7 39  1  0  0  0  0
  9 13  1  0  0  0  0
 10 40  1  0  0  0  0
 10 41  1  0  0  0  0
 10 42  1  0  0  0  0
 11 43  1  0  0  0  0
 11 44  1  0  0  0  0
 11 45  1  0  0  0  0
 12 14  2  0  0  0  0
 12 15  1  0  0  0  0
 13 16  1  0  0  0  0
 13 17  2  0  0  0  0
 14 18  1  0  0  0  0
 14 19  1  0  0  0  0
 15 20  2  0  0  0  0
 16 21  1  0  0  0  0
 16 46  1  0  0  0  0
 18 22  2  0  0  0  0
 18 23  1  0  0  0  0
 19 24  1  0  0  0  0
 20 22  1  0  0  0  0
 20 25  1  0  0  0  0
 21 26  1  0  0  0  0
 21 27  1  0  0  0  0
 21 47  1  1  0  0  0
 23 24  2  0  0  0  0
 23 48  1  0  0  0  0
 24 49  1  0  0  0  0
 25 50  1  0  0  0  0
 25 51  1  0  0  0  0
 25 52  1  0  0  0  0
 26 28  2  0  0  0  0
 26 29  1  0  0  0  0
 27 30  1  0  0  0  0
 27 53  1  0  0  0  0
 27 54  1  0  0  0  0
 28 31  1  0  0  0  0
 28 55  1  0  0  0  0
 29 32  2  0  0  0  0
 29 56  1  0  0  0  0
 30 34  1  0  0  0  0
 30 35  1  0  0  0  0
 30 66  1  0  0  0  0
 31 33  2  0  0  0  0
 31 57  1  0  0  0  0
 32 33  1  0  0  0  0
 32 58  1  0  0  0  0
 33 59  1  0  0  0  0
 34 60  1  0  0  0  0
 34 61  1  0  0  0  0
 34 62  1  0  0  0  0
 35 63  1  0  0  0  0
 35 64  1  0  0  0  0
 35 65  1  0  0  0  0
M  CHG  2   6   1  30   1
M  END
$$$$
