X8Z
 OpenBabel04051920143D

 28 28  0  0  1  0  0  0  0  0999 V2000
   29.5810    2.7467  -42.6510 O   0  0  0  0  0  0  0  0  0  0  0  0
   29.0601    3.6872  -43.2568 C   0  0  0  0  0  0  0  0  0  0  0  0
   27.5415    3.7380  -43.4174 C   0  0  1  0  0  0  0  0  0  0  0  0
   26.9784    2.3022  -43.3668 C   0  0  0  0  0  0  0  0  0  0  0  0
   26.9356    1.4875  -45.0073 S   0  0  0  0  0  0  0  0  0  0  0  0
   26.9431    4.5683  -42.2753 C   0  0  0  0  0  0  0  0  0  0  0  0
   29.8141    4.7006  -43.8070 N   0  0  0  0  0  0  0  0  0  0  0  0
   31.2604    4.7377  -43.5164 C   0  0  2  0  0  0  0  0  0  0  0  0
   31.6793    4.9649  -42.0293 C   0  0  0  0  0  0  0  0  0  0  0  0
   30.8193    5.5407  -41.2919 O   0  0  0  0  0  0  0  0  0  0  0  0
   32.8595    4.6078  -41.7505 O   0  0  0  0  0  0  0  0  0  0  0  0
   29.3750    5.8520  -44.5585 C   0  0  0  0  0  0  0  0  0  0  0  0
   30.6124    6.6823  -44.8481 C   0  0  0  0  0  0  0  0  0  0  0  0
   31.8139    5.8748  -44.3644 C   0  0  0  0  0  0  0  0  0  0  0  0
   27.2701    4.2128  -44.3661 H   0  0  0  0  0  0  0  0  0  0  0  0
   25.9392    2.3101  -43.0157 H   0  0  0  0  0  0  0  0  0  0  0  0
   27.5336    1.6560  -42.6809 H   0  0  0  0  0  0  0  0  0  0  0  0
   28.2589    1.4916  -45.2369 H   0  0  0  0  0  0  0  0  0  0  0  0
   27.2976    5.6034  -42.2947 H   0  0  0  0  0  0  0  0  0  0  0  0
   27.1963    4.1485  -41.2965 H   0  0  0  0  0  0  0  0  0  0  0  0
   25.8492    4.5970  -42.3558 H   0  0  0  0  0  0  0  0  0  0  0  0
   31.6851    3.7748  -43.8422 H   0  0  0  0  0  0  0  0  0  0  0  0
   28.6405    6.4263  -43.9929 H   0  0  0  0  0  0  0  0  0  0  0  0
   28.9003    5.5055  -45.4872 H   0  0  0  0  0  0  0  0  0  0  0  0
   30.5632    7.6433  -44.3215 H   0  0  0  0  0  0  0  0  0  0  0  0
   30.6999    6.9131  -45.9177 H   0  0  0  0  0  0  0  0  0  0  0  0
   32.3552    5.4732  -45.2266 H   0  0  0  0  0  0  0  0  0  0  0  0
   32.5149    6.5172  -43.8178 H   0  0  0  0  0  0  0  0  0  0  0  0
  1  2  2  0  0  0  0
  2  3  1  0  0  0  0
  2  7  1  0  0  0  0
  3  4  1  0  0  0  0
  3  6  1  0  0  0  0
  3 15  1  6  0  0  0
  4  5  1  0  0  0  0
  4 16  1  0  0  0  0
  4 17  1  0  0  0  0
  5 18  1  0  0  0  0
  6 19  1  0  0  0  0
  6 20  1  0  0  0  0
  6 21  1  0  0  0  0
  7  8  1  0  0  0  0
  7 12  1  0  0  0  0
  8  9  1  0  0  0  0
  8 14  1  0  0  0  0
  8 22  1  6  0  0  0
  9 10  2  0  0  0  0
  9 11  1  0  0  0  0
 12 13  1  0  0  0  0
 12 23  1  0  0  0  0
 12 24  1  0  0  0  0
 13 14  1  0  0  0  0
 13 25  1  0  0  0  0
 13 26  1  0  0  0  0
 14 27  1  0  0  0  0
 14 28  1  0  0  0  0
M  END
$$$$
