XAN
 OpenBabel04051919303D

 15 16  0  0  0  0  0  0  0  0999 V2000
   -2.4738    8.4522  -29.6997 N   0  0  0  0  0  0  0  0  0  0  0  0
   -1.7519    7.3944  -30.1396 C   0  0  0  0  0  0  0  0  0  0  0  0
   -0.3997    7.3282  -30.2831 N   0  3  0  0  0  0  0  0  0  0  0  0
    0.1945    6.1812  -30.7469 C   0  0  0  0  0  0  0  0  0  0  0  0
    1.4110    6.0911  -30.8849 O   0  0  0  0  0  0  0  0  0  0  0  0
   -0.6369    5.1229  -31.0551 N   0  3  0  0  0  0  0  0  0  0  0  0
   -2.0124    5.0985  -30.9375 C   0  0  0  0  0  0  0  0  0  0  0  0
   -2.6892    4.1191  -31.2259 O   0  0  0  0  0  0  0  0  0  0  0  0
   -2.5366    6.3254  -30.4505 C   0  0  0  0  0  0  0  0  0  0  0  0
   -3.8116    6.7309  -30.1890 N   0  3  0  0  0  0  0  0  0  0  0  0
   -3.7239    8.0261  -29.7391 C   0  0  0  0  0  0  0  0  0  0  0  0
    0.1672    8.1291  -30.0470 H   0  0  0  0  0  0  0  0  0  0  0  0
   -0.1919    4.2858  -31.3963 H   0  0  0  0  0  0  0  0  0  0  0  0
   -4.6550    6.1834  -30.3055 H   0  0  0  0  0  0  0  0  0  0  0  0
   -4.5993    8.5995  -29.4597 H   0  0  0  0  0  0  0  0  0  0  0  0
  1  2  1  0  0  0  0
  1 11  1  0  0  0  0
  2  3  1  0  0  0  0
  2  9  2  0  0  0  0
  3  4  1  0  0  0  0
  3 12  1  0  0  0  0
  4  5  2  0  0  0  0
  4  6  1  0  0  0  0
  6  7  1  0  0  0  0
  6 13  1  0  0  0  0
  7  8  2  0  0  0  0
  7  9  1  0  0  0  0
  9 10  1  0  0  0  0
 10 11  2  0  0  0  0
 10 14  1  0  0  0  0
 11 15  1  0  0  0  0
M  CHG  3   3   1   6   1  10   1
M  END
$$$$
