XD9
 OpenBabel04051920203D

 31 32  0  0  1  0  0  0  0  0999 V2000
  -26.8002   48.3539   18.8721 C   0  0  0  0  0  0  0  0  0  0  0  0
  -25.7679   48.2586   17.7932 C   0  0  0  0  0  0  0  0  0  0  0  0
  -26.0638   48.2669   16.4809 C   0  0  0  0  0  0  0  0  0  0  0  0
  -25.0932   48.1739   15.4318 C   0  0  0  0  0  0  0  0  0  0  0  0
  -25.3582   48.2238   14.0759 C   0  0  0  0  0  0  0  0  0  0  0  0
  -23.3975   47.9906   15.6822 S   0  0  0  0  0  0  0  0  0  0  0  0
  -23.0557   48.0212   14.0128 C   0  0  0  0  0  0  0  0  0  0  0  0
  -24.1933   48.1593   13.2466 C   0  0  0  0  0  0  0  0  0  0  0  0
  -24.1360   48.2141   11.7318 C   0  0  2  0  0  0  0  0  0  0  0  0
  -25.3232   49.1239   11.2007 C   0  0  0  0  0  0  0  0  0  0  0  0
  -25.0637   50.3372   10.9597 O   0  0  0  0  0  0  0  0  0  0  0  0
  -26.4390   48.5039   11.0979 O   0  0  0  0  0  0  0  0  0  0  0  0
  -24.3024   46.8611   11.2335 O   0  0  0  0  0  0  0  0  0  0  0  0
  -22.7618   48.7142   11.2611 C   0  0  0  0  0  0  0  0  0  0  0  0
  -21.6097   47.9371   11.9275 C   0  0  1  0  0  0  0  0  0  0  0  0
  -20.3514   48.5076   11.4990 O   0  0  0  0  0  0  0  0  0  0  0  0
  -21.6589   48.0170   13.4762 C   0  0  2  0  0  0  0  0  0  0  0  0
  -20.9471   46.9223   14.0694 O   0  0  0  0  0  0  0  0  0  0  0  0
  -26.3062   48.3063   19.8489 H   0  0  0  0  0  0  0  0  0  0  0  0
  -27.5124   47.5269   18.8240 H   0  0  0  0  0  0  0  0  0  0  0  0
  -27.3347   49.3050   18.8205 H   0  0  0  0  0  0  0  0  0  0  0  0
  -24.7487   48.1578   18.1333 H   0  0  0  0  0  0  0  0  0  0  0  0
  -27.1008   48.3660   16.1702 H   0  0  0  0  0  0  0  0  0  0  0  0
  -26.3636   48.3445   13.6790 H   0  0  0  0  0  0  0  0  0  0  0  0
  -25.2667   46.7158   11.3517 H   0  0  0  0  0  0  0  0  0  0  0  0
  -22.6318   49.7858   11.4621 H   0  0  0  0  0  0  0  0  0  0  0  0
  -22.6812   48.6071   10.1669 H   0  0  0  0  0  0  0  0  0  0  0  0
  -21.6069   46.8929   11.5888 H   0  0  0  0  0  0  0  0  0  0  0  0
  -20.3524   48.4829   10.5296 H   0  0  0  0  0  0  0  0  0  0  0  0
  -21.1504   48.9332   13.7963 H   0  0  0  0  0  0  0  0  0  0  0  0
  -21.0393   47.0528   15.0298 H   0  0  0  0  0  0  0  0  0  0  0  0
  1  2  1  0  0  0  0
  1 19  1  0  0  0  0
  1 20  1  0  0  0  0
  1 21  1  0  0  0  0
  2  3  2  0  0  0  0
  2 22  1  0  0  0  0
  3  4  1  0  0  0  0
  3 23  1  0  0  0  0
  4  5  2  0  0  0  0
  4  6  1  0  0  0  0
  5  8  1  0  0  0  0
  5 24  1  0  0  0  0
  6  7  1  0  0  0  0
  7  8  2  0  0  0  0
  7 17  1  0  0  0  0
  8  9  1  0  0  0  0
  9 10  1  6  0  0  0
  9 13  1  0  0  0  0
  9 14  1  0  0  0  0
 10 11  2  0  0  0  0
 10 12  1  0  0  0  0
 13 25  1  0  0  0  0
 14 15  1  0  0  0  0
 14 26  1  0  0  0  0
 14 27  1  0  0  0  0
 15 16  1  0  0  0  0
 15 17  1  0  0  0  0
 15 28  1  6  0  0  0
 16 29  1  0  0  0  0
 17 18  1  0  0  0  0
 17 30  1  1  0  0  0
 18 31  1  0  0  0  0
M  END
$$$$
