XJ1
 OpenBabel04051920283D

 47 49  0  0  1  0  0  0  0  0999 V2000
  -20.4826  -32.1826   -4.7644 C   0  0  0  0  0  0  0  0  0  0  0  0
  -20.6937  -30.6634   -4.7082 C   0  0  0  0  0  0  0  0  0  0  0  0
  -21.6404  -30.3048   -3.5616 C   0  0  1  0  0  0  0  0  0  0  0  0
  -21.8731  -28.8353   -3.5557 N   0  3  0  0  0  0  0  0  0  0  0  0
  -22.9812  -31.0216   -3.7240 C   0  0  0  0  0  0  0  0  0  0  0  0
  -22.7848  -32.5434   -3.7997 C   0  0  0  0  0  0  0  0  0  0  0  0
  -21.8223  -32.9187   -4.9321 C   0  0  2  0  0  0  0  0  0  0  0  0
  -21.6073  -34.3346   -5.1702 N   0  0  0  0  0  0  0  0  0  0  0  0
  -22.1198  -35.4149   -4.4809 C   0  0  0  0  0  0  0  0  0  0  0  0
  -22.1225  -35.4541   -3.1380 N   0  0  0  0  0  0  0  0  0  0  0  0
  -22.6168  -36.5082   -5.1967 C   0  0  0  0  0  0  0  0  0  0  0  0
  -23.1173  -37.6334   -4.6355 N   0  0  0  0  0  0  0  0  0  0  0  0
  -23.0891  -37.6450   -3.2882 C   0  0  0  0  0  0  0  0  0  0  0  0
  -22.5936  -36.5927   -2.5239 C   0  0  0  0  0  0  0  0  0  0  0  0
  -22.5621  -36.6121   -1.0449 C   0  0  0  0  0  0  0  0  0  0  0  0
  -22.3652  -35.4074   -0.3503 C   0  0  0  0  0  0  0  0  0  0  0  0
  -22.7286  -37.7713   -0.2645 C   0  0  0  0  0  0  0  0  0  0  0  0
  -22.7339  -37.7159    1.1363 C   0  0  0  0  0  0  0  0  0  0  0  0
  -22.5475  -36.4965    1.7889 C   0  0  0  0  0  0  0  0  0  0  0  0
  -22.3369  -35.3321    1.0479 C   0  0  0  0  0  0  0  0  0  0  0  0
  -22.1716  -34.0417    1.7238 C   0  0  0  0  0  0  0  0  0  0  0  0
  -21.4836  -33.0084    1.2104 C   0  0  0  0  0  0  0  0  0  0  0  0
  -21.4218  -31.6482    1.8880 C   0  0  0  0  0  0  0  0  0  0  0  0
  -20.8209  -30.7719    1.1826 O   0  0  0  0  0  0  0  0  0  0  0  0
  -22.0157  -31.5259    2.9883 O   0  0  0  0  0  0  0  0  0  0  0  0
  -19.9871  -32.5143   -3.8432 H   0  0  0  0  0  0  0  0  0  0  0  0
  -19.8055  -32.4237   -5.5924 H   0  0  0  0  0  0  0  0  0  0  0  0
  -21.1089  -30.3217   -5.6670 H   0  0  0  0  0  0  0  0  0  0  0  0
  -19.7288  -30.1571   -4.5877 H   0  0  0  0  0  0  0  0  0  0  0  0
  -21.1827  -30.5408   -2.5957 H   0  0  0  0  0  0  0  0  0  0  0  0
  -22.4784  -28.5804   -2.7604 H   0  0  0  0  0  0  0  0  0  0  0  0
  -20.9922  -28.3236   -3.4107 H   0  0  0  0  0  0  0  0  0  0  0  0
  -23.4831  -30.6778   -4.6396 H   0  0  0  0  0  0  0  0  0  0  0  0
  -23.6458  -30.7754   -2.8885 H   0  0  0  0  0  0  0  0  0  0  0  0
  -23.7589  -33.0235   -3.9484 H   0  0  0  0  0  0  0  0  0  0  0  0
  -22.3934  -32.8854   -2.8356 H   0  0  0  0  0  0  0  0  0  0  0  0
  -22.2726  -32.5475   -5.8631 H   0  0  0  0  0  0  0  0  0  0  0  0
  -20.9018  -34.5875   -5.8532 H   0  0  0  0  0  0  0  0  0  0  0  0
  -22.6456  -36.4880   -6.2810 H   0  0  0  0  0  0  0  0  0  0  0  0
  -23.5048  -38.5415   -2.8364 H   0  0  0  0  0  0  0  0  0  0  0  0
  -22.2490  -34.4896   -0.9219 H   0  0  0  0  0  0  0  0  0  0  0  0
  -22.8587  -38.7495   -0.7217 H   0  0  0  0  0  0  0  0  0  0  0  0
  -22.8732  -38.6236    1.7242 H   0  0  0  0  0  0  0  0  0  0  0  0
  -22.5541  -36.4591    2.8759 H   0  0  0  0  0  0  0  0  0  0  0  0
  -22.6644  -33.9263    2.6877 H   0  0  0  0  0  0  0  0  0  0  0  0
  -20.9532  -33.0858    0.2651 H   0  0  0  0  0  0  0  0  0  0  0  0
  -22.3140  -28.4886   -4.4157 H   0  0  0  0  0  0  0  0  0  0  0  0
  1  2  1  0  0  0  0
  1  7  1  0  0  0  0
  1 26  1  0  0  0  0
  1 27  1  0  0  0  0
  2  3  1  0  0  0  0
  2 28  1  0  0  0  0
  2 29  1  0  0  0  0
  3  4  1  0  0  0  0
  3  5  1  0  0  0  0
  3 30  1  1  0  0  0
  4 31  1  0  0  0  0
  4 32  1  0  0  0  0
  4 47  1  0  0  0  0
  5  6  1  0  0  0  0
  5 33  1  0  0  0  0
  5 34  1  0  0  0  0
  6  7  1  0  0  0  0
  6 35  1  0  0  0  0
  6 36  1  0  0  0  0
  7  8  1  0  0  0  0
  7 37  1  6  0  0  0
  8  9  1  0  0  0  0
  8 38  1  0  0  0  0
  9 10  2  0  0  0  0
  9 11  1  0  0  0  0
 10 14  1  0  0  0  0
 11 12  2  0  0  0  0
 11 39  1  0  0  0  0
 12 13  1  0  0  0  0
 13 14  2  0  0  0  0
 13 40  1  0  0  0  0
 14 15  1  0  0  0  0
 15 16  2  0  0  0  0
 15 17  1  0  0  0  0
 16 20  1  0  0  0  0
 16 41  1  0  0  0  0
 17 18  2  0  0  0  0
 17 42  1  0  0  0  0
 18 19  1  0  0  0  0
 18 43  1  0  0  0  0
 19 20  2  0  0  0  0
 19 44  1  0  0  0  0
 20 21  1  0  0  0  0
 21 22  2  0  0  0  0
 21 45  1  0  0  0  0
 22 23  1  0  0  0  0
 22 46  1  0  0  0  0
 23 24  2  0  0  0  0
 23 25  1  0  0  0  0
M  CHG  1   4   1
M  END
$$$$
