XJX
 OpenBabel04051920303D

 62 65  0  0  0  0  0  0  0  0999 V2000
   13.7843    0.2844   10.7925 C   0  0  0  0  0  0  0  0  0  0  0  0
   13.0805   -0.4178    9.6333 C   0  0  0  0  0  0  0  0  0  0  0  0
   13.5587    0.1775    8.3082 C   0  0  0  0  0  0  0  0  0  0  0  0
   13.2793   -1.9218    9.7360 C   0  0  0  0  0  0  0  0  0  0  0  0
   14.3826   -2.5503    9.1357 C   0  0  0  0  0  0  0  0  0  0  0  0
   14.6001   -3.9241    9.2878 C   0  0  0  0  0  0  0  0  0  0  0  0
   15.7705   -4.5434    8.6345 C   0  0  0  0  0  0  0  0  0  0  0  0
   16.6936   -4.9727    9.3401 O   0  0  0  0  0  0  0  0  0  0  0  0
   15.7897   -4.5728    7.2609 N   0  0  0  0  0  0  0  0  0  0  0  0
   16.8710   -5.2222    6.5114 C   0  0  0  0  0  0  0  0  0  0  0  0
   16.2817   -5.3754    5.1434 C   0  0  0  0  0  0  0  0  0  0  0  0
   16.8164   -5.9903    4.0258 C   0  0  0  0  0  0  0  0  0  0  0  0
   16.0614   -6.0299    2.8567 C   0  0  0  0  0  0  0  0  0  0  0  0
   14.7792   -5.4601    2.8059 C   0  0  0  0  0  0  0  0  0  0  0  0
   14.0021   -5.4308    1.5117 C   0  0  0  0  0  0  0  0  0  0  0  0
   14.3095   -4.2720    0.6450 N   0  0  0  0  0  0  0  0  0  0  0  0
   14.3017   -3.0033    1.4016 C   0  0  0  0  0  0  0  0  0  0  0  0
   14.6158   -1.7873    0.5240 C   0  0  0  0  0  0  0  0  0  0  0  0
   15.9564   -1.9965   -0.1585 N   0  3  0  0  0  0  0  0  0  0  0  0
   16.3741   -0.8096   -0.9600 C   0  0  0  0  0  0  0  0  0  0  0  0
   15.9090   -3.2668   -0.9893 C   0  0  0  0  0  0  0  0  0  0  0  0
   15.5815   -4.4585   -0.0770 C   0  0  0  0  0  0  0  0  0  0  0  0
   14.2511   -4.8370    3.9492 C   0  0  0  0  0  0  0  0  0  0  0  0
   15.0094   -4.7968    5.1000 C   0  0  0  0  0  0  0  0  0  0  0  0
   14.6602   -4.1946    6.4146 C   0  0  0  0  0  0  0  0  0  0  0  0
   13.7240   -4.6863   10.0533 C   0  0  0  0  0  0  0  0  0  0  0  0
   13.9297   -6.0318   10.1697 O   0  0  0  0  0  0  0  0  0  0  0  0
   12.6278   -4.0833   10.6671 C   0  0  0  0  0  0  0  0  0  0  0  0
   12.4157   -2.7128   10.5045 C   0  0  0  0  0  0  0  0  0  0  0  0
   11.3314   -2.1367   11.1062 O   0  0  0  0  0  0  0  0  0  0  0  0
   13.6500    1.3697   10.7268 H   0  0  0  0  0  0  0  0  0  0  0  0
   14.8599    0.0737   10.7933 H   0  0  0  0  0  0  0  0  0  0  0  0
   13.3721   -0.0495   11.7499 H   0  0  0  0  0  0  0  0  0  0  0  0
   12.0088   -0.2015    9.7005 H   0  0  0  0  0  0  0  0  0  0  0  0
   13.0684   -0.3189    7.4651 H   0  0  0  0  0  0  0  0  0  0  0  0
   14.6424    0.0769    8.1864 H   0  0  0  0  0  0  0  0  0  0  0  0
   13.3250    1.2464    8.2614 H   0  0  0  0  0  0  0  0  0  0  0  0
   15.0992   -1.9788    8.5545 H   0  0  0  0  0  0  0  0  0  0  0  0
   17.1433   -6.1864    6.9533 H   0  0  0  0  0  0  0  0  0  0  0  0
   17.7432   -4.5602    6.4902 H   0  0  0  0  0  0  0  0  0  0  0  0
   17.7969   -6.4466    4.0591 H   0  0  0  0  0  0  0  0  0  0  0  0
   16.4758   -6.5095    1.9704 H   0  0  0  0  0  0  0  0  0  0  0  0
   12.9288   -5.4327    1.7461 H   0  0  0  0  0  0  0  0  0  0  0  0
   14.1827   -6.3656    0.9649 H   0  0  0  0  0  0  0  0  0  0  0  0
   15.0559   -3.0259    2.1977 H   0  0  0  0  0  0  0  0  0  0  0  0
   13.3204   -2.8413    1.8624 H   0  0  0  0  0  0  0  0  0  0  0  0
   14.6917   -0.8790    1.1339 H   0  0  0  0  0  0  0  0  0  0  0  0
   13.8609   -1.6630   -0.2512 H   0  0  0  0  0  0  0  0  0  0  0  0
   17.3454   -1.0255   -1.4128 H   0  0  0  0  0  0  0  0  0  0  0  0
   16.4524    0.0484   -0.2866 H   0  0  0  0  0  0  0  0  0  0  0  0
   15.6214   -0.6311   -1.7330 H   0  0  0  0  0  0  0  0  0  0  0  0
   16.8908   -3.3943   -1.4586 H   0  0  0  0  0  0  0  0  0  0  0  0
   15.1394   -3.1357   -1.7536 H   0  0  0  0  0  0  0  0  0  0  0  0
   15.5350   -5.3544   -0.7070 H   0  0  0  0  0  0  0  0  0  0  0  0
   16.4110   -4.5807    0.6265 H   0  0  0  0  0  0  0  0  0  0  0  0
   13.2721   -4.3726    3.9274 H   0  0  0  0  0  0  0  0  0  0  0  0
   14.6223   -3.1026    6.3483 H   0  0  0  0  0  0  0  0  0  0  0  0
   13.7199   -4.5848    6.8154 H   0  0  0  0  0  0  0  0  0  0  0  0
   13.2481   -6.4180   10.7428 H   0  0  0  0  0  0  0  0  0  0  0  0
   11.9317   -4.6682   11.2607 H   0  0  0  0  0  0  0  0  0  0  0  0
   11.3785   -2.3281   12.0574 H   0  0  0  0  0  0  0  0  0  0  0  0
   16.6561   -2.1445    0.5822 H   0  0  0  0  0  0  0  0  0  0  0  0
  1  2  1  0  0  0  0
  1 31  1  0  0  0  0
  1 32  1  0  0  0  0
  1 33  1  0  0  0  0
  2  3  1  0  0  0  0
  2  4  1  0  0  0  0
  2 34  1  0  0  0  0
  3 35  1  0  0  0  0
  3 36  1  0  0  0  0
  3 37  1  0  0  0  0
  4  5  2  0  0  0  0
  4 29  1  0  0  0  0
  5  6  1  0  0  0  0
  5 38  1  0  0  0  0
  6  7  1  0  0  0  0
  6 26  2  0  0  0  0
  7  8  2  0  0  0  0
  7  9  1  0  0  0  0
  9 10  1  0  0  0  0
  9 25  1  0  0  0  0
 10 11  1  0  0  0  0
 10 39  1  0  0  0  0
 10 40  1  0  0  0  0
 11 12  2  0  0  0  0
 11 24  1  0  0  0  0
 12 13  1  0  0  0  0
 12 41  1  0  0  0  0
 13 14  2  0  0  0  0
 13 42  1  0  0  0  0
 14 15  1  0  0  0  0
 14 23  1  0  0  0  0
 15 16  1  0  0  0  0
 15 43  1  0  0  0  0
 15 44  1  0  0  0  0
 16 17  1  0  0  0  0
 16 22  1  0  0  0  0
 17 18  1  0  0  0  0
 17 45  1  0  0  0  0
 17 46  1  0  0  0  0
 18 19  1  0  0  0  0
 18 47  1  0  0  0  0
 18 48  1  0  0  0  0
 19 20  1  0  0  0  0
 19 21  1  0  0  0  0
 19 62  1  0  0  0  0
 20 49  1  0  0  0  0
 20 50  1  0  0  0  0
 20 51  1  0  0  0  0
 21 22  1  0  0  0  0
 21 52  1  0  0  0  0
 21 53  1  0  0  0  0
 22 54  1  0  0  0  0
 22 55  1  0  0  0  0
 23 24  2  0  0  0  0
 23 56  1  0  0  0  0
 24 25  1  0  0  0  0
 25 57  1  0  0  0  0
 25 58  1  0  0  0  0
 26 27  1  0  0  0  0
 26 28  1  0  0  0  0
 27 59  1  0  0  0  0
 28 29  2  0  0  0  0
 28 60  1  0  0  0  0
 29 30  1  0  0  0  0
 30 61  1  0  0  0  0
M  CHG  1  19   1
M  END
$$$$
