XNW
 OpenBabel04051920183D

 39 40  0  0  1  0  0  0  0  0999 V2000
   20.2591    1.6742   36.8467 C   0  0  0  0  0  0  0  0  0  0  0  0
   19.1306    1.5014   35.9993 O   0  0  0  0  0  0  0  0  0  0  0  0
   17.9625    2.0153   36.5024 C   0  0  0  0  0  0  0  0  0  0  0  0
   16.8075    1.6490   35.8149 C   0  0  0  0  0  0  0  0  0  0  0  0
   15.5651    2.1167   36.2444 C   0  0  0  0  0  0  0  0  0  0  0  0
   17.8549    2.8580   37.6154 C   0  0  0  0  0  0  0  0  0  0  0  0
   16.6147    3.3350   38.0380 C   0  0  0  0  0  0  0  0  0  0  0  0
   15.4337    2.9705   37.3421 C   0  0  0  0  0  0  0  0  0  0  0  0
   14.0598    3.4686   37.7025 C   0  0  0  0  0  0  0  0  0  0  0  0
   13.3869    2.7034   38.8585 C   0  0  1  0  0  0  0  0  0  0  0  0
   13.7539    3.4028   40.1651 C   0  0  0  0  0  0  0  0  0  0  0  0
   14.5826    4.3101   40.2509 O   0  0  0  0  0  0  0  0  0  0  0  0
   13.1558    2.8540   41.4504 C   0  0  1  0  0  0  0  0  0  0  0  0
   13.4211    3.7223   42.5720 O   0  0  0  0  0  0  0  0  0  0  0  0
   11.6441    2.7451   41.2852 C   0  0  2  0  0  0  0  0  0  0  0  0
   11.1040    2.0397   42.4154 O   0  0  0  0  0  0  0  0  0  0  0  0
   11.2379    2.0295   39.9991 C   0  0  0  0  0  0  0  0  0  0  0  0
   11.8491    2.6779   38.7515 C   0  0  2  0  0  0  0  0  0  0  0  0
   11.4339    1.8069   37.4983 C   0  0  0  0  0  0  0  0  0  0  0  0
   11.5506    0.5542   37.6345 O   0  0  0  0  0  0  0  0  0  0  0  0
   11.1025    2.4754   36.4754 O   0  0  0  0  0  0  0  0  0  0  0  0
   11.3576    4.0381   38.6349 O   0  0  0  0  0  0  0  0  0  0  0  0
   21.1325    1.2150   36.3722 H   0  0  0  0  0  0  0  0  0  0  0  0
   20.0897    1.1755   37.8085 H   0  0  0  0  0  0  0  0  0  0  0  0
   20.4775    2.7394   36.9772 H   0  0  0  0  0  0  0  0  0  0  0  0
   16.8629    1.0030   34.9450 H   0  0  0  0  0  0  0  0  0  0  0  0
   14.6654    1.8114   35.7003 H   0  0  0  0  0  0  0  0  0  0  0  0
   18.7316    3.1742   38.1725 H   0  0  0  0  0  0  0  0  0  0  0  0
   16.5624    4.0060   38.8903 H   0  0  0  0  0  0  0  0  0  0  0  0
   13.4454    3.3828   36.8002 H   0  0  0  0  0  0  0  0  0  0  0  0
   14.0940    4.5464   37.9057 H   0  0  0  0  0  0  0  0  0  0  0  0
   13.7625    1.6719   38.8896 H   0  0  0  0  0  0  0  0  0  0  0  0
   13.6202    1.8906   41.6999 H   0  0  0  0  0  0  0  0  0  0  0  0
   14.3743    3.9328   42.5262 H   0  0  0  0  0  0  0  0  0  0  0  0
   11.2067    3.7499   41.2996 H   0  0  0  0  0  0  0  0  0  0  0  0
   11.3686    2.5632   43.1956 H   0  0  0  0  0  0  0  0  0  0  0  0
   10.1433    2.0397   39.9258 H   0  0  0  0  0  0  0  0  0  0  0  0
   11.5329    0.9745   40.0676 H   0  0  0  0  0  0  0  0  0  0  0  0
   11.5543    4.3029   37.7098 H   0  0  0  0  0  0  0  0  0  0  0  0
  1  2  1  0  0  0  0
  1 23  1  0  0  0  0
  1 24  1  0  0  0  0
  1 25  1  0  0  0  0
  2  3  1  0  0  0  0
  3  4  2  0  0  0  0
  3  6  1  0  0  0  0
  4  5  1  0  0  0  0
  4 26  1  0  0  0  0
  5  8  2  0  0  0  0
  5 27  1  0  0  0  0
  6  7  2  0  0  0  0
  6 28  1  0  0  0  0
  7  8  1  0  0  0  0
  7 29  1  0  0  0  0
  8  9  1  0  0  0  0
  9 10  1  0  0  0  0
  9 30  1  0  0  0  0
  9 31  1  0  0  0  0
 10 11  1  0  0  0  0
 10 18  1  0  0  0  0
 10 32  1  1  0  0  0
 11 12  2  0  0  0  0
 11 13  1  0  0  0  0
 13 14  1  0  0  0  0
 13 15  1  0  0  0  0
 13 33  1  1  0  0  0
 14 34  1  0  0  0  0
 15 16  1  0  0  0  0
 15 17  1  0  0  0  0
 15 35  1  6  0  0  0
 16 36  1  0  0  0  0
 17 18  1  0  0  0  0
 17 37  1  0  0  0  0
 17 38  1  0  0  0  0
 18 19  1  6  0  0  0
 18 22  1  0  0  0  0
 19 20  2  0  0  0  0
 19 21  1  0  0  0  0
 22 39  1  0  0  0  0
M  END
$$$$
