XTG
 OpenBabel04051917523D

 53 55  0  0  1  0  0  0  0  0999 V2000
  141.3704   60.1163  132.6401 C   0  0  0  0  0  0  0  0  0  0  0  0
  141.3220   58.6992  132.6564 C   0  0  0  0  0  0  0  0  0  0  0  0
  142.4747   57.9934  132.3177 C   0  0  0  0  0  0  0  0  0  0  0  0
  142.4546   56.5340  132.3033 N   0  0  0  0  0  0  0  0  0  0  0  0
  143.4764   55.9449  131.8648 O   0  0  0  0  0  0  0  0  0  0  0  0
  141.4733   55.9588  132.6934 O   0  0  0  0  0  0  0  0  0  0  0  0
  143.6244   58.6582  131.9606 C   0  0  0  0  0  0  0  0  0  0  0  0
  143.6862   60.0659  131.9688 C   0  0  0  0  0  0  0  0  0  0  0  0
  142.5741   60.7952  132.3408 C   0  0  0  0  0  0  0  0  0  0  0  0
  142.5168   62.1497  132.4685 O   0  0  0  0  0  0  0  0  0  0  0  0
  143.7647   62.8313  132.6869 C   0  0  2  0  0  0  0  0  0  0  0  0
  144.6227   62.2384  133.6845 O   0  0  0  0  0  0  0  0  0  0  0  0
  143.4914   64.3065  133.0847 C   0  0  2  0  0  0  0  0  0  0  0  0
  142.7056   64.9441  132.0835 O   0  0  0  0  0  0  0  0  0  0  0  0
  144.8105   65.0683  133.2259 C   0  0  1  0  0  0  0  0  0  0  0  0
  144.6034   66.3983  133.7062 O   0  0  0  0  0  0  0  0  0  0  0  0
  145.6954   64.3091  134.1929 C   0  0  2  0  0  0  0  0  0  0  0  0
  146.9667   64.9508  134.2523 O   0  0  0  0  0  0  0  0  0  0  0  0
  145.8775   62.9230  133.5952 C   0  0  1  0  0  0  0  0  0  0  0  0
  147.1354   62.2779  134.1889 C   0  0  0  0  0  0  0  0  0  0  0  0
  146.8427   60.8456  135.2708 S   0  0  0  0  0  0  0  0  0  0  0  0
  147.7054   61.2068  136.9077 C   0  0  1  0  0  0  0  0  0  0  0  0
  146.9022   60.7228  138.0059 O   0  0  0  0  0  0  0  0  0  0  0  0
  146.7765   59.2975  138.0664 C   0  0  0  0  0  0  0  0  0  0  0  0
  148.0922   58.5121  138.1060 C   0  0  1  0  0  0  0  0  0  0  0  0
  147.8157   57.1150  137.9011 O   0  0  0  0  0  0  0  0  0  0  0  0
  149.0572   59.0394  137.0189 C   0  0  2  0  0  0  0  0  0  0  0  0
  150.3474   58.4077  137.1219 O   0  0  0  0  0  0  0  0  0  0  0  0
  149.1189   60.5933  137.0975 C   0  0  1  0  0  0  0  0  0  0  0  0
  150.0417   61.2292  136.2135 O   0  0  0  0  0  0  0  0  0  0  0  0
  140.5113   60.6845  132.9296 H   0  0  0  0  0  0  0  0  0  0  0  0
  140.3897   58.2098  132.9407 H   0  0  0  0  0  0  0  0  0  0  0  0
  144.5373   58.1175  131.6826 H   0  0  0  0  0  0  0  0  0  0  0  0
  144.6316   60.5603  131.6940 H   0  0  0  0  0  0  0  0  0  0  0  0
  144.3005   62.8285  131.7268 H   0  0  0  0  0  0  0  0  0  0  0  0
  142.9560   64.3471  134.0429 H   0  0  0  0  0  0  0  0  0  0  0  0
  141.8781   64.4227  132.0307 H   0  0  0  0  0  0  0  0  0  0  0  0
  145.3160   65.1497  132.2516 H   0  0  0  0  0  0  0  0  0  0  0  0
  145.4655   66.8455  133.7086 H   0  0  0  0  0  0  0  0  0  0  0  0
  145.2290   64.2436  135.1898 H   0  0  0  0  0  0  0  0  0  0  0  0
  146.8730   65.7945  134.7026 H   0  0  0  0  0  0  0  0  0  0  0  0
  146.0943   63.0334  132.5165 H   0  0  0  0  0  0  0  0  0  0  0  0
  147.7451   63.0292  134.6913 H   0  0  0  0  0  0  0  0  0  0  0  0
  147.7380   61.9782  133.3162 H   0  0  0  0  0  0  0  0  0  0  0  0
  147.7943   62.2942  137.0216 H   0  0  0  0  0  0  0  0  0  0  0  0
  146.1749   58.9471  137.2227 H   0  0  0  0  0  0  0  0  0  0  0  0
  146.2059   59.0559  138.9701 H   0  0  0  0  0  0  0  0  0  0  0  0
  148.5669   58.5977  139.0920 H   0  0  0  0  0  0  0  0  0  0  0  0
  147.1871   56.8074  138.5805 H   0  0  0  0  0  0  0  0  0  0  0  0
  148.6893   58.7397  136.0358 H   0  0  0  0  0  0  0  0  0  0  0  0
  150.7169   58.5172  138.0125 H   0  0  0  0  0  0  0  0  0  0  0  0
  149.4660   60.8346  138.1101 H   0  0  0  0  0  0  0  0  0  0  0  0
  149.7439   61.0650  135.3046 H   0  0  0  0  0  0  0  0  0  0  0  0
  1  2  2  0  0  0  0
  1  9  1  0  0  0  0
  1 31  1  0  0  0  0
  2  3  1  0  0  0  0
  2 32  1  0  0  0  0
  3  4  1  0  0  0  0
  3  7  2  0  0  0  0
  4  5  2  0  0  0  0
  4  6  2  0  0  0  0
  7  8  1  0  0  0  0
  7 33  1  0  0  0  0
  8  9  2  0  0  0  0
  8 34  1  0  0  0  0
  9 10  1  0  0  0  0
 10 11  1  0  0  0  0
 11 12  1  0  0  0  0
 11 13  1  0  0  0  0
 11 35  1  6  0  0  0
 12 19  1  0  0  0  0
 13 14  1  0  0  0  0
 13 15  1  0  0  0  0
 13 36  1  1  0  0  0
 14 37  1  0  0  0  0
 15 16  1  0  0  0  0
 15 17  1  0  0  0  0
 15 38  1  6  0  0  0
 16 39  1  0  0  0  0
 17 18  1  0  0  0  0
 17 19  1  0  0  0  0
 17 40  1  1  0  0  0
 18 41  1  0  0  0  0
 19 20  1  0  0  0  0
 19 42  1  6  0  0  0
 20 21  1  0  0  0  0
 20 43  1  0  0  0  0
 20 44  1  0  0  0  0
 21 22  1  0  0  0  0
 22 23  1  0  0  0  0
 22 29  1  0  0  0  0
 22 45  1  1  0  0  0
 23 24  1  0  0  0  0
 24 25  1  0  0  0  0
 24 46  1  0  0  0  0
 24 47  1  0  0  0  0
 25 26  1  0  0  0  0
 25 27  1  0  0  0  0
 25 48  1  1  0  0  0
 26 49  1  0  0  0  0
 27 28  1  0  0  0  0
 27 29  1  0  0  0  0
 27 50  1  6  0  0  0
 28 51  1  0  0  0  0
 29 30  1  0  0  0  0
 29 52  1  1  0  0  0
 30 53  1  0  0  0  0
M  END
$$$$
