XWG
 OpenBabel04051920373D

 68 73  0  0  1  0  0  0  0  0999 V2000
   -0.5238    5.7298   27.9930 Cl  0  0  0  0  0  0  0  0  0  0  0  0
   -1.2550    7.2260   27.6053 C   0  0  0  0  0  0  0  0  0  0  0  0
   -2.3591    7.8000   28.1939 C   0  0  0  0  0  0  0  0  0  0  0  0
   -2.6973    9.0307   27.5788 C   0  0  0  0  0  0  0  0  0  0  0  0
   -0.5743    8.1564   26.3761 S   0  0  0  0  0  0  0  0  0  0  0  0
   -1.7933    9.3262   26.5855 C   0  0  0  0  0  0  0  0  0  0  0  0
   -1.8215   10.4267   25.7173 C   0  0  0  0  0  0  0  0  0  0  0  0
   -2.9067   11.1561   25.3102 C   0  0  0  0  0  0  0  0  0  0  0  0
   -0.7117   10.8676   25.0611 O   0  0  0  0  0  0  0  0  0  0  0  0
   -1.0521   11.9111   24.2415 N   0  0  0  0  0  0  0  0  0  0  0  0
   -2.3707   12.0667   24.3878 C   0  0  0  0  0  0  0  0  0  0  0  0
   -3.1164   13.0945   23.6236 C   0  0  2  0  0  0  0  0  0  0  0  0
   -4.5009   13.4634   24.1651 N   0  3  2  0  0  0  0  0  0  0  0  0
   -5.1582   14.2361   23.0487 C   0  0  1  0  0  0  0  0  0  0  0  0
   -4.7377   15.6713   23.3133 C   0  0  0  0  0  0  0  0  0  0  0  0
   -4.4227   15.7659   24.8020 C   0  0  0  0  0  0  0  0  0  0  0  0
   -4.4380   14.3629   25.3633 C   0  0  0  0  0  0  0  0  0  0  0  0
   -4.6151   13.6242   21.7730 C   0  0  1  0  0  0  0  0  0  0  0  0
   -3.4216   12.7556   22.1773 C   0  0  2  0  0  0  0  0  0  0  0  0
   -3.9267   11.3270   21.9849 C   0  0  0  0  0  0  0  0  0  0  0  0
   -3.2854   10.3261   22.1178 O   0  0  0  0  0  0  0  0  0  0  0  0
   -5.6146   12.6212   21.2256 C   0  0  0  0  0  0  0  0  0  0  0  0
   -6.5813   12.8945   20.5585 O   0  0  0  0  0  0  0  0  0  0  0  0
   -5.2427   11.3579   21.5934 N   0  0  0  0  0  0  0  0  0  0  0  0
   -5.9384   10.1660   21.1278 C   0  0  0  0  0  0  0  0  0  0  0  0
   -5.5220    9.6861   19.7350 C   0  0  0  0  0  0  0  0  0  0  0  0
   -6.4322    8.5061   19.4232 C   0  0  0  0  0  0  0  0  0  0  0  0
   -6.2328    7.8993   18.0598 N   0  3  0  0  0  0  0  0  0  0  0  0
   -6.3430    8.9059   16.9143 C   0  0  0  0  0  0  0  0  0  0  0  0
   -7.5920    9.7703   16.9783 C   0  0  0  0  0  0  0  0  0  0  0  0
   -8.7494    8.9710   16.7764 O   0  0  0  0  0  0  0  0  0  0  0  0
   -7.2586    6.7803   17.8875 C   0  0  0  0  0  0  0  0  0  0  0  0
   -6.5831    5.5356   18.3983 C   0  0  0  0  0  0  0  0  0  0  0  0
   -5.1184    5.7300   18.1015 C   0  0  0  0  0  0  0  0  0  0  0  0
   -4.8849    7.2145   18.0032 C   0  0  0  0  0  0  0  0  0  0  0  0
   -2.9136    7.3703   29.0223 H   0  0  0  0  0  0  0  0  0  0  0  0
   -3.5440    9.6540   27.8542 H   0  0  0  0  0  0  0  0  0  0  0  0
   -3.9333   11.0200   25.6149 H   0  0  0  0  0  0  0  0  0  0  0  0
   -2.5505   14.0344   23.6696 H   0  0  0  0  0  0  0  0  0  0  0  0
   -6.2409   14.1281   23.1311 H   0  0  0  0  0  0  0  0  0  0  0  0
   -5.5529   16.3532   23.0504 H   0  0  0  0  0  0  0  0  0  0  0  0
   -3.8558   15.9443   22.7198 H   0  0  0  0  0  0  0  0  0  0  0  0
   -5.1658   16.3793   25.3176 H   0  0  0  0  0  0  0  0  0  0  0  0
   -3.4340   16.2157   24.9547 H   0  0  0  0  0  0  0  0  0  0  0  0
   -3.5363   14.1273   25.9311 H   0  0  0  0  0  0  0  0  0  0  0  0
   -5.3266   14.1742   25.9720 H   0  0  0  0  0  0  0  0  0  0  0  0
   -4.3684   14.3865   21.0267 H   0  0  0  0  0  0  0  0  0  0  0  0
   -2.5463   12.9440   21.5512 H   0  0  0  0  0  0  0  0  0  0  0  0
   -7.0162   10.3706   21.0880 H   0  0  0  0  0  0  0  0  0  0  0  0
   -5.7545    9.3365   21.8227 H   0  0  0  0  0  0  0  0  0  0  0  0
   -4.4695    9.3804   19.7360 H   0  0  0  0  0  0  0  0  0  0  0  0
   -5.6500   10.4858   18.9983 H   0  0  0  0  0  0  0  0  0  0  0  0
   -7.4762    8.8215   19.4855 H   0  0  0  0  0  0  0  0  0  0  0  0
   -6.2510    7.7063   20.1481 H   0  0  0  0  0  0  0  0  0  0  0  0
   -6.3449    8.3226   15.9888 H   0  0  0  0  0  0  0  0  0  0  0  0
   -5.4521    9.5318   16.9611 H   0  0  0  0  0  0  0  0  0  0  0  0
   -7.5330   10.5355   16.2012 H   0  0  0  0  0  0  0  0  0  0  0  0
   -7.6753   10.2669   17.9467 H   0  0  0  0  0  0  0  0  0  0  0  0
   -8.6883    8.5522   15.8990 H   0  0  0  0  0  0  0  0  0  0  0  0
   -7.4975    6.6935   16.8265 H   0  0  0  0  0  0  0  0  0  0  0  0
   -8.1512    7.0289   18.4645 H   0  0  0  0  0  0  0  0  0  0  0  0
   -6.9756    4.6546   17.8854 H   0  0  0  0  0  0  0  0  0  0  0  0
   -6.7473    5.4170   19.4760 H   0  0  0  0  0  0  0  0  0  0  0  0
   -4.8465    5.2535   17.1548 H   0  0  0  0  0  0  0  0  0  0  0  0
   -4.4952    5.3093   18.8970 H   0  0  0  0  0  0  0  0  0  0  0  0
   -4.2900    7.5703   18.8407 H   0  0  0  0  0  0  0  0  0  0  0  0
   -4.4065    7.4830   17.0618 H   0  0  0  0  0  0  0  0  0  0  0  0
   -5.0360   12.6132   24.3791 H   0  0  0  0  0  0  0  0  0  0  0  0
  1  2  1  0  0  0  0
  2  3  2  0  0  0  0
  2  5  1  0  0  0  0
  3  4  1  0  0  0  0
  3 36  1  0  0  0  0
  4  6  2  0  0  0  0
  4 37  1  0  0  0  0
  5  6  1  0  0  0  0
  6  7  1  0  0  0  0
  7  8  2  0  0  0  0
  7  9  1  0  0  0  0
  8 11  1  0  0  0  0
  8 38  1  0  0  0  0
  9 10  1  0  0  0  0
 10 11  2  0  0  0  0
 11 12  1  0  0  0  0
 12 13  1  0  0  0  0
 12 19  1  0  0  0  0
 12 39  1  1  0  0  0
 13 14  1  0  0  0  0
 13 17  1  0  0  0  0
 13 68  1  1  0  0  0
 14 15  1  0  0  0  0
 14 18  1  0  0  0  0
 14 40  1  1  0  0  0
 15 16  1  0  0  0  0
 15 41  1  0  0  0  0
 15 42  1  0  0  0  0
 16 17  1  0  0  0  0
 16 43  1  0  0  0  0
 16 44  1  0  0  0  0
 17 45  1  0  0  0  0
 17 46  1  0  0  0  0
 18 19  1  0  0  0  0
 18 22  1  0  0  0  0
 18 47  1  6  0  0  0
 19 20  1  0  0  0  0
 19 48  1  6  0  0  0
 20 21  2  0  0  0  0
 20 24  1  0  0  0  0
 22 23  2  0  0  0  0
 22 24  1  0  0  0  0
 24 25  1  0  0  0  0
 25 26  1  0  0  0  0
 25 49  1  0  0  0  0
 25 50  1  0  0  0  0
 26 27  1  0  0  0  0
 26 51  1  0  0  0  0
 26 52  1  0  0  0  0
 27 28  1  0  0  0  0
 27 53  1  0  0  0  0
 27 54  1  0  0  0  0
 28 29  1  0  0  0  0
 28 32  1  0  0  0  0
 28 35  1  0  0  0  0
 29 30  1  0  0  0  0
 29 55  1  0  0  0  0
 29 56  1  0  0  0  0
 30 31  1  0  0  0  0
 30 57  1  0  0  0  0
 30 58  1  0  0  0  0
 31 59  1  0  0  0  0
 32 33  1  0  0  0  0
 32 60  1  0  0  0  0
 32 61  1  0  0  0  0
 33 34  1  0  0  0  0
 33 62  1  0  0  0  0
 33 63  1  0  0  0  0
 34 35  1  0  0  0  0
 34 64  1  0  0  0  0
 34 65  1  0  0  0  0
 35 66  1  0  0  0  0
 35 67  1  0  0  0  0
M  CHG  2  13   1  28   1
M  END
$$$$
