Y5H
 OpenBabel04051920373D

 60 64  0  0  1  0  0  0  0  0999 V2000
   -0.6153    6.0289   27.7103 Cl  0  0  0  0  0  0  0  0  0  0  0  0
   -1.3894    7.5264   27.3804 C   0  0  0  0  0  0  0  0  0  0  0  0
   -2.4201    8.0848   28.0838 C   0  0  0  0  0  0  0  0  0  0  0  0
   -2.8466    9.3135   27.4853 C   0  0  0  0  0  0  0  0  0  0  0  0
   -0.8746    8.4690   26.0721 S   0  0  0  0  0  0  0  0  0  0  0  0
   -2.1040    9.6303   26.3495 C   0  0  0  0  0  0  0  0  0  0  0  0
   -2.3635   10.7325   25.4575 C   0  0  0  0  0  0  0  0  0  0  0  0
   -1.7006   11.0060   24.3354 N   0  0  0  0  0  0  0  0  0  0  0  0
   -3.4303   11.5921   25.6615 O   0  0  0  0  0  0  0  0  0  0  0  0
   -3.4393   12.4161   24.5875 C   0  0  0  0  0  0  0  0  0  0  0  0
   -2.3900   12.0337   23.7711 C   0  0  0  0  0  0  0  0  0  0  0  0
   -2.0813   12.6233   22.4541 C   0  0  2  0  0  0  0  0  0  0  0  0
   -3.0615   13.7176   21.9957 N   0  3  2  0  0  0  0  0  0  0  0  0
   -2.7868   13.8635   20.5196 C   0  0  1  0  0  0  0  0  0  0  0  0
   -1.5892   14.8030   20.5066 C   0  0  0  0  0  0  0  0  0  0  0  0
   -1.7385   15.6854   21.7461 C   0  0  0  0  0  0  0  0  0  0  0  0
   -2.8293   15.0780   22.6042 C   0  0  0  0  0  0  0  0  0  0  0  0
   -2.5159   12.4454   20.0373 C   0  0  1  0  0  0  0  0  0  0  0  0
   -2.1370   11.6345   21.2803 C   0  0  2  0  0  0  0  0  0  0  0  0
   -3.2541   10.6021   21.3554 C   0  0  0  0  0  0  0  0  0  0  0  0
   -3.3368    9.7000   22.1787 O   0  0  0  0  0  0  0  0  0  0  0  0
   -3.8119   11.8106   19.5041 C   0  0  0  0  0  0  0  0  0  0  0  0
   -4.4228   12.1734   18.5207 O   0  0  0  0  0  0  0  0  0  0  0  0
   -4.1636   10.8154   20.3842 N   0  0  0  0  0  0  0  0  0  0  0  0
   -5.3450    9.9685   20.2014 C   0  0  0  0  0  0  0  0  0  0  0  0
   -5.1340    8.8536   19.1714 C   0  0  0  0  0  0  0  0  0  0  0  0
   -6.3673    7.9621   19.2158 C   0  0  0  0  0  0  0  0  0  0  0  0
   -6.3752    6.8462   18.1863 N   0  3  0  0  0  0  0  0  0  0  0  0
   -6.3180    7.4051   16.7756 C   0  0  0  0  0  0  0  0  0  0  0  0
   -7.7113    6.1085   18.3357 C   0  0  0  0  0  0  0  0  0  0  0  0
   -5.2252    5.8642   18.3874 C   0  0  0  0  0  0  0  0  0  0  0  0
   -2.8799    7.6550   28.9734 H   0  0  0  0  0  0  0  0  0  0  0  0
   -3.6900    9.8973   27.8372 H   0  0  0  0  0  0  0  0  0  0  0  0
   -4.1881   13.1641   24.5133 H   0  0  0  0  0  0  0  0  0  0  0  0
   -1.1017   13.1215   22.5210 H   0  0  0  0  0  0  0  0  0  0  0  0
   -3.6572   14.3276   20.0522 H   0  0  0  0  0  0  0  0  0  0  0  0
   -1.5793   15.3998   19.5932 H   0  0  0  0  0  0  0  0  0  0  0  0
   -0.6360   14.2493   20.5448 H   0  0  0  0  0  0  0  0  0  0  0  0
   -2.0064   16.7068   21.4679 H   0  0  0  0  0  0  0  0  0  0  0  0
   -0.8022   15.7223   22.3135 H   0  0  0  0  0  0  0  0  0  0  0  0
   -2.5466   14.9631   23.6533 H   0  0  0  0  0  0  0  0  0  0  0  0
   -3.7714   15.6361   22.5362 H   0  0  0  0  0  0  0  0  0  0  0  0
   -1.7501   12.4371   19.2586 H   0  0  0  0  0  0  0  0  0  0  0  0
   -1.1664   11.1430   21.1740 H   0  0  0  0  0  0  0  0  0  0  0  0
   -6.2091   10.5741   19.8835 H   0  0  0  0  0  0  0  0  0  0  0  0
   -5.6216    9.4971   21.1600 H   0  0  0  0  0  0  0  0  0  0  0  0
   -4.2283    8.2869   19.4130 H   0  0  0  0  0  0  0  0  0  0  0  0
   -4.9933    9.2988   18.1819 H   0  0  0  0  0  0  0  0  0  0  0  0
   -7.2609    8.5694   19.0279 H   0  0  0  0  0  0  0  0  0  0  0  0
   -6.4545    7.4998   20.2058 H   0  0  0  0  0  0  0  0  0  0  0  0
   -6.3140    6.5719   16.0702 H   0  0  0  0  0  0  0  0  0  0  0  0
   -5.4036    7.9870   16.6669 H   0  0  0  0  0  0  0  0  0  0  0  0
   -7.1955    8.0376   16.6273 H   0  0  0  0  0  0  0  0  0  0  0  0
   -7.7689    5.6922   19.3447 H   0  0  0  0  0  0  0  0  0  0  0  0
   -7.7637    5.3217   17.5813 H   0  0  0  0  0  0  0  0  0  0  0  0
   -8.5111    6.8392   18.1817 H   0  0  0  0  0  0  0  0  0  0  0  0
   -4.2838    6.4062   18.2674 H   0  0  0  0  0  0  0  0  0  0  0  0
   -5.3002    5.0817   17.6272 H   0  0  0  0  0  0  0  0  0  0  0  0
   -5.2981    5.4364   19.3896 H   0  0  0  0  0  0  0  0  0  0  0  0
   -4.0286   13.4035   22.1662 H   0  0  0  0  0  0  0  0  0  0  0  0
  1  2  1  0  0  0  0
  2  3  2  0  0  0  0
  2  5  1  0  0  0  0
  3  4  1  0  0  0  0
  3 32  1  0  0  0  0
  4  6  2  0  0  0  0
  4 33  1  0  0  0  0
  5  6  1  0  0  0  0
  6  7  1  0  0  0  0
  7  8  2  0  0  0  0
  7  9  1  0  0  0  0
  8 11  1  0  0  0  0
  9 10  1  0  0  0  0
 10 11  2  0  0  0  0
 10 34  1  0  0  0  0
 11 12  1  0  0  0  0
 12 13  1  0  0  0  0
 12 19  1  0  0  0  0
 12 35  1  1  0  0  0
 13 14  1  0  0  0  0
 13 17  1  0  0  0  0
 13 60  1  1  0  0  0
 14 15  1  0  0  0  0
 14 18  1  0  0  0  0
 14 36  1  6  0  0  0
 15 16  1  0  0  0  0
 15 37  1  0  0  0  0
 15 38  1  0  0  0  0
 16 17  1  0  0  0  0
 16 39  1  0  0  0  0
 16 40  1  0  0  0  0
 17 41  1  0  0  0  0
 17 42  1  0  0  0  0
 18 19  1  0  0  0  0
 18 22  1  0  0  0  0
 18 43  1  6  0  0  0
 19 20  1  0  0  0  0
 19 44  1  6  0  0  0
 20 21  2  0  0  0  0
 20 24  1  0  0  0  0
 22 23  2  0  0  0  0
 22 24  1  0  0  0  0
 24 25  1  0  0  0  0
 25 26  1  0  0  0  0
 25 45  1  0  0  0  0
 25 46  1  0  0  0  0
 26 27  1  0  0  0  0
 26 47  1  0  0  0  0
 26 48  1  0  0  0  0
 27 28  1  0  0  0  0
 27 49  1  0  0  0  0
 27 50  1  0  0  0  0
 28 29  1  0  0  0  0
 28 30  1  0  0  0  0
 28 31  1  0  0  0  0
 29 51  1  0  0  0  0
 29 52  1  0  0  0  0
 29 53  1  0  0  0  0
 30 54  1  0  0  0  0
 30 55  1  0  0  0  0
 30 56  1  0  0  0  0
 31 57  1  0  0  0  0
 31 58  1  0  0  0  0
 31 59  1  0  0  0  0
M  CHG  2  13   1  28   1
M  END
$$$$
