YFE
 OpenBabel04051920423D

 48 49  0  0  0  0  0  0  0  0999 V2000
   18.5977   17.5390   44.2902 C   0  0  0  0  0  0  0  0  0  0  0  0
   17.1365   17.7821   44.5182 C   0  0  0  0  0  0  0  0  0  0  0  0
   16.2469   17.7038   43.3060 C   0  0  0  0  0  0  0  0  0  0  0  0
   16.5813   18.0905   45.7048 C   0  0  0  0  0  0  0  0  0  0  0  0
   17.2076   18.3317   47.0566 C   0  0  0  0  0  0  0  0  0  0  0  0
   16.9003   19.7171   47.6141 C   0  0  0  0  0  0  0  0  0  0  0  0
   15.5828   20.1693   47.8006 C   0  0  0  0  0  0  0  0  0  0  0  0
   15.3544   21.4776   48.2272 C   0  0  0  0  0  0  0  0  0  0  0  0
   14.5350   19.3284   47.5082 O   0  0  0  0  0  0  0  0  0  0  0  0
   13.3605   19.5367   48.2889 C   0  0  0  0  0  0  0  0  0  0  0  0
   17.9458   20.5899   47.9931 C   0  0  0  0  0  0  0  0  0  0  0  0
   19.2323   20.1043   47.8689 O   0  0  0  0  0  0  0  0  0  0  0  0
   17.7276   21.9090   48.4881 C   0  0  0  0  0  0  0  0  0  0  0  0
   18.9196   22.7722   48.8715 C   0  0  0  0  0  0  0  0  0  0  0  0
   20.0602   22.2158   48.7931 O   0  0  0  0  0  0  0  0  0  0  0  0
   18.7347   23.9727   49.2474 O   0  0  0  0  0  0  0  0  0  0  0  0
   16.3937   22.3544   48.5754 C   0  0  0  0  0  0  0  0  0  0  0  0
   15.9543   23.7336   49.0034 C   0  0  0  0  0  0  0  0  0  0  0  0
   15.7327   23.8833   50.5158 C   0  0  0  0  0  0  0  0  0  0  0  0
   15.2017   25.2416   50.9415 C   0  0  0  0  0  0  0  0  0  0  0  0
   14.7829   26.2155   50.0217 C   0  0  0  0  0  0  0  0  0  0  0  0
   14.3115   27.4564   50.4475 C   0  0  0  0  0  0  0  0  0  0  0  0
   14.2484   27.7451   51.8061 C   0  0  0  0  0  0  0  0  0  0  0  0
   14.6510   26.7901   52.7368 C   0  0  0  0  0  0  0  0  0  0  0  0
   15.1203   25.5456   52.3079 C   0  0  0  0  0  0  0  0  0  0  0  0
   18.7961   17.3312   43.2314 H   0  0  0  0  0  0  0  0  0  0  0  0
   18.9380   16.6646   44.8545 H   0  0  0  0  0  0  0  0  0  0  0  0
   19.2004   18.4087   44.5681 H   0  0  0  0  0  0  0  0  0  0  0  0
   15.2022   17.9312   43.5487 H   0  0  0  0  0  0  0  0  0  0  0  0
   16.2749   16.7005   42.8738 H   0  0  0  0  0  0  0  0  0  0  0  0
   16.5671   18.4313   42.5541 H   0  0  0  0  0  0  0  0  0  0  0  0
   15.5012   18.2056   45.7116 H   0  0  0  0  0  0  0  0  0  0  0  0
   18.2859   18.1442   47.0052 H   0  0  0  0  0  0  0  0  0  0  0  0
   16.8158   17.5895   47.7637 H   0  0  0  0  0  0  0  0  0  0  0  0
   14.3453   21.8711   48.2705 H   0  0  0  0  0  0  0  0  0  0  0  0
   12.6228   18.7830   48.0023 H   0  0  0  0  0  0  0  0  0  0  0  0
   12.8936   20.5075   48.0936 H   0  0  0  0  0  0  0  0  0  0  0  0
   13.5845   19.4169   49.3539 H   0  0  0  0  0  0  0  0  0  0  0  0
   19.8313   20.8281   48.2035 H   0  0  0  0  0  0  0  0  0  0  0  0
   15.0015   23.9375   48.4942 H   0  0  0  0  0  0  0  0  0  0  0  0
   16.6201   24.5037   48.6061 H   0  0  0  0  0  0  0  0  0  0  0  0
   16.6707   23.6836   51.0489 H   0  0  0  0  0  0  0  0  0  0  0  0
   15.0124   23.1235   50.8533 H   0  0  0  0  0  0  0  0  0  0  0  0
   14.8365   26.0393   48.9509 H   0  0  0  0  0  0  0  0  0  0  0  0
   14.0149   28.1962   49.7115 H   0  0  0  0  0  0  0  0  0  0  0  0
   13.8995   28.7188   52.1344 H   0  0  0  0  0  0  0  0  0  0  0  0
   14.6147   27.0190   53.7973 H   0  0  0  0  0  0  0  0  0  0  0  0
   15.4444   24.8147   53.0458 H   0  0  0  0  0  0  0  0  0  0  0  0
  1  2  1  0  0  0  0
  1 26  1  0  0  0  0
  1 27  1  0  0  0  0
  1 28  1  0  0  0  0
  2  3  1  0  0  0  0
  2  4  2  0  0  0  0
  3 29  1  0  0  0  0
  3 30  1  0  0  0  0
  3 31  1  0  0  0  0
  4  5  1  0  0  0  0
  4 32  1  0  0  0  0
  5  6  1  0  0  0  0
  5 33  1  0  0  0  0
  5 34  1  0  0  0  0
  6  7  2  0  0  0  0
  6 11  1  0  0  0  0
  7  8  1  0  0  0  0
  7  9  1  0  0  0  0
  8 17  2  0  0  0  0
  8 35  1  0  0  0  0
  9 10  1  0  0  0  0
 10 36  1  0  0  0  0
 10 37  1  0  0  0  0
 10 38  1  0  0  0  0
 11 12  1  0  0  0  0
 11 13  2  0  0  0  0
 12 39  1  0  0  0  0
 13 14  1  0  0  0  0
 13 17  1  0  0  0  0
 14 15  2  0  0  0  0
 14 16  1  0  0  0  0
 17 18  1  0  0  0  0
 18 19  1  0  0  0  0
 18 40  1  0  0  0  0
 18 41  1  0  0  0  0
 19 20  1  0  0  0  0
 19 42  1  0  0  0  0
 19 43  1  0  0  0  0
 20 21  2  0  0  0  0
 20 25  1  0  0  0  0
 21 22  1  0  0  0  0
 21 44  1  0  0  0  0
 22 23  2  0  0  0  0
 22 45  1  0  0  0  0
 23 24  1  0  0  0  0
 23 46  1  0  0  0  0
 24 25  2  0  0  0  0
 24 47  1  0  0  0  0
 25 48  1  0  0  0  0
M  END
$$$$
