YIX
 OpenBabel04051920443D

 49 51  0  0  0  0  0  0  0  0999 V2000
    8.5062   17.2131   36.3965 C   0  0  0  0  0  0  0  0  0  0  0  0
    7.1852   16.4910   36.2049 C   0  0  0  0  0  0  0  0  0  0  0  0
    6.9811   16.1604   34.8057 N   0  0  0  0  0  0  0  0  0  0  0  0
    5.9640   15.3372   34.4003 C   0  0  0  0  0  0  0  0  0  0  0  0
    5.1680   14.8130   35.1674 O   0  0  0  0  0  0  0  0  0  0  0  0
    5.9874   15.1187   33.0451 N   0  0  0  0  0  0  0  0  0  0  0  0
    4.9449   14.3395   32.4026 C   0  0  0  0  0  0  0  0  0  0  0  0
    5.4050   13.5196   31.2080 C   0  0  0  0  0  0  0  0  0  0  0  0
    6.7602   13.1844   31.0349 C   0  0  0  0  0  0  0  0  0  0  0  0
    7.1781   12.3778   29.9717 C   0  0  0  0  0  0  0  0  0  0  0  0
    6.2502   11.8837   29.0617 C   0  0  0  0  0  0  0  0  0  0  0  0
    4.9019   12.1907   29.2190 C   0  0  0  0  0  0  0  0  0  0  0  0
    4.4673   12.9824   30.2945 C   0  0  0  0  0  0  0  0  0  0  0  0
    2.7098   13.2776   30.4660 S   0  0  0  0  0  0  0  0  0  0  0  0
    2.0949   11.7161   30.9090 C   0  0  0  0  0  0  0  0  0  0  0  0
    2.8879   10.7016   31.6122 C   0  0  0  0  0  0  0  0  0  0  0  0
    2.3735    9.4983   31.9347 C   0  0  0  0  0  0  0  0  0  0  0  0
    1.0250    9.2018   31.6082 C   0  0  0  0  0  0  0  0  0  0  0  0
    0.2749    8.1371   31.7839 N   0  0  0  0  0  0  0  0  0  0  0  0
   -0.9792    8.4128   31.2785 N   0  0  0  0  0  0  0  0  0  0  0  0
   -0.9754    9.6463   30.8059 C   0  0  0  0  0  0  0  0  0  0  0  0
   -2.1320   10.3605   30.1658 C   0  0  0  0  0  0  0  0  0  0  0  0
   -2.3153    9.9165   28.7151 C   0  0  0  0  0  0  0  0  0  0  0  0
   -3.4325   10.1349   30.9372 C   0  0  0  0  0  0  0  0  0  0  0  0
    0.2817   10.1905   30.9777 N   0  3  0  0  0  0  0  0  0  0  0  0
    0.8082   11.4319   30.6367 C   0  0  0  0  0  0  0  0  0  0  0  0
    8.6852   17.4332   37.4529 H   0  0  0  0  0  0  0  0  0  0  0  0
    8.5153   18.1580   35.8426 H   0  0  0  0  0  0  0  0  0  0  0  0
    9.3373   16.6039   36.0251 H   0  0  0  0  0  0  0  0  0  0  0  0
    6.3519   17.1151   36.5448 H   0  0  0  0  0  0  0  0  0  0  0  0
    7.1686   15.5640   36.7887 H   0  0  0  0  0  0  0  0  0  0  0  0
    7.4592   16.7094   34.1102 H   0  0  0  0  0  0  0  0  0  0  0  0
    6.4929   15.7732   32.4708 H   0  0  0  0  0  0  0  0  0  0  0  0
    4.1973   15.0752   32.0862 H   0  0  0  0  0  0  0  0  0  0  0  0
    4.4851   13.6639   33.1315 H   0  0  0  0  0  0  0  0  0  0  0  0
    7.5106   13.5330   31.7421 H   0  0  0  0  0  0  0  0  0  0  0  0
    8.2311   12.1266   29.8623 H   0  0  0  0  0  0  0  0  0  0  0  0
    6.5757   11.2496   28.2389 H   0  0  0  0  0  0  0  0  0  0  0  0
    4.1858   11.7820   28.5045 H   0  0  0  0  0  0  0  0  0  0  0  0
    3.9124   10.9247   31.8921 H   0  0  0  0  0  0  0  0  0  0  0  0
    2.9620    8.7472   32.4526 H   0  0  0  0  0  0  0  0  0  0  0  0
   -1.9468   11.4405   30.1691 H   0  0  0  0  0  0  0  0  0  0  0  0
   -3.1400   10.4668   28.2484 H   0  0  0  0  0  0  0  0  0  0  0  0
   -2.5484    8.8472   28.6499 H   0  0  0  0  0  0  0  0  0  0  0  0
   -1.4127   10.0998   28.1234 H   0  0  0  0  0  0  0  0  0  0  0  0
   -3.3299   10.4339   31.9857 H   0  0  0  0  0  0  0  0  0  0  0  0
   -3.7382    9.0830   30.9131 H   0  0  0  0  0  0  0  0  0  0  0  0
   -4.2421   10.7274   30.4962 H   0  0  0  0  0  0  0  0  0  0  0  0
    0.1430   12.1321   30.1473 H   0  0  0  0  0  0  0  0  0  0  0  0
  1  2  1  0  0  0  0
  1 27  1  0  0  0  0
  1 28  1  0  0  0  0
  1 29  1  0  0  0  0
  2  3  1  0  0  0  0
  2 30  1  0  0  0  0
  2 31  1  0  0  0  0
  3  4  1  0  0  0  0
  3 32  1  0  0  0  0
  4  5  2  0  0  0  0
  4  6  1  0  0  0  0
  6  7  1  0  0  0  0
  6 33  1  0  0  0  0
  7  8  1  0  0  0  0
  7 34  1  0  0  0  0
  7 35  1  0  0  0  0
  8  9  2  0  0  0  0
  8 13  1  0  0  0  0
  9 10  1  0  0  0  0
  9 36  1  0  0  0  0
 10 11  2  0  0  0  0
 10 37  1  0  0  0  0
 11 12  1  0  0  0  0
 11 38  1  0  0  0  0
 12 13  2  0  0  0  0
 12 39  1  0  0  0  0
 13 14  1  0  0  0  0
 14 15  1  0  0  0  0
 15 16  2  0  0  0  0
 15 26  1  0  0  0  0
 16 17  1  0  0  0  0
 16 40  1  0  0  0  0
 17 18  2  0  0  0  0
 17 41  1  0  0  0  0
 18 19  1  0  0  0  0
 18 25  1  0  0  0  0
 19 20  1  0  0  0  0
 20 21  2  0  0  0  0
 21 22  1  0  0  0  0
 21 25  1  0  0  0  0
 22 23  1  0  0  0  0
 22 24  1  0  0  0  0
 22 42  1  0  0  0  0
 23 43  1  0  0  0  0
 23 44  1  0  0  0  0
 23 45  1  0  0  0  0
 24 46  1  0  0  0  0
 24 47  1  0  0  0  0
 24 48  1  0  0  0  0
 25 26  2  0  0  0  0
 26 49  1  0  0  0  0
M  CHG  1  25   1
M  END
$$$$
