Z0M
 OpenBabel04051920333D

 53 55  0  0  1  0  0  0  0  0999 V2000
    5.2725   -2.0240   15.6935 C   0  0  0  0  0  0  0  0  0  0  0  0
    3.8283   -1.6868   16.0370 C   0  0  0  0  0  0  0  0  0  0  0  0
    3.5610   -0.1952   16.0983 C   0  0  0  0  0  0  0  0  0  0  0  0
    4.3551    0.6822   15.7922 O   0  0  0  0  0  0  0  0  0  0  0  0
    2.2875    0.1048   16.5473 N   0  0  0  0  0  0  0  0  0  0  0  0
    1.4472    1.9471   15.0512 C   0  0  1  0  0  0  0  0  0  0  0  0
    0.1132    1.5439   14.7043 O   0  0  0  0  0  0  0  0  0  0  0  0
    1.5734    3.4789   14.8932 C   0  0  2  0  0  0  0  0  0  0  0  0
    1.2526    3.8162   13.5393 O   0  0  0  0  0  0  0  0  0  0  0  0
    3.0174    3.8864   15.2822 C   0  0  1  0  0  0  0  0  0  0  0  0
    3.3048    5.3621   14.9421 C   0  0  0  0  0  0  0  0  0  0  0  0
    2.4312    6.2200   15.6708 O   0  0  0  0  0  0  0  0  0  0  0  0
    3.2120    3.5490   16.7121 N   0  3  1  0  0  0  0  0  0  0  0  0
    3.9105    4.2427   17.6801 C   0  0  0  0  0  0  0  0  0  0  0  0
    2.6575    2.4470   17.2507 C   0  0  1  0  0  0  0  0  0  0  0  0
    3.0021    2.4445   18.5498 N   0  3  0  0  0  0  0  0  0  0  0  0
    3.7728    3.5595   18.8667 C   0  0  1  0  0  0  0  0  0  0  0  0
    4.3378    3.8860   20.2015 C   0  0  0  0  0  0  0  0  0  0  0  0
    3.3583    3.7641   21.3665 C   0  0  0  0  0  0  0  0  0  0  0  0
    2.2804    4.8131   21.3419 C   0  0  0  0  0  0  0  0  0  0  0  0
    1.0868    4.5821   20.6489 C   0  0  0  0  0  0  0  0  0  0  0  0
    0.0961    5.5643   20.5972 C   0  0  0  0  0  0  0  0  0  0  0  0
    0.2879    6.7826   21.2430 C   0  0  0  0  0  0  0  0  0  0  0  0
    1.7623    1.4725   16.4923 C   0  0  2  0  0  0  0  0  0  0  0  0
    1.4680    7.0223   21.9430 C   0  0  0  0  0  0  0  0  0  0  0  0
    2.4634    6.0410   21.9864 C   0  0  0  0  0  0  0  0  0  0  0  0
    5.4214   -3.8290   15.4957 S   0  0  0  0  0  0  0  0  0  0  0  0
    5.9478   -1.7015   16.4930 H   0  0  0  0  0  0  0  0  0  0  0  0
    5.5913   -1.5362   14.7671 H   0  0  0  0  0  0  0  0  0  0  0  0
    3.5667   -2.1168   17.0123 H   0  0  0  0  0  0  0  0  0  0  0  0
    3.1499   -2.1052   15.2831 H   0  0  0  0  0  0  0  0  0  0  0  0
    1.6045   -0.6482   16.5408 H   0  0  0  0  0  0  0  0  0  0  0  0
    2.1054    1.4604   14.3213 H   0  0  0  0  0  0  0  0  0  0  0  0
   -0.0612    1.9182   13.8141 H   0  0  0  0  0  0  0  0  0  0  0  0
    0.8346    3.9726   15.5383 H   0  0  0  0  0  0  0  0  0  0  0  0
    1.1365    4.7864   13.4913 H   0  0  0  0  0  0  0  0  0  0  0  0
    3.7306    3.2792   14.7090 H   0  0  0  0  0  0  0  0  0  0  0  0
    3.1627    5.5533   13.8739 H   0  0  0  0  0  0  0  0  0  0  0  0
    4.3395    5.6212   15.1887 H   0  0  0  0  0  0  0  0  0  0  0  0
    2.6616    7.1413   15.4449 H   0  0  0  0  0  0  0  0  0  0  0  0
    4.4221    5.1531   17.4277 H   0  0  0  0  0  0  0  0  0  0  0  0
    4.7278    4.9123   20.1576 H   0  0  0  0  0  0  0  0  0  0  0  0
    5.1952    3.2244   20.3634 H   0  0  0  0  0  0  0  0  0  0  0  0
    3.9223    3.8575   22.3070 H   0  0  0  0  0  0  0  0  0  0  0  0
    2.9071    2.7632   21.3962 H   0  0  0  0  0  0  0  0  0  0  0  0
    0.9064    3.6340   20.1498 H   0  0  0  0  0  0  0  0  0  0  0  0
   -0.8295    5.3774   20.0593 H   0  0  0  0  0  0  0  0  0  0  0  0
   -0.4882    7.5445   21.2112 H   0  0  0  0  0  0  0  0  0  0  0  0
    0.8393    1.4544   17.0836 H   0  0  0  0  0  0  0  0  0  0  0  0
    1.6098    7.9685   22.4580 H   0  0  0  0  0  0  0  0  0  0  0  0
    3.3740    6.2493   22.5504 H   0  0  0  0  0  0  0  0  0  0  0  0
    6.7285   -3.8709   15.1945 H   0  0  0  0  0  0  0  0  0  0  0  0
    2.7235    1.7150   19.1970 H   0  0  0  0  0  0  0  0  0  0  0  0
  1  2  1  0  0  0  0
  1 27  1  0  0  0  0
  1 28  1  0  0  0  0
  1 29  1  0  0  0  0
  2  3  1  0  0  0  0
  2 30  1  0  0  0  0
  2 31  1  0  0  0  0
  3  4  2  0  0  0  0
  3  5  1  0  0  0  0
  5 24  1  0  0  0  0
  5 32  1  0  0  0  0
  6  7  1  0  0  0  0
  6  8  1  0  0  0  0
  6 24  1  0  0  0  0
  6 33  1  6  0  0  0
  7 34  1  0  0  0  0
  8  9  1  0  0  0  0
  8 10  1  0  0  0  0
  8 35  1  1  0  0  0
  9 36  1  0  0  0  0
 10 11  1  0  0  0  0
 10 13  1  0  0  0  0
 10 37  1  6  0  0  0
 11 12  1  0  0  0  0
 11 38  1  0  0  0  0
 11 39  1  0  0  0  0
 12 40  1  0  0  0  0
 13 14  1  1  0  0  0
 13 15  1  0  0  0  0
 14 17  1  0  0  0  0
 14 41  1  0  0  0  0
 15 16  1  1  0  0  0
 15 24  1  0  0  0  0
 16 17  1  0  0  0  0
 16 53  1  0  0  0  0
 17 18  1  6  0  0  0
 18 19  1  0  0  0  0
 18 42  1  0  0  0  0
 18 43  1  0  0  0  0
 19 20  1  0  0  0  0
 19 44  1  0  0  0  0
 19 45  1  0  0  0  0
 20 21  1  0  0  0  0
 20 26  1  0  0  0  0
 21 22  1  0  0  0  0
 21 46  1  0  0  0  0
 22 23  1  0  0  0  0
 22 47  1  0  0  0  0
 23 25  1  0  0  0  0
 23 48  1  0  0  0  0
 24 49  1  1  0  0  0
 25 26  1  0  0  0  0
 25 50  1  0  0  0  0
 26 51  1  0  0  0  0
 27 52  1  0  0  0  0
M  CHG  2  13   1  16   1
M  END
$$$$
