ZED
 OpenBabel04051917473D

 39 40  0  0  1  0  0  0  0  0999 V2000
   70.9145   50.9188   21.6781 C   0  0  0  0  0  0  0  0  0  0  0  0
   69.5762   50.6448   21.9641 C   0  0  0  0  0  0  0  0  0  0  0  0
   69.2469   49.4779   22.6608 C   0  0  0  0  0  0  0  0  0  0  0  0
   70.2494   48.5824   23.0493 C   0  0  0  0  0  0  0  0  0  0  0  0
   71.5823   48.8587   22.7555 C   0  0  0  0  0  0  0  0  0  0  0  0
   71.9160   50.0285   22.0734 C   0  0  0  0  0  0  0  0  0  0  0  0
   66.2234   49.9025   19.5842 C   0  0  2  0  0  0  0  0  0  0  0  0
   65.8876   49.3987   21.0289 C   0  0  0  0  0  0  0  0  0  0  0  0
   67.7383   49.9401   19.3818 C   0  0  0  0  0  0  0  0  0  0  0  0
   68.1253   51.3911   19.6920 C   0  0  1  0  0  0  0  0  0  0  0  0
   66.9369   52.1568   19.0880 C   0  0  0  0  0  0  0  0  0  0  0  0
   62.6652   53.2803   19.3400 C   0  0  0  0  0  0  0  0  0  0  0  0
   64.0239   52.9530   18.7155 C   0  0  1  0  0  0  0  0  0  0  0  0
   64.4450   51.5254   19.0762 C   0  0  0  0  0  0  0  0  0  0  0  0
   64.0163   53.1688   17.1947 C   0  0  0  0  0  0  0  0  0  0  0  0
   66.2586   48.2063   21.2610 O   0  0  0  0  0  0  0  0  0  0  0  0
   65.3439   50.2226   21.8165 O   0  0  0  0  0  0  0  0  0  0  0  0
   63.5978   50.6420   19.1520 O   0  0  0  0  0  0  0  0  0  0  0  0
   65.7908   51.2633   19.2041 N   0  0  0  0  0  0  0  0  0  0  0  0
   68.3172   51.8058   21.4774 S   0  0  0  0  0  0  0  0  0  0  0  0
   62.9569   52.0329   16.2288 S   0  0  0  0  0  0  0  0  0  0  0  0
   71.1848   51.8302   21.1572 H   0  0  0  0  0  0  0  0  0  0  0  0
   68.2050   49.2456   22.8887 H   0  0  0  0  0  0  0  0  0  0  0  0
   69.9743   47.6709   23.5703 H   0  0  0  0  0  0  0  0  0  0  0  0
   72.3582   48.1624   23.0579 H   0  0  0  0  0  0  0  0  0  0  0  0
   72.9554   50.2499   21.8475 H   0  0  0  0  0  0  0  0  0  0  0  0
   65.7616   49.1915   18.8873 H   0  0  0  0  0  0  0  0  0  0  0  0
   67.9498   49.7563   18.3187 H   0  0  0  0  0  0  0  0  0  0  0  0
   68.3003   49.1907   19.9434 H   0  0  0  0  0  0  0  0  0  0  0  0
   69.0616   51.6739   19.1965 H   0  0  0  0  0  0  0  0  0  0  0  0
   67.1013   52.3030   18.0156 H   0  0  0  0  0  0  0  0  0  0  0  0
   66.7529   53.1388   19.5375 H   0  0  0  0  0  0  0  0  0  0  0  0
   62.3647   54.3041   19.0967 H   0  0  0  0  0  0  0  0  0  0  0  0
   62.7176   53.1947   20.4310 H   0  0  0  0  0  0  0  0  0  0  0  0
   61.8764   52.6033   18.9986 H   0  0  0  0  0  0  0  0  0  0  0  0
   64.7350   53.6592   19.1541 H   0  0  0  0  0  0  0  0  0  0  0  0
   65.0313   53.1017   16.7930 H   0  0  0  0  0  0  0  0  0  0  0  0
   63.6537   54.1803   16.9780 H   0  0  0  0  0  0  0  0  0  0  0  0
   63.2337   52.5225   15.0158 H   0  0  0  0  0  0  0  0  0  0  0  0
  1  2  2  0  0  0  0
  1  6  1  0  0  0  0
  1 22  1  0  0  0  0
  2  3  1  0  0  0  0
  2 20  1  0  0  0  0
  3  4  2  0  0  0  0
  3 23  1  0  0  0  0
  4  5  1  0  0  0  0
  4 24  1  0  0  0  0
  5  6  2  0  0  0  0
  5 25  1  0  0  0  0
  6 26  1  0  0  0  0
  7  8  1  0  0  0  0
  7  9  1  0  0  0  0
  7 19  1  0  0  0  0
  7 27  1  6  0  0  0
  8 16  2  0  0  0  0
  8 17  1  0  0  0  0
  9 10  1  0  0  0  0
  9 28  1  0  0  0  0
  9 29  1  0  0  0  0
 10 11  1  0  0  0  0
 10 20  1  0  0  0  0
 10 30  1  6  0  0  0
 11 19  1  0  0  0  0
 11 31  1  0  0  0  0
 11 32  1  0  0  0  0
 12 13  1  0  0  0  0
 12 33  1  0  0  0  0
 12 34  1  0  0  0  0
 12 35  1  0  0  0  0
 13 14  1  0  0  0  0
 13 15  1  0  0  0  0
 13 36  1  1  0  0  0
 14 18  2  0  0  0  0
 14 19  1  0  0  0  0
 15 21  1  0  0  0  0
 15 37  1  0  0  0  0
 15 38  1  0  0  0  0
 21 39  1  0  0  0  0
M  END
$$$$
