ZIP
 OpenBabel04051917483D

 28 29  0  0  0  0  0  0  0  0999 V2000
   98.5649   97.0459   80.8857 C   0  0  0  0  0  0  0  0  0  0  0  0
   99.1629   98.4300   81.0183 C   0  0  0  0  0  0  0  0  0  0  0  0
   98.4402   99.2763   82.0466 C   0  0  0  0  0  0  0  0  0  0  0  0
   99.8073   99.0391   79.9950 C   0  0  0  0  0  0  0  0  0  0  0  0
  101.2556   98.9171   79.4986 C   0  0  0  0  0  0  0  0  0  0  0  0
  102.3387   99.2898   80.4353 N   0  0  0  0  0  0  0  0  0  0  0  0
  103.3890  100.1596   80.0864 C   0  0  0  0  0  0  0  0  0  0  0  0
  104.6956  100.2264   80.7006 C   0  0  0  0  0  0  0  0  0  0  0  0
  105.3262   99.4804   81.6851 N   0  0  0  0  0  0  0  0  0  0  0  0
  105.5636  101.2268   80.2596 C   0  0  0  0  0  0  0  0  0  0  0  0
  106.7494  101.0682   80.9759 N   0  3  0  0  0  0  0  0  0  0  0  0
  106.5141  100.0282   81.8498 C   0  0  0  0  0  0  0  0  0  0  0  0
  105.3055  102.1639   79.3110 N   0  0  0  0  0  0  0  0  0  0  0  0
  104.0650  102.0033   78.7661 C   0  0  0  0  0  0  0  0  0  0  0  0
  103.1409  101.0783   79.1061 N   0  0  0  0  0  0  0  0  0  0  0  0
   98.0719   96.7471   81.8235 H   0  0  0  0  0  0  0  0  0  0  0  0
   99.3463   96.3173   80.6618 H   0  0  0  0  0  0  0  0  0  0  0  0
   97.8062   97.0151   80.0897 H   0  0  0  0  0  0  0  0  0  0  0  0
   98.8967  100.2725   82.1114 H   0  0  0  0  0  0  0  0  0  0  0  0
   98.5349   98.8021   83.0355 H   0  0  0  0  0  0  0  0  0  0  0  0
   97.3772   99.3838   81.8111 H   0  0  0  0  0  0  0  0  0  0  0  0
   99.1709   99.6565   79.3436 H   0  0  0  0  0  0  0  0  0  0  0  0
  101.3193   99.5725   78.6245 H   0  0  0  0  0  0  0  0  0  0  0  0
  101.4029   97.8835   79.1800 H   0  0  0  0  0  0  0  0  0  0  0  0
  102.4167   98.7956   81.3095 H   0  0  0  0  0  0  0  0  0  0  0  0
  107.5722  101.6043   80.8843 H   0  0  0  0  0  0  0  0  0  0  0  0
  107.2340   99.7104   82.5904 H   0  0  0  0  0  0  0  0  0  0  0  0
  103.7765  102.6718   77.9628 H   0  0  0  0  0  0  0  0  0  0  0  0
  1  2  1  0  0  0  0
  1 16  1  0  0  0  0
  1 17  1  0  0  0  0
  1 18  1  0  0  0  0
  2  3  1  0  0  0  0
  2  4  2  0  0  0  0
  3 19  1  0  0  0  0
  3 20  1  0  0  0  0
  3 21  1  0  0  0  0
  4  5  1  0  0  0  0
  4 22  1  0  0  0  0
  5  6  1  0  0  0  0
  5 23  1  0  0  0  0
  5 24  1  0  0  0  0
  6  7  1  0  0  0  0
  6 25  1  0  0  0  0
  7  8  2  0  0  0  0
  7 15  1  0  0  0  0
  8  9  1  0  0  0  0
  8 10  1  0  0  0  0
  9 12  1  0  0  0  0
 10 11  1  0  0  0  0
 10 13  2  0  0  0  0
 11 12  2  0  0  0  0
 11 26  1  0  0  0  0
 12 27  1  0  0  0  0
 13 14  1  0  0  0  0
 14 15  2  0  0  0  0
 14 28  1  0  0  0  0
M  CHG  1  11   1
M  END
$$$$
