ZOL
 OpenBabel04051917433D

 22 22  0  0  0  0  0  0  0  0999 V2000
   29.2064   43.4232    4.9951 O   0  0  0  0  0  0  0  0  0  0  0  0
   29.5970   44.8381    4.5765 P   0  0  0  0  0  0  0  0  0  0  0  0
   29.2351   45.3302    3.1776 O   0  0  0  0  0  0  0  0  0  0  0  0
   31.0743   45.1111    4.8906 O   0  0  0  0  0  0  0  0  0  0  0  0
   28.6070   46.0994    5.8122 C   0  0  0  0  0  0  0  0  0  0  0  0
   26.6377   45.7538    5.6645 P   0  0  0  0  0  0  0  0  0  0  0  0
   26.4051   44.3936    6.3521 O   0  0  0  0  0  0  0  0  0  0  0  0
   25.9926   46.8879    6.4767 O   0  0  0  0  0  0  0  0  0  0  0  0
   26.2698   45.8776    4.1914 O   0  0  0  0  0  0  0  0  0  0  0  0
   28.9540   47.4534    5.3809 O   0  0  0  0  0  0  0  0  0  0  0  0
   29.0705   45.8406    7.2584 C   0  0  0  0  0  0  0  0  0  0  0  0
   28.4692   46.7136    8.2562 N   0  3  0  0  0  0  0  0  0  0  0  0
   28.3554   48.0812    8.2489 C   0  0  0  0  0  0  0  0  0  0  0  0
   27.8739   48.5812    9.3492 N   0  0  0  0  0  0  0  0  0  0  0  0
   27.5168   47.4627   10.0604 C   0  0  0  0  0  0  0  0  0  0  0  0
   27.9426   46.3219    9.4513 C   0  0  0  0  0  0  0  0  0  0  0  0
   28.5623   47.4152    4.4929 H   0  0  0  0  0  0  0  0  0  0  0  0
   30.1388   46.0227    7.3319 H   0  0  0  0  0  0  0  0  0  0  0  0
   28.8866   44.8010    7.5417 H   0  0  0  0  0  0  0  0  0  0  0  0
   28.6833   48.6445    7.3788 H   0  0  0  0  0  0  0  0  0  0  0  0
   26.9608   47.5654   10.9618 H   0  0  0  0  0  0  0  0  0  0  0  0
   27.8449   45.2574    9.7103 H   0  0  0  0  0  0  0  0  0  0  0  0
  1  2  2  0  0  0  0
  2  3  1  0  0  0  0
  2  4  1  0  0  0  0
  2  5  1  0  0  0  0
  5  6  1  0  0  0  0
  5 10  1  0  0  0  0
  5 11  1  0  0  0  0
  6  7  2  0  0  0  0
  6  8  1  0  0  0  0
  6  9  1  0  0  0  0
 10 17  1  0  0  0  0
 11 12  1  0  0  0  0
 11 18  1  0  0  0  0
 11 19  1  0  0  0  0
 12 13  2  0  0  0  0
 12 16  1  0  0  0  0
 13 14  1  0  0  0  0
 13 20  1  0  0  0  0
 14 15  1  0  0  0  0
 15 16  2  0  0  0  0
 15 21  1  0  0  0  0
 16 22  1  0  0  0  0
M  CHG  1  12   1
M  END
$$$$
