ZOL
 OpenBabel04051917563D

 22 22  0  0  0  0  0  0  0  0999 V2000
   16.5715   75.5044   23.9069 O   0  0  0  0  0  0  0  0  0  0  0  0
   15.2287   75.3907   24.6245 P   0  0  0  0  0  0  0  0  0  0  0  0
   14.9799   74.1496   25.4838 O   0  0  0  0  0  0  0  0  0  0  0  0
   14.0614   75.6122   23.6267 O   0  0  0  0  0  0  0  0  0  0  0  0
   15.0459   77.0336   25.9043 C   0  0  0  0  0  0  0  0  0  0  0  0
   16.4447   77.1768   27.3187 P   0  0  0  0  0  0  0  0  0  0  0  0
   16.0487   78.4493   28.1221 O   0  0  0  0  0  0  0  0  0  0  0  0
   16.3005   75.9346   28.1937 O   0  0  0  0  0  0  0  0  0  0  0  0
   17.7986   77.3854   26.6273 O   0  0  0  0  0  0  0  0  0  0  0  0
   13.7607   76.7898   26.5818 O   0  0  0  0  0  0  0  0  0  0  0  0
   14.9900   78.2411   24.9856 C   0  0  0  0  0  0  0  0  0  0  0  0
   14.7136   79.5377   25.6046 N   0  3  0  0  0  0  0  0  0  0  0  0
   13.5903   79.9103   26.3292 C   0  0  0  0  0  0  0  0  0  0  0  0
   13.6070   81.1995   26.6093 N   0  0  0  0  0  0  0  0  0  0  0  0
   14.8294   81.6429   26.1575 C   0  0  0  0  0  0  0  0  0  0  0  0
   15.4837   80.6600   25.4526 C   0  0  0  0  0  0  0  0  0  0  0  0
   14.0240   75.9463   27.0172 H   0  0  0  0  0  0  0  0  0  0  0  0
   14.1956   78.1302   24.2363 H   0  0  0  0  0  0  0  0  0  0  0  0
   15.9351   78.3398   24.4440 H   0  0  0  0  0  0  0  0  0  0  0  0
   12.8454   79.1843   26.6065 H   0  0  0  0  0  0  0  0  0  0  0  0
   15.1858   82.6344   26.3557 H   0  0  0  0  0  0  0  0  0  0  0  0
   16.4412   80.6105   24.9598 H   0  0  0  0  0  0  0  0  0  0  0  0
  1  2  2  0  0  0  0
  2  3  1  0  0  0  0
  2  4  1  0  0  0  0
  2  5  1  0  0  0  0
  5  6  1  0  0  0  0
  5 10  1  0  0  0  0
  5 11  1  0  0  0  0
  6  7  2  0  0  0  0
  6  8  1  0  0  0  0
  6  9  1  0  0  0  0
 10 17  1  0  0  0  0
 11 12  1  0  0  0  0
 11 18  1  0  0  0  0
 11 19  1  0  0  0  0
 12 13  2  0  0  0  0
 12 16  1  0  0  0  0
 13 14  1  0  0  0  0
 13 20  1  0  0  0  0
 14 15  1  0  0  0  0
 15 16  2  0  0  0  0
 15 21  1  0  0  0  0
 16 22  1  0  0  0  0
M  CHG  1  12   1
M  END
$$$$
