ZPQ
 OpenBabel04051918023D

 99 99  0  0  1  0  0  0  0  0999 V2000
    2.0134   -5.5609   34.5161 C   0  0  0  0  0  0  0  0  0  0  0  0
    2.8752   -4.4668   34.2007 C   0  0  0  0  0  0  0  0  0  0  0  0
    3.0765   -4.4042   32.8645 N   0  0  0  0  0  0  0  0  0  0  0  0
    2.3209   -5.4444   32.3099 N   0  3  0  0  0  0  0  0  0  0  0  0
    1.6919   -6.1667   33.3200 C   0  0  0  0  0  0  0  0  0  0  0  0
    3.5023   -3.4922   35.2251 C   0  0  0  0  0  0  0  0  0  0  0  0
    2.2463   -5.7862   30.8370 C   0  0  0  0  0  0  0  0  0  0  0  0
    0.8896   -5.6842   30.2959 O   0  0  0  0  0  0  0  0  0  0  0  0
    0.3918   -4.4191   30.1639 C   0  0  0  0  0  0  0  0  0  0  0  0
    0.8171   -7.3626   33.1666 C   0  0  0  0  0  0  0  0  0  0  0  0
    1.0005   -3.4049   30.3087 O   0  0  0  0  0  0  0  0  0  0  0  0
   -0.9258   -4.4755   29.8130 N   0  0  0  0  0  0  0  0  0  0  0  0
   -1.8133   -3.3302   29.5822 C   0  0  1  0  0  0  0  0  0  0  0  0
   -2.0578   -3.1572   28.0923 C   0  0  0  0  0  0  0  0  0  0  0  0
   -0.9014   -2.0724   27.2797 S   0  0  0  0  0  0  0  0  0  0  0  0
   -1.5093   -1.6862   26.0042 O   0  0  0  0  0  0  0  0  0  0  0  0
   -0.4836   -1.0376   28.1759 O   0  0  0  0  0  0  0  0  0  0  0  0
    0.4680   -3.1843   26.9102 C   0  0  0  0  0  0  0  0  0  0  0  0
   -3.1259   -3.7836   30.2544 C   0  0  0  0  0  0  0  0  0  0  0  0
   -4.1411   -4.0196   29.6060 O   0  0  0  0  0  0  0  0  0  0  0  0
   -3.0528   -3.9924   31.6237 N   0  0  0  0  0  0  0  0  0  0  0  0
   -4.2153   -4.4938   32.3727 C   0  0  2  0  0  0  0  0  0  0  0  0
   -4.9741   -3.3909   33.1666 C   0  0  2  0  0  0  0  0  0  0  0  0
   -3.7945   -5.6655   33.2864 C   0  0  0  0  0  0  0  0  0  0  0  0
   -3.2660   -6.8964   32.5121 C   0  0  0  0  0  0  0  0  0  0  0  0
   -4.3204   -7.5016   31.5842 C   0  0  0  0  0  0  0  0  0  0  0  0
   -2.8082   -7.9763   33.4936 C   0  0  0  0  0  0  0  0  0  0  0  0
   -5.3597   -2.1989   32.2827 C   0  0  0  0  0  0  0  0  0  0  0  0
   -6.6652   -1.5420   32.7574 C   0  0  1  0  0  0  0  0  0  0  0  0
   -6.7290   -0.1087   32.2447 C   0  0  0  0  0  0  0  0  0  0  0  0
   -7.8735   -2.3015   32.2124 C   0  0  0  0  0  0  0  0  0  0  0  0
   -4.1620   -2.8824   34.2345 O   0  0  0  0  0  0  0  0  0  0  0  0
   -7.9093   -2.7747   31.0761 O   0  0  0  0  0  0  0  0  0  0  0  0
   -8.9310   -2.4231   33.0820 N   0  0  0  0  0  0  0  0  0  0  0  0
  -10.1764   -3.0810   32.6518 C   0  0  1  0  0  0  0  0  0  0  0  0
  -11.0665   -3.4557   33.8597 C   0  0  0  0  0  0  0  0  0  0  0  0
  -12.2311   -4.3541   33.4373 C   0  0  0  0  0  0  0  0  0  0  0  0
  -11.6195   -2.2163   34.5557 C   0  0  0  0  0  0  0  0  0  0  0  0
  -10.8781   -2.1487   31.6270 C   0  0  0  0  0  0  0  0  0  0  0  0
  -10.7944   -0.9100   31.7227 O   0  0  0  0  0  0  0  0  0  0  0  0
  -11.6263   -2.7673   30.6486 N   0  0  0  0  0  0  0  0  0  0  0  0
  -12.3374   -2.0355   29.5926 C   0  0  0  0  0  0  0  0  0  0  0  0
  -11.6909   -2.1762   28.1991 C   0  0  0  0  0  0  0  0  0  0  0  0
  -10.3205   -1.5096   28.1517 C   0  0  0  0  0  0  0  0  0  0  0  0
  -11.5332   -3.6428   27.8159 C   0  0  0  0  0  0  0  0  0  0  0  0
    1.6330   -5.9240   35.4763 H   0  0  0  0  0  0  0  0  0  0  0  0
    4.1228   -2.7428   34.7143 H   0  0  0  0  0  0  0  0  0  0  0  0
    4.1514   -4.0084   35.9650 H   0  0  0  0  0  0  0  0  0  0  0  0
    2.7386   -2.9412   35.8154 H   0  0  0  0  0  0  0  0  0  0  0  0
    2.5485   -6.8480   30.7162 H   0  0  0  0  0  0  0  0  0  0  0  0
    2.9287   -5.1678   30.2332 H   0  0  0  0  0  0  0  0  0  0  0  0
    0.4585   -7.6921   34.1590 H   0  0  0  0  0  0  0  0  0  0  0  0
    1.3626   -8.1998   32.7200 H   0  0  0  0  0  0  0  0  0  0  0  0
   -0.0627   -7.1327   32.5583 H   0  0  0  0  0  0  0  0  0  0  0  0
   -1.3383   -5.3844   29.6943 H   0  0  0  0  0  0  0  0  0  0  0  0
   -1.4736   -2.4097   30.0697 H   0  0  0  0  0  0  0  0  0  0  0  0
   -3.0483   -2.7342   27.9016 H   0  0  0  0  0  0  0  0  0  0  0  0
   -1.9932   -4.1327   27.5948 H   0  0  0  0  0  0  0  0  0  0  0  0
    1.2585   -2.6350   26.3963 H   0  0  0  0  0  0  0  0  0  0  0  0
    0.1159   -4.0055   26.2784 H   0  0  0  0  0  0  0  0  0  0  0  0
    0.8571   -3.5889   27.8410 H   0  0  0  0  0  0  0  0  0  0  0  0
   -2.1848   -3.7847   32.1056 H   0  0  0  0  0  0  0  0  0  0  0  0
   -4.9359   -4.8681   31.6428 H   0  0  0  0  0  0  0  0  0  0  0  0
   -5.8823   -3.8292   33.6109 H   0  0  0  0  0  0  0  0  0  0  0  0
   -4.6580   -5.9730   33.8965 H   0  0  0  0  0  0  0  0  0  0  0  0
   -3.0079   -5.3215   33.9759 H   0  0  0  0  0  0  0  0  0  0  0  0
   -2.4061   -6.5892   31.9044 H   0  0  0  0  0  0  0  0  0  0  0  0
   -3.9111   -8.3661   31.0447 H   0  0  0  0  0  0  0  0  0  0  0  0
   -4.6520   -6.7704   30.8418 H   0  0  0  0  0  0  0  0  0  0  0  0
   -5.1925   -7.8360   32.1593 H   0  0  0  0  0  0  0  0  0  0  0  0
   -2.0478   -7.5782   34.1736 H   0  0  0  0  0  0  0  0  0  0  0  0
   -2.3792   -8.8314   32.9545 H   0  0  0  0  0  0  0  0  0  0  0  0
   -3.6557   -8.3345   34.0909 H   0  0  0  0  0  0  0  0  0  0  0  0
   -5.4851   -2.5371   31.2509 H   0  0  0  0  0  0  0  0  0  0  0  0
   -4.5523   -1.4553   32.3104 H   0  0  0  0  0  0  0  0  0  0  0  0
   -6.6939   -1.5397   33.8526 H   0  0  0  0  0  0  0  0  0  0  0  0
   -7.6563    0.3728   32.5714 H   0  0  0  0  0  0  0  0  0  0  0  0
   -6.6957   -0.0919   31.1474 H   0  0  0  0  0  0  0  0  0  0  0  0
   -5.8791    0.4705   32.6259 H   0  0  0  0  0  0  0  0  0  0  0  0
   -3.9093   -3.6178   34.8122 H   0  0  0  0  0  0  0  0  0  0  0  0
   -8.8716   -1.9956   33.9927 H   0  0  0  0  0  0  0  0  0  0  0  0
   -9.8989   -4.0079   32.1385 H   0  0  0  0  0  0  0  0  0  0  0  0
  -10.4566   -4.0110   34.5893 H   0  0  0  0  0  0  0  0  0  0  0  0
  -12.8548   -4.6172   34.3012 H   0  0  0  0  0  0  0  0  0  0  0  0
  -11.8569   -5.2798   32.9855 H   0  0  0  0  0  0  0  0  0  0  0  0
  -12.8659   -3.8411   32.7065 H   0  0  0  0  0  0  0  0  0  0  0  0
  -10.8026   -1.5632   34.8764 H   0  0  0  0  0  0  0  0  0  0  0  0
  -12.2061   -2.4992   35.4368 H   0  0  0  0  0  0  0  0  0  0  0  0
  -12.2684   -1.6586   33.8723 H   0  0  0  0  0  0  0  0  0  0  0  0
  -11.6368   -3.7797   30.6274 H   0  0  0  0  0  0  0  0  0  0  0  0
  -12.3857   -0.9757   29.8666 H   0  0  0  0  0  0  0  0  0  0  0  0
  -13.3652   -2.4240   29.5543 H   0  0  0  0  0  0  0  0  0  0  0  0
  -12.3373   -1.6900   27.4515 H   0  0  0  0  0  0  0  0  0  0  0  0
   -9.8724   -1.6182   27.1557 H   0  0  0  0  0  0  0  0  0  0  0  0
   -9.6498   -1.9744   28.8825 H   0  0  0  0  0  0  0  0  0  0  0  0
  -10.4081   -0.4431   28.3812 H   0  0  0  0  0  0  0  0  0  0  0  0
  -12.5049   -4.1450   27.8323 H   0  0  0  0  0  0  0  0  0  0  0  0
  -10.8629   -4.1447   28.5227 H   0  0  0  0  0  0  0  0  0  0  0  0
  -11.1039   -3.7343   26.8112 H   0  0  0  0  0  0  0  0  0  0  0  0
  1  2  2  0  0  0  0
  1  5  1  0  0  0  0
  1 46  1  0  0  0  0
  2  3  1  0  0  0  0
  2  6  1  0  0  0  0
  3  4  1  0  0  0  0
  4  5  2  0  0  0  0
  4  7  1  0  0  0  0
  5 10  1  0  0  0  0
  6 47  1  0  0  0  0
  6 48  1  0  0  0  0
  6 49  1  0  0  0  0
  7  8  1  0  0  0  0
  7 50  1  0  0  0  0
  7 51  1  0  0  0  0
  8  9  1  0  0  0  0
  9 11  2  0  0  0  0
  9 12  1  0  0  0  0
 10 52  1  0  0  0  0
 10 53  1  0  0  0  0
 10 54  1  0  0  0  0
 12 13  1  0  0  0  0
 12 55  1  0  0  0  0
 13 14  1  0  0  0  0
 13 19  1  0  0  0  0
 13 56  1  1  0  0  0
 14 15  1  0  0  0  0
 14 57  1  0  0  0  0
 14 58  1  0  0  0  0
 15 16  2  0  0  0  0
 15 17  2  0  0  0  0
 15 18  1  0  0  0  0
 18 59  1  0  0  0  0
 18 60  1  0  0  0  0
 18 61  1  0  0  0  0
 19 20  2  0  0  0  0
 19 21  1  0  0  0  0
 21 22  1  0  0  0  0
 21 62  1  0  0  0  0
 22 23  1  0  0  0  0
 22 24  1  0  0  0  0
 22 63  1  6  0  0  0
 23 28  1  0  0  0  0
 23 32  1  0  0  0  0
 23 64  1  1  0  0  0
 24 25  1  0  0  0  0
 24 65  1  0  0  0  0
 24 66  1  0  0  0  0
 25 26  1  0  0  0  0
 25 27  1  0  0  0  0
 25 67  1  0  0  0  0
 26 68  1  0  0  0  0
 26 69  1  0  0  0  0
 26 70  1  0  0  0  0
 27 71  1  0  0  0  0
 27 72  1  0  0  0  0
 27 73  1  0  0  0  0
 28 29  1  0  0  0  0
 28 74  1  0  0  0  0
 28 75  1  0  0  0  0
 29 30  1  0  0  0  0
 29 31  1  0  0  0  0
 29 76  1  1  0  0  0
 30 77  1  0  0  0  0
 30 78  1  0  0  0  0
 30 79  1  0  0  0  0
 31 33  2  0  0  0  0
 31 34  1  0  0  0  0
 32 80  1  0  0  0  0
 34 35  1  0  0  0  0
 34 81  1  0  0  0  0
 35 36  1  0  0  0  0
 35 39  1  0  0  0  0
 35 82  1  6  0  0  0
 36 37  1  0  0  0  0
 36 38  1  0  0  0  0
 36 83  1  0  0  0  0
 37 84  1  0  0  0  0
 37 85  1  0  0  0  0
 37 86  1  0  0  0  0
 38 87  1  0  0  0  0
 38 88  1  0  0  0  0
 38 89  1  0  0  0  0
 39 40  2  0  0  0  0
 39 41  1  0  0  0  0
 41 42  1  0  0  0  0
 41 90  1  0  0  0  0
 42 43  1  0  0  0  0
 42 91  1  0  0  0  0
 42 92  1  0  0  0  0
 43 44  1  0  0  0  0
 43 45  1  0  0  0  0
 43 93  1  0  0  0  0
 44 94  1  0  0  0  0
 44 95  1  0  0  0  0
 44 96  1  0  0  0  0
 45 97  1  0  0  0  0
 45 98  1  0  0  0  0
 45 99  1  0  0  0  0
M  CHG  1   4   1
M  END
$$$$
