ZWZ
 OpenBabel04051920573D

 29 29  0  0  1  0  0  0  0  0999 V2000
   -3.1164   26.0579   24.5209 O   0  0  0  0  0  0  0  0  0  0  0  0
   -1.7768   26.4655   24.4877 C   0  0  1  0  0  0  0  0  0  0  0  0
   -1.5700   27.6705   23.5646 C   0  0  2  0  0  0  0  0  0  0  0  0
   -2.0400   27.3547   22.2576 O   0  0  0  0  0  0  0  0  0  0  0  0
   -0.0820   28.0178   23.5004 C   0  0  2  0  0  0  0  0  0  0  0  0
    0.6182   26.8694   22.9535 O   0  0  0  0  0  0  0  0  0  0  0  0
    0.4466   28.3459   24.9120 C   0  0  2  0  0  0  0  0  0  0  0  0
    1.9185   28.5891   24.9387 C   0  0  0  0  0  0  0  0  0  0  0  0
    0.1469   27.2061   25.8419 N   0  3  0  0  0  0  0  0  0  0  0  0
   -1.3223   26.8746   25.9023 C   0  0  2  0  0  0  0  0  0  0  0  0
   -1.5317   25.7533   26.9207 C   0  0  0  0  0  0  0  0  0  0  0  0
   -1.5223   26.2808   28.2754 N   0  0  0  0  0  0  0  0  0  0  0  0
   -3.3647   25.8150   23.5997 H   0  0  0  0  0  0  0  0  0  0  0  0
   -1.1555   25.6295   24.1579 H   0  0  0  0  0  0  0  0  0  0  0  0
   -2.1430   28.5382   23.9248 H   0  0  0  0  0  0  0  0  0  0  0  0
   -1.5635   26.5824   21.9055 H   0  0  0  0  0  0  0  0  0  0  0  0
    0.0947   28.8813   22.8550 H   0  0  0  0  0  0  0  0  0  0  0  0
    0.2870   26.7402   22.0423 H   0  0  0  0  0  0  0  0  0  0  0  0
   -0.0943   29.2072   25.3225 H   0  0  0  0  0  0  0  0  0  0  0  0
    2.2678   28.7909   25.9587 H   0  0  0  0  0  0  0  0  0  0  0  0
    2.1587   29.4462   24.3141 H   0  0  0  0  0  0  0  0  0  0  0  0
    2.4809   27.7190   24.5602 H   0  0  0  0  0  0  0  0  0  0  0  0
    0.6591   26.3613   25.5176 H   0  0  0  0  0  0  0  0  0  0  0  0
   -1.8435   27.7894   26.2387 H   0  0  0  0  0  0  0  0  0  0  0  0
   -0.7305   25.0112   26.8284 H   0  0  0  0  0  0  0  0  0  0  0  0
   -2.4855   25.2604   26.7307 H   0  0  0  0  0  0  0  0  0  0  0  0
   -1.6914   25.5251   28.9479 H   0  0  0  0  0  0  0  0  0  0  0  0
   -0.6499   26.7165   28.5374 H   0  0  0  0  0  0  0  0  0  0  0  0
    0.4870   27.4185   26.7863 H   0  0  0  0  0  0  0  0  0  0  0  0
  1  2  1  0  0  0  0
  1 13  1  0  0  0  0
  2  3  1  0  0  0  0
  2 10  1  0  0  0  0
  2 14  1  6  0  0  0
  3  4  1  0  0  0  0
  3  5  1  0  0  0  0
  3 15  1  1  0  0  0
  4 16  1  0  0  0  0
  5  6  1  0  0  0  0
  5  7  1  0  0  0  0
  5 17  1  6  0  0  0
  6 18  1  0  0  0  0
  7  8  1  0  0  0  0
  7  9  1  0  0  0  0
  7 19  1  1  0  0  0
  8 20  1  0  0  0  0
  8 21  1  0  0  0  0
  8 22  1  0  0  0  0
  9 10  1  0  0  0  0
  9 23  1  0  0  0  0
  9 29  1  0  0  0  0
 10 11  1  0  0  0  0
 10 24  1  1  0  0  0
 11 12  1  0  0  0  0
 11 25  1  0  0  0  0
 11 26  1  0  0  0  0
 12 27  1  0  0  0  0
 12 28  1  0  0  0  0
M  CHG  1   9   1
M  END
$$$$
