ZX8
 OpenBabel04051921053D

 44 46  0  0  1  0  0  0  0  0999 V2000
   -1.0698   27.1430   30.9667 C   0  0  0  0  0  0  0  0  0  0  0  0
   -0.2125   27.4268   32.0542 C   0  0  0  0  0  0  0  0  0  0  0  0
    0.0872   28.5721   32.8022 C   0  0  0  0  0  0  0  0  0  0  0  0
    1.0701   28.4783   33.7954 C   0  0  0  0  0  0  0  0  0  0  0  0
    1.7038   27.2633   34.0640 C   0  0  0  0  0  0  0  0  0  0  0  0
    1.3970   26.1020   33.3448 C   0  0  0  0  0  0  0  0  0  0  0  0
    0.4556   26.2393   32.3285 C   0  0  0  0  0  0  0  0  0  0  0  0
    0.0962   25.2776   31.4309 O   0  0  0  0  0  0  0  0  0  0  0  0
   -0.7618   25.8618   30.5394 C   0  0  0  0  0  0  0  0  0  0  0  0
   -1.0656   25.1783   29.2993 C   0  0  0  0  0  0  0  0  0  0  0  0
   -1.0875   23.9646   29.1309 O   0  0  0  0  0  0  0  0  0  0  0  0
   -1.2440   26.0654   28.2368 N   0  0  0  0  0  0  0  0  0  0  0  0
   -1.6384   25.5974   26.9181 C   0  0  0  0  0  0  0  0  0  0  0  0
   -1.4502   26.7190   25.8867 C   0  0  1  0  0  0  0  0  0  0  0  0
   -0.0029   27.1605   25.8488 N   0  3  0  0  0  0  0  0  0  0  0  0
    0.2385   28.3630   24.9627 C   0  0  1  0  0  0  0  0  0  0  0  0
    1.7233   28.6935   25.0069 C   0  0  0  0  0  0  0  0  0  0  0  0
   -0.2472   28.0175   23.5364 C   0  0  1  0  0  0  0  0  0  0  0  0
    0.5509   26.9372   23.0302 O   0  0  0  0  0  0  0  0  0  0  0  0
   -1.7122   27.5593   23.5451 C   0  0  1  0  0  0  0  0  0  0  0  0
   -2.0915   27.1729   22.2192 O   0  0  0  0  0  0  0  0  0  0  0  0
   -1.8962   26.3393   24.4682 C   0  0  2  0  0  0  0  0  0  0  0  0
   -3.2669   25.9559   24.4728 O   0  0  0  0  0  0  0  0  0  0  0  0
   -1.7445   27.8399   30.4940 H   0  0  0  0  0  0  0  0  0  0  0  0
   -0.3982   29.5213   32.5961 H   0  0  0  0  0  0  0  0  0  0  0  0
    1.3489   29.3692   34.3542 H   0  0  0  0  0  0  0  0  0  0  0  0
    2.4619   27.2206   34.8459 H   0  0  0  0  0  0  0  0  0  0  0  0
    1.8900   25.1564   33.5403 H   0  0  0  0  0  0  0  0  0  0  0  0
   -1.4752   27.0105   28.5112 H   0  0  0  0  0  0  0  0  0  0  0  0
   -2.6850   25.2874   26.9834 H   0  0  0  0  0  0  0  0  0  0  0  0
   -1.0360   24.7193   26.6612 H   0  0  0  0  0  0  0  0  0  0  0  0
   -2.0203   27.5927   26.2336 H   0  0  0  0  0  0  0  0  0  0  0  0
    0.3420   27.3173   26.8119 H   0  0  0  0  0  0  0  0  0  0  0  0
   -0.3480   29.1899   25.3862 H   0  0  0  0  0  0  0  0  0  0  0  0
    1.9478   29.5390   24.3495 H   0  0  0  0  0  0  0  0  0  0  0  0
    2.3426   27.8468   24.6885 H   0  0  0  0  0  0  0  0  0  0  0  0
    2.0330   28.9662   26.0221 H   0  0  0  0  0  0  0  0  0  0  0  0
   -0.1132   28.8702   22.8628 H   0  0  0  0  0  0  0  0  0  0  0  0
    0.1861   26.7072   22.1454 H   0  0  0  0  0  0  0  0  0  0  0  0
   -2.3796   28.3709   23.8596 H   0  0  0  0  0  0  0  0  0  0  0  0
   -2.2309   27.9807   21.6871 H   0  0  0  0  0  0  0  0  0  0  0  0
   -1.3229   25.4795   24.1034 H   0  0  0  0  0  0  0  0  0  0  0  0
   -3.4913   25.7275   23.5454 H   0  0  0  0  0  0  0  0  0  0  0  0
    0.5798   26.3862   25.4825 H   0  0  0  0  0  0  0  0  0  0  0  0
  1  2  1  0  0  0  0
  1  9  2  0  0  0  0
  1 24  1  0  0  0  0
  2  3  2  0  0  0  0
  2  7  1  0  0  0  0
  3  4  1  0  0  0  0
  3 25  1  0  0  0  0
  4  5  2  0  0  0  0
  4 26  1  0  0  0  0
  5  6  1  0  0  0  0
  5 27  1  0  0  0  0
  6  7  2  0  0  0  0
  6 28  1  0  0  0  0
  7  8  1  0  0  0  0
  8  9  1  0  0  0  0
  9 10  1  0  0  0  0
 10 11  2  0  0  0  0
 10 12  1  0  0  0  0
 12 13  1  0  0  0  0
 12 29  1  0  0  0  0
 13 14  1  0  0  0  0
 13 30  1  0  0  0  0
 13 31  1  0  0  0  0
 14 15  1  0  0  0  0
 14 22  1  0  0  0  0
 14 32  1  1  0  0  0
 15 16  1  0  0  0  0
 15 33  1  0  0  0  0
 15 44  1  0  0  0  0
 16 17  1  0  0  0  0
 16 18  1  0  0  0  0
 16 34  1  1  0  0  0
 17 35  1  0  0  0  0
 17 36  1  0  0  0  0
 17 37  1  0  0  0  0
 18 19  1  0  0  0  0
 18 20  1  0  0  0  0
 18 38  1  6  0  0  0
 19 39  1  0  0  0  0
 20 21  1  0  0  0  0
 20 22  1  0  0  0  0
 20 40  1  1  0  0  0
 21 41  1  0  0  0  0
 22 23  1  0  0  0  0
 22 42  1  6  0  0  0
 23 43  1  0  0  0  0
M  CHG  1  15   1
M  END
$$$$
