ZY5
 OpenBabel04051920053D

 40 42  0  0  0  0  0  0  0  0999 V2000
   30.2757   -6.5668   62.6516 C   0  0  0  0  0  0  0  0  0  0  0  0
   30.9393   -7.0954   63.8705 C   0  0  0  0  0  0  0  0  0  0  0  0
   30.5743   -8.3632   64.3789 C   0  0  0  0  0  0  0  0  0  0  0  0
   29.5840   -8.9995   63.6727 O   0  0  0  0  0  0  0  0  0  0  0  0
   29.2047  -10.3196   64.0147 C   0  0  0  0  0  0  0  0  0  0  0  0
   31.2004   -8.8570   65.5281 C   0  0  0  0  0  0  0  0  0  0  0  0
   31.9693   -6.3837   64.5091 C   0  0  0  0  0  0  0  0  0  0  0  0
   32.5585   -6.8568   65.6734 C   0  0  0  0  0  0  0  0  0  0  0  0
   32.1748   -8.0952   66.1710 C   0  0  0  0  0  0  0  0  0  0  0  0
   32.8055   -8.5127   67.3021 O   0  0  0  0  0  0  0  0  0  0  0  0
   29.9908   -5.2789   62.3702 C   0  0  0  0  0  0  0  0  0  0  0  0
   30.2804   -4.1479   63.3280 C   0  0  0  0  0  0  0  0  0  0  0  0
   29.4331   -2.9187   63.0938 C   0  0  0  0  0  0  0  0  0  0  0  0
   29.5159   -2.5470   61.6320 C   0  0  0  0  0  0  0  0  0  0  0  0
   29.0565   -3.6292   60.7650 N   0  0  0  0  0  0  0  0  0  0  0  0
   29.3151   -4.8533   61.0839 C   0  0  0  0  0  0  0  0  0  0  0  0
   28.9405   -5.8725   60.0732 C   0  0  0  0  0  0  0  0  0  0  0  0
   27.6157   -6.0425   59.6951 C   0  0  0  0  0  0  0  0  0  0  0  0
   27.2098   -6.8715   58.6970 N   0  0  0  0  0  0  0  0  0  0  0  0
   28.1840   -7.5280   58.0218 C   0  0  0  0  0  0  0  0  0  0  0  0
   29.5336   -7.4105   58.3163 C   0  0  0  0  0  0  0  0  0  0  0  0
   29.9186   -6.5680   59.3526 C   0  0  0  0  0  0  0  0  0  0  0  0
   29.9827   -7.3563   61.9600 H   0  0  0  0  0  0  0  0  0  0  0  0
   28.4261  -10.6167   63.3031 H   0  0  0  0  0  0  0  0  0  0  0  0
   28.7708  -10.3629   65.0171 H   0  0  0  0  0  0  0  0  0  0  0  0
   30.0384  -11.0188   63.9033 H   0  0  0  0  0  0  0  0  0  0  0  0
   30.9272   -9.8264   65.9359 H   0  0  0  0  0  0  0  0  0  0  0  0
   32.3285   -5.4368   64.1253 H   0  0  0  0  0  0  0  0  0  0  0  0
   33.3141   -6.2605   66.1800 H   0  0  0  0  0  0  0  0  0  0  0  0
   32.4768   -9.3930   67.5410 H   0  0  0  0  0  0  0  0  0  0  0  0
   31.3305   -3.8579   63.2044 H   0  0  0  0  0  0  0  0  0  0  0  0
   30.1250   -4.4580   64.3681 H   0  0  0  0  0  0  0  0  0  0  0  0
   29.8121   -2.0986   63.7158 H   0  0  0  0  0  0  0  0  0  0  0  0
   28.3958   -3.1061   63.3923 H   0  0  0  0  0  0  0  0  0  0  0  0
   30.5437   -2.2781   61.3571 H   0  0  0  0  0  0  0  0  0  0  0  0
   28.8972   -1.6626   61.4535 H   0  0  0  0  0  0  0  0  0  0  0  0
   26.8156   -5.4927   60.1844 H   0  0  0  0  0  0  0  0  0  0  0  0
   27.8398   -8.1611   57.2121 H   0  0  0  0  0  0  0  0  0  0  0  0
   30.2727   -7.9513   57.7339 H   0  0  0  0  0  0  0  0  0  0  0  0
   30.9714   -6.4344   59.5883 H   0  0  0  0  0  0  0  0  0  0  0  0
  1  2  1  0  0  0  0
  1 11  2  0  0  0  0
  1 23  1  0  0  0  0
  2  3  2  0  0  0  0
  2  7  1  0  0  0  0
  3  4  1  0  0  0  0
  3  6  1  0  0  0  0
  4  5  1  0  0  0  0
  5 24  1  0  0  0  0
  5 25  1  0  0  0  0
  5 26  1  0  0  0  0
  6  9  2  0  0  0  0
  6 27  1  0  0  0  0
  7  8  2  0  0  0  0
  7 28  1  0  0  0  0
  8  9  1  0  0  0  0
  8 29  1  0  0  0  0
  9 10  1  0  0  0  0
 10 30  1  0  0  0  0
 11 12  1  0  0  0  0
 11 16  1  0  0  0  0
 12 13  1  0  0  0  0
 12 31  1  0  0  0  0
 12 32  1  0  0  0  0
 13 14  1  0  0  0  0
 13 33  1  0  0  0  0
 13 34  1  0  0  0  0
 14 15  1  0  0  0  0
 14 35  1  0  0  0  0
 14 36  1  0  0  0  0
 15 16  2  0  0  0  0
 16 17  1  0  0  0  0
 17 18  2  0  0  0  0
 17 22  1  0  0  0  0
 18 19  1  0  0  0  0
 18 37  1  0  0  0  0
 19 20  2  0  0  0  0
 20 21  1  0  0  0  0
 20 38  1  0  0  0  0
 21 22  2  0  0  0  0
 21 39  1  0  0  0  0
 22 40  1  0  0  0  0
M  END
$$$$
