4CWS_G3R_A_1224
 OpenBabel03301717273D

 46 50  0  0  0  0  0  0  0  0999 V2000
    4.6981    6.4566   32.0698 O   0  0  0  0  0  0  0  0  0  0  0  0
    5.0728    6.3031   30.7055 C   0  0  0  0  0  0  0  0  0  0  0  0
    4.4773    7.4282   29.8658 C   0  0  0  0  0  0  0  0  0  0  0  0
    3.0358    7.2434   29.6852 N   0  0  0  0  0  0  0  0  0  0  0  0
    2.3390    8.0696   28.8164 C   0  0  0  0  0  0  0  0  0  0  0  0
    0.9838    8.3716   29.0184 C   0  0  0  0  0  0  0  0  0  0  0  0
    0.2761    9.1905   28.1252 C   0  0  0  0  0  0  0  0  0  0  0  0
    2.9640    8.6148   27.7001 C   0  0  0  0  0  0  0  0  0  0  0  0
    2.2784    9.3990   26.7860 C   0  0  0  0  0  0  0  0  0  0  0  0
    0.9249    9.6972   27.0040 C   0  0  0  0  0  0  0  0  0  0  0  0
    2.9996    9.8433   25.6601 N   0  0  0  0  0  0  0  0  0  0  0  0
    2.3839   10.5783   24.7786 C   0  0  0  0  0  0  0  0  0  0  0  0
    1.0370   10.9330   24.9303 N   0  3  0  0  0  0  0  0  0  0  0  0
    0.3066   11.6879   24.0901 N   0  0  0  0  0  0  0  0  0  0  0  0
    0.2930   10.5182   26.0011 C   0  0  0  0  0  0  0  0  0  0  0  0
   -0.9361   10.9935   25.8797 N   0  0  0  0  0  0  0  0  0  0  0  0
   -0.8716   11.6860   24.7084 C   0  0  0  0  0  0  0  0  0  0  0  0
   -1.9684   12.2902   24.2715 N   0  0  0  0  0  0  0  0  0  0  0  0
    3.1004   11.1300   23.5850 C   0  0  0  0  0  0  0  0  0  0  0  0
    4.0171   12.2782   23.9558 C   0  0  0  0  0  0  0  0  0  0  0  0
    3.4769   13.4544   24.5015 C   0  0  0  0  0  0  0  0  0  0  0  0
    4.3377   14.4793   24.8297 C   0  0  0  0  0  0  0  0  0  0  0  0
    3.9721   15.6724   25.3702 O   0  0  0  0  0  0  0  0  0  0  0  0
    5.2612   16.2926   25.5475 C   0  0  0  0  0  0  0  0  0  0  0  0
    6.3505   15.5114   25.0093 O   0  0  0  0  0  0  0  0  0  0  0  0
    5.6926   14.3826   24.6271 C   0  0  0  0  0  0  0  0  0  0  0  0
    6.2627   13.2456   24.0934 C   0  0  0  0  0  0  0  0  0  0  0  0
    5.4143   12.1812   23.7618 C   0  0  0  0  0  0  0  0  0  0  0  0
    5.1339    5.7409   32.5626 H   0  0  0  0  0  0  0  0  0  0  0  0
    4.7260    5.3279   30.3502 H   0  0  0  0  0  0  0  0  0  0  0  0
    6.1650    6.3390   30.6361 H   0  0  0  0  0  0  0  0  0  0  0  0
    4.9872    7.3881   28.8989 H   0  0  0  0  0  0  0  0  0  0  0  0
    4.6800    8.3990   30.3340 H   0  0  0  0  0  0  0  0  0  0  0  0
    2.5348    6.7758   30.4348 H   0  0  0  0  0  0  0  0  0  0  0  0
    0.4639    7.9816   29.8927 H   0  0  0  0  0  0  0  0  0  0  0  0
   -0.7703    9.4207   28.3010 H   0  0  0  0  0  0  0  0  0  0  0  0
    4.0064    8.4101   27.4716 H   0  0  0  0  0  0  0  0  0  0  0  0
   -2.8211   12.2835   24.8108 H   0  0  0  0  0  0  0  0  0  0  0  0
   -1.9522   12.8443   23.4267 H   0  0  0  0  0  0  0  0  0  0  0  0
    2.4271   11.4385   22.7781 H   0  0  0  0  0  0  0  0  0  0  0  0
    3.7007   10.3035   23.1784 H   0  0  0  0  0  0  0  0  0  0  0  0
    2.4124   13.5690   24.6721 H   0  0  0  0  0  0  0  0  0  0  0  0
    5.4317   16.4400   26.6209 H   0  0  0  0  0  0  0  0  0  0  0  0
    5.2492   17.2762   25.0629 H   0  0  0  0  0  0  0  0  0  0  0  0
    7.3335   13.1738   23.9382 H   0  0  0  0  0  0  0  0  0  0  0  0
    5.8485   11.2685   23.3552 H   0  0  0  0  0  0  0  0  0  0  0  0
  1  2  1  0  0  0  0
  1 29  1  0  0  0  0
  2  3  1  0  0  0  0
  2 30  1  0  0  0  0
  2 31  1  0  0  0  0
  3  4  1  0  0  0  0
  3 32  1  0  0  0  0
  3 33  1  0  0  0  0
  4  5  1  0  0  0  0
  4 34  1  0  0  0  0
  5  6  2  0  0  0  0
  5  8  1  0  0  0  0
  6  7  1  0  0  0  0
  6 35  1  0  0  0  0
  7 10  2  0  0  0  0
  7 36  1  0  0  0  0
  8  9  2  0  0  0  0
  8 37  1  0  0  0  0
  9 10  1  0  0  0  0
  9 11  1  0  0  0  0
 10 15  1  0  0  0  0
 11 12  2  0  0  0  0
 12 13  1  0  0  0  0
 12 19  1  0  0  0  0
 13 14  1  0  0  0  0
 13 15  2  0  0  0  0
 14 17  1  0  0  0  0
 15 16  1  0  0  0  0
 16 17  2  0  0  0  0
 17 18  1  0  0  0  0
 18 38  1  0  0  0  0
 18 39  1  0  0  0  0
 19 20  1  0  0  0  0
 19 40  1  0  0  0  0
 19 41  1  0  0  0  0
 20 21  2  0  0  0  0
 20 28  1  0  0  0  0
 21 22  1  0  0  0  0
 21 42  1  0  0  0  0
 22 23  1  0  0  0  0
 22 26  2  0  0  0  0
 23 24  1  0  0  0  0
 24 25  1  0  0  0  0
 24 43  1  0  0  0  0
 24 44  1  0  0  0  0
 25 26  1  0  0  0  0
 26 27  1  0  0  0  0
 27 28  2  0  0  0  0
 27 45  1  0  0  0  0
 28 46  1  0  0  0  0
M  CHG  1  13   1
M  END
$$$$
