5FND_IQ5_A_1225
 OpenBabel03301717383D

 26 27  0  0  0  0  0  0  0  0999 V2000
   34.1795    7.6109   28.0614 C   0  0  0  0  0  0  0  0  0  0  0  0
   32.8877    8.1718   27.5436 C   0  0  0  0  0  0  0  0  0  0  0  0
   32.8916    8.8065   26.2824 C   0  0  0  0  0  0  0  0  0  0  0  0
   31.7075    9.3995   25.8210 C   0  0  0  0  0  0  0  0  0  0  0  0
   31.4019   10.2270   24.3405 S   0  0  0  0  0  0  0  0  0  0  0  0
   29.7717   10.4544   24.8139 C   0  0  0  0  0  0  0  0  0  0  0  0
   28.8893   11.0806   24.0355 N   0  0  0  0  0  0  0  0  0  0  0  0
   29.4512    9.9934   25.9943 N   0  0  0  0  0  0  0  0  0  0  0  0
   30.5404    9.3845   26.5801 C   0  0  0  0  0  0  0  0  0  0  0  0
   30.5573    8.7718   27.8482 C   0  0  0  0  0  0  0  0  0  0  0  0
   31.7261    8.1579   28.3164 C   0  0  0  0  0  0  0  0  0  0  0  0
   31.7407    7.6870   29.6448 N   0  0  0  0  0  0  0  0  0  0  0  0
   31.8881    6.3491   29.9805 C   0  0  0  0  0  0  0  0  0  0  0  0
   32.0907    5.4397   29.1972 O   0  0  0  0  0  0  0  0  0  0  0  0
   31.7618    6.1059   31.4673 C   0  0  0  0  0  0  0  0  0  0  0  0
   35.0010    7.7888   27.3607 H   0  0  0  0  0  0  0  0  0  0  0  0
   34.0966    6.5313   28.2005 H   0  0  0  0  0  0  0  0  0  0  0  0
   34.4417    8.0931   29.0086 H   0  0  0  0  0  0  0  0  0  0  0  0
   33.7986    8.8586   25.6897 H   0  0  0  0  0  0  0  0  0  0  0  0
   27.9249   11.1307   24.3501 H   0  0  0  0  0  0  0  0  0  0  0  0
   29.0845   11.3558   23.0858 H   0  0  0  0  0  0  0  0  0  0  0  0
   29.6372    8.7510   28.4229 H   0  0  0  0  0  0  0  0  0  0  0  0
   31.2843    8.2776   30.3278 H   0  0  0  0  0  0  0  0  0  0  0  0
   31.5915    7.0333   32.0209 H   0  0  0  0  0  0  0  0  0  0  0  0
   32.6865    5.6530   31.8350 H   0  0  0  0  0  0  0  0  0  0  0  0
   30.9198    5.4329   31.6544 H   0  0  0  0  0  0  0  0  0  0  0  0
  1  2  1  0  0  0  0
  1 16  1  0  0  0  0
  1 17  1  0  0  0  0
  1 18  1  0  0  0  0
  2  3  2  0  0  0  0
  2 11  1  0  0  0  0
  3  4  1  0  0  0  0
  3 19  1  0  0  0  0
  4  5  1  0  0  0  0
  4  9  2  0  0  0  0
  5  6  1  0  0  0  0
  6  7  1  0  0  0  0
  6  8  2  0  0  0  0
  7 20  1  0  0  0  0
  7 21  1  0  0  0  0
  8  9  1  0  0  0  0
  9 10  1  0  0  0  0
 10 11  2  0  0  0  0
 10 22  1  0  0  0  0
 11 12  1  0  0  0  0
 12 13  1  0  0  0  0
 12 23  1  0  0  0  0
 13 14  2  0  0  0  0
 13 15  1  0  0  0  0
 15 24  1  0  0  0  0
 15 25  1  0  0  0  0
 15 26  1  0  0  0  0
M  END
$$$$
