4L90_RL3_A_301
 OpenBabel03301717313D

 46 49  0  0  0  0  0  0  0  0999 V2000
   -0.7486   11.5453   24.9611 C   0  0  0  0  0  0  0  0  0  0  0  0
   -0.5627   12.1304   23.7064 C   0  0  0  0  0  0  0  0  0  0  0  0
    0.7343   12.3077   23.2081 C   0  0  0  0  0  0  0  0  0  0  0  0
    1.8491   11.9236   23.9482 C   0  0  0  0  0  0  0  0  0  0  0  0
    1.6532   11.3736   25.2318 C   0  0  0  0  0  0  0  0  0  0  0  0
    0.3545   11.1420   25.7124 C   0  0  0  0  0  0  0  0  0  0  0  0
    0.1812   10.4570   27.0121 C   0  0  0  0  0  0  0  0  0  0  0  0
   -0.4723   11.0332   27.8772 O   0  0  0  0  0  0  0  0  0  0  0  0
    0.8212   12.8581   21.9512 O   0  0  0  0  0  0  0  0  0  0  0  0
   -2.0389   11.3556   25.3711 O   0  0  0  0  0  0  0  0  0  0  0  0
    3.2189   11.9311   23.4330 C   0  0  0  0  0  0  0  0  0  0  0  0
    4.2430   12.7647   23.8339 N   0  3  0  0  0  0  0  0  0  0  0  0
    5.3743   12.2891   23.1812 C   0  0  0  0  0  0  0  0  0  0  0  0
    5.0509   11.2528   22.4423 N   0  0  0  0  0  0  0  0  0  0  0  0
    3.6984   11.0380   22.5891 N   0  0  0  0  0  0  0  0  0  0  0  0
    4.2695   13.8445   24.7138 C   0  0  0  0  0  0  0  0  0  0  0  0
    5.4363   14.4824   24.9435 C   0  0  0  0  0  0  0  0  0  0  0  0
    6.6379   14.0077   24.2619 C   0  0  0  0  0  0  0  0  0  0  0  0
    6.6062   12.9557   23.4207 C   0  0  0  0  0  0  0  0  0  0  0  0
    0.7477    9.1941   27.2051 N   0  0  0  0  0  0  0  0  0  0  0  0
    2.4720    6.9968   27.9901 N   0  3  0  0  0  0  0  0  0  0  0  0
    3.8952    6.6097   28.2963 C   0  0  0  0  0  0  0  0  0  0  0  0
    5.5783   15.9230   26.1028 Br  0  0  0  0  0  0  0  0  0  0  0  0
    1.2372    8.3425   26.1237 C   0  0  0  0  0  0  0  0  0  0  0  0
    2.3000    7.3054   26.5091 C   0  0  0  0  0  0  0  0  0  0  0  0
    1.8838    7.9899   28.9908 C   0  0  0  0  0  0  0  0  0  0  0  0
    0.5387    8.5094   28.4811 C   0  0  0  0  0  0  0  0  0  0  0  0
   -1.4186   12.4354   23.1140 H   0  0  0  0  0  0  0  0  0  0  0  0
    2.5067   11.0614   25.8178 H   0  0  0  0  0  0  0  0  0  0  0  0
    1.7414   12.8227   21.6254 H   0  0  0  0  0  0  0  0  0  0  0  0
   -2.0511   11.1520   26.3264 H   0  0  0  0  0  0  0  0  0  0  0  0
    3.3356   14.1377   25.1786 H   0  0  0  0  0  0  0  0  0  0  0  0
    7.5735   14.5322   24.4414 H   0  0  0  0  0  0  0  0  0  0  0  0
    7.5019   12.6079   22.9135 H   0  0  0  0  0  0  0  0  0  0  0  0
    1.9190    6.1445   28.1456 H   0  0  0  0  0  0  0  0  0  0  0  0
    4.5667    7.4135   27.9664 H   0  0  0  0  0  0  0  0  0  0  0  0
    4.1025    5.6901   27.7356 H   0  0  0  0  0  0  0  0  0  0  0  0
    3.9929    6.4328   29.3623 H   0  0  0  0  0  0  0  0  0  0  0  0
    1.6665    8.9454   25.3224 H   0  0  0  0  0  0  0  0  0  0  0  0
    0.3667    7.8509   25.6784 H   0  0  0  0  0  0  0  0  0  0  0  0
    2.0556    6.3462   26.0391 H   0  0  0  0  0  0  0  0  0  0  0  0
    3.2753    7.6248   26.1197 H   0  0  0  0  0  0  0  0  0  0  0  0
    2.6042    8.8008   29.1343 H   0  0  0  0  0  0  0  0  0  0  0  0
    1.7559    7.4366   29.9282 H   0  0  0  0  0  0  0  0  0  0  0  0
   -0.1548    7.6745   28.3116 H   0  0  0  0  0  0  0  0  0  0  0  0
    0.0798    9.1650   29.2278 H   0  0  0  0  0  0  0  0  0  0  0  0
  1  2  2  0  0  0  0
  1  6  1  0  0  0  0
  1 10  1  0  0  0  0
  2  3  1  0  0  0  0
  2 28  1  0  0  0  0
  3  4  2  0  0  0  0
  3  9  1  0  0  0  0
  4  5  1  0  0  0  0
  4 11  1  0  0  0  0
  5  6  2  0  0  0  0
  5 29  1  0  0  0  0
  6  7  1  0  0  0  0
  7  8  2  0  0  0  0
  7 20  1  0  0  0  0
  9 30  1  0  0  0  0
 10 31  1  0  0  0  0
 11 12  1  0  0  0  0
 11 15  2  0  0  0  0
 12 13  2  0  0  0  0
 12 16  1  0  0  0  0
 13 14  1  0  0  0  0
 13 19  1  0  0  0  0
 14 15  1  0  0  0  0
 16 17  2  0  0  0  0
 16 32  1  0  0  0  0
 17 18  1  0  0  0  0
 17 23  1  0  0  0  0
 18 19  2  0  0  0  0
 18 33  1  0  0  0  0
 19 34  1  0  0  0  0
 20 24  1  0  0  0  0
 20 27  1  0  0  0  0
 21 22  1  0  0  0  0
 21 25  1  0  0  0  0
 21 26  1  0  0  0  0
 21 35  1  0  0  0  0
 22 36  1  0  0  0  0
 22 37  1  0  0  0  0
 22 38  1  0  0  0  0
 24 25  1  0  0  0  0
 24 39  1  0  0  0  0
 24 40  1  0  0  0  0
 25 41  1  0  0  0  0
 25 42  1  0  0  0  0
 26 27  1  0  0  0  0
 26 43  1  0  0  0  0
 26 44  1  0  0  0  0
 27 45  1  0  0  0  0
 27 46  1  0  0  0  0
M  CHG  2  12   1  21   1
M  END
$$$$
