2XJX_XJX_A_1232
 OpenBabel03301717073D

 60 63  0  0  1  0  0  0  0  0999 V2000
   13.7795    0.2911   10.8038 C   0  0  0  0  0  0  0  0  0  0  0  0
   13.0821   -0.4171    9.6418 C   0  0  0  0  0  0  0  0  0  0  0  0
   13.5447    0.1830    8.3047 C   0  0  0  0  0  0  0  0  0  0  0  0
   13.3000   -1.9204    9.7592 C   0  0  0  0  0  0  0  0  0  0  0  0
   14.4141   -2.5408    9.1790 C   0  0  0  0  0  0  0  0  0  0  0  0
   14.6133   -3.9188    9.3106 C   0  0  0  0  0  0  0  0  0  0  0  0
   15.7543   -4.5241    8.5916 C   0  0  0  0  0  0  0  0  0  0  0  0
   16.7484   -4.8909    9.2103 O   0  0  0  0  0  0  0  0  0  0  0  0
   15.7536   -4.6722    7.1873 N   0  3  0  0  0  0  0  0  0  0  0  0
   16.7744   -5.2388    6.4190 C   0  0  0  0  0  0  0  0  0  0  0  0
   16.2985   -5.3982    5.1436 C   0  0  0  0  0  0  0  0  0  0  0  0
   16.9367   -6.0327    4.0880 C   0  0  0  0  0  0  0  0  0  0  0  0
   16.0985   -6.0408    2.9438 C   0  0  0  0  0  0  0  0  0  0  0  0
   14.7768   -5.4454    2.8795 C   0  0  0  0  0  0  0  0  0  0  0  0
   14.0287   -5.4204    1.5558 C   0  0  0  0  0  0  0  0  0  0  0  0
   14.3432   -4.2683    0.6800 N   0  0  0  0  0  0  0  0  0  0  0  0
   14.3006   -2.9804    1.3980 C   0  0  0  0  0  0  0  0  0  0  0  0
   14.6099   -1.7690    0.5030 C   0  0  0  0  0  0  0  0  0  0  0  0
   15.9507   -1.9820   -0.1796 N   0  3  2  0  0  0  0  0  0  0  0  0
   16.3718   -0.7952   -0.9828 C   0  0  0  0  0  0  0  0  0  0  0  0
   15.9178   -3.2638   -0.9941 C   0  0  0  0  0  0  0  0  0  0  0  0
   15.5964   -4.4548   -0.0674 C   0  0  0  0  0  0  0  0  0  0  0  0
   14.1627   -4.8125    3.9982 C   0  0  0  0  0  0  0  0  0  0  0  0
   15.0039   -4.8299    5.0951 C   0  0  0  0  0  0  0  0  0  0  0  0
   14.7172   -4.3100    6.3261 C   0  0  0  0  0  0  0  0  0  0  0  0
   13.7230   -4.6949   10.0444 C   0  0  0  0  0  0  0  0  0  0  0  0
   13.9068   -6.0468   10.1236 O   0  0  0  0  0  0  0  0  0  0  0  0
   12.6201   -4.1024   10.6605 C   0  0  0  0  0  0  0  0  0  0  0  0
   12.4162   -2.7233   10.5067 C   0  0  0  0  0  0  0  0  0  0  0  0
   11.3373   -2.1337   11.0950 O   0  0  0  0  0  0  0  0  0  0  0  0
   13.6351    1.3757   10.7429 H   0  0  0  0  0  0  0  0  0  0  0  0
   14.8574    0.0929   10.8044 H   0  0  0  0  0  0  0  0  0  0  0  0
   13.3805   -0.0446   11.7673 H   0  0  0  0  0  0  0  0  0  0  0  0
   12.0063   -0.2107    9.7036 H   0  0  0  0  0  0  0  0  0  0  0  0
   14.6290    0.1016    8.1672 H   0  0  0  0  0  0  0  0  0  0  0  0
   13.2973    1.2478    8.2587 H   0  0  0  0  0  0  0  0  0  0  0  0
   13.0570   -0.3144    7.4608 H   0  0  0  0  0  0  0  0  0  0  0  0
   15.1374   -1.9611    8.6133 H   0  0  0  0  0  0  0  0  0  0  0  0
   17.7025   -5.5292    6.8951 H   0  0  0  0  0  0  0  0  0  0  0  0
   17.9175   -6.4868    4.1217 H   0  0  0  0  0  0  0  0  0  0  0  0
   16.4866   -6.5345    2.0502 H   0  0  0  0  0  0  0  0  0  0  0  0
   12.9481   -5.4078    1.7614 H   0  0  0  0  0  0  0  0  0  0  0  0
   14.1907   -6.3662    1.0204 H   0  0  0  0  0  0  0  0  0  0  0  0
   15.0398   -2.9625    2.2074 H   0  0  0  0  0  0  0  0  0  0  0  0
   13.3091   -2.8349    1.8419 H   0  0  0  0  0  0  0  0  0  0  0  0
   14.6949   -0.8610    1.1093 H   0  0  0  0  0  0  0  0  0  0  0  0
   13.8545   -1.6320   -0.2757 H   0  0  0  0  0  0  0  0  0  0  0  0
   16.6474   -2.1188    0.5643 H   0  0  0  0  0  0  0  0  0  0  0  0
   15.6357   -0.6285   -1.7730 H   0  0  0  0  0  0  0  0  0  0  0  0
   17.3595   -1.0029   -1.4008 H   0  0  0  0  0  0  0  0  0  0  0  0
   16.4261    0.0643   -0.3092 H   0  0  0  0  0  0  0  0  0  0  0  0
   16.9047   -3.3871   -1.4507 H   0  0  0  0  0  0  0  0  0  0  0  0
   15.1594   -3.1397   -1.7755 H   0  0  0  0  0  0  0  0  0  0  0  0
   15.5254   -5.3568   -0.6870 H   0  0  0  0  0  0  0  0  0  0  0  0
   16.4426   -4.5882    0.6147 H   0  0  0  0  0  0  0  0  0  0  0  0
   13.1751   -4.3716    3.9795 H   0  0  0  0  0  0  0  0  0  0  0  0
   13.8465   -3.7837    6.6912 H   0  0  0  0  0  0  0  0  0  0  0  0
   13.2914   -6.4309   10.7727 H   0  0  0  0  0  0  0  0  0  0  0  0
   11.9272   -4.6962   11.2405 H   0  0  0  0  0  0  0  0  0  0  0  0
   10.8358   -2.7940   11.6075 H   0  0  0  0  0  0  0  0  0  0  0  0
  1  2  1  0  0  0  0
  1 31  1  0  0  0  0
  1 32  1  0  0  0  0
  1 33  1  0  0  0  0
  2  3  1  0  0  0  0
  2  4  1  0  0  0  0
  2 34  1  0  0  0  0
  3 35  1  0  0  0  0
  3 36  1  0  0  0  0
  3 37  1  0  0  0  0
  4  5  2  0  0  0  0
  4 29  1  0  0  0  0
  5  6  1  0  0  0  0
  5 38  1  0  0  0  0
  6  7  1  0  0  0  0
  6 26  2  0  0  0  0
  7  8  2  0  0  0  0
  7  9  1  0  0  0  0
  9 10  1  0  0  0  0
  9 25  1  0  0  0  0
 10 11  2  0  0  0  0
 10 39  1  0  0  0  0
 11 12  1  0  0  0  0
 11 24  1  0  0  0  0
 12 13  2  0  0  0  0
 12 40  1  0  0  0  0
 13 14  1  0  0  0  0
 13 41  1  0  0  0  0
 14 15  1  0  0  0  0
 14 23  2  0  0  0  0
 15 16  1  0  0  0  0
 15 42  1  0  0  0  0
 15 43  1  0  0  0  0
 16 17  1  0  0  0  0
 16 22  1  0  0  0  0
 17 18  1  0  0  0  0
 17 44  1  0  0  0  0
 17 45  1  0  0  0  0
 18 19  1  0  0  0  0
 18 46  1  0  0  0  0
 18 47  1  0  0  0  0
 19 20  1  0  0  0  0
 19 21  1  0  0  0  0
 19 48  1  1  0  0  0
 20 49  1  0  0  0  0
 20 50  1  0  0  0  0
 20 51  1  0  0  0  0
 21 22  1  0  0  0  0
 21 52  1  0  0  0  0
 21 53  1  0  0  0  0
 22 54  1  0  0  0  0
 22 55  1  0  0  0  0
 23 24  1  0  0  0  0
 23 56  1  0  0  0  0
 24 25  2  0  0  0  0
 25 57  1  0  0  0  0
 26 27  1  0  0  0  0
 26 28  1  0  0  0  0
 27 58  1  0  0  0  0
 28 29  2  0  0  0  0
 28 59  1  0  0  0  0
 29 30  1  0  0  0  0
 30 60  1  0  0  0  0
M  CHG  2   9   1  19   1
M  END
$$$$
