3MNR_SD1_P_233
 OpenBabel03301717193D

 66 69  0  0  1  0  0  0  0  0999 V2000
    4.4208  -13.6713  -24.7436 C   0  0  0  0  0  0  0  0  0  0  0  0
    4.8289  -12.3238  -24.2280 C   0  0  1  0  0  0  0  0  0  0  0  0
    6.1329  -11.9131  -24.0222 C   0  0  1  0  0  0  0  0  0  0  0  0
    7.2601  -12.8006  -24.2497 C   0  0  0  0  0  0  0  0  0  0  0  0
    6.9014  -14.2437  -24.5915 C   0  0  0  0  0  0  0  0  0  0  0  0
    5.6201  -14.3523  -25.4553 C   0  0  0  0  0  0  0  0  0  0  0  0
    5.2829  -15.8309  -25.6831 C   0  0  0  0  0  0  0  0  0  0  0  0
    5.8572  -13.7097  -26.8336 C   0  0  0  0  0  0  0  0  0  0  0  0
    8.4222  -12.4283  -24.1391 O   0  0  0  0  0  0  0  0  0  0  0  0
    6.0907  -10.5591  -23.6444 C   0  0  0  0  0  0  0  0  0  0  0  0
    4.7727  -10.1550  -23.6569 C   0  0  1  0  0  0  0  0  0  0  0  0
    3.9895  -11.2536  -23.9914 N   0  3  1  0  0  0  0  0  0  0  0  0
    4.2804   -8.7974  -23.3022 C   0  0  0  0  0  0  0  0  0  0  0  0
    2.6007  -11.2763  -24.2130 C   0  0  2  0  0  0  0  0  0  0  0  0
    1.7852  -12.1859  -23.5437 C   0  0  0  0  0  0  0  0  0  0  0  0
    0.4180  -12.2262  -23.8429 C   0  0  0  0  0  0  0  0  0  0  0  0
   -0.1121  -11.4035  -24.8475 C   0  0  1  0  0  0  0  0  0  0  0  0
    0.7465  -10.5129  -25.5669 C   0  0  2  0  0  0  0  0  0  0  0  0
    2.0934  -10.4515  -25.2105 C   0  0  0  0  0  0  0  0  0  0  0  0
   -1.5715  -11.4616  -25.1794 C   0  0  0  0  0  0  0  0  0  0  0  0
   -1.9984  -11.1179  -26.2761 O   0  0  0  0  0  0  0  0  0  0  0  0
   -2.4316  -11.9169  -24.2132 N   0  0  0  0  0  0  0  0  0  0  0  0
    0.2667   -9.6696  -26.5802 N   0  0  0  0  0  0  0  0  0  0  0  0
    0.6995   -8.3788  -26.9294 C   0  0  1  0  0  0  0  0  0  0  0  0
    1.1039   -7.4454  -25.9558 C   0  0  0  0  0  0  0  0  0  0  0  0
    1.5515   -6.1758  -26.3245 C   0  0  1  0  0  0  0  0  0  0  0  0
    1.6270   -5.8558  -27.7036 C   0  0  1  0  0  0  0  0  0  0  0  0
    1.2473   -6.7957  -28.6945 C   0  0  1  0  0  0  0  0  0  0  0  0
    0.7893   -8.0509  -28.2897 C   0  0  0  0  0  0  0  0  0  0  0  0
    1.3240   -6.4031  -30.0116 O   0  0  0  0  0  0  0  0  0  0  0  0
    1.2797   -7.4140  -31.0207 C   0  0  0  0  0  0  0  0  0  0  0  0
    1.9601   -4.5765  -28.1026 O   0  0  0  0  0  0  0  0  0  0  0  0
    3.3728   -4.3777  -28.1636 C   0  0  0  0  0  0  0  0  0  0  0  0
    1.8815   -5.1849  -25.4234 O   0  0  0  0  0  0  0  0  0  0  0  0
    2.0052   -5.5139  -24.0388 C   0  0  0  0  0  0  0  0  0  0  0  0
    3.5775  -13.6098  -25.4426 H   0  0  0  0  0  0  0  0  0  0  0  0
    4.0990  -14.2838  -23.8925 H   0  0  0  0  0  0  0  0  0  0  0  0
    6.7656  -14.7801  -23.6440 H   0  0  0  0  0  0  0  0  0  0  0  0
    7.7501  -14.6922  -25.1173 H   0  0  0  0  0  0  0  0  0  0  0  0
    5.1075  -16.3476  -24.7340 H   0  0  0  0  0  0  0  0  0  0  0  0
    6.1004  -16.3421  -26.2030 H   0  0  0  0  0  0  0  0  0  0  0  0
    4.3795  -15.9302  -26.2952 H   0  0  0  0  0  0  0  0  0  0  0  0
    6.1093  -12.6483  -26.7551 H   0  0  0  0  0  0  0  0  0  0  0  0
    4.9599  -13.7900  -27.4562 H   0  0  0  0  0  0  0  0  0  0  0  0
    6.6801  -14.2082  -27.3570 H   0  0  0  0  0  0  0  0  0  0  0  0
    6.9259   -9.9107  -23.4024 H   0  0  0  0  0  0  0  0  0  0  0  0
    5.1430   -8.1600  -23.0678 H   0  0  0  0  0  0  0  0  0  0  0  0
    3.6467   -8.8196  -22.4118 H   0  0  0  0  0  0  0  0  0  0  0  0
    3.7501   -8.3213  -24.1284 H   0  0  0  0  0  0  0  0  0  0  0  0
    2.1919  -12.8472  -22.7815 H   0  0  0  0  0  0  0  0  0  0  0  0
   -0.2014  -12.9365  -23.3093 H   0  0  0  0  0  0  0  0  0  0  0  0
    2.7665   -9.8233  -25.7872 H   0  0  0  0  0  0  0  0  0  0  0  0
   -3.4188  -11.8991  -24.4298 H   0  0  0  0  0  0  0  0  0  0  0  0
   -2.1678  -12.1325  -23.2621 H   0  0  0  0  0  0  0  0  0  0  0  0
   -0.5531  -10.0287  -27.0781 H   0  0  0  0  0  0  0  0  0  0  0  0
    1.0094   -7.7204  -24.9087 H   0  0  0  0  0  0  0  0  0  0  0  0
    0.4980   -8.8079  -29.0116 H   0  0  0  0  0  0  0  0  0  0  0  0
    1.3679   -6.9227  -31.9968 H   0  0  0  0  0  0  0  0  0  0  0  0
    0.3301   -7.9608  -31.0280 H   0  0  0  0  0  0  0  0  0  0  0  0
    2.1253   -8.1039  -30.9247 H   0  0  0  0  0  0  0  0  0  0  0  0
    3.5549   -3.3512  -28.5056 H   0  0  0  0  0  0  0  0  0  0  0  0
    3.8473   -5.0506  -28.8862 H   0  0  0  0  0  0  0  0  0  0  0  0
    3.8414   -4.4803  -27.1798 H   0  0  0  0  0  0  0  0  0  0  0  0
    2.2869   -4.6010  -23.4997 H   0  0  0  0  0  0  0  0  0  0  0  0
    2.8062   -6.2393  -23.8715 H   0  0  0  0  0  0  0  0  0  0  0  0
    1.0644   -5.8653  -23.6005 H   0  0  0  0  0  0  0  0  0  0  0  0
  1  6  1  0  0  0  0
  1 36  1  0  0  0  0
  1 37  1  0  0  0  0
  2  1  1  6  0  0  0
  2  3  1  0  0  0  0
  2 12  1  0  0  0  0
  3  4  1  6  0  0  0
  3 10  1  0  0  0  0
  4  5  1  0  0  0  0
  4  9  2  0  0  0  0
  5  6  1  0  0  0  0
  5 38  1  0  0  0  0
  5 39  1  0  0  0  0
  6  7  1  0  0  0  0
  6  8  1  0  0  0  0
  7 40  1  0  0  0  0
  7 41  1  0  0  0  0
  7 42  1  0  0  0  0
  8 43  1  0  0  0  0
  8 44  1  0  0  0  0
  8 45  1  0  0  0  0
 10 11  1  0  0  0  0
 10 46  1  0  0  0  0
 11 12  1  0  0  0  0
 11 13  1  1  0  0  0
 12 14  1  6  0  0  0
 13 47  1  0  0  0  0
 13 48  1  0  0  0  0
 13 49  1  0  0  0  0
 14 15  1  6  0  0  0
 14 19  1  0  0  0  0
 15 16  1  0  0  0  0
 15 50  1  0  0  0  0
 16 17  1  0  0  0  0
 16 51  1  0  0  0  0
 17 18  1  0  0  0  0
 17 20  1  6  0  0  0
 18 19  1  0  0  0  0
 18 23  1  1  0  0  0
 19 52  1  0  0  0  0
 20 21  2  0  0  0  0
 20 22  1  0  0  0  0
 22 53  1  0  0  0  0
 22 54  1  0  0  0  0
 23 55  1  0  0  0  0
 24 23  1  6  0  0  0
 24 25  1  0  0  0  0
 24 29  1  0  0  0  0
 25 26  1  0  0  0  0
 25 56  1  0  0  0  0
 26 27  1  0  0  0  0
 26 34  1  1  0  0  0
 27 28  1  0  0  0  0
 27 32  1  1  0  0  0
 28 29  1  0  0  0  0
 28 30  1  1  0  0  0
 29 57  1  0  0  0  0
 30 31  1  0  0  0  0
 31 58  1  0  0  0  0
 31 59  1  0  0  0  0
 31 60  1  0  0  0  0
 32 33  1  0  0  0  0
 33 61  1  0  0  0  0
 33 62  1  0  0  0  0
 33 63  1  0  0  0  0
 34 35  1  0  0  0  0
 35 64  1  0  0  0  0
 35 65  1  0  0  0  0
 35 66  1  0  0  0  0
M  CHG  1  12   1
M  END
$$$$
