REMARK  1 active torsions:
REMARK  status: ('A' for Active; 'I' for Inactive)
REMARK    1  A    between atoms: C_17  and  C_28 
REMARK       I    between atoms: C_28  and  N_30 
ROOT
ATOM      1  C   LIG d   1      40.955   9.514  23.109  0.00  0.00     0.000 C 
ATOM      2  C   LIG d   1      39.810  10.358  23.563  0.00  0.00     0.000 A 
ATOM      3  C   LIG d   1      38.458  10.011  23.637  0.00  0.00     0.000 A 
ATOM      4  N   LIG d   1      37.762  11.150  24.059  0.00  0.00     0.000 N 
ATOM      5  C   LIG d   1      38.652  12.172  24.267  0.00  0.00     0.000 A 
ATOM      6  C   LIG d   1      39.925  11.716  23.996  0.00  0.00     0.000 A 
ATOM      7  C   LIG d   1      41.089  12.572  24.214  0.00  0.00     0.000 C 
ATOM      8  O   LIG d   1      42.239  12.175  24.015  0.00  0.00     0.000 OA
ATOM      9  C   LIG d   1      40.810  14.007  24.669  0.00  0.00     0.000 C 
ATOM     10  C   LIG d   1      39.534  14.130  25.546  0.00  0.00     0.000 C 
ATOM     11  C   LIG d   1      38.310  13.524  24.813  0.00  0.00     0.000 C 
ATOM     12  C   LIG d   1      39.242  15.614  25.838  0.00  0.00     0.000 C 
ATOM     13  C   LIG d   1      39.759  13.414  26.894  0.00  0.00     0.000 C 
ATOM     14  C   LIG d   1      36.385  11.243  24.345  0.00  0.00     0.000 C 
ATOM     15  C   LIG d   1      35.575  12.136  23.662  0.00  0.00     0.000 C 
ATOM     16  C   LIG d   1      34.206  12.121  23.916  0.00  0.00     0.000 C 
ATOM     17  C   LIG d   1      33.648  11.173  24.800  0.00  0.00     0.000 C 
ATOM     18  C   LIG d   1      34.487  10.291  25.532  0.00  0.00     0.000 C 
ATOM     19  C   LIG d   1      35.868  10.426  25.346  0.00  0.00     0.000 C 
ATOM     20  N   LIG d   1      33.962   9.186  26.222  0.00  0.00     0.000 N 
ATOM     21  C   LIG d   1      34.718   8.305  27.125  0.00  0.00     0.000 C 
ATOM     22  C   LIG d   1      35.169   7.015  26.367  0.00  0.00     0.000 C 
ATOM     23  N   LIG d   1      35.755   7.344  25.022  0.00  0.00     1.000 N 
ATOM     24  C   LIG d   1      36.929   6.593  24.510  0.00  0.00     0.000 C 
ATOM     25  C   LIG d   1      38.102   7.525  24.146  0.00  0.00     0.000 C 
ATOM     26  C   LIG d   1      37.794   8.712  23.207  0.00  0.00     0.000 C 
ATOM     27  C   LIG d   1      33.850   7.899  28.319  0.00  0.00     0.000 C 
ATOM     28  H   LIG d   1      32.991   9.389  26.530  0.00  0.00     0.000 HD
ATOM     29  H   LIG d   1      36.014   8.322  25.060  0.00  0.00     0.000 HD
ATOM     30  H   LIG d   1      34.982   7.372  24.341  0.00  0.00     0.000 HD
ENDROOT
BRANCH  17  31
ATOM     31  C   LIG d   1      32.165  11.127  24.993  0.00  0.00     0.000 C 
ATOM     32  O   LIG d   1      31.672  10.575  25.970  0.00  0.00     0.000 OA
ATOM     33  N   LIG d   1      31.372  11.693  24.034  0.00  0.00     0.000 N 
ATOM     34  H   LIG d   1      30.368  11.669  24.183  0.00  0.00     0.000 HD
ATOM     35  H   LIG d   1      31.695  12.062  23.152  0.00  0.00     0.000 HD
ENDBRANCH  17  31
TORSDOF 1
