@<TRIPOS>MOLECULE
3QTF_05S_A_1
 63 66 0 0 0
SMALL
USER_CHARGES

@<TRIPOS>ATOM
      1 C          40.9548    9.5138   23.1090 C.3     1  LIG1        0.0000
      2 C          39.8100   10.3579   23.5627 C.ar    1  LIG1        0.0000
      3 C          38.4582   10.0105   23.6374 C.ar    1  LIG1        0.0000
      4 N          37.7617   11.1499   24.0592 N.ar    1  LIG1        0.0000
      5 C          38.6521   12.1718   24.2672 C.ar    1  LIG1        0.0000
      6 C          39.9247   11.7156   23.9960 C.ar    1  LIG1        0.0000
      7 C          41.0889   12.5717   24.2137 C.2     1  LIG1        0.0000
      8 O          42.2389   12.1748   24.0146 O.2     1  LIG1        0.0000
      9 C          40.8097   14.0066   24.6695 C.3     1  LIG1        0.0000
     10 C          39.5340   14.1305   25.5458 C.3     1  LIG1        0.0000
     11 C          38.3102   13.5235   24.8131 C.3     1  LIG1        0.0000
     12 C          39.2422   15.6137   25.8383 C.3     1  LIG1        0.0000
     13 C          39.7590   13.4138   26.8941 C.3     1  LIG1        0.0000
     14 C          36.3853   11.2426   24.3454 C.ar    1  LIG1        0.0000
     15 C          35.5753   12.1364   23.6615 C.ar    1  LIG1        0.0000
     16 C          34.2055   12.1207   23.9156 C.ar    1  LIG1        0.0000
     17 C          33.6475   11.1730   24.7996 C.ar    1  LIG1        0.0000
     18 C          34.4875   10.2907   25.5325 C.ar    1  LIG1        0.0000
     19 C          35.8678   10.4260   25.3460 C.ar    1  LIG1        0.0000
     20 N          33.9618    9.1858   26.2224 N.pl3   1  LIG1        0.0000
     21 C          34.7181    8.3046   27.1253 C.3     1  LIG1        0.0000
     22 C          35.1693    7.0153   26.3669 C.3     1  LIG1        0.0000
     23 N          35.7549    7.3439   25.0216 N.4     1  LIG1        1.0000
     24 C          36.9295    6.5927   24.5097 C.3     1  LIG1        0.0000
     25 C          38.1024    7.5253   24.1456 C.3     1  LIG1        0.0000
     26 C          37.7939    8.7117   23.2074 C.3     1  LIG1        0.0000
     27 C          33.8499    7.8990   28.3191 C.3     1  LIG1        0.0000
     28 C          32.1653   11.1266   24.9931 C.2     1  LIG1        0.0000
     29 O          31.6717   10.5746   25.9702 O.2     1  LIG1        0.0000
     30 N          31.3725   11.6928   24.0339 N.am    1  LIG1        0.0000
     31 H          40.6265    8.5230   22.7838 H       1  LIG1        0.0000
     32 H          41.6794    9.3799   23.9184 H       1  LIG1        0.0000
     33 H          41.4626    9.9892   22.2631 H       1  LIG1        0.0000
     34 H          40.7194   14.6240   23.7678 H       1  LIG1        0.0000
     35 H          41.6812   14.3640   25.2309 H       1  LIG1        0.0000
     36 H          37.4628   13.4681   25.5063 H       1  LIG1        0.0000
     37 H          38.0080   14.1652   23.9752 H       1  LIG1        0.0000
     38 H          39.0703   16.1787   24.9154 H       1  LIG1        0.0000
     39 H          40.0776   16.0845   26.3684 H       1  LIG1        0.0000
     40 H          38.3484   15.7216   26.4636 H       1  LIG1        0.0000
     41 H          39.9781   12.3490   26.7676 H       1  LIG1        0.0000
     42 H          38.8723   13.4897   27.5332 H       1  LIG1        0.0000
     43 H          40.6026   13.8570   27.4348 H       1  LIG1        0.0000
     44 H          35.9827   12.8317   22.9310 H       1  LIG1        0.0000
     45 H          33.5863   12.8480   23.3995 H       1  LIG1        0.0000
     46 H          36.5824    9.8848   25.9600 H       1  LIG1        0.0000
     47 H          32.9909    9.3893   26.5299 H       1  LIG1        0.0000
     48 H          35.5943    8.8224   27.5330 H       1  LIG1        0.0000
     49 H          34.3156    6.3612   26.1601 H       1  LIG1        0.0000
     50 H          35.9159    6.4685   26.9490 H       1  LIG1        0.0000
     51 H          36.0135    8.3221   25.0604 H       1  LIG1        0.0000
     52 H          34.9821    7.3721   24.3413 H       1  LIG1        0.0000
     53 H          36.5823    6.0187   23.6453 H       1  LIG1        0.0000
     54 H          37.2485    5.8924   25.2883 H       1  LIG1        0.0000
     55 H          38.8598    6.8964   23.6549 H       1  LIG1        0.0000
     56 H          38.5699    7.8771   25.0744 H       1  LIG1        0.0000
     57 H          38.1636    8.4658   22.2026 H       1  LIG1        0.0000
     58 H          36.7173    8.8531   23.0769 H       1  LIG1        0.0000
     59 H          32.9287    7.4045   27.9918 H       1  LIG1        0.0000
     60 H          33.5644    8.7713   28.9171 H       1  LIG1        0.0000
     61 H          34.3918    7.2066   28.9729 H       1  LIG1        0.0000
     62 H          30.3683   11.6687   24.1831 H       1  LIG1        0.0000
     63 H          31.6946   12.0617   23.1519 H       1  LIG1        0.0000
@<TRIPOS>BOND
     1     1     2    1
     2     1    31    1
     3     1    32    1
     4     1    33    1
     5     2     3   ar
     6     2     6   ar
     7     3     4   ar
     8     3    26    1
     9     4     5   ar
    10     4    14    1
    11     5     6   ar
    12     5    11    1
    13     6     7    1
    14     7     8    2
    15     7     9    1
    16     9    10    1
    17     9    34    1
    18     9    35    1
    19    10    11    1
    20    10    12    1
    21    10    13    1
    22    11    36    1
    23    11    37    1
    24    12    38    1
    25    12    39    1
    26    12    40    1
    27    13    41    1
    28    13    42    1
    29    13    43    1
    30    14    15   ar
    31    14    19   ar
    32    15    16   ar
    33    15    44    1
    34    16    17   ar
    35    16    45    1
    36    17    18   ar
    37    17    28    1
    38    18    19   ar
    39    18    20    1
    40    19    46    1
    41    20    21    1
    42    20    47    1
    43    21    22    1
    44    21    27    1
    45    21    48    1
    46    22    23    1
    47    22    49    1
    48    22    50    1
    49    23    24    1
    50    23    51    1
    51    23    52    1
    52    24    25    1
    53    24    53    1
    54    24    54    1
    55    25    26    1
    56    25    55    1
    57    25    56    1
    58    26    57    1
    59    26    58    1
    60    27    59    1
    61    27    60    1
    62    27    61    1
    63    28    29    2
    64    28    30   am
    65    30    62    1
    66    30    63    1
