3QTF_05S_A_1
 OpenBabel03301717203D

 63 66  0  0  1  0  0  0  0  0999 V2000
   40.9548    9.5138   23.1090 C   0  0  0  0  0  0  0  0  0  0  0  0
   39.8100   10.3579   23.5627 C   0  0  2  0  0  0  0  0  0  0  0  0
   38.4582   10.0105   23.6374 C   0  0  1  0  0  0  0  0  0  0  0  0
   37.7617   11.1499   24.0592 N   0  3  2  0  0  0  0  0  0  0  0  0
   38.6521   12.1718   24.2672 C   0  0  2  0  0  0  0  0  0  0  0  0
   39.9247   11.7156   23.9960 C   0  0  1  0  0  0  0  0  0  0  0  0
   41.0889   12.5717   24.2137 C   0  0  0  0  0  0  0  0  0  0  0  0
   42.2389   12.1748   24.0146 O   0  0  0  0  0  0  0  0  0  0  0  0
   40.8097   14.0066   24.6695 C   0  0  0  0  0  0  0  0  0  0  0  0
   39.5340   14.1305   25.5458 C   0  0  0  0  0  0  0  0  0  0  0  0
   38.3102   13.5235   24.8131 C   0  0  0  0  0  0  0  0  0  0  0  0
   39.2422   15.6137   25.8383 C   0  0  0  0  0  0  0  0  0  0  0  0
   39.7590   13.4138   26.8941 C   0  0  0  0  0  0  0  0  0  0  0  0
   36.3853   11.2426   24.3454 C   0  0  2  0  0  0  0  0  0  0  0  0
   35.5753   12.1364   23.6615 C   0  0  0  0  0  0  0  0  0  0  0  0
   34.2055   12.1207   23.9156 C   0  0  0  0  0  0  0  0  0  0  0  0
   33.6475   11.1730   24.7996 C   0  0  1  0  0  0  0  0  0  0  0  0
   34.4875   10.2907   25.5325 C   0  0  2  0  0  0  0  0  0  0  0  0
   35.8678   10.4260   25.3460 C   0  0  0  0  0  0  0  0  0  0  0  0
   33.9618    9.1858   26.2224 N   0  0  0  0  0  0  0  0  0  0  0  0
   34.7181    8.3046   27.1253 C   0  0  2  0  0  0  0  0  0  0  0  0
   35.1693    7.0153   26.3669 C   0  0  0  0  0  0  0  0  0  0  0  0
   35.7549    7.3439   25.0216 N   0  3  0  0  0  0  0  0  0  0  0  0
   36.9295    6.5927   24.5097 C   0  0  0  0  0  0  0  0  0  0  0  0
   38.1024    7.5253   24.1456 C   0  0  0  0  0  0  0  0  0  0  0  0
   37.7939    8.7117   23.2074 C   0  0  0  0  0  0  0  0  0  0  0  0
   33.8499    7.8990   28.3191 C   0  0  0  0  0  0  0  0  0  0  0  0
   32.1653   11.1266   24.9931 C   0  0  0  0  0  0  0  0  0  0  0  0
   31.6717   10.5746   25.9702 O   0  0  0  0  0  0  0  0  0  0  0  0
   31.3725   11.6928   24.0339 N   0  0  0  0  0  0  0  0  0  0  0  0
   40.6265    8.5230   22.7838 H   0  0  0  0  0  0  0  0  0  0  0  0
   41.6794    9.3799   23.9184 H   0  0  0  0  0  0  0  0  0  0  0  0
   41.4626    9.9892   22.2631 H   0  0  0  0  0  0  0  0  0  0  0  0
   40.7194   14.6240   23.7678 H   0  0  0  0  0  0  0  0  0  0  0  0
   41.6812   14.3640   25.2309 H   0  0  0  0  0  0  0  0  0  0  0  0
   37.4628   13.4681   25.5063 H   0  0  0  0  0  0  0  0  0  0  0  0
   38.0080   14.1652   23.9752 H   0  0  0  0  0  0  0  0  0  0  0  0
   39.0703   16.1787   24.9154 H   0  0  0  0  0  0  0  0  0  0  0  0
   40.0776   16.0845   26.3684 H   0  0  0  0  0  0  0  0  0  0  0  0
   38.3484   15.7216   26.4636 H   0  0  0  0  0  0  0  0  0  0  0  0
   39.9781   12.3490   26.7676 H   0  0  0  0  0  0  0  0  0  0  0  0
   38.8723   13.4897   27.5332 H   0  0  0  0  0  0  0  0  0  0  0  0
   40.6026   13.8570   27.4348 H   0  0  0  0  0  0  0  0  0  0  0  0
   35.9827   12.8317   22.9310 H   0  0  0  0  0  0  0  0  0  0  0  0
   33.5863   12.8480   23.3995 H   0  0  0  0  0  0  0  0  0  0  0  0
   36.5824    9.8848   25.9600 H   0  0  0  0  0  0  0  0  0  0  0  0
   32.9909    9.3893   26.5299 H   0  0  0  0  0  0  0  0  0  0  0  0
   35.5943    8.8224   27.5330 H   0  0  0  0  0  0  0  0  0  0  0  0
   34.3156    6.3612   26.1601 H   0  0  0  0  0  0  0  0  0  0  0  0
   35.9159    6.4685   26.9490 H   0  0  0  0  0  0  0  0  0  0  0  0
   36.0135    8.3221   25.0604 H   0  0  0  0  0  0  0  0  0  0  0  0
   34.9821    7.3721   24.3413 H   0  0  0  0  0  0  0  0  0  0  0  0
   36.5823    6.0187   23.6453 H   0  0  0  0  0  0  0  0  0  0  0  0
   37.2485    5.8924   25.2883 H   0  0  0  0  0  0  0  0  0  0  0  0
   38.8598    6.8964   23.6549 H   0  0  0  0  0  0  0  0  0  0  0  0
   38.5699    7.8771   25.0744 H   0  0  0  0  0  0  0  0  0  0  0  0
   38.1636    8.4658   22.2026 H   0  0  0  0  0  0  0  0  0  0  0  0
   36.7173    8.8531   23.0769 H   0  0  0  0  0  0  0  0  0  0  0  0
   32.9287    7.4045   27.9918 H   0  0  0  0  0  0  0  0  0  0  0  0
   33.5644    8.7713   28.9171 H   0  0  0  0  0  0  0  0  0  0  0  0
   34.3918    7.2066   28.9729 H   0  0  0  0  0  0  0  0  0  0  0  0
   30.3683   11.6687   24.1831 H   0  0  0  0  0  0  0  0  0  0  0  0
   31.6946   12.0617   23.1519 H   0  0  0  0  0  0  0  0  0  0  0  0
  1 31  1  0  0  0  0
  1 32  1  0  0  0  0
  1 33  1  0  0  0  0
  2  1  1  6  0  0  0
  2  3  1  0  0  0  0
  2  6  1  0  0  0  0
  3 26  1  6  0  0  0
  4  3  1  1  0  0  0
  4  5  1  0  0  0  0
  4 14  1  0  0  0  0
  5  6  1  0  0  0  0
  5 11  1  1  0  0  0
  6  7  1  1  0  0  0
  7  8  2  0  0  0  0
  7  9  1  0  0  0  0
  9 10  1  0  0  0  0
  9 34  1  0  0  0  0
  9 35  1  0  0  0  0
 10 11  1  0  0  0  0
 10 12  1  0  0  0  0
 10 13  1  0  0  0  0
 11 36  1  0  0  0  0
 11 37  1  0  0  0  0
 12 38  1  0  0  0  0
 12 39  1  0  0  0  0
 12 40  1  0  0  0  0
 13 41  1  0  0  0  0
 13 42  1  0  0  0  0
 13 43  1  0  0  0  0
 14 15  1  1  0  0  0
 14 19  1  0  0  0  0
 15 16  1  0  0  0  0
 15 44  1  0  0  0  0
 16 17  1  0  0  0  0
 16 45  1  0  0  0  0
 17 18  1  0  0  0  0
 17 28  1  1  0  0  0
 18 19  1  6  0  0  0
 18 20  1  0  0  0  0
 19 46  1  0  0  0  0
 20 21  1  0  0  0  0
 20 47  1  0  0  0  0
 21 22  1  0  0  0  0
 21 27  1  0  0  0  0
 21 48  1  1  0  0  0
 22 23  1  0  0  0  0
 22 49  1  0  0  0  0
 22 50  1  0  0  0  0
 23 24  1  0  0  0  0
 23 51  1  0  0  0  0
 23 52  1  0  0  0  0
 24 25  1  0  0  0  0
 24 53  1  0  0  0  0
 24 54  1  0  0  0  0
 25 26  1  0  0  0  0
 25 55  1  0  0  0  0
 25 56  1  0  0  0  0
 26 57  1  0  0  0  0
 26 58  1  0  0  0  0
 27 59  1  0  0  0  0
 27 60  1  0  0  0  0
 27 61  1  0  0  0  0
 28 29  2  0  0  0  0
 28 30  1  0  0  0  0
 30 62  1  0  0  0  0
 30 63  1  0  0  0  0
M  CHG  2   4   1  23   1
M  END
$$$$
