REMARK  1 active torsions:
REMARK  status: ('A' for Active; 'I' for Inactive)
REMARK    1  A    between atoms: C_17  and  C_30 
REMARK       I    between atoms: C_30  and  N_32 
ROOT
ATOM      1  C   LIG d   1      40.753   9.271  23.234  0.00  0.00     0.046 C 
ATOM      2  C   LIG d   1      39.641  10.183  23.619  0.00  0.00    -0.019 A 
ATOM      3  C   LIG d   1      38.292   9.843  23.740  0.00  0.00     0.028 A 
ATOM      4  N   LIG d   1      37.596  11.005  24.103  0.00  0.00    -0.316 N 
ATOM      5  C   LIG d   1      38.502  12.039  24.229  0.00  0.00     0.035 A 
ATOM      6  C   LIG d   1      39.766  11.560  23.949  0.00  0.00     0.042 A 
ATOM      7  C   LIG d   1      40.940  12.410  24.111  0.00  0.00     0.166 C 
ATOM      8  O   LIG d   1      42.081  11.972  23.974  0.00  0.00    -0.292 OA
ATOM      9  C   LIG d   1      40.698  13.872  24.519  0.00  0.00     0.086 C 
ATOM     10  C   LIG d   1      39.438  14.051  25.395  0.00  0.00    -0.022 C 
ATOM     11  C   LIG d   1      38.205  13.430  24.691  0.00  0.00     0.061 C 
ATOM     12  C   LIG d   1      39.178  15.544  25.640  0.00  0.00     0.011 C 
ATOM     13  C   LIG d   1      39.669  13.407  26.768  0.00  0.00     0.011 C 
ATOM     14  C   LIG d   1      36.199  11.110  24.345  0.00  0.00     0.048 A 
ATOM     15  C   LIG d   1      35.414  12.058  23.697  0.00  0.00     0.027 A 
ATOM     16  C   LIG d   1      34.035  12.061  23.925  0.00  0.00     0.017 A 
ATOM     17  C   LIG d   1      33.447  11.148  24.818  0.00  0.00     0.057 A 
ATOM     18  C   LIG d   1      34.242  10.220  25.526  0.00  0.00     0.042 A 
ATOM     19  C   LIG d   1      35.621  10.239  25.267  0.00  0.00     0.049 A 
ATOM     20  N   LIG d   1      33.676   9.303  26.392  0.00  0.00    -0.333 N 
ATOM     21  C   LIG d   1      34.357   8.327  27.239  0.00  0.00     0.154 C 
ATOM     22  C   LIG d   1      35.452   7.524  26.530  0.00  0.00     0.235 C 
ATOM     23  O   LIG d   1      36.499   7.286  27.202  0.00  0.00    -0.274 OA
ATOM     24  N   LIG d   1      35.367   7.107  25.210  0.00  0.00    -0.303 N 
ATOM     25  C   LIG d   1      36.557   6.487  24.622  0.00  0.00     0.108 C 
ATOM     26  C   LIG d   1      37.750   7.467  24.555  0.00  0.00     0.025 C 
ATOM     27  C   LIG d   1      37.631   8.506  23.434  0.00  0.00     0.055 C 
ATOM     28  C   LIG d   1      34.226   7.310  24.312  0.00  0.00     0.132 C 
ATOM     29  C   LIG d   1      33.340   7.385  27.876  0.00  0.00     0.037 C 
ATOM     30  H   LIG d   1      32.655   9.341  26.472  0.00  0.00     0.147 HD
ENDROOT
BRANCH  17  31
ATOM     31  C   LIG d   1      31.974  11.206  25.065  0.00  0.00     0.243 C 
ATOM     32  O   LIG d   1      31.462  10.758  26.078  0.00  0.00    -0.270 OA
ATOM     33  N   LIG d   1      31.215  11.778  24.076  0.00  0.00    -0.325 N 
ATOM     34  H   LIG d   1      30.212  11.848  24.196  0.00  0.00     0.145 HD
ATOM     35  H   LIG d   1      31.612  12.125  23.221  0.00  0.00     0.145 HD
ENDBRANCH  17  31
TORSDOF 1
