@<TRIPOS>MOLECULE
3R91_06H_A_1
 64 67 0 0 0
SMALL
USER_CHARGES

@<TRIPOS>ATOM
      1 C          40.7534    9.2710   23.2344 C.3     1  LIG1       -0.0373
      2 C          39.6414   10.1834   23.6188 C.ar    1  LIG1       -0.0186
      3 C          38.2923    9.8432   23.7402 C.ar    1  LIG1        0.0277
      4 N          37.5957   11.0050   24.1032 N.ar    1  LIG1       -0.3161
      5 C          38.5024   12.0385   24.2285 C.ar    1  LIG1        0.0353
      6 C          39.7662   11.5598   23.9487 C.ar    1  LIG1        0.0416
      7 C          40.9401   12.4103   24.1109 C.2     1  LIG1        0.1657
      8 O          42.0807   11.9718   23.9736 O.2     1  LIG1       -0.2920
      9 C          40.6983   13.8722   24.5186 C.3     1  LIG1        0.0160
     10 C          39.4382   14.0509   25.3946 C.3     1  LIG1       -0.0225
     11 C          38.2047   13.4300   24.6914 C.3     1  LIG1       -0.0057
     12 C          39.1785   15.5441   25.6402 C.3     1  LIG1       -0.0591
     13 C          39.6693   13.4072   26.7680 C.3     1  LIG1       -0.0591
     14 C          36.1993   11.1098   24.3451 C.ar    1  LIG1        0.0484
     15 C          35.4145   12.0579   23.6971 C.ar    1  LIG1       -0.0370
     16 C          34.0349   12.0609   23.9254 C.ar    1  LIG1       -0.0459
     17 C          33.4465   11.1484   24.8184 C.ar    1  LIG1        0.0574
     18 C          34.2423   10.2196   25.5259 C.ar    1  LIG1        0.0419
     19 C          35.6208   10.2386   25.2665 C.ar    1  LIG1       -0.0162
     20 N          33.6757    9.3034   26.3921 N.pl3   1  LIG1       -0.3325
     21 C          34.3567    8.3271   27.2389 C.3     1  LIG1        0.0946
     22 C          35.4520    7.5242   26.5297 C.2     1  LIG1        0.2353
     23 O          36.4987    7.2862   27.2019 O.2     1  LIG1       -0.2736
     24 N          35.3667    7.1067   25.2099 N.am    1  LIG1       -0.3030
     25 C          36.5574    6.4866   24.6218 C.3     1  LIG1        0.0148
     26 C          37.7500    7.4668   24.5547 C.3     1  LIG1       -0.0318
     27 C          37.6312    8.5060   23.4342 C.3     1  LIG1       -0.0103
     28 C          34.2258    7.3103   24.3123 C.3     1  LIG1        0.0032
     29 C          33.3399    7.3851   27.8756 C.3     1  LIG1       -0.0381
     30 C          31.9742   11.2055   25.0653 C.2     1  LIG1        0.2433
     31 O          31.4619   10.7576   26.0780 O.2     1  LIG1       -0.2704
     32 N          31.2151   11.7776   24.0759 N.am    1  LIG1       -0.3253
     33 H          40.3767    8.2684   23.0161 H       1  LIG1        0.0278
     34 H          41.4804    9.1933   24.0478 H       1  LIG1        0.0278
     35 H          41.2611    9.6468   22.3400 H       1  LIG1        0.0278
     36 H          40.6150   14.5009   23.6208 H       1  LIG1        0.0350
     37 H          41.5801   14.1958   25.0824 H       1  LIG1        0.0350
     38 H          37.3510   13.4383   25.3763 H       1  LIG1        0.0333
     39 H          37.9518   14.0321   23.8121 H       1  LIG1        0.0333
     40 H          39.0075   16.0681   24.6956 H       1  LIG1        0.0235
     41 H          40.0350   16.0106   26.1426 H       1  LIG1        0.0235
     42 H          38.2967   15.6801   26.2753 H       1  LIG1        0.0235
     43 H          39.8678   12.3369   26.6705 H       1  LIG1        0.0235
     44 H          38.7888   13.5361   27.4045 H       1  LIG1        0.0235
     45 H          40.5271   13.8671   27.2707 H       1  LIG1        0.0235
     46 H          35.8388   12.7699   22.9962 H       1  LIG1        0.0638
     47 H          33.4238   12.7973   23.4152 H       1  LIG1        0.0626
     48 H          36.2833    9.5778   25.8038 H       1  LIG1        0.0657
     49 H          32.6550    9.3406   26.4716 H       1  LIG1        0.1468
     50 H          34.8423    8.8840   28.0499 H       1  LIG1        0.0591
     51 H          36.3166    6.1037   23.6257 H       1  LIG1        0.0464
     52 H          36.8149    5.6279   25.2555 H       1  LIG1        0.0464
     53 H          38.6647    6.8824   24.4135 H       1  LIG1        0.0284
     54 H          37.8442    7.9856   25.5066 H       1  LIG1        0.0284
     55 H          38.0864    8.0826   22.5313 H       1  LIG1        0.0328
     56 H          36.5770    8.6765   23.2071 H       1  LIG1        0.0328
     57 H          33.3945    7.7968   24.8066 H       1  LIG1        0.0428
     58 H          33.8734    6.3377   23.9673 H       1  LIG1        0.0428
     59 H          34.5185    7.9069   23.4417 H       1  LIG1        0.0428
     60 H          32.8166    6.8009   27.1117 H       1  LIG1        0.0252
     61 H          32.5919    7.9485   28.4466 H       1  LIG1        0.0252
     62 H          33.8317    6.6850   28.5617 H       1  LIG1        0.0252
     63 H          30.2122   11.8477   24.1958 H       1  LIG1        0.1453
     64 H          31.6118   12.1248   23.2212 H       1  LIG1        0.1453
@<TRIPOS>BOND
     1     1     2    1
     2     1    33    1
     3     1    34    1
     4     1    35    1
     5     2     3   ar
     6     2     6   ar
     7     3     4   ar
     8     3    27    1
     9     4     5   ar
    10     4    14    1
    11     5     6   ar
    12     5    11    1
    13     6     7    1
    14     7     8    2
    15     7     9    1
    16     9    10    1
    17     9    36    1
    18     9    37    1
    19    10    11    1
    20    10    12    1
    21    10    13    1
    22    11    38    1
    23    11    39    1
    24    12    40    1
    25    12    41    1
    26    12    42    1
    27    13    43    1
    28    13    44    1
    29    13    45    1
    30    14    15   ar
    31    14    19   ar
    32    15    16   ar
    33    15    46    1
    34    16    17   ar
    35    16    47    1
    36    17    18   ar
    37    17    30    1
    38    18    19   ar
    39    18    20    1
    40    19    48    1
    41    20    21    1
    42    20    49    1
    43    21    22    1
    44    21    29    1
    45    21    50    1
    46    22    23    2
    47    22    24   am
    48    24    25    1
    49    24    28    1
    50    25    26    1
    51    25    51    1
    52    25    52    1
    53    26    27    1
    54    26    53    1
    55    26    54    1
    56    27    55    1
    57    27    56    1
    58    28    57    1
    59    28    58    1
    60    28    59    1
    61    29    60    1
    62    29    61    1
    63    29    62    1
    64    30    31    2
    65    30    32   am
    66    32    63    1
    67    32    64    1
