3R91_06H_A_1
 OpenBabel03301717213D

 64 67  0  0  1  0  0  0  0  0999 V2000
   40.7534    9.2710   23.2344 C   0  0  0  0  0  0  0  0  0  0  0  0
   39.6414   10.1834   23.6188 C   0  0  1  0  0  0  0  0  0  0  0  0
   38.2923    9.8432   23.7402 C   0  0  1  0  0  0  0  0  0  0  0  0
   37.5957   11.0050   24.1032 N   0  3  2  0  0  0  0  0  0  0  0  0
   38.5024   12.0385   24.2285 C   0  0  2  0  0  0  0  0  0  0  0  0
   39.7662   11.5598   23.9487 C   0  0  1  0  0  0  0  0  0  0  0  0
   40.9401   12.4103   24.1109 C   0  0  0  0  0  0  0  0  0  0  0  0
   42.0807   11.9718   23.9736 O   0  0  0  0  0  0  0  0  0  0  0  0
   40.6983   13.8722   24.5186 C   0  0  0  0  0  0  0  0  0  0  0  0
   39.4382   14.0509   25.3946 C   0  0  0  0  0  0  0  0  0  0  0  0
   38.2047   13.4300   24.6914 C   0  0  0  0  0  0  0  0  0  0  0  0
   39.1785   15.5441   25.6402 C   0  0  0  0  0  0  0  0  0  0  0  0
   39.6693   13.4072   26.7680 C   0  0  0  0  0  0  0  0  0  0  0  0
   36.1993   11.1098   24.3451 C   0  0  2  0  0  0  0  0  0  0  0  0
   35.4145   12.0579   23.6971 C   0  0  0  0  0  0  0  0  0  0  0  0
   34.0349   12.0609   23.9254 C   0  0  0  0  0  0  0  0  0  0  0  0
   33.4465   11.1484   24.8184 C   0  0  1  0  0  0  0  0  0  0  0  0
   34.2423   10.2196   25.5259 C   0  0  2  0  0  0  0  0  0  0  0  0
   35.6208   10.2386   25.2665 C   0  0  0  0  0  0  0  0  0  0  0  0
   33.6757    9.3034   26.3921 N   0  0  0  0  0  0  0  0  0  0  0  0
   34.3567    8.3271   27.2389 C   0  0  2  0  0  0  0  0  0  0  0  0
   35.4520    7.5242   26.5297 C   0  0  0  0  0  0  0  0  0  0  0  0
   36.4987    7.2862   27.2019 O   0  0  0  0  0  0  0  0  0  0  0  0
   35.3667    7.1067   25.2099 N   0  0  0  0  0  0  0  0  0  0  0  0
   36.5574    6.4866   24.6218 C   0  0  0  0  0  0  0  0  0  0  0  0
   37.7500    7.4668   24.5547 C   0  0  0  0  0  0  0  0  0  0  0  0
   37.6312    8.5060   23.4342 C   0  0  0  0  0  0  0  0  0  0  0  0
   34.2258    7.3103   24.3123 C   0  0  0  0  0  0  0  0  0  0  0  0
   33.3399    7.3851   27.8756 C   0  0  0  0  0  0  0  0  0  0  0  0
   31.9742   11.2055   25.0653 C   0  0  0  0  0  0  0  0  0  0  0  0
   31.4619   10.7576   26.0780 O   0  0  0  0  0  0  0  0  0  0  0  0
   31.2151   11.7776   24.0759 N   0  0  0  0  0  0  0  0  0  0  0  0
   40.3767    8.2684   23.0161 H   0  0  0  0  0  0  0  0  0  0  0  0
   41.4804    9.1933   24.0478 H   0  0  0  0  0  0  0  0  0  0  0  0
   41.2611    9.6468   22.3400 H   0  0  0  0  0  0  0  0  0  0  0  0
   40.6150   14.5009   23.6208 H   0  0  0  0  0  0  0  0  0  0  0  0
   41.5801   14.1958   25.0824 H   0  0  0  0  0  0  0  0  0  0  0  0
   37.3510   13.4383   25.3763 H   0  0  0  0  0  0  0  0  0  0  0  0
   37.9518   14.0321   23.8121 H   0  0  0  0  0  0  0  0  0  0  0  0
   39.0075   16.0681   24.6956 H   0  0  0  0  0  0  0  0  0  0  0  0
   40.0350   16.0106   26.1426 H   0  0  0  0  0  0  0  0  0  0  0  0
   38.2967   15.6801   26.2753 H   0  0  0  0  0  0  0  0  0  0  0  0
   39.8678   12.3369   26.6705 H   0  0  0  0  0  0  0  0  0  0  0  0
   38.7888   13.5361   27.4045 H   0  0  0  0  0  0  0  0  0  0  0  0
   40.5271   13.8671   27.2707 H   0  0  0  0  0  0  0  0  0  0  0  0
   35.8388   12.7699   22.9962 H   0  0  0  0  0  0  0  0  0  0  0  0
   33.4238   12.7973   23.4152 H   0  0  0  0  0  0  0  0  0  0  0  0
   36.2833    9.5778   25.8038 H   0  0  0  0  0  0  0  0  0  0  0  0
   32.6550    9.3406   26.4716 H   0  0  0  0  0  0  0  0  0  0  0  0
   34.8423    8.8840   28.0499 H   0  0  0  0  0  0  0  0  0  0  0  0
   36.3166    6.1037   23.6257 H   0  0  0  0  0  0  0  0  0  0  0  0
   36.8149    5.6279   25.2555 H   0  0  0  0  0  0  0  0  0  0  0  0
   38.6647    6.8824   24.4135 H   0  0  0  0  0  0  0  0  0  0  0  0
   37.8442    7.9856   25.5066 H   0  0  0  0  0  0  0  0  0  0  0  0
   38.0864    8.0826   22.5313 H   0  0  0  0  0  0  0  0  0  0  0  0
   36.5770    8.6765   23.2071 H   0  0  0  0  0  0  0  0  0  0  0  0
   33.3945    7.7968   24.8066 H   0  0  0  0  0  0  0  0  0  0  0  0
   33.8734    6.3377   23.9673 H   0  0  0  0  0  0  0  0  0  0  0  0
   34.5185    7.9069   23.4417 H   0  0  0  0  0  0  0  0  0  0  0  0
   32.8166    6.8009   27.1117 H   0  0  0  0  0  0  0  0  0  0  0  0
   32.5919    7.9485   28.4466 H   0  0  0  0  0  0  0  0  0  0  0  0
   33.8317    6.6850   28.5617 H   0  0  0  0  0  0  0  0  0  0  0  0
   30.2122   11.8477   24.1958 H   0  0  0  0  0  0  0  0  0  0  0  0
   31.6118   12.1248   23.2212 H   0  0  0  0  0  0  0  0  0  0  0  0
  1 33  1  0  0  0  0
  1 34  1  0  0  0  0
  1 35  1  0  0  0  0
  2  1  1  1  0  0  0
  2  3  1  0  0  0  0
  2  6  1  0  0  0  0
  3 27  1  6  0  0  0
  4  3  1  1  0  0  0
  4  5  1  0  0  0  0
  4 14  1  0  0  0  0
  5  6  1  0  0  0  0
  5 11  1  1  0  0  0
  6  7  1  1  0  0  0
  7  8  2  0  0  0  0
  7  9  1  0  0  0  0
  9 10  1  0  0  0  0
  9 36  1  0  0  0  0
  9 37  1  0  0  0  0
 10 11  1  0  0  0  0
 10 12  1  0  0  0  0
 10 13  1  0  0  0  0
 11 38  1  0  0  0  0
 11 39  1  0  0  0  0
 12 40  1  0  0  0  0
 12 41  1  0  0  0  0
 12 42  1  0  0  0  0
 13 43  1  0  0  0  0
 13 44  1  0  0  0  0
 13 45  1  0  0  0  0
 14 15  1  1  0  0  0
 14 19  1  0  0  0  0
 15 16  1  0  0  0  0
 15 46  1  0  0  0  0
 16 17  1  0  0  0  0
 16 47  1  0  0  0  0
 17 18  1  0  0  0  0
 17 30  1  1  0  0  0
 18 19  1  6  0  0  0
 18 20  1  0  0  0  0
 19 48  1  0  0  0  0
 20 21  1  0  0  0  0
 20 49  1  0  0  0  0
 21 22  1  0  0  0  0
 21 29  1  0  0  0  0
 21 50  1  1  0  0  0
 22 23  2  0  0  0  0
 22 24  1  0  0  0  0
 24 25  1  0  0  0  0
 24 28  1  0  0  0  0
 25 26  1  0  0  0  0
 25 51  1  0  0  0  0
 25 52  1  0  0  0  0
 26 27  1  0  0  0  0
 26 53  1  0  0  0  0
 26 54  1  0  0  0  0
 27 55  1  0  0  0  0
 27 56  1  0  0  0  0
 28 57  1  0  0  0  0
 28 58  1  0  0  0  0
 28 59  1  0  0  0  0
 29 60  1  0  0  0  0
 29 61  1  0  0  0  0
 29 62  1  0  0  0  0
 30 31  2  0  0  0  0
 30 32  1  0  0  0  0
 32 63  1  0  0  0  0
 32 64  1  0  0  0  0
M  CHG  1   4   1
M  END
$$$$
