3R92_06J_A_1
 OpenBabel03301717223D

 67 71  0  0  1  0  0  0  0  0999 V2000
    7.3004    9.1270   23.3500 C   0  0  0  0  0  0  0  0  0  0  0  0
    6.1541   10.0144   23.7076 C   0  0  2  0  0  0  0  0  0  0  0  0
    4.8002    9.6817   23.8115 C   0  0  1  0  0  0  0  0  0  0  0  0
    4.1004   10.8770   24.0369 N   0  3  2  0  0  0  0  0  0  0  0  0
    5.0077   11.8971   24.2079 C   0  0  2  0  0  0  0  0  0  0  0  0
    6.2776   11.4066   24.0056 C   0  0  1  0  0  0  0  0  0  0  0  0
    7.4608   12.2550   24.1578 C   0  0  0  0  0  0  0  0  0  0  0  0
    8.6000   11.8288   23.9983 O   0  0  0  0  0  0  0  0  0  0  0  0
    7.2082   13.7264   24.5108 C   0  0  0  0  0  0  0  0  0  0  0  0
    5.9196   13.9427   25.3470 C   0  0  0  0  0  0  0  0  0  0  0  0
    4.6907   13.2974   24.6448 C   0  0  0  0  0  0  0  0  0  0  0  0
    6.1131   13.3391   26.7529 C   0  0  0  0  0  0  0  0  0  0  0  0
    5.6646   15.4521   25.5219 C   0  0  0  0  0  0  0  0  0  0  0  0
    2.7071   10.9932   24.2349 C   0  0  2  0  0  0  0  0  0  0  0  0
    1.9198   11.8992   23.5657 C   0  0  0  0  0  0  0  0  0  0  0  0
    0.5574   11.9634   23.8868 C   0  0  0  0  0  0  0  0  0  0  0  0
   -0.0183   11.1275   24.8812 C   0  0  1  0  0  0  0  0  0  0  0  0
    0.7932   10.2502   25.5880 C   0  0  2  0  0  0  0  0  0  0  0  0
    2.1307   10.2362   25.2417 C   0  0  0  0  0  0  0  0  0  0  0  0
    0.3333    9.3443   26.5512 N   0  0  0  0  0  0  0  0  0  0  0  0
    1.1753    8.7812   27.5983 C   0  0  0  0  0  0  0  0  0  0  0  0
    1.4407    7.2941   27.2882 C   0  0  1  0  0  0  0  0  0  0  0  0
    0.1332    6.5134   27.1022 C   0  0  0  0  0  0  0  0  0  0  0  0
    0.4102    5.4530   26.0570 C   0  0  0  0  0  0  0  0  0  0  0  0
    1.8380    5.6639   25.5838 C   0  0  0  0  0  0  0  0  0  0  0  0
    2.1750    7.0882   25.9423 N   0  3  2  0  0  0  0  0  0  0  0  0
    3.6781    7.3776   25.9600 C   0  0  0  0  0  0  0  0  0  0  0  0
    4.3542    7.2467   24.5868 C   0  0  0  0  0  0  0  0  0  0  0  0
    4.1162    8.3521   23.5376 C   0  0  0  0  0  0  0  0  0  0  0  0
   -1.4919   11.1964   25.1732 C   0  0  0  0  0  0  0  0  0  0  0  0
   -1.9659   10.6761   26.1636 O   0  0  0  0  0  0  0  0  0  0  0  0
   -2.2667   11.8149   24.2503 N   0  0  0  0  0  0  0  0  0  0  0  0
    6.9729    8.1084   23.1291 H   0  0  0  0  0  0  0  0  0  0  0  0
    8.0192    9.0816   24.1747 H   0  0  0  0  0  0  0  0  0  0  0  0
    7.8186    9.5084   22.4625 H   0  0  0  0  0  0  0  0  0  0  0  0
    7.1582   14.2931   23.5729 H   0  0  0  0  0  0  0  0  0  0  0  0
    8.0779   14.0901   25.0722 H   0  0  0  0  0  0  0  0  0  0  0  0
    3.8343   13.3152   25.3287 H   0  0  0  0  0  0  0  0  0  0  0  0
    4.4203   13.8782   23.7535 H   0  0  0  0  0  0  0  0  0  0  0  0
    6.3091   12.2635   26.7157 H   0  0  0  0  0  0  0  0  0  0  0  0
    5.2210   13.4914   27.3695 H   0  0  0  0  0  0  0  0  0  0  0  0
    6.9604   13.8084   27.2655 H   0  0  0  0  0  0  0  0  0  0  0  0
    5.5214   15.9507   24.5574 H   0  0  0  0  0  0  0  0  0  0  0  0
    6.5060   15.9395   26.0283 H   0  0  0  0  0  0  0  0  0  0  0  0
    4.7675   15.6306   26.1267 H   0  0  0  0  0  0  0  0  0  0  0  0
    2.3306   12.5274   22.7720 H   0  0  0  0  0  0  0  0  0  0  0  0
   -0.0271   12.7000   23.3565 H   0  0  0  0  0  0  0  0  0  0  0  0
    2.7968    9.6181   25.7911 H   0  0  0  0  0  0  0  0  0  0  0  0
   -0.6715    9.4415   26.7664 H   0  0  0  0  0  0  0  0  0  0  0  0
    0.6712    8.8667   28.5702 H   0  0  0  0  0  0  0  0  0  0  0  0
    2.1254    9.3147   27.7258 H   0  0  0  0  0  0  0  0  0  0  0  0
    2.0614    6.8314   28.0635 H   0  0  0  0  0  0  0  0  0  0  0  0
   -0.6975    7.1387   26.7484 H   0  0  0  0  0  0  0  0  0  0  0  0
   -0.2051    6.0798   28.0482 H   0  0  0  0  0  0  0  0  0  0  0  0
   -0.2912    5.5539   25.2201 H   0  0  0  0  0  0  0  0  0  0  0  0
    0.2776    4.4473   26.4681 H   0  0  0  0  0  0  0  0  0  0  0  0
    1.9463    5.5269   24.5081 H   0  0  0  0  0  0  0  0  0  0  0  0
    2.5262    5.0193   26.1356 H   0  0  0  0  0  0  0  0  0  0  0  0
    1.6868    7.7127   25.2764 H   0  0  0  0  0  0  0  0  0  0  0  0
    4.1155    6.6861   26.6834 H   0  0  0  0  0  0  0  0  0  0  0  0
    3.8733    8.3596   26.3803 H   0  0  0  0  0  0  0  0  0  0  0  0
    4.0608    6.2884   24.1370 H   0  0  0  0  0  0  0  0  0  0  0  0
    5.4314    7.1681   24.7695 H   0  0  0  0  0  0  0  0  0  0  0  0
    4.5126    7.9860   22.5783 H   0  0  0  0  0  0  0  0  0  0  0  0
    3.0455    8.4781   23.3623 H   0  0  0  0  0  0  0  0  0  0  0  0
   -3.2658   11.8533   24.4096 H   0  0  0  0  0  0  0  0  0  0  0  0
   -1.9364   12.1754   23.3570 H   0  0  0  0  0  0  0  0  0  0  0  0
  1 33  1  0  0  0  0
  1 34  1  0  0  0  0
  1 35  1  0  0  0  0
  2  1  1  6  0  0  0
  2  3  1  0  0  0  0
  2  6  1  0  0  0  0
  3 29  1  6  0  0  0
  4  3  1  1  0  0  0
  4  5  1  0  0  0  0
  4 14  1  0  0  0  0
  5  6  1  0  0  0  0
  5 11  1  1  0  0  0
  6  7  1  1  0  0  0
  7  8  2  0  0  0  0
  7  9  1  0  0  0  0
  9 10  1  0  0  0  0
  9 36  1  0  0  0  0
  9 37  1  0  0  0  0
 10 11  1  0  0  0  0
 10 12  1  0  0  0  0
 10 13  1  0  0  0  0
 11 38  1  0  0  0  0
 11 39  1  0  0  0  0
 12 40  1  0  0  0  0
 12 41  1  0  0  0  0
 12 42  1  0  0  0  0
 13 43  1  0  0  0  0
 13 44  1  0  0  0  0
 13 45  1  0  0  0  0
 14 15  1  1  0  0  0
 14 19  1  0  0  0  0
 15 16  1  0  0  0  0
 15 46  1  0  0  0  0
 16 17  1  0  0  0  0
 16 47  1  0  0  0  0
 17 18  1  0  0  0  0
 17 30  1  1  0  0  0
 18 19  1  6  0  0  0
 18 20  1  0  0  0  0
 19 48  1  0  0  0  0
 20 21  1  0  0  0  0
 20 49  1  0  0  0  0
 21 22  1  0  0  0  0
 21 50  1  0  0  0  0
 21 51  1  0  0  0  0
 22 23  1  0  0  0  0
 22 26  1  0  0  0  0
 22 52  1  1  0  0  0
 23 24  1  0  0  0  0
 23 53  1  0  0  0  0
 23 54  1  0  0  0  0
 24 25  1  0  0  0  0
 24 55  1  0  0  0  0
 24 56  1  0  0  0  0
 25 26  1  0  0  0  0
 25 57  1  0  0  0  0
 25 58  1  0  0  0  0
 26 27  1  0  0  0  0
 26 59  1  6  0  0  0
 27 28  1  0  0  0  0
 27 60  1  0  0  0  0
 27 61  1  0  0  0  0
 28 29  1  0  0  0  0
 28 62  1  0  0  0  0
 28 63  1  0  0  0  0
 29 64  1  0  0  0  0
 29 65  1  0  0  0  0
 30 31  2  0  0  0  0
 30 32  1  0  0  0  0
 32 66  1  0  0  0  0
 32 67  1  0  0  0  0
M  CHG  2   4   1  26   1
M  END
$$$$
