@<TRIPOS>MOLECULE
3R92_06J_A_1
 67 71 0 0 0
SMALL
USER_CHARGES

@<TRIPOS>ATOM
      1 C           7.3004    9.1270   23.3500 C.3     1  LIG1        0.0000
      2 C           6.1541   10.0144   23.7076 C.ar    1  LIG1        0.0000
      3 C           4.8002    9.6817   23.8115 C.ar    1  LIG1        0.0000
      4 N           4.1004   10.8770   24.0369 N.ar    1  LIG1        0.0000
      5 C           5.0077   11.8971   24.2079 C.ar    1  LIG1        0.0000
      6 C           6.2776   11.4066   24.0056 C.ar    1  LIG1        0.0000
      7 C           7.4608   12.2550   24.1578 C.2     1  LIG1        0.0000
      8 O           8.6000   11.8288   23.9983 O.2     1  LIG1        0.0000
      9 C           7.2082   13.7264   24.5108 C.3     1  LIG1        0.0000
     10 C           5.9196   13.9427   25.3470 C.3     1  LIG1        0.0000
     11 C           4.6907   13.2974   24.6448 C.3     1  LIG1        0.0000
     12 C           6.1131   13.3391   26.7529 C.3     1  LIG1        0.0000
     13 C           5.6646   15.4521   25.5219 C.3     1  LIG1        0.0000
     14 C           2.7071   10.9932   24.2349 C.ar    1  LIG1        0.0000
     15 C           1.9198   11.8992   23.5657 C.ar    1  LIG1        0.0000
     16 C           0.5574   11.9634   23.8868 C.ar    1  LIG1        0.0000
     17 C          -0.0183   11.1275   24.8812 C.ar    1  LIG1        0.0000
     18 C           0.7932   10.2502   25.5880 C.ar    1  LIG1        0.0000
     19 C           2.1307   10.2362   25.2417 C.ar    1  LIG1        0.0000
     20 N           0.3333    9.3443   26.5512 N.pl3   1  LIG1        0.0000
     21 C           1.1753    8.7812   27.5983 C.3     1  LIG1        0.0000
     22 C           1.4407    7.2941   27.2882 C.3     1  LIG1        0.0000
     23 C           0.1332    6.5134   27.1022 C.3     1  LIG1        0.0000
     24 C           0.4102    5.4530   26.0570 C.3     1  LIG1        0.0000
     25 C           1.8380    5.6639   25.5838 C.3     1  LIG1        0.0000
     26 N           2.1750    7.0882   25.9423 N.4     1  LIG1        1.0000
     27 C           3.6781    7.3776   25.9600 C.3     1  LIG1        0.0000
     28 C           4.3542    7.2467   24.5868 C.3     1  LIG1        0.0000
     29 C           4.1162    8.3521   23.5376 C.3     1  LIG1        0.0000
     30 C          -1.4919   11.1964   25.1732 C.2     1  LIG1        0.0000
     31 O          -1.9659   10.6761   26.1636 O.2     1  LIG1        0.0000
     32 N          -2.2667   11.8149   24.2503 N.am    1  LIG1        0.0000
     33 H           6.9729    8.1084   23.1291 H       1  LIG1        0.0000
     34 H           8.0192    9.0816   24.1747 H       1  LIG1        0.0000
     35 H           7.8186    9.5084   22.4625 H       1  LIG1        0.0000
     36 H           7.1582   14.2931   23.5729 H       1  LIG1        0.0000
     37 H           8.0779   14.0901   25.0722 H       1  LIG1        0.0000
     38 H           3.8343   13.3152   25.3287 H       1  LIG1        0.0000
     39 H           4.4203   13.8782   23.7535 H       1  LIG1        0.0000
     40 H           6.3091   12.2635   26.7157 H       1  LIG1        0.0000
     41 H           5.2210   13.4914   27.3695 H       1  LIG1        0.0000
     42 H           6.9604   13.8084   27.2655 H       1  LIG1        0.0000
     43 H           5.5214   15.9507   24.5574 H       1  LIG1        0.0000
     44 H           6.5060   15.9395   26.0283 H       1  LIG1        0.0000
     45 H           4.7675   15.6306   26.1267 H       1  LIG1        0.0000
     46 H           2.3306   12.5274   22.7720 H       1  LIG1        0.0000
     47 H          -0.0271   12.7000   23.3565 H       1  LIG1        0.0000
     48 H           2.7968    9.6181   25.7911 H       1  LIG1        0.0000
     49 H          -0.6715    9.4415   26.7664 H       1  LIG1        0.0000
     50 H           0.6712    8.8667   28.5702 H       1  LIG1        0.0000
     51 H           2.1254    9.3147   27.7258 H       1  LIG1        0.0000
     52 H           2.0614    6.8314   28.0635 H       1  LIG1        0.0000
     53 H          -0.6975    7.1387   26.7484 H       1  LIG1        0.0000
     54 H          -0.2051    6.0798   28.0482 H       1  LIG1        0.0000
     55 H          -0.2912    5.5539   25.2201 H       1  LIG1        0.0000
     56 H           0.2776    4.4473   26.4681 H       1  LIG1        0.0000
     57 H           1.9463    5.5269   24.5081 H       1  LIG1        0.0000
     58 H           2.5262    5.0193   26.1356 H       1  LIG1        0.0000
     59 H           1.6868    7.7127   25.2764 H       1  LIG1        0.0000
     60 H           4.1155    6.6861   26.6834 H       1  LIG1        0.0000
     61 H           3.8733    8.3596   26.3803 H       1  LIG1        0.0000
     62 H           4.0608    6.2884   24.1370 H       1  LIG1        0.0000
     63 H           5.4314    7.1681   24.7695 H       1  LIG1        0.0000
     64 H           4.5126    7.9860   22.5783 H       1  LIG1        0.0000
     65 H           3.0455    8.4781   23.3623 H       1  LIG1        0.0000
     66 H          -3.2658   11.8533   24.4096 H       1  LIG1        0.0000
     67 H          -1.9364   12.1754   23.3570 H       1  LIG1        0.0000
@<TRIPOS>BOND
     1     1     2    1
     2     1    33    1
     3     1    34    1
     4     1    35    1
     5     2     3   ar
     6     2     6   ar
     7     3     4   ar
     8     3    29    1
     9     4     5   ar
    10     4    14    1
    11     5     6   ar
    12     5    11    1
    13     6     7    1
    14     7     8    2
    15     7     9    1
    16     9    10    1
    17     9    36    1
    18     9    37    1
    19    10    11    1
    20    10    12    1
    21    10    13    1
    22    11    38    1
    23    11    39    1
    24    12    40    1
    25    12    41    1
    26    12    42    1
    27    13    43    1
    28    13    44    1
    29    13    45    1
    30    14    15   ar
    31    14    19   ar
    32    15    16   ar
    33    15    46    1
    34    16    17   ar
    35    16    47    1
    36    17    18   ar
    37    17    30    1
    38    18    19   ar
    39    18    20    1
    40    19    48    1
    41    20    21    1
    42    20    49    1
    43    21    22    1
    44    21    50    1
    45    21    51    1
    46    22    23    1
    47    22    26    1
    48    22    52    1
    49    23    24    1
    50    23    53    1
    51    23    54    1
    52    24    25    1
    53    24    55    1
    54    24    56    1
    55    25    26    1
    56    25    57    1
    57    25    58    1
    58    26    27    1
    59    26    59    1
    60    27    28    1
    61    27    60    1
    62    27    61    1
    63    28    29    1
    64    28    62    1
    65    28    63    1
    66    29    64    1
    67    29    65    1
    68    30    31    2
    69    30    32   am
    70    32    66    1
    71    32    67    1
