REMARK  1 active torsions:
REMARK  status: ('A' for Active; 'I' for Inactive)
REMARK    1  A    between atoms: C_17  and  C_30 
REMARK       I    between atoms: C_30  and  N_32 
ROOT
ATOM      1  C   LIG d   1       7.300   9.127  23.350  0.00  0.00     0.000 C 
ATOM      2  C   LIG d   1       6.154  10.014  23.708  0.00  0.00     0.000 A 
ATOM      3  C   LIG d   1       4.800   9.682  23.811  0.00  0.00     0.000 A 
ATOM      4  N   LIG d   1       4.100  10.877  24.037  0.00  0.00     0.000 N 
ATOM      5  C   LIG d   1       5.008  11.897  24.208  0.00  0.00     0.000 A 
ATOM      6  C   LIG d   1       6.278  11.407  24.006  0.00  0.00     0.000 A 
ATOM      7  C   LIG d   1       7.461  12.255  24.158  0.00  0.00     0.000 C 
ATOM      8  O   LIG d   1       8.600  11.829  23.998  0.00  0.00     0.000 OA
ATOM      9  C   LIG d   1       7.208  13.726  24.511  0.00  0.00     0.000 C 
ATOM     10  C   LIG d   1       5.920  13.943  25.347  0.00  0.00     0.000 C 
ATOM     11  C   LIG d   1       4.691  13.297  24.645  0.00  0.00     0.000 C 
ATOM     12  C   LIG d   1       6.113  13.339  26.753  0.00  0.00     0.000 C 
ATOM     13  C   LIG d   1       5.665  15.452  25.522  0.00  0.00     0.000 C 
ATOM     14  C   LIG d   1       2.707  10.993  24.235  0.00  0.00     0.000 A 
ATOM     15  C   LIG d   1       1.920  11.899  23.566  0.00  0.00     0.000 A 
ATOM     16  C   LIG d   1       0.557  11.963  23.887  0.00  0.00     0.000 A 
ATOM     17  C   LIG d   1      -0.018  11.127  24.881  0.00  0.00     0.000 A 
ATOM     18  C   LIG d   1       0.793  10.250  25.588  0.00  0.00     0.000 A 
ATOM     19  C   LIG d   1       2.131  10.236  25.242  0.00  0.00     0.000 A 
ATOM     20  N   LIG d   1       0.333   9.344  26.551  0.00  0.00     0.000 N 
ATOM     21  C   LIG d   1       1.175   8.781  27.598  0.00  0.00     0.000 C 
ATOM     22  C   LIG d   1       1.441   7.294  27.288  0.00  0.00     0.000 C 
ATOM     23  C   LIG d   1       0.133   6.513  27.102  0.00  0.00     0.000 C 
ATOM     24  C   LIG d   1       0.410   5.453  26.057  0.00  0.00     0.000 C 
ATOM     25  C   LIG d   1       1.838   5.664  25.584  0.00  0.00     0.000 C 
ATOM     26  N   LIG d   1       2.175   7.088  25.942  0.00  0.00     1.000 N 
ATOM     27  C   LIG d   1       3.678   7.378  25.960  0.00  0.00     0.000 C 
ATOM     28  C   LIG d   1       4.354   7.247  24.587  0.00  0.00     0.000 C 
ATOM     29  C   LIG d   1       4.116   8.352  23.538  0.00  0.00     0.000 C 
ATOM     30  H   LIG d   1      -0.671   9.441  26.766  0.00  0.00     0.000 HD
ATOM     31  H   LIG d   1       1.687   7.713  25.276  0.00  0.00     0.000 HD
ENDROOT
BRANCH  17  32
ATOM     32  C   LIG d   1      -1.492  11.196  25.173  0.00  0.00     0.000 C 
ATOM     33  O   LIG d   1      -1.966  10.676  26.164  0.00  0.00     0.000 OA
ATOM     34  N   LIG d   1      -2.267  11.815  24.250  0.00  0.00     0.000 N 
ATOM     35  H   LIG d   1      -3.266  11.853  24.410  0.00  0.00     0.000 HD
ATOM     36  H   LIG d   1      -1.936  12.175  23.357  0.00  0.00     0.000 HD
ENDBRANCH  17  32
TORSDOF 1
