@<TRIPOS>MOLECULE
3RKZ_06T_A_1
 76 79 0 0 0
SMALL
USER_CHARGES

@<TRIPOS>ATOM
      1 C           7.1592    9.3451   23.3310 C.3     1  LIG1        0.0000
      2 C           6.0085   10.2096   23.7041 C.ar    1  LIG1        0.0000
      3 C           4.6680    9.8519   23.7935 C.ar    1  LIG1        0.0000
      4 N           3.9420   10.9874   24.1576 N.ar    1  LIG1        0.0000
      5 C           4.8211   12.0325   24.3044 C.ar    1  LIG1        0.0000
      6 C           6.0971   11.5813   24.0420 C.ar    1  LIG1        0.0000
      7 C           7.2614   12.4454   24.2163 C.2     1  LIG1        0.0000
      8 O           8.4052   12.0246   24.0739 O.2     1  LIG1        0.0000
      9 C           6.9924   13.8774   24.6732 C.3     1  LIG1        0.0000
     10 C           5.6952   14.0209   25.4966 C.3     1  LIG1        0.0000
     11 C           4.4830   13.4117   24.7595 C.3     1  LIG1        0.0000
     12 C           5.8822   13.3285   26.8481 C.3     1  LIG1        0.0000
     13 C           5.4309   15.5023   25.7599 C.3     1  LIG1        0.0000
     14 C           2.5519   11.0658   24.3864 C.ar    1  LIG1        0.0000
     15 C           1.7503   11.9883   23.7273 C.ar    1  LIG1        0.0000
     16 C           0.3699   11.9804   23.9684 C.ar    1  LIG1        0.0000
     17 C          -0.2048   11.0783   24.8846 C.ar    1  LIG1        0.0000
     18 C           0.6195   10.1818   25.5827 C.ar    1  LIG1        0.0000
     19 C           1.9931   10.2048   25.3086 C.ar    1  LIG1        0.0000
     20 N           0.1285    9.2237   26.4525 N.pl3   1  LIG1        0.0000
     21 C           0.8601    8.0265   26.8268 C.3     1  LIG1        0.0000
     22 C           1.2356    7.2031   25.5734 C.3     1  LIG1        0.0000
     23 C           2.4168    6.2756   25.8630 C.3     1  LIG1        0.0000
     24 N           3.4519    6.3672   24.8184 N.am    1  LIG1        0.0000
     25 C           4.2521    7.5955   24.7570 C.3     1  LIG1        0.0000
     26 C           4.0479    8.4978   23.5314 C.3     1  LIG1        0.0000
     27 C           3.7160    5.3665   23.9181 C.2     1  LIG1        0.0000
     28 O           4.5577    5.4557   23.0275 O.2     1  LIG1        0.0000
     29 C           2.9200    4.0647   23.9941 C.3     1  LIG1        0.0000
     30 C           3.5355    3.1288   25.0050 C.3     1  LIG1        0.0000
     31 N           3.0232    3.4121   22.6534 N.4     1  LIG1        1.0000
     32 C           0.0734    6.4560   24.9538 C.3     1  LIG1        0.0000
     33 C           0.0617    7.2969   27.8887 C.3     1  LIG1        0.0000
     34 C          -1.6833   11.1106   25.1876 C.2     1  LIG1        0.0000
     35 O          -2.1752   10.6568   26.1811 O.2     1  LIG1        0.0000
     36 N          -2.4532   11.7232   24.2237 N.am    1  LIG1        0.0000
     37 H           6.8241    8.3295   23.1066 H       1  LIG1        0.0000
     38 H           7.8814    9.2990   24.1514 H       1  LIG1        0.0000
     39 H           7.6565    9.7496   22.4432 H       1  LIG1        0.0000
     40 H           6.9543   14.5432   23.8028 H       1  LIG1        0.0000
     41 H           7.8414   14.1735   25.3010 H       1  LIG1        0.0000
     42 H           3.6139   13.4102   25.4273 H       1  LIG1        0.0000
     43 H           4.2402   14.0203   23.8787 H       1  LIG1        0.0000
     44 H           6.0775   12.2604   26.7140 H       1  LIG1        0.0000
     45 H           4.9825   13.4378   27.4621 H       1  LIG1        0.0000
     46 H           6.7290   13.7635   27.3884 H       1  LIG1        0.0000
     47 H           5.2901   16.0435   24.8177 H       1  LIG1        0.0000
     48 H           6.2761   15.9507   26.2952 H       1  LIG1        0.0000
     49 H           4.5288   15.6249   26.3698 H       1  LIG1        0.0000
     50 H           2.1776   12.6923   23.0180 H       1  LIG1        0.0000
     51 H          -0.2458   12.7034   23.4420 H       1  LIG1        0.0000
     52 H           2.6465    9.5558   25.8662 H       1  LIG1        0.0000
     53 H          -0.7775    9.4289   26.8838 H       1  LIG1        0.0000
     54 H           1.8093    8.3072   27.2913 H       1  LIG1        0.0000
     55 H           1.5647    7.9005   24.8065 H       1  LIG1        0.0000
     56 H           2.0668    5.2472   25.9414 H       1  LIG1        0.0000
     57 H           2.8936    6.5194   26.8175 H       1  LIG1        0.0000
     58 H           5.3105    7.3194   24.8057 H       1  LIG1        0.0000
     59 H           4.0214    8.1730   25.6492 H       1  LIG1        0.0000
     60 H           4.5163    8.0391   22.6501 H       1  LIG1        0.0000
     61 H           2.9852    8.6095   23.3100 H       1  LIG1        0.0000
     62 H           1.8658    4.2288   24.2219 H       1  LIG1        0.0000
     63 H           4.5802    2.9311   24.7468 H       1  LIG1        0.0000
     64 H           2.9898    2.1798   25.0351 H       1  LIG1        0.0000
     65 H           3.5075    3.5784   26.0008 H       1  LIG1        0.0000
     66 H           4.0215    3.2811   22.4250 H       1  LIG1        0.0000
     67 H           2.6478    4.0337   21.9253 H       1  LIG1        0.0000
     68 H           2.5458    2.5081   22.6211 H       1  LIG1        0.0000
     69 H          -0.3096    5.7030   25.6458 H       1  LIG1        0.0000
     70 H           0.3927    5.9544   24.0333 H       1  LIG1        0.0000
     71 H          -0.7305    7.1524   24.7022 H       1  LIG1        0.0000
     72 H          -0.9350    7.0307   27.5209 H       1  LIG1        0.0000
     73 H          -0.0681    7.9386   28.7723 H       1  LIG1        0.0000
     74 H           0.5832    6.3891   28.1975 H       1  LIG1        0.0000
     75 H          -3.4494   11.8081   24.3857 H       1  LIG1        0.0000
     76 H          -2.0622   12.0898   23.3766 H       1  LIG1        0.0000
@<TRIPOS>BOND
     1     1     2    1
     2     1    37    1
     3     1    38    1
     4     1    39    1
     5     2     3   ar
     6     2     6   ar
     7     3     4   ar
     8     3    26    1
     9     4     5   ar
    10     4    14    1
    11     5     6   ar
    12     5    11    1
    13     6     7    1
    14     7     8    2
    15     7     9    1
    16     9    10    1
    17     9    40    1
    18     9    41    1
    19    10    11    1
    20    10    12    1
    21    10    13    1
    22    11    42    1
    23    11    43    1
    24    12    44    1
    25    12    45    1
    26    12    46    1
    27    13    47    1
    28    13    48    1
    29    13    49    1
    30    14    15   ar
    31    14    19   ar
    32    15    16   ar
    33    15    50    1
    34    16    17   ar
    35    16    51    1
    36    17    18   ar
    37    17    34    1
    38    18    19   ar
    39    18    20    1
    40    19    52    1
    41    20    21    1
    42    20    53    1
    43    21    22    1
    44    21    33    1
    45    21    54    1
    46    22    23    1
    47    22    32    1
    48    22    55    1
    49    23    24    1
    50    23    56    1
    51    23    57    1
    52    24    25    1
    53    24    27   am
    54    25    26    1
    55    25    58    1
    56    25    59    1
    57    26    60    1
    58    26    61    1
    59    27    28    2
    60    27    29    1
    61    29    30    1
    62    29    31    1
    63    29    62    1
    64    30    63    1
    65    30    64    1
    66    30    65    1
    67    31    66    1
    68    31    67    1
    69    31    68    1
    70    32    69    1
    71    32    70    1
    72    32    71    1
    73    33    72    1
    74    33    73    1
    75    33    74    1
    76    34    35    2
    77    34    36   am
    78    36    75    1
    79    36    76    1
