REMARK  3 active torsions:
REMARK  status: ('A' for Active; 'I' for Inactive)
REMARK    1  A    between atoms: C_17  and  C_34 
REMARK       I    between atoms: N_24  and  C_27 
REMARK    2  A    between atoms: C_27  and  C_29 
REMARK    3  A    between atoms: C_29  and  N_31 
REMARK       I    between atoms: C_34  and  N_36 
ROOT
ATOM      1  C   LIG d   1       7.159   9.345  23.331  0.00  0.00     0.000 C 
ATOM      2  C   LIG d   1       6.008  10.210  23.704  0.00  0.00     0.000 A 
ATOM      3  C   LIG d   1       4.668   9.852  23.794  0.00  0.00     0.000 A 
ATOM      4  N   LIG d   1       3.942  10.987  24.158  0.00  0.00     0.000 N 
ATOM      5  C   LIG d   1       4.821  12.033  24.304  0.00  0.00     0.000 A 
ATOM      6  C   LIG d   1       6.097  11.581  24.042  0.00  0.00     0.000 A 
ATOM      7  C   LIG d   1       7.261  12.445  24.216  0.00  0.00     0.000 C 
ATOM      8  O   LIG d   1       8.405  12.025  24.074  0.00  0.00     0.000 OA
ATOM      9  C   LIG d   1       6.992  13.877  24.673  0.00  0.00     0.000 C 
ATOM     10  C   LIG d   1       5.695  14.021  25.497  0.00  0.00     0.000 C 
ATOM     11  C   LIG d   1       4.483  13.412  24.759  0.00  0.00     0.000 C 
ATOM     12  C   LIG d   1       5.882  13.329  26.848  0.00  0.00     0.000 C 
ATOM     13  C   LIG d   1       5.431  15.502  25.760  0.00  0.00     0.000 C 
ATOM     14  C   LIG d   1       2.552  11.066  24.386  0.00  0.00     0.000 A 
ATOM     15  C   LIG d   1       1.750  11.988  23.727  0.00  0.00     0.000 A 
ATOM     16  C   LIG d   1       0.370  11.980  23.968  0.00  0.00     0.000 A 
ATOM     17  C   LIG d   1      -0.205  11.078  24.885  0.00  0.00     0.000 A 
ATOM     18  C   LIG d   1       0.620  10.182  25.583  0.00  0.00     0.000 A 
ATOM     19  C   LIG d   1       1.993  10.205  25.309  0.00  0.00     0.000 A 
ATOM     20  N   LIG d   1       0.129   9.224  26.453  0.00  0.00     0.000 N 
ATOM     21  C   LIG d   1       0.860   8.027  26.827  0.00  0.00     0.000 C 
ATOM     22  C   LIG d   1       1.236   7.203  25.573  0.00  0.00     0.000 C 
ATOM     23  C   LIG d   1       2.417   6.276  25.863  0.00  0.00     0.000 C 
ATOM     24  N   LIG d   1       3.452   6.367  24.818  0.00  0.00     0.000 N 
ATOM     25  C   LIG d   1       4.252   7.596  24.757  0.00  0.00     0.000 C 
ATOM     26  C   LIG d   1       4.048   8.498  23.531  0.00  0.00     0.000 C 
ATOM     27  C   LIG d   1       3.716   5.367  23.918  0.00  0.00     0.000 C 
ATOM     28  O   LIG d   1       4.558   5.456  23.027  0.00  0.00     0.000 OA
ATOM     29  C   LIG d   1       0.073   6.456  24.954  0.00  0.00     0.000 C 
ATOM     30  C   LIG d   1       0.062   7.297  27.889  0.00  0.00     0.000 C 
ATOM     31  H   LIG d   1      -0.777   9.429  26.884  0.00  0.00     0.000 HD
ENDROOT
BRANCH  27  32
ATOM     32  C   LIG d   1       2.920   4.065  23.994  0.00  0.00     0.000 C 
ATOM     33  C   LIG d   1       3.535   3.129  25.005  0.00  0.00     0.000 C 
BRANCH  32  34
ATOM     34  N   LIG d   1       3.023   3.412  22.653  0.00  0.00     1.000 N 
ATOM     35  H   LIG d   1       4.021   3.281  22.425  0.00  0.00     0.000 HD
ATOM     36  H   LIG d   1       2.648   4.034  21.925  0.00  0.00     0.000 HD
ATOM     37  H   LIG d   1       2.546   2.508  22.621  0.00  0.00     0.000 HD
ENDBRANCH  32  34
ENDBRANCH  27  32
BRANCH  17  38
ATOM     38  C   LIG d   1      -1.683  11.111  25.188  0.00  0.00     0.000 C 
ATOM     39  O   LIG d   1      -2.175  10.657  26.181  0.00  0.00     0.000 OA
ATOM     40  N   LIG d   1      -2.453  11.723  24.224  0.00  0.00     0.000 N 
ATOM     41  H   LIG d   1      -3.449  11.808  24.386  0.00  0.00     0.000 HD
ATOM     42  H   LIG d   1      -2.062  12.090  23.377  0.00  0.00     0.000 HD
ENDBRANCH  17  38
TORSDOF 3
