@<TRIPOS>MOLECULE
4EGH_0OY_A_302
 28 29 0 0 0
SMALL
USER_CHARGES

@<TRIPOS>ATOM
      1 O           2.4234   10.3576  -27.0046 O.2     1  LIG1       -0.2700
      2 C           1.6503    9.8927  -26.1988 C.2     1  LIG1        0.2467
      3 N           0.9456    8.7000  -26.3796 N.am    1  LIG1       -0.2932
      4 C           0.0904    8.0551  -25.3955 C.3     1  LIG1        0.0385
      5 C           0.4517    6.5820  -25.3497 C.3     1  LIG1        0.0635
      6 O           0.2948    5.9670  -26.6413 O.3     1  LIG1       -0.3767
      7 C           1.3043    6.5220  -27.5054 C.3     1  LIG1        0.0635
      8 C           1.0019    8.0041  -27.6695 C.3     1  LIG1        0.0385
      9 C           1.4399   10.6246  -24.9131 C.ar    1  LIG1        0.0371
     10 C           0.1888   11.0579  -24.4734 C.ar    1  LIG1       -0.0462
     11 C           0.0787   11.7685  -23.2594 C.ar    1  LIG1       -0.0195
     12 C           1.2222   12.0316  -22.4909 C.ar    1  LIG1        0.1169
     13 O           1.1404   12.6841  -21.2889 O.3     1  LIG1       -0.5068
     14 C           2.4621   11.6100  -22.9462 C.ar    1  LIG1       -0.0195
     15 C           2.5672   10.9221  -24.1549 C.ar    1  LIG1       -0.0462
     16 H          -0.9504    8.1858  -25.7168 H       1  LIG1        0.0487
     17 H           0.2130    8.4930  -24.4039 H       1  LIG1        0.0487
     18 H          -0.1878    6.0554  -24.6495 H       1  LIG1        0.0575
     19 H           1.5004    6.4788  -25.0418 H       1  LIG1        0.0575
     20 H           1.2742    6.0001  -28.4686 H       1  LIG1        0.0575
     21 H           2.2926    6.3533  -27.0525 H       1  LIG1        0.0575
     22 H           1.7402    8.4558  -28.3193 H       1  LIG1        0.0487
     23 H          -0.0013    8.1016  -28.0988 H       1  LIG1        0.0487
     24 H          -0.6941   10.8430  -25.0766 H       1  LIG1        0.0626
     25 H          -0.9060   12.1015  -22.9366 H       1  LIG1        0.0654
     26 H           2.0239   12.7627  -20.8786 H       1  LIG1        0.2921
     27 H           3.3572   11.8046  -22.3757 H       1  LIG1        0.0654
     28 H           3.5365   10.6155  -24.5208 H       1  LIG1        0.0626
@<TRIPOS>BOND
     1     1     2    2
     2     2     3   am
     3     2     9    1
     4     3     4    1
     5     3     8    1
     6     4     5    1
     7     4    16    1
     8     4    17    1
     9     5     6    1
    10     5    18    1
    11     5    19    1
    12     6     7    1
    13     7     8    1
    14     7    20    1
    15     7    21    1
    16     8    22    1
    17     8    23    1
    18     9    10   ar
    19     9    15   ar
    20    10    11   ar
    21    10    24    1
    22    11    12   ar
    23    11    25    1
    24    12    13    1
    25    12    14   ar
    26    13    26    1
    27    14    15   ar
    28    14    27    1
    29    15    28    1
