REMARK  2 active torsions:
REMARK  status: ('A' for Active; 'I' for Inactive)
REMARK       I    between atoms: C_2  and  N_3 
REMARK    1  A    between atoms: C_2  and  C_9 
REMARK    2  A    between atoms: C_12  and  O_13 
ROOT
ATOM      1  C   LIG d   1       1.440  10.625 -24.913  0.00  0.00     0.037 A 
ATOM      2  C   LIG d   1       0.189  11.058 -24.473  0.00  0.00     0.016 A 
ATOM      3  C   LIG d   1       0.079  11.768 -23.259  0.00  0.00     0.046 A 
ATOM      4  C   LIG d   1       1.222  12.032 -22.491  0.00  0.00     0.117 A 
ATOM      5  C   LIG d   1       2.462  11.610 -22.946  0.00  0.00     0.046 A 
ATOM      6  C   LIG d   1       2.567  10.922 -24.155  0.00  0.00     0.016 A 
ENDROOT
BRANCH   1   7
ATOM      7  C   LIG d   1       1.650   9.893 -26.199  0.00  0.00     0.247 C 
ATOM      8  O   LIG d   1       2.423  10.358 -27.005  0.00  0.00    -0.270 OA
ATOM      9  N   LIG d   1       0.946   8.700 -26.380  0.00  0.00    -0.293 N 
ATOM     10  C   LIG d   1       0.090   8.055 -25.395  0.00  0.00     0.136 C 
ATOM     11  C   LIG d   1       1.002   8.004 -27.669  0.00  0.00     0.136 C 
ATOM     12  C   LIG d   1       0.452   6.582 -25.350  0.00  0.00     0.178 C 
ATOM     13  O   LIG d   1       0.295   5.967 -26.641  0.00  0.00    -0.377 OA
ATOM     14  C   LIG d   1       1.304   6.522 -27.505  0.00  0.00     0.178 C 
ENDBRANCH   1   7
BRANCH   4  15
ATOM     15  O   LIG d   1       1.140  12.684 -21.289  0.00  0.00    -0.507 OA
ATOM     16  H   LIG d   1       2.024  12.763 -20.879  0.00  0.00     0.292 HD
ENDBRANCH   4  15
TORSDOF 2
