4EGH_0OY_A_302
 OpenBabel03301717293D

 28 29  0  0  0  0  0  0  0  0999 V2000
    2.4234   10.3576  -27.0046 O   0  0  0  0  0  0  0  0  0  0  0  0
    1.6503    9.8927  -26.1988 C   0  0  0  0  0  0  0  0  0  0  0  0
    0.9456    8.7000  -26.3796 N   0  0  0  0  0  0  0  0  0  0  0  0
    0.0904    8.0551  -25.3955 C   0  0  0  0  0  0  0  0  0  0  0  0
    0.4517    6.5820  -25.3497 C   0  0  0  0  0  0  0  0  0  0  0  0
    0.2948    5.9670  -26.6413 O   0  0  0  0  0  0  0  0  0  0  0  0
    1.3043    6.5220  -27.5054 C   0  0  0  0  0  0  0  0  0  0  0  0
    1.0019    8.0041  -27.6695 C   0  0  0  0  0  0  0  0  0  0  0  0
    1.4399   10.6246  -24.9131 C   0  0  0  0  0  0  0  0  0  0  0  0
    0.1888   11.0579  -24.4734 C   0  0  0  0  0  0  0  0  0  0  0  0
    0.0787   11.7685  -23.2594 C   0  0  0  0  0  0  0  0  0  0  0  0
    1.2222   12.0316  -22.4909 C   0  0  0  0  0  0  0  0  0  0  0  0
    1.1404   12.6841  -21.2889 O   0  0  0  0  0  0  0  0  0  0  0  0
    2.4621   11.6100  -22.9462 C   0  0  0  0  0  0  0  0  0  0  0  0
    2.5672   10.9221  -24.1549 C   0  0  0  0  0  0  0  0  0  0  0  0
   -0.9504    8.1858  -25.7168 H   0  0  0  0  0  0  0  0  0  0  0  0
    0.2130    8.4930  -24.4039 H   0  0  0  0  0  0  0  0  0  0  0  0
   -0.1878    6.0554  -24.6495 H   0  0  0  0  0  0  0  0  0  0  0  0
    1.5004    6.4788  -25.0418 H   0  0  0  0  0  0  0  0  0  0  0  0
    1.2742    6.0001  -28.4686 H   0  0  0  0  0  0  0  0  0  0  0  0
    2.2926    6.3533  -27.0525 H   0  0  0  0  0  0  0  0  0  0  0  0
    1.7402    8.4558  -28.3193 H   0  0  0  0  0  0  0  0  0  0  0  0
   -0.0013    8.1016  -28.0988 H   0  0  0  0  0  0  0  0  0  0  0  0
   -0.6941   10.8430  -25.0766 H   0  0  0  0  0  0  0  0  0  0  0  0
   -0.9060   12.1015  -22.9366 H   0  0  0  0  0  0  0  0  0  0  0  0
    2.0239   12.7627  -20.8786 H   0  0  0  0  0  0  0  0  0  0  0  0
    3.3572   11.8046  -22.3757 H   0  0  0  0  0  0  0  0  0  0  0  0
    3.5365   10.6155  -24.5208 H   0  0  0  0  0  0  0  0  0  0  0  0
  1  2  2  0  0  0  0
  2  3  1  0  0  0  0
  2  9  1  0  0  0  0
  3  4  1  0  0  0  0
  3  8  1  0  0  0  0
  4  5  1  0  0  0  0
  4 16  1  0  0  0  0
  4 17  1  0  0  0  0
  5  6  1  0  0  0  0
  5 18  1  0  0  0  0
  5 19  1  0  0  0  0
  6  7  1  0  0  0  0
  7  8  1  0  0  0  0
  7 20  1  0  0  0  0
  7 21  1  0  0  0  0
  8 22  1  0  0  0  0
  8 23  1  0  0  0  0
  9 10  2  0  0  0  0
  9 15  1  0  0  0  0
 10 11  1  0  0  0  0
 10 24  1  0  0  0  0
 11 12  2  0  0  0  0
 11 25  1  0  0  0  0
 12 13  1  0  0  0  0
 12 14  1  0  0  0  0
 13 26  1  0  0  0  0
 14 15  2  0  0  0  0
 14 27  1  0  0  0  0
 15 28  1  0  0  0  0
M  END
$$$$
