@<TRIPOS>MOLECULE
4FCR_0TM_A_301
 47 49 0 0 0
SMALL
USER_CHARGES

@<TRIPOS>ATOM
      1 C          33.7141    6.8441   23.3188 C.3     1  LIG1        0.0790
      2 O          34.5151    8.0181   23.4275 O.3     1  LIG1       -0.4914
      3 C          33.8909    9.2155   23.7050 C.ar    1  LIG1        0.1622
      4 C          32.5613    9.3234   24.1442 C.ar    1  LIG1       -0.0057
      5 C          34.6581   10.3913   23.5828 C.ar    1  LIG1        0.1629
      6 O          35.9773   10.2378   23.1983 O.3     1  LIG1       -0.4914
      7 C          36.8586   11.2925   23.5634 C.3     1  LIG1        0.0790
      8 C          34.0670   11.6447   23.8333 C.ar    1  LIG1        0.0027
      9 C          32.7377   11.7453   24.2595 C.ar    1  LIG1        0.0538
     10 CL         32.0931   13.3342   24.5756 Cl      1  LIG1       -0.0827
     11 C          31.9553   10.5882   24.4050 C.ar    1  LIG1        0.0232
     12 C          30.5771   10.6277   24.8831 C.ar    1  LIG1        0.0873
     13 N          30.3635   10.0584   26.0890 N.ar    1  LIG1       -0.2211
     14 C          29.5026   11.1948   24.1757 C.ar    1  LIG1        0.0621
     15 C          29.2919   11.8278   22.9372 C.ar    1  LIG1        0.0803
     16 C          30.2528   12.1087   21.9468 C.1     1  LIG1        0.1014
     17 N          31.0688   12.3456   21.1234 N.1     1  LIG1       -0.1908
     18 C          27.9618   12.1443   22.8512 C.ar    1  LIG1        0.0216
     19 N          27.2960   11.6944   23.9664 N.ar    1  LIG1       -0.3444
     20 C          28.2539   11.1170   24.7716 C.ar    1  LIG1        0.1444
     21 N          28.0079   10.5377   25.9434 N.ar    1  LIG1       -0.2040
     22 C          29.0977   10.0339   26.5583 C.ar    1  LIG1        0.1911
     23 S          28.6786    9.3264   28.1367 S.3     1  LIG1       -0.0766
     24 C          30.1311    8.3638   28.5877 C.3     1  LIG1        0.0778
     25 C          30.4149    7.1944   27.6672 C.2     1  LIG1        0.2254
     26 O          29.6054    6.8064   26.8293 O.2     1  LIG1       -0.2747
     27 N          31.6509    6.5549   27.8428 N.am    1  LIG1       -0.3069
     28 C          32.6125    6.9635   28.8561 C.3     1  LIG1        0.0029
     29 C          31.9872    5.4306   26.9734 C.3     1  LIG1        0.0029
     30 H          34.3568    5.9740   23.1122 H       1  LIG1        0.0660
     31 H          32.9954    6.9314   22.4951 H       1  LIG1        0.0660
     32 H          33.1784    6.6397   24.2515 H       1  LIG1        0.0660
     33 H          31.9803    8.4216   24.3248 H       1  LIG1        0.0662
     34 H          37.8776   11.0763   23.2127 H       1  LIG1        0.0660
     35 H          36.8908   11.4054   24.6531 H       1  LIG1        0.0660
     36 H          36.5481   12.2343   23.1040 H       1  LIG1        0.0660
     37 H          34.6226   12.5571   23.6597 H       1  LIG1        0.0670
     38 H          27.4707   12.6688   22.0517 H       1  LIG1        0.0820
     39 H          26.2908   11.7679   24.1489 H       1  LIG1        0.1668
     40 H          29.9606    7.9659   29.5996 H       1  LIG1        0.0475
     41 H          30.9882    9.0346   28.6043 H       1  LIG1        0.0475
     42 H          32.2355    7.8050   29.4365 H       1  LIG1        0.0428
     43 H          33.5474    7.2688   28.3828 H       1  LIG1        0.0428
     44 H          32.7953    6.1404   29.5489 H       1  LIG1        0.0428
     45 H          31.1783    5.2331   26.2590 H       1  LIG1        0.0428
     46 H          32.1463    4.5317   27.5754 H       1  LIG1        0.0428
     47 H          32.8977    5.6580   26.4119 H       1  LIG1        0.0428
@<TRIPOS>BOND
     1     1     2    1
     2     1    30    1
     3     1    31    1
     4     1    32    1
     5     2     3    1
     6     3     4   ar
     7     3     5   ar
     8     4    11   ar
     9     4    33    1
    10     5     6    1
    11     5     8   ar
    12     6     7    1
    13     7    34    1
    14     7    35    1
    15     7    36    1
    16     8     9   ar
    17     8    37    1
    18     9    10    1
    19     9    11   ar
    20    11    12    1
    21    12    13   ar
    22    12    14   ar
    23    13    22   ar
    24    14    15   ar
    25    14    20   ar
    26    15    16    1
    27    15    18   ar
    28    16    17    3
    29    18    19   ar
    30    18    38    1
    31    19    20   ar
    32    19    39    1
    33    20    21   ar
    34    21    22   ar
    35    22    23    1
    36    23    24    1
    37    24    25    1
    38    24    40    1
    39    24    41    1
    40    25    26    2
    41    25    27   am
    42    27    28    1
    43    27    29    1
    44    28    42    1
    45    28    43    1
    46    28    44    1
    47    29    45    1
    48    29    46    1
    49    29    47    1
