REMARK  6 active torsions:
REMARK  status: ('A' for Active; 'I' for Inactive)
REMARK    1  A    between atoms: O_2  and  C_3 
REMARK    2  A    between atoms: C_5  and  O_6 
REMARK    3  A    between atoms: C_11  and  C_12 
REMARK    4  A    between atoms: C_22  and  S_23 
REMARK    5  A    between atoms: S_23  and  C_24 
REMARK    6  A    between atoms: C_24  and  C_25 
REMARK       I    between atoms: C_25  and  N_27 
ROOT
ATOM      1  C   LIG d   1      30.577  10.628  24.883  0.00  0.00     0.087 A 
ATOM      2  N   LIG d   1      30.363  10.058  26.089  0.00  0.00    -0.221 NA
ATOM      3  C   LIG d   1      29.503  11.195  24.176  0.00  0.00     0.062 A 
ATOM      4  C   LIG d   1      29.292  11.828  22.937  0.00  0.00     0.080 A 
ATOM      5  C   LIG d   1      30.253  12.109  21.947  0.00  0.00     0.101 C 
ATOM      6  N   LIG d   1      31.069  12.346  21.123  0.00  0.00    -0.191 NA
ATOM      7  C   LIG d   1      27.962  12.144  22.851  0.00  0.00     0.104 A 
ATOM      8  N   LIG d   1      27.296  11.694  23.966  0.00  0.00    -0.344 N 
ATOM      9  C   LIG d   1      28.254  11.117  24.772  0.00  0.00     0.144 A 
ATOM     10  N   LIG d   1      28.008  10.538  25.943  0.00  0.00    -0.204 NA
ATOM     11  C   LIG d   1      29.098  10.034  26.558  0.00  0.00     0.191 A 
ATOM     12  H   LIG d   1      26.291  11.768  24.149  0.00  0.00     0.167 HD
ENDROOT
BRANCH   1  13
ATOM     13  C   LIG d   1      31.955  10.588  24.405  0.00  0.00     0.023 A 
ATOM     14  C   LIG d   1      32.561   9.323  24.144  0.00  0.00     0.060 A 
ATOM     15  C   LIG d   1      33.891   9.216  23.705  0.00  0.00     0.162 A 
ATOM     16  C   LIG d   1      34.658  10.391  23.583  0.00  0.00     0.163 A 
ATOM     17  C   LIG d   1      34.067  11.645  23.833  0.00  0.00     0.070 A 
ATOM     18  C   LIG d   1      32.738  11.745  24.259  0.00  0.00     0.054 A 
ATOM     19 CL   LIG d   1      32.093  13.334  24.576  0.00  0.00    -0.083 Cl
BRANCH  15  20
ATOM     20  O   LIG d   1      34.515   8.018  23.427  0.00  0.00    -0.491 OA
ATOM     21  C   LIG d   1      33.714   6.844  23.319  0.00  0.00     0.277 C 
ENDBRANCH  15  20
BRANCH  16  22
ATOM     22  O   LIG d   1      35.977  10.238  23.198  0.00  0.00    -0.491 OA
ATOM     23  C   LIG d   1      36.859  11.293  23.563  0.00  0.00     0.277 C 
ENDBRANCH  16  22
ENDBRANCH   1  13
BRANCH  11  24
ATOM     24  S   LIG d   1      28.679   9.326  28.137  0.00  0.00    -0.077 SA
BRANCH  24  25
ATOM     25  C   LIG d   1      30.131   8.364  28.588  0.00  0.00     0.173 C 
BRANCH  25  26
ATOM     26  C   LIG d   1      30.415   7.194  27.667  0.00  0.00     0.225 C 
ATOM     27  O   LIG d   1      29.605   6.806  26.829  0.00  0.00    -0.275 OA
ATOM     28  N   LIG d   1      31.651   6.555  27.843  0.00  0.00    -0.307 N 
ATOM     29  C   LIG d   1      32.612   6.963  28.856  0.00  0.00     0.131 C 
ATOM     30  C   LIG d   1      31.987   5.431  26.973  0.00  0.00     0.131 C 
ENDBRANCH  25  26
ENDBRANCH  24  25
ENDBRANCH  11  24
TORSDOF 6
