3K98_1RC_A_901
 OpenBabel03301717183D

 42 44  0  0  1  0  0  0  0  0999 V2000
   16.5371   -3.0315   50.7709 N   0  0  0  0  0  0  0  0  0  0  0  0
   17.5140   -2.8038   54.3345 C   0  0  0  0  0  0  0  0  0  0  0  0
   17.2581   -3.0567   52.9949 C   0  0  0  0  0  0  0  0  0  0  0  0
   17.6494   -4.2648   52.4019 C   0  0  0  0  0  0  0  0  0  0  0  0
   17.2418   -4.2969   50.9645 C   0  0  0  0  0  0  0  0  0  0  0  0
   16.5088   -2.2047   51.9986 C   0  0  2  0  0  0  0  0  0  0  0  0
   15.6714   -1.2593   49.2954 C   0  0  0  0  0  0  0  0  0  0  0  0
   14.5902    1.2796   48.8941 C   0  0  0  0  0  0  0  0  0  0  0  0
   16.4986   -0.1969   48.9189 C   0  0  0  0  0  0  0  0  0  0  0  0
   12.8775   -3.0822   52.9085 C   0  0  0  0  0  0  0  0  0  0  0  0
   18.1687   -3.7864   55.0823 C   0  0  0  0  0  0  0  0  0  0  0  0
   18.5583   -4.9960   54.4874 C   0  0  0  0  0  0  0  0  0  0  0  0
   18.3018   -5.2424   53.1363 C   0  0  0  0  0  0  0  0  0  0  0  0
   16.2133   -2.6180   49.4913 C   0  0  0  0  0  0  0  0  0  0  0  0
   14.2943   -1.0638   49.4238 C   0  0  0  0  0  0  0  0  0  0  0  0
   13.7570    0.2119   49.2453 C   0  0  0  0  0  0  0  0  0  0  0  0
   15.9604    1.0771   48.7139 C   0  0  0  0  0  0  0  0  0  0  0  0
   17.8394   -0.4030   48.7622 O   0  0  0  0  0  0  0  0  0  0  0  0
   14.0544    2.5271   48.7211 O   0  0  0  0  0  0  0  0  0  0  0  0
   14.7520    3.1693   48.5158 H   0  0  0  0  0  0  0  0  0  0  0  0
   12.0595    0.4406   49.4584 Cl  0  0  0  0  0  0  0  0  0  0  0  0
   16.3011   -3.3527   48.5090 O   0  0  0  0  0  0  0  0  0  0  0  0
   15.0613   -1.9637   52.4881 C   0  0  0  0  0  0  0  0  0  0  0  0
   14.2373   -3.0730   52.4190 N   0  0  0  0  0  0  0  0  0  0  0  0
   11.8879   -2.8027   51.7948 C   0  0  0  0  0  0  0  0  0  0  0  0
   14.7160   -0.9024   53.0042 O   0  0  0  0  0  0  0  0  0  0  0  0
   17.1935   -1.8768   54.8040 H   0  0  0  0  0  0  0  0  0  0  0  0
   18.1099   -4.3437   50.3001 H   0  0  0  0  0  0  0  0  0  0  0  0
   16.5517   -5.1202   50.7545 H   0  0  0  0  0  0  0  0  0  0  0  0
   17.0171   -1.2543   51.8091 H   0  0  0  0  0  0  0  0  0  0  0  0
   12.7663   -2.3385   53.7039 H   0  0  0  0  0  0  0  0  0  0  0  0
   12.6935   -4.0730   53.3350 H   0  0  0  0  0  0  0  0  0  0  0  0
   18.3672   -3.6165   56.1375 H   0  0  0  0  0  0  0  0  0  0  0  0
   19.0595   -5.7506   55.0898 H   0  0  0  0  0  0  0  0  0  0  0  0
   18.6009   -6.1829   52.6826 H   0  0  0  0  0  0  0  0  0  0  0  0
   13.6485   -1.9022   49.6640 H   0  0  0  0  0  0  0  0  0  0  0  0
   16.5996    1.9034   48.4219 H   0  0  0  0  0  0  0  0  0  0  0  0
   18.2517    0.3867   48.3739 H   0  0  0  0  0  0  0  0  0  0  0  0
   14.6263   -3.9244   52.0299 H   0  0  0  0  0  0  0  0  0  0  0  0
   12.0538   -1.8103   51.3746 H   0  0  0  0  0  0  0  0  0  0  0  0
   10.8617   -2.8434   52.1691 H   0  0  0  0  0  0  0  0  0  0  0  0
   11.9908   -3.5347   50.9853 H   0  0  0  0  0  0  0  0  0  0  0  0
  1  5  1  0  0  0  0
  1  6  1  0  0  0  0
  1 14  1  0  0  0  0
  2  3  2  0  0  0  0
  2 11  1  0  0  0  0
  2 27  1  0  0  0  0
  3  4  1  0  0  0  0
  3  6  1  0  0  0  0
  4  5  1  0  0  0  0
  4 13  2  0  0  0  0
  5 28  1  0  0  0  0
  5 29  1  0  0  0  0
  6 23  1  0  0  0  0
  6 30  1  6  0  0  0
  7  9  2  0  0  0  0
  7 14  1  0  0  0  0
  7 15  1  0  0  0  0
  8 16  1  0  0  0  0
  8 17  2  0  0  0  0
  8 19  1  0  0  0  0
  9 17  1  0  0  0  0
  9 18  1  0  0  0  0
 10 24  1  0  0  0  0
 10 25  1  0  0  0  0
 10 31  1  0  0  0  0
 10 32  1  0  0  0  0
 11 12  2  0  0  0  0
 11 33  1  0  0  0  0
 12 13  1  0  0  0  0
 12 34  1  0  0  0  0
 13 35  1  0  0  0  0
 14 22  2  0  0  0  0
 15 16  2  0  0  0  0
 15 36  1  0  0  0  0
 16 21  1  0  0  0  0
 17 37  1  0  0  0  0
 18 38  1  0  0  0  0
 19 20  1  0  0  0  0
 23 24  1  0  0  0  0
 23 26  2  0  0  0  0
 24 39  1  0  0  0  0
 25 40  1  0  0  0  0
 25 41  1  0  0  0  0
 25 42  1  0  0  0  0
M  END
$$$$
