@<TRIPOS>MOLECULE
3K98_1RC_A_901
 42 44 0 0 0
SMALL
USER_CHARGES

@<TRIPOS>ATOM
      1 N          16.5371   -3.0315   50.7709 N.am    1  LIG1       -0.2775
      2 C          17.5140   -2.8038   54.3345 C.ar    1  LIG1       -0.0560
      3 C          17.2581   -3.0567   52.9949 C.ar    1  LIG1       -0.0135
      4 C          17.6494   -4.2648   52.4019 C.ar    1  LIG1       -0.0247
      5 C          17.2418   -4.2969   50.9645 C.3     1  LIG1        0.0414
      6 C          16.5088   -2.2047   51.9986 C.3     1  LIG1        0.1283
      7 C          15.6714   -1.2593   49.2954 C.ar    1  LIG1        0.0799
      8 C          14.5902    1.2796   48.8941 C.ar    1  LIG1        0.1386
      9 C          16.4986   -0.1969   48.9189 C.ar    1  LIG1        0.1325
     10 C          12.8775   -3.0822   52.9085 C.3     1  LIG1        0.0088
     11 C          18.1687   -3.7864   55.0823 C.ar    1  LIG1       -0.0614
     12 C          18.5583   -4.9960   54.4874 C.ar    1  LIG1       -0.0614
     13 C          18.3018   -5.2424   53.1363 C.ar    1  LIG1       -0.0567
     14 C          16.2133   -2.6180   49.4913 C.2     1  LIG1        0.2513
     15 C          14.2943   -1.0638   49.4238 C.ar    1  LIG1       -0.0242
     16 C          13.7570    0.2119   49.2453 C.ar    1  LIG1        0.0832
     17 C          15.9604    1.0771   48.7139 C.ar    1  LIG1        0.0235
     18 O          17.8394   -0.4030   48.7622 O.3     1  LIG1       -0.5059
     19 O          14.0544    2.5271   48.7211 O.3     1  LIG1       -0.5052
     20 H          14.7520    3.1693   48.5158 H       1  LIG1        0.2922
     21 CL         12.0595    0.4406   49.4584 Cl      1  LIG1       -0.0797
     22 O          16.3011   -3.3527   48.5090 O.2     1  LIG1       -0.2698
     23 C          15.0613   -1.9637   52.4881 C.2     1  LIG1        0.2381
     24 N          14.2373   -3.0730   52.4190 N.am    1  LIG1       -0.3138
     25 C          11.8879   -2.8027   51.7948 C.3     1  LIG1       -0.0495
     26 O          14.7160   -0.9024   53.0042 O.2     1  LIG1       -0.2734
     27 H          17.1935   -1.8768   54.8040 H       1  LIG1        0.0621
     28 H          18.1099   -4.3437   50.3001 H       1  LIG1        0.0514
     29 H          16.5517   -5.1202   50.7545 H       1  LIG1        0.0514
     30 H          17.0171   -1.2543   51.8091 H       1  LIG1        0.0648
     31 H          12.7663   -2.3385   53.7039 H       1  LIG1        0.0459
     32 H          12.6935   -4.0730   53.3350 H       1  LIG1        0.0459
     33 H          18.3672   -3.6165   56.1375 H       1  LIG1        0.0618
     34 H          19.0595   -5.7506   55.0898 H       1  LIG1        0.0618
     35 H          18.6009   -6.1829   52.6826 H       1  LIG1        0.0621
     36 H          13.6485   -1.9022   49.6640 H       1  LIG1        0.0642
     37 H          16.5996    1.9034   48.4219 H       1  LIG1        0.0691
     38 H          18.2517    0.3867   48.3739 H       1  LIG1        0.2922
     39 H          14.6263   -3.9244   52.0299 H       1  LIG1        0.1487
     40 H          12.0538   -1.8103   51.3746 H       1  LIG1        0.0245
     41 H          10.8617   -2.8434   52.1691 H       1  LIG1        0.0245
     42 H          11.9908   -3.5347   50.9853 H       1  LIG1        0.0245
@<TRIPOS>BOND
     1     1     5    1
     2     1     6    1
     3     1    14   am
     4     2     3   ar
     5     2    11   ar
     6     2    27    1
     7     3     4   ar
     8     3     6    1
     9     4     5    1
    10     4    13   ar
    11     5    28    1
    12     5    29    1
    13     6    23    1
    14     6    30    1
    15     7     9   ar
    16     7    14    1
    17     7    15   ar
    18     8    16   ar
    19     8    17   ar
    20     8    19    1
    21     9    17   ar
    22     9    18    1
    23    10    24    1
    24    10    25    1
    25    10    31    1
    26    10    32    1
    27    11    12   ar
    28    11    33    1
    29    12    13   ar
    30    12    34    1
    31    13    35    1
    32    14    22    2
    33    15    16   ar
    34    15    36    1
    35    16    21    1
    36    17    37    1
    37    18    38    1
    38    19    20    1
    39    23    24   am
    40    23    26    2
    41    24    39    1
    42    25    40    1
    43    25    41    1
    44    25    42    1
