REMARK  3 active torsions:
REMARK  status: ('A' for Active; 'I' for Inactive)
REMARK    1  A    between atoms: O_2  and  C_3 
REMARK    2  A    between atoms: C_5  and  O_6 
REMARK    3  A    between atoms: C_8  and  O_10 
ROOT
ATOM      1  C   LIG d   1      66.350  33.486  26.142  0.00  0.00     0.127 A 
ATOM      2  C   LIG d   1      65.871  32.771  27.246  0.00  0.00     0.091 A 
ATOM      3  C   LIG d   1      64.498  32.474  27.357  0.00  0.00     0.124 A 
ATOM      4  C   LIG d   1      63.614  32.885  26.373  0.00  0.00     0.091 A 
ATOM      5  C   LIG d   1      64.096  33.580  25.259  0.00  0.00     0.124 A 
ATOM      6  C   LIG d   1      65.472  33.873  25.134  0.00  0.00     0.091 A 
ENDROOT
BRANCH   1   7
ATOM      7  O   LIG d   1      67.692  33.712  25.941  0.00  0.00    -0.495 OA
ATOM      8  C   LIG d   1      68.304  34.634  26.858  0.00  0.00     0.277 C 
ENDBRANCH   1   7
BRANCH   3   9
ATOM      9  O   LIG d   1      64.070  31.783  28.468  0.00  0.00    -0.506 OA
ATOM     10  H   LIG d   1      63.113  31.643  28.452  0.00  0.00     0.292 HD
ENDBRANCH   3   9
BRANCH   5  11
ATOM     11  O   LIG d   1      63.197  33.977  24.303  0.00  0.00    -0.506 OA
ATOM     12  H   LIG d   1      63.626  34.450  23.571  0.00  0.00     0.292 HD
ENDBRANCH   5  11
TORSDOF 3
