@<TRIPOS>MOLECULE
2YE5_2A7_A_1224
 18 18 0 0 0
SMALL
USER_CHARGES

@<TRIPOS>ATOM
      1 C          68.3037   34.6344   26.8575 C.3     1  LIG1        0.0788
      2 O          67.6916   33.7121   25.9411 O.3     1  LIG1       -0.4949
      3 C          66.3497   33.4864   26.1422 C.ar    1  LIG1        0.1270
      4 C          65.8711   32.7714   27.2463 C.ar    1  LIG1        0.0218
      5 C          64.4982   32.4737   27.3569 C.ar    1  LIG1        0.1238
      6 O          64.0702   31.7831   28.4677 O.3     1  LIG1       -0.5065
      7 C          63.6137   32.8847   26.3729 C.ar    1  LIG1        0.0215
      8 C          64.0958   33.5801   25.2586 C.ar    1  LIG1        0.1238
      9 C          65.4723   33.8726   25.1343 C.ar    1  LIG1        0.0218
     10 O          63.1969   33.9770   24.3033 O.3     1  LIG1       -0.5065
     11 H          69.3684   34.7304   26.6024 H       1  LIG1        0.0660
     12 H          68.2498   34.2917   27.8953 H       1  LIG1        0.0660
     13 H          67.8618   35.6317   26.7615 H       1  LIG1        0.0660
     14 H          66.5636   32.4147   28.0033 H       1  LIG1        0.0691
     15 H          63.1132   31.6435   28.4519 H       1  LIG1        0.2921
     16 H          62.5473   32.6728   26.4576 H       1  LIG1        0.0691
     17 H          65.8244   34.3969   24.2573 H       1  LIG1        0.0691
     18 H          63.6255   34.4496   23.5708 H       1  LIG1        0.2921
@<TRIPOS>BOND
     1     1     2    1
     2     1    11    1
     3     1    12    1
     4     1    13    1
     5     2     3    1
     6     3     4   ar
     7     3     9   ar
     8     4     5   ar
     9     4    14    1
    10     5     6    1
    11     5     7   ar
    12     6    15    1
    13     7     8   ar
    14     7    16    1
    15     8     9   ar
    16     8    10    1
    17     9    17    1
    18    10    18    1
