REMARK  4 active torsions:
REMARK  status: ('A' for Active; 'I' for Inactive)
REMARK    1  A    between atoms: O_1  and  C_2 
REMARK    2  A    between atoms: C_2  and  C_3 
REMARK    3  A    between atoms: C_5  and  O_7 
REMARK    4  A    between atoms: C_6  and  O_10 
ROOT
ATOM      1  C   LIG d   1      64.733  33.072  26.352  0.00  0.00    -0.018 A 
ATOM      2  C   LIG d   1      63.344  33.195  26.262  0.00  0.00     0.055 A 
ATOM      3  C   LIG d   1      62.785  33.953  25.239  0.00  0.00     0.159 A 
ATOM      4  C   LIG d   1      63.589  34.609  24.291  0.00  0.00     0.161 A 
ATOM      5  C   LIG d   1      65.537  33.700  25.383  0.00  0.00     0.010 A 
ATOM      6  C   LIG d   1      64.973  34.462  24.368  0.00  0.00     0.050 A 
ENDROOT
BRANCH   1   7
ATOM      7  C   LIG d   1      65.407  32.220  27.383  0.00  0.00     0.191 C 
BRANCH   7   8
ATOM      8  O   LIG d   1      64.636  32.109  28.569  0.00  0.00    -0.390 OA
ATOM      9  H   LIG d   1      65.155  31.555  29.176  0.00  0.00     0.210 HD
ENDBRANCH   7   8
ENDBRANCH   1   7
BRANCH   3  10
ATOM     10  O   LIG d   1      61.420  34.055  25.185  0.00  0.00    -0.503 OA
ATOM     11  H   LIG d   1      61.239  34.635  24.422  0.00  0.00     0.292 HD
ENDBRANCH   3  10
BRANCH   4  12
ATOM     12  O   LIG d   1      62.935  35.335  23.332  0.00  0.00    -0.491 OA
ATOM     13  C   LIG d   1      63.738  36.329  22.684  0.00  0.00     0.277 C 
ENDBRANCH   4  12
TORSDOF 4
