2YEA_2A9_A_1224
 OpenBabel03301717093D

 21 21  0  0  0  0  0  0  0  0999 V2000
   64.6359   32.1089   28.5688 O   0  0  0  0  0  0  0  0  0  0  0  0
   65.4075   32.2196   27.3831 C   0  0  0  0  0  0  0  0  0  0  0  0
   64.7330   33.0722   26.3519 C   0  0  0  0  0  0  0  0  0  0  0  0
   63.3439   33.1952   26.2623 C   0  0  0  0  0  0  0  0  0  0  0  0
   62.7854   33.9527   25.2395 C   0  0  0  0  0  0  0  0  0  0  0  0
   63.5886   34.6089   24.2905 C   0  0  0  0  0  0  0  0  0  0  0  0
   61.4203   34.0547   25.1848 O   0  0  0  0  0  0  0  0  0  0  0  0
   65.5365   33.7001   25.3832 C   0  0  0  0  0  0  0  0  0  0  0  0
   64.9733   34.4617   24.3678 C   0  0  0  0  0  0  0  0  0  0  0  0
   62.9346   35.3347   23.3321 O   0  0  0  0  0  0  0  0  0  0  0  0
   63.7376   36.3286   22.6838 C   0  0  0  0  0  0  0  0  0  0  0  0
   65.1554   31.5553   29.1759 H   0  0  0  0  0  0  0  0  0  0  0  0
   65.5696   31.2238   26.9691 H   0  0  0  0  0  0  0  0  0  0  0  0
   66.3685   32.6674   27.6566 H   0  0  0  0  0  0  0  0  0  0  0  0
   62.6968   32.7078   26.9864 H   0  0  0  0  0  0  0  0  0  0  0  0
   61.2386   34.6346   24.4218 H   0  0  0  0  0  0  0  0  0  0  0  0
   66.6223   33.5880   25.4195 H   0  0  0  0  0  0  0  0  0  0  0  0
   65.6458   34.9117   23.6490 H   0  0  0  0  0  0  0  0  0  0  0  0
   63.1138   36.8365   21.9460 H   0  0  0  0  0  0  0  0  0  0  0  0
   64.5754   35.8826   22.1401 H   0  0  0  0  0  0  0  0  0  0  0  0
   64.0877   37.0668   23.4115 H   0  0  0  0  0  0  0  0  0  0  0  0
  1  2  1  0  0  0  0
  1 12  1  0  0  0  0
  2  3  1  0  0  0  0
  2 13  1  0  0  0  0
  2 14  1  0  0  0  0
  3  4  2  0  0  0  0
  3  8  1  0  0  0  0
  4  5  1  0  0  0  0
  4 15  1  0  0  0  0
  5  6  2  0  0  0  0
  5  7  1  0  0  0  0
  6  9  1  0  0  0  0
  6 10  1  0  0  0  0
  7 16  1  0  0  0  0
  8  9  2  0  0  0  0
  8 17  1  0  0  0  0
  9 18  1  0  0  0  0
 10 11  1  0  0  0  0
 11 19  1  0  0  0  0
 11 20  1  0  0  0  0
 11 21  1  0  0  0  0
M  END
$$$$
