@<TRIPOS>MOLECULE
2YEA_2A9_A_1224
 21 21 0 0 0
SMALL
USER_CHARGES

@<TRIPOS>ATOM
      1 O          64.6359   32.1089   28.5688 O.3     1  LIG1       -0.3904
      2 C          65.4075   32.2196   27.3831 C.3     1  LIG1        0.0693
      3 C          64.7330   33.0722   26.3519 C.ar    1  LIG1       -0.0185
      4 C          63.3439   33.1952   26.2623 C.ar    1  LIG1       -0.0112
      5 C          62.7854   33.9527   25.2395 C.ar    1  LIG1        0.1588
      6 C          63.5886   34.6089   24.2905 C.ar    1  LIG1        0.1613
      7 O          61.4203   34.0547   25.1848 O.3     1  LIG1       -0.5033
      8 C          65.5365   33.7001   25.3832 C.ar    1  LIG1       -0.0527
      9 C          64.9733   34.4617   24.3678 C.ar    1  LIG1       -0.0160
     10 O          62.9346   35.3347   23.3321 O.3     1  LIG1       -0.4915
     11 C          63.7376   36.3286   22.6838 C.3     1  LIG1        0.0790
     12 H          65.1554   31.5553   29.1759 H       1  LIG1        0.2098
     13 H          65.5696   31.2238   26.9691 H       1  LIG1        0.0607
     14 H          66.3685   32.6674   27.6566 H       1  LIG1        0.0607
     15 H          62.6968   32.7078   26.9864 H       1  LIG1        0.0659
     16 H          61.2386   34.6346   24.4218 H       1  LIG1        0.2923
     17 H          66.6223   33.5880   25.4195 H       1  LIG1        0.0622
     18 H          65.6458   34.9117   23.6490 H       1  LIG1        0.0655
     19 H          63.1138   36.8365   21.9460 H       1  LIG1        0.0660
     20 H          64.5754   35.8826   22.1401 H       1  LIG1        0.0660
     21 H          64.0877   37.0668   23.4115 H       1  LIG1        0.0660
@<TRIPOS>BOND
     1     1     2    1
     2     1    12    1
     3     2     3    1
     4     2    13    1
     5     2    14    1
     6     3     4   ar
     7     3     8   ar
     8     4     5   ar
     9     4    15    1
    10     5     6   ar
    11     5     7    1
    12     6     9   ar
    13     6    10    1
    14     7    16    1
    15     8     9   ar
    16     8    17    1
    17     9    18    1
    18    10    11    1
    19    11    19    1
    20    11    20    1
    21    11    21    1
