REMARK  2 active torsions:
REMARK  status: ('A' for Active; 'I' for Inactive)
REMARK    1  A    between atoms: C_1  and  C_7 
REMARK    2  A    between atoms: C_2  and  N_10 
REMARK       I    between atoms: C_7  and  N_9 
ROOT
ATOM      1  C   LIG d   1      63.987  32.907  25.781  0.00  0.00     0.057 A 
ATOM      2  C   LIG d   1      64.996  33.813  25.408  0.00  0.00     0.037 A 
ATOM      3  C   LIG d   1      66.329  33.508  25.733  0.00  0.00     0.023 A 
ATOM      4  C   LIG d   1      66.658  32.319  26.385  0.00  0.00     0.002 A 
ATOM      5  C   LIG d   1      65.654  31.420  26.735  0.00  0.00     0.001 A 
ATOM      6  C   LIG d   1      64.316  31.715  26.438  0.00  0.00     0.015 A 
ENDROOT
BRANCH   1   7
ATOM      7  C   LIG d   1      62.566  33.203  25.436  0.00  0.00     0.243 C 
ATOM      8  O   LIG d   1      62.233  33.647  24.355  0.00  0.00    -0.270 OA
ATOM      9  N   LIG d   1      61.638  32.996  26.424  0.00  0.00    -0.325 N 
ATOM     10  H   LIG d   1      60.665  33.226  26.239  0.00  0.00     0.145 HD
ATOM     11  H   LIG d   1      61.892  32.679  27.347  0.00  0.00     0.145 HD
ENDBRANCH   1   7
BRANCH   2  12
ATOM     12  N   LIG d   1      64.726  35.026  24.793  0.00  0.00    -0.357 N 
ATOM     13  H   LIG d   1      65.464  35.652  24.523  0.00  0.00     0.142 HD
ATOM     14  H   LIG d   1      63.766  35.239  24.527  0.00  0.00     0.142 HD
ENDBRANCH   2  12
TORSDOF 2
