@<TRIPOS>MOLECULE
2YE6_2AE_A_1224
 18 18 0 0 0
SMALL
USER_CHARGES

@<TRIPOS>ATOM
      1 C          63.9870   32.9068   25.7814 C.ar    1  LIG1        0.0571
      2 C          64.9960   33.8133   25.4082 C.ar    1  LIG1        0.0368
      3 C          66.3293   33.5083   25.7326 C.ar    1  LIG1       -0.0403
      4 C          66.6576   32.3189   26.3854 C.ar    1  LIG1       -0.0600
      5 C          65.6543   31.4200   26.7348 C.ar    1  LIG1       -0.0609
      6 C          64.3161   31.7152   26.4376 C.ar    1  LIG1       -0.0479
      7 C          62.5660   33.2032   25.4356 C.2     1  LIG1        0.2433
      8 O          62.2334   33.6467   24.3552 O.2     1  LIG1       -0.2704
      9 N          61.6383   32.9963   26.4240 N.am    1  LIG1       -0.3253
     10 N          64.7256   35.0260   24.7932 N.pl3   1  LIG1       -0.3574
     11 H          67.1222   34.2021   25.4653 H       1  LIG1        0.0636
     12 H          67.6981   32.0971   26.6181 H       1  LIG1        0.0618
     13 H          65.9145   30.4921   27.2403 H       1  LIG1        0.0618
     14 H          63.5485   30.9955   26.7064 H       1  LIG1        0.0626
     15 H          60.6651   33.2257   26.2392 H       1  LIG1        0.1453
     16 H          61.8920   32.6786   27.3467 H       1  LIG1        0.1453
     17 H          65.4644   35.6522   24.5226 H       1  LIG1        0.1423
     18 H          63.7663   35.2394   24.5272 H       1  LIG1        0.1423
@<TRIPOS>BOND
     1     1     2   ar
     2     1     6   ar
     3     1     7    1
     4     2     3   ar
     5     2    10    1
     6     3     4   ar
     7     3    11    1
     8     4     5   ar
     9     4    12    1
    10     5     6   ar
    11     5    13    1
    12     6    14    1
    13     7     8    2
    14     7     9   am
    15     9    15    1
    16     9    16    1
    17    10    17    1
    18    10    18    1
