REMARK  3 active torsions:
REMARK  status: ('A' for Active; 'I' for Inactive)
REMARK    1  A    between atoms: O_2  and  C_3 
REMARK    2  A    between atoms: C_3  and  C_5 
REMARK    3  A    between atoms: C_10  and  C_11 
ROOT
ATOM      1  C   LIG d   1       5.318  13.733  24.793  0.00  0.00     0.110 A 
ATOM      2  C   LIG d   1       5.844  14.793  25.532  0.00  0.00     0.048 A 
ATOM      3  C   LIG d   1       5.258  15.984  26.203  0.00  0.00     0.066 C 
ATOM      4  N   LIG d   1       7.187  14.560  25.626  0.00  0.00    -0.280 N 
ATOM      5  N   LIG d   1       7.588  13.471  24.978  0.00  0.00    -0.170 NA
ATOM      6  C   LIG d   1       6.466  12.928  24.481  0.00  0.00     0.144 A 
ATOM      7  H   LIG d   1       7.881  15.109  26.118  0.00  0.00     0.189 HD
ENDROOT
BRANCH   6   8
ATOM      8  C   LIG d   1       6.583  11.643  23.708  0.00  0.00     0.188 A 
ATOM      9  C   LIG d   1       5.615  10.806  23.194  0.00  0.00     0.074 A 
ATOM     10  C   LIG d   1       6.306   9.776  22.547  0.00  0.00     0.157 A 
ATOM     11  N   LIG d   1       7.619   9.938  22.640  0.00  0.00    -0.086 NA
ATOM     12  O   LIG d   1       7.803  11.096  23.375  0.00  0.00    -0.353 OA
ENDBRANCH   6   8
BRANCH   1  13
ATOM     13  C   LIG d   1       3.913  13.516  24.498  0.00  0.00     0.343 C 
ATOM     14  O   LIG d   1       3.426  12.413  24.299  0.00  0.00    -0.245 OA
BRANCH  13  15
ATOM     15  O   LIG d   1       3.156  14.642  24.589  0.00  0.00    -0.464 OA
ATOM     16  C   LIG d   1       1.773  14.379  24.783  0.00  0.00     0.280 C 
ENDBRANCH  13  15
ENDBRANCH   1  13
TORSDOF 3
