@<TRIPOS>MOLECULE
2YE8_2D3_A_1225
 24 25 0 0 0
SMALL
USER_CHARGES

@<TRIPOS>ATOM
      1 C           1.7726   14.3791   24.7831 C.3     1  LIG1        0.0820
      2 O           3.1558   14.6422   24.5893 O.3     1  LIG1       -0.4644
      3 C           3.9125   13.5156   24.4976 C.2     1  LIG1        0.3429
      4 O           3.4262   12.4127   24.2985 O.2     1  LIG1       -0.2448
      5 C           5.3179   13.7330   24.7931 C.ar    1  LIG1        0.1099
      6 C           5.8441   14.7933   25.5320 C.ar    1  LIG1        0.0477
      7 C           5.2575   15.9844   26.2032 C.3     1  LIG1       -0.0221
      8 N           7.1869   14.5598   25.6256 N.ar    1  LIG1       -0.2804
      9 N           7.5876   13.4711   24.9781 N.ar    1  LIG1       -0.1696
     10 C           6.4659   12.9279   24.4812 C.ar    1  LIG1        0.1443
     11 C           6.5835   11.6433   23.7082 C.ar    1  LIG1        0.1878
     12 C           5.6146   10.8057   23.1941 C.ar    1  LIG1        0.0067
     13 C           6.3055    9.7760   22.5471 C.ar    1  LIG1        0.0707
     14 N           7.6193    9.9377   22.6404 N.ar    1  LIG1       -0.0860
     15 O           7.8032   11.0960   23.3754 O.2     1  LIG1       -0.3530
     16 H           1.2373   15.3291   24.8145 H       1  LIG1        0.0661
     17 H           1.6355   13.8750   25.7500 H       1  LIG1        0.0661
     18 H           1.3594   13.7666   23.9726 H       1  LIG1        0.0661
     19 H           4.1735   16.0707   26.0792 H       1  LIG1        0.0293
     20 H           5.6988   16.9070   25.8113 H       1  LIG1        0.0293
     21 H           5.4431   15.9434   27.2854 H       1  LIG1        0.0293
     22 H           7.8806   15.1086   26.1178 H       1  LIG1        0.1885
     23 H           4.5447   10.8762   23.2709 H       1  LIG1        0.0672
     24 H           5.9197    8.9209   22.0208 H       1  LIG1        0.0864
@<TRIPOS>BOND
     1     1     2    1
     2     1    16    1
     3     1    17    1
     4     1    18    1
     5     2     3    1
     6     3     4    2
     7     3     5    1
     8     5     6   ar
     9     5    10   ar
    10     6     7    1
    11     6     8   ar
    12     7    19    1
    13     7    20    1
    14     7    21    1
    15     8     9   ar
    16     8    22    1
    17     9    10   ar
    18    10    11    1
    19    11    12   ar
    20    11    15   ar
    21    12    13   ar
    22    12    23    1
    23    13    14   ar
    24    13    24    1
    25    14    15   ar
