@<TRIPOS>MOLECULE
2YE9_2D4_A_1224
 42 45 0 0 0
SMALL
USER_CHARGES

@<TRIPOS>ATOM
      1 C          35.5854    7.3055   24.0943 C.ar    1  LIG1       -0.0278
      2 C          35.8585    7.7040   22.7555 C.ar    1  LIG1       -0.0528
      3 C          35.1796    6.9288   21.8425 C.ar    1  LIG1       -0.0224
      4 S          34.2048    5.7435   22.6058 S.2     1  LIG1       -0.0767
      5 C          34.6944    6.2522   24.1651 C.ar    1  LIG1        0.1457
      6 S          34.0045    5.3913   25.5641 S.O2    1  LIG1        0.0786
      7 O          34.1035    3.9807   25.2324 O.2     1  LIG1       -0.1495
      8 O          34.6975    5.9464   26.7056 O.2     1  LIG1       -0.1495
      9 N          32.3667    5.7475   25.6856 N.pl3   1  LIG1       -0.2158
     10 H          31.7447    5.1857   25.1102 H       1  LIG1        0.1737
     11 C          31.9753    7.0562   26.0625 C.ar    1  LIG1        0.0489
     12 C          31.9615    8.1083   25.1484 C.ar    1  LIG1       -0.0280
     13 C          31.5997    7.2696   27.3843 C.ar    1  LIG1       -0.0358
     14 C          31.2342    8.5418   27.8120 C.ar    1  LIG1       -0.0178
     15 C          31.2555    9.6043   26.9126 C.ar    1  LIG1        0.1248
     16 O          30.9273   10.8288   27.4271 O.3     1  LIG1       -0.5062
     17 C          31.6191    9.4108   25.5677 C.ar    1  LIG1        0.0294
     18 C          31.7027   10.5322   24.6130 C.ar    1  LIG1        0.0348
     19 C          32.9641   11.0291   24.1729 C.ar    1  LIG1       -0.0066
     20 C          34.2020   10.5053   24.6147 C.ar    1  LIG1       -0.0533
     21 C          35.4206   10.9894   24.1464 C.ar    1  LIG1       -0.0611
     22 C          35.4379   12.0311   23.2354 C.ar    1  LIG1       -0.0612
     23 C          34.2374   12.5972   22.8043 C.ar    1  LIG1       -0.0540
     24 C          32.9990   12.1140   23.2621 C.ar    1  LIG1       -0.0171
     25 C          31.7971   12.6987   22.8324 C.ar    1  LIG1       -0.0505
     26 C          30.5635   12.2267   23.2761 C.ar    1  LIG1       -0.0190
     27 C          30.5234   11.1504   24.1517 C.ar    1  LIG1        0.1252
     28 O          29.3173   10.6913   24.6105 O.3     1  LIG1       -0.5061
     29 H          36.0026    7.7710   24.9797 H       1  LIG1        0.0643
     30 H          36.5157    8.5193   22.4765 H       1  LIG1        0.0623
     31 H          35.2075    7.0064   20.7634 H       1  LIG1        0.0694
     32 H          32.2448    7.9458   24.1122 H       1  LIG1        0.0644
     33 H          31.6039    6.4454   28.0984 H       1  LIG1        0.0638
     34 H          30.9462    8.7152   28.8454 H       1  LIG1        0.0655
     35 H          30.8989   11.4694   26.6919 H       1  LIG1        0.2922
     36 H          34.2309    9.6960   25.3436 H       1  LIG1        0.0624
     37 H          36.3498   10.5448   24.4966 H       1  LIG1        0.0618
     38 H          36.3874   12.4118   22.8644 H       1  LIG1        0.0618
     39 H          34.2777   13.4280   22.1034 H       1  LIG1        0.0624
     40 H          31.8150   13.5441   22.1454 H       1  LIG1        0.0625
     41 H          29.6535   12.7090   22.9347 H       1  LIG1        0.0654
     42 H          28.5936   11.2093   24.2197 H       1  LIG1        0.2922
@<TRIPOS>BOND
     1     1     2   ar
     2     1     5   ar
     3     1    29    1
     4     2     3   ar
     5     2    30    1
     6     3     4   ar
     7     3    31    1
     8     4     5   ar
     9     5     6    1
    10     6     7    2
    11     6     8    2
    12     6     9    1
    13     9    10    1
    14     9    11    1
    15    11    12   ar
    16    11    13   ar
    17    12    17   ar
    18    12    32    1
    19    13    14   ar
    20    13    33    1
    21    14    15   ar
    22    14    34    1
    23    15    16    1
    24    15    17   ar
    25    16    35    1
    26    17    18    1
    27    18    19   ar
    28    18    27   ar
    29    19    20   ar
    30    19    24   ar
    31    20    21   ar
    32    20    36    1
    33    21    22   ar
    34    21    37    1
    35    22    23   ar
    36    22    38    1
    37    23    24   ar
    38    23    39    1
    39    24    25   ar
    40    25    26   ar
    41    25    40    1
    42    26    27   ar
    43    26    41    1
    44    27    28    1
    45    28    42    1
