REMARK  6 active torsions:
REMARK  status: ('A' for Active; 'I' for Inactive)
REMARK    1  A    between atoms: C_5  and  S_6 
REMARK    2  A    between atoms: S_6  and  N_9 
REMARK    3  A    between atoms: N_9  and  C_11 
REMARK    4  A    between atoms: C_15  and  O_16 
REMARK    5  A    between atoms: C_17  and  C_18 
REMARK    6  A    between atoms: C_27  and  O_28 
ROOT
ATOM      1  C   LIG d   1      31.975   7.056  26.062  0.00  0.00     0.049 A 
ATOM      2  C   LIG d   1      31.962   8.108  25.148  0.00  0.00     0.036 A 
ATOM      3  C   LIG d   1      31.600   7.270  27.384  0.00  0.00     0.028 A 
ATOM      4  C   LIG d   1      31.234   8.542  27.812  0.00  0.00     0.048 A 
ATOM      5  C   LIG d   1      31.256   9.604  26.913  0.00  0.00     0.125 A 
ATOM      6  C   LIG d   1      31.619   9.411  25.568  0.00  0.00     0.029 A 
ENDROOT
BRANCH   6   7
ATOM      7  C   LIG d   1      31.703  10.532  24.613  0.00  0.00     0.035 A 
ATOM      8  C   LIG d   1      32.964  11.029  24.173  0.00  0.00    -0.007 A 
ATOM      9  C   LIG d   1      34.202  10.505  24.615  0.00  0.00     0.009 A 
ATOM     10  C   LIG d   1      32.999  12.114  23.262  0.00  0.00    -0.017 A 
ATOM     11  C   LIG d   1      35.421  10.989  24.146  0.00  0.00     0.001 A 
ATOM     12  C   LIG d   1      35.438  12.031  23.235  0.00  0.00     0.001 A 
ATOM     13  C   LIG d   1      34.237  12.597  22.804  0.00  0.00     0.008 A 
ATOM     14  C   LIG d   1      31.797  12.699  22.832  0.00  0.00     0.012 A 
ATOM     15  C   LIG d   1      30.564  12.227  23.276  0.00  0.00     0.046 A 
ATOM     16  C   LIG d   1      30.523  11.150  24.152  0.00  0.00     0.125 A 
BRANCH  16  17
ATOM     17  O   LIG d   1      29.317  10.691  24.610  0.00  0.00    -0.506 OA
ATOM     18  H   LIG d   1      28.594  11.209  24.220  0.00  0.00     0.292 HD
ENDBRANCH  16  17
ENDBRANCH   6   7
BRANCH   5  19
ATOM     19  O   LIG d   1      30.927  10.829  27.427  0.00  0.00    -0.506 OA
ATOM     20  H   LIG d   1      30.899  11.469  26.692  0.00  0.00     0.292 HD
ENDBRANCH   5  19
BRANCH   1  21
ATOM     21  N   LIG d   1      32.367   5.747  25.686  0.00  0.00    -0.216 N 
ATOM     22  H   LIG d   1      31.745   5.186  25.110  0.00  0.00     0.174 HD
BRANCH  21  23
ATOM     23  S   LIG d   1      34.005   5.391  25.564  0.00  0.00     0.079 S 
ATOM     24  O   LIG d   1      34.103   3.981  25.232  0.00  0.00    -0.149 OA
ATOM     25  O   LIG d   1      34.697   5.946  26.706  0.00  0.00    -0.149 OA
BRANCH  23  26
ATOM     26  C   LIG d   1      34.694   6.252  24.165  0.00  0.00     0.146 A 
ATOM     27  C   LIG d   1      35.585   7.306  24.094  0.00  0.00     0.036 A 
ATOM     28  C   LIG d   1      35.858   7.704  22.756  0.00  0.00     0.010 A 
ATOM     29  C   LIG d   1      35.180   6.929  21.843  0.00  0.00     0.047 A 
ATOM     30  S   LIG d   1      34.205   5.744  22.606  0.00  0.00    -0.077 SA
ENDBRANCH  23  26
ENDBRANCH  21  23
ENDBRANCH   1  21
TORSDOF 6
