@<TRIPOS>MOLECULE
2BYH_2D7_A_1226
 40 42 0 0 0
SMALL
USER_CHARGES

@<TRIPOS>ATOM
      1 O           5.6648   -2.4819    5.5342 O.2     1  LIG1       -0.2924
      2 C           4.7813   -2.4685    6.3982 C.2     1  LIG1        0.1601
      3 C           3.9721   -3.7032    6.6791 C.3     1  LIG1       -0.0014
      4 C           4.5111   -1.2318    7.1830 C.ar    1  LIG1        0.0172
      5 C           3.5283   -1.2283    8.1701 C.ar    1  LIG1       -0.0495
      6 C           3.2457   -0.0801    8.8974 C.ar    1  LIG1       -0.0398
      7 C           5.2304   -0.0551    6.9509 C.ar    1  LIG1       -0.0495
      8 C           4.9477    1.0963    7.6867 C.ar    1  LIG1       -0.0398
      9 C           3.9301    1.0935    8.6420 C.ar    1  LIG1        0.0337
     10 N           3.7640    2.2724    9.3721 N.am    1  LIG1       -0.2814
     11 C           2.8189    2.5496   10.3472 C.2     1  LIG1        0.2518
     12 O           1.8611    1.8623   10.5547 O.2     1  LIG1       -0.2697
     13 C           3.1204    3.7307   11.1667 C.ar    1  LIG1        0.0821
     14 C           2.1574    4.6088   11.7346 C.ar    1  LIG1        0.0619
     15 N           2.7242    5.5234   12.5409 N.ar    1  LIG1       -0.1810
     16 N           4.0516    5.2359   12.4959 N.ar    1  LIG1       -0.2761
     17 C           4.3385    4.1528   11.7001 C.ar    1  LIG1        0.0814
     18 C           5.7100    3.6651   11.5622 C.ar    1  LIG1        0.0435
     19 C           5.9123    2.2998   11.3635 C.ar    1  LIG1       -0.0271
     20 C           7.1706    1.7796   11.1135 C.ar    1  LIG1        0.0831
     21 CL          7.3875    0.0871   10.8848 Cl      1  LIG1       -0.0797
     22 C           8.2697    2.6237   11.0847 C.ar    1  LIG1        0.1386
     23 O           9.4880    2.0685   10.8169 O.3     1  LIG1       -0.5052
     24 C           8.1213    3.9802   11.3281 C.ar    1  LIG1        0.0234
     25 C           6.8472    4.4969   11.5720 C.ar    1  LIG1        0.1296
     26 O           6.7362    5.8434   11.8187 O.3     1  LIG1       -0.5060
     27 H           3.2335   -3.5297    7.4494 H       1  LIG1        0.0309
     28 H           4.6232   -4.5013    7.0318 H       1  LIG1        0.0309
     29 H           3.4325   -4.0142    5.7859 H       1  LIG1        0.0309
     30 H           2.9504   -2.1037    8.4037 H       1  LIG1        0.0625
     31 H           2.5156   -0.1362    9.6951 H       1  LIG1        0.0636
     32 H           6.0089   -0.0262    6.2005 H       1  LIG1        0.0625
     33 H           5.5471    1.9893    7.5329 H       1  LIG1        0.0636
     34 H           4.4657    2.9685    9.2171 H       1  LIG1        0.1551
     35 H           1.0713    4.5819   11.5846 H       1  LIG1        0.0856
     36 H           4.7350    5.8068   13.0051 H       1  LIG1        0.1889
     37 H           5.0701    1.6137   11.3983 H       1  LIG1        0.0641
     38 H          10.1939    2.7286   10.8129 H       1  LIG1        0.2922
     39 H           8.9890    4.6278   11.3246 H       1  LIG1        0.0691
     40 H           7.6135    6.2713   11.7846 H       1  LIG1        0.2922
@<TRIPOS>BOND
     1     1     2    2
     2     2     3    1
     3     2     4    1
     4     3    27    1
     5     3    28    1
     6     3    29    1
     7     4     5   ar
     8     4     7   ar
     9     5     6   ar
    10     5    30    1
    11     6     9   ar
    12     6    31    1
    13     7     8   ar
    14     7    32    1
    15     8     9   ar
    16     8    33    1
    17     9    10    1
    18    10    11   am
    19    10    34    1
    20    11    12    2
    21    11    13    1
    22    13    14   ar
    23    13    17   ar
    24    14    15   ar
    25    14    35    1
    26    15    16   ar
    27    16    17   ar
    28    16    36    1
    29    17    18    1
    30    18    19   ar
    31    18    25   ar
    32    19    20   ar
    33    19    37    1
    34    20    21    1
    35    20    22   ar
    36    22    23    1
    37    22    24   ar
    38    23    38    1
    39    24    25   ar
    40    24    39    1
    41    25    26    1
    42    26    40    1
