REMARK  6 active torsions:
REMARK  status: ('A' for Active; 'I' for Inactive)
REMARK    1  A    between atoms: C_2  and  C_4 
REMARK    2  A    between atoms: C_9  and  N_10 
REMARK       I    between atoms: N_10  and  C_11 
REMARK    3  A    between atoms: C_11  and  C_13 
REMARK    4  A    between atoms: C_17  and  C_18 
REMARK    5  A    between atoms: C_22  and  O_23 
REMARK    6  A    between atoms: C_25  and  O_26 
ROOT
ATOM      1  C   LIG d   1       3.120   3.731  11.167  0.00  0.00     0.082 A 
ATOM      2  C   LIG d   1       2.157   4.609  11.735  0.00  0.00     0.147 A 
ATOM      3  N   LIG d   1       2.724   5.523  12.541  0.00  0.00    -0.181 NA
ATOM      4  N   LIG d   1       4.052   5.236  12.496  0.00  0.00    -0.276 N 
ATOM      5  C   LIG d   1       4.338   4.153  11.700  0.00  0.00     0.081 A 
ATOM      6  H   LIG d   1       4.735   5.807  13.005  0.00  0.00     0.189 HD
ENDROOT
BRANCH   1   7
ATOM      7  C   LIG d   1       2.819   2.550  10.347  0.00  0.00     0.252 C 
ATOM      8  N   LIG d   1       3.764   2.272   9.372  0.00  0.00    -0.281 N 
ATOM      9  H   LIG d   1       4.466   2.969   9.217  0.00  0.00     0.155 HD
ATOM     10  O   LIG d   1       1.861   1.862  10.555  0.00  0.00    -0.270 OA
BRANCH   8  11
ATOM     11  C   LIG d   1       3.930   1.093   8.642  0.00  0.00     0.034 A 
ATOM     12  C   LIG d   1       3.246  -0.080   8.897  0.00  0.00     0.024 A 
ATOM     13  C   LIG d   1       3.528  -1.228   8.170  0.00  0.00     0.013 A 
ATOM     14  C   LIG d   1       4.511  -1.232   7.183  0.00  0.00     0.017 A 
ATOM     15  C   LIG d   1       5.230  -0.055   6.951  0.00  0.00     0.013 A 
ATOM     16  C   LIG d   1       4.948   1.096   7.687  0.00  0.00     0.024 A 
BRANCH  14  17
ATOM     17  C   LIG d   1       4.781  -2.469   6.398  0.00  0.00     0.160 C 
ATOM     18  O   LIG d   1       5.665  -2.482   5.534  0.00  0.00    -0.292 OA
ATOM     19  C   LIG d   1       3.972  -3.703   6.679  0.00  0.00     0.091 C 
ENDBRANCH  14  17
ENDBRANCH   8  11
ENDBRANCH   1   7
BRANCH   5  20
ATOM     20  C   LIG d   1       5.710   3.665  11.562  0.00  0.00     0.043 A 
ATOM     21  C   LIG d   1       5.912   2.300  11.364  0.00  0.00     0.037 A 
ATOM     22  C   LIG d   1       7.171   1.780  11.114  0.00  0.00     0.083 A 
ATOM     23 CL   LIG d   1       7.388   0.087  10.885  0.00  0.00    -0.080 Cl
ATOM     24  C   LIG d   1       8.270   2.624  11.085  0.00  0.00     0.139 A 
ATOM     25  C   LIG d   1       8.121   3.980  11.328  0.00  0.00     0.092 A 
ATOM     26  C   LIG d   1       6.847   4.497  11.572  0.00  0.00     0.130 A 
BRANCH  24  27
ATOM     27  O   LIG d   1       9.488   2.068  10.817  0.00  0.00    -0.505 OA
ATOM     28  H   LIG d   1      10.194   2.729  10.813  0.00  0.00     0.292 HD
ENDBRANCH  24  27
BRANCH  26  29
ATOM     29  O   LIG d   1       6.736   5.843  11.819  0.00  0.00    -0.506 OA
ATOM     30  H   LIG d   1       7.614   6.271  11.785  0.00  0.00     0.292 HD
ENDBRANCH  26  29
ENDBRANCH   5  20
TORSDOF 6
