REMARK  7 active torsions:
REMARK  status: ('A' for Active; 'I' for Inactive)
REMARK    1  A    between atoms: S_2  and  C_5 
REMARK    2  A    between atoms: C_10  and  C_11 
REMARK    3  A    between atoms: C_11  and  N_12 
REMARK    4  A    between atoms: N_17  and  C_18 
REMARK    5  A    between atoms: C_22  and  C_23 
REMARK    6  A    between atoms: C_27  and  O_28 
REMARK    7  A    between atoms: C_30  and  O_31 
ROOT
ATOM      1  N   LIG d   1      34.439   6.606  24.077  0.00  0.00     1.000 N 
ATOM      2  C   LIG d   1      33.079   7.022  23.574  0.00  0.00     0.000 C 
ATOM      3  C   LIG d   1      31.966   6.961  24.618  0.00  0.00     0.000 C 
ATOM      4  C   LIG d   1      34.450   6.094  25.520  0.00  0.00     0.000 C 
ATOM      5  C   LIG d   1      33.618   6.949  26.505  0.00  0.00     0.000 C 
ATOM      6  N   LIG d   1      32.382   7.486  25.907  0.00  0.00     0.000 N 
ATOM      7  H   LIG d   1      34.957   7.496  24.116  0.00  0.00     0.000 HD
ENDROOT
BRANCH   6   8
ATOM      8  C   LIG d   1      31.548   8.255  26.661  0.00  0.00     0.000 A 
ATOM      9  C   LIG d   1      31.151   7.928  27.951  0.00  0.00     0.000 A 
ATOM     10  N   LIG d   1      30.357   8.821  28.516  0.00  0.00     0.000 NA
ATOM     11  N   LIG d   1      30.177   9.791  27.551  0.00  0.00     0.000 N 
ATOM     12  C   LIG d   1      30.905   9.461  26.407  0.00  0.00     0.000 A 
ATOM     13  H   LIG d   1      29.562  10.605  27.748  0.00  0.00     0.000 HD
BRANCH  12  14
ATOM     14  C   LIG d   1      30.911  10.381  25.257  0.00  0.00     0.000 A 
ATOM     15  C   LIG d   1      32.120  10.830  24.784  0.00  0.00     0.000 A 
ATOM     16  C   LIG d   1      32.174  11.637  23.627  0.00  0.00     0.000 A 
ATOM     17 CL   LIG d   1      33.757  12.120  23.139  0.00  0.00     0.000 Cl
ATOM     18  C   LIG d   1      31.018  12.005  22.933  0.00  0.00     0.000 A 
ATOM     19  C   LIG d   1      29.789  11.579  23.440  0.00  0.00     0.000 A 
ATOM     20  C   LIG d   1      29.737  10.777  24.603  0.00  0.00     0.000 A 
BRANCH  18  21
ATOM     21  O   LIG d   1      31.099  12.751  21.791  0.00  0.00     0.000 OA
ATOM     22  H   LIG d   1      30.250  12.973  21.363  0.00  0.00     0.000 HD
ENDBRANCH  18  21
BRANCH  20  23
ATOM     23  O   LIG d   1      28.530  10.335  25.088  0.00  0.00     0.000 OA
ATOM     24  H   LIG d   1      27.795  10.647  24.533  0.00  0.00     0.000 HD
ENDBRANCH  20  23
ENDBRANCH  12  14
ENDBRANCH   6   8
BRANCH   1  25
ATOM     25  C   LIG d   1      35.213   5.676  23.127  0.00  0.00     0.000 C 
BRANCH  25  26
ATOM     26  C   LIG d   1      34.484   5.040  21.948  0.00  0.00     0.000 A 
ATOM     27  C   LIG d   1      34.431   5.599  20.654  0.00  0.00     0.000 A 
ATOM     28  C   LIG d   1      33.723   4.956  19.568  0.00  0.00     0.000 A 
ATOM     29  C   LIG d   1      33.021   3.749  19.768  0.00  0.00     0.000 A 
ATOM     30  C   LIG d   1      33.105   3.197  21.056  0.00  0.00     0.000 A 
ATOM     31  C   LIG d   1      33.799   3.830  22.123  0.00  0.00     0.000 A 
BRANCH  29  32
ATOM     32  S   LIG d   1      32.079   2.802  18.421  0.00  0.00     0.000 S 
ATOM     33  C   LIG d   1      30.342   3.099  18.604  0.00  0.00     0.000 C 
ATOM     34  O   LIG d   1      32.227   1.380  18.753  0.00  0.00     0.000 OA
ATOM     35  O   LIG d   1      32.456   3.281  17.126  0.00  0.00     0.000 OA
ENDBRANCH  29  32
ENDBRANCH  25  26
ENDBRANCH   1  25
TORSDOF 7
