2CCU_2D9_A_1224
 OpenBabel03301717013D

 55 58  0  0  0  0  0  0  0  0999 V2000
   30.3418    3.0990   18.6038 C   0  0  0  0  0  0  0  0  0  0  0  0
   32.0792    2.8021   18.4206 S   0  0  0  0  0  0  0  0  0  0  0  0
   32.2266    1.3802   18.7526 O   0  0  0  0  0  0  0  0  0  0  0  0
   32.4562    3.2813   17.1262 O   0  0  0  0  0  0  0  0  0  0  0  0
   33.0207    3.7491   19.7684 C   0  0  0  0  0  0  0  0  0  0  0  0
   33.7232    4.9562   19.5683 C   0  0  0  0  0  0  0  0  0  0  0  0
   34.4309    5.5993   20.6544 C   0  0  0  0  0  0  0  0  0  0  0  0
   33.1048    3.1969   21.0562 C   0  0  0  0  0  0  0  0  0  0  0  0
   33.7994    3.8300   22.1229 C   0  0  0  0  0  0  0  0  0  0  0  0
   34.4845    5.0401   21.9481 C   0  0  0  0  0  0  0  0  0  0  0  0
   35.2134    5.6757   23.1274 C   0  0  0  0  0  0  0  0  0  0  0  0
   34.4394    6.6061   24.0774 N   0  3  0  0  0  0  0  0  0  0  0  0
   33.0791    7.0225   23.5740 C   0  0  0  0  0  0  0  0  0  0  0  0
   31.9665    6.9608   24.6181 C   0  0  0  0  0  0  0  0  0  0  0  0
   34.4501    6.0940   25.5198 C   0  0  0  0  0  0  0  0  0  0  0  0
   33.6181    6.9488   26.5047 C   0  0  0  0  0  0  0  0  0  0  0  0
   32.3822    7.4856   25.9071 N   0  0  0  0  0  0  0  0  0  0  0  0
   31.5483    8.2554   26.6614 C   0  0  0  0  0  0  0  0  0  0  0  0
   31.1515    7.9276   27.9515 C   0  0  0  0  0  0  0  0  0  0  0  0
   30.3570    8.8209   28.5158 N   0  0  0  0  0  0  0  0  0  0  0  0
   30.1766    9.7915   27.5506 N   0  3  0  0  0  0  0  0  0  0  0  0
   30.9053    9.4606   26.4070 C   0  0  0  0  0  0  0  0  0  0  0  0
   30.9107   10.3814   25.2574 C   0  0  0  0  0  0  0  0  0  0  0  0
   32.1201   10.8299   24.7841 C   0  0  0  0  0  0  0  0  0  0  0  0
   32.1739   11.6373   23.6267 C   0  0  0  0  0  0  0  0  0  0  0  0
   33.7569   12.1200   23.1390 Cl  0  0  0  0  0  0  0  0  0  0  0  0
   31.0181   12.0055   22.9333 C   0  0  0  0  0  0  0  0  0  0  0  0
   31.0988   12.7511   21.7914 O   0  0  0  0  0  0  0  0  0  0  0  0
   29.7888   11.5790   23.4404 C   0  0  0  0  0  0  0  0  0  0  0  0
   29.7374   10.7771   24.6032 C   0  0  0  0  0  0  0  0  0  0  0  0
   28.5303   10.3353   25.0881 O   0  0  0  0  0  0  0  0  0  0  0  0
   29.8433    2.5239   17.8116 H   0  0  0  0  0  0  0  0  0  0  0  0
   30.1048    4.1530   18.4725 H   0  0  0  0  0  0  0  0  0  0  0  0
   29.9794    2.7332   19.5656 H   0  0  0  0  0  0  0  0  0  0  0  0
   33.7401    5.4310   18.5884 H   0  0  0  0  0  0  0  0  0  0  0  0
   34.9553    6.5400   20.4527 H   0  0  0  0  0  0  0  0  0  0  0  0
   32.6157    2.2462   21.2584 H   0  0  0  0  0  0  0  0  0  0  0  0
   33.8192    3.3454   23.0991 H   0  0  0  0  0  0  0  0  0  0  0  0
   36.0630    6.2658   22.7707 H   0  0  0  0  0  0  0  0  0  0  0  0
   35.6171    4.8751   23.7629 H   0  0  0  0  0  0  0  0  0  0  0  0
   34.9572    7.4959   24.1158 H   0  0  0  0  0  0  0  0  0  0  0  0
   32.8086    6.3789   22.7441 H   0  0  0  0  0  0  0  0  0  0  0  0
   33.1916    8.0402   23.1926 H   0  0  0  0  0  0  0  0  0  0  0  0
   31.6403    5.9167   24.6991 H   0  0  0  0  0  0  0  0  0  0  0  0
   31.1372    7.5549   24.2392 H   0  0  0  0  0  0  0  0  0  0  0  0
   35.5002    6.0667   25.8364 H   0  0  0  0  0  0  0  0  0  0  0  0
   34.0523    5.0745   25.4874 H   0  0  0  0  0  0  0  0  0  0  0  0
   34.2297    7.8031   26.8259 H   0  0  0  0  0  0  0  0  0  0  0  0
   33.4304    6.3279   27.3952 H   0  0  0  0  0  0  0  0  0  0  0  0
   31.4410    7.0240   28.4800 H   0  0  0  0  0  0  0  0  0  0  0  0
   29.5622   10.6048   27.7482 H   0  0  0  0  0  0  0  0  0  0  0  0
   33.0256   10.5432   25.3150 H   0  0  0  0  0  0  0  0  0  0  0  0
   30.2496   12.9727   21.3629 H   0  0  0  0  0  0  0  0  0  0  0  0
   28.8599   11.8521   22.9581 H   0  0  0  0  0  0  0  0  0  0  0  0
   27.7952   10.6466   24.5332 H   0  0  0  0  0  0  0  0  0  0  0  0
  1  2  1  0  0  0  0
  1 32  1  0  0  0  0
  1 33  1  0  0  0  0
  1 34  1  0  0  0  0
  2  3  2  0  0  0  0
  2  4  2  0  0  0  0
  2  5  1  0  0  0  0
  5  6  2  0  0  0  0
  5  8  1  0  0  0  0
  6  7  1  0  0  0  0
  6 35  1  0  0  0  0
  7 10  2  0  0  0  0
  7 36  1  0  0  0  0
  8  9  2  0  0  0  0
  8 37  1  0  0  0  0
  9 10  1  0  0  0  0
  9 38  1  0  0  0  0
 10 11  1  0  0  0  0
 11 12  1  0  0  0  0
 11 39  1  0  0  0  0
 11 40  1  0  0  0  0
 12 13  1  0  0  0  0
 12 15  1  0  0  0  0
 12 41  1  0  0  0  0
 13 14  1  0  0  0  0
 13 42  1  0  0  0  0
 13 43  1  0  0  0  0
 14 17  1  0  0  0  0
 14 44  1  0  0  0  0
 14 45  1  0  0  0  0
 15 16  1  0  0  0  0
 15 46  1  0  0  0  0
 15 47  1  0  0  0  0
 16 17  1  0  0  0  0
 16 48  1  0  0  0  0
 16 49  1  0  0  0  0
 17 18  1  0  0  0  0
 18 19  2  0  0  0  0
 18 22  1  0  0  0  0
 19 20  1  0  0  0  0
 19 50  1  0  0  0  0
 20 21  1  0  0  0  0
 21 22  2  0  0  0  0
 21 51  1  0  0  0  0
 22 23  1  0  0  0  0
 23 24  2  0  0  0  0
 23 30  1  0  0  0  0
 24 25  1  0  0  0  0
 24 52  1  0  0  0  0
 25 26  1  0  0  0  0
 25 27  2  0  0  0  0
 27 28  1  0  0  0  0
 27 29  1  0  0  0  0
 28 53  1  0  0  0  0
 29 30  2  0  0  0  0
 29 54  1  0  0  0  0
 30 31  1  0  0  0  0
 31 55  1  0  0  0  0
M  CHG  2  12   1  21   1
M  END
$$$$
