@<TRIPOS>MOLECULE
2CCU_2D9_A_1224
 55 58 0 0 0
SMALL
USER_CHARGES

@<TRIPOS>ATOM
      1 C          30.3418    3.0990   18.6038 C.3     1  LIG1        0.0000
      2 S          32.0792    2.8021   18.4206 S.O2    1  LIG1        0.0000
      3 O          32.2266    1.3802   18.7526 O.2     1  LIG1        0.0000
      4 O          32.4562    3.2813   17.1262 O.2     1  LIG1        0.0000
      5 C          33.0207    3.7491   19.7684 C.ar    1  LIG1        0.0000
      6 C          33.7232    4.9562   19.5683 C.ar    1  LIG1        0.0000
      7 C          34.4309    5.5993   20.6544 C.ar    1  LIG1        0.0000
      8 C          33.1048    3.1969   21.0562 C.ar    1  LIG1        0.0000
      9 C          33.7994    3.8300   22.1229 C.ar    1  LIG1        0.0000
     10 C          34.4845    5.0401   21.9481 C.ar    1  LIG1        0.0000
     11 C          35.2134    5.6757   23.1274 C.3     1  LIG1        0.0000
     12 N          34.4394    6.6061   24.0774 N.4     1  LIG1        1.0000
     13 C          33.0791    7.0225   23.5740 C.3     1  LIG1        0.0000
     14 C          31.9665    6.9608   24.6181 C.3     1  LIG1        0.0000
     15 C          34.4501    6.0940   25.5198 C.3     1  LIG1        0.0000
     16 C          33.6181    6.9488   26.5047 C.3     1  LIG1        0.0000
     17 N          32.3822    7.4856   25.9071 N.pl3   1  LIG1        0.0000
     18 C          31.5483    8.2554   26.6614 C.ar    1  LIG1        0.0000
     19 C          31.1515    7.9276   27.9515 C.ar    1  LIG1        0.0000
     20 N          30.3570    8.8209   28.5158 N.ar    1  LIG1        0.0000
     21 N          30.1766    9.7915   27.5506 N.ar    1  LIG1        0.0000
     22 C          30.9053    9.4606   26.4070 C.ar    1  LIG1        0.0000
     23 C          30.9107   10.3814   25.2574 C.ar    1  LIG1        0.0000
     24 C          32.1201   10.8299   24.7841 C.ar    1  LIG1        0.0000
     25 C          32.1739   11.6373   23.6267 C.ar    1  LIG1        0.0000
     26 CL         33.7569   12.1200   23.1390 Cl      1  LIG1        0.0000
     27 C          31.0181   12.0055   22.9333 C.ar    1  LIG1        0.0000
     28 O          31.0988   12.7511   21.7914 O.3     1  LIG1        0.0000
     29 C          29.7888   11.5790   23.4404 C.ar    1  LIG1        0.0000
     30 C          29.7374   10.7771   24.6032 C.ar    1  LIG1        0.0000
     31 O          28.5303   10.3353   25.0881 O.3     1  LIG1        0.0000
     32 H          29.8433    2.5239   17.8116 H       1  LIG1        0.0000
     33 H          30.1048    4.1530   18.4725 H       1  LIG1        0.0000
     34 H          29.9794    2.7332   19.5656 H       1  LIG1        0.0000
     35 H          33.7401    5.4310   18.5884 H       1  LIG1        0.0000
     36 H          34.9553    6.5400   20.4527 H       1  LIG1        0.0000
     37 H          32.6157    2.2462   21.2584 H       1  LIG1        0.0000
     38 H          33.8192    3.3454   23.0991 H       1  LIG1        0.0000
     39 H          36.0630    6.2658   22.7707 H       1  LIG1        0.0000
     40 H          35.6171    4.8751   23.7629 H       1  LIG1        0.0000
     41 H          34.9572    7.4959   24.1158 H       1  LIG1        0.0000
     42 H          32.8086    6.3789   22.7441 H       1  LIG1        0.0000
     43 H          33.1916    8.0402   23.1926 H       1  LIG1        0.0000
     44 H          31.6403    5.9167   24.6991 H       1  LIG1        0.0000
     45 H          31.1372    7.5549   24.2392 H       1  LIG1        0.0000
     46 H          35.5002    6.0667   25.8364 H       1  LIG1        0.0000
     47 H          34.0523    5.0745   25.4874 H       1  LIG1        0.0000
     48 H          34.2297    7.8031   26.8259 H       1  LIG1        0.0000
     49 H          33.4304    6.3279   27.3952 H       1  LIG1        0.0000
     50 H          31.4410    7.0240   28.4800 H       1  LIG1        0.0000
     51 H          29.5622   10.6048   27.7482 H       1  LIG1        0.0000
     52 H          33.0256   10.5432   25.3150 H       1  LIG1        0.0000
     53 H          30.2496   12.9727   21.3629 H       1  LIG1        0.0000
     54 H          28.8599   11.8521   22.9581 H       1  LIG1        0.0000
     55 H          27.7952   10.6466   24.5332 H       1  LIG1        0.0000
@<TRIPOS>BOND
     1     1     2    1
     2     1    32    1
     3     1    33    1
     4     1    34    1
     5     2     3    2
     6     2     4    2
     7     2     5    1
     8     5     6   ar
     9     5     8   ar
    10     6     7   ar
    11     6    35    1
    12     7    10   ar
    13     7    36    1
    14     8     9   ar
    15     8    37    1
    16     9    10   ar
    17     9    38    1
    18    10    11    1
    19    11    12    1
    20    11    39    1
    21    11    40    1
    22    12    13    1
    23    12    15    1
    24    12    41    1
    25    13    14    1
    26    13    42    1
    27    13    43    1
    28    14    17    1
    29    14    44    1
    30    14    45    1
    31    15    16    1
    32    15    46    1
    33    15    47    1
    34    16    17    1
    35    16    48    1
    36    16    49    1
    37    17    18    1
    38    18    19   ar
    39    18    22   ar
    40    19    20   ar
    41    19    50    1
    42    20    21   ar
    43    21    22   ar
    44    21    51    1
    45    22    23    1
    46    23    24   ar
    47    23    30   ar
    48    24    25   ar
    49    24    52    1
    50    25    26    1
    51    25    27   ar
    52    27    28    1
    53    27    29   ar
    54    28    53    1
    55    29    30   ar
    56    29    54    1
    57    30    31    1
    58    31    55    1
