@<TRIPOS>MOLECULE
2BYI_2DD_A_1226
 43 45 0 0 0
SMALL
USER_CHARGES

@<TRIPOS>ATOM
      1 CL          7.1650    0.0645   10.6193 Cl      1  LIG1       -0.0797
      2 C           7.1295    1.7311   11.0634 C.ar    1  LIG1        0.0831
      3 C           8.2949    2.4943   11.1432 C.ar    1  LIG1        0.1386
      4 C           8.2299    3.8431   11.4971 C.ar    1  LIG1        0.0234
      5 C           6.9910    4.4329   11.7494 C.ar    1  LIG1        0.1296
      6 O           7.0059    5.7629   12.0708 O.3     1  LIG1       -0.5060
      7 O           9.4990    1.9097   10.8679 O.3     1  LIG1       -0.5052
      8 C           5.8963    2.3254   11.3229 C.ar    1  LIG1       -0.0271
      9 C           5.8107    3.6883   11.6434 C.ar    1  LIG1        0.0435
     10 C           4.4915    4.2932   11.7558 C.ar    1  LIG1        0.0814
     11 N           4.0723    4.9828   12.8679 N.ar    1  LIG1       -0.2761
     12 N           2.8312    5.4711   12.7689 N.ar    1  LIG1       -0.1810
     13 C           2.4048    5.0092   11.5916 C.ar    1  LIG1        0.0619
     14 C           3.4005    4.2839   10.8952 C.ar    1  LIG1        0.0817
     15 C           3.2269    3.6991    9.5832 C.2     1  LIG1        0.2479
     16 O           2.1050    3.3999    9.1771 O.2     1  LIG1       -0.2701
     17 N           4.3575    3.5359    8.8208 N.am    1  LIG1       -0.3071
     18 C           4.2520    3.0759    7.4524 C.3     1  LIG1        0.0371
     19 C           4.3350    1.5830    7.2786 C.ar    1  LIG1       -0.0302
     20 C           4.1710    0.6631    8.3267 C.ar    1  LIG1       -0.0552
     21 C           4.2195   -0.7131    8.1039 C.ar    1  LIG1       -0.0351
     22 C           4.5116    1.0775    5.9818 C.ar    1  LIG1       -0.0552
     23 C           4.5506   -0.2924    5.7412 C.ar    1  LIG1       -0.0351
     24 C           4.3974   -1.1872    6.8043 C.ar    1  LIG1        0.1050
     25 S           4.4378   -2.9122    6.4250 S.O2    1  LIG1        0.0559
     26 O           5.7164   -3.2008    5.8168 O.2     1  LIG1       -0.1533
     27 O           3.1873   -3.2671    5.8008 O.2     1  LIG1       -0.1533
     28 N           4.4808   -3.6917    7.9171 N.3     1  LIG1       -0.2035
     29 H           9.1266    4.4526   11.5601 H       1  LIG1        0.0691
     30 H           6.1048    6.1274   12.0619 H       1  LIG1        0.2922
     31 H          10.2102    2.5670   10.9337 H       1  LIG1        0.2922
     32 H           4.9903    1.7288   11.2452 H       1  LIG1        0.0641
     33 H           4.5997    5.1825   13.7134 H       1  LIG1        0.1889
     34 H           1.4009    5.2291   11.2586 H       1  LIG1        0.0856
     35 H           5.2730    3.7705    9.1695 H       1  LIG1        0.1493
     36 H           5.0716    3.5524    6.9028 H       1  LIG1        0.0512
     37 H           3.3068    3.4326    7.0284 H       1  LIG1        0.0512
     38 H           3.9879    1.0077    9.3437 H       1  LIG1        0.0621
     39 H           4.0932   -1.3915    8.9442 H       1  LIG1        0.0637
     40 H           4.5958    1.7645    5.1383 H       1  LIG1        0.0621
     41 H           4.6790   -0.6577    4.7246 H       1  LIG1        0.0637
     42 H           5.3408   -3.4666    8.4165 H       1  LIG1        0.1442
     43 H           4.4158   -4.6971    7.7458 H       1  LIG1        0.1442
@<TRIPOS>BOND
     1     1     2    1
     2     2     3   ar
     3     2     8   ar
     4     3     4   ar
     5     3     7    1
     6     4     5   ar
     7     4    29    1
     8     5     6    1
     9     5     9   ar
    10     6    30    1
    11     7    31    1
    12     8     9   ar
    13     8    32    1
    14     9    10    1
    15    10    11   ar
    16    10    14   ar
    17    11    12   ar
    18    11    33    1
    19    12    13   ar
    20    13    14   ar
    21    13    34    1
    22    14    15    1
    23    15    16    2
    24    15    17   am
    25    17    18    1
    26    17    35    1
    27    18    19    1
    28    18    36    1
    29    18    37    1
    30    19    20   ar
    31    19    22   ar
    32    20    21   ar
    33    20    38    1
    34    21    24   ar
    35    21    39    1
    36    22    23   ar
    37    22    40    1
    38    23    24   ar
    39    23    41    1
    40    24    25    1
    41    25    26    2
    42    25    27    2
    43    25    28    1
    44    28    42    1
    45    28    43    1
