REMARK  8 active torsions:
REMARK  status: ('A' for Active; 'I' for Inactive)
REMARK    1  A    between atoms: C_3  and  O_7 
REMARK    2  A    between atoms: C_5  and  O_6 
REMARK    3  A    between atoms: C_9  and  C_10 
REMARK    4  A    between atoms: C_14  and  C_15 
REMARK       I    between atoms: C_15  and  N_17 
REMARK    5  A    between atoms: N_17  and  C_18 
REMARK    6  A    between atoms: C_18  and  C_19 
REMARK    7  A    between atoms: C_24  and  S_25 
REMARK    8  A    between atoms: S_25  and  N_28 
ROOT
ATOM      1  C   LIG d   1       4.492   4.293  11.756  0.00  0.00     0.081 A 
ATOM      2  N   LIG d   1       4.072   4.983  12.868  0.00  0.00    -0.276 N 
ATOM      3  N   LIG d   1       2.831   5.471  12.769  0.00  0.00    -0.181 NA
ATOM      4  C   LIG d   1       2.405   5.009  11.592  0.00  0.00     0.147 A 
ATOM      5  C   LIG d   1       3.401   4.284  10.895  0.00  0.00     0.082 A 
ATOM      6  H   LIG d   1       4.600   5.183  13.713  0.00  0.00     0.189 HD
ENDROOT
BRANCH   5   7
ATOM      7  C   LIG d   1       3.227   3.699   9.583  0.00  0.00     0.248 C 
ATOM      8  O   LIG d   1       2.105   3.400   9.177  0.00  0.00    -0.270 OA
ATOM      9  N   LIG d   1       4.357   3.536   8.821  0.00  0.00    -0.307 N 
ATOM     10  H   LIG d   1       5.273   3.771   9.169  0.00  0.00     0.149 HD
BRANCH   9  11
ATOM     11  C   LIG d   1       4.252   3.076   7.452  0.00  0.00     0.140 C 
BRANCH  11  12
ATOM     12  C   LIG d   1       4.335   1.583   7.279  0.00  0.00    -0.030 A 
ATOM     13  C   LIG d   1       4.171   0.663   8.327  0.00  0.00     0.007 A 
ATOM     14  C   LIG d   1       4.220  -0.713   8.104  0.00  0.00     0.029 A 
ATOM     15  C   LIG d   1       4.397  -1.187   6.804  0.00  0.00     0.105 A 
ATOM     16  C   LIG d   1       4.551  -0.292   5.741  0.00  0.00     0.029 A 
ATOM     17  C   LIG d   1       4.512   1.077   5.982  0.00  0.00     0.007 A 
BRANCH  15  18
ATOM     18  S   LIG d   1       4.438  -2.912   6.425  0.00  0.00     0.056 S 
ATOM     19  O   LIG d   1       5.716  -3.201   5.817  0.00  0.00    -0.153 OA
ATOM     20  O   LIG d   1       3.187  -3.267   5.801  0.00  0.00    -0.153 OA
BRANCH  18  21
ATOM     21  N   LIG d   1       4.481  -3.692   7.917  0.00  0.00    -0.203 NA
ATOM     22  H   LIG d   1       5.341  -3.467   8.416  0.00  0.00     0.144 HD
ATOM     23  H   LIG d   1       4.416  -4.697   7.746  0.00  0.00     0.144 HD
ENDBRANCH  18  21
ENDBRANCH  15  18
ENDBRANCH  11  12
ENDBRANCH   9  11
ENDBRANCH   5   7
BRANCH   1  24
ATOM     24  C   LIG d   1       5.811   3.688  11.643  0.00  0.00     0.043 A 
ATOM     25  C   LIG d   1       6.991   4.433  11.749  0.00  0.00     0.130 A 
ATOM     26  C   LIG d   1       8.230   3.843  11.497  0.00  0.00     0.092 A 
ATOM     27  C   LIG d   1       8.295   2.494  11.143  0.00  0.00     0.139 A 
ATOM     28  C   LIG d   1       7.130   1.731  11.063  0.00  0.00     0.083 A 
ATOM     29 CL   LIG d   1       7.165   0.065  10.619  0.00  0.00    -0.080 Cl
ATOM     30  C   LIG d   1       5.896   2.325  11.323  0.00  0.00     0.037 A 
BRANCH  25  31
ATOM     31  O   LIG d   1       7.006   5.763  12.071  0.00  0.00    -0.506 OA
ATOM     32  H   LIG d   1       6.105   6.127  12.062  0.00  0.00     0.292 HD
ENDBRANCH  25  31
BRANCH  27  33
ATOM     33  O   LIG d   1       9.499   1.910  10.868  0.00  0.00    -0.505 OA
ATOM     34  H   LIG d   1      10.210   2.567  10.934  0.00  0.00     0.292 HD
ENDBRANCH  27  33
ENDBRANCH   1  24
TORSDOF 8
