@<TRIPOS>MOLECULE
2XDL_2DL_A_1225
 33 33 0 0 0
SMALL
USER_CHARGES

@<TRIPOS>ATOM
      1 C          64.9896   33.1434   27.7073 C.ar    1  LIG1        0.1585
      2 C          66.0977   33.4588   26.9104 C.ar    1  LIG1        0.1620
      3 C          65.8926   34.1536   25.7197 C.ar    1  LIG1       -0.0042
      4 C          64.6051   34.5578   25.3356 C.ar    1  LIG1        0.0406
      5 C          63.5123   34.2625   26.1480 C.ar    1  LIG1       -0.0459
      6 C          63.7054   33.5503   27.3391 C.ar    1  LIG1       -0.0158
      7 O          65.2081   32.4605   28.8785 O.3     1  LIG1       -0.5033
      8 C          65.1114   38.5462   25.2585 C.3     1  LIG1       -0.0493
      9 C          65.7392   37.1907   25.0702 C.3     1  LIG1        0.0121
     10 C          65.2700   37.1424   22.6166 C.3     1  LIG1        0.0121
     11 C          66.7072   37.4126   22.2219 C.3     1  LIG1       -0.0493
     12 C          64.4471   35.3253   24.0740 C.2     1  LIG1        0.2467
     13 O          63.6912   34.8636   23.2058 O.2     1  LIG1       -0.2700
     14 O          67.3295   33.0251   27.3230 O.3     1  LIG1       -0.4914
     15 N          65.1881   36.4800   23.9180 N.am    1  LIG1       -0.2980
     16 C          68.4337   33.8578   26.9827 C.3     1  LIG1        0.0790
     17 H          66.7289   34.4113   25.0846 H       1  LIG1        0.0663
     18 H          62.5151   34.5829   25.8609 H       1  LIG1        0.0626
     19 H          62.8484   33.3178   27.9602 H       1  LIG1        0.0655
     20 H          64.3886   32.3096   29.3689 H       1  LIG1        0.2923
     21 H          65.5547   39.0422   26.1241 H       1  LIG1        0.0245
     22 H          64.0320   38.4506   25.4087 H       1  LIG1        0.0245
     23 H          65.2879   39.1756   24.3807 H       1  LIG1        0.0245
     24 H          65.5690   36.6227   25.9791 H       1  LIG1        0.0462
     25 H          66.8143   37.2907   24.9303 H       1  LIG1        0.0462
     26 H          64.7990   36.5281   21.8422 H       1  LIG1        0.0462
     27 H          64.7264   38.0895   22.6676 H       1  LIG1        0.0462
     28 H          67.2623   36.4714   22.1543 H       1  LIG1        0.0245
     29 H          67.1990   38.0514   22.9625 H       1  LIG1        0.0245
     30 H          66.7479   37.9223   21.2559 H       1  LIG1        0.0245
     31 H          69.3504   33.4095   27.3829 H       1  LIG1        0.0660
     32 H          68.3204   34.8539   27.4253 H       1  LIG1        0.0660
     33 H          68.5585   33.9434   25.8993 H       1  LIG1        0.0660
@<TRIPOS>BOND
     1     1     2   ar
     2     1     6   ar
     3     1     7    1
     4     2     3   ar
     5     2    14    1
     6     3     4   ar
     7     3    17    1
     8     4     5   ar
     9     4    12    1
    10     5     6   ar
    11     5    18    1
    12     6    19    1
    13     7    20    1
    14     8     9    1
    15     8    21    1
    16     8    22    1
    17     8    23    1
    18     9    15    1
    19     9    24    1
    20     9    25    1
    21    10    11    1
    22    10    15    1
    23    10    26    1
    24    10    27    1
    25    11    28    1
    26    11    29    1
    27    11    30    1
    28    12    13    2
    29    12    15   am
    30    14    16    1
    31    16    31    1
    32    16    32    1
    33    16    33    1
