REMARK  6 active torsions:
REMARK  status: ('A' for Active; 'I' for Inactive)
REMARK    1  A    between atoms: N_5  and  C_6 
REMARK    2  A    between atoms: C_7  and  C_8 
REMARK       I    between atoms: C_8  and  N_11 
REMARK    3  A    between atoms: N_11  and  C_12 
REMARK    4  A    between atoms: C_16  and  C_17 
REMARK    5  A    between atoms: C_21  and  O_22 
REMARK    6  A    between atoms: C_24  and  O_25 
ROOT
ATOM      1  C   LIG d   1      31.808   8.711  26.359  0.00  0.00     0.000 A 
ATOM      2  C   LIG d   1      31.431   8.378  27.686  0.00  0.00     0.000 A 
ATOM      3  N   LIG d   1      30.577   9.294  28.185  0.00  0.00     0.000 NA
ATOM      4  N   LIG d   1      30.350  10.121  27.140  0.00  0.00     0.000 N 
ATOM      5  C   LIG d   1      31.112   9.851  26.030  0.00  0.00     0.000 A 
ATOM      6  H   LIG d   1      29.685  10.880  27.253  0.00  0.00     0.000 HD
ENDROOT
BRANCH   5   7
ATOM      7  C   LIG d   1      31.121  10.697  24.839  0.00  0.00     0.000 A 
ATOM      8  C   LIG d   1      32.344  11.185  24.361  0.00  0.00     0.000 A 
ATOM      9  C   LIG d   1      32.402  11.925  23.182  0.00  0.00     0.000 A 
ATOM     10 CL   LIG d   1      33.947  12.454  22.628  0.00  0.00     0.000 Cl
ATOM     11  C   LIG d   1      31.230  12.199  22.476  0.00  0.00     0.000 A 
ATOM     12  C   LIG d   1      29.996  11.748  22.951  0.00  0.00     0.000 A 
ATOM     13  C   LIG d   1      29.951  11.005  24.132  0.00  0.00     0.000 A 
BRANCH  11  14
ATOM     14  O   LIG d   1      31.299  12.905  21.307  0.00  0.00     0.000 OA
ATOM     15  H   LIG d   1      30.408  13.094  20.969  0.00  0.00     0.000 HD
ENDBRANCH  11  14
BRANCH  13  16
ATOM     16  O   LIG d   1      28.752  10.548  24.613  0.00  0.00     0.000 OA
ATOM     17  H   LIG d   1      28.032  10.808  24.012  0.00  0.00     0.000 HD
ENDBRANCH  13  16
ENDBRANCH   5   7
BRANCH   1  18
ATOM     18  N   LIG d   1      32.719   8.042  25.600  0.00  0.00     0.000 N 
ATOM     19  C   LIG d   1      34.141   8.244  25.925  0.00  0.00     0.000 C 
ATOM     20  C   LIG d   1      35.046   7.137  25.373  0.00  0.00     0.000 C 
ATOM     21  N   LIG d   1      34.688   6.853  23.940  0.00  0.00     1.000 N 
ATOM     22  C   LIG d   1      33.267   6.361  23.848  0.00  0.00     0.000 C 
ATOM     23  H   LIG d   1      35.334   6.160  23.544  0.00  0.00     0.000 HD
ATOM     24  H   LIG d   1      34.782   7.715  23.387  0.00  0.00     0.000 HD
ATOM     25  C   LIG d   1      32.307   7.469  24.314  0.00  0.00     0.000 C 
ENDBRANCH   1  18
BRANCH   2  26
ATOM     26  C   LIG d   1      31.887   7.197  28.430  0.00  0.00     0.000 C 
ATOM     27  O   LIG d   1      32.424   6.232  27.877  0.00  0.00     0.000 OA
ATOM     28  N   LIG d   1      31.703   7.261  29.791  0.00  0.00     0.000 N 
ATOM     29  H   LIG d   1      31.242   8.093  30.152  0.00  0.00     0.000 HD
BRANCH  28  30
ATOM     30  C   LIG d   1      31.954   6.117  30.633  0.00  0.00     0.000 C 
ATOM     31  C   LIG d   1      33.438   5.855  30.840  0.00  0.00     0.000 C 
ENDBRANCH  28  30
ENDBRANCH   2  26
TORSDOF 6
