@<TRIPOS>MOLECULE
2CCT_2E1_A_1224
 46 48 0 0 0
SMALL
USER_CHARGES

@<TRIPOS>ATOM
      1 C          35.0457    7.1374   25.3726 C.3     1  LIG1        0.0000
      2 C          34.1407    8.2440   25.9246 C.3     1  LIG1        0.0000
      3 C          32.3070    7.4689   24.3135 C.3     1  LIG1        0.0000
      4 C          33.2667    6.3608   23.8478 C.3     1  LIG1        0.0000
      5 N          32.7189    8.0422   25.6000 N.pl3   1  LIG1        0.0000
      6 C          31.8085    8.7108   26.3586 C.ar    1  LIG1        0.0000
      7 C          31.4309    8.3777   27.6864 C.ar    1  LIG1        0.0000
      8 C          31.8871    7.1969   28.4303 C.2     1  LIG1        0.0000
      9 N          34.6877    6.8527   23.9398 N.4     1  LIG1        1.0000
     10 O          32.4237    6.2325   27.8770 O.2     1  LIG1        0.0000
     11 N          31.7034    7.2610   29.7910 N.am    1  LIG1        0.0000
     12 C          31.9540    6.1175   30.6326 C.3     1  LIG1        0.0000
     13 C          33.4385    5.8554   30.8400 C.3     1  LIG1        0.0000
     14 N          30.5771    9.2940   28.1848 N.ar    1  LIG1        0.0000
     15 N          30.3500   10.1215   27.1400 N.ar    1  LIG1        0.0000
     16 C          31.1123    9.8514   26.0303 C.ar    1  LIG1        0.0000
     17 C          31.1211   10.6968   24.8393 C.ar    1  LIG1        0.0000
     18 C          32.3438   11.1855   24.3610 C.ar    1  LIG1        0.0000
     19 C          32.4017   11.9247   23.1822 C.ar    1  LIG1        0.0000
     20 CL         33.9475   12.4542   22.6284 Cl      1  LIG1        0.0000
     21 C          31.2296   12.1992   22.4756 C.ar    1  LIG1        0.0000
     22 O          31.2994   12.9047   21.3074 O.3     1  LIG1        0.0000
     23 C          29.9959   11.7482   22.9515 C.ar    1  LIG1        0.0000
     24 C          29.9514   11.0053   24.1321 C.ar    1  LIG1        0.0000
     25 O          28.7523   10.5479   24.6135 O.3     1  LIG1        0.0000
     26 H          34.9337    6.2001   25.9265 H       1  LIG1        0.0000
     27 H          36.0952    7.4452   25.3873 H       1  LIG1        0.0000
     28 H          34.4661    9.2057   25.5142 H       1  LIG1        0.0000
     29 H          34.2890    8.2956   27.0102 H       1  LIG1        0.0000
     30 H          31.3034    7.0320   24.3980 H       1  LIG1        0.0000
     31 H          32.2641    8.2525   23.5508 H       1  LIG1        0.0000
     32 H          33.0880    6.0862   22.8050 H       1  LIG1        0.0000
     33 H          33.1983    5.4656   24.4755 H       1  LIG1        0.0000
     34 H          35.3338    6.1601   23.5443 H       1  LIG1        0.0000
     35 H          34.7825    7.7148   23.3875 H       1  LIG1        0.0000
     36 H          31.2416    8.0933   30.1520 H       1  LIG1        0.0000
     37 H          31.4916    5.2449   30.1612 H       1  LIG1        0.0000
     38 H          31.4597    6.2945   31.5928 H       1  LIG1        0.0000
     39 H          33.9631    5.7138   29.8914 H       1  LIG1        0.0000
     40 H          33.5802    4.9523   31.4378 H       1  LIG1        0.0000
     41 H          33.9156    6.6947   31.3586 H       1  LIG1        0.0000
     42 H          29.6851   10.8801   27.2535 H       1  LIG1        0.0000
     43 H          33.2576   10.9922   24.9136 H       1  LIG1        0.0000
     44 H          30.4083   13.0935   20.9690 H       1  LIG1        0.0000
     45 H          29.0865   11.9658   22.4017 H       1  LIG1        0.0000
     46 H          28.0324   10.8079   24.0124 H       1  LIG1        0.0000
@<TRIPOS>BOND
     1     1     2    1
     2     1     9    1
     3     1    26    1
     4     1    27    1
     5     2     5    1
     6     2    28    1
     7     2    29    1
     8     3     4    1
     9     3     5    1
    10     3    30    1
    11     3    31    1
    12     4     9    1
    13     4    32    1
    14     4    33    1
    15     5     6    1
    16     6     7   ar
    17     6    16   ar
    18     7     8    1
    19     7    14   ar
    20     8    10    2
    21     8    11   am
    22     9    34    1
    23     9    35    1
    24    11    12    1
    25    11    36    1
    26    12    13    1
    27    12    37    1
    28    12    38    1
    29    13    39    1
    30    13    40    1
    31    13    41    1
    32    14    15   ar
    33    15    16   ar
    34    15    42    1
    35    16    17    1
    36    17    18   ar
    37    17    24   ar
    38    18    19   ar
    39    18    43    1
    40    19    20    1
    41    19    21   ar
    42    21    22    1
    43    21    23   ar
    44    22    44    1
    45    23    24   ar
    46    23    45    1
    47    24    25    1
    48    25    46    1
