2YEE_2EC_A_1227
 OpenBabel03301717103D

 21 22  0  0  0  0  0  0  0  0999 V2000
   -1.6068   11.9955   24.4101 N   0  0  0  0  0  0  0  0  0  0  0  0
   -0.7740   11.1651   25.1303 C   0  0  0  0  0  0  0  0  0  0  0  0
    0.4909   10.7858   24.6610 C   0  0  0  0  0  0  0  0  0  0  0  0
    1.1722   11.0864   23.4961 N   0  0  0  0  0  0  0  0  0  0  0  0
    1.2551    9.9462   25.4703 C   0  0  0  0  0  0  0  0  0  0  0  0
    2.4215    9.7544   24.7752 N   0  3  0  0  0  0  0  0  0  0  0  0
    2.3228   10.4571   23.5988 C   0  0  0  0  0  0  0  0  0  0  0  0
    3.5454    8.9265   25.1672 C   0  0  0  0  0  0  0  0  0  0  0  0
    0.9017    9.4496   26.6689 N   0  0  0  0  0  0  0  0  0  0  0  0
    3.8047    7.8195   24.1626 C   0  0  0  0  0  0  0  0  0  0  0  0
   -0.3285    9.8796   27.0226 C   0  0  0  0  0  0  0  0  0  0  0  0
   -1.1723   10.6934   26.3404 N   0  0  0  0  0  0  0  0  0  0  0  0
   -2.5073   12.2479   24.7840 H   0  0  0  0  0  0  0  0  0  0  0  0
   -1.2990   12.3388   23.5120 H   0  0  0  0  0  0  0  0  0  0  0  0
    3.1019   10.4643   22.8474 H   0  0  0  0  0  0  0  0  0  0  0  0
    3.3418    8.4890   26.1502 H   0  0  0  0  0  0  0  0  0  0  0  0
    4.4294    9.5695   25.2540 H   0  0  0  0  0  0  0  0  0  0  0  0
    2.9208    7.1816   24.0647 H   0  0  0  0  0  0  0  0  0  0  0  0
    4.6531    7.2048   24.4738 H   0  0  0  0  0  0  0  0  0  0  0  0
    4.0325    8.2390   23.1758 H   0  0  0  0  0  0  0  0  0  0  0  0
   -0.6812    9.5227   27.9896 H   0  0  0  0  0  0  0  0  0  0  0  0
  1  2  1  0  0  0  0
  1 13  1  0  0  0  0
  1 14  1  0  0  0  0
  2  3  2  0  0  0  0
  2 12  1  0  0  0  0
  3  4  1  0  0  0  0
  3  5  1  0  0  0  0
  4  7  1  0  0  0  0
  5  6  1  0  0  0  0
  5  9  2  0  0  0  0
  6  7  2  0  0  0  0
  6  8  1  0  0  0  0
  7 15  1  0  0  0  0
  8 10  1  0  0  0  0
  8 16  1  0  0  0  0
  8 17  1  0  0  0  0
  9 11  1  0  0  0  0
 10 18  1  0  0  0  0
 10 19  1  0  0  0  0
 10 20  1  0  0  0  0
 11 12  2  0  0  0  0
 11 21  1  0  0  0  0
M  CHG  1   6   1
M  END
$$$$
