@<TRIPOS>MOLECULE
2YEE_2EC_A_1227
 21 22 0 0 0
SMALL
USER_CHARGES

@<TRIPOS>ATOM
      1 N          -1.6068   11.9955   24.4101 N.pl3   1  LIG1       -0.3413
      2 C          -0.7740   11.1651   25.1303 C.ar    1  LIG1        0.1472
      3 C           0.4909   10.7858   24.6610 C.ar    1  LIG1        0.1472
      4 N           1.1722   11.0864   23.4961 N.ar    1  LIG1       -0.2306
      5 C           1.2551    9.9462   25.4703 C.ar    1  LIG1        0.1653
      6 N           2.4215    9.7544   24.7752 N.ar    1  LIG1       -0.3152
      7 C           2.3228   10.4571   23.5988 C.ar    1  LIG1        0.0983
      8 C           3.5454    8.9265   25.1672 C.3     1  LIG1        0.0232
      9 N           0.9017    9.4496   26.6689 N.ar    1  LIG1       -0.2160
     10 C           3.8047    7.8195   24.1626 C.3     1  LIG1       -0.0470
     11 C          -0.3285    9.8796   27.0226 C.ar    1  LIG1        0.1205
     12 N          -1.1723   10.6934   26.3404 N.ar    1  LIG1       -0.2188
     13 H          -2.5073   12.2479   24.7840 H       1  LIG1        0.1438
     14 H          -1.2990   12.3388   23.5120 H       1  LIG1        0.1438
     15 H           3.1019   10.4643   22.8474 H       1  LIG1        0.1029
     16 H           3.3418    8.4890   26.1502 H       1  LIG1        0.0490
     17 H           4.4294    9.5695   25.2540 H       1  LIG1        0.0490
     18 H           2.9208    7.1816   24.0647 H       1  LIG1        0.0247
     19 H           4.6531    7.2048   24.4738 H       1  LIG1        0.0247
     20 H           4.0325    8.2390   23.1758 H       1  LIG1        0.0247
     21 H          -0.6812    9.5227   27.9896 H       1  LIG1        0.1048
@<TRIPOS>BOND
     1     1     2    1
     2     1    13    1
     3     1    14    1
     4     2     3   ar
     5     2    12   ar
     6     3     4   ar
     7     3     5   ar
     8     4     7   ar
     9     5     6   ar
    10     5     9   ar
    11     6     7   ar
    12     6     8    1
    13     7    15    1
    14     8    10    1
    15     8    16    1
    16     8    17    1
    17     9    11   ar
    18    10    18    1
    19    10    19    1
    20    10    20    1
    21    11    12   ar
    22    11    21    1
