@<TRIPOS>MOLECULE
2VCJ_2EQ_A_1224
 57 60 0 0 0
SMALL
USER_CHARGES

@<TRIPOS>ATOM
      1 C          36.1303    4.7427   23.9508 C.3     1  LIG1        0.0000
      2 C          37.1003    3.5951   23.6921 C.3     1  LIG1        0.0000
      3 O          37.5612    3.5735   22.3436 O.3     1  LIG1        0.0000
      4 C          36.4665    3.2983   21.4768 C.3     1  LIG1        0.0000
      5 C          35.4891    4.4650   21.4287 C.3     1  LIG1        0.0000
      6 N          35.4147    5.2510   22.7094 N.4     1  LIG1        1.0000
      7 C          35.5259    6.7520   22.5191 C.3     1  LIG1        0.0000
      8 C          34.5827    7.3908   23.4933 C.ar    1  LIG1        0.0000
      9 C          35.0688    8.0387   24.6344 C.ar    1  LIG1        0.0000
     10 C          34.1774    8.4193   25.6231 C.ar    1  LIG1        0.0000
     11 C          33.2038    7.1454   23.3350 C.ar    1  LIG1        0.0000
     12 C          32.3189    7.5171   24.3242 C.ar    1  LIG1        0.0000
     13 C          32.8131    8.1602   25.4541 C.ar    1  LIG1        0.0000
     14 C          31.8871    8.6613   26.4175 C.ar    1  LIG1        0.0000
     15 C          31.5410    8.1999   27.6935 C.ar    1  LIG1        0.0000
     16 C          32.1037    7.0108   28.3395 C.2     1  LIG1        0.0000
     17 O          32.7199    6.1504   27.7242 O.2     1  LIG1        0.0000
     18 N          31.9355    6.9785   29.7072 N.am    1  LIG1        0.0000
     19 C          32.5178    5.9451   30.5188 C.3     1  LIG1        0.0000
     20 C          34.0217    6.1095   30.6713 C.3     1  LIG1        0.0000
     21 N          30.6395    9.0196   28.2649 N.ar    1  LIG1        0.0000
     22 O          30.3794   10.0157   27.3150 O.2     1  LIG1        0.0000
     23 C          31.1524    9.8048   26.2162 C.ar    1  LIG1        0.0000
     24 C          31.1118   10.7450   25.1041 C.ar    1  LIG1        0.0000
     25 C          32.3265   11.1616   24.5278 C.ar    1  LIG1        0.0000
     26 C          32.3542   11.9014   23.3499 C.ar    1  LIG1        0.0000
     27 CL         33.8899   12.2890   22.6641 Cl      1  LIG1        0.0000
     28 C          31.1564   12.2752   22.7440 C.ar    1  LIG1        0.0000
     29 O          31.1946   12.9873   21.5820 O.3     1  LIG1        0.0000
     30 H          30.3058   13.2879   21.3503 H       1  LIG1        0.0000
     31 C          29.9343   11.9004   23.3103 C.ar    1  LIG1        0.0000
     32 C          29.9182   11.1231   24.4774 C.ar    1  LIG1        0.0000
     33 O          28.7353   10.6615   24.9769 O.3     1  LIG1        0.0000
     34 H          36.6496    5.5806   24.4295 H       1  LIG1        0.0000
     35 H          35.3447    4.4140   24.6433 H       1  LIG1        0.0000
     36 H          36.6199    2.6371   23.9293 H       1  LIG1        0.0000
     37 H          37.9666    3.6801   24.3570 H       1  LIG1        0.0000
     38 H          35.9508    2.3862   21.8047 H       1  LIG1        0.0000
     39 H          36.8514    3.1016   20.4724 H       1  LIG1        0.0000
     40 H          34.4729    4.0965   21.2402 H       1  LIG1        0.0000
     41 H          35.7448    5.1490   20.6135 H       1  LIG1        0.0000
     42 H          34.4398    5.1251   22.9813 H       1  LIG1        0.0000
     43 H          35.2099    7.0144   21.5021 H       1  LIG1        0.0000
     44 H          36.5721    7.0618   22.6494 H       1  LIG1        0.0000
     45 H          36.1290    8.2327   24.7749 H       1  LIG1        0.0000
     46 H          34.5359    8.9379   26.5094 H       1  LIG1        0.0000
     47 H          32.8136    6.6227   22.4632 H       1  LIG1        0.0000
     48 H          31.2519    7.3194   24.2127 H       1  LIG1        0.0000
     49 H          31.4482    7.7639   30.1308 H       1  LIG1        0.0000
     50 H          32.2960    4.9773   30.0576 H       1  LIG1        0.0000
     51 H          32.0286    5.9880   31.4939 H       1  LIG1        0.0000
     52 H          34.5347    6.0501   29.7053 H       1  LIG1        0.0000
     53 H          34.4244    5.3204   31.3133 H       1  LIG1        0.0000
     54 H          34.2686    7.0788   31.1161 H       1  LIG1        0.0000
     55 H          33.2715   10.8753   24.9756 H       1  LIG1        0.0000
     56 H          29.0054   12.1730   22.8244 H       1  LIG1        0.0000
     57 H          27.9903   11.0701   24.5083 H       1  LIG1        0.0000
@<TRIPOS>BOND
     1     1     2    1
     2     1     6    1
     3     1    34    1
     4     1    35    1
     5     2     3    1
     6     2    36    1
     7     2    37    1
     8     3     4    1
     9     4     5    1
    10     4    38    1
    11     4    39    1
    12     5     6    1
    13     5    40    1
    14     5    41    1
    15     6     7    1
    16     6    42    1
    17     7     8    1
    18     7    43    1
    19     7    44    1
    20     8     9   ar
    21     8    11   ar
    22     9    10   ar
    23     9    45    1
    24    10    13   ar
    25    10    46    1
    26    11    12   ar
    27    11    47    1
    28    12    13   ar
    29    12    48    1
    30    13    14    1
    31    14    15   ar
    32    14    23   ar
    33    15    16    1
    34    15    21   ar
    35    16    17    2
    36    16    18   am
    37    18    19    1
    38    18    49    1
    39    19    20    1
    40    19    50    1
    41    19    51    1
    42    20    52    1
    43    20    53    1
    44    20    54    1
    45    21    22   ar
    46    22    23   ar
    47    23    24    1
    48    24    25   ar
    49    24    32   ar
    50    25    26   ar
    51    25    55    1
    52    26    27    1
    53    26    28   ar
    54    28    29    1
    55    28    31   ar
    56    29    30    1
    57    31    32   ar
    58    31    56    1
    59    32    33    1
    60    33    57    1
