2VCJ_2EQ_A_1224
 OpenBabel03301717033D

 57 60  0  0  0  0  0  0  0  0999 V2000
   36.1303    4.7427   23.9508 C   0  0  0  0  0  0  0  0  0  0  0  0
   37.1003    3.5951   23.6921 C   0  0  0  0  0  0  0  0  0  0  0  0
   37.5612    3.5735   22.3436 O   0  0  0  0  0  0  0  0  0  0  0  0
   36.4665    3.2983   21.4768 C   0  0  0  0  0  0  0  0  0  0  0  0
   35.4891    4.4650   21.4287 C   0  0  0  0  0  0  0  0  0  0  0  0
   35.4147    5.2510   22.7094 N   0  3  0  0  0  0  0  0  0  0  0  0
   35.5259    6.7520   22.5191 C   0  0  0  0  0  0  0  0  0  0  0  0
   34.5827    7.3908   23.4933 C   0  0  0  0  0  0  0  0  0  0  0  0
   35.0688    8.0387   24.6344 C   0  0  0  0  0  0  0  0  0  0  0  0
   34.1774    8.4193   25.6231 C   0  0  0  0  0  0  0  0  0  0  0  0
   33.2038    7.1454   23.3350 C   0  0  0  0  0  0  0  0  0  0  0  0
   32.3189    7.5171   24.3242 C   0  0  0  0  0  0  0  0  0  0  0  0
   32.8131    8.1602   25.4541 C   0  0  0  0  0  0  0  0  0  0  0  0
   31.8871    8.6613   26.4175 C   0  0  0  0  0  0  0  0  0  0  0  0
   31.5410    8.1999   27.6935 C   0  0  0  0  0  0  0  0  0  0  0  0
   32.1037    7.0108   28.3395 C   0  0  0  0  0  0  0  0  0  0  0  0
   32.7199    6.1504   27.7242 O   0  0  0  0  0  0  0  0  0  0  0  0
   31.9355    6.9785   29.7072 N   0  0  0  0  0  0  0  0  0  0  0  0
   32.5178    5.9451   30.5188 C   0  0  0  0  0  0  0  0  0  0  0  0
   34.0217    6.1095   30.6713 C   0  0  0  0  0  0  0  0  0  0  0  0
   30.6395    9.0196   28.2649 N   0  0  0  0  0  0  0  0  0  0  0  0
   30.3794   10.0157   27.3150 O   0  0  0  0  0  0  0  0  0  0  0  0
   31.1524    9.8048   26.2162 C   0  0  0  0  0  0  0  0  0  0  0  0
   31.1118   10.7450   25.1041 C   0  0  0  0  0  0  0  0  0  0  0  0
   32.3265   11.1616   24.5278 C   0  0  0  0  0  0  0  0  0  0  0  0
   32.3542   11.9014   23.3499 C   0  0  0  0  0  0  0  0  0  0  0  0
   33.8899   12.2890   22.6641 Cl  0  0  0  0  0  0  0  0  0  0  0  0
   31.1564   12.2752   22.7440 C   0  0  0  0  0  0  0  0  0  0  0  0
   31.1946   12.9873   21.5820 O   0  0  0  0  0  0  0  0  0  0  0  0
   30.3058   13.2879   21.3503 H   0  0  0  0  0  0  0  0  0  0  0  0
   29.9343   11.9004   23.3103 C   0  0  0  0  0  0  0  0  0  0  0  0
   29.9182   11.1231   24.4774 C   0  0  0  0  0  0  0  0  0  0  0  0
   28.7353   10.6615   24.9769 O   0  0  0  0  0  0  0  0  0  0  0  0
   36.6496    5.5806   24.4295 H   0  0  0  0  0  0  0  0  0  0  0  0
   35.3447    4.4140   24.6433 H   0  0  0  0  0  0  0  0  0  0  0  0
   36.6199    2.6371   23.9293 H   0  0  0  0  0  0  0  0  0  0  0  0
   37.9666    3.6801   24.3570 H   0  0  0  0  0  0  0  0  0  0  0  0
   35.9508    2.3862   21.8047 H   0  0  0  0  0  0  0  0  0  0  0  0
   36.8514    3.1016   20.4724 H   0  0  0  0  0  0  0  0  0  0  0  0
   34.4729    4.0965   21.2402 H   0  0  0  0  0  0  0  0  0  0  0  0
   35.7448    5.1490   20.6135 H   0  0  0  0  0  0  0  0  0  0  0  0
   34.4398    5.1251   22.9813 H   0  0  0  0  0  0  0  0  0  0  0  0
   35.2099    7.0144   21.5021 H   0  0  0  0  0  0  0  0  0  0  0  0
   36.5721    7.0618   22.6494 H   0  0  0  0  0  0  0  0  0  0  0  0
   36.1290    8.2327   24.7749 H   0  0  0  0  0  0  0  0  0  0  0  0
   34.5359    8.9379   26.5094 H   0  0  0  0  0  0  0  0  0  0  0  0
   32.8136    6.6227   22.4632 H   0  0  0  0  0  0  0  0  0  0  0  0
   31.2519    7.3194   24.2127 H   0  0  0  0  0  0  0  0  0  0  0  0
   31.4482    7.7639   30.1308 H   0  0  0  0  0  0  0  0  0  0  0  0
   32.2960    4.9773   30.0576 H   0  0  0  0  0  0  0  0  0  0  0  0
   32.0286    5.9880   31.4939 H   0  0  0  0  0  0  0  0  0  0  0  0
   34.5347    6.0501   29.7053 H   0  0  0  0  0  0  0  0  0  0  0  0
   34.4244    5.3204   31.3133 H   0  0  0  0  0  0  0  0  0  0  0  0
   34.2686    7.0788   31.1161 H   0  0  0  0  0  0  0  0  0  0  0  0
   33.2715   10.8753   24.9756 H   0  0  0  0  0  0  0  0  0  0  0  0
   29.0054   12.1730   22.8244 H   0  0  0  0  0  0  0  0  0  0  0  0
   27.9903   11.0701   24.5083 H   0  0  0  0  0  0  0  0  0  0  0  0
  1  2  1  0  0  0  0
  1  6  1  0  0  0  0
  1 34  1  0  0  0  0
  1 35  1  0  0  0  0
  2  3  1  0  0  0  0
  2 36  1  0  0  0  0
  2 37  1  0  0  0  0
  3  4  1  0  0  0  0
  4  5  1  0  0  0  0
  4 38  1  0  0  0  0
  4 39  1  0  0  0  0
  5  6  1  0  0  0  0
  5 40  1  0  0  0  0
  5 41  1  0  0  0  0
  6  7  1  0  0  0  0
  6 42  1  0  0  0  0
  7  8  1  0  0  0  0
  7 43  1  0  0  0  0
  7 44  1  0  0  0  0
  8  9  2  0  0  0  0
  8 11  1  0  0  0  0
  9 10  1  0  0  0  0
  9 45  1  0  0  0  0
 10 13  2  0  0  0  0
 10 46  1  0  0  0  0
 11 12  2  0  0  0  0
 11 47  1  0  0  0  0
 12 13  1  0  0  0  0
 12 48  1  0  0  0  0
 13 14  1  0  0  0  0
 14 15  1  0  0  0  0
 14 23  2  0  0  0  0
 15 16  1  0  0  0  0
 15 21  2  0  0  0  0
 16 17  2  0  0  0  0
 16 18  1  0  0  0  0
 18 19  1  0  0  0  0
 18 49  1  0  0  0  0
 19 20  1  0  0  0  0
 19 50  1  0  0  0  0
 19 51  1  0  0  0  0
 20 52  1  0  0  0  0
 20 53  1  0  0  0  0
 20 54  1  0  0  0  0
 21 22  1  0  0  0  0
 22 23  1  0  0  0  0
 23 24  1  0  0  0  0
 24 25  2  0  0  0  0
 24 32  1  0  0  0  0
 25 26  1  0  0  0  0
 25 55  1  0  0  0  0
 26 27  1  0  0  0  0
 26 28  2  0  0  0  0
 28 29  1  0  0  0  0
 28 31  1  0  0  0  0
 29 30  1  0  0  0  0
 31 32  2  0  0  0  0
 31 56  1  0  0  0  0
 32 33  1  0  0  0  0
 33 57  1  0  0  0  0
M  CHG  1   6   1
M  END
$$$$
