REMARK  4 active torsions:
REMARK  status: ('A' for Active; 'I' for Inactive)
REMARK    1  A    between atoms: C_1  and  O_12 
REMARK    2  A    between atoms: C_3  and  O_9 
REMARK    3  A    between atoms: C_6  and  C_10 
REMARK    4  A    between atoms: C_6  and  C_11 
ROOT
ATOM      1  C   LIG d   1      29.512  10.857  24.435  0.00  0.00     0.131 A 
ATOM      2  C   LIG d   1      29.730  11.499  23.204  0.00  0.00     0.091 A 
ATOM      3  C   LIG d   1      31.026  11.731  22.757  0.00  0.00     0.120 A 
ATOM      4  C   LIG d   1      32.110  11.331  23.525  0.00  0.00     0.046 A 
ATOM      5  C   LIG d   1      31.894  10.678  24.758  0.00  0.00     0.018 A 
ATOM      6  C   LIG d   1      30.596  10.440  25.213  0.00  0.00     0.059 A 
ENDROOT
BRANCH   6   7
ATOM      7  C   LIG d   1      30.382   9.763  26.527  0.00  0.00     0.166 C 
ATOM      8  O   LIG d   1      29.712  10.333  27.390  0.00  0.00    -0.292 OA
BRANCH   7   9
ATOM      9  C   LIG d   1      30.916   8.361  26.723  0.00  0.00     0.076 C 
ATOM     10  C   LIG d   1      32.071   8.356  27.699  0.00  0.00     0.012 C 
ENDBRANCH   7   9
ENDBRANCH   6   7
BRANCH   1  11
ATOM     11  O   LIG d   1      28.211  10.631  24.805  0.00  0.00    -0.506 OA
ATOM     12  H   LIG d   1      28.191  10.221  25.694  0.00  0.00     0.292 HD
ENDBRANCH   1  11
BRANCH   3  13
ATOM     13  O   LIG d   1      31.210  12.363  21.551  0.00  0.00    -0.507 OA
ATOM     14  H   LIG d   1      32.155  12.470  21.364  0.00  0.00     0.292 HD
ENDBRANCH   3  13
TORSDOF 4
