2YE4_2FY_A_1224
 OpenBabel03301717083D

 22 22  0  0  0  0  0  0  0  0999 V2000
   29.5122   10.8567   24.4350 C   0  0  0  0  0  0  0  0  0  0  0  0
   29.7305   11.4990   23.2041 C   0  0  0  0  0  0  0  0  0  0  0  0
   31.0258   11.7312   22.7568 C   0  0  0  0  0  0  0  0  0  0  0  0
   32.1101   11.3313   23.5253 C   0  0  0  0  0  0  0  0  0  0  0  0
   31.8939   10.6780   24.7580 C   0  0  0  0  0  0  0  0  0  0  0  0
   30.3818    9.7632   26.5269 C   0  0  0  0  0  0  0  0  0  0  0  0
   32.0710    8.3559   27.6986 C   0  0  0  0  0  0  0  0  0  0  0  0
   29.7122   10.3331   27.3895 O   0  0  0  0  0  0  0  0  0  0  0  0
   31.2098   12.3626   21.5507 O   0  0  0  0  0  0  0  0  0  0  0  0
   30.9156    8.3614   26.7234 C   0  0  0  0  0  0  0  0  0  0  0  0
   30.5958   10.4395   25.2128 C   0  0  0  0  0  0  0  0  0  0  0  0
   28.2111   10.6311   24.8049 O   0  0  0  0  0  0  0  0  0  0  0  0
   28.8806   11.8084   22.5940 H   0  0  0  0  0  0  0  0  0  0  0  0
   33.1294   11.5186   23.1945 H   0  0  0  0  0  0  0  0  0  0  0  0
   32.7515   10.3884   25.3556 H   0  0  0  0  0  0  0  0  0  0  0  0
   32.4482    7.3382   27.8400 H   0  0  0  0  0  0  0  0  0  0  0  0
   31.7624    8.7475   28.6732 H   0  0  0  0  0  0  0  0  0  0  0  0
   32.8878    8.9781   27.3243 H   0  0  0  0  0  0  0  0  0  0  0  0
   32.1552   12.4697   21.3638 H   0  0  0  0  0  0  0  0  0  0  0  0
   31.2265    7.9378   25.7644 H   0  0  0  0  0  0  0  0  0  0  0  0
   30.1062    7.7283   27.1110 H   0  0  0  0  0  0  0  0  0  0  0  0
   28.1913   10.2207   25.6935 H   0  0  0  0  0  0  0  0  0  0  0  0
  1  2  2  0  0  0  0
  1 11  1  0  0  0  0
  1 12  1  0  0  0  0
  2  3  1  0  0  0  0
  2 13  1  0  0  0  0
  3  4  2  0  0  0  0
  3  9  1  0  0  0  0
  4  5  1  0  0  0  0
  4 14  1  0  0  0  0
  5 11  2  0  0  0  0
  5 15  1  0  0  0  0
  6  8  2  0  0  0  0
  6 10  1  0  0  0  0
  6 11  1  0  0  0  0
  7 10  1  0  0  0  0
  7 16  1  0  0  0  0
  7 17  1  0  0  0  0
  7 18  1  0  0  0  0
  9 19  1  0  0  0  0
 10 20  1  0  0  0  0
 10 21  1  0  0  0  0
 12 22  1  0  0  0  0
M  END
$$$$
