@<TRIPOS>MOLECULE
2YE4_2FY_A_1224
 22 22 0 0 0
SMALL
USER_CHARGES

@<TRIPOS>ATOM
      1 C          29.5122   10.8567   24.4350 C.ar    1  LIG1        0.1308
      2 C          29.7305   11.4990   23.2041 C.ar    1  LIG1        0.0220
      3 C          31.0258   11.7312   22.7568 C.ar    1  LIG1        0.1204
      4 C          32.1101   11.3313   23.5253 C.ar    1  LIG1       -0.0193
      5 C          31.8939   10.6780   24.7580 C.ar    1  LIG1       -0.0443
      6 C          30.3818    9.7632   26.5269 C.2     1  LIG1        0.1664
      7 C          32.0710    8.3559   27.6986 C.3     1  LIG1       -0.0582
      8 O          29.7122   10.3331   27.3895 O.2     1  LIG1       -0.2919
      9 O          31.2098   12.3626   21.5507 O.3     1  LIG1       -0.5066
     10 C          30.9156    8.3614   26.7234 C.3     1  LIG1        0.0077
     11 C          30.5958   10.4395   25.2128 C.ar    1  LIG1        0.0590
     12 O          28.2111   10.6311   24.8049 O.3     1  LIG1       -0.5059
     13 H          28.8806   11.8084   22.5940 H       1  LIG1        0.0691
     14 H          33.1294   11.5186   23.1945 H       1  LIG1        0.0654
     15 H          32.7515   10.3884   25.3556 H       1  LIG1        0.0627
     16 H          32.4482    7.3382   27.8400 H       1  LIG1        0.0234
     17 H          31.7624    8.7475   28.6732 H       1  LIG1        0.0234
     18 H          32.8878    8.9781   27.3243 H       1  LIG1        0.0234
     19 H          32.1552   12.4697   21.3638 H       1  LIG1        0.2921
     20 H          31.2265    7.9378   25.7644 H       1  LIG1        0.0342
     21 H          30.1062    7.7283   27.1110 H       1  LIG1        0.0342
     22 H          28.1913   10.2207   25.6935 H       1  LIG1        0.2922
@<TRIPOS>BOND
     1     1     2   ar
     2     1    11   ar
     3     1    12    1
     4     2     3   ar
     5     2    13    1
     6     3     4   ar
     7     3     9    1
     8     4     5   ar
     9     4    14    1
    10     5    11   ar
    11     5    15    1
    12     6     8    2
    13     6    10    1
    14     6    11    1
    15     7    10    1
    16     7    16    1
    17     7    17    1
    18     7    18    1
    19     9    19    1
    20    10    20    1
    21    10    21    1
    22    12    22    1
