REMARK  3 active torsions:
REMARK  status: ('A' for Active; 'I' for Inactive)
REMARK    1  A    between atoms: C_7  and  S_8 
REMARK    2  A    between atoms: S_8  and  C_9 
REMARK    3  A    between atoms: C_13  and  S_14 
ROOT
ATOM      1  C   LIG d   1      31.660  12.476  22.256  0.00  0.00     0.066 C 
ATOM      2  C   LIG d   1      31.991  11.824  23.542  0.00  0.00     0.047 A 
ATOM      3  N   LIG d   1      31.111  11.732  24.587  0.00  0.00    -0.281 N 
ATOM      4  N   LIG d   1      31.614  11.115  25.668  0.00  0.00    -0.178 NA
ATOM      5  C   LIG d   1      32.860  10.783  25.305  0.00  0.00     0.074 A 
ATOM      6  C   LIG d   1      33.755  10.059  26.240  0.00  0.00     0.068 C 
ATOM      7  C   LIG d   1      33.141  11.221  23.989  0.00  0.00     0.058 A 
ATOM      8  H   LIG d   1      30.158  12.075  24.633  0.00  0.00     0.189 HD
ENDROOT
BRANCH   7   9
ATOM      9  S   LIG d   1      34.638  11.030  23.110  0.00  0.00    -0.057 SA
BRANCH   9  10
ATOM     10  C   LIG d   1      35.611  12.233  23.941  0.00  0.00     0.164 A 
ATOM     11  S   LIG d   1      35.050  13.758  24.493  0.00  0.00    -0.033 SA
ATOM     12  C   LIG d   1      36.643  14.070  25.039  0.00  0.00     0.159 A 
ATOM     13  N   LIG d   1      37.502  13.108  24.786  0.00  0.00    -0.134 NA
ATOM     14  N   LIG d   1      36.899  12.037  24.138  0.00  0.00    -0.134 NA
BRANCH  12  15
ATOM     15  S   LIG d   1      37.045  15.557  25.866  0.00  0.00    -0.100 SA
ATOM     16  C   LIG d   1      38.843  15.476  25.954  0.00  0.00     0.092 C 
ENDBRANCH  12  15
ENDBRANCH   9  10
ENDBRANCH   7   9
TORSDOF 3
