@<TRIPOS>MOLECULE
2YE7_2GA_A_1224
 25 26 0 0 0
SMALL
USER_CHARGES

@<TRIPOS>ATOM
      1 C          31.6596   12.4755   22.2562 C.3     1  LIG1       -0.0218
      2 C          31.9911   11.8240   23.5418 C.ar    1  LIG1        0.0470
      3 N          31.1110   11.7316   24.5872 N.ar    1  LIG1       -0.2805
      4 N          31.6141   11.1146   25.6677 N.ar    1  LIG1       -0.1778
      5 C          32.8598   10.7831   25.3047 C.ar    1  LIG1        0.0737
      6 C          33.7554   10.0592   26.2397 C.3     1  LIG1       -0.0195
      7 C          33.1408   11.2211   23.9891 C.ar    1  LIG1        0.0577
      8 S          34.6378   11.0296   23.1097 S.3     1  LIG1       -0.0573
      9 C          35.6113   12.2329   23.9414 C.ar    1  LIG1        0.1640
     10 S          35.0502   13.7581   24.4934 S.2     1  LIG1       -0.0327
     11 N          36.8993   12.0366   24.1384 N.ar    1  LIG1       -0.1336
     12 N          37.5022   13.1083   24.7856 N.ar    1  LIG1       -0.1339
     13 C          36.6429   14.0705   25.0388 C.ar    1  LIG1        0.1590
     14 S          37.0455   15.5570   25.8662 S.3     1  LIG1       -0.1004
     15 C          38.8434   15.4755   25.9539 C.3     1  LIG1       -0.0115
     16 H          30.6417   12.8736   22.2451 H       1  LIG1        0.0293
     17 H          31.7558   11.7576   21.4350 H       1  LIG1        0.0293
     18 H          32.3503   13.3044   22.0678 H       1  LIG1        0.0293
     19 H          30.1580   12.0746   24.6328 H       1  LIG1        0.1885
     20 H          33.2686    9.8542   27.1979 H       1  LIG1        0.0293
     21 H          34.6543   10.6513   26.4390 H       1  LIG1        0.0293
     22 H          34.0631    9.1038   25.8026 H       1  LIG1        0.0293
     23 H          39.2045   16.3776   26.4574 H       1  LIG1        0.0344
     24 H          39.2841   15.4451   24.9539 H       1  LIG1        0.0344
     25 H          39.1744   14.6082   26.5309 H       1  LIG1        0.0344
@<TRIPOS>BOND
     1     1     2    1
     2     1    16    1
     3     1    17    1
     4     1    18    1
     5     2     3   ar
     6     2     7   ar
     7     3     4   ar
     8     3    19    1
     9     4     5   ar
    10     5     6    1
    11     5     7   ar
    12     6    20    1
    13     6    21    1
    14     6    22    1
    15     7     8    1
    16     8     9    1
    17     9    10   ar
    18     9    11   ar
    19    10    13   ar
    20    11    12   ar
    21    12    13   ar
    22    13    14    1
    23    14    15    1
    24    15    23    1
    25    15    24    1
    26    15    25    1
