@<TRIPOS>MOLECULE
2UWD_2GG_A_1228
 44 46 0 0 0
SMALL
USER_CHARGES

@<TRIPOS>ATOM
      1 C          35.0932    5.6355   21.6686 C.3     1  LIG1        0.0788
      2 O          35.4303    6.2439   22.9103 O.3     1  LIG1       -0.4951
      3 C          34.4007    6.7674   23.6429 C.ar    1  LIG1        0.1201
      4 C          33.0549    6.7664   23.2750 C.ar    1  LIG1       -0.0194
      5 C          32.0908    7.3266   24.1205 C.ar    1  LIG1       -0.0504
      6 C          34.7737    7.3409   24.8618 C.ar    1  LIG1       -0.0194
      7 C          33.8151    7.8983   25.7113 C.ar    1  LIG1       -0.0504
      8 C          32.4660    7.8850   25.3451 C.ar    1  LIG1       -0.0117
      9 C          31.4704    8.4481   26.2301 C.ar    1  LIG1        0.0614
     10 C          31.0740    8.0615   27.5378 C.ar    1  LIG1        0.1758
     11 C          31.5706    6.9136   28.2951 C.2     1  LIG1        0.2664
     12 O          32.0660    5.9285   27.7456 O.2     1  LIG1       -0.2684
     13 N          31.4892    7.0304   29.6636 N.am    1  LIG1       -0.3102
     14 C          32.0050    6.0049   30.5421 C.3     1  LIG1        0.0091
     15 C          33.4696    6.2235   30.8813 C.3     1  LIG1       -0.0495
     16 N          30.1585    8.9182   28.0326 N.ar    1  LIG1       -0.0723
     17 C          30.7353    9.5805   25.9614 C.ar    1  LIG1        0.1792
     18 C          30.7154   10.5169   24.8485 C.ar    1  LIG1        0.0635
     19 C          31.9387   11.0390   24.3946 C.ar    1  LIG1       -0.0255
     20 C          31.9929   11.8432   23.2587 C.ar    1  LIG1        0.0832
     21 CL         33.5295   12.4272   22.7350 Cl      1  LIG1       -0.0797
     22 C          30.8199   12.1372   22.5615 C.ar    1  LIG1        0.1386
     23 O          30.8832   12.9054   21.4326 O.3     1  LIG1       -0.5052
     24 H          29.9961   13.0143   21.0539 H       1  LIG1        0.2922
     25 C          29.5908   11.6415   23.0046 C.ar    1  LIG1        0.0235
     26 C          29.5438   10.8382   24.1480 C.ar    1  LIG1        0.1312
     27 O          28.3497   10.3179   24.5646 O.3     1  LIG1       -0.5059
     28 O          29.9287    9.8512   27.0241 O.2     1  LIG1       -0.3532
     29 H          36.0165    5.2643   21.2132 H       1  LIG1        0.0660
     30 H          34.6532    6.3636   20.9788 H       1  LIG1        0.0660
     31 H          34.4278    4.7775   21.8140 H       1  LIG1        0.0660
     32 H          32.7181    6.3280   22.3419 H       1  LIG1        0.0654
     33 H          31.0454    7.3083   23.8187 H       1  LIG1        0.0625
     34 H          35.8193    7.3444   25.1601 H       1  LIG1        0.0654
     35 H          34.1316    8.3352   26.6551 H       1  LIG1        0.0625
     36 H          31.1364    7.9040   30.0401 H       1  LIG1        0.1490
     37 H          31.8839    5.0254   30.0656 H       1  LIG1        0.0459
     38 H          31.3988    6.0184   31.4513 H       1  LIG1        0.0459
     39 H          34.0951    6.2118   29.9821 H       1  LIG1        0.0245
     40 H          33.8251    5.4344   31.5524 H       1  LIG1        0.0245
     41 H          33.6167    7.1874   31.3785 H       1  LIG1        0.0245
     42 H          32.8623   10.7991   24.9170 H       1  LIG1        0.0641
     43 H          28.6835   11.8608   22.4521 H       1  LIG1        0.0691
     44 H          27.6297   10.6233   23.9892 H       1  LIG1        0.2922
@<TRIPOS>BOND
     1     1     2    1
     2     1    29    1
     3     1    30    1
     4     1    31    1
     5     2     3    1
     6     3     4   ar
     7     3     6   ar
     8     4     5   ar
     9     4    32    1
    10     5     8   ar
    11     5    33    1
    12     6     7   ar
    13     6    34    1
    14     7     8   ar
    15     7    35    1
    16     8     9    1
    17     9    10   ar
    18     9    17   ar
    19    10    11    1
    20    10    16   ar
    21    11    12    2
    22    11    13   am
    23    13    14    1
    24    13    36    1
    25    14    15    1
    26    14    37    1
    27    14    38    1
    28    15    39    1
    29    15    40    1
    30    15    41    1
    31    16    28   ar
    32    17    18    1
    33    17    28   ar
    34    18    19   ar
    35    18    26   ar
    36    19    20   ar
    37    19    42    1
    38    20    21    1
    39    20    22   ar
    40    22    23    1
    41    22    25   ar
    42    23    24    1
    43    25    26   ar
    44    25    43    1
    45    26    27    1
    46    27    44    1
