2UWD_2GG_A_1228
 OpenBabel03301717033D

 44 46  0  0  0  0  0  0  0  0999 V2000
   35.0932    5.6355   21.6686 C   0  0  0  0  0  0  0  0  0  0  0  0
   35.4303    6.2439   22.9103 O   0  0  0  0  0  0  0  0  0  0  0  0
   34.4007    6.7674   23.6429 C   0  0  0  0  0  0  0  0  0  0  0  0
   33.0549    6.7664   23.2750 C   0  0  0  0  0  0  0  0  0  0  0  0
   32.0908    7.3266   24.1205 C   0  0  0  0  0  0  0  0  0  0  0  0
   34.7737    7.3409   24.8618 C   0  0  0  0  0  0  0  0  0  0  0  0
   33.8151    7.8983   25.7113 C   0  0  0  0  0  0  0  0  0  0  0  0
   32.4660    7.8850   25.3451 C   0  0  0  0  0  0  0  0  0  0  0  0
   31.4704    8.4481   26.2301 C   0  0  0  0  0  0  0  0  0  0  0  0
   31.0740    8.0615   27.5378 C   0  0  0  0  0  0  0  0  0  0  0  0
   31.5706    6.9136   28.2951 C   0  0  0  0  0  0  0  0  0  0  0  0
   32.0660    5.9285   27.7456 O   0  0  0  0  0  0  0  0  0  0  0  0
   31.4892    7.0304   29.6636 N   0  0  0  0  0  0  0  0  0  0  0  0
   32.0050    6.0049   30.5421 C   0  0  0  0  0  0  0  0  0  0  0  0
   33.4696    6.2235   30.8813 C   0  0  0  0  0  0  0  0  0  0  0  0
   30.1585    8.9182   28.0326 N   0  0  0  0  0  0  0  0  0  0  0  0
   30.7353    9.5805   25.9614 C   0  0  0  0  0  0  0  0  0  0  0  0
   30.7154   10.5169   24.8485 C   0  0  0  0  0  0  0  0  0  0  0  0
   31.9387   11.0390   24.3946 C   0  0  0  0  0  0  0  0  0  0  0  0
   31.9929   11.8432   23.2587 C   0  0  0  0  0  0  0  0  0  0  0  0
   33.5295   12.4272   22.7350 Cl  0  0  0  0  0  0  0  0  0  0  0  0
   30.8199   12.1372   22.5615 C   0  0  0  0  0  0  0  0  0  0  0  0
   30.8832   12.9054   21.4326 O   0  0  0  0  0  0  0  0  0  0  0  0
   29.9961   13.0143   21.0539 H   0  0  0  0  0  0  0  0  0  0  0  0
   29.5908   11.6415   23.0046 C   0  0  0  0  0  0  0  0  0  0  0  0
   29.5438   10.8382   24.1480 C   0  0  0  0  0  0  0  0  0  0  0  0
   28.3497   10.3179   24.5646 O   0  0  0  0  0  0  0  0  0  0  0  0
   29.9287    9.8512   27.0241 O   0  0  0  0  0  0  0  0  0  0  0  0
   36.0165    5.2643   21.2132 H   0  0  0  0  0  0  0  0  0  0  0  0
   34.6532    6.3636   20.9788 H   0  0  0  0  0  0  0  0  0  0  0  0
   34.4278    4.7775   21.8140 H   0  0  0  0  0  0  0  0  0  0  0  0
   32.7181    6.3280   22.3419 H   0  0  0  0  0  0  0  0  0  0  0  0
   31.0454    7.3083   23.8187 H   0  0  0  0  0  0  0  0  0  0  0  0
   35.8193    7.3444   25.1601 H   0  0  0  0  0  0  0  0  0  0  0  0
   34.1316    8.3352   26.6551 H   0  0  0  0  0  0  0  0  0  0  0  0
   31.1364    7.9040   30.0401 H   0  0  0  0  0  0  0  0  0  0  0  0
   31.8839    5.0254   30.0656 H   0  0  0  0  0  0  0  0  0  0  0  0
   31.3988    6.0184   31.4513 H   0  0  0  0  0  0  0  0  0  0  0  0
   34.0951    6.2118   29.9821 H   0  0  0  0  0  0  0  0  0  0  0  0
   33.8251    5.4344   31.5524 H   0  0  0  0  0  0  0  0  0  0  0  0
   33.6167    7.1874   31.3785 H   0  0  0  0  0  0  0  0  0  0  0  0
   32.8623   10.7991   24.9170 H   0  0  0  0  0  0  0  0  0  0  0  0
   28.6835   11.8608   22.4521 H   0  0  0  0  0  0  0  0  0  0  0  0
   27.6297   10.6233   23.9892 H   0  0  0  0  0  0  0  0  0  0  0  0
  1  2  1  0  0  0  0
  1 29  1  0  0  0  0
  1 30  1  0  0  0  0
  1 31  1  0  0  0  0
  2  3  1  0  0  0  0
  3  4  2  0  0  0  0
  3  6  1  0  0  0  0
  4  5  1  0  0  0  0
  4 32  1  0  0  0  0
  5  8  2  0  0  0  0
  5 33  1  0  0  0  0
  6  7  2  0  0  0  0
  6 34  1  0  0  0  0
  7  8  1  0  0  0  0
  7 35  1  0  0  0  0
  8  9  1  0  0  0  0
  9 10  1  0  0  0  0
  9 17  2  0  0  0  0
 10 11  1  0  0  0  0
 10 16  2  0  0  0  0
 11 12  2  0  0  0  0
 11 13  1  0  0  0  0
 13 14  1  0  0  0  0
 13 36  1  0  0  0  0
 14 15  1  0  0  0  0
 14 37  1  0  0  0  0
 14 38  1  0  0  0  0
 15 39  1  0  0  0  0
 15 40  1  0  0  0  0
 15 41  1  0  0  0  0
 16 28  1  0  0  0  0
 17 18  1  0  0  0  0
 17 28  1  0  0  0  0
 18 19  2  0  0  0  0
 18 26  1  0  0  0  0
 19 20  1  0  0  0  0
 19 42  1  0  0  0  0
 20 21  1  0  0  0  0
 20 22  2  0  0  0  0
 22 23  1  0  0  0  0
 22 25  1  0  0  0  0
 23 24  1  0  0  0  0
 25 26  2  0  0  0  0
 25 43  1  0  0  0  0
 26 27  1  0  0  0  0
 27 44  1  0  0  0  0
M  END
$$$$
