REMARK  7 active torsions:
REMARK  status: ('A' for Active; 'I' for Inactive)
REMARK    1  A    between atoms: O_2  and  C_3 
REMARK    2  A    between atoms: C_8  and  C_9 
REMARK    3  A    between atoms: C_10  and  C_11 
REMARK       I    between atoms: C_11  and  N_13 
REMARK    4  A    between atoms: N_13  and  C_14 
REMARK    5  A    between atoms: C_17  and  C_18 
REMARK    6  A    between atoms: C_22  and  O_23 
REMARK    7  A    between atoms: C_26  and  O_27 
ROOT
ATOM      1  C   LIG d   1      31.470   8.448  26.230  0.00  0.00     0.061 A 
ATOM      2  C   LIG d   1      31.074   8.062  27.538  0.00  0.00     0.176 A 
ATOM      3  N   LIG d   1      30.159   8.918  28.033  0.00  0.00    -0.072 NA
ATOM      4  C   LIG d   1      30.735   9.581  25.961  0.00  0.00     0.179 A 
ATOM      5  O   LIG d   1      29.929   9.851  27.024  0.00  0.00    -0.353 OA
ENDROOT
BRANCH   4   6
ATOM      6  C   LIG d   1      30.715  10.517  24.849  0.00  0.00     0.064 A 
ATOM      7  C   LIG d   1      31.939  11.039  24.395  0.00  0.00     0.039 A 
ATOM      8  C   LIG d   1      31.993  11.843  23.259  0.00  0.00     0.083 A 
ATOM      9 CL   LIG d   1      33.529  12.427  22.735  0.00  0.00    -0.080 Cl
ATOM     10  C   LIG d   1      30.820  12.137  22.561  0.00  0.00     0.139 A 
ATOM     11  C   LIG d   1      29.591  11.642  23.005  0.00  0.00     0.093 A 
ATOM     12  C   LIG d   1      29.544  10.838  24.148  0.00  0.00     0.131 A 
BRANCH  10  13
ATOM     13  O   LIG d   1      30.883  12.905  21.433  0.00  0.00    -0.505 OA
ATOM     14  H   LIG d   1      29.996  13.014  21.054  0.00  0.00     0.292 HD
ENDBRANCH  10  13
BRANCH  12  15
ATOM     15  O   LIG d   1      28.350  10.318  24.565  0.00  0.00    -0.506 OA
ATOM     16  H   LIG d   1      27.630  10.623  23.989  0.00  0.00     0.292 HD
ENDBRANCH  12  15
ENDBRANCH   4   6
BRANCH   1  17
ATOM     17  C   LIG d   1      32.466   7.885  25.345  0.00  0.00    -0.012 A 
ATOM     18  C   LIG d   1      32.091   7.327  24.120  0.00  0.00     0.012 A 
ATOM     19  C   LIG d   1      33.055   6.766  23.275  0.00  0.00     0.046 A 
ATOM     20  C   LIG d   1      34.401   6.767  23.643  0.00  0.00     0.120 A 
ATOM     21  C   LIG d   1      34.774   7.341  24.862  0.00  0.00     0.046 A 
ATOM     22  C   LIG d   1      33.815   7.898  25.711  0.00  0.00     0.012 A 
BRANCH  20  23
ATOM     23  O   LIG d   1      35.430   6.244  22.910  0.00  0.00    -0.495 OA
ATOM     24  C   LIG d   1      35.093   5.636  21.669  0.00  0.00     0.277 C 
ENDBRANCH  20  23
ENDBRANCH   1  17
BRANCH   2  25
ATOM     25  C   LIG d   1      31.571   6.914  28.295  0.00  0.00     0.266 C 
ATOM     26  O   LIG d   1      32.066   5.928  27.746  0.00  0.00    -0.268 OA
ATOM     27  N   LIG d   1      31.489   7.030  29.664  0.00  0.00    -0.310 N 
ATOM     28  H   LIG d   1      31.136   7.904  30.040  0.00  0.00     0.149 HD
BRANCH  27  29
ATOM     29  C   LIG d   1      32.005   6.005  30.542  0.00  0.00     0.101 C 
ATOM     30  C   LIG d   1      33.470   6.223  30.881  0.00  0.00     0.024 C 
ENDBRANCH  27  29
ENDBRANCH   2  25
TORSDOF 7
