REMARK  9 active torsions:
REMARK  status: ('A' for Active; 'I' for Inactive)
REMARK    1  A    between atoms: N_6  and  C_7 
REMARK    2  A    between atoms: C_7  and  C_8 
REMARK    3  A    between atoms: C_13  and  C_14 
REMARK    4  A    between atoms: C_15  and  C_16 
REMARK       I    between atoms: C_16  and  N_18 
REMARK    5  A    between atoms: N_18  and  C_19 
REMARK    6  A    between atoms: C_23  and  C_24 
REMARK    7  A    between atoms: C_26  and  C_27 
REMARK    8  A    between atoms: C_30  and  O_31 
REMARK    9  A    between atoms: C_33  and  O_34 
ROOT
ATOM      1  C   LIG d   1      31.183   8.761  26.477  0.00  0.00     0.000 A 
ATOM      2  C   LIG d   1      30.805   8.364  27.762  0.00  0.00     0.000 A 
ATOM      3  N   LIG d   1      29.808   9.170  28.198  0.00  0.00     0.000 NA
ATOM      4  O   LIG d   1      29.554  10.101  27.162  0.00  0.00     0.000 OA
ATOM      5  C   LIG d   1      30.377   9.806  26.117  0.00  0.00     0.000 A 
ENDROOT
BRANCH   1   6
ATOM      6  C   LIG d   1      32.191   8.186  25.627  0.00  0.00     0.000 A 
ATOM      7  C   LIG d   1      31.784   7.546  24.454  0.00  0.00     0.000 A 
ATOM      8  C   LIG d   1      32.738   7.053  23.586  0.00  0.00     0.000 A 
ATOM      9  C   LIG d   1      34.098   7.193  23.896  0.00  0.00     0.000 A 
ATOM     10  C   LIG d   1      34.507   7.830  25.076  0.00  0.00     0.000 A 
ATOM     11  C   LIG d   1      33.553   8.324  25.950  0.00  0.00     0.000 A 
BRANCH   9  12
ATOM     12  C   LIG d   1      35.115   6.672  22.961  0.00  0.00     0.000 C 
BRANCH  12  13
ATOM     13  N   LIG d   1      34.976   5.197  22.700  0.00  0.00     1.000 N 
ATOM     14  C   LIG d   1      35.505   4.972  21.305  0.00  0.00     0.000 C 
ATOM     15  C   LIG d   1      35.989   3.556  21.107  0.00  0.00     0.000 C 
ATOM     16  O   LIG d   1      36.864   3.189  22.181  0.00  0.00     0.000 OA
ATOM     17  C   LIG d   1      36.190   3.148  23.446  0.00  0.00     0.000 C 
ATOM     18  C   LIG d   1      35.677   4.510  23.847  0.00  0.00     0.000 C 
ATOM     19  H   LIG d   1      34.011   4.843  22.708  0.00  0.00     0.000 HD
ENDBRANCH  12  13
ENDBRANCH   9  12
ENDBRANCH   1   6
BRANCH   2  20
ATOM     20  C   LIG d   1      31.442   7.232  28.499  0.00  0.00     0.000 C 
ATOM     21  O   LIG d   1      32.060   6.330  27.979  0.00  0.00     0.000 OA
ATOM     22  N   LIG d   1      31.316   7.343  29.881  0.00  0.00     0.000 N 
ATOM     23  H   LIG d   1      30.786   8.146  30.187  0.00  0.00     0.000 HD
BRANCH  22  24
ATOM     24  C   LIG d   1      31.815   6.442  30.922  0.00  0.00     0.000 C 
ATOM     25  C   LIG d   1      33.015   5.639  30.502  0.00  0.00     0.000 C 
ENDBRANCH  22  24
ENDBRANCH   2  20
BRANCH   5  26
ATOM     26  C   LIG d   1      30.415  10.590  24.920  0.00  0.00     0.000 A 
ATOM     27  C   LIG d   1      31.715  10.878  24.501  0.00  0.00     0.000 A 
ATOM     28  C   LIG d   1      31.975  11.495  23.281  0.00  0.00     0.000 A 
ATOM     29  C   LIG d   1      30.890  11.881  22.509  0.00  0.00     0.000 A 
ATOM     30  C   LIG d   1      29.580  11.586  22.898  0.00  0.00     0.000 A 
ATOM     31  C   LIG d   1      29.347  10.918  24.105  0.00  0.00     0.000 A 
BRANCH  28  32
ATOM     32  C   LIG d   1      33.384  11.911  22.980  0.00  0.00     0.000 C 
ATOM     33  C   LIG d   1      33.461  13.266  23.669  0.00  0.00     0.000 C 
ATOM     34  C   LIG d   1      34.455  10.957  23.497  0.00  0.00     0.000 C 
ENDBRANCH  28  32
BRANCH  29  35
ATOM     35  O   LIG d   1      31.150  12.538  21.340  0.00  0.00     0.000 OA
ATOM     36  H   LIG d   1      30.340  12.738  20.846  0.00  0.00     0.000 HD
ENDBRANCH  29  35
BRANCH  31  37
ATOM     37  O   LIG d   1      28.055  10.614  24.453  0.00  0.00     0.000 OA
ATOM     38  H   LIG d   1      27.420  10.951  23.795  0.00  0.00     0.000 HD
ENDBRANCH  31  37
ENDBRANCH   5  26
TORSDOF 9
