@<TRIPOS>MOLECULE
2VCI_2GJ_A_1225
 66 69 0 0 0
SMALL
USER_CHARGES

@<TRIPOS>ATOM
      1 C          35.5048    4.9719   21.3045 C.3     1  LIG1        0.0000
      2 C          35.9895    3.5559   21.1066 C.3     1  LIG1        0.0000
      3 O          36.8641    3.1892   22.1808 O.3     1  LIG1        0.0000
      4 C          36.1902    3.1476   23.4463 C.3     1  LIG1        0.0000
      5 C          35.6766    4.5098   23.8473 C.3     1  LIG1        0.0000
      6 N          34.9760    5.1972   22.6995 N.4     1  LIG1        1.0000
      7 C          35.1152    6.6717   22.9606 C.3     1  LIG1        0.0000
      8 C          34.0977    7.1931   23.8964 C.ar    1  LIG1        0.0000
      9 C          32.7378    7.0531   23.5861 C.ar    1  LIG1        0.0000
     10 C          31.7840    7.5464   24.4543 C.ar    1  LIG1        0.0000
     11 C          34.5071    7.8302   25.0757 C.ar    1  LIG1        0.0000
     12 C          33.5527    8.3240   25.9500 C.ar    1  LIG1        0.0000
     13 C          32.1912    8.1861   25.6270 C.ar    1  LIG1        0.0000
     14 C          31.1833    8.7607   26.4770 C.ar    1  LIG1        0.0000
     15 C          30.8055    8.3643   27.7620 C.ar    1  LIG1        0.0000
     16 C          31.4425    7.2319   28.4986 C.2     1  LIG1        0.0000
     17 O          32.0602    6.3296   27.9785 O.2     1  LIG1        0.0000
     18 N          31.3155    7.3431   29.8811 N.am    1  LIG1        0.0000
     19 C          31.8146    6.4417   30.9219 C.3     1  LIG1        0.0000
     20 C          33.0153    5.6387   30.5017 C.3     1  LIG1        0.0000
     21 N          29.8083    9.1699   28.1980 N.ar    1  LIG1        0.0000
     22 O          29.5542   10.1015   27.1623 O.2     1  LIG1        0.0000
     23 C          30.3769    9.8061   26.1167 C.ar    1  LIG1        0.0000
     24 C          30.4146   10.5896   24.9196 C.ar    1  LIG1        0.0000
     25 C          31.7155   10.8783   24.5008 C.ar    1  LIG1        0.0000
     26 C          31.9746   11.4947   23.2812 C.ar    1  LIG1        0.0000
     27 C          33.3842   11.9107   22.9797 C.3     1  LIG1        0.0000
     28 C          33.4612   13.2662   23.6690 C.3     1  LIG1        0.0000
     29 C          34.4551   10.9571   23.4970 C.3     1  LIG1        0.0000
     30 C          30.8903   11.8807   22.5095 C.ar    1  LIG1        0.0000
     31 O          31.1502   12.5376   21.3405 O.3     1  LIG1        0.0000
     32 C          29.5800   11.5859   22.8979 C.ar    1  LIG1        0.0000
     33 C          29.3472   10.9180   24.1046 C.ar    1  LIG1        0.0000
     34 O          28.0551   10.6135   24.4526 O.3     1  LIG1        0.0000
     35 H          34.6911    5.2197   20.6118 H       1  LIG1        0.0000
     36 H          36.3297    5.6763   21.1587 H       1  LIG1        0.0000
     37 H          36.5287    3.5056   20.1497 H       1  LIG1        0.0000
     38 H          35.1425    2.8653   21.0500 H       1  LIG1        0.0000
     39 H          36.8897    2.8112   24.2217 H       1  LIG1        0.0000
     40 H          35.3584    2.4399   23.4073 H       1  LIG1        0.0000
     41 H          36.5127    5.1442   24.1548 H       1  LIG1        0.0000
     42 H          34.9601    4.4469   24.6759 H       1  LIG1        0.0000
     43 H          34.0111    4.8427   22.7079 H       1  LIG1        0.0000
     44 H          35.0675    7.1909   22.0006 H       1  LIG1        0.0000
     45 H          36.1289    6.8236   23.3591 H       1  LIG1        0.0000
     46 H          32.4245    6.5598   22.6709 H       1  LIG1        0.0000
     47 H          30.7212    7.4500   24.2266 H       1  LIG1        0.0000
     48 H          35.5658    7.9433   25.3095 H       1  LIG1        0.0000
     49 H          33.8609    8.8335   26.8659 H       1  LIG1        0.0000
     50 H          30.7857    8.1457   30.1870 H       1  LIG1        0.0000
     51 H          31.0028    5.7736   31.2392 H       1  LIG1        0.0000
     52 H          32.0822    7.0593   31.8016 H       1  LIG1        0.0000
     53 H          32.7526    5.0086   29.6498 H       1  LIG1        0.0000
     54 H          33.3568    4.9903   31.3116 H       1  LIG1        0.0000
     55 H          33.8297    6.3076   30.2110 H       1  LIG1        0.0000
     56 H          32.5428   10.6227   25.1461 H       1  LIG1        0.0000
     57 H          33.5621   11.9399   21.8996 H       1  LIG1        0.0000
     58 H          33.2272   13.1585   24.7436 H       1  LIG1        0.0000
     59 H          32.7135   13.9567   23.2493 H       1  LIG1        0.0000
     60 H          34.4459   13.7098   23.5751 H       1  LIG1        0.0000
     61 H          34.3989   10.8488   24.5816 H       1  LIG1        0.0000
     62 H          35.4521   11.3328   23.2521 H       1  LIG1        0.0000
     63 H          34.3366    9.9691   23.0377 H       1  LIG1        0.0000
     64 H          30.3398   12.7383   20.8465 H       1  LIG1        0.0000
     65 H          28.7545   11.8728   22.2804 H       1  LIG1        0.0000
     66 H          27.4197   10.9507   23.7954 H       1  LIG1        0.0000
@<TRIPOS>BOND
     1     1     2    1
     2     1     6    1
     3     1    35    1
     4     1    36    1
     5     2     3    1
     6     2    37    1
     7     2    38    1
     8     3     4    1
     9     4     5    1
    10     4    39    1
    11     4    40    1
    12     5     6    1
    13     5    41    1
    14     5    42    1
    15     6     7    1
    16     6    43    1
    17     7     8    1
    18     7    44    1
    19     7    45    1
    20     8     9   ar
    21     8    11   ar
    22     9    10   ar
    23     9    46    1
    24    10    13   ar
    25    10    47    1
    26    11    12   ar
    27    11    48    1
    28    12    13   ar
    29    12    49    1
    30    13    14    1
    31    14    15   ar
    32    14    23   ar
    33    15    16    1
    34    15    21   ar
    35    16    17    2
    36    16    18   am
    37    18    19    1
    38    18    50    1
    39    19    20    1
    40    19    51    1
    41    19    52    1
    42    20    53    1
    43    20    54    1
    44    20    55    1
    45    21    22   ar
    46    22    23   ar
    47    23    24    1
    48    24    25   ar
    49    24    33   ar
    50    25    26   ar
    51    25    56    1
    52    26    27    1
    53    26    30   ar
    54    27    28    1
    55    27    29    1
    56    27    57    1
    57    28    58    1
    58    28    59    1
    59    28    60    1
    60    29    61    1
    61    29    62    1
    62    29    63    1
    63    30    31    1
    64    30    32   ar
    65    31    64    1
    66    32    33   ar
    67    32    65    1
    68    33    34    1
    69    34    66    1
