@<TRIPOS>MOLECULE
2YEB_2K4_A_1224
 16 17 0 0 0
SMALL
USER_CHARGES

@<TRIPOS>ATOM
      1 C          30.8743   11.8546   22.8245 C.ar    1  LIG1        0.0052
      2 C          30.8141   11.3956   24.1445 C.ar    1  LIG1        0.0692
      3 N          29.7566   11.0472   24.9272 N.ar    1  LIG1       -0.2768
      4 N          30.1526   10.6501   26.1653 N.ar    1  LIG1       -0.1812
      5 C          31.4887   10.7572   26.1418 C.ar    1  LIG1        0.0569
      6 C          31.9365   11.2166   24.9056 C.ar    1  LIG1        0.0197
      7 C          33.1990   11.4880   24.3893 C.ar    1  LIG1       -0.0476
      8 C          33.2865   11.9460   23.0807 C.ar    1  LIG1       -0.0194
      9 C          32.1353   12.1211   22.3232 C.ar    1  LIG1        0.1189
     10 O          32.2078   12.5707   21.0352 O.3     1  LIG1       -0.5067
     11 H          29.9758   11.9831   22.2580 H       1  LIG1        0.0675
     12 H          28.7763   11.0572   24.6858 H       1  LIG1        0.1889
     13 H          32.1020   10.5114   26.9849 H       1  LIG1        0.0854
     14 H          34.0831   11.3417   25.0015 H       1  LIG1        0.0626
     15 H          34.2613   12.1610   22.6699 H       1  LIG1        0.0654
     16 H          33.1280   12.7329   20.7661 H       1  LIG1        0.2921
@<TRIPOS>BOND
     1     1     2   ar
     2     1     9   ar
     3     1    11    1
     4     2     3   ar
     5     2     6   ar
     6     3     4   ar
     7     3    12    1
     8     4     5   ar
     9     5     6   ar
    10     5    13    1
    11     6     7   ar
    12     7     8   ar
    13     7    14    1
    14     8     9   ar
    15     8    15    1
    16     9    10    1
    17    10    16    1
