REMARK  1 active torsions:
REMARK  status: ('A' for Active; 'I' for Inactive)
REMARK    1  A    between atoms: C_9  and  O_10 
ROOT
ATOM      1  C   LIG d   1      30.874  11.855  22.825  0.00  0.00     0.073 A 
ATOM      2  C   LIG d   1      30.814  11.396  24.145  0.00  0.00     0.069 A 
ATOM      3  N   LIG d   1      29.757  11.047  24.927  0.00  0.00    -0.277 N 
ATOM      4  N   LIG d   1      30.153  10.650  26.165  0.00  0.00    -0.181 NA
ATOM      5  C   LIG d   1      31.489  10.757  26.142  0.00  0.00     0.142 A 
ATOM      6  C   LIG d   1      31.936  11.217  24.906  0.00  0.00     0.020 A 
ATOM      7  C   LIG d   1      33.199  11.488  24.389  0.00  0.00     0.015 A 
ATOM      8  C   LIG d   1      33.286  11.946  23.081  0.00  0.00     0.046 A 
ATOM      9  C   LIG d   1      32.135  12.121  22.323  0.00  0.00     0.119 A 
ATOM     10  H   LIG d   1      28.776  11.057  24.686  0.00  0.00     0.189 HD
ENDROOT
BRANCH   9  11
ATOM     11  O   LIG d   1      32.208  12.571  21.035  0.00  0.00    -0.507 OA
ATOM     12  H   LIG d   1      33.128  12.733  20.766  0.00  0.00     0.292 HD
ENDBRANCH   9  11
TORSDOF 1
