@<TRIPOS>MOLECULE
2WI7_2KL_A_1224
 55 58 0 0 0
SMALL
USER_CHARGES

@<TRIPOS>ATOM
      1 O           2.0727    7.2410   28.9749 O.2     1  LIG1        0.0000
      2 C           1.0540    7.8728   29.2031 C.2     1  LIG1        0.0000
      3 N           0.4791    7.8646   30.4575 N.am    1  LIG1        0.0000
      4 C           1.1744    7.3042   31.6104 C.3     1  LIG1        0.0000
      5 C           0.7381    5.8888   31.9053 C.3     1  LIG1        0.0000
      6 C           0.4664    8.7054   28.1559 C.ar    1  LIG1        0.0000
      7 S          -1.1778    9.1557   28.0724 S.2     1  LIG1        0.0000
      8 C           1.1733    9.1692   27.0620 C.ar    1  LIG1        0.0000
      9 C           0.3523    9.8941   26.1309 C.ar    1  LIG1        0.0000
     10 C          -0.9668    9.9722   26.5581 C.ar    1  LIG1        0.0000
     11 N          -1.9757   10.5970   25.8851 N.ar    1  LIG1        0.0000
     12 C          -1.5952   11.1612   24.7511 C.ar    1  LIG1        0.0000
     13 N          -2.5732   11.8104   23.9858 N.pl3   1  LIG1        0.0000
     14 N          -0.3534   11.1485   24.2360 N.ar    1  LIG1        0.0000
     15 C           0.6435   10.5207   24.9279 C.ar    1  LIG1        0.0000
     16 C           2.0221   10.5203   24.3967 C.ar    1  LIG1        0.0000
     17 C           2.6565    9.2792   24.0746 C.ar    1  LIG1        0.0000
     18 C           2.7773   11.7226   24.2555 C.ar    1  LIG1        0.0000
     19 CL          2.1412   13.2830   24.6455 Cl      1  LIG1        0.0000
     20 C           4.0988   11.7106   23.8225 C.ar    1  LIG1        0.0000
     21 C           4.6990   10.4869   23.4997 C.ar    1  LIG1        0.0000
     22 CL          6.3179   10.5602   22.9304 Cl      1  LIG1        0.0000
     23 C           3.9804    9.2563   23.6081 C.ar    1  LIG1        0.0000
     24 O           4.6508    8.1022   23.2701 O.3     1  LIG1        0.0000
     25 C           3.9071    6.9323   22.8873 C.3     1  LIG1        0.0000
     26 C           4.8866    5.7774   22.7108 C.3     1  LIG1        0.0000
     27 N           5.2112    5.1046   24.0153 N.4     1  LIG1        1.0000
     28 C           5.0147    3.6398   24.2146 C.3     1  LIG1        0.0000
     29 C           5.3661    5.8663   25.2925 C.3     1  LIG1        0.0000
     30 C           5.0996    4.8401   26.3626 C.3     1  LIG1        0.0000
     31 C           4.9902    3.4663   25.7132 C.3     1  LIG1        0.0000
     32 H          -0.4481    8.2364   30.5804 H       1  LIG1        0.0000
     33 H           0.9749    7.9396   32.4761 H       1  LIG1        0.0000
     34 H           2.2584    7.3124   31.4220 H       1  LIG1        0.0000
     35 H          -0.3361    5.8634   32.1101 H       1  LIG1        0.0000
     36 H           1.2713    5.5025   32.7813 H       1  LIG1        0.0000
     37 H           0.9486    5.2387   31.0514 H       1  LIG1        0.0000
     38 H           2.2538    9.0060   26.9042 H       1  LIG1        0.0000
     39 H          -2.3056   12.2382   23.1228 H       1  LIG1        0.0000
     40 H          -3.5067   11.8365   24.3428 H       1  LIG1        0.0000
     41 H           2.0952    8.3450   24.2100 H       1  LIG1        0.0000
     42 H           4.6796   12.6355   23.7195 H       1  LIG1        0.0000
     43 H           3.4115    7.0928   21.9259 H       1  LIG1        0.0000
     44 H           3.1791    6.6442   23.6479 H       1  LIG1        0.0000
     45 H           5.8592    6.1290   22.3419 H       1  LIG1        0.0000
     46 H           4.5119    5.0090   22.0249 H       1  LIG1        0.0000
     47 H           6.2096    5.0415   23.8325 H       1  LIG1        0.0000
     48 H           5.8974    3.1679   23.7620 H       1  LIG1        0.0000
     49 H           4.1171    3.2697   23.7115 H       1  LIG1        0.0000
     50 H           4.7043    6.7341   25.3561 H       1  LIG1        0.0000
     51 H           6.4066    6.2179   25.2992 H       1  LIG1        0.0000
     52 H           4.1677    5.0869   26.8782 H       1  LIG1        0.0000
     53 H           5.9087    4.8504   27.0996 H       1  LIG1        0.0000
     54 H           5.8171    2.8237   26.0374 H       1  LIG1        0.0000
     55 H           4.0567    2.9787   26.0122 H       1  LIG1        0.0000
@<TRIPOS>BOND
     1     1     2    2
     2     2     3   am
     3     2     6    1
     4     3     4    1
     5     3    32    1
     6     4     5    1
     7     4    33    1
     8     4    34    1
     9     5    35    1
    10     5    36    1
    11     5    37    1
    12     6     7   ar
    13     6     8   ar
    14     7    10   ar
    15     8     9   ar
    16     8    38    1
    17     9    10   ar
    18     9    15   ar
    19    10    11   ar
    20    11    12   ar
    21    12    13    1
    22    12    14   ar
    23    13    39    1
    24    13    40    1
    25    14    15   ar
    26    15    16    1
    27    16    17   ar
    28    16    18   ar
    29    17    23   ar
    30    17    41    1
    31    18    19    1
    32    18    20   ar
    33    20    21   ar
    34    20    42    1
    35    21    22    1
    36    21    23   ar
    37    23    24    1
    38    24    25    1
    39    25    26    1
    40    25    43    1
    41    25    44    1
    42    26    27    1
    43    26    45    1
    44    26    46    1
    45    27    28    1
    46    27    29    1
    47    27    47    1
    48    28    31    1
    49    28    48    1
    50    28    49    1
    51    29    30    1
    52    29    50    1
    53    29    51    1
    54    30    31    1
    55    30    52    1
    56    30    53    1
    57    31    54    1
    58    31    55    1
