REMARK  8 active torsions:
REMARK  status: ('A' for Active; 'I' for Inactive)
REMARK       I    between atoms: C_2  and  N_3 
REMARK    1  A    between atoms: C_2  and  C_6 
REMARK    2  A    between atoms: N_3  and  C_4 
REMARK    3  A    between atoms: C_12  and  N_13 
REMARK    4  A    between atoms: C_15  and  C_16 
REMARK    5  A    between atoms: C_23  and  O_24 
REMARK    6  A    between atoms: O_24  and  C_25 
REMARK    7  A    between atoms: C_25  and  C_26 
REMARK    8  A    between atoms: C_26  and  N_27 
ROOT
ATOM      1  C   LIG d   1       0.466   8.705  28.156  0.00  0.00     0.000 A 
ATOM      2  S   LIG d   1      -1.178   9.156  28.072  0.00  0.00     0.000 SA
ATOM      3  C   LIG d   1       1.173   9.169  27.062  0.00  0.00     0.000 A 
ATOM      4  C   LIG d   1       0.352   9.894  26.131  0.00  0.00     0.000 A 
ATOM      5  C   LIG d   1      -0.967   9.972  26.558  0.00  0.00     0.000 A 
ATOM      6  N   LIG d   1      -1.976  10.597  25.885  0.00  0.00     0.000 NA
ATOM      7  C   LIG d   1      -1.595  11.161  24.751  0.00  0.00     0.000 A 
ATOM      8  N   LIG d   1      -0.353  11.149  24.236  0.00  0.00     0.000 NA
ATOM      9  C   LIG d   1       0.643  10.521  24.928  0.00  0.00     0.000 A 
ENDROOT
BRANCH   9  10
ATOM     10  C   LIG d   1       2.022  10.520  24.397  0.00  0.00     0.000 A 
ATOM     11  C   LIG d   1       2.656   9.279  24.075  0.00  0.00     0.000 A 
ATOM     12  C   LIG d   1       3.980   9.256  23.608  0.00  0.00     0.000 A 
ATOM     13  C   LIG d   1       4.699  10.487  23.500  0.00  0.00     0.000 A 
ATOM     14  C   LIG d   1       4.099  11.711  23.823  0.00  0.00     0.000 A 
ATOM     15 CL   LIG d   1       6.318  10.560  22.930  0.00  0.00     0.000 Cl
ATOM     16  C   LIG d   1       2.777  11.723  24.256  0.00  0.00     0.000 A 
ATOM     17 CL   LIG d   1       2.141  13.283  24.645  0.00  0.00     0.000 Cl
BRANCH  12  18
ATOM     18  O   LIG d   1       4.651   8.102  23.270  0.00  0.00     0.000 OA
BRANCH  18  19
ATOM     19  C   LIG d   1       3.907   6.932  22.887  0.00  0.00     0.000 C 
BRANCH  19  20
ATOM     20  C   LIG d   1       4.887   5.777  22.711  0.00  0.00     0.000 C 
BRANCH  20  21
ATOM     21  N   LIG d   1       5.211   5.105  24.015  0.00  0.00     1.000 N 
ATOM     22  C   LIG d   1       5.015   3.640  24.215  0.00  0.00     0.000 C 
ATOM     23  C   LIG d   1       4.990   3.466  25.713  0.00  0.00     0.000 C 
ATOM     24  C   LIG d   1       5.100   4.840  26.363  0.00  0.00     0.000 C 
ATOM     25  C   LIG d   1       5.366   5.866  25.293  0.00  0.00     0.000 C 
ATOM     26  H   LIG d   1       6.210   5.042  23.832  0.00  0.00     0.000 HD
ENDBRANCH  20  21
ENDBRANCH  19  20
ENDBRANCH  18  19
ENDBRANCH  12  18
ENDBRANCH   9  10
BRANCH   7  27
ATOM     27  N   LIG d   1      -2.573  11.810  23.986  0.00  0.00     0.000 N 
ATOM     28  H   LIG d   1      -2.306  12.238  23.123  0.00  0.00     0.000 HD
ATOM     29  H   LIG d   1      -3.507  11.836  24.343  0.00  0.00     0.000 HD
ENDBRANCH   7  27
BRANCH   1  30
ATOM     30  C   LIG d   1       1.054   7.873  29.203  0.00  0.00     0.000 C 
ATOM     31  O   LIG d   1       2.073   7.241  28.975  0.00  0.00     0.000 OA
ATOM     32  N   LIG d   1       0.479   7.865  30.457  0.00  0.00     0.000 N 
ATOM     33  H   LIG d   1      -0.448   8.236  30.580  0.00  0.00     0.000 HD
BRANCH  32  34
ATOM     34  C   LIG d   1       1.174   7.304  31.610  0.00  0.00     0.000 C 
ATOM     35  C   LIG d   1       0.738   5.889  31.905  0.00  0.00     0.000 C 
ENDBRANCH  32  34
ENDBRANCH   1  30
TORSDOF 8
