@<TRIPOS>MOLECULE
2YEH_2KU_A_1225
 28 29 0 0 0
SMALL
USER_CHARGES

@<TRIPOS>ATOM
      1 C          34.0267    7.4912   23.3995 C.3     1  LIG1        0.0364
      2 C          34.8828    9.6878   23.3877 C.3     1  LIG1        0.0487
      3 C          34.3637   11.1106   23.5809 C.3     1  LIG1       -0.0139
      4 C          32.8795   11.1459   23.8837 C.3     1  LIG1        0.0126
      5 N          31.1940    9.6568   26.7194 N.ar    1  LIG1       -0.2186
      6 C          29.9737    9.7038   27.2886 C.ar    1  LIG1        0.1205
      7 N          28.8097   10.1279   26.7475 N.ar    1  LIG1       -0.2162
      8 C          29.0070   10.5399   25.4828 C.ar    1  LIG1        0.1627
      9 C          30.1866   10.5863   24.7875 C.ar    1  LIG1        0.1472
     10 C          31.3315   10.1435   25.4664 C.ar    1  LIG1        0.1497
     11 N          32.6014   10.2348   24.9734 N.pl3   1  LIG1       -0.3272
     12 N          29.9951   11.0854   23.5124 N.ar    1  LIG1       -0.2308
     13 C          28.7145   11.3238   23.4287 C.ar    1  LIG1        0.0957
     14 N          28.0661   11.0237   24.5959 N.ar    1  LIG1       -0.3292
     15 O          33.8419    8.8195   22.9365 O.3     1  LIG1       -0.3829
     16 H          33.1770    6.8824   23.0801 H       1  LIG1        0.0523
     17 H          34.0746    7.4614   24.4945 H       1  LIG1        0.0523
     18 H          34.9481    7.0972   22.9706 H       1  LIG1        0.0523
     19 H          35.2820    9.3369   24.3481 H       1  LIG1        0.0560
     20 H          35.6862    9.6694   22.6505 H       1  LIG1        0.0560
     21 H          34.5579   11.7068   22.6836 H       1  LIG1        0.0302
     22 H          34.9147   11.5885   24.4008 H       1  LIG1        0.0302
     23 H          32.3264   10.9377   22.9584 H       1  LIG1        0.0462
     24 H          32.6017   12.1532   24.2180 H       1  LIG1        0.0462
     25 H          29.9338    9.3608   28.3171 H       1  LIG1        0.1048
     26 H          33.1653    9.4091   25.1167 H       1  LIG1        0.1475
     27 H          28.2015   11.7178   22.5626 H       1  LIG1        0.1027
     28 H          27.0995   11.1273   24.7963 H       1  LIG1        0.1682
@<TRIPOS>BOND
     1     1    15    1
     2     1    16    1
     3     1    17    1
     4     1    18    1
     5     2     3    1
     6     2    15    1
     7     2    19    1
     8     2    20    1
     9     3     4    1
    10     3    21    1
    11     3    22    1
    12     4    11    1
    13     4    23    1
    14     4    24    1
    15     5     6   ar
    16     5    10   ar
    17     6     7   ar
    18     6    25    1
    19     7     8   ar
    20     8     9   ar
    21     8    14   ar
    22     9    10   ar
    23     9    12   ar
    24    10    11    1
    25    11    26    1
    26    12    13   ar
    27    13    14   ar
    28    13    27    1
    29    14    28    1
