REMARK  5 active torsions:
REMARK  status: ('A' for Active; 'I' for Inactive)
REMARK    1  A    between atoms: C_2  and  C_3 
REMARK    2  A    between atoms: C_2  and  O_15 
REMARK    3  A    between atoms: C_3  and  C_4 
REMARK    4  A    between atoms: C_4  and  N_11 
REMARK    5  A    between atoms: C_10  and  N_11 
ROOT
ATOM      1  N   LIG d   1      31.194   9.657  26.719  0.00  0.00    -0.219 NA
ATOM      2  C   LIG d   1      29.974   9.704  27.289  0.00  0.00     0.225 A 
ATOM      3  N   LIG d   1      28.810  10.128  26.747  0.00  0.00    -0.216 NA
ATOM      4  C   LIG d   1      29.007  10.540  25.483  0.00  0.00     0.163 A 
ATOM      5  C   LIG d   1      30.187  10.586  24.788  0.00  0.00     0.147 A 
ATOM      6  C   LIG d   1      31.331  10.143  25.466  0.00  0.00     0.150 A 
ATOM      7  N   LIG d   1      29.995  11.085  23.512  0.00  0.00    -0.231 NA
ATOM      8  C   LIG d   1      28.715  11.324  23.429  0.00  0.00     0.198 A 
ATOM      9  N   LIG d   1      28.066  11.024  24.596  0.00  0.00    -0.329 N 
ATOM     10  H   LIG d   1      27.099  11.127  24.796  0.00  0.00     0.168 HD
ENDROOT
BRANCH   6  11
ATOM     11  N   LIG d   1      32.601  10.235  24.973  0.00  0.00    -0.327 N 
ATOM     12  H   LIG d   1      33.165   9.409  25.117  0.00  0.00     0.147 HD
BRANCH  11  13
ATOM     13  C   LIG d   1      32.880  11.146  23.884  0.00  0.00     0.105 C 
BRANCH  13  14
ATOM     14  C   LIG d   1      34.364  11.111  23.581  0.00  0.00     0.046 C 
BRANCH  14  15
ATOM     15  C   LIG d   1      34.883   9.688  23.388  0.00  0.00     0.161 C 
BRANCH  15  16
ATOM     16  O   LIG d   1      33.842   8.819  22.936  0.00  0.00    -0.383 OA
ATOM     17  C   LIG d   1      34.027   7.491  23.399  0.00  0.00     0.193 C 
ENDBRANCH  15  16
ENDBRANCH  14  15
ENDBRANCH  13  14
ENDBRANCH  11  13
ENDBRANCH   6  11
TORSDOF 5
