2YEH_2KU_A_1225
 OpenBabel03301717103D

 28 29  0  0  0  0  0  0  0  0999 V2000
   34.0267    7.4912   23.3995 C   0  0  0  0  0  0  0  0  0  0  0  0
   34.8828    9.6878   23.3877 C   0  0  0  0  0  0  0  0  0  0  0  0
   34.3637   11.1106   23.5809 C   0  0  0  0  0  0  0  0  0  0  0  0
   32.8795   11.1459   23.8837 C   0  0  0  0  0  0  0  0  0  0  0  0
   31.1940    9.6568   26.7194 N   0  0  0  0  0  0  0  0  0  0  0  0
   29.9737    9.7038   27.2886 C   0  0  0  0  0  0  0  0  0  0  0  0
   28.8097   10.1279   26.7475 N   0  0  0  0  0  0  0  0  0  0  0  0
   29.0070   10.5399   25.4828 C   0  0  0  0  0  0  0  0  0  0  0  0
   30.1866   10.5863   24.7875 C   0  0  0  0  0  0  0  0  0  0  0  0
   31.3315   10.1435   25.4664 C   0  0  0  0  0  0  0  0  0  0  0  0
   32.6014   10.2348   24.9734 N   0  0  0  0  0  0  0  0  0  0  0  0
   29.9951   11.0854   23.5124 N   0  0  0  0  0  0  0  0  0  0  0  0
   28.7145   11.3238   23.4287 C   0  0  0  0  0  0  0  0  0  0  0  0
   28.0661   11.0237   24.5959 N   0  3  0  0  0  0  0  0  0  0  0  0
   33.8419    8.8195   22.9365 O   0  0  0  0  0  0  0  0  0  0  0  0
   33.1770    6.8824   23.0801 H   0  0  0  0  0  0  0  0  0  0  0  0
   34.0746    7.4614   24.4945 H   0  0  0  0  0  0  0  0  0  0  0  0
   34.9481    7.0972   22.9706 H   0  0  0  0  0  0  0  0  0  0  0  0
   35.2820    9.3369   24.3481 H   0  0  0  0  0  0  0  0  0  0  0  0
   35.6862    9.6694   22.6505 H   0  0  0  0  0  0  0  0  0  0  0  0
   34.5579   11.7068   22.6836 H   0  0  0  0  0  0  0  0  0  0  0  0
   34.9147   11.5885   24.4008 H   0  0  0  0  0  0  0  0  0  0  0  0
   32.3264   10.9377   22.9584 H   0  0  0  0  0  0  0  0  0  0  0  0
   32.6017   12.1532   24.2180 H   0  0  0  0  0  0  0  0  0  0  0  0
   29.9338    9.3608   28.3171 H   0  0  0  0  0  0  0  0  0  0  0  0
   33.1653    9.4091   25.1167 H   0  0  0  0  0  0  0  0  0  0  0  0
   28.2015   11.7178   22.5626 H   0  0  0  0  0  0  0  0  0  0  0  0
   27.0995   11.1273   24.7963 H   0  0  0  0  0  0  0  0  0  0  0  0
  1 15  1  0  0  0  0
  1 16  1  0  0  0  0
  1 17  1  0  0  0  0
  1 18  1  0  0  0  0
  2  3  1  0  0  0  0
  2 15  1  0  0  0  0
  2 19  1  0  0  0  0
  2 20  1  0  0  0  0
  3  4  1  0  0  0  0
  3 21  1  0  0  0  0
  3 22  1  0  0  0  0
  4 11  1  0  0  0  0
  4 23  1  0  0  0  0
  4 24  1  0  0  0  0
  5  6  2  0  0  0  0
  5 10  1  0  0  0  0
  6  7  1  0  0  0  0
  6 25  1  0  0  0  0
  7  8  2  0  0  0  0
  8  9  1  0  0  0  0
  8 14  1  0  0  0  0
  9 10  2  0  0  0  0
  9 12  1  0  0  0  0
 10 11  1  0  0  0  0
 11 26  1  0  0  0  0
 12 13  1  0  0  0  0
 13 14  2  0  0  0  0
 13 27  1  0  0  0  0
 14 28  1  0  0  0  0
M  CHG  1  14   1
M  END
$$$$
