@<TRIPOS>MOLECULE
4NH8_2LC_A_301
 55 58 0 0 0
SMALL
USER_CHARGES

@<TRIPOS>ATOM
      1 C           7.4553   -9.7260  -23.1439 C.3     1  LIG1       -0.0376
      2 C           6.3466  -10.6448  -23.5204 C.ar    1  LIG1       -0.0218
      3 C           5.0029  -10.3322  -23.4574 C.ar    1  LIG1        0.0137
      4 N           4.2495  -11.3952  -23.9118 N.ar    1  LIG1       -0.3190
      5 C           5.1216  -12.4095  -24.2553 C.ar    1  LIG1        0.0350
      6 C           6.4190  -11.9782  -24.0206 C.ar    1  LIG1        0.0414
      7 C           7.5593  -12.8334  -24.3451 C.2     1  LIG1        0.1656
      8 O           8.7211  -12.4638  -24.1964 O.2     1  LIG1       -0.2920
      9 C           7.2291  -14.2490  -24.8272 C.3     1  LIG1        0.0160
     10 C           5.9327  -14.3322  -25.6699 C.3     1  LIG1       -0.0225
     11 C           6.1352  -13.6266  -27.0250 C.3     1  LIG1       -0.0591
     12 C           5.6036  -15.8105  -25.9563 C.3     1  LIG1       -0.0591
     13 C           4.7438  -13.7067  -24.8972 C.3     1  LIG1       -0.0057
     14 C           2.8377  -11.3762  -24.0669 C.ar    1  LIG1        0.0508
     15 C           2.2348  -10.2007  -24.5321 C.ar    1  LIG1       -0.0161
     16 C           0.8511  -10.1285  -24.7496 C.ar    1  LIG1        0.0444
     17 N           0.2694   -8.9811  -25.2707 N.pl3   1  LIG1       -0.3380
     18 C           0.9680   -7.7501  -25.6156 C.3     1  LIG1        0.0461
     19 C           1.4950   -7.8592  -27.0302 C.3     1  LIG1       -0.0089
     20 C           0.2854   -7.5061  -27.8745 C.3     1  LIG1        0.0495
     21 O          -0.6114   -6.7336  -27.0619 O.3     1  LIG1       -0.3779
     22 C          -0.0358   -6.6108  -25.7511 C.3     1  LIG1        0.0660
     23 C           0.0857  -11.2935  -24.5179 C.ar    1  LIG1        0.0925
     24 C          -1.3814  -11.3411  -24.7880 C.2     1  LIG1        0.2461
     25 N          -1.8131  -10.6266  -25.8751 N.am    1  LIG1       -0.3252
     26 O          -2.1626  -11.9717  -24.0959 O.2     1  LIG1       -0.2703
     27 C           0.6965  -12.4566  -24.0390 C.ar    1  LIG1        0.1392
     28 F          -0.0049  -13.5830  -23.8395 F       1  LIG1       -0.2046
     29 C           2.0664  -12.4984  -23.8068 C.ar    1  LIG1       -0.0017
     30 H           7.0593   -8.7767  -22.7633 H       1  LIG1        0.0278
     31 H           8.0787   -9.4953  -24.0130 H       1  LIG1        0.0278
     32 H           8.0789  -10.1623  -22.3593 H       1  LIG1        0.0278
     33 H           4.5272   -9.4321  -23.0906 H       1  LIG1        0.0816
     34 H           7.1352  -14.8822  -23.9339 H       1  LIG1        0.0350
     35 H           8.0771  -14.6219  -25.4119 H       1  LIG1        0.0350
     36 H           6.9542  -14.0892  -27.5869 H       1  LIG1        0.0235
     37 H           6.3744  -12.5655  -26.9043 H       1  LIG1        0.0235
     38 H           5.2321  -13.6942  -27.6419 H       1  LIG1        0.0235
     39 H           6.4120  -16.2961  -26.5137 H       1  LIG1        0.0235
     40 H           4.6855  -15.9025  -26.5494 H       1  LIG1        0.0235
     41 H           5.4562  -16.3713  -25.0275 H       1  LIG1        0.0235
     42 H           3.9023  -13.5701  -25.5893 H       1  LIG1        0.0333
     43 H           4.4237  -14.3960  -24.1068 H       1  LIG1        0.0333
     44 H           2.8647   -9.3526  -24.7765 H       1  LIG1        0.0657
     45 H          -0.7458   -8.9078  -25.1811 H       1  LIG1        0.1465
     46 H           1.7306   -7.5013  -24.8708 H       1  LIG1        0.0521
     47 H           1.8985   -8.8430  -27.2915 H       1  LIG1        0.0306
     48 H           2.2866   -7.1200  -27.1953 H       1  LIG1        0.0306
     49 H          -0.2441   -8.4062  -28.2056 H       1  LIG1        0.0560
     50 H           0.5597   -6.9255  -28.7597 H       1  LIG1        0.0560
     51 H           0.4607   -5.6372  -25.6916 H       1  LIG1        0.0578
     52 H          -0.8305   -6.6468  -24.9987 H       1  LIG1        0.0578
     53 H          -2.7876  -10.6898  -26.1329 H       1  LIG1        0.1453
     54 H          -1.1570  -10.2174  -26.5284 H       1  LIG1        0.1453
     55 H           2.4885  -13.4139  -23.4026 H       1  LIG1        0.0667
@<TRIPOS>BOND
     1     1     2    1
     2     1    30    1
     3     1    31    1
     4     1    32    1
     5     2     3   ar
     6     2     6   ar
     7     3     4   ar
     8     3    33    1
     9     4     5   ar
    10     4    14    1
    11     5     6   ar
    12     5    13    1
    13     6     7    1
    14     7     8    2
    15     7     9    1
    16     9    10    1
    17     9    34    1
    18     9    35    1
    19    10    11    1
    20    10    12    1
    21    10    13    1
    22    11    36    1
    23    11    37    1
    24    11    38    1
    25    12    39    1
    26    12    40    1
    27    12    41    1
    28    13    42    1
    29    13    43    1
    30    14    15   ar
    31    14    29   ar
    32    15    16   ar
    33    15    44    1
    34    16    17    1
    35    16    23   ar
    36    17    18    1
    37    17    45    1
    38    18    19    1
    39    18    22    1
    40    18    46    1
    41    19    20    1
    42    19    47    1
    43    19    48    1
    44    20    21    1
    45    20    49    1
    46    20    50    1
    47    21    22    1
    48    22    51    1
    49    22    52    1
    50    23    24    1
    51    23    27   ar
    52    24    25   am
    53    24    26    2
    54    25    53    1
    55    25    54    1
    56    27    28    1
    57    27    29   ar
    58    29    55    1
