REMARK  4 active torsions:
REMARK  status: ('A' for Active; 'I' for Inactive)
REMARK    1  A    between atoms: N_4  and  C_14 
REMARK    2  A    between atoms: C_16  and  N_17 
REMARK    3  A    between atoms: N_17  and  C_18 
REMARK    4  A    between atoms: C_23  and  C_24 
REMARK       I    between atoms: C_24  and  N_25 
ROOT
ATOM      1  C   LIG d   1       2.838 -11.376 -24.067  0.00  0.00     0.051 A 
ATOM      2  C   LIG d   1       2.235 -10.201 -24.532  0.00  0.00     0.050 A 
ATOM      3  C   LIG d   1       0.851 -10.129 -24.750  0.00  0.00     0.044 A 
ATOM      4  C   LIG d   1       0.086 -11.293 -24.518  0.00  0.00     0.092 A 
ATOM      5  C   LIG d   1       0.697 -12.457 -24.039  0.00  0.00     0.139 A 
ATOM      6  F   LIG d   1      -0.005 -13.583 -23.840  0.00  0.00    -0.205 F 
ATOM      7  C   LIG d   1       2.066 -12.498 -23.807  0.00  0.00     0.065 A 
ENDROOT
BRANCH   1   8
ATOM      8  N   LIG d   1       4.250 -11.395 -23.912  0.00  0.00    -0.319 N 
ATOM      9  C   LIG d   1       5.003 -10.332 -23.457  0.00  0.00     0.095 A 
ATOM     10  C   LIG d   1       6.347 -10.645 -23.520  0.00  0.00    -0.022 A 
ATOM     11  C   LIG d   1       7.455  -9.726 -23.144  0.00  0.00     0.046 C 
ATOM     12  C   LIG d   1       6.419 -11.978 -24.021  0.00  0.00     0.041 A 
ATOM     13  C   LIG d   1       5.122 -12.409 -24.255  0.00  0.00     0.035 A 
ATOM     14  C   LIG d   1       7.559 -12.833 -24.345  0.00  0.00     0.166 C 
ATOM     15  C   LIG d   1       4.744 -13.707 -24.897  0.00  0.00     0.061 C 
ATOM     16  C   LIG d   1       5.933 -14.332 -25.670  0.00  0.00    -0.022 C 
ATOM     17  C   LIG d   1       7.229 -14.249 -24.827  0.00  0.00     0.086 C 
ATOM     18  C   LIG d   1       6.135 -13.627 -27.025  0.00  0.00     0.011 C 
ATOM     19  C   LIG d   1       5.604 -15.810 -25.956  0.00  0.00     0.011 C 
ATOM     20  O   LIG d   1       8.721 -12.464 -24.196  0.00  0.00    -0.292 OA
ENDBRANCH   1   8
BRANCH   3  21
ATOM     21  N   LIG d   1       0.269  -8.981 -25.271  0.00  0.00    -0.338 N 
ATOM     22  H   LIG d   1      -0.746  -8.908 -25.181  0.00  0.00     0.146 HD
BRANCH  21  23
ATOM     23  C   LIG d   1       0.968  -7.750 -25.616  0.00  0.00     0.098 C 
ATOM     24  C   LIG d   1       1.495  -7.859 -27.030  0.00  0.00     0.052 C 
ATOM     25  C   LIG d   1       0.285  -7.506 -27.875  0.00  0.00     0.162 C 
ATOM     26  O   LIG d   1      -0.611  -6.734 -27.062  0.00  0.00    -0.378 OA
ATOM     27  C   LIG d   1      -0.036  -6.611 -25.751  0.00  0.00     0.182 C 
ENDBRANCH  21  23
ENDBRANCH   3  21
BRANCH   4  28
ATOM     28  C   LIG d   1      -1.381 -11.341 -24.788  0.00  0.00     0.246 C 
ATOM     29  N   LIG d   1      -1.813 -10.627 -25.875  0.00  0.00    -0.325 N 
ATOM     30  H   LIG d   1      -2.788 -10.690 -26.133  0.00  0.00     0.145 HD
ATOM     31  H   LIG d   1      -1.157 -10.217 -26.528  0.00  0.00     0.145 HD
ATOM     32  O   LIG d   1      -2.163 -11.972 -24.096  0.00  0.00    -0.270 OA
ENDBRANCH   4  28
TORSDOF 4
