@<TRIPOS>MOLECULE
4FCQ_2N6_A_301
 35 37 0 0 0
SMALL
USER_CHARGES

@<TRIPOS>ATOM
      1 C          32.8191   13.4293   24.3814 C.3     1  LIG1       -0.0391
      2 C          33.5779   12.1380   24.1942 C.ar    1  LIG1       -0.0410
      3 C          34.9356   12.2319   23.8517 C.ar    1  LIG1       -0.0553
      4 C          35.7240   11.0927   23.6529 C.ar    1  LIG1       -0.0502
      5 C          37.1690   11.2216   23.2865 C.3     1  LIG1       -0.0397
      6 C          35.1554    9.8290   23.7983 C.ar    1  LIG1       -0.0582
      7 C          33.8206    9.7121   24.1606 C.ar    1  LIG1       -0.0520
      8 C          33.0202   10.8515   24.3712 C.ar    1  LIG1        0.0041
      9 C          31.6665   10.6246   24.8425 C.ar    1  LIG1        0.0860
     10 C          30.5392   10.9499   24.0983 C.ar    1  LIG1        0.0620
     11 N          31.5346   10.0007   26.0392 N.ar    1  LIG1       -0.2211
     12 C          30.2919    9.7804   26.5183 C.ar    1  LIG1        0.1904
     13 S          30.1631    9.0369   28.1282 S.3     1  LIG1       -0.0894
     14 C          31.2969    7.6289   27.9610 C.3     1  LIG1       -0.0106
     15 N          29.1405   10.1159   25.9105 N.ar    1  LIG1       -0.2040
     16 C          29.3258   10.6802   24.7056 C.ar    1  LIG1        0.1444
     17 N          28.3319   11.0807   23.8529 N.ar    1  LIG1       -0.3444
     18 C          28.8840   11.5953   22.7063 C.ar    1  LIG1        0.0216
     19 C          30.2510   11.4964   22.8249 C.ar    1  LIG1        0.0803
     20 C          31.1902   11.9075   21.8413 C.1     1  LIG1        0.1014
     21 N          31.9863   12.2857   21.0779 N.1     1  LIG1       -0.1908
     22 H          33.4723   14.2941   24.2135 H       1  LIG1        0.0278
     23 H          32.4137   13.5130   25.3921 H       1  LIG1        0.0278
     24 H          32.0039   13.5426   23.6650 H       1  LIG1        0.0278
     25 H          35.3847   13.2164   23.7513 H       1  LIG1        0.0623
     26 H          37.4657   12.2727   23.2191 H       1  LIG1        0.0278
     27 H          37.3486   10.7543   22.3141 H       1  LIG1        0.0278
     28 H          37.7975   10.7402   24.0423 H       1  LIG1        0.0278
     29 H          35.7484    8.9310   23.6505 H       1  LIG1        0.0620
     30 H          33.3995    8.7185   24.3132 H       1  LIG1        0.0624
     31 H          31.2832    7.0477   28.8910 H       1  LIG1        0.0345
     32 H          32.3246    7.9592   27.7895 H       1  LIG1        0.0345
     33 H          30.9834    6.9652   27.1501 H       1  LIG1        0.0345
     34 H          27.3439   10.9925   24.0554 H       1  LIG1        0.1668
     35 H          28.2747   11.9797   21.8961 H       1  LIG1        0.0820
@<TRIPOS>BOND
     1     1     2    1
     2     1    22    1
     3     1    23    1
     4     1    24    1
     5     2     3   ar
     6     2     8   ar
     7     3     4   ar
     8     3    25    1
     9     4     5    1
    10     4     6   ar
    11     5    26    1
    12     5    27    1
    13     5    28    1
    14     6     7   ar
    15     6    29    1
    16     7     8   ar
    17     7    30    1
    18     8     9    1
    19     9    10   ar
    20     9    11   ar
    21    10    16   ar
    22    10    19   ar
    23    11    12   ar
    24    12    13    1
    25    12    15   ar
    26    13    14    1
    27    14    31    1
    28    14    32    1
    29    14    33    1
    30    15    16   ar
    31    16    17   ar
    32    17    18   ar
    33    17    34    1
    34    18    19   ar
    35    18    35    1
    36    19    20    1
    37    20    21    3
