4FCQ_2N6_A_301
 OpenBabel03301717293D

 35 37  0  0  0  0  0  0  0  0999 V2000
   32.8191   13.4293   24.3814 C   0  0  0  0  0  0  0  0  0  0  0  0
   33.5779   12.1380   24.1942 C   0  0  0  0  0  0  0  0  0  0  0  0
   34.9356   12.2319   23.8517 C   0  0  0  0  0  0  0  0  0  0  0  0
   35.7240   11.0927   23.6529 C   0  0  0  0  0  0  0  0  0  0  0  0
   37.1690   11.2216   23.2865 C   0  0  0  0  0  0  0  0  0  0  0  0
   35.1554    9.8290   23.7983 C   0  0  0  0  0  0  0  0  0  0  0  0
   33.8206    9.7121   24.1606 C   0  0  0  0  0  0  0  0  0  0  0  0
   33.0202   10.8515   24.3712 C   0  0  0  0  0  0  0  0  0  0  0  0
   31.6665   10.6246   24.8425 C   0  0  0  0  0  0  0  0  0  0  0  0
   30.5392   10.9499   24.0983 C   0  0  0  0  0  0  0  0  0  0  0  0
   31.5346   10.0007   26.0392 N   0  0  0  0  0  0  0  0  0  0  0  0
   30.2919    9.7804   26.5183 C   0  0  0  0  0  0  0  0  0  0  0  0
   30.1631    9.0369   28.1282 S   0  0  0  0  0  0  0  0  0  0  0  0
   31.2969    7.6289   27.9610 C   0  0  0  0  0  0  0  0  0  0  0  0
   29.1405   10.1159   25.9105 N   0  0  0  0  0  0  0  0  0  0  0  0
   29.3258   10.6802   24.7056 C   0  0  0  0  0  0  0  0  0  0  0  0
   28.3319   11.0807   23.8529 N   0  3  0  0  0  0  0  0  0  0  0  0
   28.8840   11.5953   22.7063 C   0  0  0  0  0  0  0  0  0  0  0  0
   30.2510   11.4964   22.8249 C   0  0  0  0  0  0  0  0  0  0  0  0
   31.1902   11.9075   21.8413 C   0  0  0  0  0  0  0  0  0  0  0  0
   31.9863   12.2857   21.0779 N   0  0  0  0  0  0  0  0  0  0  0  0
   33.4723   14.2941   24.2135 H   0  0  0  0  0  0  0  0  0  0  0  0
   32.4137   13.5130   25.3921 H   0  0  0  0  0  0  0  0  0  0  0  0
   32.0039   13.5426   23.6650 H   0  0  0  0  0  0  0  0  0  0  0  0
   35.3847   13.2164   23.7513 H   0  0  0  0  0  0  0  0  0  0  0  0
   37.4657   12.2727   23.2191 H   0  0  0  0  0  0  0  0  0  0  0  0
   37.3486   10.7543   22.3141 H   0  0  0  0  0  0  0  0  0  0  0  0
   37.7975   10.7402   24.0423 H   0  0  0  0  0  0  0  0  0  0  0  0
   35.7484    8.9310   23.6505 H   0  0  0  0  0  0  0  0  0  0  0  0
   33.3995    8.7185   24.3132 H   0  0  0  0  0  0  0  0  0  0  0  0
   31.2832    7.0477   28.8910 H   0  0  0  0  0  0  0  0  0  0  0  0
   32.3246    7.9592   27.7895 H   0  0  0  0  0  0  0  0  0  0  0  0
   30.9834    6.9652   27.1501 H   0  0  0  0  0  0  0  0  0  0  0  0
   27.3439   10.9925   24.0554 H   0  0  0  0  0  0  0  0  0  0  0  0
   28.2747   11.9797   21.8961 H   0  0  0  0  0  0  0  0  0  0  0  0
  1  2  1  0  0  0  0
  1 22  1  0  0  0  0
  1 23  1  0  0  0  0
  1 24  1  0  0  0  0
  2  3  2  0  0  0  0
  2  8  1  0  0  0  0
  3  4  1  0  0  0  0
  3 25  1  0  0  0  0
  4  5  1  0  0  0  0
  4  6  2  0  0  0  0
  5 26  1  0  0  0  0
  5 27  1  0  0  0  0
  5 28  1  0  0  0  0
  6  7  1  0  0  0  0
  6 29  1  0  0  0  0
  7  8  2  0  0  0  0
  7 30  1  0  0  0  0
  8  9  1  0  0  0  0
  9 10  2  0  0  0  0
  9 11  1  0  0  0  0
 10 16  1  0  0  0  0
 10 19  1  0  0  0  0
 11 12  1  0  0  0  0
 12 13  1  0  0  0  0
 12 15  2  0  0  0  0
 13 14  1  0  0  0  0
 14 31  1  0  0  0  0
 14 32  1  0  0  0  0
 14 33  1  0  0  0  0
 15 16  1  0  0  0  0
 16 17  2  0  0  0  0
 17 18  1  0  0  0  0
 17 34  1  0  0  0  0
 18 19  2  0  0  0  0
 18 35  1  0  0  0  0
 19 20  1  0  0  0  0
 20 21  3  0  0  0  0
M  CHG  1  17   1
M  END
$$$$
