REMARK  2 active torsions:
REMARK  status: ('A' for Active; 'I' for Inactive)
REMARK    1  A    between atoms: C_8  and  C_9 
REMARK    2  A    between atoms: C_12  and  S_13 
ROOT
ATOM      1  C   LIG d   1      31.666  10.625  24.843  0.00  0.00     0.086 A 
ATOM      2  C   LIG d   1      30.539  10.950  24.098  0.00  0.00     0.062 A 
ATOM      3  N   LIG d   1      31.535  10.001  26.039  0.00  0.00    -0.221 NA
ATOM      4  C   LIG d   1      30.292   9.780  26.518  0.00  0.00     0.190 A 
ATOM      5  N   LIG d   1      29.140  10.116  25.910  0.00  0.00    -0.204 NA
ATOM      6  C   LIG d   1      29.326  10.680  24.706  0.00  0.00     0.144 A 
ATOM      7  N   LIG d   1      28.332  11.081  23.853  0.00  0.00    -0.344 N 
ATOM      8  C   LIG d   1      28.884  11.595  22.706  0.00  0.00     0.104 A 
ATOM      9  C   LIG d   1      30.251  11.496  22.825  0.00  0.00     0.080 A 
ATOM     10  C   LIG d   1      31.190  11.908  21.841  0.00  0.00     0.101 C 
ATOM     11  N   LIG d   1      31.986  12.286  21.078  0.00  0.00    -0.191 NA
ATOM     12  H   LIG d   1      27.344  10.992  24.055  0.00  0.00     0.167 HD
ENDROOT
BRANCH   1  13
ATOM     13  C   LIG d   1      33.020  10.851  24.371  0.00  0.00     0.004 A 
ATOM     14  C   LIG d   1      33.578  12.138  24.194  0.00  0.00    -0.041 A 
ATOM     15  C   LIG d   1      32.819  13.429  24.381  0.00  0.00     0.044 C 
ATOM     16  C   LIG d   1      34.936  12.232  23.852  0.00  0.00     0.007 A 
ATOM     17  C   LIG d   1      35.724  11.093  23.653  0.00  0.00    -0.050 A 
ATOM     18  C   LIG d   1      37.169  11.222  23.287  0.00  0.00     0.044 C 
ATOM     19  C   LIG d   1      35.155   9.829  23.798  0.00  0.00     0.004 A 
ATOM     20  C   LIG d   1      33.821   9.712  24.161  0.00  0.00     0.010 A 
ENDBRANCH   1  13
BRANCH   4  21
ATOM     21  S   LIG d   1      30.163   9.037  28.128  0.00  0.00    -0.089 SA
ATOM     22  C   LIG d   1      31.297   7.629  27.961  0.00  0.00     0.093 C 
ENDBRANCH   4  21
TORSDOF 2
