REMARK  2 active torsions:
REMARK  status: ('A' for Active; 'I' for Inactive)
REMARK    1  A    between atoms: N_15  and  C_18 
REMARK    2  A    between atoms: C_21  and  C_22 
REMARK       I    between atoms: C_22  and  N_23 
ROOT
ATOM      1  O   LIG d   1       8.679 -12.342 -24.195  0.00  0.00     0.000 OA
ATOM      2  C   LIG d   1       7.509 -12.697 -24.314  0.00  0.00     0.000 C 
ATOM      3  C   LIG d   1       7.168 -14.141 -24.676  0.00  0.00     0.000 C 
ATOM      4  C   LIG d   1       5.900 -14.295 -25.523  0.00  0.00     0.000 C 
ATOM      5  C   LIG d   1       5.552 -15.786 -25.639  0.00  0.00     0.000 C 
ATOM      6  C   LIG d   1       6.138 -13.761 -26.934  0.00  0.00     0.000 C 
ATOM      7  C   LIG d   1       6.391 -11.772 -24.108  0.00  0.00     0.000 A 
ATOM      8  C   LIG d   1       6.329 -10.404 -23.746  0.00  0.00     0.000 A 
ATOM      9  C   LIG d   1       7.423  -9.452 -23.402  0.00  0.00     0.000 C 
ATOM     10  C   LIG d   1       6.948  -7.999 -23.456  0.00  0.00     0.000 C 
ATOM     11  N   LIG d   1       5.606  -7.812 -22.800  0.00  0.00     1.000 N 
ATOM     12  C   LIG d   1       5.231  -6.366 -22.768  0.00  0.00     0.000 C 
ATOM     13  C   LIG d   1       4.534  -8.634 -23.493  0.00  0.00     0.000 C 
ATOM     14  C   LIG d   1       5.000 -10.014 -23.792  0.00  0.00     0.000 A 
ATOM     15  N   LIG d   1       4.225 -11.107 -24.175  0.00  0.00     0.000 N 
ATOM     16  C   LIG d   1       5.091 -12.180 -24.360  0.00  0.00     0.000 A 
ATOM     17  C   LIG d   1       4.723 -13.554 -24.851  0.00  0.00     0.000 C 
ATOM     18  H   LIG d   1       5.685  -8.149 -21.832  0.00  0.00     0.000 HD
ENDROOT
BRANCH  15  19
ATOM     19  C   LIG d   1       2.819 -11.121 -24.391  0.00  0.00     0.000 A 
ATOM     20  C   LIG d   1       2.238 -10.167 -25.222  0.00  0.00     0.000 A 
ATOM     21  C   LIG d   1       0.857 -10.182 -25.452  0.00  0.00     0.000 A 
ATOM     22  C   LIG d   1       0.045 -11.146 -24.851  0.00  0.00     0.000 A 
ATOM     23  C   LIG d   1       0.630 -12.092 -24.006  0.00  0.00     0.000 A 
ATOM     24  C   LIG d   1       2.014 -12.088 -23.779  0.00  0.00     0.000 A 
BRANCH  22  25
ATOM     25  C   LIG d   1      -1.415 -11.144 -25.182  0.00  0.00     0.000 C 
ATOM     26  N   LIG d   1      -2.244 -11.732 -24.264  0.00  0.00     0.000 N 
ATOM     27  H   LIG d   1      -3.242 -11.754 -24.458  0.00  0.00     0.000 HD
ATOM     28  H   LIG d   1      -1.897 -12.132 -23.411  0.00  0.00     0.000 HD
ATOM     29  O   LIG d   1      -1.831 -10.648 -26.195  0.00  0.00     0.000 OA
ENDBRANCH  22  25
ENDBRANCH  15  19
TORSDOF 2
