@<TRIPOS>MOLECULE
4O04_2Q8_A_4000
 52 55 0 0 0
SMALL
USER_CHARGES

@<TRIPOS>ATOM
      1 O           8.6788  -12.3421  -24.1945 O.2     1  LIG1        0.0000
      2 C           7.5094  -12.6969  -24.3143 C.2     1  LIG1        0.0000
      3 C           7.1681  -14.1412  -24.6759 C.3     1  LIG1        0.0000
      4 C           5.9003  -14.2947  -25.5231 C.3     1  LIG1        0.0000
      5 C           5.5518  -15.7864  -25.6394 C.3     1  LIG1        0.0000
      6 C           6.1378  -13.7610  -26.9342 C.3     1  LIG1        0.0000
      7 C           6.3907  -11.7721  -24.1084 C.ar    1  LIG1        0.0000
      8 C           6.3292  -10.4041  -23.7457 C.ar    1  LIG1        0.0000
      9 C           7.4230   -9.4522  -23.4017 C.3     1  LIG1        0.0000
     10 C           6.9482   -7.9994  -23.4556 C.3     1  LIG1        0.0000
     11 N           5.6060   -7.8125  -22.7996 N.4     1  LIG1        1.0000
     12 C           5.2311   -6.3664  -22.7681 C.3     1  LIG1        0.0000
     13 C           4.5341   -8.6340  -23.4928 C.3     1  LIG1        0.0000
     14 C           4.9998  -10.0143  -23.7918 C.ar    1  LIG1        0.0000
     15 N           4.2254  -11.1069  -24.1749 N.ar    1  LIG1        0.0000
     16 C           5.0911  -12.1800  -24.3603 C.ar    1  LIG1        0.0000
     17 C           4.7235  -13.5544  -24.8513 C.3     1  LIG1        0.0000
     18 C           2.8193  -11.1207  -24.3914 C.ar    1  LIG1        0.0000
     19 C           2.2378  -10.1672  -25.2216 C.ar    1  LIG1        0.0000
     20 C           0.8574  -10.1818  -25.4520 C.ar    1  LIG1        0.0000
     21 C           0.0447  -11.1459  -24.8512 C.ar    1  LIG1        0.0000
     22 C          -1.4146  -11.1438  -25.1817 C.2     1  LIG1        0.0000
     23 N          -2.2440  -11.7315  -24.2643 N.am    1  LIG1        0.0000
     24 O          -1.8314  -10.6476  -26.1954 O.2     1  LIG1        0.0000
     25 C           0.6297  -12.0924  -24.0058 C.ar    1  LIG1        0.0000
     26 C           2.0140  -12.0883  -23.7792 C.ar    1  LIG1        0.0000
     27 H           7.0438  -14.7040  -23.7438 H       1  LIG1        0.0000
     28 H           8.0196  -14.5546  -25.2280 H       1  LIG1        0.0000
     29 H           6.3670  -16.3406  -26.1212 H       1  LIG1        0.0000
     30 H           4.6401  -15.9225  -26.2342 H       1  LIG1        0.0000
     31 H           5.3827  -16.2163  -24.6449 H       1  LIG1        0.0000
     32 H           6.9619  -14.2977  -27.4192 H       1  LIG1        0.0000
     33 H           6.3892  -12.6989  -26.8967 H       1  LIG1        0.0000
     34 H           5.2369  -13.8841  -27.5472 H       1  LIG1        0.0000
     35 H           8.2388   -9.5547  -24.1190 H       1  LIG1        0.0000
     36 H           7.8062   -9.6658  -22.3998 H       1  LIG1        0.0000
     37 H           6.8306   -7.6780  -24.4921 H       1  LIG1        0.0000
     38 H           7.6489   -7.3460  -22.9311 H       1  LIG1        0.0000
     39 H           5.6846   -8.1488  -21.8322 H       1  LIG1        0.0000
     40 H           5.1517   -6.0111  -23.7974 H       1  LIG1        0.0000
     41 H           6.0090   -5.8208  -22.2328 H       1  LIG1        0.0000
     42 H           4.2755   -6.2756  -22.2532 H       1  LIG1        0.0000
     43 H           4.3171   -8.0955  -24.4163 H       1  LIG1        0.0000
     44 H           3.6828   -8.6223  -22.8149 H       1  LIG1        0.0000
     45 H           4.4001  -14.1504  -23.9919 H       1  LIG1        0.0000
     46 H           3.9104  -13.4828  -25.5740 H       1  LIG1        0.0000
     47 H           2.8452   -9.4277  -25.7348 H       1  LIG1        0.0000
     48 H           0.4104   -9.4320  -26.1030 H       1  LIG1        0.0000
     49 H          -3.2421  -11.7538  -24.4577 H       1  LIG1        0.0000
     50 H          -1.8966  -12.1315  -23.4112 H       1  LIG1        0.0000
     51 H           0.0195  -12.8575  -23.5322 H       1  LIG1        0.0000
     52 H           2.4422  -12.8261  -23.1059 H       1  LIG1        0.0000
@<TRIPOS>BOND
     1     1     2    2
     2     2     3    1
     3     2     7    1
     4     3     4    1
     5     3    27    1
     6     3    28    1
     7     4     5    1
     8     4     6    1
     9     4    17    1
    10     5    29    1
    11     5    30    1
    12     5    31    1
    13     6    32    1
    14     6    33    1
    15     6    34    1
    16     7     8   ar
    17     7    16   ar
    18     8     9    1
    19     8    14   ar
    20     9    10    1
    21     9    35    1
    22     9    36    1
    23    10    11    1
    24    10    37    1
    25    10    38    1
    26    11    12    1
    27    11    13    1
    28    11    39    1
    29    12    40    1
    30    12    41    1
    31    12    42    1
    32    13    14    1
    33    13    43    1
    34    13    44    1
    35    14    15   ar
    36    15    16   ar
    37    15    18    1
    38    16    17    1
    39    17    45    1
    40    17    46    1
    41    18    19   ar
    42    18    26   ar
    43    19    20   ar
    44    19    47    1
    45    20    21   ar
    46    20    48    1
    47    21    22    1
    48    21    25   ar
    49    22    23   am
    50    22    24    2
    51    23    49    1
    52    23    50    1
    53    25    26   ar
    54    25    51    1
    55    26    52    1
