REMARK  3 active torsions:
REMARK  status: ('A' for Active; 'I' for Inactive)
REMARK    1  A    between atoms: N_1  and  C_30 
REMARK    2  A    between atoms: N_1  and  C_31 
REMARK    3  A    between atoms: N_19  and  C_20 
ROOT
ATOM      1  O   LIG d   1       9.038 -11.723 -23.738  0.00  0.00     0.000 OA
ATOM      2  C   LIG d   1       7.917 -12.159 -23.982  0.00  0.00     0.000 C 
ATOM      3  C   LIG d   1       7.676 -13.610 -24.390  0.00  0.00     0.000 C 
ATOM      4  C   LIG d   1       6.411 -13.818 -25.267  0.00  0.00     0.000 C 
ATOM      5  C   LIG d   1       6.161 -15.329 -25.432  0.00  0.00     0.000 C 
ATOM      6  C   LIG d   1       6.637 -13.223 -26.674  0.00  0.00     0.000 C 
ATOM      7  C   LIG d   1       5.156 -13.181 -24.601  0.00  0.00     0.000 C 
ATOM      8  C   LIG d   1       5.463 -11.803 -24.087  0.00  0.00     0.000 A 
ATOM      9  C   LIG d   1       6.734 -11.325 -23.821  0.00  0.00     0.000 A 
ATOM     10  C   LIG d   1       6.597  -9.964 -23.458  0.00  0.00     0.000 A 
ATOM     11  C   LIG d   1       7.637  -8.972 -23.059  0.00  0.00     0.000 C 
ATOM     12  C   LIG d   1       7.082  -7.536 -23.107  0.00  0.00     0.000 C 
ATOM     13  N   LIG d   1       5.685  -7.452 -22.490  0.00  0.00     1.000 N 
ATOM     14  C   LIG d   1       5.210  -6.034 -22.377  0.00  0.00     0.000 C 
ATOM     15  C   LIG d   1       4.669  -8.321 -23.219  0.00  0.00     0.000 C 
ATOM     16  C   LIG d   1       5.254  -9.648 -23.531  0.00  0.00     0.000 A 
ATOM     17  N   LIG d   1       4.550 -10.779 -23.914  0.00  0.00     0.000 N 
ATOM     18  H   LIG d   1       5.757  -7.840 -21.541  0.00  0.00     0.000 HD
ENDROOT
BRANCH  17  19
ATOM     19  C   LIG d   1       3.166 -10.849 -24.177  0.00  0.00     0.000 A 
ATOM     20  C   LIG d   1       2.596  -9.925 -25.059  0.00  0.00     0.000 A 
ATOM     21  C   LIG d   1       1.250 -10.002 -25.439  0.00  0.00     0.000 A 
ATOM     22  C   LIG d   1       0.464 -11.029 -24.846  0.00  0.00     0.000 A 
ATOM     23  C   LIG d   1       1.031 -11.941 -23.922  0.00  0.00     0.000 A 
ATOM     24  C   LIG d   1      -0.974 -11.214 -25.239  0.00  0.00     0.000 C 
ATOM     25  C   LIG d   1       2.393 -11.861 -23.609  0.00  0.00     0.000 A 
ATOM     26  C   LIG d   1       0.202 -13.055 -23.328  0.00  0.00     0.000 C 
ATOM     27  C   LIG d   1      -1.266 -12.664 -23.258  0.00  0.00     0.000 C 
ATOM     28  N   LIG d   1      -1.717 -12.116 -24.513  0.00  0.00     0.000 N 
ATOM     29  H   LIG d   1      -2.699 -12.152 -24.760  0.00  0.00     0.000 HD
ATOM     30  O   LIG d   1      -1.479 -10.614 -26.182  0.00  0.00     0.000 OA
BRANCH  21  31
ATOM     31  N   LIG d   1       0.695  -9.049 -26.291  0.00  0.00     0.000 N 
ATOM     32  H   LIG d   1      -0.246  -9.305 -26.625  0.00  0.00     0.000 HD
BRANCH  31  33
ATOM     33  C   LIG d   1       1.448  -8.143 -27.152  0.00  0.00     0.000 C 
ATOM     34  C   LIG d   1       0.765  -8.010 -28.511  0.00  0.00     0.000 C 
ATOM     35  C   LIG d   1       1.539  -6.784 -26.462  0.00  0.00     0.000 C 
ENDBRANCH  31  33
ENDBRANCH  21  31
ENDBRANCH  17  19
TORSDOF 3
