@<TRIPOS>MOLECULE
4O05_2Q9_A_4000
 67 71 0 0 0
SMALL
USER_CHARGES

@<TRIPOS>ATOM
      1 N           0.6947   -9.0488  -26.2911 N.pl3   1  LIG1        0.0000
      2 C           0.7654   -8.0102  -28.5106 C.3     1  LIG1        0.0000
      3 O           9.0383  -11.7232  -23.7381 O.2     1  LIG1        0.0000
      4 C           7.9170  -12.1593  -23.9815 C.2     1  LIG1        0.0000
      5 C           7.6765  -13.6101  -24.3901 C.3     1  LIG1        0.0000
      6 C           6.4108  -13.8175  -25.2670 C.3     1  LIG1        0.0000
      7 C           6.1612  -15.3289  -25.4318 C.3     1  LIG1        0.0000
      8 C           6.6373  -13.2228  -26.6740 C.3     1  LIG1        0.0000
      9 C           5.1559  -13.1807  -24.6011 C.3     1  LIG1        0.0000
     10 C           5.4634  -11.8029  -24.0866 C.ar    1  LIG1        0.0000
     11 C           6.7345  -11.3245  -23.8206 C.ar    1  LIG1        0.0000
     12 C           6.5971   -9.9640  -23.4581 C.ar    1  LIG1        0.0000
     13 C           7.6373   -8.9718  -23.0586 C.3     1  LIG1        0.0000
     14 C           7.0820   -7.5364  -23.1073 C.3     1  LIG1        0.0000
     15 N           5.6853   -7.4520  -22.4896 N.4     1  LIG1        1.0000
     16 C           5.2098   -6.0340  -22.3769 C.3     1  LIG1        0.0000
     17 C           4.6688   -8.3212  -23.2186 C.3     1  LIG1        0.0000
     18 C           5.2536   -9.6475  -23.5310 C.ar    1  LIG1        0.0000
     19 N           4.5501  -10.7791  -23.9142 N.ar    1  LIG1        0.0000
     20 C           3.1660  -10.8490  -24.1765 C.ar    1  LIG1        0.0000
     21 C           2.5962   -9.9253  -25.0592 C.ar    1  LIG1        0.0000
     22 C           2.3926  -11.8609  -23.6094 C.ar    1  LIG1        0.0000
     23 C           1.0308  -11.9408  -23.9217 C.ar    1  LIG1        0.0000
     24 C           0.2021  -13.0547  -23.3285 C.3     1  LIG1        0.0000
     25 C          -1.2662  -12.6638  -23.2584 C.3     1  LIG1        0.0000
     26 N          -1.7166  -12.1157  -24.5126 N.am    1  LIG1        0.0000
     27 C          -0.9744  -11.2137  -25.2388 C.2     1  LIG1        0.0000
     28 O          -1.4794  -10.6137  -26.1816 O.2     1  LIG1        0.0000
     29 C           0.4640  -11.0290  -24.8465 C.ar    1  LIG1        0.0000
     30 C           1.2499  -10.0019  -25.4390 C.ar    1  LIG1        0.0000
     31 C           1.4484   -8.1426  -27.1521 C.3     1  LIG1        0.0000
     32 C           1.5388   -6.7836  -26.4617 C.3     1  LIG1        0.0000
     33 H          -0.2465   -9.3048  -26.6246 H       1  LIG1        0.0000
     34 H           0.7100   -8.9826  -29.0127 H       1  LIG1        0.0000
     35 H           1.3302   -7.3312  -29.1591 H       1  LIG1        0.0000
     36 H          -0.2541   -7.6223  -28.4163 H       1  LIG1        0.0000
     37 H           7.5912  -14.1895  -23.4620 H       1  LIG1        0.0000
     38 H           8.5663  -13.9645  -24.9237 H       1  LIG1        0.0000
     39 H           7.0140  -15.8212  -25.9130 H       1  LIG1        0.0000
     40 H           5.2746  -15.5188  -26.0478 H       1  LIG1        0.0000
     41 H           6.0017  -15.8132  -24.4619 H       1  LIG1        0.0000
     42 H           7.4985  -13.6926  -27.1633 H       1  LIG1        0.0000
     43 H           6.8243  -12.1449  -26.6452 H       1  LIG1        0.0000
     44 H           5.7645  -13.3885  -27.3163 H       1  LIG1        0.0000
     45 H           4.8360  -13.7951  -23.7500 H       1  LIG1        0.0000
     46 H           4.3305  -13.1596  -25.3225 H       1  LIG1        0.0000
     47 H           8.5102   -9.0363  -23.7182 H       1  LIG1        0.0000
     48 H           7.9731   -9.2007  -22.0398 H       1  LIG1        0.0000
     49 H           6.9932   -7.1721  -24.1371 H       1  LIG1        0.0000
     50 H           7.7305   -6.8607  -22.5390 H       1  LIG1        0.0000
     51 H           5.7574   -7.8400  -21.5408 H       1  LIG1        0.0000
     52 H           5.1304   -5.6122  -23.3831 H       1  LIG1        0.0000
     53 H           5.9356   -5.4757  -21.7803 H       1  LIG1        0.0000
     54 H           4.2373   -6.0368  -21.8783 H       1  LIG1        0.0000
     55 H           4.4039   -7.7863  -24.1354 H       1  LIG1        0.0000
     56 H           3.7982   -8.3976  -22.5591 H       1  LIG1        0.0000
     57 H           3.2346   -9.1806  -25.5214 H       1  LIG1        0.0000
     58 H           2.8289  -12.5752  -22.9136 H       1  LIG1        0.0000
     59 H           0.5541  -13.3029  -22.3202 H       1  LIG1        0.0000
     60 H           0.3265  -13.9445  -23.9575 H       1  LIG1        0.0000
     61 H          -1.4318  -11.9017  -22.4879 H       1  LIG1        0.0000
     62 H          -1.8882  -13.5327  -23.0204 H       1  LIG1        0.0000
     63 H          -2.6993  -12.1516  -24.7597 H       1  LIG1        0.0000
     64 H           2.4573   -8.5196  -27.3497 H       1  LIG1        0.0000
     65 H           0.5421   -6.3644  -26.2823 H       1  LIG1        0.0000
     66 H           2.1054   -6.0710  -27.0685 H       1  LIG1        0.0000
     67 H           2.0366   -6.8686  -25.4890 H       1  LIG1        0.0000
@<TRIPOS>BOND
     1     1    30    1
     2     1    31    1
     3     1    33    1
     4     2    31    1
     5     2    34    1
     6     2    35    1
     7     2    36    1
     8     3     4    2
     9     4     5    1
    10     4    11    1
    11     5     6    1
    12     5    37    1
    13     5    38    1
    14     6     7    1
    15     6     8    1
    16     6     9    1
    17     7    39    1
    18     7    40    1
    19     7    41    1
    20     8    42    1
    21     8    43    1
    22     8    44    1
    23     9    10    1
    24     9    45    1
    25     9    46    1
    26    10    11   ar
    27    10    19   ar
    28    11    12   ar
    29    12    13    1
    30    12    18   ar
    31    13    14    1
    32    13    47    1
    33    13    48    1
    34    14    15    1
    35    14    49    1
    36    14    50    1
    37    15    16    1
    38    15    17    1
    39    15    51    1
    40    16    52    1
    41    16    53    1
    42    16    54    1
    43    17    18    1
    44    17    55    1
    45    17    56    1
    46    18    19   ar
    47    19    20    1
    48    20    21   ar
    49    20    22   ar
    50    21    30   ar
    51    21    57    1
    52    22    23   ar
    53    22    58    1
    54    23    24    1
    55    23    29   ar
    56    24    25    1
    57    24    59    1
    58    24    60    1
    59    25    26    1
    60    25    61    1
    61    25    62    1
    62    26    27   am
    63    26    63    1
    64    27    28    2
    65    27    29    1
    66    29    30   ar
    67    31    32    1
    68    31    64    1
    69    32    65    1
    70    32    66    1
    71    32    67    1
