4O05_2Q9_A_4000
 OpenBabel03301717333D

 67 71  0  0  1  0  0  0  0  0999 V2000
    0.6947   -9.0488  -26.2911 N   0  0  0  0  0  0  0  0  0  0  0  0
    0.7654   -8.0102  -28.5106 C   0  0  0  0  0  0  0  0  0  0  0  0
    9.0383  -11.7232  -23.7381 O   0  0  0  0  0  0  0  0  0  0  0  0
    7.9170  -12.1593  -23.9815 C   0  0  0  0  0  0  0  0  0  0  0  0
    7.6765  -13.6101  -24.3901 C   0  0  0  0  0  0  0  0  0  0  0  0
    6.4108  -13.8175  -25.2670 C   0  0  0  0  0  0  0  0  0  0  0  0
    6.1612  -15.3289  -25.4318 C   0  0  0  0  0  0  0  0  0  0  0  0
    6.6373  -13.2228  -26.6740 C   0  0  0  0  0  0  0  0  0  0  0  0
    5.1559  -13.1807  -24.6011 C   0  0  0  0  0  0  0  0  0  0  0  0
    5.4634  -11.8029  -24.0866 C   0  0  1  0  0  0  0  0  0  0  0  0
    6.7345  -11.3245  -23.8206 C   0  0  2  0  0  0  0  0  0  0  0  0
    6.5971   -9.9640  -23.4581 C   0  0  1  0  0  0  0  0  0  0  0  0
    7.6373   -8.9718  -23.0586 C   0  0  0  0  0  0  0  0  0  0  0  0
    7.0820   -7.5364  -23.1073 C   0  0  0  0  0  0  0  0  0  0  0  0
    5.6853   -7.4520  -22.4896 N   0  3  1  0  0  0  0  0  0  0  0  0
    5.2098   -6.0340  -22.3769 C   0  0  0  0  0  0  0  0  0  0  0  0
    4.6688   -8.3212  -23.2186 C   0  0  0  0  0  0  0  0  0  0  0  0
    5.2536   -9.6475  -23.5310 C   0  0  2  0  0  0  0  0  0  0  0  0
    4.5501  -10.7791  -23.9142 N   0  3  1  0  0  0  0  0  0  0  0  0
    3.1660  -10.8490  -24.1765 C   0  0  1  0  0  0  0  0  0  0  0  0
    2.5962   -9.9253  -25.0592 C   0  0  0  0  0  0  0  0  0  0  0  0
    2.3926  -11.8609  -23.6094 C   0  0  0  0  0  0  0  0  0  0  0  0
    1.0308  -11.9408  -23.9217 C   0  0  2  0  0  0  0  0  0  0  0  0
    0.2021  -13.0547  -23.3285 C   0  0  0  0  0  0  0  0  0  0  0  0
   -1.2662  -12.6638  -23.2584 C   0  0  0  0  0  0  0  0  0  0  0  0
   -1.7166  -12.1157  -24.5126 N   0  0  0  0  0  0  0  0  0  0  0  0
   -0.9744  -11.2137  -25.2388 C   0  0  0  0  0  0  0  0  0  0  0  0
   -1.4794  -10.6137  -26.1816 O   0  0  0  0  0  0  0  0  0  0  0  0
    0.4640  -11.0290  -24.8465 C   0  0  2  0  0  0  0  0  0  0  0  0
    1.2499  -10.0019  -25.4390 C   0  0  1  0  0  0  0  0  0  0  0  0
    1.4484   -8.1426  -27.1521 C   0  0  0  0  0  0  0  0  0  0  0  0
    1.5388   -6.7836  -26.4617 C   0  0  0  0  0  0  0  0  0  0  0  0
   -0.2465   -9.3048  -26.6246 H   0  0  0  0  0  0  0  0  0  0  0  0
    0.7100   -8.9826  -29.0127 H   0  0  0  0  0  0  0  0  0  0  0  0
    1.3302   -7.3312  -29.1591 H   0  0  0  0  0  0  0  0  0  0  0  0
   -0.2541   -7.6223  -28.4163 H   0  0  0  0  0  0  0  0  0  0  0  0
    7.5912  -14.1895  -23.4620 H   0  0  0  0  0  0  0  0  0  0  0  0
    8.5663  -13.9645  -24.9237 H   0  0  0  0  0  0  0  0  0  0  0  0
    7.0140  -15.8212  -25.9130 H   0  0  0  0  0  0  0  0  0  0  0  0
    5.2746  -15.5188  -26.0478 H   0  0  0  0  0  0  0  0  0  0  0  0
    6.0017  -15.8132  -24.4619 H   0  0  0  0  0  0  0  0  0  0  0  0
    7.4985  -13.6926  -27.1633 H   0  0  0  0  0  0  0  0  0  0  0  0
    6.8243  -12.1449  -26.6452 H   0  0  0  0  0  0  0  0  0  0  0  0
    5.7645  -13.3885  -27.3163 H   0  0  0  0  0  0  0  0  0  0  0  0
    4.8360  -13.7951  -23.7500 H   0  0  0  0  0  0  0  0  0  0  0  0
    4.3305  -13.1596  -25.3225 H   0  0  0  0  0  0  0  0  0  0  0  0
    8.5102   -9.0363  -23.7182 H   0  0  0  0  0  0  0  0  0  0  0  0
    7.9731   -9.2007  -22.0398 H   0  0  0  0  0  0  0  0  0  0  0  0
    6.9932   -7.1721  -24.1371 H   0  0  0  0  0  0  0  0  0  0  0  0
    7.7305   -6.8607  -22.5390 H   0  0  0  0  0  0  0  0  0  0  0  0
    5.7574   -7.8400  -21.5408 H   0  0  0  0  0  0  0  0  0  0  0  0
    5.1304   -5.6122  -23.3831 H   0  0  0  0  0  0  0  0  0  0  0  0
    5.9356   -5.4757  -21.7803 H   0  0  0  0  0  0  0  0  0  0  0  0
    4.2373   -6.0368  -21.8783 H   0  0  0  0  0  0  0  0  0  0  0  0
    4.4039   -7.7863  -24.1354 H   0  0  0  0  0  0  0  0  0  0  0  0
    3.7982   -8.3976  -22.5591 H   0  0  0  0  0  0  0  0  0  0  0  0
    3.2346   -9.1806  -25.5214 H   0  0  0  0  0  0  0  0  0  0  0  0
    2.8289  -12.5752  -22.9136 H   0  0  0  0  0  0  0  0  0  0  0  0
    0.5541  -13.3029  -22.3202 H   0  0  0  0  0  0  0  0  0  0  0  0
    0.3265  -13.9445  -23.9575 H   0  0  0  0  0  0  0  0  0  0  0  0
   -1.4318  -11.9017  -22.4879 H   0  0  0  0  0  0  0  0  0  0  0  0
   -1.8882  -13.5327  -23.0204 H   0  0  0  0  0  0  0  0  0  0  0  0
   -2.6993  -12.1516  -24.7597 H   0  0  0  0  0  0  0  0  0  0  0  0
    2.4573   -8.5196  -27.3497 H   0  0  0  0  0  0  0  0  0  0  0  0
    0.5421   -6.3644  -26.2823 H   0  0  0  0  0  0  0  0  0  0  0  0
    2.1054   -6.0710  -27.0685 H   0  0  0  0  0  0  0  0  0  0  0  0
    2.0366   -6.8686  -25.4890 H   0  0  0  0  0  0  0  0  0  0  0  0
  1 31  1  0  0  0  0
  1 33  1  0  0  0  0
  2 31  1  0  0  0  0
  2 34  1  0  0  0  0
  2 35  1  0  0  0  0
  2 36  1  0  0  0  0
  3  4  2  0  0  0  0
  4  5  1  0  0  0  0
  5  6  1  0  0  0  0
  5 37  1  0  0  0  0
  5 38  1  0  0  0  0
  6  7  1  0  0  0  0
  6  8  1  0  0  0  0
  6  9  1  0  0  0  0
  7 39  1  0  0  0  0
  7 40  1  0  0  0  0
  7 41  1  0  0  0  0
  8 42  1  0  0  0  0
  8 43  1  0  0  0  0
  8 44  1  0  0  0  0
  9 45  1  0  0  0  0
  9 46  1  0  0  0  0
 10  9  1  6  0  0  0
 10 11  1  0  0  0  0
 10 19  1  0  0  0  0
 11  4  1  6  0  0  0
 11 12  1  0  0  0  0
 12 13  1  6  0  0  0
 12 18  1  0  0  0  0
 13 14  1  0  0  0  0
 13 47  1  0  0  0  0
 13 48  1  0  0  0  0
 14 15  1  0  0  0  0
 14 49  1  0  0  0  0
 14 50  1  0  0  0  0
 15 16  1  0  0  0  0
 15 17  1  0  0  0  0
 15 51  1  1  0  0  0
 16 52  1  0  0  0  0
 16 53  1  0  0  0  0
 16 54  1  0  0  0  0
 17 55  1  0  0  0  0
 17 56  1  0  0  0  0
 18 17  1  1  0  0  0
 18 19  1  0  0  0  0
 19 20  1  6  0  0  0
 20 21  1  6  0  0  0
 20 22  1  0  0  0  0
 21 30  1  0  0  0  0
 21 57  1  0  0  0  0
 22 58  1  0  0  0  0
 23 22  1  6  0  0  0
 23 24  1  0  0  0  0
 23 29  1  0  0  0  0
 24 25  1  0  0  0  0
 24 59  1  0  0  0  0
 24 60  1  0  0  0  0
 25 26  1  0  0  0  0
 25 61  1  0  0  0  0
 25 62  1  0  0  0  0
 26 27  1  0  0  0  0
 26 63  1  0  0  0  0
 27 28  2  0  0  0  0
 29 27  1  6  0  0  0
 29 30  1  0  0  0  0
 30  1  1  1  0  0  0
 31 32  1  0  0  0  0
 31 64  1  0  0  0  0
 32 65  1  0  0  0  0
 32 66  1  0  0  0  0
 32 67  1  0  0  0  0
M  CHG  2  15   1  19   1
M  END
$$$$
