4O0B_2QA_A_4000
 OpenBabel03301717343D

 59 63  0  0  1  0  0  0  0  0999 V2000
    6.7026   -9.8915  -23.3762 C   0  0  1  0  0  0  0  0  0  0  0  0
   -1.2746  -10.9065  -26.3433 O   0  0  0  0  0  0  0  0  0  0  0  0
    5.3334   -9.6526  -23.3359 C   0  0  0  0  0  0  0  0  0  0  0  0
    5.5995  -11.7568  -24.0325 C   0  0  1  0  0  0  0  0  0  0  0  0
    6.8666  -11.2427  -23.8035 C   0  0  1  0  0  0  0  0  0  0  0  0
    8.0472  -12.0719  -24.0625 C   0  0  0  0  0  0  0  0  0  0  0  0
    7.8208  -13.5149  -24.4982 C   0  0  0  0  0  0  0  0  0  0  0  0
   -0.8398  -11.3193  -25.2987 C   0  0  0  0  0  0  0  0  0  0  0  0
   -1.5915  -12.1758  -24.4989 N   0  0  0  0  0  0  0  0  0  0  0  0
   -1.1025  -12.8249  -23.3071 C   0  0  0  0  0  0  0  0  0  0  0  0
    0.3488  -13.2165  -23.5108 C   0  0  0  0  0  0  0  0  0  0  0  0
    1.1531  -12.0289  -23.9891 C   0  0  1  0  0  0  0  0  0  0  0  0
    2.5021  -11.9401  -23.6372 C   0  0  0  0  0  0  0  0  0  0  0  0
    0.5709  -11.0309  -24.7976 C   0  0  1  0  0  0  0  0  0  0  0  0
    1.3142   -9.8632  -25.1393 C   0  0  1  0  0  0  0  0  0  0  0  0
    0.6763   -8.6829  -25.8312 C   0  0  0  0  0  0  0  0  0  0  0  0
    1.0975   -8.4117  -27.2796 C   0  0  0  0  0  0  0  0  0  0  0  0
    0.6457   -6.9788  -27.5876 C   0  0  0  0  0  0  0  0  0  0  0  0
    0.4093   -6.2996  -26.2472 C   0  0  0  0  0  0  0  0  0  0  0  0
    0.8837   -7.2961  -25.1925 C   0  0  0  0  0  0  0  0  0  0  0  0
    2.6645   -9.7929  -24.7457 C   0  0  0  0  0  0  0  0  0  0  0  0
    3.2592  -10.8335  -24.0334 C   0  0  2  0  0  0  0  0  0  0  0  0
    4.6566  -10.7776  -23.7589 N   0  3  2  0  0  0  0  0  0  0  0  0
    5.3262  -13.1196  -24.5882 C   0  0  0  0  0  0  0  0  0  0  0  0
    6.5419  -13.7342  -25.3167 C   0  0  0  0  0  0  0  0  0  0  0  0
    6.3124  -15.2451  -25.4858 C   0  0  0  0  0  0  0  0  0  0  0  0
    6.7001  -13.1312  -26.7137 C   0  0  0  0  0  0  0  0  0  0  0  0
    9.1987  -11.6524  -23.8893 O   0  0  0  0  0  0  0  0  0  0  0  0
    7.7259   -8.8683  -23.0365 C   0  0  0  0  0  0  0  0  0  0  0  0
    4.8317   -8.7447  -23.0336 H   0  0  0  0  0  0  0  0  0  0  0  0
    7.7782  -14.1425  -23.5972 H   0  0  0  0  0  0  0  0  0  0  0  0
    8.6877  -13.8255  -25.0957 H   0  0  0  0  0  0  0  0  0  0  0  0
   -2.5260  -12.3458  -24.8362 H   0  0  0  0  0  0  0  0  0  0  0  0
   -1.7140  -13.7142  -23.1130 H   0  0  0  0  0  0  0  0  0  0  0  0
   -1.2067  -12.1442  -22.4552 H   0  0  0  0  0  0  0  0  0  0  0  0
    0.4018  -14.0223  -24.2518 H   0  0  0  0  0  0  0  0  0  0  0  0
    0.7539  -13.5780  -22.5609 H   0  0  0  0  0  0  0  0  0  0  0  0
    2.9413  -12.7185  -23.0227 H   0  0  0  0  0  0  0  0  0  0  0  0
   -0.3852   -8.9095  -25.7845 H   0  0  0  0  0  0  0  0  0  0  0  0
    0.6318   -9.1120  -27.9783 H   0  0  0  0  0  0  0  0  0  0  0  0
    2.1847   -8.4798  -27.4029 H   0  0  0  0  0  0  0  0  0  0  0  0
   -0.2788   -6.9797  -28.1740 H   0  0  0  0  0  0  0  0  0  0  0  0
    1.4088   -6.4345  -28.1584 H   0  0  0  0  0  0  0  0  0  0  0  0
   -0.6576   -6.0829  -26.1155 H   0  0  0  0  0  0  0  0  0  0  0  0
    0.9590   -5.3505  -26.1861 H   0  0  0  0  0  0  0  0  0  0  0  0
    1.9379   -7.0948  -24.9699 H   0  0  0  0  0  0  0  0  0  0  0  0
    0.3097   -7.1681  -24.2693 H   0  0  0  0  0  0  0  0  0  0  0  0
    3.2594   -8.9333  -25.0458 H   0  0  0  0  0  0  0  0  0  0  0  0
    4.4969  -13.0766  -25.2974 H   0  0  0  0  0  0  0  0  0  0  0  0
    5.0660  -13.7797  -23.7558 H   0  0  0  0  0  0  0  0  0  0  0  0
    6.1991  -15.7271  -24.5076 H   0  0  0  0  0  0  0  0  0  0  0  0
    7.1568  -15.7183  -26.0035 H   0  0  0  0  0  0  0  0  0  0  0  0
    5.4021  -15.4342  -26.0680 H   0  0  0  0  0  0  0  0  0  0  0  0
    6.8719  -12.0556  -26.6446 H   0  0  0  0  0  0  0  0  0  0  0  0
    5.7953  -13.2999  -27.3082 H   0  0  0  0  0  0  0  0  0  0  0  0
    7.5466  -13.5843  -27.2436 H   0  0  0  0  0  0  0  0  0  0  0  0
    7.2522   -7.9240  -22.7262 H   0  0  0  0  0  0  0  0  0  0  0  0
    8.3524   -8.6559  -23.9062 H   0  0  0  0  0  0  0  0  0  0  0  0
    8.3543   -9.2145  -22.2128 H   0  0  0  0  0  0  0  0  0  0  0  0
  1  3  1  0  0  0  0
  1  5  1  0  0  0  0
  1 29  1  6  0  0  0
  2  8  2  0  0  0  0
  3 30  1  0  0  0  0
  4  5  1  0  0  0  0
  4 23  1  0  0  0  0
  4 24  1  6  0  0  0
  5  6  1  6  0  0  0
  6  7  1  0  0  0  0
  6 28  2  0  0  0  0
  7 25  1  0  0  0  0
  7 31  1  0  0  0  0
  7 32  1  0  0  0  0
  8  9  1  0  0  0  0
  9 10  1  0  0  0  0
  9 33  1  0  0  0  0
 10 11  1  0  0  0  0
 10 34  1  0  0  0  0
 10 35  1  0  0  0  0
 11 36  1  0  0  0  0
 11 37  1  0  0  0  0
 12 11  1  6  0  0  0
 12 13  1  0  0  0  0
 12 14  1  0  0  0  0
 13 38  1  0  0  0  0
 14  8  1  6  0  0  0
 14 15  1  0  0  0  0
 15 16  1  1  0  0  0
 15 21  1  0  0  0  0
 16 17  1  0  0  0  0
 16 20  1  0  0  0  0
 16 39  1  0  0  0  0
 17 18  1  0  0  0  0
 17 40  1  0  0  0  0
 17 41  1  0  0  0  0
 18 19  1  0  0  0  0
 18 42  1  0  0  0  0
 18 43  1  0  0  0  0
 19 20  1  0  0  0  0
 19 44  1  0  0  0  0
 19 45  1  0  0  0  0
 20 46  1  0  0  0  0
 20 47  1  0  0  0  0
 21 22  1  0  0  0  0
 21 48  1  0  0  0  0
 22 13  1  6  0  0  0
 22 23  1  0  0  0  0
 23  3  1  6  0  0  0
 24 25  1  0  0  0  0
 24 49  1  0  0  0  0
 24 50  1  0  0  0  0
 25 26  1  0  0  0  0
 25 27  1  0  0  0  0
 26 51  1  0  0  0  0
 26 52  1  0  0  0  0
 26 53  1  0  0  0  0
 27 54  1  0  0  0  0
 27 55  1  0  0  0  0
 27 56  1  0  0  0  0
 29 57  1  0  0  0  0
 29 58  1  0  0  0  0
 29 59  1  0  0  0  0
M  CHG  1  23   1
M  END
$$$$
