@<TRIPOS>MOLECULE
4O0B_2QA_A_4000
 59 63 0 0 0
SMALL
USER_CHARGES

@<TRIPOS>ATOM
      1 C           6.7026   -9.8915  -23.3762 C.ar    1  LIG1       -0.0218
      2 O          -1.2746  -10.9065  -26.3433 O.2     1  LIG1       -0.2702
      3 C           5.3334   -9.6526  -23.3359 C.ar    1  LIG1        0.0137
      4 C           5.5995  -11.7568  -24.0325 C.ar    1  LIG1        0.0350
      5 C           6.8666  -11.2427  -23.8035 C.ar    1  LIG1        0.0414
      6 C           8.0472  -12.0719  -24.0625 C.2     1  LIG1        0.1656
      7 C           7.8208  -13.5149  -24.4982 C.3     1  LIG1        0.0160
      8 C          -0.8398  -11.3193  -25.2987 C.2     1  LIG1        0.2446
      9 N          -1.5915  -12.1758  -24.4989 N.am    1  LIG1       -0.3110
     10 C          -1.1025  -12.8249  -23.3071 C.3     1  LIG1        0.0159
     11 C           0.3488  -13.2165  -23.5108 C.3     1  LIG1       -0.0113
     12 C           1.1531  -12.0289  -23.9891 C.ar    1  LIG1       -0.0316
     13 C           2.5021  -11.9401  -23.6372 C.ar    1  LIG1       -0.0339
     14 C           0.5709  -11.0309  -24.7976 C.ar    1  LIG1        0.0435
     15 C           1.3142   -9.8632  -25.1393 C.ar    1  LIG1       -0.0300
     16 C           0.6763   -8.6829  -25.8312 C.3     1  LIG1       -0.0151
     17 C           1.0975   -8.4117  -27.2796 C.3     1  LIG1       -0.0462
     18 C           0.6457   -6.9788  -27.5876 C.3     1  LIG1       -0.0525
     19 C           0.4093   -6.2996  -26.2472 C.3     1  LIG1       -0.0525
     20 C           0.8837   -7.2961  -25.1925 C.3     1  LIG1       -0.0462
     21 C           2.6645   -9.7929  -24.7457 C.ar    1  LIG1       -0.0337
     22 C           3.2592  -10.8335  -24.0334 C.ar    1  LIG1        0.0469
     23 N           4.6566  -10.7776  -23.7589 N.ar    1  LIG1       -0.3191
     24 C           5.3262  -13.1196  -24.5882 C.3     1  LIG1       -0.0057
     25 C           6.5419  -13.7342  -25.3167 C.3     1  LIG1       -0.0225
     26 C           6.3124  -15.2451  -25.4858 C.3     1  LIG1       -0.0591
     27 C           6.7001  -13.1312  -26.7137 C.3     1  LIG1       -0.0591
     28 O           9.1987  -11.6524  -23.8893 O.2     1  LIG1       -0.2920
     29 C           7.7259   -8.8683  -23.0365 C.3     1  LIG1       -0.0376
     30 H           4.8317   -8.7447  -23.0336 H       1  LIG1        0.0816
     31 H           7.7782  -14.1425  -23.5972 H       1  LIG1        0.0350
     32 H           8.6877  -13.8255  -25.0957 H       1  LIG1        0.0350
     33 H          -2.5260  -12.3458  -24.8362 H       1  LIG1        0.1490
     34 H          -1.7140  -13.7142  -23.1130 H       1  LIG1        0.0465
     35 H          -1.2067  -12.1442  -22.4552 H       1  LIG1        0.0465
     36 H           0.4018  -14.0223  -24.2518 H       1  LIG1        0.0329
     37 H           0.7539  -13.5780  -22.5609 H       1  LIG1        0.0329
     38 H           2.9413  -12.7185  -23.0227 H       1  LIG1        0.0641
     39 H          -0.3852   -8.9095  -25.7845 H       1  LIG1        0.0349
     40 H           0.6318   -9.1120  -27.9783 H       1  LIG1        0.0271
     41 H           2.1847   -8.4798  -27.4029 H       1  LIG1        0.0271
     42 H          -0.2788   -6.9797  -28.1740 H       1  LIG1        0.0265
     43 H           1.4088   -6.4345  -28.1584 H       1  LIG1        0.0265
     44 H          -0.6576   -6.0829  -26.1155 H       1  LIG1        0.0265
     45 H           0.9590   -5.3505  -26.1861 H       1  LIG1        0.0265
     46 H           1.9379   -7.0948  -24.9699 H       1  LIG1        0.0271
     47 H           0.3097   -7.1681  -24.2693 H       1  LIG1        0.0271
     48 H           3.2594   -8.9333  -25.0458 H       1  LIG1        0.0641
     49 H           4.4969  -13.0766  -25.2974 H       1  LIG1        0.0333
     50 H           5.0660  -13.7797  -23.7558 H       1  LIG1        0.0333
     51 H           6.1991  -15.7271  -24.5076 H       1  LIG1        0.0235
     52 H           7.1568  -15.7183  -26.0035 H       1  LIG1        0.0235
     53 H           5.4021  -15.4342  -26.0680 H       1  LIG1        0.0235
     54 H           6.8719  -12.0556  -26.6446 H       1  LIG1        0.0235
     55 H           5.7953  -13.2999  -27.3082 H       1  LIG1        0.0235
     56 H           7.5466  -13.5843  -27.2436 H       1  LIG1        0.0235
     57 H           7.2522   -7.9240  -22.7262 H       1  LIG1        0.0278
     58 H           8.3524   -8.6559  -23.9062 H       1  LIG1        0.0278
     59 H           8.3543   -9.2145  -22.2128 H       1  LIG1        0.0278
@<TRIPOS>BOND
     1     1     3   ar
     2     1     5   ar
     3     1    29    1
     4     2     8    2
     5     3    23   ar
     6     3    30    1
     7     4     5   ar
     8     4    23   ar
     9     4    24    1
    10     5     6    1
    11     6     7    1
    12     6    28    2
    13     7    25    1
    14     7    31    1
    15     7    32    1
    16     8     9   am
    17     8    14    1
    18     9    10    1
    19     9    33    1
    20    10    11    1
    21    10    34    1
    22    10    35    1
    23    11    12    1
    24    11    36    1
    25    11    37    1
    26    12    13   ar
    27    12    14   ar
    28    13    22   ar
    29    13    38    1
    30    14    15   ar
    31    15    16    1
    32    15    21   ar
    33    16    17    1
    34    16    20    1
    35    16    39    1
    36    17    18    1
    37    17    40    1
    38    17    41    1
    39    18    19    1
    40    18    42    1
    41    18    43    1
    42    19    20    1
    43    19    44    1
    44    19    45    1
    45    20    46    1
    46    20    47    1
    47    21    22   ar
    48    21    48    1
    49    22    23    1
    50    24    25    1
    51    24    49    1
    52    24    50    1
    53    25    26    1
    54    25    27    1
    55    26    51    1
    56    26    52    1
    57    26    53    1
    58    27    54    1
    59    27    55    1
    60    27    56    1
    61    29    57    1
    62    29    58    1
    63    29    59    1
