REMARK  2 active torsions:
REMARK  status: ('A' for Active; 'I' for Inactive)
REMARK    1  A    between atoms: C_15  and  C_16 
REMARK    2  A    between atoms: C_22  and  N_23 
ROOT
ATOM      1  O   LIG d   1      -1.275 -10.906 -26.343  0.00  0.00    -0.270 OA
ATOM      2  C   LIG d   1      -0.840 -11.319 -25.299  0.00  0.00     0.245 C 
ATOM      3  N   LIG d   1      -1.591 -12.176 -24.499  0.00  0.00    -0.311 N 
ATOM      4  C   LIG d   1      -1.103 -12.825 -23.307  0.00  0.00     0.109 C 
ATOM      5  C   LIG d   1       0.349 -13.216 -23.511  0.00  0.00     0.054 C 
ATOM      6  C   LIG d   1       1.153 -12.029 -23.989  0.00  0.00    -0.032 A 
ATOM      7  C   LIG d   1       2.502 -11.940 -23.637  0.00  0.00     0.030 A 
ATOM      8  C   LIG d   1       0.571 -11.031 -24.798  0.00  0.00     0.043 A 
ATOM      9  C   LIG d   1       1.314  -9.863 -25.139  0.00  0.00    -0.030 A 
ATOM     10  C   LIG d   1       2.664  -9.793 -24.746  0.00  0.00     0.030 A 
ATOM     11  C   LIG d   1       3.259 -10.834 -24.033  0.00  0.00     0.047 A 
ATOM     12  H   LIG d   1      -2.526 -12.346 -24.836  0.00  0.00     0.149 HD
ENDROOT
BRANCH  11  13
ATOM     13  N   LIG d   1       4.657 -10.778 -23.759  0.00  0.00    -0.319 N 
ATOM     14  C   LIG d   1       5.333  -9.653 -23.336  0.00  0.00     0.095 A 
ATOM     15  C   LIG d   1       6.703  -9.892 -23.376  0.00  0.00    -0.022 A 
ATOM     16  C   LIG d   1       6.867 -11.243 -23.803  0.00  0.00     0.041 A 
ATOM     17  C   LIG d   1       7.726  -8.868 -23.037  0.00  0.00     0.046 C 
ATOM     18  C   LIG d   1       5.599 -11.757 -24.032  0.00  0.00     0.035 A 
ATOM     19  C   LIG d   1       8.047 -12.072 -24.062  0.00  0.00     0.166 C 
ATOM     20  C   LIG d   1       5.326 -13.120 -24.588  0.00  0.00     0.061 C 
ATOM     21  C   LIG d   1       6.542 -13.734 -25.317  0.00  0.00    -0.022 C 
ATOM     22  C   LIG d   1       7.821 -13.515 -24.498  0.00  0.00     0.086 C 
ATOM     23  C   LIG d   1       6.312 -15.245 -25.486  0.00  0.00     0.011 C 
ATOM     24  C   LIG d   1       6.700 -13.131 -26.714  0.00  0.00     0.011 C 
ATOM     25  O   LIG d   1       9.199 -11.652 -23.889  0.00  0.00    -0.292 OA
ENDBRANCH  11  13
BRANCH   9  26
ATOM     26  C   LIG d   1       0.676  -8.683 -25.831  0.00  0.00     0.020 C 
ATOM     27  C   LIG d   1       1.097  -8.412 -27.280  0.00  0.00     0.008 C 
ATOM     28  C   LIG d   1       0.646  -6.979 -27.588  0.00  0.00     0.001 C 
ATOM     29  C   LIG d   1       0.409  -6.300 -26.247  0.00  0.00     0.001 C 
ATOM     30  C   LIG d   1       0.884  -7.296 -25.192  0.00  0.00     0.008 C 
ENDBRANCH   9  26
TORSDOF 2
