REMARK  3 active torsions:
REMARK  status: ('A' for Active; 'I' for Inactive)
REMARK    1  A    between atoms: C_9  and  C_10 
REMARK    2  A    between atoms: C_10  and  C_11 
REMARK    3  A    between atoms: C_15  and  N_16 
ROOT
ATOM      1  O   LIG d   1      -1.167 -10.650 -26.423  0.00  0.00    -0.270 OA
ATOM      2  C   LIG d   1      -0.772 -11.101 -25.379  0.00  0.00     0.245 C 
ATOM      3  N   LIG d   1      -1.608 -11.861 -24.571  0.00  0.00    -0.311 N 
ATOM      4  C   LIG d   1      -1.212 -12.542 -23.358  0.00  0.00     0.109 C 
ATOM      5  C   LIG d   1       0.212 -13.045 -23.480  0.00  0.00     0.054 C 
ATOM      6  C   LIG d   1       1.122 -11.950 -23.995  0.00  0.00    -0.032 A 
ATOM      7  C   LIG d   1       2.465 -11.953 -23.595  0.00  0.00     0.030 A 
ATOM      8  C   LIG d   1       0.648 -10.956 -24.887  0.00  0.00     0.043 A 
ATOM      9  C   LIG d   1       1.515  -9.912 -25.297  0.00  0.00    -0.033 A 
ATOM     10  C   LIG d   1       2.858  -9.942 -24.868  0.00  0.00     0.030 A 
ATOM     11  C   LIG d   1       3.329 -10.958 -24.042  0.00  0.00     0.047 A 
ATOM     12  H   LIG d   1      -2.561 -11.922 -24.897  0.00  0.00     0.149 HD
ENDROOT
BRANCH  11  13
ATOM     13  N   LIG d   1       4.711 -10.986 -23.727  0.00  0.00    -0.319 N 
ATOM     14  C   LIG d   1       5.448  -9.911 -23.274  0.00  0.00     0.095 A 
ATOM     15  C   LIG d   1       6.798 -10.214 -23.333  0.00  0.00    -0.022 A 
ATOM     16  C   LIG d   1       6.893 -11.557 -23.809  0.00  0.00     0.041 A 
ATOM     17  C   LIG d   1       7.874  -9.255 -22.962  0.00  0.00     0.046 C 
ATOM     18  C   LIG d   1       5.600 -11.998 -24.043  0.00  0.00     0.035 A 
ATOM     19  C   LIG d   1       8.026 -12.437 -24.110  0.00  0.00     0.166 C 
ATOM     20  C   LIG d   1       5.247 -13.325 -24.642  0.00  0.00     0.061 C 
ATOM     21  C   LIG d   1       6.424 -13.992 -25.385  0.00  0.00    -0.022 C 
ATOM     22  C   LIG d   1       6.614 -13.367 -26.766  0.00  0.00     0.011 C 
ATOM     23  C   LIG d   1       6.107 -15.482 -25.587  0.00  0.00     0.011 C 
ATOM     24  C   LIG d   1       7.710 -13.862 -24.562  0.00  0.00     0.086 C 
ATOM     25  O   LIG d   1       9.198 -12.079 -23.975  0.00  0.00    -0.292 OA
ENDBRANCH  11  13
BRANCH   9  26
ATOM     26  C   LIG d   1       1.153  -8.717 -26.149  0.00  0.00     0.039 C 
BRANCH  26  27
ATOM     27  C   LIG d   1       0.399  -7.571 -25.464  0.00  0.00    -0.013 C 
ATOM     28  C   LIG d   1       0.148  -6.458 -26.484  0.00  0.00     0.007 C 
ATOM     29  C   LIG d   1       1.100  -6.976 -24.252  0.00  0.00     0.007 C 
ENDBRANCH  26  27
ENDBRANCH   9  26
TORSDOF 3
