@<TRIPOS>MOLECULE
4O09_2R6_A_4000
 58 61 0 0 0
SMALL
USER_CHARGES

@<TRIPOS>ATOM
      1 O          -1.1667  -10.6501  -26.4234 O.2     1  LIG1       -0.2702
      2 C          -0.7719  -11.1010  -25.3793 C.2     1  LIG1        0.2446
      3 N          -1.6076  -11.8605  -24.5706 N.am    1  LIG1       -0.3110
      4 C          -1.2122  -12.5422  -23.3578 C.3     1  LIG1        0.0159
      5 C           0.2119  -13.0449  -23.4795 C.3     1  LIG1       -0.0113
      6 C           1.1217  -11.9497  -23.9950 C.ar    1  LIG1       -0.0316
      7 C           2.4652  -11.9531  -23.5946 C.ar    1  LIG1       -0.0339
      8 C           0.6483  -10.9557  -24.8875 C.ar    1  LIG1        0.0432
      9 C           1.5150   -9.9125  -25.2975 C.ar    1  LIG1       -0.0328
     10 C           1.1533   -8.7169  -26.1495 C.3     1  LIG1       -0.0245
     11 C           0.3991   -7.5714  -25.4639 C.3     1  LIG1       -0.0427
     12 C           0.1483   -6.4583  -26.4843 C.3     1  LIG1       -0.0624
     13 C           1.0997   -6.9763  -24.2519 C.3     1  LIG1       -0.0624
     14 C           2.8576   -9.9420  -24.8681 C.ar    1  LIG1       -0.0339
     15 C           3.3290  -10.9576  -24.0421 C.ar    1  LIG1        0.0469
     16 N           4.7113  -10.9856  -23.7266 N.ar    1  LIG1       -0.3191
     17 C           5.4483   -9.9111  -23.2739 C.ar    1  LIG1        0.0137
     18 C           5.6004  -11.9981  -24.0433 C.ar    1  LIG1        0.0350
     19 C           5.2471  -13.3255  -24.6415 C.3     1  LIG1       -0.0057
     20 C           6.4242  -13.9915  -25.3848 C.3     1  LIG1       -0.0225
     21 C           6.6144  -13.3665  -26.7661 C.3     1  LIG1       -0.0591
     22 C           6.1067  -15.4820  -25.5875 C.3     1  LIG1       -0.0591
     23 C           7.7104  -13.8617  -24.5622 C.3     1  LIG1        0.0160
     24 C           8.0256  -12.4366  -24.1101 C.2     1  LIG1        0.1656
     25 O           9.1982  -12.0787  -23.9746 O.2     1  LIG1       -0.2920
     26 C           6.8934  -11.5570  -23.8088 C.ar    1  LIG1        0.0414
     27 C           6.7977  -10.2140  -23.3329 C.ar    1  LIG1       -0.0218
     28 C           7.8737   -9.2555  -22.9615 C.3     1  LIG1       -0.0376
     29 H          -2.5612  -11.9217  -24.8972 H       1  LIG1        0.1490
     30 H          -1.8958  -13.3833  -23.1939 H       1  LIG1        0.0465
     31 H          -1.3041  -11.8537  -22.5109 H       1  LIG1        0.0465
     32 H           0.2334  -13.9009  -24.1649 H       1  LIG1        0.0329
     33 H           0.5519  -13.3795  -22.4913 H       1  LIG1        0.0329
     34 H           2.8201  -12.7122  -22.9050 H       1  LIG1        0.0641
     35 H           0.5580   -9.0604  -26.9974 H       1  LIG1        0.0316
     36 H           2.0850   -8.2978  -26.5633 H       1  LIG1        0.0316
     37 H          -0.5544   -7.9722  -25.1184 H       1  LIG1        0.0299
     38 H           1.0967   -6.0330  -26.8417 H       1  LIG1        0.0232
     39 H          -0.4423   -5.6501  -26.0378 H       1  LIG1        0.0232
     40 H          -0.3991   -6.8491  -27.3500 H       1  LIG1        0.0232
     41 H           2.0543   -6.5168  -24.5297 H       1  LIG1        0.0232
     42 H           1.2824   -7.7518  -23.5055 H       1  LIG1        0.0232
     43 H           0.4677   -6.2054  -23.7906 H       1  LIG1        0.0232
     44 H           3.5412   -9.1673  -25.2246 H       1  LIG1        0.0641
     45 H           4.9949   -8.9836  -22.9415 H       1  LIG1        0.0816
     46 H           4.4255  -13.2063  -25.3487 H       1  LIG1        0.0333
     47 H           4.9412  -13.9921  -23.8299 H       1  LIG1        0.0333
     48 H           5.7028  -13.4763  -27.3660 H       1  LIG1        0.0235
     49 H           7.4392  -13.8492  -27.3046 H       1  LIG1        0.0235
     50 H           6.8388  -12.3023  -26.6701 H       1  LIG1        0.0235
     51 H           5.1916  -15.6039  -26.1807 H       1  LIG1        0.0235
     52 H           5.9561  -15.9759  -24.6195 H       1  LIG1        0.0235
     53 H           6.9270  -15.9924  -26.1090 H       1  LIG1        0.0235
     54 H           8.5574  -14.2154  -25.1638 H       1  LIG1        0.0350
     55 H           7.6274  -14.4963  -23.6697 H       1  LIG1        0.0350
     56 H           7.4488   -8.2985  -22.6167 H       1  LIG1        0.0278
     57 H           8.5099   -9.0457  -23.8249 H       1  LIG1        0.0278
     58 H           8.4837   -9.6627  -22.1521 H       1  LIG1        0.0278
@<TRIPOS>BOND
     1     1     2    2
     2     2     3   am
     3     2     8    1
     4     3     4    1
     5     3    29    1
     6     4     5    1
     7     4    30    1
     8     4    31    1
     9     5     6    1
    10     5    32    1
    11     5    33    1
    12     6     7   ar
    13     6     8   ar
    14     7    15   ar
    15     7    34    1
    16     8     9   ar
    17     9    10    1
    18     9    14   ar
    19    10    11    1
    20    10    35    1
    21    10    36    1
    22    11    12    1
    23    11    13    1
    24    11    37    1
    25    12    38    1
    26    12    39    1
    27    12    40    1
    28    13    41    1
    29    13    42    1
    30    13    43    1
    31    14    15   ar
    32    14    44    1
    33    15    16    1
    34    16    17   ar
    35    16    18   ar
    36    17    27   ar
    37    17    45    1
    38    18    19    1
    39    18    26   ar
    40    19    20    1
    41    19    46    1
    42    19    47    1
    43    20    21    1
    44    20    22    1
    45    20    23    1
    46    21    48    1
    47    21    49    1
    48    21    50    1
    49    22    51    1
    50    22    52    1
    51    22    53    1
    52    23    24    1
    53    23    54    1
    54    23    55    1
    55    24    25    2
    56    24    26    1
    57    26    27   ar
    58    27    28    1
    59    28    56    1
    60    28    57    1
    61    28    58    1
