@<TRIPOS>MOLECULE
3HYY_37D_A_237
 25 26 0 0 0
SMALL
USER_CHARGES

@<TRIPOS>ATOM
      1 C           7.9641   10.9505   23.1436 C.ar    1  LIG1       -0.0232
      2 C           7.3277    9.7854   22.8515 C.ar    1  LIG1        0.0926
      3 C           5.7198   11.2608   23.3254 C.ar    1  LIG1        0.1555
      4 C           6.9419   11.8673   23.4298 C.ar    1  LIG1       -0.0143
      5 C           4.3517   11.8905   23.5392 C.ar    1  LIG1        0.1416
      6 C           2.6362   13.2492   24.0179 C.ar    1  LIG1        0.0477
      7 C           4.0384   13.2016   24.0762 C.ar    1  LIG1        0.1098
      8 C           4.9338   14.2877   24.5965 C.2     1  LIG1        0.3429
      9 C           5.0742   16.4093   25.6755 C.3     1  LIG1        0.0820
     10 C           1.6448   14.3005   24.3822 C.3     1  LIG1       -0.0221
     11 O           6.1625   14.3078   24.5411 O.2     1  LIG1       -0.2448
     12 O           4.2697   15.3225   25.1719 O.3     1  LIG1       -0.4644
     13 N           2.2227   12.0486   23.5040 N.ar    1  LIG1       -0.2804
     14 N           3.2301   11.2114   23.2233 N.ar    1  LIG1       -0.1697
     15 O           5.9678    9.9370   22.9436 O.2     1  LIG1       -0.4613
     16 H           9.0275   11.1519   23.1425 H       1  LIG1        0.0649
     17 H           7.6999    8.8127   22.5594 H       1  LIG1        0.1029
     18 H           7.1660   12.8870   23.6623 H       1  LIG1        0.0656
     19 H           4.3919   17.1612   26.0850 H       1  LIG1        0.0661
     20 H           5.6597   16.8882   24.8804 H       1  LIG1        0.0661
     21 H           5.7310   16.0747   26.4868 H       1  LIG1        0.0661
     22 H           2.1282   15.1882   24.7718 H       1  LIG1        0.0293
     23 H           0.9505   13.9547   25.1559 H       1  LIG1        0.0293
     24 H           1.0629   14.6251   23.5115 H       1  LIG1        0.0293
     25 H           1.2702   11.7347   23.3186 H       1  LIG1        0.1885
@<TRIPOS>BOND
     1     1     2   ar
     2     1     4   ar
     3     1    16    1
     4     2    15   ar
     5     2    17    1
     6     3     4   ar
     7     3     5    1
     8     3    15   ar
     9     4    18    1
    10     5     7   ar
    11     5    14   ar
    12     6     7   ar
    13     6    10    1
    14     6    13   ar
    15     7     8    1
    16     8    11    2
    17     8    12    1
    18     9    12    1
    19     9    19    1
    20     9    20    1
    21     9    21    1
    22    10    22    1
    23    10    23    1
    24    10    24    1
    25    13    14   ar
    26    13    25    1
