REMARK  3 active torsions:
REMARK  status: ('A' for Active; 'I' for Inactive)
REMARK    1  A    between atoms: C_3  and  C_5 
REMARK    2  A    between atoms: C_7  and  C_8 
REMARK    3  A    between atoms: C_8  and  O_12 
ROOT
ATOM      1  C   LIG d   1       4.352  11.890  23.539  0.00  0.00     0.142 A 
ATOM      2  C   LIG d   1       2.636  13.249  24.018  0.00  0.00     0.048 A 
ATOM      3  C   LIG d   1       4.038  13.202  24.076  0.00  0.00     0.110 A 
ATOM      4  C   LIG d   1       1.645  14.300  24.382  0.00  0.00     0.066 C 
ATOM      5  N   LIG d   1       2.223  12.049  23.504  0.00  0.00    -0.280 N 
ATOM      6  N   LIG d   1       3.230  11.211  23.223  0.00  0.00    -0.170 NA
ATOM      7  H   LIG d   1       1.270  11.735  23.319  0.00  0.00     0.189 HD
ENDROOT
BRANCH   1   8
ATOM      8  C   LIG d   1       5.720  11.261  23.325  0.00  0.00     0.155 A 
ATOM      9  C   LIG d   1       6.942  11.867  23.430  0.00  0.00     0.051 A 
ATOM     10  C   LIG d   1       7.964  10.950  23.144  0.00  0.00     0.042 A 
ATOM     11  C   LIG d   1       7.328   9.785  22.852  0.00  0.00     0.196 A 
ATOM     12  O   LIG d   1       5.968   9.937  22.944  0.00  0.00    -0.461 OA
ENDBRANCH   1   8
BRANCH   3  13
ATOM     13  C   LIG d   1       4.934  14.288  24.596  0.00  0.00     0.343 C 
ATOM     14  O   LIG d   1       6.162  14.308  24.541  0.00  0.00    -0.245 OA
BRANCH  13  15
ATOM     15  O   LIG d   1       4.270  15.322  25.172  0.00  0.00    -0.464 OA
ATOM     16  C   LIG d   1       5.074  16.409  25.675  0.00  0.00     0.280 C 
ENDBRANCH  13  15
ENDBRANCH   3  13
TORSDOF 3
