REMARK  2 active torsions:
REMARK  status: ('A' for Active; 'I' for Inactive)
REMARK    1  A    between atoms: N_12  and  C_13 
REMARK    2  A    between atoms: C_16  and  C_17 
ROOT
ATOM      1  C   LIG d   1      -3.005  -9.822 -26.330  0.00  0.00     0.054 A 
ATOM      2  C   LIG d   1      -1.719  -9.758 -25.850  0.00  0.00     0.060 A 
ATOM      3  C   LIG d   1      -1.496 -10.351 -24.623  0.00  0.00     0.058 A 
ATOM      4  O   LIG d   1      -0.722  -8.690 -27.727  0.00  0.00    -0.292 OA
ATOM      5  C   LIG d   1      -3.405  -9.226 -27.644  0.00  0.00     0.066 C 
ATOM      6  N   LIG d   1      -3.997 -10.414 -25.653  0.00  0.00    -0.219 NA
ATOM      7  N   LIG d   1      -2.466 -10.943 -23.922  0.00  0.00    -0.219 NA
ATOM      8  C   LIG d   1      -3.699 -10.961 -24.462  0.00  0.00     0.213 A 
ATOM      9  C   LIG d   1      -0.624  -9.113 -26.584  0.00  0.00     0.167 C 
ATOM     10  C   LIG d   1       0.652  -8.932 -25.869  0.00  0.00     0.088 C 
ATOM     11  C   LIG d   1       0.961 -10.149 -25.034  0.00  0.00     0.032 C 
ATOM     12  C   LIG d   1      -0.124 -10.342 -23.987  0.00  0.00     0.065 C 
ENDROOT
BRANCH  11  13
ATOM     13  C   LIG d   1       2.305  -9.972 -24.395  0.00  0.00    -0.043 A 
ATOM     14  C   LIG d   1       2.876  -8.710 -24.248  0.00  0.00     0.004 A 
ATOM     15  C   LIG d   1       4.125  -8.556 -23.680  0.00  0.00     0.000 A 
ATOM     16  C   LIG d   1       4.812  -9.669 -23.241  0.00  0.00     0.000 A 
ATOM     17  C   LIG d   1       4.253 -10.930 -23.371  0.00  0.00     0.000 A 
ATOM     18  C   LIG d   1       3.005 -11.081 -23.945  0.00  0.00     0.004 A 
ENDBRANCH  11  13
BRANCH   8  19
ATOM     19  N   LIG d   1      -4.687 -11.556 -23.777  0.00  0.00    -0.328 N 
ATOM     20  H   LIG d   1      -4.487 -11.974 -22.883  0.00  0.00     0.145 HD
ATOM     21  H   LIG d   1      -5.616 -11.577 -24.169  0.00  0.00     0.145 HD
ENDBRANCH   8  19
TORSDOF 2
