@<TRIPOS>MOLECULE
4W7T_3JC_A_301
 34 36 0 0 0
SMALL
USER_CHARGES

@<TRIPOS>ATOM
      1 C          -3.0047   -9.8219  -26.3302 C.ar    1  LIG1        0.0540
      2 C          -1.7194   -9.7581  -25.8504 C.ar    1  LIG1        0.0598
      3 C          -1.4963  -10.3507  -24.6227 C.ar    1  LIG1        0.0576
      4 O          -0.7219   -8.6896  -27.7268 O.2     1  LIG1       -0.2919
      5 C           4.2528  -10.9295  -23.3712 C.ar    1  LIG1       -0.0615
      6 C           4.8125   -9.6694  -23.2405 C.ar    1  LIG1       -0.0617
      7 C           4.1245   -8.5560  -23.6803 C.ar    1  LIG1       -0.0615
      8 C           2.8764   -8.7099  -24.2480 C.ar    1  LIG1       -0.0583
      9 C          -3.4051   -9.2255  -27.6439 C.3     1  LIG1       -0.0215
     10 N          -3.9965  -10.4144  -25.6532 N.ar    1  LIG1       -0.2192
     11 N          -2.4658  -10.9432  -23.9225 N.ar    1  LIG1       -0.2189
     12 N          -4.6867  -11.5561  -23.7773 N.pl3   1  LIG1       -0.3275
     13 C          -3.6988  -10.9612  -24.4625 C.ar    1  LIG1        0.2130
     14 C          -0.6236   -9.1125  -26.5838 C.2     1  LIG1        0.1672
     15 C           0.6522   -8.9324  -25.8692 C.3     1  LIG1        0.0177
     16 C           0.9605  -10.1494  -25.0338 C.3     1  LIG1       -0.0034
     17 C           2.3051   -9.9720  -24.3946 C.ar    1  LIG1       -0.0435
     18 C          -0.1245  -10.3420  -23.9872 C.3     1  LIG1       -0.0023
     19 C           3.0045  -11.0811  -23.9451 C.ar    1  LIG1       -0.0583
     20 H           4.7939  -11.8028  -23.0237 H       1  LIG1        0.0618
     21 H           5.7941   -9.5525  -22.7905 H       1  LIG1        0.0618
     22 H           4.5519   -7.5640  -23.5835 H       1  LIG1        0.0618
     23 H           2.3613   -7.8165  -24.5875 H       1  LIG1        0.0620
     24 H          -2.5896   -8.7418  -28.1679 H       1  LIG1        0.0293
     25 H          -4.1530   -8.4448  -27.4998 H       1  LIG1        0.0293
     26 H          -3.7742   -9.9992  -28.3189 H       1  LIG1        0.0293
     27 H          -4.4872  -11.9740  -22.8829 H       1  LIG1        0.1452
     28 H          -5.6164  -11.5768  -24.1690 H       1  LIG1        0.1452
     29 H           0.5571   -8.0383  -25.2498 H       1  LIG1        0.0351
     30 H           1.4460   -8.7798  -26.6116 H       1  LIG1        0.0351
     31 H           0.9837  -11.0419  -25.6740 H       1  LIG1        0.0357
     32 H           0.0364  -11.2950  -23.4734 H       1  LIG1        0.0334
     33 H          -0.0797   -9.5331  -23.2477 H       1  LIG1        0.0334
     34 H           2.5722  -12.0721  -24.0492 H       1  LIG1        0.0620
@<TRIPOS>BOND
     1     1     2   ar
     2     1     9    1
     3     1    10   ar
     4     2     3   ar
     5     2    14    1
     6     3    11   ar
     7     3    18    1
     8     4    14    2
     9     5     6   ar
    10     5    19   ar
    11     5    20    1
    12     6     7   ar
    13     6    21    1
    14     7     8   ar
    15     7    22    1
    16     8    17   ar
    17     8    23    1
    18     9    24    1
    19     9    25    1
    20     9    26    1
    21    10    13   ar
    22    11    13   ar
    23    12    13    1
    24    12    27    1
    25    12    28    1
    26    14    15    1
    27    15    16    1
    28    15    29    1
    29    15    30    1
    30    16    17    1
    31    16    18    1
    32    16    31    1
    33    17    19   ar
    34    18    32    1
    35    18    33    1
    36    19    34    1
