3RLP_3RP_A_901
 OpenBabel03301717223D

 29 30  0  0  0  0  0  0  0  0999 V2000
   17.5771   -1.9116   49.9987 N   0  0  0  0  0  0  0  0  0  0  0  0
   17.5786    0.3803   49.5251 N   0  0  0  0  0  0  0  0  0  0  0  0
   16.9743   -3.0054   50.5376 C   0  0  0  0  0  0  0  0  0  0  0  0
   17.6733   -4.3276   50.4414 C   0  0  0  0  0  0  0  0  0  0  0  0
   13.8259   -1.5006   51.8507 C   0  0  0  0  0  0  0  0  0  0  0  0
   12.6675   -1.1685   51.1094 C   0  0  0  0  0  0  0  0  0  0  0  0
   11.4139   -1.0680   51.7403 C   0  0  0  0  0  0  0  0  0  0  0  0
   12.4282   -1.6070   53.9161 C   0  0  0  0  0  0  0  0  0  0  0  0
   13.6757   -1.7195   53.2614 C   0  0  0  0  0  0  0  0  0  0  0  0
   15.7507   -2.9257   51.1632 C   0  0  0  0  0  0  0  0  0  0  0  0
   11.3015   -1.2841   53.1289 C   0  0  0  0  0  0  0  0  0  0  0  0
   15.1588   -1.6796   51.2072 C   0  0  0  0  0  0  0  0  0  0  0  0
   16.9547   -0.7277   50.0760 C   0  0  0  0  0  0  0  0  0  0  0  0
   13.3115   -2.1104   56.1136 C   0  0  0  0  0  0  0  0  0  0  0  0
   15.7600   -0.5648   50.6719 N   0  0  0  0  0  0  0  0  0  0  0  0
   12.2182   -1.7891   55.2657 O   0  0  0  0  0  0  0  0  0  0  0  0
   12.7195   -0.8969   49.3912 Cl  0  0  0  0  0  0  0  0  0  0  0  0
    9.7214   -1.1450   53.8372 Cl  0  0  0  0  0  0  0  0  0  0  0  0
   17.1309    1.2696   49.5696 H   0  0  0  0  0  0  0  0  0  0  0  0
   18.4676    0.2696   49.0805 H   0  0  0  0  0  0  0  0  0  0  0  0
   18.6314   -4.2287   49.9216 H   0  0  0  0  0  0  0  0  0  0  0  0
   17.0567   -5.0508   49.8897 H   0  0  0  0  0  0  0  0  0  0  0  0
   17.8672   -4.7346   51.4438 H   0  0  0  0  0  0  0  0  0  0  0  0
   10.5280   -0.8167   51.1568 H   0  0  0  0  0  0  0  0  0  0  0  0
   14.5686   -1.9692   53.8337 H   0  0  0  0  0  0  0  0  0  0  0  0
   15.2705   -3.8061   51.5883 H   0  0  0  0  0  0  0  0  0  0  0  0
   12.9589   -2.2175   57.1561 H   0  0  0  0  0  0  0  0  0  0  0  0
   14.0660   -1.3150   56.1074 H   0  0  0  0  0  0  0  0  0  0  0  0
   13.7678   -3.0636   55.8263 H   0  0  0  0  0  0  0  0  0  0  0  0
  1  3  2  0  0  0  0
  1 13  1  0  0  0  0
  2 13  1  0  0  0  0
  2 19  1  0  0  0  0
  2 20  1  0  0  0  0
  3  4  1  0  0  0  0
  3 10  1  0  0  0  0
  4 21  1  0  0  0  0
  4 22  1  0  0  0  0
  4 23  1  0  0  0  0
  5  6  2  0  0  0  0
  5  9  1  0  0  0  0
  5 12  1  0  0  0  0
  6  7  1  0  0  0  0
  6 17  1  0  0  0  0
  7 11  2  0  0  0  0
  7 24  1  0  0  0  0
  8  9  2  0  0  0  0
  8 11  1  0  0  0  0
  8 16  1  0  0  0  0
  9 25  1  0  0  0  0
 10 12  2  0  0  0  0
 10 26  1  0  0  0  0
 11 18  1  0  0  0  0
 12 15  1  0  0  0  0
 13 15  2  0  0  0  0
 14 16  1  0  0  0  0
 14 27  1  0  0  0  0
 14 28  1  0  0  0  0
 14 29  1  0  0  0  0
M  END
$$$$
