@<TRIPOS>MOLECULE
3RLP_3RP_A_901
 29 30 0 0 0
SMALL
USER_CHARGES

@<TRIPOS>ATOM
      1 N          17.5771   -1.9116   49.9987 N.ar    1  LIG1       -0.2199
      2 N          17.5786    0.3803   49.5251 N.pl3   1  LIG1       -0.3275
      3 C          16.9743   -3.0054   50.5376 C.ar    1  LIG1        0.0439
      4 C          17.6733   -4.3276   50.4414 C.3     1  LIG1       -0.0222
      5 C          13.8259   -1.5006   51.8507 C.ar    1  LIG1        0.0224
      6 C          12.6675   -1.1685   51.1094 C.ar    1  LIG1        0.0517
      7 C          11.4139   -1.0680   51.7403 C.ar    1  LIG1       -0.0208
      8 C          12.4282   -1.6070   53.9161 C.ar    1  LIG1        0.1390
      9 C          13.6757   -1.7195   53.2614 C.ar    1  LIG1       -0.0079
     10 C          15.7507   -2.9257   51.1632 C.ar    1  LIG1       -0.0144
     11 C          11.3015   -1.2841   53.1289 C.ar    1  LIG1        0.0839
     12 C          15.1588   -1.6796   51.2072 C.ar    1  LIG1        0.0778
     13 C          16.9547   -0.7277   50.0760 C.ar    1  LIG1        0.2133
     14 C          13.3115   -2.1104   56.1136 C.3     1  LIG1        0.0789
     15 N          15.7600   -0.5648   50.6719 N.ar    1  LIG1       -0.2146
     16 O          12.2182   -1.7891   55.2657 O.3     1  LIG1       -0.4936
     17 CL         12.7195   -0.8969   49.3912 Cl      1  LIG1       -0.0828
     18 CL          9.7214   -1.1450   53.8372 Cl      1  LIG1       -0.0797
     19 H          17.1309    1.2696   49.5696 H       1  LIG1        0.1452
     20 H          18.4676    0.2696   49.0805 H       1  LIG1        0.1452
     21 H          18.6314   -4.2287   49.9216 H       1  LIG1        0.0293
     22 H          17.0567   -5.0508   49.8897 H       1  LIG1        0.0293
     23 H          17.8672   -4.7346   51.4438 H       1  LIG1        0.0293
     24 H          10.5280   -0.8167   51.1568 H       1  LIG1        0.0648
     25 H          14.5686   -1.9692   53.8337 H       1  LIG1        0.0661
     26 H          15.2705   -3.8061   51.5883 H       1  LIG1        0.0657
     27 H          12.9589   -2.2175   57.1561 H       1  LIG1        0.0660
     28 H          14.0660   -1.3150   56.1074 H       1  LIG1        0.0660
     29 H          13.7678   -3.0636   55.8263 H       1  LIG1        0.0660
@<TRIPOS>BOND
     1     1     3   ar
     2     1    13   ar
     3     2    13    1
     4     2    19    1
     5     2    20    1
     6     3     4    1
     7     3    10   ar
     8     4    21    1
     9     4    22    1
    10     4    23    1
    11     5     6   ar
    12     5     9   ar
    13     5    12    1
    14     6     7   ar
    15     6    17    1
    16     7    11   ar
    17     7    24    1
    18     8     9   ar
    19     8    11   ar
    20     8    16    1
    21     9    25    1
    22    10    12   ar
    23    10    26    1
    24    11    18    1
    25    12    15   ar
    26    13    15   ar
    27    14    16    1
    28    14    27    1
    29    14    28    1
    30    14    29    1
