REMARK  3 active torsions:
REMARK  status: ('A' for Active; 'I' for Inactive)
REMARK    1  A    between atoms: N_2  and  C_13 
REMARK    2  A    between atoms: C_5  and  C_12 
REMARK    3  A    between atoms: C_8  and  O_16 
ROOT
ATOM      1  C   LIG d   1      13.826  -1.501  51.851  0.00  0.00     0.022 A 
ATOM      2  C   LIG d   1      12.668  -1.169  51.109  0.00  0.00     0.052 A 
ATOM      3  C   LIG d   1      11.414  -1.068  51.740  0.00  0.00     0.044 A 
ATOM      4  C   LIG d   1      12.428  -1.607  53.916  0.00  0.00     0.139 A 
ATOM      5  C   LIG d   1      13.676  -1.720  53.261  0.00  0.00     0.058 A 
ATOM      6  C   LIG d   1      11.302  -1.284  53.129  0.00  0.00     0.084 A 
ATOM      7 CL   LIG d   1      12.720  -0.897  49.391  0.00  0.00    -0.083 Cl
ATOM      8 CL   LIG d   1       9.721  -1.145  53.837  0.00  0.00    -0.080 Cl
ENDROOT
BRANCH   1   9
ATOM      9  C   LIG d   1      15.159  -1.680  51.207  0.00  0.00     0.078 A 
ATOM     10  C   LIG d   1      15.751  -2.926  51.163  0.00  0.00     0.051 A 
ATOM     11  C   LIG d   1      16.974  -3.005  50.538  0.00  0.00     0.044 A 
ATOM     12  N   LIG d   1      17.577  -1.912  49.999  0.00  0.00    -0.220 NA
ATOM     13  C   LIG d   1      17.673  -4.328  50.441  0.00  0.00     0.066 C 
ATOM     14  C   LIG d   1      16.955  -0.728  50.076  0.00  0.00     0.213 A 
ATOM     15  N   LIG d   1      15.760  -0.565  50.672  0.00  0.00    -0.215 NA
BRANCH  14  16
ATOM     16  N   LIG d   1      17.579   0.380  49.525  0.00  0.00    -0.328 N 
ATOM     17  H   LIG d   1      17.131   1.270  49.570  0.00  0.00     0.145 HD
ATOM     18  H   LIG d   1      18.468   0.270  49.081  0.00  0.00     0.145 HD
ENDBRANCH  14  16
ENDBRANCH   1   9
BRANCH   4  19
ATOM     19  O   LIG d   1      12.218  -1.789  55.266  0.00  0.00    -0.494 OA
ATOM     20  C   LIG d   1      13.312  -2.110  56.114  0.00  0.00     0.277 C 
ENDBRANCH   4  19
TORSDOF 3
