REMARK  2 active torsions:
REMARK  status: ('A' for Active; 'I' for Inactive)
REMARK    1  A    between atoms: C_7  and  C_14 
REMARK    2  A    between atoms: C_15  and  O_20 
ROOT
ATOM      1  N   LIG d   1      17.562  -2.241  49.861  0.00  0.00    -0.215 NA
ATOM      2  N   LIG d   1      17.516   0.065  49.146  0.00  0.00    -0.344 N 
ATOM      3  C   LIG d   1      15.103  -1.649  51.117  0.00  0.00     0.086 A 
ATOM      4  C   LIG d   1      17.403  -4.527  50.700  0.00  0.00     0.088 C 
ATOM      5  C   LIG d   1      15.611   0.750  50.071  0.00  0.00     0.080 A 
ATOM      6  C   LIG d   1      14.554   1.636  50.435  0.00  0.00     0.101 C 
ATOM      7  C   LIG d   1      16.687   1.149  49.299  0.00  0.00     0.104 A 
ATOM      8  C   LIG d   1      15.784  -0.636  50.402  0.00  0.00     0.062 A 
ATOM      9  C   LIG d   1      16.988  -1.021  49.810  0.00  0.00     0.143 A 
ATOM     10  C   LIG d   1      16.848  -3.134  50.571  0.00  0.00     0.129 A 
ATOM     11  N   LIG d   1      13.682   2.352  50.756  0.00  0.00    -0.191 NA
ATOM     12  N   LIG d   1      15.673  -2.890  51.193  0.00  0.00    -0.232 NA
ATOM     13  H   LIG d   1      18.389   0.045  48.629  0.00  0.00     0.167 HD
ENDROOT
BRANCH   3  14
ATOM     14  C   LIG d   1      13.808  -1.494  51.814  0.00  0.00     0.023 A 
ATOM     15  C   LIG d   1      12.591  -1.220  51.134  0.00  0.00     0.052 A 
ATOM     16  C   LIG d   1      11.379  -1.129  51.835  0.00  0.00     0.044 A 
ATOM     17 CL   LIG d   1      12.507  -0.979  49.414  0.00  0.00    -0.083 Cl
ATOM     18  C   LIG d   1      11.352  -1.312  53.225  0.00  0.00     0.084 A 
ATOM     19  C   LIG d   1      12.532  -1.587  53.954  0.00  0.00     0.139 A 
ATOM     20 CL   LIG d   1       9.804  -1.185  54.003  0.00  0.00    -0.080 Cl
ATOM     21  C   LIG d   1      13.747  -1.683  53.235  0.00  0.00     0.058 A 
BRANCH  19  22
ATOM     22  O   LIG d   1      12.388  -1.737  55.315  0.00  0.00    -0.494 OA
ATOM     23  C   LIG d   1      13.528  -2.012  56.128  0.00  0.00     0.277 C 
ENDBRANCH  19  22
ENDBRANCH   3  14
TORSDOF 2
