@<TRIPOS>MOLECULE
3RLQ_3RQ_A_901
 32 34 0 0 0
SMALL
USER_CHARGES

@<TRIPOS>ATOM
      1 N          17.5616   -2.2406   49.8605 N.ar    1  LIG1       -0.2148
      2 N          17.5160    0.0646   49.1464 N.ar    1  LIG1       -0.3445
      3 C          12.5915   -1.2200   51.1338 C.ar    1  LIG1        0.0518
      4 C          11.3787   -1.1290   51.8350 C.ar    1  LIG1       -0.0208
      5 C          11.3525   -1.3115   53.2247 C.ar    1  LIG1        0.0839
      6 C          13.5284   -2.0124   56.1278 C.3     1  LIG1        0.0789
      7 C          15.1034   -1.6494   51.1168 C.ar    1  LIG1        0.0864
      8 C          17.4033   -4.5272   50.7003 C.3     1  LIG1       -0.0045
      9 C          15.6109    0.7502   50.0707 C.ar    1  LIG1        0.0803
     10 C          14.5538    1.6361   50.4349 C.1     1  LIG1        0.1014
     11 C          13.7466   -1.6828   53.2346 C.ar    1  LIG1       -0.0079
     12 C          16.6866    1.1492   49.2988 C.ar    1  LIG1        0.0216
     13 C          15.7835   -0.6365   50.4016 C.ar    1  LIG1        0.0620
     14 C          13.8079   -1.4940   51.8143 C.ar    1  LIG1        0.0230
     15 C          12.5321   -1.5872   53.9540 C.ar    1  LIG1        0.1390
     16 C          16.9880   -1.0210   49.8098 C.ar    1  LIG1        0.1435
     17 C          16.8481   -3.1341   50.5710 C.ar    1  LIG1        0.1290
     18 N          13.6823    2.3515   50.7558 N.1     1  LIG1       -0.1908
     19 N          15.6732   -2.8897   51.1933 N.ar    1  LIG1       -0.2315
     20 O          12.3884   -1.7374   55.3154 O.3     1  LIG1       -0.4936
     21 CL         12.5068   -0.9790   49.4137 Cl      1  LIG1       -0.0828
     22 CL          9.8043   -1.1852   54.0027 Cl      1  LIG1       -0.0797
     23 H          18.3885    0.0450   48.6294 H       1  LIG1        0.1668
     24 H          10.4528   -0.9127   51.2973 H       1  LIG1        0.0648
     25 H          13.2186   -2.0983   57.1835 H       1  LIG1        0.0660
     26 H          14.2572   -1.2001   56.0577 H       1  LIG1        0.0660
     27 H          13.9903   -2.9594   55.8361 H       1  LIG1        0.0660
     28 H          18.3562   -4.6119   50.1653 H       1  LIG1        0.0308
     29 H          16.7018   -5.2576   50.2799 H       1  LIG1        0.0308
     30 H          17.5742   -4.7730   51.7554 H       1  LIG1        0.0308
     31 H          14.6784   -1.9012   53.7612 H       1  LIG1        0.0661
     32 H          16.8915    2.1225   48.8667 H       1  LIG1        0.0820
@<TRIPOS>BOND
     1     1    16   ar
     2     1    17   ar
     3     2    12   ar
     4     2    16   ar
     5     2    23    1
     6     3     4   ar
     7     3    14   ar
     8     3    21    1
     9     4     5   ar
    10     4    24    1
    11     5    15   ar
    12     5    22    1
    13     6    20    1
    14     6    25    1
    15     6    26    1
    16     6    27    1
    17     7    13   ar
    18     7    14    1
    19     7    19   ar
    20     8    17    1
    21     8    28    1
    22     8    29    1
    23     8    30    1
    24     9    10    1
    25     9    12   ar
    26     9    13   ar
    27    10    18    3
    28    11    14   ar
    29    11    15   ar
    30    11    31    1
    31    12    32    1
    32    13    16   ar
    33    15    20    1
    34    17    19   ar
