REMARK  2 active torsions:
REMARK  status: ('A' for Active; 'I' for Inactive)
REMARK    1  A    between atoms: C_7  and  C_14 
REMARK    2  A    between atoms: C_11  and  O_21 
ROOT
ATOM      1  N   LIG d   1      17.424  -1.896  49.611  0.00  0.00    -0.215 NA
ATOM      2  N   LIG d   1      17.272   0.387  48.864  0.00  0.00    -0.342 N 
ATOM      3  C   LIG d   1      15.592  -0.356  50.153  0.00  0.00     0.062 A 
ATOM      4  C   LIG d   1      15.357   1.024  49.801  0.00  0.00     0.083 A 
ATOM      5  C   LIG d   1      16.408   1.450  49.001  0.00  0.00     0.033 A 
ATOM      6  C   LIG d   1      17.368  -4.179  50.479  0.00  0.00     0.088 C 
ATOM      7  C   LIG d   1      14.259   1.854  50.189  0.00  0.00     0.102 C 
ATOM      8  C   LIG d   1      14.966  -1.389  50.892  0.00  0.00     0.086 A 
ATOM      9  C   LIG d   1      16.800  -0.703  49.550  0.00  0.00     0.144 A 
ATOM     10  C   LIG d   1      16.759  -2.809  50.343  0.00  0.00     0.129 A 
ATOM     11  C   LIG d   1      16.685   2.756  48.353  0.00  0.00     0.065 C 
ATOM     12  N   LIG d   1      13.361   2.521  50.540  0.00  0.00    -0.191 NA
ATOM     13  N   LIG d   1      15.583  -2.606  50.977  0.00  0.00    -0.232 NA
ATOM     14  H   LIG d   1      18.134   0.403  48.332  0.00  0.00     0.167 HD
ENDROOT
BRANCH   8  15
ATOM     15  C   LIG d   1      13.672  -1.280  51.595  0.00  0.00     0.023 A 
ATOM     16  C   LIG d   1      13.627  -1.452  53.015  0.00  0.00     0.058 A 
ATOM     17  C   LIG d   1      12.417  -1.400  53.739  0.00  0.00     0.139 A 
ATOM     18  C   LIG d   1      11.222  -1.186  53.018  0.00  0.00     0.084 A 
ATOM     19  C   LIG d   1      11.232  -1.019  51.623  0.00  0.00     0.044 A 
ATOM     20 CL   LIG d   1       9.680  -1.124  53.818  0.00  0.00    -0.080 Cl
ATOM     21  C   LIG d   1      12.445  -1.068  50.918  0.00  0.00     0.052 A 
ATOM     22 CL   LIG d   1      12.368  -0.854  49.192  0.00  0.00    -0.083 Cl
BRANCH  17  23
ATOM     23  O   LIG d   1      12.299  -1.540  55.104  0.00  0.00    -0.494 OA
ATOM     24  C   LIG d   1      13.468  -1.752  55.896  0.00  0.00     0.277 C 
ENDBRANCH  17  23
ENDBRANCH   8  15
TORSDOF 2
