@<TRIPOS>MOLECULE
3RLR_3RR_A_901
 35 37 0 0 0
SMALL
USER_CHARGES

@<TRIPOS>ATOM
      1 N          17.4237   -1.8956   49.6110 N.ar    1  LIG1       -0.2148
      2 N          17.2717    0.3865   48.8636 N.ar    1  LIG1       -0.3419
      3 C          15.5919   -0.3564   50.1526 C.ar    1  LIG1        0.0623
      4 C          15.3574    1.0240   49.8015 C.ar    1  LIG1        0.0833
      5 C          16.4078    1.4505   49.0014 C.ar    1  LIG1        0.0326
      6 C          17.3680   -4.1795   50.4791 C.3     1  LIG1       -0.0045
      7 C          13.6717   -1.2804   51.5953 C.ar    1  LIG1        0.0230
      8 C          11.2316   -1.0192   51.6231 C.ar    1  LIG1       -0.0208
      9 C          13.6272   -1.4523   53.0152 C.ar    1  LIG1       -0.0079
     10 C          14.2592    1.8540   50.1893 C.1     1  LIG1        0.1017
     11 C          12.4170   -1.3998   53.7394 C.ar    1  LIG1        0.1390
     12 C          12.4453   -1.0679   50.9180 C.ar    1  LIG1        0.0518
     13 C          11.2215   -1.1862   53.0177 C.ar    1  LIG1        0.0839
     14 C          14.9659   -1.3894   50.8917 C.ar    1  LIG1        0.0864
     15 C          16.7998   -0.7027   49.5505 C.ar    1  LIG1        0.1437
     16 C          16.7585   -2.8090   50.3426 C.ar    1  LIG1        0.1290
     17 C          16.6854    2.7564   48.3532 C.3     1  LIG1       -0.0231
     18 C          13.4677   -1.7520   55.8957 C.3     1  LIG1        0.0789
     19 N          13.3605    2.5208   50.5399 N.1     1  LIG1       -0.1908
     20 N          15.5831   -2.6059   50.9765 N.ar    1  LIG1       -0.2315
     21 O          12.2993   -1.5399   55.1038 O.3     1  LIG1       -0.4936
     22 CL         12.3683   -0.8544   49.1916 Cl      1  LIG1       -0.0828
     23 CL          9.6798   -1.1241   53.8176 Cl      1  LIG1       -0.0797
     24 H          18.1337    0.4028   48.3316 H       1  LIG1        0.1671
     25 H          18.3176   -4.2327   49.9342 H       1  LIG1        0.0308
     26 H          16.6897   -4.9401   50.0728 H       1  LIG1        0.0308
     27 H          17.5586   -4.4093   51.5350 H       1  LIG1        0.0308
     28 H          10.2941   -0.8487   51.0892 H       1  LIG1        0.0648
     29 H          14.5693   -1.6226   53.5396 H       1  LIG1        0.0661
     30 H          17.6253    2.7124   47.7917 H       1  LIG1        0.0292
     31 H          16.7677    3.5435   49.1103 H       1  LIG1        0.0292
     32 H          15.8767    3.0140   47.6608 H       1  LIG1        0.0292
     33 H          13.1814   -1.8406   56.9570 H       1  LIG1        0.0660
     34 H          14.1556   -0.9073   55.8013 H       1  LIG1        0.0660
     35 H          13.9676   -2.6792   55.6029 H       1  LIG1        0.0660
@<TRIPOS>BOND
     1     1    15   ar
     2     1    16   ar
     3     2     5   ar
     4     2    15   ar
     5     2    24    1
     6     3     4   ar
     7     3    14   ar
     8     3    15   ar
     9     4     5   ar
    10     4    10    1
    11     5    17    1
    12     6    16    1
    13     6    25    1
    14     6    26    1
    15     6    27    1
    16     7     9   ar
    17     7    12   ar
    18     7    14    1
    19     8    12   ar
    20     8    13   ar
    21     8    28    1
    22     9    11   ar
    23     9    29    1
    24    10    19    3
    25    11    13   ar
    26    11    21    1
    27    12    22    1
    28    13    23    1
    29    14    20   ar
    30    16    20   ar
    31    17    30    1
    32    17    31    1
    33    17    32    1
    34    18    21    1
    35    18    33    1
    36    18    34    1
    37    18    35    1
