@<TRIPOS>MOLECULE
4XIP_40W_A_301
 42 44 0 0 0
SMALL
USER_CHARGES

@<TRIPOS>ATOM
      1 N          -1.6279  -10.5458  -26.2180 N.am    1  LIG1       -0.3253
      2 C           6.4999  -11.9891  -24.0794 C.ar    1  LIG1        0.0414
      3 C           7.6130  -12.9025  -24.3384 C.2     1  LIG1        0.1656
      4 C           7.2387  -14.3359  -24.7294 C.3     1  LIG1        0.0160
      5 C           5.9376  -14.4338  -25.5633 C.3     1  LIG1       -0.0225
      6 C           4.7675  -13.7162  -24.8405 C.3     1  LIG1       -0.0057
      7 C           6.1622  -13.8342  -26.9652 C.3     1  LIG1       -0.0591
      8 C           1.0451  -10.1411  -25.2126 C.ar    1  LIG1       -0.0477
      9 C           0.7548  -12.2440  -24.0392 C.ar    1  LIG1       -0.0477
     10 C          -1.2402  -11.1811  -25.0679 C.2     1  LIG1        0.2415
     11 O          -2.0497  -11.7409  -24.3439 O.2     1  LIG1       -0.2704
     12 C           0.2139  -11.1804  -24.7725 C.ar    1  LIG1        0.0366
     13 C           2.4122  -10.1717  -24.9365 C.ar    1  LIG1       -0.0371
     14 C           2.1283  -12.2926  -23.7850 C.ar    1  LIG1       -0.0371
     15 C           2.9541  -11.2595  -24.2442 C.ar    1  LIG1        0.0463
     16 N           4.3549  -11.3142  -24.0480 N.ar    1  LIG1       -0.3191
     17 C           5.1397  -10.2521  -23.6562 C.ar    1  LIG1        0.0137
     18 C           5.1923  -12.3856  -24.2970 C.ar    1  LIG1        0.0350
     19 C           5.5624  -15.9169  -25.7444 C.3     1  LIG1       -0.0591
     20 O           8.7881  -12.5724  -24.2152 O.2     1  LIG1       -0.2920
     21 C           6.4717  -10.6264  -23.6534 C.ar    1  LIG1       -0.0218
     22 C           7.6046   -9.7329  -23.2904 C.3     1  LIG1       -0.0376
     23 H          -2.6026  -10.5935  -26.4740 H       1  LIG1        0.1453
     24 H          -0.9729  -10.1945  -26.9007 H       1  LIG1        0.1453
     25 H           7.1344  -14.9102  -23.8010 H       1  LIG1        0.0350
     26 H           8.0749  -14.7657  -25.2933 H       1  LIG1        0.0350
     27 H           4.4296  -14.3318  -23.9962 H       1  LIG1        0.0333
     28 H           3.9282  -13.6065  -25.5352 H       1  LIG1        0.0333
     29 H           6.4404  -12.7765  -26.9209 H       1  LIG1        0.0235
     30 H           5.2556  -13.9139  -27.5752 H       1  LIG1        0.0235
     31 H           6.9629  -14.3652  -27.4934 H       1  LIG1        0.0235
     32 H           0.6411   -9.2981  -25.7648 H       1  LIG1        0.0626
     33 H           0.1080  -13.0399  -23.6766 H       1  LIG1        0.0626
     34 H           3.0442   -9.3728  -25.3182 H       1  LIG1        0.0638
     35 H           2.5273  -13.1173  -23.2013 H       1  LIG1        0.0638
     36 H           4.6893   -9.3074  -23.3727 H       1  LIG1        0.0816
     37 H           5.3927  -16.4039  -24.7777 H       1  LIG1        0.0235
     38 H           6.3566  -16.4681  -26.2603 H       1  LIG1        0.0235
     39 H           4.6449  -16.0212  -26.3352 H       1  LIG1        0.0235
     40 H           8.5733  -10.2275  -23.3789 H       1  LIG1        0.0278
     41 H           7.4988   -9.3822  -22.2587 H       1  LIG1        0.0278
     42 H           7.6151   -8.8539  -23.9434 H       1  LIG1        0.0278
@<TRIPOS>BOND
     1     1    10   am
     2     1    23    1
     3     1    24    1
     4     2     3    1
     5     2    18   ar
     6     2    21   ar
     7     3     4    1
     8     3    20    2
     9     4     5    1
    10     4    25    1
    11     4    26    1
    12     5     6    1
    13     5     7    1
    14     5    19    1
    15     6    18    1
    16     6    27    1
    17     6    28    1
    18     7    29    1
    19     7    30    1
    20     7    31    1
    21     8    12   ar
    22     8    13   ar
    23     8    32    1
    24     9    12   ar
    25     9    14   ar
    26     9    33    1
    27    10    11    2
    28    10    12    1
    29    13    15   ar
    30    13    34    1
    31    14    15   ar
    32    14    35    1
    33    15    16    1
    34    16    17   ar
    35    16    18   ar
    36    17    21   ar
    37    17    36    1
    38    19    37    1
    39    19    38    1
    40    19    39    1
    41    21    22    1
    42    22    40    1
    43    22    41    1
    44    22    42    1
