4XIR_40X_A_301
 OpenBabel03301717363D

 56 59  0  0  1  0  0  0  0  0999 V2000
   -2.4100  -11.5442  -24.0327 N   0  0  0  0  0  0  0  0  0  0  0  0
    4.2113   -8.6890  -23.1639 C   0  0  0  0  0  0  0  0  0  0  0  0
    4.8407   -9.9800  -23.5293 C   0  0  2  0  0  0  0  0  0  0  0  0
    6.1871  -10.2812  -23.5694 C   0  0  1  0  0  0  0  0  0  0  0  0
    6.2801  -11.6291  -24.0117 C   0  0  1  0  0  0  0  0  0  0  0  0
    4.9953  -12.0848  -24.2401 C   0  0  2  0  0  0  0  0  0  0  0  0
    1.9299  -12.1348  -23.6742 C   0  0  0  0  0  0  0  0  0  0  0  0
    0.6948   -9.9958  -24.9949 C   0  0  0  0  0  0  0  0  0  0  0  0
   -1.5252  -11.0897  -24.9750 C   0  0  0  0  0  0  0  0  0  0  0  0
    5.8301  -14.0986  -25.5324 C   0  0  0  0  0  0  0  0  0  0  0  0
    5.9816  -13.5156  -26.9371 C   0  0  0  0  0  0  0  0  0  0  0  0
    5.5346  -15.6004  -25.6752 C   0  0  0  0  0  0  0  0  0  0  0  0
    7.2950   -9.3319  -23.2622 C   0  0  0  0  0  0  0  0  0  0  0  0
    8.5811  -12.1175  -24.1636 O   0  0  0  0  0  0  0  0  0  0  0  0
    7.4252  -12.4886  -24.3013 C   0  0  0  0  0  0  0  0  0  0  0  0
    7.1267  -13.9212  -24.7345 C   0  0  0  0  0  0  0  0  0  0  0  0
    4.6500  -13.4299  -24.7975 C   0  0  0  0  0  0  0  0  0  0  0  0
    4.1033  -11.0676  -23.9549 N   0  3  2  0  0  0  0  0  0  0  0  0
    2.6959  -11.0635  -24.1216 C   0  0  1  0  0  0  0  0  0  0  0  0
    2.0769   -9.9756  -24.7477 C   0  0  1  0  0  0  0  0  0  0  0  0
   -0.0726  -11.1063  -24.5996 C   0  0  1  0  0  0  0  0  0  0  0  0
   -1.8962  -10.6604  -26.0322 O   0  0  0  0  0  0  0  0  0  0  0  0
    0.5571  -12.1695  -23.9417 C   0  0  1  0  0  0  0  0  0  0  0  0
   -0.2570  -13.6300  -23.5031 Cl  0  0  0  0  0  0  0  0  0  0  0  0
    2.8029   -8.9530  -25.2873 O   0  0  0  0  0  0  0  0  0  0  0  0
    3.4956   -8.0961  -24.3720 C   0  0  1  0  0  0  0  0  0  0  0  0
    2.6571   -6.8551  -24.0812 C   0  0  0  0  0  0  0  0  0  0  0  0
    3.4750   -5.5742  -24.2029 C   0  0  0  0  0  0  0  0  0  0  0  0
    3.9341   -5.2993  -25.6258 C   0  0  0  0  0  0  0  0  0  0  0  0
   -3.3998  -11.5310  -24.2638 H   0  0  0  0  0  0  0  0  0  0  0  0
   -2.1018  -11.9044  -23.1504 H   0  0  0  0  0  0  0  0  0  0  0  0
    5.0060   -7.9926  -22.8733 H   0  0  0  0  0  0  0  0  0  0  0  0
    3.5556   -8.7994  -22.2956 H   0  0  0  0  0  0  0  0  0  0  0  0
    2.3958  -12.9468  -23.1145 H   0  0  0  0  0  0  0  0  0  0  0  0
    0.2131   -9.1509  -25.4890 H   0  0  0  0  0  0  0  0  0  0  0  0
    6.8045  -13.9999  -27.4758 H   0  0  0  0  0  0  0  0  0  0  0  0
    6.1868  -12.4449  -26.8790 H   0  0  0  0  0  0  0  0  0  0  0  0
    5.0612  -13.6616  -27.5152 H   0  0  0  0  0  0  0  0  0  0  0  0
    6.3503  -16.1122  -26.2011 H   0  0  0  0  0  0  0  0  0  0  0  0
    4.6054  -15.7593  -26.2366 H   0  0  0  0  0  0  0  0  0  0  0  0
    5.4208  -16.0617  -24.6867 H   0  0  0  0  0  0  0  0  0  0  0  0
    6.9408   -8.3453  -22.9293 H   0  0  0  0  0  0  0  0  0  0  0  0
    7.8979   -9.1729  -24.1583 H   0  0  0  0  0  0  0  0  0  0  0  0
    7.9238   -9.7362  -22.4689 H   0  0  0  0  0  0  0  0  0  0  0  0
    7.9717  -14.2586  -25.3460 H   0  0  0  0  0  0  0  0  0  0  0  0
    7.0768  -14.5442  -23.8325 H   0  0  0  0  0  0  0  0  0  0  0  0
    3.8206  -13.3412  -25.4994 H   0  0  0  0  0  0  0  0  0  0  0  0
    4.3598  -14.0787  -23.9673 H   0  0  0  0  0  0  0  0  0  0  0  0
    4.3697   -7.7645  -24.9274 H   0  0  0  0  0  0  0  0  0  0  0  0
    2.2443   -6.8985  -23.0650 H   0  0  0  0  0  0  0  0  0  0  0  0
    1.8239   -6.8008  -24.7924 H   0  0  0  0  0  0  0  0  0  0  0  0
    4.3533   -5.6526  -23.5548 H   0  0  0  0  0  0  0  0  0  0  0  0
    2.8608   -4.7343  -23.8652 H   0  0  0  0  0  0  0  0  0  0  0  0
    4.5598   -6.1125  -26.0026 H   0  0  0  0  0  0  0  0  0  0  0  0
    4.5243   -4.3804  -25.6559 H   0  0  0  0  0  0  0  0  0  0  0  0
    3.0742   -5.1885  -26.2932 H   0  0  0  0  0  0  0  0  0  0  0  0
  1  9  1  0  0  0  0
  1 30  1  0  0  0  0
  1 31  1  0  0  0  0
  2 26  1  0  0  0  0
  2 32  1  0  0  0  0
  2 33  1  0  0  0  0
  3  2  1  6  0  0  0
  3  4  1  0  0  0  0
  4  5  1  0  0  0  0
  4 13  1  6  0  0  0
  5  6  1  0  0  0  0
  5 15  1  6  0  0  0
  6 17  1  6  0  0  0
  6 18  1  0  0  0  0
  7 23  1  0  0  0  0
  7 34  1  0  0  0  0
  8 21  1  0  0  0  0
  8 35  1  0  0  0  0
  9 22  2  0  0  0  0
 10 11  1  0  0  0  0
 10 12  1  0  0  0  0
 10 16  1  0  0  0  0
 10 17  1  0  0  0  0
 11 36  1  0  0  0  0
 11 37  1  0  0  0  0
 11 38  1  0  0  0  0
 12 39  1  0  0  0  0
 12 40  1  0  0  0  0
 12 41  1  0  0  0  0
 13 42  1  0  0  0  0
 13 43  1  0  0  0  0
 13 44  1  0  0  0  0
 14 15  2  0  0  0  0
 15 16  1  0  0  0  0
 16 45  1  0  0  0  0
 16 46  1  0  0  0  0
 17 47  1  0  0  0  0
 17 48  1  0  0  0  0
 18  3  1  6  0  0  0
 18 19  1  0  0  0  0
 19  7  1  6  0  0  0
 19 20  1  0  0  0  0
 20  8  1  6  0  0  0
 20 25  1  0  0  0  0
 21  9  1  6  0  0  0
 21 23  1  0  0  0  0
 23 24  1  6  0  0  0
 25 26  1  0  0  0  0
 26 27  1  0  0  0  0
 26 49  1  6  0  0  0
 27 28  1  0  0  0  0
 27 50  1  0  0  0  0
 27 51  1  0  0  0  0
 28 29  1  0  0  0  0
 28 52  1  0  0  0  0
 28 53  1  0  0  0  0
 29 54  1  0  0  0  0
 29 55  1  0  0  0  0
 29 56  1  0  0  0  0
M  CHG  1  18   1
M  END
$$$$
