@<TRIPOS>MOLECULE
4XIR_40X_A_301
 56 59 0 0 0
SMALL
USER_CHARGES

@<TRIPOS>ATOM
      1 N          -2.4100  -11.5442  -24.0327 N.am    1  LIG1       -0.3253
      2 C           4.2113   -8.6890  -23.1639 C.3     1  LIG1        0.0254
      3 C           4.8407   -9.9800  -23.5293 C.ar    1  LIG1        0.0312
      4 C           6.1871  -10.2812  -23.5694 C.ar    1  LIG1       -0.0185
      5 C           6.2801  -11.6291  -24.0117 C.ar    1  LIG1        0.0416
      6 C           4.9953  -12.0848  -24.2401 C.ar    1  LIG1        0.0354
      7 C           1.9299  -12.1348  -23.6742 C.ar    1  LIG1       -0.0152
      8 C           0.6948   -9.9958  -24.9949 C.ar    1  LIG1       -0.0043
      9 C          -1.5252  -11.0897  -24.9750 C.2     1  LIG1        0.2431
     10 C           5.8301  -14.0986  -25.5324 C.3     1  LIG1       -0.0225
     11 C           5.9816  -13.5156  -26.9371 C.3     1  LIG1       -0.0591
     12 C           5.5346  -15.6004  -25.6752 C.3     1  LIG1       -0.0591
     13 C           7.2950   -9.3319  -23.2622 C.3     1  LIG1       -0.0373
     14 O           8.5811  -12.1175  -24.1636 O.2     1  LIG1       -0.2920
     15 C           7.4252  -12.4886  -24.3013 C.2     1  LIG1        0.1657
     16 C           7.1267  -13.9212  -24.7345 C.3     1  LIG1        0.0160
     17 C           4.6500  -13.4299  -24.7975 C.3     1  LIG1       -0.0057
     18 N           4.1033  -11.0676  -23.9549 N.ar    1  LIG1       -0.3129
     19 C           2.6959  -11.0635  -24.1216 C.ar    1  LIG1        0.0899
     20 C           2.0769   -9.9756  -24.7477 C.ar    1  LIG1        0.1454
     21 C          -0.0726  -11.1063  -24.5996 C.ar    1  LIG1        0.0583
     22 O          -1.8962  -10.6604  -26.0322 O.2     1  LIG1       -0.2704
     23 C           0.5571  -12.1695  -23.9417 C.ar    1  LIG1        0.0552
     24 CL         -0.2570  -13.6300  -23.5031 Cl      1  LIG1       -0.0827
     25 O           2.8029   -8.9530  -25.2873 O.3     1  LIG1       -0.4864
     26 C           3.4956   -8.0961  -24.3720 C.3     1  LIG1        0.1056
     27 C           2.6571   -6.8551  -24.0812 C.3     1  LIG1       -0.0156
     28 C           3.4750   -5.5742  -24.2029 C.3     1  LIG1       -0.0526
     29 C           3.9341   -5.2993  -25.6258 C.3     1  LIG1       -0.0652
     30 H          -3.3998  -11.5310  -24.2638 H       1  LIG1        0.1453
     31 H          -2.1018  -11.9044  -23.1504 H       1  LIG1        0.1453
     32 H           5.0060   -7.9926  -22.8733 H       1  LIG1        0.0364
     33 H           3.5556   -8.7994  -22.2956 H       1  LIG1        0.0364
     34 H           2.3958  -12.9468  -23.1145 H       1  LIG1        0.0654
     35 H           0.2131   -9.1509  -25.4890 H       1  LIG1        0.0663
     36 H           6.8045  -13.9999  -27.4758 H       1  LIG1        0.0235
     37 H           6.1868  -12.4449  -26.8790 H       1  LIG1        0.0235
     38 H           5.0612  -13.6616  -27.5152 H       1  LIG1        0.0235
     39 H           6.3503  -16.1122  -26.2011 H       1  LIG1        0.0235
     40 H           4.6054  -15.7593  -26.2366 H       1  LIG1        0.0235
     41 H           5.4208  -16.0617  -24.6867 H       1  LIG1        0.0235
     42 H           6.9408   -8.3453  -22.9293 H       1  LIG1        0.0278
     43 H           7.8979   -9.1729  -24.1583 H       1  LIG1        0.0278
     44 H           7.9238   -9.7362  -22.4689 H       1  LIG1        0.0278
     45 H           7.9717  -14.2586  -25.3460 H       1  LIG1        0.0350
     46 H           7.0768  -14.5442  -23.8325 H       1  LIG1        0.0350
     47 H           3.8206  -13.3412  -25.4994 H       1  LIG1        0.0333
     48 H           4.3598  -14.0787  -23.9673 H       1  LIG1        0.0333
     49 H           4.3697   -7.7645  -24.9274 H       1  LIG1        0.0736
     50 H           2.2443   -6.8985  -23.0650 H       1  LIG1        0.0301
     51 H           1.8239   -6.8008  -24.7924 H       1  LIG1        0.0301
     52 H           4.3533   -5.6526  -23.5548 H       1  LIG1        0.0264
     53 H           2.8608   -4.7343  -23.8652 H       1  LIG1        0.0264
     54 H           4.5598   -6.1125  -26.0026 H       1  LIG1        0.0230
     55 H           4.5243   -4.3804  -25.6559 H       1  LIG1        0.0230
     56 H           3.0742   -5.1885  -26.2932 H       1  LIG1        0.0230
@<TRIPOS>BOND
     1     1     9   am
     2     1    30    1
     3     1    31    1
     4     2     3    1
     5     2    26    1
     6     2    32    1
     7     2    33    1
     8     3     4   ar
     9     3    18   ar
    10     4     5   ar
    11     4    13    1
    12     5     6   ar
    13     5    15    1
    14     6    17    1
    15     6    18   ar
    16     7    19   ar
    17     7    23   ar
    18     7    34    1
    19     8    20   ar
    20     8    21   ar
    21     8    35    1
    22     9    21    1
    23     9    22    2
    24    10    11    1
    25    10    12    1
    26    10    16    1
    27    10    17    1
    28    11    36    1
    29    11    37    1
    30    11    38    1
    31    12    39    1
    32    12    40    1
    33    12    41    1
    34    13    42    1
    35    13    43    1
    36    13    44    1
    37    14    15    2
    38    15    16    1
    39    16    45    1
    40    16    46    1
    41    17    47    1
    42    17    48    1
    43    18    19    1
    44    19    20   ar
    45    20    25    1
    46    21    23   ar
    47    23    24    1
    48    25    26    1
    49    26    27    1
    50    26    49    1
    51    27    28    1
    52    27    50    1
    53    27    51    1
    54    28    29    1
    55    28    52    1
    56    28    53    1
    57    29    54    1
    58    29    55    1
    59    29    56    1
