REMARK  1 active torsions:
REMARK  status: ('A' for Active; 'I' for Inactive)
REMARK       I    between atoms: N_1  and  C_12 
REMARK    1  A    between atoms: C_12  and  C_13 
ROOT
ATOM      1  C   LIG d   1       6.247 -11.738 -24.099  0.00  0.00     0.042 A 
ATOM      2  C   LIG d   1       7.392 -12.626 -24.322  0.00  0.00     0.166 C 
ATOM      3  C   LIG d   1       7.091 -14.078 -24.697  0.00  0.00     0.086 C 
ATOM      4  C   LIG d   1       5.812 -14.270 -25.515  0.00  0.00    -0.022 C 
ATOM      5  C   LIG d   1       4.627 -13.575 -24.811  0.00  0.00     0.061 C 
ATOM      6  C   LIG d   1       5.997 -13.721 -26.929  0.00  0.00     0.011 C 
ATOM      7  C   LIG d   1       0.481 -12.153 -24.030  0.00  0.00     0.015 A 
ATOM      8  C   LIG d   1       0.715 -10.116 -25.313  0.00  0.00     0.060 A 
ATOM      9  C   LIG d   1       3.291  -8.123 -24.629  0.00  0.00     0.235 C 
ATOM     10  C   LIG d   1      -0.091 -11.140 -24.808  0.00  0.00     0.040 A 
ATOM     11  C   LIG d   1       1.862 -12.172 -23.791  0.00  0.00     0.030 A 
ATOM     12  C   LIG d   1       2.084 -10.100 -25.032  0.00  0.00     0.145 A 
ATOM     13  O   LIG d   1       2.831  -9.087 -25.585  0.00  0.00    -0.489 OA
ATOM     14  C   LIG d   1       4.213  -8.671 -23.546  0.00  0.00     0.095 C 
ATOM     15  C   LIG d   1       4.807 -10.023 -23.795  0.00  0.00     0.031 A 
ATOM     16  C   LIG d   1       2.666 -11.155 -24.319  0.00  0.00     0.088 A 
ATOM     17  N   LIG d   1       4.073 -11.151 -24.119  0.00  0.00    -0.313 N 
ATOM     18  C   LIG d   1       4.961 -12.198 -24.317  0.00  0.00     0.035 A 
ATOM     19  C   LIG d   1       5.509 -15.771 -25.635  0.00  0.00     0.011 C 
ATOM     20  O   LIG d   1       8.557 -12.265 -24.197  0.00  0.00    -0.292 OA
ATOM     21  C   LIG d   1       6.149 -10.360 -23.751  0.00  0.00    -0.018 A 
ATOM     22  C   LIG d   1       7.266  -9.411 -23.459  0.00  0.00     0.046 C 
ENDROOT
BRANCH  10  23
ATOM     23  C   LIG d   1      -1.543 -11.139 -25.161  0.00  0.00     0.242 C 
ATOM     24  N   LIG d   1      -2.395 -11.655 -24.221  0.00  0.00    -0.325 N 
ATOM     25  H   LIG d   1      -3.389 -11.666 -24.431  0.00  0.00     0.145 HD
ATOM     26  H   LIG d   1      -2.062 -11.998 -23.340  0.00  0.00     0.145 HD
ATOM     27  O   LIG d   1      -1.936 -10.706 -26.212  0.00  0.00    -0.270 OA
ENDBRANCH  10  23
TORSDOF 1
