@<TRIPOS>MOLECULE
4XIQ_40Y_A_301
 47 50 0 0 0
SMALL
USER_CHARGES

@<TRIPOS>ATOM
      1 N          -2.3950  -11.6547  -24.2215 N.am    1  LIG1       -0.3253
      2 C           6.2475  -11.7379  -24.0990 C.ar    1  LIG1        0.0416
      3 C           7.3919  -12.6260  -24.3217 C.2     1  LIG1        0.1657
      4 C           7.0909  -14.0779  -24.6969 C.3     1  LIG1        0.0160
      5 C           5.8116  -14.2695  -25.5155 C.3     1  LIG1       -0.0225
      6 C           4.6269  -13.5752  -24.8105 C.3     1  LIG1       -0.0057
      7 C           5.9966  -13.7209  -26.9287 C.3     1  LIG1       -0.0591
      8 C           0.4813  -12.1534  -24.0303 C.ar    1  LIG1       -0.0475
      9 C           0.7151  -10.1164  -25.3132 C.ar    1  LIG1       -0.0058
     10 C           3.2906   -8.1233  -24.6287 C.3     1  LIG1        0.0950
     11 O          -1.9358  -10.7057  -26.2120 O.2     1  LIG1       -0.2704
     12 C          -1.5429  -11.1387  -25.1611 C.2     1  LIG1        0.2416
     13 C          -0.0906  -11.1396  -24.8077 C.ar    1  LIG1        0.0401
     14 C           1.8616  -12.1725  -23.7915 C.ar    1  LIG1       -0.0335
     15 C           2.0837  -10.1001  -25.0318 C.ar    1  LIG1        0.1449
     16 O           2.8311   -9.0866  -25.5849 O.3     1  LIG1       -0.4895
     17 C           4.2132   -8.6708  -23.5461 C.3     1  LIG1        0.0226
     18 C           4.8066  -10.0225  -23.7952 C.ar    1  LIG1        0.0309
     19 C           2.6663  -11.1553  -24.3189 C.ar    1  LIG1        0.0885
     20 N           4.0733  -11.1510  -24.1189 N.ar    1  LIG1       -0.3130
     21 C           4.9610  -12.1982  -24.3168 C.ar    1  LIG1        0.0354
     22 C           5.5094  -15.7709  -25.6349 C.3     1  LIG1       -0.0591
     23 O           8.5570  -12.2653  -24.1972 O.2     1  LIG1       -0.2920
     24 C           6.1486  -10.3604  -23.7508 C.ar    1  LIG1       -0.0185
     25 C           7.2655   -9.4112  -23.4595 C.3     1  LIG1       -0.0373
     26 H          -3.3894  -11.6659  -24.4311 H       1  LIG1        0.1453
     27 H          -2.0624  -11.9983  -23.3402 H       1  LIG1        0.1453
     28 H           7.0121  -14.6617  -23.7715 H       1  LIG1        0.0350
     29 H           7.9447  -14.4515  -25.2754 H       1  LIG1        0.0350
     30 H           4.3419  -14.1890  -23.9514 H       1  LIG1        0.0333
     31 H           3.7980  -13.5216  -25.5150 H       1  LIG1        0.0333
     32 H           6.2177  -12.6524  -26.8910 H       1  LIG1        0.0235
     33 H           5.0840  -13.8674  -27.5189 H       1  LIG1        0.0235
     34 H           6.8226  -14.2302  -27.4395 H       1  LIG1        0.0235
     35 H          -0.1363  -12.9524  -23.6291 H       1  LIG1        0.0626
     36 H           0.2703   -9.3166  -25.9010 H       1  LIG1        0.0662
     37 H           2.4328   -7.6295  -24.1456 H       1  LIG1        0.0700
     38 H           3.8328   -7.3312  -25.1747 H       1  LIG1        0.0700
     39 H           2.2860  -12.9600  -23.1732 H       1  LIG1        0.0640
     40 H           3.6570   -8.6731  -22.6021 H       1  LIG1        0.0361
     41 H           5.0413   -7.9586  -23.4316 H       1  LIG1        0.0361
     42 H           5.3720  -16.2114  -24.6402 H       1  LIG1        0.0235
     43 H           6.3327  -16.2965  -26.1345 H       1  LIG1        0.0235
     44 H           4.5919  -15.9333  -26.2142 H       1  LIG1        0.0235
     45 H           8.2153   -9.9370  -23.5145 H       1  LIG1        0.0278
     46 H           7.1671   -8.9790  -22.4547 H       1  LIG1        0.0278
     47 H           7.2850   -8.5870  -24.1866 H       1  LIG1        0.0278
@<TRIPOS>BOND
     1     1    12   am
     2     1    26    1
     3     1    27    1
     4     2     3    1
     5     2    21   ar
     6     2    24   ar
     7     3     4    1
     8     3    23    2
     9     4     5    1
    10     4    28    1
    11     4    29    1
    12     5     6    1
    13     5     7    1
    14     5    22    1
    15     6    21    1
    16     6    30    1
    17     6    31    1
    18     7    32    1
    19     7    33    1
    20     7    34    1
    21     8    13   ar
    22     8    14   ar
    23     8    35    1
    24     9    13   ar
    25     9    15   ar
    26     9    36    1
    27    10    16    1
    28    10    17    1
    29    10    37    1
    30    10    38    1
    31    11    12    2
    32    12    13    1
    33    14    19   ar
    34    14    39    1
    35    15    16    1
    36    15    19   ar
    37    17    18    1
    38    17    40    1
    39    17    41    1
    40    18    20   ar
    41    18    24   ar
    42    19    20    1
    43    20    21   ar
    44    22    42    1
    45    22    43    1
    46    22    44    1
    47    24    25    1
    48    25    45    1
    49    25    46    1
    50    25    47    1
