4XIQ_40Y_A_301
 OpenBabel03301717353D

 47 50  0  0  1  0  0  0  0  0999 V2000
   -2.3950  -11.6547  -24.2215 N   0  0  0  0  0  0  0  0  0  0  0  0
    6.2475  -11.7379  -24.0990 C   0  0  2  0  0  0  0  0  0  0  0  0
    7.3919  -12.6260  -24.3217 C   0  0  0  0  0  0  0  0  0  0  0  0
    7.0909  -14.0779  -24.6969 C   0  0  0  0  0  0  0  0  0  0  0  0
    5.8116  -14.2695  -25.5155 C   0  0  0  0  0  0  0  0  0  0  0  0
    4.6269  -13.5752  -24.8105 C   0  0  0  0  0  0  0  0  0  0  0  0
    5.9966  -13.7209  -26.9287 C   0  0  0  0  0  0  0  0  0  0  0  0
    0.4813  -12.1534  -24.0303 C   0  0  0  0  0  0  0  0  0  0  0  0
    0.7151  -10.1164  -25.3132 C   0  0  0  0  0  0  0  0  0  0  0  0
    3.2906   -8.1233  -24.6287 C   0  0  0  0  0  0  0  0  0  0  0  0
   -1.9358  -10.7057  -26.2120 O   0  0  0  0  0  0  0  0  0  0  0  0
   -1.5429  -11.1387  -25.1611 C   0  0  0  0  0  0  0  0  0  0  0  0
   -0.0906  -11.1396  -24.8077 C   0  0  1  0  0  0  0  0  0  0  0  0
    1.8616  -12.1725  -23.7915 C   0  0  0  0  0  0  0  0  0  0  0  0
    2.0837  -10.1001  -25.0318 C   0  0  2  0  0  0  0  0  0  0  0  0
    2.8311   -9.0866  -25.5849 O   0  0  0  0  0  0  0  0  0  0  0  0
    4.2132   -8.6708  -23.5461 C   0  0  0  0  0  0  0  0  0  0  0  0
    4.8066  -10.0225  -23.7952 C   0  0  1  0  0  0  0  0  0  0  0  0
    2.6663  -11.1553  -24.3189 C   0  0  1  0  0  0  0  0  0  0  0  0
    4.0733  -11.1510  -24.1189 N   0  3  1  0  0  0  0  0  0  0  0  0
    4.9610  -12.1982  -24.3168 C   0  0  2  0  0  0  0  0  0  0  0  0
    5.5094  -15.7709  -25.6349 C   0  0  0  0  0  0  0  0  0  0  0  0
    8.5570  -12.2653  -24.1972 O   0  0  0  0  0  0  0  0  0  0  0  0
    6.1486  -10.3604  -23.7508 C   0  0  2  0  0  0  0  0  0  0  0  0
    7.2655   -9.4112  -23.4595 C   0  0  0  0  0  0  0  0  0  0  0  0
   -3.3894  -11.6659  -24.4311 H   0  0  0  0  0  0  0  0  0  0  0  0
   -2.0624  -11.9983  -23.3402 H   0  0  0  0  0  0  0  0  0  0  0  0
    7.0121  -14.6617  -23.7715 H   0  0  0  0  0  0  0  0  0  0  0  0
    7.9447  -14.4515  -25.2754 H   0  0  0  0  0  0  0  0  0  0  0  0
    4.3419  -14.1890  -23.9514 H   0  0  0  0  0  0  0  0  0  0  0  0
    3.7980  -13.5216  -25.5150 H   0  0  0  0  0  0  0  0  0  0  0  0
    6.2177  -12.6524  -26.8910 H   0  0  0  0  0  0  0  0  0  0  0  0
    5.0840  -13.8674  -27.5189 H   0  0  0  0  0  0  0  0  0  0  0  0
    6.8226  -14.2302  -27.4395 H   0  0  0  0  0  0  0  0  0  0  0  0
   -0.1363  -12.9524  -23.6291 H   0  0  0  0  0  0  0  0  0  0  0  0
    0.2703   -9.3166  -25.9010 H   0  0  0  0  0  0  0  0  0  0  0  0
    2.4328   -7.6295  -24.1456 H   0  0  0  0  0  0  0  0  0  0  0  0
    3.8328   -7.3312  -25.1747 H   0  0  0  0  0  0  0  0  0  0  0  0
    2.2860  -12.9600  -23.1732 H   0  0  0  0  0  0  0  0  0  0  0  0
    3.6570   -8.6731  -22.6021 H   0  0  0  0  0  0  0  0  0  0  0  0
    5.0413   -7.9586  -23.4316 H   0  0  0  0  0  0  0  0  0  0  0  0
    5.3720  -16.2114  -24.6402 H   0  0  0  0  0  0  0  0  0  0  0  0
    6.3327  -16.2965  -26.1345 H   0  0  0  0  0  0  0  0  0  0  0  0
    4.5919  -15.9333  -26.2142 H   0  0  0  0  0  0  0  0  0  0  0  0
    8.2153   -9.9370  -23.5145 H   0  0  0  0  0  0  0  0  0  0  0  0
    7.1671   -8.9790  -22.4547 H   0  0  0  0  0  0  0  0  0  0  0  0
    7.2850   -8.5870  -24.1866 H   0  0  0  0  0  0  0  0  0  0  0  0
  1 12  1  0  0  0  0
  1 26  1  0  0  0  0
  1 27  1  0  0  0  0
  2  3  1  6  0  0  0
  2 21  1  0  0  0  0
  2 24  1  0  0  0  0
  3  4  1  0  0  0  0
  3 23  2  0  0  0  0
  4  5  1  0  0  0  0
  4 28  1  0  0  0  0
  4 29  1  0  0  0  0
  5  6  1  0  0  0  0
  5  7  1  0  0  0  0
  5 22  1  0  0  0  0
  6 30  1  0  0  0  0
  6 31  1  0  0  0  0
  7 32  1  0  0  0  0
  7 33  1  0  0  0  0
  7 34  1  0  0  0  0
  8 13  1  0  0  0  0
  8 14  1  0  0  0  0
  8 35  1  0  0  0  0
  9 13  1  0  0  0  0
  9 36  1  0  0  0  0
 10 16  1  0  0  0  0
 10 17  1  0  0  0  0
 10 37  1  0  0  0  0
 10 38  1  0  0  0  0
 11 12  2  0  0  0  0
 13 12  1  6  0  0  0
 14 39  1  0  0  0  0
 15  9  1  6  0  0  0
 15 16  1  0  0  0  0
 15 19  1  0  0  0  0
 17 40  1  0  0  0  0
 17 41  1  0  0  0  0
 18 17  1  6  0  0  0
 18 24  1  0  0  0  0
 19 14  1  1  0  0  0
 19 20  1  0  0  0  0
 20 18  1  6  0  0  0
 20 21  1  0  0  0  0
 21  6  1  6  0  0  0
 22 42  1  0  0  0  0
 22 43  1  0  0  0  0
 22 44  1  0  0  0  0
 24 25  1  6  0  0  0
 25 45  1  0  0  0  0
 25 46  1  0  0  0  0
 25 47  1  0  0  0  0
M  CHG  1  20   1
M  END
$$$$
