REMARK  3 active torsions:
REMARK  status: ('A' for Active; 'I' for Inactive)
REMARK    1  A    between atoms: N_1  and  C_21 
REMARK    2  A    between atoms: C_11  and  C_21 
REMARK    3  A    between atoms: C_14  and  C_17 
REMARK       I    between atoms: C_14  and  N_18 
ROOT
ATOM      1  N   LIG d   1       2.764  -8.830 -25.622  0.00  0.00    -0.321 N 
ATOM      2  C   LIG d   1       6.413 -11.610 -24.315  0.00  0.00     0.042 A 
ATOM      3  C   LIG d   1       7.553 -12.515 -24.485  0.00  0.00     0.166 C 
ATOM      4  C   LIG d   1       7.256 -13.969 -24.850  0.00  0.00     0.086 C 
ATOM      5  C   LIG d   1       6.008 -14.177 -25.708  0.00  0.00    -0.022 C 
ATOM      6  C   LIG d   1       4.806 -13.434 -25.090  0.00  0.00     0.061 C 
ATOM      7  C   LIG d   1       5.685 -15.679 -25.769  0.00  0.00     0.011 C 
ATOM      8  C   LIG d   1       0.739 -12.259 -24.176  0.00  0.00     0.055 A 
ATOM      9  C   LIG d   1       0.728 -10.118 -25.272  0.00  0.00     0.039 A 
ATOM     10  C   LIG d   1       3.597  -7.938 -24.822  0.00  0.00     0.111 C 
ATOM     11 CL   LIG d   1       0.015 -13.728 -23.635  0.00  0.00    -0.083 Cl
ATOM     12  C   LIG d   1       2.123 -12.149 -24.002  0.00  0.00     0.048 A 
ATOM     13  C   LIG d   1       0.025 -11.248 -24.820  0.00  0.00     0.057 A 
ATOM     14  C   LIG d   1       2.130  -9.959 -25.102  0.00  0.00     0.055 A 
ATOM     15  C   LIG d   1       4.303  -8.601 -23.648  0.00  0.00     0.073 C 
ATOM     16  C   LIG d   1       4.961  -9.903 -23.990  0.00  0.00     0.029 A 
ATOM     17  C   LIG d   1       2.817 -11.036 -24.498  0.00  0.00     0.069 A 
ATOM     18  N   LIG d   1       4.234 -11.012 -24.380  0.00  0.00    -0.314 N 
ATOM     19  C   LIG d   1       5.133 -12.057 -24.589  0.00  0.00     0.035 A 
ATOM     20  C   LIG d   1       6.256 -13.705 -27.138  0.00  0.00     0.011 C 
ATOM     21  O   LIG d   1       8.724 -12.165 -24.313  0.00  0.00    -0.292 OA
ATOM     22  C   LIG d   1       6.307 -10.238 -23.933  0.00  0.00    -0.019 A 
ATOM     23  C   LIG d   1       7.407  -9.309 -23.552  0.00  0.00     0.046 C 
ENDROOT
BRANCH   1  24
ATOM     24  C   LIG d   1       2.360  -8.429 -26.975  0.00  0.00     0.179 C 
BRANCH  24  25
ATOM     25  C   LIG d   1       3.082  -7.465 -27.851  0.00  0.00     0.122 A 
ATOM     26  C   LIG d   1       3.463  -6.151 -27.706  0.00  0.00     0.046 A 
ATOM     27  C   LIG d   1       3.992  -5.756 -28.941  0.00  0.00     0.041 A 
ATOM     28  C   LIG d   1       3.893  -6.817 -29.786  0.00  0.00     0.195 A 
ATOM     29  O   LIG d   1       3.334  -7.872 -29.146  0.00  0.00    -0.466 OA
ENDBRANCH  24  25
ENDBRANCH   1  24
BRANCH  13  30
ATOM     30  C   LIG d   1      -1.433 -11.289 -25.104  0.00  0.00     0.243 C 
ATOM     31  N   LIG d   1      -2.235 -11.790 -24.105  0.00  0.00    -0.325 N 
ATOM     32  H   LIG d   1      -3.234 -11.834 -24.265  0.00  0.00     0.145 HD
ATOM     33  H   LIG d   1      -1.842 -12.139 -23.249  0.00  0.00     0.145 HD
ATOM     34  O   LIG d   1      -1.893 -10.867 -26.128  0.00  0.00    -0.270 OA
ENDBRANCH  13  30
TORSDOF 3
