@<TRIPOS>MOLECULE
4XIT_40Z_A_301
 58 62 0 0 0
SMALL
USER_CHARGES

@<TRIPOS>ATOM
      1 N           2.7641   -8.8297  -25.6217 N.pl3   1  LIG1       -0.3206
      2 C           6.4133  -11.6099  -24.3149 C.ar    1  LIG1        0.0416
      3 C           7.5526  -12.5152  -24.4847 C.2     1  LIG1        0.1657
      4 C           7.2562  -13.9688  -24.8500 C.3     1  LIG1        0.0160
      5 C           6.0083  -14.1765  -25.7080 C.3     1  LIG1       -0.0225
      6 C           4.8061  -13.4336  -25.0897 C.3     1  LIG1       -0.0057
      7 C           5.6847  -15.6792  -25.7689 C.3     1  LIG1       -0.0591
      8 C           0.7388  -12.2591  -24.1761 C.ar    1  LIG1        0.0551
      9 C           0.7280  -10.1181  -25.2717 C.ar    1  LIG1       -0.0251
     10 C           3.5968   -7.9382  -24.8221 C.3     1  LIG1        0.0181
     11 C           3.0823   -7.4646  -27.8508 C.ar    1  LIG1        0.1220
     12 C           3.4633   -6.1508  -27.7063 C.ar    1  LIG1       -0.0191
     13 C           3.9923   -5.7556  -28.9414 C.ar    1  LIG1       -0.0236
     14 C          -1.4334  -11.2886  -25.1035 C.2     1  LIG1        0.2430
     15 CL          0.0151  -13.7282  -23.6348 Cl      1  LIG1       -0.0827
     16 C           2.1233  -12.1485  -24.0020 C.ar    1  LIG1       -0.0170
     17 C           0.0250  -11.2481  -24.8202 C.ar    1  LIG1        0.0566
     18 N          -2.2348  -11.7900  -24.1050 N.am    1  LIG1       -0.3253
     19 O          -1.8932  -10.8669  -26.1282 O.2     1  LIG1       -0.2704
     20 C           2.1299   -9.9591  -25.1023 C.ar    1  LIG1        0.0550
     21 C           2.3596   -8.4291  -26.9746 C.3     1  LIG1        0.0702
     22 O           3.3339   -7.8717  -29.1457 O.2     1  LIG1       -0.4662
     23 C           3.8932   -6.8173  -29.7858 C.ar    1  LIG1        0.0921
     24 C           4.3025   -8.6014  -23.6477 C.3     1  LIG1        0.0041
     25 C           4.9611   -9.9032  -23.9896 C.ar    1  LIG1        0.0292
     26 C           2.8175  -11.0358  -24.4985 C.ar    1  LIG1        0.0690
     27 N           4.2342  -11.0116  -24.3802 N.ar    1  LIG1       -0.3144
     28 C           5.1334  -12.0570  -24.5886 C.ar    1  LIG1        0.0353
     29 C           6.2565  -13.7051  -27.1382 C.3     1  LIG1       -0.0591
     30 O           8.7243  -12.1646  -24.3127 O.2     1  LIG1       -0.2920
     31 C           6.3070  -10.2381  -23.9330 C.ar    1  LIG1       -0.0186
     32 C           7.4067   -9.3091  -23.5521 C.3     1  LIG1       -0.0373
     33 H           7.1500  -14.5426  -23.9193 H       1  LIG1        0.0350
     34 H           8.1300  -14.3566  -25.3947 H       1  LIG1        0.0350
     35 H           4.4528  -14.0275  -24.2409 H       1  LIG1        0.0333
     36 H           4.0242  -13.3687  -25.8447 H       1  LIG1        0.0333
     37 H           5.5006  -16.0713  -24.7606 H       1  LIG1        0.0235
     38 H           6.5175  -16.2418  -26.2100 H       1  LIG1        0.0235
     39 H           4.7874  -15.8558  -26.3759 H       1  LIG1        0.0235
     40 H           0.1561   -9.3257  -25.7548 H       1  LIG1        0.0645
     41 H           2.9865   -7.1093  -24.4302 H       1  LIG1        0.0467
     42 H           4.3653   -7.4988  -25.4692 H       1  LIG1        0.0467
     43 H           3.3788   -5.5507  -26.8234 H       1  LIG1        0.0652
     44 H           4.4053   -4.7936  -29.2121 H       1  LIG1        0.0649
     45 H           2.6527  -12.9288  -23.4565 H       1  LIG1        0.0654
     46 H          -3.2337  -11.8337  -24.2654 H       1  LIG1        0.1453
     47 H          -1.8423  -12.1395  -23.2488 H       1  LIG1        0.1453
     48 H           1.3481   -8.0266  -26.9031 H       1  LIG1        0.0544
     49 H           2.3616   -9.3586  -27.5512 H       1  LIG1        0.0544
     50 H           4.1882   -6.8930  -30.8155 H       1  LIG1        0.1029
     51 H           3.5819   -8.7423  -22.8333 H       1  LIG1        0.0343
     52 H           5.0774   -7.9138  -23.2831 H       1  LIG1        0.0343
     53 H           6.4947  -12.6392  -27.1461 H       1  LIG1        0.0235
     54 H           5.3649  -13.8676  -27.7573 H       1  LIG1        0.0235
     55 H           7.0920  -14.2532  -27.5920 H       1  LIG1        0.0235
     56 H           8.3591   -9.8333  -23.6048 H       1  LIG1        0.0278
     57 H           7.2780   -8.9325  -22.5270 H       1  LIG1        0.0278
     58 H           7.4514   -8.4453  -24.2310 H       1  LIG1        0.0278
@<TRIPOS>BOND
     1     1    10    1
     2     1    20    1
     3     1    21    1
     4     2     3    1
     5     2    28   ar
     6     2    31   ar
     7     3     4    1
     8     3    30    2
     9     4     5    1
    10     4    33    1
    11     4    34    1
    12     5     6    1
    13     5     7    1
    14     5    29    1
    15     6    28    1
    16     6    35    1
    17     6    36    1
    18     7    37    1
    19     7    38    1
    20     7    39    1
    21     8    15    1
    22     8    16   ar
    23     8    17   ar
    24     9    17   ar
    25     9    20   ar
    26     9    40    1
    27    10    24    1
    28    10    41    1
    29    10    42    1
    30    11    12   ar
    31    11    21    1
    32    11    22   ar
    33    12    13   ar
    34    12    43    1
    35    13    23   ar
    36    13    44    1
    37    14    17    1
    38    14    18   am
    39    14    19    2
    40    16    26   ar
    41    16    45    1
    42    18    46    1
    43    18    47    1
    44    20    26   ar
    45    21    48    1
    46    21    49    1
    47    22    23   ar
    48    23    50    1
    49    24    25    1
    50    24    51    1
    51    24    52    1
    52    25    27   ar
    53    25    31   ar
    54    26    27    1
    55    27    28   ar
    56    29    53    1
    57    29    54    1
    58    29    55    1
    59    31    32    1
    60    32    56    1
    61    32    57    1
    62    32    58    1
