REMARK  1 active torsions:
REMARK  status: ('A' for Active; 'I' for Inactive)
REMARK    1  A    between atoms: C_1  and  N_8 
ROOT
ATOM      1  C   LIG d   1      32.146  10.079  -0.852  0.00  0.00     0.152 A 
ATOM      2  C   LIG d   1      33.216  10.716  -0.161  0.00  0.00     0.147 A 
ATOM      3  C   LIG d   1      34.463  10.695  -0.767  0.00  0.00     0.163 A 
ATOM      4  C   LIG d   1      33.736   9.585  -2.523  0.00  0.00     0.225 A 
ATOM      5  C   LIG d   1      34.560  11.763   1.158  0.00  0.00     0.198 A 
ATOM      6  N   LIG d   1      32.468   9.529  -2.065  0.00  0.00    -0.218 NA
ATOM      7  N   LIG d   1      34.807  10.147  -1.940  0.00  0.00    -0.216 NA
ATOM      8  N   LIG d   1      35.300  11.356   0.084  0.00  0.00    -0.329 N 
ATOM      9  N   LIG d   1      33.303  11.403   1.043  0.00  0.00    -0.231 NA
ATOM     10  H   LIG d   1      36.282  11.510  -0.073  0.00  0.00     0.168 HD
ENDROOT
BRANCH   1  11
ATOM     11  N   LIG d   1      30.841   9.992  -0.404  0.00  0.00    -0.320 N 
ATOM     12  C   LIG d   1      29.782   9.589  -1.311  0.00  0.00     0.130 C 
ATOM     13  C   LIG d   1      30.474  10.222   0.982  0.00  0.00     0.130 C 
ENDBRANCH   1  11
TORSDOF 1
