REMARK  1 active torsions:
REMARK  status: ('A' for Active; 'I' for Inactive)
REMARK    1  A    between atoms: C_1  and  N_8 
ROOT
ATOM      1  C   LIG d   1      -0.009   9.974  50.132  0.00  0.00     0.152 A 
ATOM      2  C   LIG d   1      -1.104  10.542  49.426  0.00  0.00     0.147 A 
ATOM      3  C   LIG d   1      -2.348  10.505  50.044  0.00  0.00     0.163 A 
ATOM      4  C   LIG d   1      -1.569   9.498  51.840  0.00  0.00     0.225 A 
ATOM      5  C   LIG d   1      -2.494  11.482  48.075  0.00  0.00     0.198 A 
ATOM      6  N   LIG d   1      -0.305   9.465  51.371  0.00  0.00    -0.218 NA
ATOM      7  N   LIG d   1      -2.663   9.998  51.241  0.00  0.00    -0.216 NA
ATOM      8  N   LIG d   1      -3.209  11.098  49.171  0.00  0.00    -0.329 N 
ATOM      9  N   LIG d   1      -1.222  11.170  48.193  0.00  0.00    -0.231 NA
ATOM     10  H   LIG d   1      -4.198  11.223  49.328  0.00  0.00     0.168 HD
ENDROOT
BRANCH   1  11
ATOM     11  N   LIG d   1       1.294   9.882  49.672  0.00  0.00    -0.320 N 
ATOM     12  C   LIG d   1       2.370   9.589  50.603  0.00  0.00     0.130 C 
ATOM     13  C   LIG d   1       1.677  10.198  48.308  0.00  0.00     0.130 C 
ENDBRANCH   1  11
TORSDOF 1
