@<TRIPOS>MOLECULE
3HZ1_42C_A_237
 21 22 0 0 0
SMALL
USER_CHARGES

@<TRIPOS>ATOM
      1 C           0.6857   10.0979   25.4630 C.ar    1  LIG1        0.1518
      2 C          -0.4519   10.6920   24.8254 C.ar    1  LIG1        0.1474
      3 C          -1.6101   10.8450   25.5783 C.ar    1  LIG1        0.1627
      4 C          -0.6951    9.9734   27.3819 C.ar    1  LIG1        0.1205
      5 C          -1.9244   11.6110   23.5335 C.ar    1  LIG1        0.0957
      6 C           3.0694    9.4090   25.6574 C.3     1  LIG1        0.0017
      7 C           2.0808    9.7719   23.4384 C.3     1  LIG1        0.0017
      8 N           1.9234    9.8610   24.8760 N.pl3   1  LIG1       -0.3195
      9 N           0.5029    9.7654   26.7839 N.ar    1  LIG1       -0.2185
     10 N          -1.8143   10.5039   26.8577 N.ar    1  LIG1       -0.2162
     11 N          -2.5363   11.4084   24.7397 N.ar    1  LIG1       -0.3292
     12 N          -0.6755   11.1980   23.5439 N.ar    1  LIG1       -0.2308
     13 H          -0.7631    9.6587   28.4208 H       1  LIG1        0.1048
     14 H          -2.4416   12.0605   22.6908 H       1  LIG1        0.1027
     15 H           2.9331    9.4811   26.7381 H       1  LIG1        0.0428
     16 H           3.9424   10.0255   25.4017 H       1  LIG1        0.0428
     17 H           3.3350    8.3732   25.4058 H       1  LIG1        0.0428
     18 H           1.2037   10.0737   22.8691 H       1  LIG1        0.0428
     19 H           2.3129    8.7406   23.1384 H       1  LIG1        0.0428
     20 H           2.9166   10.4028   23.1171 H       1  LIG1        0.0428
     21 H          -3.4918   11.6154   24.9798 H       1  LIG1        0.1682
@<TRIPOS>BOND
     1     1     2   ar
     2     1     8    1
     3     1     9   ar
     4     2     3   ar
     5     2    12   ar
     6     3    10   ar
     7     3    11   ar
     8     4     9   ar
     9     4    10   ar
    10     4    13    1
    11     5    11   ar
    12     5    12   ar
    13     5    14    1
    14     6     8    1
    15     6    15    1
    16     6    16    1
    17     6    17    1
    18     7     8    1
    19     7    18    1
    20     7    19    1
    21     7    20    1
    22    11    21    1
