@<TRIPOS>MOLECULE
3HYZ_42C_A_237
 21 22 0 0 0
SMALL
USER_CHARGES

@<TRIPOS>ATOM
      1 C          32.1463   10.0788   -0.8524 C.ar    1  LIG1        0.1518
      2 C          33.2159   10.7157   -0.1614 C.ar    1  LIG1        0.1474
      3 C          34.4631   10.6951   -0.7668 C.ar    1  LIG1        0.1627
      4 C          33.7363    9.5849   -2.5234 C.ar    1  LIG1        0.1205
      5 C          34.5605   11.7627    1.1578 C.ar    1  LIG1        0.0957
      6 C          29.7819    9.5887   -1.3112 C.3     1  LIG1        0.0017
      7 C          30.4744   10.2223    0.9815 C.3     1  LIG1        0.0017
      8 N          30.8409    9.9917   -0.4037 N.pl3   1  LIG1       -0.3195
      9 N          32.4675    9.5293   -2.0648 N.ar    1  LIG1       -0.2185
     10 N          34.8074   10.1470   -1.9397 N.ar    1  LIG1       -0.2162
     11 N          35.2995   11.3562    0.0841 N.ar    1  LIG1       -0.3292
     12 N          33.3027   11.4030    1.0429 N.ar    1  LIG1       -0.2308
     13 H          33.9103    9.1124   -3.4862 H       1  LIG1        0.1048
     14 H          34.9898   12.3128    1.9848 H       1  LIG1        0.1027
     15 H          30.1041    9.4334   -2.3460 H       1  LIG1        0.0428
     16 H          29.0068   10.3637   -1.3353 H       1  LIG1        0.0428
     17 H          29.3175    8.6599   -0.9642 H       1  LIG1        0.0428
     18 H          31.3096   10.4010    1.6581 H       1  LIG1        0.0428
     19 H          29.9560    9.3404    1.3755 H       1  LIG1        0.0428
     20 H          29.7907   11.0746    1.0523 H       1  LIG1        0.0428
     21 H          36.2825   11.5101   -0.0727 H       1  LIG1        0.1682
@<TRIPOS>BOND
     1     1     2   ar
     2     1     8    1
     3     1     9   ar
     4     2     3   ar
     5     2    12   ar
     6     3    10   ar
     7     3    11   ar
     8     4     9   ar
     9     4    10   ar
    10     4    13    1
    11     5    11   ar
    12     5    12   ar
    13     5    14    1
    14     6     8    1
    15     6    15    1
    16     6    16    1
    17     6    17    1
    18     7     8    1
    19     7    18    1
    20     7    19    1
    21     7    20    1
    22    11    21    1
