REMARK  1 active torsions:
REMARK  status: ('A' for Active; 'I' for Inactive)
REMARK    1  A    between atoms: C_1  and  N_8 
ROOT
ATOM      1  C   LIG d   1       0.686  10.098  25.463  0.00  0.00     0.152 A 
ATOM      2  C   LIG d   1      -0.452  10.692  24.825  0.00  0.00     0.147 A 
ATOM      3  C   LIG d   1      -1.610  10.845  25.578  0.00  0.00     0.163 A 
ATOM      4  C   LIG d   1      -0.695   9.973  27.382  0.00  0.00     0.225 A 
ATOM      5  C   LIG d   1      -1.924  11.611  23.534  0.00  0.00     0.198 A 
ATOM      6  N   LIG d   1       0.503   9.765  26.784  0.00  0.00    -0.218 NA
ATOM      7  N   LIG d   1      -1.814  10.504  26.858  0.00  0.00    -0.216 NA
ATOM      8  N   LIG d   1      -2.536  11.408  24.740  0.00  0.00    -0.329 N 
ATOM      9  N   LIG d   1      -0.675  11.198  23.544  0.00  0.00    -0.231 NA
ATOM     10  H   LIG d   1      -3.492  11.615  24.980  0.00  0.00     0.168 HD
ENDROOT
BRANCH   1  11
ATOM     11  N   LIG d   1       1.923   9.861  24.876  0.00  0.00    -0.320 N 
ATOM     12  C   LIG d   1       3.069   9.409  25.657  0.00  0.00     0.130 C 
ATOM     13  C   LIG d   1       2.081   9.772  23.438  0.00  0.00     0.130 C 
ENDBRANCH   1  11
TORSDOF 1
