@<TRIPOS>MOLECULE
4FCP_42C_A_301
 21 22 0 0 0
SMALL
USER_CHARGES

@<TRIPOS>ATOM
      1 C          -0.0090    9.9740   50.1321 C.ar    1  LIG1        0.1518
      2 C          -1.1037   10.5422   49.4257 C.ar    1  LIG1        0.1474
      3 C          -2.3475   10.5046   50.0436 C.ar    1  LIG1        0.1627
      4 C          -1.5694    9.4985   51.8396 C.ar    1  LIG1        0.1205
      5 C          -2.4936   11.4818   48.0747 C.ar    1  LIG1        0.0957
      6 C           2.3699    9.5891   50.6034 C.3     1  LIG1        0.0017
      7 C           1.6770   10.1979   48.3084 C.3     1  LIG1        0.0017
      8 N           1.2940    9.8823   49.6723 N.pl3   1  LIG1       -0.3195
      9 N          -0.3048    9.4649   51.3712 N.ar    1  LIG1       -0.2185
     10 N          -2.6633    9.9978   51.2410 N.ar    1  LIG1       -0.2162
     11 N          -3.2088   11.0979   49.1711 N.ar    1  LIG1       -0.3292
     12 N          -1.2222   11.1698   48.1926 N.ar    1  LIG1       -0.2308
     13 H          -1.7194    9.0653   52.8246 H       1  LIG1        0.1048
     14 H          -2.9461   11.9808   47.2286 H       1  LIG1        0.1027
     15 H           2.0468    9.3983   51.6311 H       1  LIG1        0.0428
     16 H           3.0684   10.4331   50.6394 H       1  LIG1        0.0428
     17 H           2.9249    8.7079   50.2645 H       1  LIG1        0.0428
     18 H           0.8492   10.3517   47.6168 H       1  LIG1        0.0428
     19 H           2.2586    9.3658   47.8946 H       1  LIG1        0.0428
     20 H           2.3096   11.0916   48.2883 H       1  LIG1        0.0428
     21 H          -4.1977   11.2229   49.3276 H       1  LIG1        0.1682
@<TRIPOS>BOND
     1     1     2   ar
     2     1     8    1
     3     1     9   ar
     4     2     3   ar
     5     2    12   ar
     6     3    10   ar
     7     3    11   ar
     8     4     9   ar
     9     4    10   ar
    10     4    13    1
    11     5    11   ar
    12     5    12   ar
    13     5    14    1
    14     6     8    1
    15     6    15    1
    16     6    16    1
    17     6    17    1
    18     7     8    1
    19     7    18    1
    20     7    19    1
    21     7    20    1
    22    11    21    1
