3HYZ_42C_A_237
 OpenBabel03301717173D

 21 22  0  0  0  0  0  0  0  0999 V2000
   32.1463   10.0788   -0.8524 C   0  0  0  0  0  0  0  0  0  0  0  0
   33.2159   10.7157   -0.1614 C   0  0  0  0  0  0  0  0  0  0  0  0
   34.4631   10.6951   -0.7668 C   0  0  0  0  0  0  0  0  0  0  0  0
   33.7363    9.5849   -2.5234 C   0  0  0  0  0  0  0  0  0  0  0  0
   34.5605   11.7627    1.1578 C   0  0  0  0  0  0  0  0  0  0  0  0
   29.7819    9.5887   -1.3112 C   0  0  0  0  0  0  0  0  0  0  0  0
   30.4744   10.2223    0.9815 C   0  0  0  0  0  0  0  0  0  0  0  0
   30.8409    9.9917   -0.4037 N   0  0  0  0  0  0  0  0  0  0  0  0
   32.4675    9.5293   -2.0648 N   0  0  0  0  0  0  0  0  0  0  0  0
   34.8074   10.1470   -1.9397 N   0  0  0  0  0  0  0  0  0  0  0  0
   35.2995   11.3562    0.0841 N   0  3  0  0  0  0  0  0  0  0  0  0
   33.3027   11.4030    1.0429 N   0  0  0  0  0  0  0  0  0  0  0  0
   33.9103    9.1124   -3.4862 H   0  0  0  0  0  0  0  0  0  0  0  0
   34.9898   12.3128    1.9848 H   0  0  0  0  0  0  0  0  0  0  0  0
   30.1041    9.4334   -2.3460 H   0  0  0  0  0  0  0  0  0  0  0  0
   29.0068   10.3637   -1.3353 H   0  0  0  0  0  0  0  0  0  0  0  0
   29.3175    8.6599   -0.9642 H   0  0  0  0  0  0  0  0  0  0  0  0
   31.3096   10.4010    1.6581 H   0  0  0  0  0  0  0  0  0  0  0  0
   29.9560    9.3404    1.3755 H   0  0  0  0  0  0  0  0  0  0  0  0
   29.7907   11.0746    1.0523 H   0  0  0  0  0  0  0  0  0  0  0  0
   36.2825   11.5101   -0.0727 H   0  0  0  0  0  0  0  0  0  0  0  0
  1  2  2  0  0  0  0
  1  8  1  0  0  0  0
  1  9  1  0  0  0  0
  2  3  1  0  0  0  0
  2 12  1  0  0  0  0
  3 10  2  0  0  0  0
  3 11  1  0  0  0  0
  4  9  2  0  0  0  0
  4 10  1  0  0  0  0
  4 13  1  0  0  0  0
  5 11  2  0  0  0  0
  5 12  1  0  0  0  0
  5 14  1  0  0  0  0
  6  8  1  0  0  0  0
  6 15  1  0  0  0  0
  6 16  1  0  0  0  0
  6 17  1  0  0  0  0
  7  8  1  0  0  0  0
  7 18  1  0  0  0  0
  7 19  1  0  0  0  0
  7 20  1  0  0  0  0
 11 21  1  0  0  0  0
M  CHG  1  11   1
M  END
$$$$
