3HZ1_42C_A_237
 OpenBabel03301717173D

 21 22  0  0  0  0  0  0  0  0999 V2000
    0.6857   10.0979   25.4630 C   0  0  0  0  0  0  0  0  0  0  0  0
   -0.4519   10.6920   24.8254 C   0  0  0  0  0  0  0  0  0  0  0  0
   -1.6101   10.8450   25.5783 C   0  0  0  0  0  0  0  0  0  0  0  0
   -0.6951    9.9734   27.3819 C   0  0  0  0  0  0  0  0  0  0  0  0
   -1.9244   11.6110   23.5335 C   0  0  0  0  0  0  0  0  0  0  0  0
    3.0694    9.4090   25.6574 C   0  0  0  0  0  0  0  0  0  0  0  0
    2.0808    9.7719   23.4384 C   0  0  0  0  0  0  0  0  0  0  0  0
    1.9234    9.8610   24.8760 N   0  0  0  0  0  0  0  0  0  0  0  0
    0.5029    9.7654   26.7839 N   0  0  0  0  0  0  0  0  0  0  0  0
   -1.8143   10.5039   26.8577 N   0  0  0  0  0  0  0  0  0  0  0  0
   -2.5363   11.4084   24.7397 N   0  3  0  0  0  0  0  0  0  0  0  0
   -0.6755   11.1980   23.5439 N   0  0  0  0  0  0  0  0  0  0  0  0
   -0.7631    9.6587   28.4208 H   0  0  0  0  0  0  0  0  0  0  0  0
   -2.4416   12.0605   22.6908 H   0  0  0  0  0  0  0  0  0  0  0  0
    2.9331    9.4811   26.7381 H   0  0  0  0  0  0  0  0  0  0  0  0
    3.9424   10.0255   25.4017 H   0  0  0  0  0  0  0  0  0  0  0  0
    3.3350    8.3732   25.4058 H   0  0  0  0  0  0  0  0  0  0  0  0
    1.2037   10.0737   22.8691 H   0  0  0  0  0  0  0  0  0  0  0  0
    2.3129    8.7406   23.1384 H   0  0  0  0  0  0  0  0  0  0  0  0
    2.9166   10.4028   23.1171 H   0  0  0  0  0  0  0  0  0  0  0  0
   -3.4918   11.6154   24.9798 H   0  0  0  0  0  0  0  0  0  0  0  0
  1  2  2  0  0  0  0
  1  8  1  0  0  0  0
  1  9  1  0  0  0  0
  2  3  1  0  0  0  0
  2 12  1  0  0  0  0
  3 10  2  0  0  0  0
  3 11  1  0  0  0  0
  4  9  2  0  0  0  0
  4 10  1  0  0  0  0
  4 13  1  0  0  0  0
  5 11  2  0  0  0  0
  5 12  1  0  0  0  0
  5 14  1  0  0  0  0
  6  8  1  0  0  0  0
  6 15  1  0  0  0  0
  6 16  1  0  0  0  0
  6 17  1  0  0  0  0
  7  8  1  0  0  0  0
  7 18  1  0  0  0  0
  7 19  1  0  0  0  0
  7 20  1  0  0  0  0
 11 21  1  0  0  0  0
M  CHG  1  11   1
M  END
$$$$
