REMARK  5 active torsions:
REMARK  status: ('A' for Active; 'I' for Inactive)
REMARK    1  A    between atoms: O_1  and  C_2 
REMARK    2  A    between atoms: C_4  and  O_5 
REMARK    3  A    between atoms: C_6  and  C_7 
REMARK    4  A    between atoms: C_10  and  C_11 
REMARK    5  A    between atoms: C_15  and  C_16 
ROOT
ATOM      1  C   LIG d   1      33.903  32.078  -3.112  0.00  0.00     0.130 A 
ATOM      2  C   LIG d   1      33.852  31.694  -1.779  0.00  0.00     0.091 A 
ATOM      3  C   LIG d   1      35.032  31.524  -1.056  0.00  0.00     0.123 A 
ATOM      4  C   LIG d   1      36.284  31.705  -1.659  0.00  0.00    -0.005 A 
ATOM      5  C   LIG d   1      36.317  32.144  -2.991  0.00  0.00     0.020 A 
ATOM      6  C   LIG d   1      35.133  32.329  -3.724  0.00  0.00     0.042 A 
ENDROOT
BRANCH   6   7
ATOM      7  C   LIG d   1      35.212  32.827  -5.083  0.00  0.00     0.078 A 
ATOM      8  N   LIG d   1      34.908  32.065  -6.182  0.00  0.00    -0.276 N 
ATOM      9  N   LIG d   1      35.046  32.719  -7.349  0.00  0.00    -0.181 NA
ATOM     10  H   LIG d   1      34.578  31.105  -6.201  0.00  0.00     0.189 HD
ATOM     11  C   LIG d   1      35.493  33.921  -6.986  0.00  0.00     0.144 A 
ATOM     12  C   LIG d   1      35.593  34.050  -5.591  0.00  0.00     0.045 A 
BRANCH  12  13
ATOM     13  C   LIG d   1      35.987  35.246  -4.826  0.00  0.00     0.069 A 
ATOM     14  C   LIG d   1      36.635  36.365  -5.314  0.00  0.00     0.138 A 
ATOM     15  N   LIG d   1      36.797  37.295  -4.324  0.00  0.00    -0.244 NA
ATOM     16  C   LIG d   1      36.249  36.763  -3.254  0.00  0.00     0.197 A 
ATOM     17  N   LIG d   1      35.770  35.510  -3.500  0.00  0.00    -0.344 N 
ATOM     18  H   LIG d   1      35.279  34.917  -2.842  0.00  0.00     0.167 HD
ENDBRANCH  12  13
ENDBRANCH   6   7
BRANCH   1  19
ATOM     19  O   LIG d   1      32.710  32.217  -3.762  0.00  0.00    -0.506 OA
ATOM     20  H   LIG d   1      32.855  32.619  -4.636  0.00  0.00     0.292 HD
ENDBRANCH   1  19
BRANCH   4  21
ATOM     21  C   LIG d   1      37.586  31.332  -0.990  0.00  0.00     0.035 C 
ATOM     22  C   LIG d   1      37.784  29.822  -1.040  0.00  0.00     0.009 C 
ENDBRANCH   4  21
BRANCH   3  23
ATOM     23  O   LIG d   1      34.884  31.167   0.253  0.00  0.00    -0.506 OA
ATOM     24  H   LIG d   1      35.744  31.188   0.698  0.00  0.00     0.292 HD
ENDBRANCH   3  23
TORSDOF 5
