@<TRIPOS>MOLECULE
1YC4_43P_A_301
 34 36 0 0 0
SMALL
USER_CHARGES

@<TRIPOS>ATOM
      1 O          32.7098   32.2172   -3.7624 O.3     1  LIG1       -0.5060
      2 C          33.9025   32.0776   -3.1120 C.ar    1  LIG1        0.1295
      3 C          33.8515   31.6939   -1.7787 C.ar    1  LIG1        0.0222
      4 C          35.0319   31.5244   -1.0557 C.ar    1  LIG1        0.1235
      5 O          34.8838   31.1674    0.2527 O.3     1  LIG1       -0.5064
      6 C          36.2843   31.7053   -1.6589 C.ar    1  LIG1       -0.0054
      7 C          37.5855   31.3325   -0.9903 C.3     1  LIG1       -0.0271
      8 C          37.7841   29.8216   -1.0395 C.3     1  LIG1       -0.0611
      9 C          36.3174   32.1442   -2.9915 C.ar    1  LIG1       -0.0424
     10 C          35.1332   32.3294   -3.7239 C.ar    1  LIG1        0.0423
     11 C          35.2125   32.8274   -5.0828 C.ar    1  LIG1        0.0784
     12 N          34.9079   32.0654   -6.1821 N.ar    1  LIG1       -0.2762
     13 N          35.0457   32.7188   -7.3493 N.ar    1  LIG1       -0.1811
     14 C          35.4934   33.9206   -6.9855 C.ar    1  LIG1        0.0589
     15 C          35.5933   34.0505   -5.5910 C.ar    1  LIG1        0.0449
     16 C          35.9866   35.2464   -4.8259 C.ar    1  LIG1        0.0694
     17 C          36.6354   36.3646   -5.3135 C.ar    1  LIG1        0.0532
     18 N          36.7965   37.2955   -4.3240 N.ar    1  LIG1       -0.2436
     19 C          36.2492   36.7630   -3.2536 C.ar    1  LIG1        0.0938
     20 N          35.7701   35.5103   -3.5000 N.ar    1  LIG1       -0.3443
     21 H          32.8549   32.6192   -4.6358 H       1  LIG1        0.2922
     22 H          32.8909   31.5228   -1.3002 H       1  LIG1        0.0691
     23 H          35.7439   31.1882    0.6984 H       1  LIG1        0.2921
     24 H          37.6115   31.6937    0.0434 H       1  LIG1        0.0312
     25 H          38.4282   31.8221   -1.4955 H       1  LIG1        0.0312
     26 H          36.9725   29.2942   -0.5262 H       1  LIG1        0.0233
     27 H          38.7269   29.5393   -0.5625 H       1  LIG1        0.0233
     28 H          37.8062   29.4632   -2.0752 H       1  LIG1        0.0233
     29 H          37.2770   32.3301   -3.4725 H       1  LIG1        0.0629
     30 H          34.5777   31.1045   -6.2013 H       1  LIG1        0.1889
     31 H          35.6929   34.6652   -7.7437 H       1  LIG1        0.0855
     32 H          36.9983   36.5337   -6.3136 H       1  LIG1        0.0851
     33 H          36.1668   37.2347   -2.2838 H       1  LIG1        0.1027
     34 H          35.2789   34.9175   -2.8417 H       1  LIG1        0.1668
@<TRIPOS>BOND
     1     1     2    1
     2     1    21    1
     3     2     3   ar
     4     2    10   ar
     5     3     4   ar
     6     3    22    1
     7     4     5    1
     8     4     6   ar
     9     5    23    1
    10     6     7    1
    11     6     9   ar
    12     7     8    1
    13     7    24    1
    14     7    25    1
    15     8    26    1
    16     8    27    1
    17     8    28    1
    18     9    10   ar
    19     9    29    1
    20    10    11    1
    21    11    12   ar
    22    11    15   ar
    23    12    13   ar
    24    12    30    1
    25    13    14   ar
    26    14    15   ar
    27    14    31    1
    28    15    16    1
    29    16    17   ar
    30    16    20   ar
    31    17    18   ar
    32    17    32    1
    33    18    19   ar
    34    19    20   ar
    35    19    33    1
    36    20    34    1
