@<TRIPOS>MOLECULE
1YC3_4BC_A_237
 42 45 0 0 0
SMALL
USER_CHARGES

@<TRIPOS>ATOM
      1 C          11.2459    4.1588   15.6337 C.ar    1  LIG1        0.0000
      2 C          11.2539    3.2773   16.6933 C.ar    1  LIG1        0.0000
      3 O          10.4248    3.3207   17.7730 O.3     1  LIG1        0.0000
      4 C          10.9201    2.2026   18.5348 C.3     1  LIG1        0.0000
      5 O          11.9643    1.4641   17.8704 O.3     1  LIG1        0.0000
      6 C          12.1268    2.2134   16.7454 C.ar    1  LIG1        0.0000
      7 C          13.0371    1.9682   15.7410 C.ar    1  LIG1        0.0000
      8 C          13.0336    2.8293   14.6434 C.ar    1  LIG1        0.0000
      9 C          12.1485    3.9268   14.5843 C.ar    1  LIG1        0.0000
     10 C          12.1110    4.7365   13.3760 C.ar    1  LIG1        0.0000
     11 C          13.1355    5.4348   12.6654 C.ar    1  LIG1        0.0000
     12 C          14.5616    5.5740   13.1674 C.2     1  LIG1        0.0000
     13 O          15.4201    6.1001   12.3764 O.co2   1  LIG1       -0.5000
     14 O          14.8309    5.1602   14.3443 O.co2   1  LIG1       -0.5000
     15 N          12.6497    5.9366   11.5022 N.ar    1  LIG1        0.0000
     16 C          10.9724    4.8580   12.5894 C.ar    1  LIG1        0.0000
     17 N          11.3517    5.6191   11.5253 N.ar    1  LIG1        0.0000
     18 C           9.6427    4.2799   12.7296 C.ar    1  LIG1        0.0000
     19 C           9.5547    2.9182   13.0520 C.ar    1  LIG1        0.0000
     20 C           8.3334    2.3136   13.3357 C.ar    1  LIG1        0.0000
     21 C           8.3127    0.8432   13.6599 C.3     1  LIG1        0.0000
     22 C           7.7610    0.0495   12.4871 C.3     1  LIG1        0.0000
     23 C           7.1817    3.0988   13.2699 C.ar    1  LIG1        0.0000
     24 O           5.9850    2.5096   13.5660 O.3     1  LIG1        0.0000
     25 C           7.2336    4.4487   12.9068 C.ar    1  LIG1        0.0000
     26 C           8.4692    5.0325   12.6291 C.ar    1  LIG1        0.0000
     27 O           8.5420    6.3529   12.2753 O.3     1  LIG1        0.0000
     28 H          10.5465    4.9857   15.5966 H       1  LIG1        0.0000
     29 H          10.0872    1.5204   18.7427 H       1  LIG1        0.0000
     30 H          11.3058    2.5738   19.4916 H       1  LIG1        0.0000
     31 H          13.7417    1.1484   15.7903 H       1  LIG1        0.0000
     32 H          13.7387    2.6687   13.8291 H       1  LIG1        0.0000
     33 H          10.7690    5.9171   10.7517 H       1  LIG1        0.0000
     34 H          10.4673    2.3265   13.1173 H       1  LIG1        0.0000
     35 H           7.7257    0.6659   14.5676 H       1  LIG1        0.0000
     36 H           9.3279    0.4873   13.8838 H       1  LIG1        0.0000
     37 H           6.7349    0.3494   12.2534 H       1  LIG1        0.0000
     38 H           7.7583   -1.0195   12.7150 H       1  LIG1        0.0000
     39 H           8.3664    0.2098   11.5881 H       1  LIG1        0.0000
     40 H           5.2840    3.1720   13.4862 H       1  LIG1        0.0000
     41 H           6.3264    5.0376   12.8518 H       1  LIG1        0.0000
     42 H           7.6659    6.7590   12.3568 H       1  LIG1        0.0000
@<TRIPOS>BOND
     1     1     2   ar
     2     1     9   ar
     3     1    28    1
     4     2     3    1
     5     2     6   ar
     6     3     4    1
     7     4     5    1
     8     4    29    1
     9     4    30    1
    10     5     6    1
    11     6     7   ar
    12     7     8   ar
    13     7    31    1
    14     8     9   ar
    15     8    32    1
    16     9    10    1
    17    10    11   ar
    18    10    16   ar
    19    11    12    1
    20    11    15   ar
    21    12    13   ar
    22    12    14   ar
    23    15    17   ar
    24    16    17   ar
    25    16    18    1
    26    17    33    1
    27    18    19   ar
    28    18    26   ar
    29    19    20   ar
    30    19    34    1
    31    20    21    1
    32    20    23   ar
    33    21    22    1
    34    21    35    1
    35    21    36    1
    36    22    37    1
    37    22    38    1
    38    22    39    1
    39    23    24    1
    40    23    25   ar
    41    24    40    1
    42    25    26   ar
    43    25    41    1
    44    26    27    1
    45    27    42    1
