REMARK  6 active torsions:
REMARK  status: ('A' for Active; 'I' for Inactive)
REMARK    1  A    between atoms: C_9  and  C_10 
REMARK    2  A    between atoms: C_11  and  C_12 
REMARK    3  A    between atoms: C_16  and  C_18 
REMARK    4  A    between atoms: C_20  and  C_21 
REMARK    5  A    between atoms: C_23  and  O_24 
REMARK    6  A    between atoms: C_26  and  O_27 
ROOT
ATOM      1  C   LIG d   1      12.111   4.737  13.376  0.00  0.00     0.000 A 
ATOM      2  C   LIG d   1      13.136   5.435  12.665  0.00  0.00     0.000 A 
ATOM      3  N   LIG d   1      12.650   5.937  11.502  0.00  0.00     0.000 NA
ATOM      4  C   LIG d   1      10.972   4.858  12.589  0.00  0.00     0.000 A 
ATOM      5  N   LIG d   1      11.352   5.619  11.525  0.00  0.00     0.000 N 
ATOM      6  H   LIG d   1      10.769   5.917  10.752  0.00  0.00     0.000 HD
ENDROOT
BRANCH   4   7
ATOM      7  C   LIG d   1       9.643   4.280  12.730  0.00  0.00     0.000 A 
ATOM      8  C   LIG d   1       9.555   2.918  13.052  0.00  0.00     0.000 A 
ATOM      9  C   LIG d   1       8.333   2.314  13.336  0.00  0.00     0.000 A 
ATOM     10  C   LIG d   1       7.182   3.099  13.270  0.00  0.00     0.000 A 
ATOM     11  C   LIG d   1       7.234   4.449  12.907  0.00  0.00     0.000 A 
ATOM     12  C   LIG d   1       8.469   5.032  12.629  0.00  0.00     0.000 A 
BRANCH   9  13
ATOM     13  C   LIG d   1       8.313   0.843  13.660  0.00  0.00     0.000 C 
ATOM     14  C   LIG d   1       7.761   0.050  12.487  0.00  0.00     0.000 C 
ENDBRANCH   9  13
BRANCH  10  15
ATOM     15  O   LIG d   1       5.985   2.510  13.566  0.00  0.00     0.000 OA
ATOM     16  H   LIG d   1       5.284   3.172  13.486  0.00  0.00     0.000 HD
ENDBRANCH  10  15
BRANCH  12  17
ATOM     17  O   LIG d   1       8.542   6.353  12.275  0.00  0.00     0.000 OA
ATOM     18  H   LIG d   1       7.666   6.759  12.357  0.00  0.00     0.000 HD
ENDBRANCH  12  17
ENDBRANCH   4   7
BRANCH   1  19
ATOM     19  C   LIG d   1      12.149   3.927  14.584  0.00  0.00     0.000 A 
ATOM     20  C   LIG d   1      11.246   4.159  15.634  0.00  0.00     0.000 A 
ATOM     21  C   LIG d   1      11.254   3.277  16.693  0.00  0.00     0.000 A 
ATOM     22  O   LIG d   1      10.425   3.321  17.773  0.00  0.00     0.000 OA
ATOM     23  C   LIG d   1      12.127   2.213  16.745  0.00  0.00     0.000 A 
ATOM     24  C   LIG d   1      10.920   2.203  18.535  0.00  0.00     0.000 A 
ATOM     25  O   LIG d   1      11.964   1.464  17.870  0.00  0.00     0.000 OA
ATOM     26  C   LIG d   1      13.037   1.968  15.741  0.00  0.00     0.000 A 
ATOM     27  C   LIG d   1      13.034   2.829  14.643  0.00  0.00     0.000 A 
ENDBRANCH   1  19
BRANCH   2  28
ATOM     28  C   LIG d   1      14.562   5.574  13.167  0.00  0.00     0.000 C 
ATOM     29  O   LIG d   1      15.420   6.100  12.376  0.00  0.00    -0.500 OA
ATOM     30  O   LIG d   1      14.831   5.160  14.344  0.00  0.00    -0.500 OA
ENDBRANCH   2  28
TORSDOF 6
