@<TRIPOS>MOLECULE
1YC1_4BC_A_401
 42 45 0 0 0
SMALL
USER_CHARGES

@<TRIPOS>ATOM
      1 C           2.2670   35.5521   -4.3790 C.ar    1  LIG1        0.0000
      2 C           2.9297   36.3083   -3.4382 C.ar    1  LIG1        0.0000
      3 O           4.2770   36.4667   -3.3521 O.3     1  LIG1        0.0000
      4 C           4.3686   37.3704   -2.2370 C.3     1  LIG1        0.0000
      5 O           3.0968   37.6776   -1.6283 O.3     1  LIG1        0.0000
      6 C           2.2554   36.9916   -2.4500 C.ar    1  LIG1        0.0000
      7 C           0.8830   36.9465   -2.3363 C.ar    1  LIG1        0.0000
      8 C           0.1842   36.1842   -3.2769 C.ar    1  LIG1        0.0000
      9 C           0.8690   35.4968   -4.3047 C.ar    1  LIG1        0.0000
     10 C           0.1297   34.6669   -5.2403 C.ar    1  LIG1        0.0000
     11 C           0.0121   34.7033   -6.6643 C.ar    1  LIG1        0.0000
     12 C           0.6608   35.7593   -7.5429 C.2     1  LIG1        0.0000
     13 O           0.7082   35.5366   -8.8010 O.co2   1  LIG1       -0.5000
     14 O           1.1240   36.8023   -6.9772 O.co2   1  LIG1       -0.5000
     15 N          -0.7434   33.6709   -7.1074 N.ar    1  LIG1        0.0000
     16 C          -0.5632   33.5333   -4.8477 C.ar    1  LIG1        0.0000
     17 N          -1.1234   33.0442   -5.9879 N.ar    1  LIG1        0.0000
     18 C          -0.7241   32.8935   -3.5436 C.ar    1  LIG1        0.0000
     19 C           0.4226   32.6662   -2.7676 C.ar    1  LIG1        0.0000
     20 C           0.3346   32.1656   -1.4642 C.ar    1  LIG1        0.0000
     21 C           1.6044   31.8606   -0.7140 C.3     1  LIG1        0.0000
     22 C           1.9519   30.3845   -0.8499 C.3     1  LIG1        0.0000
     23 C          -0.9313   31.9148   -0.9354 C.ar    1  LIG1        0.0000
     24 O          -1.0255   31.4917    0.3622 O.3     1  LIG1        0.0000
     25 C          -2.0839   32.0742   -1.7086 C.ar    1  LIG1        0.0000
     26 C          -1.9712   32.5398   -3.0197 C.ar    1  LIG1        0.0000
     27 O          -3.0854   32.6569   -3.8055 O.3     1  LIG1        0.0000
     28 H           2.8086   35.0309   -5.1606 H       1  LIG1        0.0000
     29 H           4.8348   38.3032   -2.5746 H       1  LIG1        0.0000
     30 H           5.0114   36.9156   -1.4754 H       1  LIG1        0.0000
     31 H           0.3640   37.4835   -1.5532 H       1  LIG1        0.0000
     32 H          -0.9003   36.1203   -3.2182 H       1  LIG1        0.0000
     33 H          -1.7462   32.2549   -6.0696 H       1  LIG1        0.0000
     34 H           1.4026   32.8874   -3.1893 H       1  LIG1        0.0000
     35 H           1.5024   32.1363    0.3403 H       1  LIG1        0.0000
     36 H           2.4320   32.4674   -1.1059 H       1  LIG1        0.0000
     37 H           1.1570   29.7500   -0.4467 H       1  LIG1        0.0000
     38 H           2.8767   30.1590   -0.3095 H       1  LIG1        0.0000
     39 H           2.0960   30.1075   -1.9011 H       1  LIG1        0.0000
     40 H          -1.9530   31.5519    0.6402 H       1  LIG1        0.0000
     41 H          -3.0562   31.8304   -1.2962 H       1  LIG1        0.0000
     42 H          -3.8744   32.4369   -3.2873 H       1  LIG1        0.0000
@<TRIPOS>BOND
     1     1     2   ar
     2     1     9   ar
     3     1    28    1
     4     2     3    1
     5     2     6   ar
     6     3     4    1
     7     4     5    1
     8     4    29    1
     9     4    30    1
    10     5     6    1
    11     6     7   ar
    12     7     8   ar
    13     7    31    1
    14     8     9   ar
    15     8    32    1
    16     9    10    1
    17    10    11   ar
    18    10    16   ar
    19    11    12    1
    20    11    15   ar
    21    12    13   ar
    22    12    14   ar
    23    15    17   ar
    24    16    17   ar
    25    16    18    1
    26    17    33    1
    27    18    19   ar
    28    18    26   ar
    29    19    20   ar
    30    19    34    1
    31    20    21    1
    32    20    23   ar
    33    21    22    1
    34    21    35    1
    35    21    36    1
    36    22    37    1
    37    22    38    1
    38    22    39    1
    39    23    24    1
    40    23    25   ar
    41    24    40    1
    42    25    26   ar
    43    25    41    1
    44    26    27    1
    45    27    42    1
