REMARK  6 active torsions:
REMARK  status: ('A' for Active; 'I' for Inactive)
REMARK    1  A    between atoms: C_9  and  C_10 
REMARK    2  A    between atoms: C_11  and  C_12 
REMARK    3  A    between atoms: C_16  and  C_18 
REMARK    4  A    between atoms: C_20  and  C_21 
REMARK    5  A    between atoms: C_23  and  O_24 
REMARK    6  A    between atoms: C_26  and  O_27 
ROOT
ATOM      1  C   LIG d   1       0.130  34.667  -5.240  0.00  0.00     0.000 A 
ATOM      2  C   LIG d   1       0.012  34.703  -6.664  0.00  0.00     0.000 A 
ATOM      3  N   LIG d   1      -0.743  33.671  -7.107  0.00  0.00     0.000 NA
ATOM      4  C   LIG d   1      -0.563  33.533  -4.848  0.00  0.00     0.000 A 
ATOM      5  N   LIG d   1      -1.123  33.044  -5.988  0.00  0.00     0.000 N 
ATOM      6  H   LIG d   1      -1.746  32.255  -6.070  0.00  0.00     0.000 HD
ENDROOT
BRANCH   4   7
ATOM      7  C   LIG d   1      -0.724  32.894  -3.544  0.00  0.00     0.000 A 
ATOM      8  C   LIG d   1       0.423  32.666  -2.768  0.00  0.00     0.000 A 
ATOM      9  C   LIG d   1       0.335  32.166  -1.464  0.00  0.00     0.000 A 
ATOM     10  C   LIG d   1      -0.931  31.915  -0.935  0.00  0.00     0.000 A 
ATOM     11  C   LIG d   1      -2.084  32.074  -1.709  0.00  0.00     0.000 A 
ATOM     12  C   LIG d   1      -1.971  32.540  -3.020  0.00  0.00     0.000 A 
BRANCH   9  13
ATOM     13  C   LIG d   1       1.604  31.861  -0.714  0.00  0.00     0.000 C 
ATOM     14  C   LIG d   1       1.952  30.384  -0.850  0.00  0.00     0.000 C 
ENDBRANCH   9  13
BRANCH  10  15
ATOM     15  O   LIG d   1      -1.026  31.492   0.362  0.00  0.00     0.000 OA
ATOM     16  H   LIG d   1      -1.953  31.552   0.640  0.00  0.00     0.000 HD
ENDBRANCH  10  15
BRANCH  12  17
ATOM     17  O   LIG d   1      -3.085  32.657  -3.805  0.00  0.00     0.000 OA
ATOM     18  H   LIG d   1      -3.874  32.437  -3.287  0.00  0.00     0.000 HD
ENDBRANCH  12  17
ENDBRANCH   4   7
BRANCH   1  19
ATOM     19  C   LIG d   1       0.869  35.497  -4.305  0.00  0.00     0.000 A 
ATOM     20  C   LIG d   1       2.267  35.552  -4.379  0.00  0.00     0.000 A 
ATOM     21  C   LIG d   1       2.930  36.308  -3.438  0.00  0.00     0.000 A 
ATOM     22  O   LIG d   1       4.277  36.467  -3.352  0.00  0.00     0.000 OA
ATOM     23  C   LIG d   1       2.255  36.992  -2.450  0.00  0.00     0.000 A 
ATOM     24  C   LIG d   1       4.369  37.370  -2.237  0.00  0.00     0.000 A 
ATOM     25  O   LIG d   1       3.097  37.678  -1.628  0.00  0.00     0.000 OA
ATOM     26  C   LIG d   1       0.883  36.947  -2.336  0.00  0.00     0.000 A 
ATOM     27  C   LIG d   1       0.184  36.184  -3.277  0.00  0.00     0.000 A 
ENDBRANCH   1  19
BRANCH   2  28
ATOM     28  C   LIG d   1       0.661  35.759  -7.543  0.00  0.00     0.000 C 
ATOM     29  O   LIG d   1       0.708  35.537  -8.801  0.00  0.00    -0.500 OA
ATOM     30  O   LIG d   1       1.124  36.802  -6.977  0.00  0.00    -0.500 OA
ENDBRANCH   2  28
TORSDOF 6
