@<TRIPOS>MOLECULE
2CCS_4BH_A_1224
 36 38 0 0 0
SMALL
USER_CHARGES

@<TRIPOS>ATOM
      1 CL         33.4248   12.3506   23.1075 Cl      1  LIG1        0.0000
      2 C          31.8727   11.7685   23.5897 C.ar    1  LIG1        0.0000
      3 C          30.7351   12.0061   22.8289 C.ar    1  LIG1        0.0000
      4 O          30.8534   12.6971   21.6551 O.3     1  LIG1        0.0000
      5 C          29.4965   11.5088   23.2427 C.ar    1  LIG1        0.0000
      6 C          29.4097   10.7512   24.4133 C.ar    1  LIG1        0.0000
      7 O          28.1689   10.2579   24.7171 O.3     1  LIG1        0.0000
      8 C          31.7883   10.9952   24.7486 C.ar    1  LIG1        0.0000
      9 C          30.5533   10.4696   25.1689 C.ar    1  LIG1        0.0000
     10 C          30.5423    9.5205   26.2768 C.ar    1  LIG1        0.0000
     11 N          29.7565    9.6228   27.3995 N.ar    1  LIG1        0.0000
     12 N          29.9109    8.6022   28.2621 N.ar    1  LIG1        0.0000
     13 C          30.8879    7.8658   27.7144 C.ar    1  LIG1        0.0000
     14 C          31.3015    8.3879   26.4790 C.ar    1  LIG1        0.0000
     15 N          32.2685    7.9227   25.6371 N.pl3   1  LIG1        0.0000
     16 C          31.8155    7.3625   24.3452 C.3     1  LIG1        0.0000
     17 C          32.9802    7.1793   23.3614 C.3     1  LIG1        0.0000
     18 C          33.4862    7.3755   26.2575 C.3     1  LIG1        0.0000
     19 C          34.6175    7.1991   25.2358 C.3     1  LIG1        0.0000
     20 N          34.1253    6.4583   24.0231 N.4     1  LIG1        1.0000
     21 H          29.9797   12.8226   21.2518 H       1  LIG1        0.0000
     22 H          28.6018   11.6733   22.6525 H       1  LIG1        0.0000
     23 H          28.1989    9.6850   25.5043 H       1  LIG1        0.0000
     24 H          32.6940   10.7687   25.3060 H       1  LIG1        0.0000
     25 H          29.0711   10.3384   27.6257 H       1  LIG1        0.0000
     26 H          31.2163    6.9728   28.2205 H       1  LIG1        0.0000
     27 H          31.0916    8.0327   23.8681 H       1  LIG1        0.0000
     28 H          31.3064    6.4029   24.5036 H       1  LIG1        0.0000
     29 H          33.3689    8.1453   23.0220 H       1  LIG1        0.0000
     30 H          32.6800    6.5819   22.4956 H       1  LIG1        0.0000
     31 H          33.2794    6.4224   26.7607 H       1  LIG1        0.0000
     32 H          33.8408    8.0840   27.0176 H       1  LIG1        0.0000
     33 H          35.4436    6.6202   25.6591 H       1  LIG1        0.0000
     34 H          34.9910    8.1671   24.8851 H       1  LIG1        0.0000
     35 H          34.8953    6.3515   23.3513 H       1  LIG1        0.0000
     36 H          33.8277    5.5116   24.2922 H       1  LIG1        0.0000
@<TRIPOS>BOND
     1     1     2    1
     2     2     3   ar
     3     2     8   ar
     4     3     4    1
     5     3     5   ar
     6     4    21    1
     7     5     6   ar
     8     5    22    1
     9     6     7    1
    10     6     9   ar
    11     7    23    1
    12     8     9   ar
    13     8    24    1
    14     9    10    1
    15    10    11   ar
    16    10    14   ar
    17    11    12   ar
    18    11    25    1
    19    12    13   ar
    20    13    14   ar
    21    13    26    1
    22    14    15    1
    23    15    16    1
    24    15    18    1
    25    16    17    1
    26    16    27    1
    27    16    28    1
    28    17    20    1
    29    17    29    1
    30    17    30    1
    31    18    19    1
    32    18    31    1
    33    18    32    1
    34    19    20    1
    35    19    33    1
    36    19    34    1
    37    20    35    1
    38    20    36    1
