REMARK  4 active torsions:
REMARK  status: ('A' for Active; 'I' for Inactive)
REMARK    1  A    between atoms: C_3  and  O_4 
REMARK    2  A    between atoms: C_6  and  O_7 
REMARK    3  A    between atoms: C_9  and  C_10 
REMARK    4  A    between atoms: C_14  and  N_15 
ROOT
ATOM      1  C   LIG d   1      30.542   9.521  26.277  0.00  0.00     0.000 A 
ATOM      2  N   LIG d   1      29.756   9.623  27.399  0.00  0.00     0.000 N 
ATOM      3  N   LIG d   1      29.911   8.602  28.262  0.00  0.00     0.000 NA
ATOM      4  C   LIG d   1      30.888   7.866  27.714  0.00  0.00     0.000 A 
ATOM      5  C   LIG d   1      31.302   8.388  26.479  0.00  0.00     0.000 A 
ATOM      6  H   LIG d   1      29.071  10.338  27.626  0.00  0.00     0.000 HD
ENDROOT
BRANCH   1   7
ATOM      7  C   LIG d   1      30.553  10.470  25.169  0.00  0.00     0.000 A 
ATOM      8  C   LIG d   1      29.410  10.751  24.413  0.00  0.00     0.000 A 
ATOM      9  C   LIG d   1      29.497  11.509  23.243  0.00  0.00     0.000 A 
ATOM     10  C   LIG d   1      30.735  12.006  22.829  0.00  0.00     0.000 A 
ATOM     11  C   LIG d   1      31.873  11.768  23.590  0.00  0.00     0.000 A 
ATOM     12 CL   LIG d   1      33.425  12.351  23.108  0.00  0.00     0.000 Cl
ATOM     13  C   LIG d   1      31.788  10.995  24.749  0.00  0.00     0.000 A 
BRANCH   8  14
ATOM     14  O   LIG d   1      28.169  10.258  24.717  0.00  0.00     0.000 OA
ATOM     15  H   LIG d   1      28.199   9.685  25.504  0.00  0.00     0.000 HD
ENDBRANCH   8  14
BRANCH  10  16
ATOM     16  O   LIG d   1      30.853  12.697  21.655  0.00  0.00     0.000 OA
ATOM     17  H   LIG d   1      29.980  12.823  21.252  0.00  0.00     0.000 HD
ENDBRANCH  10  16
ENDBRANCH   1   7
BRANCH   5  18
ATOM     18  N   LIG d   1      32.269   7.923  25.637  0.00  0.00     0.000 N 
ATOM     19  C   LIG d   1      31.816   7.362  24.345  0.00  0.00     0.000 C 
ATOM     20  C   LIG d   1      32.980   7.179  23.361  0.00  0.00     0.000 C 
ATOM     21  N   LIG d   1      34.125   6.458  24.023  0.00  0.00     1.000 N 
ATOM     22  C   LIG d   1      34.617   7.199  25.236  0.00  0.00     0.000 C 
ATOM     23  H   LIG d   1      34.895   6.351  23.351  0.00  0.00     0.000 HD
ATOM     24  H   LIG d   1      33.828   5.512  24.292  0.00  0.00     0.000 HD
ATOM     25  C   LIG d   1      33.486   7.375  26.258  0.00  0.00     0.000 C 
ENDBRANCH   5  18
TORSDOF 4
