REMARK  4 active torsions:
REMARK  status: ('A' for Active; 'I' for Inactive)
REMARK       I    between atoms: N_1  and  C_22 
REMARK    1  A    between atoms: C_2  and  C_3 
REMARK    2  A    between atoms: C_9  and  O_20 
REMARK    3  A    between atoms: C_10  and  O_19 
REMARK    4  A    between atoms: C_16  and  C_22 
ROOT
ATOM      1  N   LIG d   1      67.522  78.939  22.818  0.00  0.00    -0.290 N 
ATOM      2  C   LIG d   1      68.015  79.850  23.864  0.00  0.00     0.107 C 
ATOM      3  C   LIG d   1      67.847  81.253  23.244  0.00  0.00     0.029 C 
ATOM      4  C   LIG d   1      67.943  81.027  21.740  0.00  0.00     0.021 C 
ATOM      5  C   LIG d   1      67.385  79.626  21.537  0.00  0.00     0.109 C 
ATOM      6  C   LIG d   1      67.015  77.640  22.954  0.00  0.00     0.251 C 
ATOM      7  O   LIG d   1      66.551  77.015  22.010  0.00  0.00    -0.270 OA
ENDROOT
BRANCH   6   8
ATOM      8  C   LIG d   1      67.068  76.958  24.282  0.00  0.00     0.080 A 
ATOM      9  C   LIG d   1      68.294  76.470  24.755  0.00  0.00     0.040 A 
ATOM     10  C   LIG d   1      68.357  75.793  25.980  0.00  0.00     0.083 A 
ATOM     11  C   LIG d   1      67.193  75.568  26.725  0.00  0.00     0.139 A 
ATOM     12 CL   LIG d   1      69.895  75.251  26.549  0.00  0.00    -0.080 Cl
ATOM     13  C   LIG d   1      65.961  76.006  26.242  0.00  0.00     0.093 A 
ATOM     14  C   LIG d   1      65.901  76.693  25.018  0.00  0.00     0.133 A 
BRANCH  11  15
ATOM     15  O   LIG d   1      67.269  74.920  27.931  0.00  0.00    -0.505 OA
ATOM     16  H   LIG d   1      66.392  74.834  28.336  0.00  0.00     0.292 HD
ENDBRANCH  11  15
BRANCH  14  17
ATOM     17  O   LIG d   1      64.686  77.127  24.563  0.00  0.00    -0.506 OA
ATOM     18  H   LIG d   1      63.979  76.839  25.165  0.00  0.00     0.292 HD
ENDBRANCH  14  17
ENDBRANCH   6   8
BRANCH   2  19
ATOM     19  C   LIG d   1      69.465  79.625  24.307  0.00  0.00    -0.024 A 
ATOM     20  C   LIG d   1      70.407  79.056  23.425  0.00  0.00     0.006 A 
ATOM     21  C   LIG d   1      71.734  78.839  23.817  0.00  0.00     0.000 A 
ATOM     22  C   LIG d   1      72.166  79.198  25.088  0.00  0.00     0.000 A 
ATOM     23  C   LIG d   1      71.259  79.790  25.970  0.00  0.00     0.003 A 
ATOM     24  C   LIG d   1      69.920  80.013  25.597  0.00  0.00    -0.045 A 
ATOM     25  C   LIG d   1      69.039  80.669  26.634  0.00  0.00     0.044 C 
ENDBRANCH   2  19
TORSDOF 4
