@<TRIPOS>MOLECULE
3K97_4CD_A_901
 41 43 0 0 0
SMALL
USER_CHARGES

@<TRIPOS>ATOM
      1 N          67.5224   78.9388   22.8180 N.am    1  LIG1       -0.2903
      2 C          68.0148   79.8504   23.8638 C.3     1  LIG1        0.0518
      3 C          69.4651   79.6246   24.3067 C.ar    1  LIG1       -0.0241
      4 C          70.4070   79.0565   23.4250 C.ar    1  LIG1       -0.0565
      5 C          71.7335   78.8388   23.8171 C.ar    1  LIG1       -0.0614
      6 C          72.1659   79.1985   25.0878 C.ar    1  LIG1       -0.0615
      7 C          69.9202   80.0125   25.5967 C.ar    1  LIG1       -0.0455
      8 C          68.2936   76.4701   24.7554 C.ar    1  LIG1       -0.0242
      9 C          67.1930   75.5677   26.7252 C.ar    1  LIG1        0.1386
     10 C          65.9014   76.6927   25.0183 C.ar    1  LIG1        0.1325
     11 C          67.8472   81.2532   23.2443 C.3     1  LIG1       -0.0287
     12 C          67.9430   81.0274   21.7400 C.3     1  LIG1       -0.0351
     13 C          67.3850   79.6263   21.5369 C.3     1  LIG1        0.0157
     14 C          71.2588   79.7905   25.9702 C.ar    1  LIG1       -0.0585
     15 C          69.0391   80.6693   26.6338 C.3     1  LIG1       -0.0394
     16 C          67.0679   76.9578   24.2821 C.ar    1  LIG1        0.0798
     17 C          68.3566   75.7925   25.9799 C.ar    1  LIG1        0.0832
     18 C          65.9609   76.0057   26.2419 C.ar    1  LIG1        0.0235
     19 O          64.6859   77.1267   24.5633 O.3     1  LIG1       -0.5059
     20 O          67.2690   74.9199   27.9308 O.3     1  LIG1       -0.5052
     21 H          66.3925   74.8336   28.3356 H       1  LIG1        0.2922
     22 C          67.0146   77.6402   22.9541 C.2     1  LIG1        0.2507
     23 O          66.5511   77.0149   22.0102 O.2     1  LIG1       -0.2698
     24 CL         69.8953   75.2505   26.5485 Cl      1  LIG1       -0.0797
     25 H          67.3574   79.7220   24.7275 H       1  LIG1        0.0550
     26 H          70.1137   78.7545   22.4199 H       1  LIG1        0.0621
     27 H          72.4346   78.3780   23.1216 H       1  LIG1        0.0618
     28 H          73.1927   79.0301   25.3933 H       1  LIG1        0.0618
     29 H          69.2000   76.6093   24.1747 H       1  LIG1        0.0642
     30 H          68.5886   81.9844   23.5849 H       1  LIG1        0.0287
     31 H          66.8544   81.6595   23.4766 H       1  LIG1        0.0287
     32 H          68.9875   81.0759   21.4136 H       1  LIG1        0.0281
     33 H          67.3880   81.7796   21.1674 H       1  LIG1        0.0281
     34 H          66.3299   79.6622   21.2380 H       1  LIG1        0.0465
     35 H          67.9423   79.0837   20.7674 H       1  LIG1        0.0465
     36 H          71.6128   80.0788   26.9619 H       1  LIG1        0.0620
     37 H          68.0178   80.8386   26.2893 H       1  LIG1        0.0278
     38 H          69.4427   81.6485   26.9114 H       1  LIG1        0.0278
     39 H          68.9833   80.0418   27.5293 H       1  LIG1        0.0278
     40 H          65.0558   75.8234   26.8128 H       1  LIG1        0.0691
     41 H          63.9790   76.8394   25.1654 H       1  LIG1        0.2922
@<TRIPOS>BOND
     1     1     2    1
     2     1    13    1
     3     1    22   am
     4     2     3    1
     5     2    11    1
     6     2    25    1
     7     3     4   ar
     8     3     7   ar
     9     4     5   ar
    10     4    26    1
    11     5     6   ar
    12     5    27    1
    13     6    14   ar
    14     6    28    1
    15     7    14   ar
    16     7    15    1
    17     8    16   ar
    18     8    17   ar
    19     8    29    1
    20     9    17   ar
    21     9    18   ar
    22     9    20    1
    23    10    16   ar
    24    10    18   ar
    25    10    19    1
    26    11    12    1
    27    11    30    1
    28    11    31    1
    29    12    13    1
    30    12    32    1
    31    12    33    1
    32    13    34    1
    33    13    35    1
    34    14    36    1
    35    15    37    1
    36    15    38    1
    37    15    39    1
    38    16    22    1
    39    17    24    1
    40    18    40    1
    41    19    41    1
    42    20    21    1
    43    22    23    2
