@<TRIPOS>MOLECULE
4YKQ_4EO_A_301
 34 36 0 0 0
SMALL
USER_CHARGES

@<TRIPOS>ATOM
      1 O           2.8806   33.9424   27.9151 O.2     1  LIG1       -0.2462
      2 C           2.5283   35.0200   27.4563 C.ar    1  LIG1        0.3322
      3 N           2.4554   36.2158   28.2023 N.ar    1  LIG1       -0.3057
      4 C           1.9815   37.2352   27.3837 C.ar    1  LIG1        0.0674
      5 C           1.7208   36.7029   26.1174 C.ar    1  LIG1        0.0749
      6 C           1.2799   37.5099   25.0878 C.ar    1  LIG1       -0.0357
      7 C           1.1026   38.8701   25.3647 C.ar    1  LIG1       -0.0597
      8 C           1.3591   39.3947   26.6507 C.ar    1  LIG1       -0.0597
      9 C           1.8023   38.5674   27.6865 C.ar    1  LIG1       -0.0362
     10 N           2.0508   35.3372   26.1655 N.ar    1  LIG1       -0.2574
     11 C           1.9614   34.4684   25.0767 C.ar    1  LIG1        0.0933
     12 C           0.6994   34.1738   24.5418 C.ar    1  LIG1       -0.0275
     13 C           3.0942   33.8759   24.5073 C.ar    1  LIG1        0.1442
     14 O           4.3363   34.1843   24.9908 O.3     1  LIG1       -0.5046
     15 C           2.9663   33.0388   23.3984 C.ar    1  LIG1        0.0236
     16 C           1.7026   32.7794   22.8583 C.ar    1  LIG1        0.1236
     17 O           1.6948   31.9832   21.7484 O.3     1  LIG1       -0.5064
     18 C           0.5463   33.3252   23.4285 C.ar    1  LIG1       -0.0040
     19 C          -0.8543   33.0627   22.9321 C.3     1  LIG1       -0.0270
     20 C          -1.6581   32.1897   23.8850 C.3     1  LIG1       -0.0611
     21 H           2.7218   36.2800   29.1697 H       1  LIG1        0.1705
     22 H           1.1014   37.1205   24.0928 H       1  LIG1        0.0639
     23 H           0.7727   39.5425   24.5746 H       1  LIG1        0.0618
     24 H           1.2211   40.4596   26.8319 H       1  LIG1        0.0618
     25 H           2.0103   38.9650   28.6718 H       1  LIG1        0.0639
     26 H          -0.1817   34.5887   25.0287 H       1  LIG1        0.0643
     27 H           5.0027   33.6771   24.5008 H       1  LIG1        0.2922
     28 H           3.8381   32.5954   22.9261 H       1  LIG1        0.0691
     29 H           0.8017   31.9221   21.3855 H       1  LIG1        0.2921
     30 H          -0.8610   32.5936   21.9455 H       1  LIG1        0.0312
     31 H          -1.3598   34.0266   22.7967 H       1  LIG1        0.0312
     32 H          -1.1811   31.2141   24.0258 H       1  LIG1        0.0233
     33 H          -2.6621   32.0249   23.4812 H       1  LIG1        0.0233
     34 H          -1.7658   32.6588   24.8685 H       1  LIG1        0.0233
@<TRIPOS>BOND
     1     1     2    2
     2     2     3   ar
     3     2    10   ar
     4     3     4   ar
     5     3    21    1
     6     4     5   ar
     7     4     9   ar
     8     5     6   ar
     9     5    10   ar
    10     6     7   ar
    11     6    22    1
    12     7     8   ar
    13     7    23    1
    14     8     9   ar
    15     8    24    1
    16     9    25    1
    17    10    11    1
    18    11    12   ar
    19    11    13   ar
    20    12    18   ar
    21    12    26    1
    22    13    14    1
    23    13    15   ar
    24    14    27    1
    25    15    16   ar
    26    15    28    1
    27    16    17    1
    28    16    18   ar
    29    17    29    1
    30    18    19    1
    31    19    20    1
    32    19    30    1
    33    19    31    1
    34    20    32    1
    35    20    33    1
    36    20    34    1
