4YKQ_4EO_A_301
 OpenBabel03301717363D

 34 36  0  0  0  0  0  0  0  0999 V2000
    2.8806   33.9424   27.9151 O   0  0  0  0  0  0  0  0  0  0  0  0
    2.5283   35.0200   27.4563 C   0  0  0  0  0  0  0  0  0  0  0  0
    2.4554   36.2158   28.2023 N   0  3  0  0  0  0  0  0  0  0  0  0
    1.9815   37.2352   27.3837 C   0  0  0  0  0  0  0  0  0  0  0  0
    1.7208   36.7029   26.1174 C   0  0  0  0  0  0  0  0  0  0  0  0
    1.2799   37.5099   25.0878 C   0  0  0  0  0  0  0  0  0  0  0  0
    1.1026   38.8701   25.3647 C   0  0  0  0  0  0  0  0  0  0  0  0
    1.3591   39.3947   26.6507 C   0  0  0  0  0  0  0  0  0  0  0  0
    1.8023   38.5674   27.6865 C   0  0  0  0  0  0  0  0  0  0  0  0
    2.0508   35.3372   26.1655 N   0  3  0  0  0  0  0  0  0  0  0  0
    1.9614   34.4684   25.0767 C   0  0  0  0  0  0  0  0  0  0  0  0
    0.6994   34.1738   24.5418 C   0  0  0  0  0  0  0  0  0  0  0  0
    3.0942   33.8759   24.5073 C   0  0  0  0  0  0  0  0  0  0  0  0
    4.3363   34.1843   24.9908 O   0  0  0  0  0  0  0  0  0  0  0  0
    2.9663   33.0388   23.3984 C   0  0  0  0  0  0  0  0  0  0  0  0
    1.7026   32.7794   22.8583 C   0  0  0  0  0  0  0  0  0  0  0  0
    1.6948   31.9832   21.7484 O   0  0  0  0  0  0  0  0  0  0  0  0
    0.5463   33.3252   23.4285 C   0  0  0  0  0  0  0  0  0  0  0  0
   -0.8543   33.0627   22.9321 C   0  0  0  0  0  0  0  0  0  0  0  0
   -1.6581   32.1897   23.8850 C   0  0  0  0  0  0  0  0  0  0  0  0
    2.7218   36.2800   29.1697 H   0  0  0  0  0  0  0  0  0  0  0  0
    1.1014   37.1205   24.0928 H   0  0  0  0  0  0  0  0  0  0  0  0
    0.7727   39.5425   24.5746 H   0  0  0  0  0  0  0  0  0  0  0  0
    1.2211   40.4596   26.8319 H   0  0  0  0  0  0  0  0  0  0  0  0
    2.0103   38.9650   28.6718 H   0  0  0  0  0  0  0  0  0  0  0  0
   -0.1817   34.5887   25.0287 H   0  0  0  0  0  0  0  0  0  0  0  0
    5.0027   33.6771   24.5008 H   0  0  0  0  0  0  0  0  0  0  0  0
    3.8381   32.5954   22.9261 H   0  0  0  0  0  0  0  0  0  0  0  0
    0.8017   31.9221   21.3855 H   0  0  0  0  0  0  0  0  0  0  0  0
   -0.8610   32.5936   21.9455 H   0  0  0  0  0  0  0  0  0  0  0  0
   -1.3598   34.0266   22.7967 H   0  0  0  0  0  0  0  0  0  0  0  0
   -1.1811   31.2141   24.0258 H   0  0  0  0  0  0  0  0  0  0  0  0
   -2.6621   32.0249   23.4812 H   0  0  0  0  0  0  0  0  0  0  0  0
   -1.7658   32.6588   24.8685 H   0  0  0  0  0  0  0  0  0  0  0  0
  1  2  2  0  0  0  0
  2  3  1  0  0  0  0
  2 10  1  0  0  0  0
  3  4  1  0  0  0  0
  3 21  1  0  0  0  0
  4  5  2  0  0  0  0
  4  9  1  0  0  0  0
  5  6  1  0  0  0  0
  5 10  1  0  0  0  0
  6  7  2  0  0  0  0
  6 22  1  0  0  0  0
  7  8  1  0  0  0  0
  7 23  1  0  0  0  0
  8  9  2  0  0  0  0
  8 24  1  0  0  0  0
  9 25  1  0  0  0  0
 10 11  1  0  0  0  0
 11 12  2  0  0  0  0
 11 13  1  0  0  0  0
 12 18  1  0  0  0  0
 12 26  1  0  0  0  0
 13 14  1  0  0  0  0
 13 15  2  0  0  0  0
 14 27  1  0  0  0  0
 15 16  1  0  0  0  0
 15 28  1  0  0  0  0
 16 17  1  0  0  0  0
 16 18  2  0  0  0  0
 17 29  1  0  0  0  0
 18 19  1  0  0  0  0
 19 20  1  0  0  0  0
 19 30  1  0  0  0  0
 19 31  1  0  0  0  0
 20 32  1  0  0  0  0
 20 33  1  0  0  0  0
 20 34  1  0  0  0  0
M  CHG  2   3   1  10   1
M  END
$$$$
