REMARK  5 active torsions:
REMARK  status: ('A' for Active; 'I' for Inactive)
REMARK    1  A    between atoms: N_10  and  C_11 
REMARK    2  A    between atoms: C_13  and  O_14 
REMARK    3  A    between atoms: C_16  and  O_17 
REMARK    4  A    between atoms: C_18  and  C_19 
REMARK    5  A    between atoms: C_19  and  C_20 
ROOT
ATOM      1  C   LIG d   1      -1.930   9.896  24.899  0.00  0.00     0.093 A 
ATOM      2  C   LIG d   1      -0.672  10.165  24.350  0.00  0.00     0.037 A 
ATOM      3  C   LIG d   1      -3.064  10.495  24.354  0.00  0.00     0.144 A 
ATOM      4  C   LIG d   1      -2.946  11.327  23.238  0.00  0.00     0.093 A 
ATOM      5  C   LIG d   1      -1.686  11.580  22.689  0.00  0.00     0.124 A 
ATOM      6  C   LIG d   1      -0.526  11.026  23.247  0.00  0.00    -0.004 A 
ENDROOT
BRANCH   1   7
ATOM      7  N   LIG d   1      -2.013   9.043  26.003  0.00  0.00    -0.257 N 
ATOM      8  C   LIG d   1      -2.466   9.377  27.301  0.00  0.00     0.332 A 
ATOM      9  O   LIG d   1      -2.812  10.456  27.753  0.00  0.00    -0.246 OA
ATOM     10  N   LIG d   1      -2.375   8.186  28.054  0.00  0.00    -0.306 N 
ATOM     11  C   LIG d   1      -1.932   7.154  27.230  0.00  0.00     0.067 A 
ATOM     12  H   LIG d   1      -2.625   8.128  29.031  0.00  0.00     0.171 HD
ATOM     13  C   LIG d   1      -1.701   7.678  25.955  0.00  0.00     0.075 A 
ATOM     14  C   LIG d   1      -1.762   5.824  27.528  0.00  0.00     0.028 A 
ATOM     15  C   LIG d   1      -1.306   6.862  24.912  0.00  0.00     0.028 A 
ATOM     16  C   LIG d   1      -1.146   5.500  25.185  0.00  0.00     0.002 A 
ATOM     17  C   LIG d   1      -1.367   4.986  26.479  0.00  0.00     0.002 A 
ENDBRANCH   1   7
BRANCH   3  18
ATOM     18  O   LIG d   1      -4.300  10.213  24.866  0.00  0.00    -0.505 OA
ATOM     19  H   LIG d   1      -4.963  10.755  24.411  0.00  0.00     0.292 HD
ENDBRANCH   3  18
BRANCH   6  20
ATOM     20  C   LIG d   1       0.872  11.379  22.802  0.00  0.00     0.038 C 
BRANCH  20  21
ATOM     21  C   LIG d   1       1.580  12.424  23.681  0.00  0.00     0.001 C 
ATOM     22  C   LIG d   1       0.694  13.527  24.245  0.00  0.00     0.004 C 
ENDBRANCH  20  21
ENDBRANCH   6  20
BRANCH   5  23
ATOM     23  O   LIG d   1      -1.683  12.404  21.600  0.00  0.00    -0.506 OA
ATOM     24  H   LIG d   1      -0.785  12.487  21.248  0.00  0.00     0.292 HD
ENDBRANCH   5  23
TORSDOF 5
