4YKR_4EP_A_301
 OpenBabel03301717363D

 37 39  0  0  0  0  0  0  0  0999 V2000
   -2.8116   10.4560   27.7531 O   0  0  0  0  0  0  0  0  0  0  0  0
   -2.4662    9.3767   27.3012 C   0  0  0  0  0  0  0  0  0  0  0  0
   -2.3750    8.1860   28.0537 N   0  3  0  0  0  0  0  0  0  0  0  0
   -1.9318    7.1541   27.2299 C   0  0  0  0  0  0  0  0  0  0  0  0
   -1.7009    7.6785   25.9547 C   0  0  0  0  0  0  0  0  0  0  0  0
   -1.3055    6.8621   24.9119 C   0  0  0  0  0  0  0  0  0  0  0  0
   -1.1459    5.5000   25.1849 C   0  0  0  0  0  0  0  0  0  0  0  0
   -1.3665    4.9855   26.4785 C   0  0  0  0  0  0  0  0  0  0  0  0
   -1.7617    5.8245   27.5283 C   0  0  0  0  0  0  0  0  0  0  0  0
   -2.0129    9.0430   26.0029 N   0  3  0  0  0  0  0  0  0  0  0  0
   -1.9299    9.8956   24.8990 C   0  0  0  0  0  0  0  0  0  0  0  0
   -0.6716   10.1648   24.3496 C   0  0  0  0  0  0  0  0  0  0  0  0
   -3.0640   10.4952   24.3539 C   0  0  0  0  0  0  0  0  0  0  0  0
   -4.3000   10.2128   24.8656 O   0  0  0  0  0  0  0  0  0  0  0  0
   -2.9464   11.3266   23.2385 C   0  0  0  0  0  0  0  0  0  0  0  0
   -1.6864   11.5799   22.6891 C   0  0  0  0  0  0  0  0  0  0  0  0
   -1.6829   12.4037   21.5999 O   0  0  0  0  0  0  0  0  0  0  0  0
   -0.5258   11.0263   23.2472 C   0  0  0  0  0  0  0  0  0  0  0  0
    0.8721   11.3793   22.8022 C   0  0  0  0  0  0  0  0  0  0  0  0
    1.5796   12.4235   23.6811 C   0  0  0  0  0  0  0  0  0  0  0  0
    0.6941   13.5274   24.2446 C   0  0  0  0  0  0  0  0  0  0  0  0
   -2.6247    8.1276   29.0309 H   0  0  0  0  0  0  0  0  0  0  0  0
   -1.1558    7.2484   23.9110 H   0  0  0  0  0  0  0  0  0  0  0  0
   -0.8567    4.8227   24.3840 H   0  0  0  0  0  0  0  0  0  0  0  0
   -1.2481    3.9216   26.6570 H   0  0  0  0  0  0  0  0  0  0  0  0
   -1.9443    5.4297   28.5207 H   0  0  0  0  0  0  0  0  0  0  0  0
    0.2147    9.7451   24.8231 H   0  0  0  0  0  0  0  0  0  0  0  0
   -4.9634   10.7546   24.4110 H   0  0  0  0  0  0  0  0  0  0  0  0
   -3.8203   11.7837   22.7816 H   0  0  0  0  0  0  0  0  0  0  0  0
   -0.7847   12.4868   21.2482 H   0  0  0  0  0  0  0  0  0  0  0  0
    0.8845   11.7071   21.7588 H   0  0  0  0  0  0  0  0  0  0  0  0
    1.4787   10.4628   22.7993 H   0  0  0  0  0  0  0  0  0  0  0  0
    2.3836   12.8804   23.0904 H   0  0  0  0  0  0  0  0  0  0  0  0
    2.0698   11.9149   24.5202 H   0  0  0  0  0  0  0  0  0  0  0  0
    0.1656   14.0634   23.4509 H   0  0  0  0  0  0  0  0  0  0  0  0
    1.3023   14.2503   24.7978 H   0  0  0  0  0  0  0  0  0  0  0  0
   -0.0429   13.1270   24.9489 H   0  0  0  0  0  0  0  0  0  0  0  0
  1  2  2  0  0  0  0
  2  3  1  0  0  0  0
  2 10  1  0  0  0  0
  3  4  1  0  0  0  0
  3 22  1  0  0  0  0
  4  5  2  0  0  0  0
  4  9  1  0  0  0  0
  5  6  1  0  0  0  0
  5 10  1  0  0  0  0
  6  7  2  0  0  0  0
  6 23  1  0  0  0  0
  7  8  1  0  0  0  0
  7 24  1  0  0  0  0
  8  9  2  0  0  0  0
  8 25  1  0  0  0  0
  9 26  1  0  0  0  0
 10 11  1  0  0  0  0
 11 12  2  0  0  0  0
 11 13  1  0  0  0  0
 12 18  1  0  0  0  0
 12 27  1  0  0  0  0
 13 14  1  0  0  0  0
 13 15  2  0  0  0  0
 14 28  1  0  0  0  0
 15 16  1  0  0  0  0
 15 29  1  0  0  0  0
 16 17  1  0  0  0  0
 16 18  2  0  0  0  0
 17 30  1  0  0  0  0
 18 19  1  0  0  0  0
 19 20  1  0  0  0  0
 19 31  1  0  0  0  0
 19 32  1  0  0  0  0
 20 21  1  0  0  0  0
 20 33  1  0  0  0  0
 20 34  1  0  0  0  0
 21 35  1  0  0  0  0
 21 36  1  0  0  0  0
 21 37  1  0  0  0  0
M  CHG  2   3   1  10   1
M  END
$$$$
