@<TRIPOS>MOLECULE
4YKR_4EP_A_301
 37 39 0 0 0
SMALL
USER_CHARGES

@<TRIPOS>ATOM
      1 O          -2.8116   10.4560   27.7531 O.2     1  LIG1       -0.2462
      2 C          -2.4662    9.3767   27.3012 C.ar    1  LIG1        0.3322
      3 N          -2.3750    8.1860   28.0537 N.ar    1  LIG1       -0.3057
      4 C          -1.9318    7.1541   27.2299 C.ar    1  LIG1        0.0674
      5 C          -1.7009    7.6785   25.9547 C.ar    1  LIG1        0.0749
      6 C          -1.3055    6.8621   24.9119 C.ar    1  LIG1       -0.0357
      7 C          -1.1459    5.5000   25.1849 C.ar    1  LIG1       -0.0597
      8 C          -1.3665    4.9855   26.4785 C.ar    1  LIG1       -0.0597
      9 C          -1.7617    5.8245   27.5283 C.ar    1  LIG1       -0.0362
     10 N          -2.0129    9.0430   26.0029 N.ar    1  LIG1       -0.2574
     11 C          -1.9299    9.8956   24.8990 C.ar    1  LIG1        0.0933
     12 C          -0.6716   10.1648   24.3496 C.ar    1  LIG1       -0.0275
     13 C          -3.0640   10.4952   24.3539 C.ar    1  LIG1        0.1442
     14 O          -4.3000   10.2128   24.8656 O.3     1  LIG1       -0.5046
     15 C          -2.9464   11.3266   23.2385 C.ar    1  LIG1        0.0236
     16 C          -1.6864   11.5799   22.6891 C.ar    1  LIG1        0.1236
     17 O          -1.6829   12.4037   21.5999 O.3     1  LIG1       -0.5064
     18 C          -0.5258   11.0263   23.2472 C.ar    1  LIG1       -0.0038
     19 C           0.8721   11.3793   22.8022 C.3     1  LIG1       -0.0244
     20 C           1.5796   12.4235   23.6811 C.3     1  LIG1       -0.0518
     21 C           0.6941   13.5274   24.2446 C.3     1  LIG1       -0.0650
     22 H          -2.6247    8.1276   29.0309 H       1  LIG1        0.1705
     23 H          -1.1558    7.2484   23.9110 H       1  LIG1        0.0639
     24 H          -0.8567    4.8227   24.3840 H       1  LIG1        0.0618
     25 H          -1.2481    3.9216   26.6570 H       1  LIG1        0.0618
     26 H          -1.9443    5.4297   28.5207 H       1  LIG1        0.0639
     27 H           0.2147    9.7451   24.8231 H       1  LIG1        0.0643
     28 H          -4.9634   10.7546   24.4110 H       1  LIG1        0.2922
     29 H          -3.8203   11.7837   22.7816 H       1  LIG1        0.0691
     30 H          -0.7847   12.4868   21.2482 H       1  LIG1        0.2921
     31 H           0.8845   11.7071   21.7588 H       1  LIG1        0.0314
     32 H           1.4787   10.4628   22.7993 H       1  LIG1        0.0314
     33 H           2.3836   12.8804   23.0904 H       1  LIG1        0.0266
     34 H           2.0698   11.9149   24.5202 H       1  LIG1        0.0266
     35 H           0.1656   14.0634   23.4509 H       1  LIG1        0.0230
     36 H           1.3023   14.2503   24.7978 H       1  LIG1        0.0230
     37 H          -0.0429   13.1270   24.9489 H       1  LIG1        0.0230
@<TRIPOS>BOND
     1     1     2    2
     2     2     3   ar
     3     2    10   ar
     4     3     4   ar
     5     3    22    1
     6     4     5   ar
     7     4     9   ar
     8     5     6   ar
     9     5    10   ar
    10     6     7   ar
    11     6    23    1
    12     7     8   ar
    13     7    24    1
    14     8     9   ar
    15     8    25    1
    16     9    26    1
    17    10    11    1
    18    11    12   ar
    19    11    13   ar
    20    12    18   ar
    21    12    27    1
    22    13    14    1
    23    13    15   ar
    24    14    28    1
    25    15    16   ar
    26    15    29    1
    27    16    17    1
    28    16    18   ar
    29    17    30    1
    30    18    19    1
    31    19    20    1
    32    19    31    1
    33    19    32    1
    34    20    21    1
    35    20    33    1
    36    20    34    1
    37    21    35    1
    38    21    36    1
    39    21    37    1
