@<TRIPOS>MOLECULE
4YKT_4EQ_A_301
 45 48 0 0 0
SMALL
USER_CHARGES

@<TRIPOS>ATOM
      1 O          -1.7116  -41.5976  -30.2267 O.3     1  LIG1       -0.0781
      2 S          -1.1937  -41.9473  -28.9225 S.3     1  LIG1       -0.0386
      3 O          -0.2600  -43.0332  -28.7344 O.3     1  LIG1       -0.0781
      4 C          -2.5815  -42.1972  -27.8766 C.ar    1  LIG1        0.0996
      5 C          -2.6492  -43.3091  -27.0610 C.ar    1  LIG1        0.0519
      6 N          -3.7131  -43.5797  -26.2641 N.ar    1  LIG1       -0.2614
      7 C          -4.7461  -42.7117  -26.3016 C.ar    1  LIG1        0.0277
      8 C          -4.7568  -41.5775  -27.0963 C.ar    1  LIG1       -0.0418
      9 C          -3.6626  -41.3182  -27.9051 C.ar    1  LIG1       -0.0344
     10 N          -0.5026  -40.5484  -28.2887 N.3     1  LIG1       -0.2051
     11 C           0.3626  -40.6614  -27.1042 C.3     1  LIG1        0.0408
     12 C           0.8825  -39.2802  -26.7466 C.ar    1  LIG1       -0.0299
     13 C           1.4713  -38.4707  -27.7396 C.ar    1  LIG1       -0.0318
     14 C           0.7042  -38.7666  -25.4382 C.ar    1  LIG1       -0.0552
     15 C           1.0030  -37.4321  -25.1345 C.ar    1  LIG1       -0.0354
     16 C           1.4886  -36.6346  -26.1504 C.ar    1  LIG1        0.0749
     17 C           1.7399  -37.1565  -27.4186 C.ar    1  LIG1        0.0677
     18 N           2.2476  -36.1403  -28.2223 N.ar    1  LIG1       -0.3056
     19 C           2.3344  -34.9508  -27.4661 C.ar    1  LIG1        0.3322
     20 O           2.6839  -33.8702  -27.9132 O.2     1  LIG1       -0.2462
     21 N           1.8634  -35.2807  -26.1732 N.ar    1  LIG1       -0.2574
     22 C           1.7388  -34.4046  -25.0901 C.ar    1  LIG1        0.0944
     23 C           0.4643  -34.0968  -24.6017 C.ar    1  LIG1       -0.0122
     24 C           0.3232  -33.2350  -23.5148 C.ar    1  LIG1        0.0845
     25 CL         -1.2683  -32.7960  -23.0106 Cl      1  LIG1       -0.0797
     26 C           2.8668  -33.8178  -24.4930 C.ar    1  LIG1        0.1443
     27 O           4.1123  -34.1461  -24.9581 O.3     1  LIG1       -0.5046
     28 C           2.7315  -32.9892  -23.3739 C.ar    1  LIG1        0.0248
     29 C           1.4559  -32.7345  -22.8644 C.ar    1  LIG1        0.1387
     30 O           1.2993  -32.0258  -21.7034 O.3     1  LIG1       -0.5052
     31 H          -1.8430  -44.0384  -27.0099 H       1  LIG1        0.0849
     32 H          -5.5952  -42.9557  -25.6669 H       1  LIG1        0.0829
     33 H          -5.6229  -40.9104  -27.0920 H       1  LIG1        0.0633
     34 H          -3.6598  -40.4507  -28.5654 H       1  LIG1        0.0637
     35 H          -1.2047  -39.8191  -28.1827 H       1  LIG1        0.1465
     36 H           1.2096  -41.3314  -27.2829 H       1  LIG1        0.0490
     37 H          -0.2383  -41.0479  -26.2746 H       1  LIG1        0.0490
     38 H           1.6663  -38.8642  -28.7333 H       1  LIG1        0.0642
     39 H           0.3122  -39.4059  -24.6496 H       1  LIG1        0.0621
     40 H           0.8423  -37.0485  -24.1342 H       1  LIG1        0.0639
     41 H           2.4817  -36.1812  -29.2007 H       1  LIG1        0.1705
     42 H          -0.4170  -34.5051  -25.0877 H       1  LIG1        0.0655
     43 H           4.7980  -33.7104  -24.4272 H       1  LIG1        0.2922
     44 H           3.6070  -32.5596  -22.8990 H       1  LIG1        0.0692
     45 H           2.1573  -31.8842  -21.2727 H       1  LIG1        0.2922
@<TRIPOS>BOND
     1     1     2    1
     2     2     3    1
     3     2     4    1
     4     2    10    1
     5     4     5   ar
     6     4     9   ar
     7     5     6   ar
     8     5    31    1
     9     6     7   ar
    10     7     8   ar
    11     7    32    1
    12     8     9   ar
    13     8    33    1
    14     9    34    1
    15    10    11    1
    16    10    35    1
    17    11    12    1
    18    11    36    1
    19    11    37    1
    20    12    13   ar
    21    12    14   ar
    22    13    17   ar
    23    13    38    1
    24    14    15   ar
    25    14    39    1
    26    15    16   ar
    27    15    40    1
    28    16    17   ar
    29    16    21   ar
    30    17    18   ar
    31    18    19   ar
    32    18    41    1
    33    19    20    2
    34    19    21   ar
    35    21    22    1
    36    22    23   ar
    37    22    26   ar
    38    23    24   ar
    39    23    42    1
    40    24    25    1
    41    24    29   ar
    42    26    27    1
    43    26    28   ar
    44    27    43    1
    45    28    29   ar
    46    28    44    1
    47    29    30    1
    48    30    45    1
