REMARK  7 active torsions:
REMARK  status: ('A' for Active; 'I' for Inactive)
REMARK    1  A    between atoms: S_2  and  C_4 
REMARK    2  A    between atoms: S_2  and  N_10 
REMARK    3  A    between atoms: N_10  and  C_11 
REMARK    4  A    between atoms: C_11  and  C_12 
REMARK    5  A    between atoms: N_21  and  C_22 
REMARK    6  A    between atoms: C_26  and  O_27 
REMARK    7  A    between atoms: C_29  and  O_30 
ROOT
ATOM      1  C   LIG d   1       0.882 -39.280 -26.747  0.00  0.00    -0.030 A 
ATOM      2  C   LIG d   1       1.471 -38.471 -27.740  0.00  0.00     0.032 A 
ATOM      3  C   LIG d   1       0.704 -38.767 -25.438  0.00  0.00     0.007 A 
ATOM      4  C   LIG d   1       1.003 -37.432 -25.134  0.00  0.00     0.028 A 
ATOM      5  C   LIG d   1       1.489 -36.635 -26.150  0.00  0.00     0.075 A 
ATOM      6  C   LIG d   1       1.740 -37.157 -27.419  0.00  0.00     0.068 A 
ATOM      7  N   LIG d   1       2.248 -36.140 -28.222  0.00  0.00    -0.306 N 
ATOM      8  C   LIG d   1       2.334 -34.951 -27.466  0.00  0.00     0.332 A 
ATOM      9  O   LIG d   1       2.684 -33.870 -27.913  0.00  0.00    -0.246 OA
ATOM     10  N   LIG d   1       1.863 -35.281 -26.173  0.00  0.00    -0.257 N 
ATOM     11  H   LIG d   1       2.482 -36.181 -29.201  0.00  0.00     0.171 HD
ENDROOT
BRANCH   1  12
ATOM     12  C   LIG d   1       0.363 -40.661 -27.104  0.00  0.00     0.139 C 
BRANCH  12  13
ATOM     13  N   LIG d   1      -0.503 -40.548 -28.289  0.00  0.00    -0.205 NA
ATOM     14  H   LIG d   1      -1.205 -39.819 -28.183  0.00  0.00     0.146 HD
BRANCH  13  15
ATOM     15  S   LIG d   1      -1.194 -41.947 -28.922  0.00  0.00    -0.039 S 
ATOM     16  O   LIG d   1      -1.712 -41.598 -30.227  0.00  0.00    -0.078 OA
ATOM     17  O   LIG d   1      -0.260 -43.033 -28.734  0.00  0.00    -0.078 OA
BRANCH  15  18
ATOM     18  C   LIG d   1      -2.582 -42.197 -27.877  0.00  0.00     0.100 A 
ATOM     19  C   LIG d   1      -2.649 -43.309 -27.061  0.00  0.00     0.137 A 
ATOM     20  N   LIG d   1      -3.713 -43.580 -26.264  0.00  0.00    -0.261 NA
ATOM     21  C   LIG d   1      -4.746 -42.712 -26.302  0.00  0.00     0.111 A 
ATOM     22  C   LIG d   1      -4.757 -41.578 -27.096  0.00  0.00     0.021 A 
ATOM     23  C   LIG d   1      -3.663 -41.318 -27.905  0.00  0.00     0.029 A 
ENDBRANCH  15  18
ENDBRANCH  13  15
ENDBRANCH  12  13
ENDBRANCH   1  12
BRANCH  10  24
ATOM     24  C   LIG d   1       1.739 -34.405 -25.090  0.00  0.00     0.094 A 
ATOM     25  C   LIG d   1       0.464 -34.097 -24.602  0.00  0.00     0.053 A 
ATOM     26  C   LIG d   1       0.323 -33.235 -23.515  0.00  0.00     0.085 A 
ATOM     27 CL   LIG d   1      -1.268 -32.796 -23.011  0.00  0.00    -0.080 Cl
ATOM     28  C   LIG d   1       1.456 -32.734 -22.864  0.00  0.00     0.139 A 
ATOM     29  C   LIG d   1       2.732 -32.989 -23.374  0.00  0.00     0.094 A 
ATOM     30  C   LIG d   1       2.867 -33.818 -24.493  0.00  0.00     0.144 A 
BRANCH  28  31
ATOM     31  O   LIG d   1       1.299 -32.026 -21.703  0.00  0.00    -0.505 OA
ATOM     32  H   LIG d   1       2.157 -31.884 -21.273  0.00  0.00     0.292 HD
ENDBRANCH  28  31
BRANCH  30  33
ATOM     33  O   LIG d   1       4.112 -34.146 -24.958  0.00  0.00    -0.505 OA
ATOM     34  H   LIG d   1       4.798 -33.710 -24.427  0.00  0.00     0.292 HD
ENDBRANCH  30  33
ENDBRANCH  10  24
TORSDOF 7
