@<TRIPOS>MOLECULE
4YKU_4ER_A_301
 23 24 0 0 0
SMALL
USER_CHARGES

@<TRIPOS>ATOM
      1 CL         -0.6577  -13.1567  -25.6226 Cl      1  LIG1       -0.0828
      2 C          -1.3784  -11.6307  -26.0059 C.ar    1  LIG1        0.0516
      3 C          -2.6899  -11.6525  -26.4988 C.ar    1  LIG1       -0.0427
      4 C          -3.3388  -10.4652  -26.8322 C.ar    1  LIG1       -0.0603
      5 C          -2.6785   -9.2506  -26.6718 C.ar    1  LIG1       -0.0610
      6 C          -1.3784   -9.2246  -26.1584 C.ar    1  LIG1       -0.0496
      7 C          -0.7000  -10.4145  -25.8215 C.ar    1  LIG1        0.0376
      8 C           0.6637  -10.3424  -25.2918 C.ar    1  LIG1        0.1682
      9 N           1.6365  -10.8617  -26.0421 N.ar    1  LIG1       -0.1948
     10 C           2.8413  -10.7759  -25.5116 C.ar    1  LIG1        0.2174
     11 N           3.8777  -11.3032  -26.2357 N.pl3   1  LIG1       -0.3273
     12 N           3.1219  -10.2154  -24.3497 N.ar    1  LIG1       -0.1815
     13 N           0.8363   -9.7247  -24.1248 N.ar    1  LIG1       -0.1948
     14 C           2.0865   -9.7078  -23.6966 C.ar    1  LIG1        0.2174
     15 N           2.3304   -9.1061  -22.4967 N.pl3   1  LIG1       -0.3273
     16 H          -3.2116  -12.6001  -26.6209 H       1  LIG1        0.0632
     17 H          -4.3562  -10.4901  -27.2155 H       1  LIG1        0.0618
     18 H          -3.1744   -8.3232  -26.9451 H       1  LIG1        0.0618
     19 H          -0.8825   -8.2637  -26.0274 H       1  LIG1        0.0625
     20 H           4.8120  -11.1208  -25.9130 H       1  LIG1        0.1452
     21 H           3.6745  -11.6238  -27.1674 H       1  LIG1        0.1452
     22 H           1.5560   -8.6954  -22.0040 H       1  LIG1        0.1452
     23 H           3.2736   -9.0968  -22.1525 H       1  LIG1        0.1452
@<TRIPOS>BOND
     1     1     2    1
     2     2     3   ar
     3     2     7   ar
     4     3     4   ar
     5     3    16    1
     6     4     5   ar
     7     4    17    1
     8     5     6   ar
     9     5    18    1
    10     6     7   ar
    11     6    19    1
    12     7     8    1
    13     8     9   ar
    14     8    13   ar
    15     9    10   ar
    16    10    11    1
    17    10    12   ar
    18    11    20    1
    19    11    21    1
    20    12    14   ar
    21    13    14   ar
    22    14    15    1
    23    15    22    1
    24    15    23    1
