4YKW_4ES_A_301
 OpenBabel03301717373D

 27 28  0  0  0  0  0  0  0  0999 V2000
   15.0066   -4.8167    1.1574 O   0  0  0  0  0  0  0  0  0  0  0  0
   14.3893   -5.5612    1.9314 N   0  0  0  0  0  0  0  0  0  0  0  0
   14.2897   -5.3785    3.1533 O   0  0  0  0  0  0  0  0  0  0  0  0
   13.7299   -6.7417    1.3625 C   0  0  0  0  0  0  0  0  0  0  0  0
   12.9802   -7.5803    2.1919 C   0  0  0  0  0  0  0  0  0  0  0  0
   12.3419   -8.6989    1.6461 C   0  0  0  0  0  0  0  0  0  0  0  0
   13.8355   -7.0093   -0.0059 C   0  0  0  0  0  0  0  0  0  0  0  0
   13.1854   -8.1292   -0.5456 C   0  0  0  0  0  0  0  0  0  0  0  0
   13.3083   -8.3438   -2.2603 Cl  0  0  0  0  0  0  0  0  0  0  0  0
   12.4294   -8.9993    0.2679 C   0  0  0  0  0  0  0  0  0  0  0  0
   11.7252  -10.1793   -0.2595 C   0  0  0  0  0  0  0  0  0  0  0  0
   10.3668  -10.3508   -0.0904 C   0  0  0  0  0  0  0  0  0  0  0  0
   12.4921  -11.0959   -0.8833 N   0  0  0  0  0  0  0  0  0  0  0  0
   11.8721  -12.1698   -1.3753 C   0  0  0  0  0  0  0  0  0  0  0  0
   12.6331  -13.0974   -2.0232 N   0  0  0  0  0  0  0  0  0  0  0  0
   10.5638  -12.4161   -1.2638 N   0  0  0  0  0  0  0  0  0  0  0  0
    9.8196  -11.5043   -0.6061 C   0  0  0  0  0  0  0  0  0  0  0  0
    8.3672  -11.8211   -0.4209 C   0  0  0  0  0  0  0  0  0  0  0  0
   12.8807   -7.3830    3.2597 H   0  0  0  0  0  0  0  0  0  0  0  0
   11.7745   -9.3513    2.3108 H   0  0  0  0  0  0  0  0  0  0  0  0
   14.4077   -6.3553   -0.6596 H   0  0  0  0  0  0  0  0  0  0  0  0
    9.7585   -9.6170    0.4253 H   0  0  0  0  0  0  0  0  0  0  0  0
   12.1653  -13.8855   -2.4339 H   0  0  0  0  0  0  0  0  0  0  0  0
   13.6124  -12.9055   -2.1357 H   0  0  0  0  0  0  0  0  0  0  0  0
    7.8484  -11.0264    0.1255 H   0  0  0  0  0  0  0  0  0  0  0  0
    8.2634  -12.7477    0.1521 H   0  0  0  0  0  0  0  0  0  0  0  0
    7.8770  -11.9455   -1.3913 H   0  0  0  0  0  0  0  0  0  0  0  0
  1  2  2  0  0  0  0
  2  3  2  0  0  0  0
  2  4  1  0  0  0  0
  4  5  2  0  0  0  0
  4  7  1  0  0  0  0
  5  6  1  0  0  0  0
  5 19  1  0  0  0  0
  6 10  2  0  0  0  0
  6 20  1  0  0  0  0
  7  8  2  0  0  0  0
  7 21  1  0  0  0  0
  8  9  1  0  0  0  0
  8 10  1  0  0  0  0
 10 11  1  0  0  0  0
 11 12  2  0  0  0  0
 11 13  1  0  0  0  0
 12 17  1  0  0  0  0
 12 22  1  0  0  0  0
 13 14  2  0  0  0  0
 14 15  1  0  0  0  0
 14 16  1  0  0  0  0
 15 23  1  0  0  0  0
 15 24  1  0  0  0  0
 16 17  2  0  0  0  0
 17 18  1  0  0  0  0
 18 25  1  0  0  0  0
 18 26  1  0  0  0  0
 18 27  1  0  0  0  0
M  END
$$$$
