REMARK  3 active torsions:
REMARK  status: ('A' for Active; 'I' for Inactive)
REMARK    1  A    between atoms: N_2  and  C_4 
REMARK    2  A    between atoms: C_10  and  C_11 
REMARK    3  A    between atoms: C_14  and  N_15 
ROOT
ATOM      1  C   LIG d   1      13.730  -6.742   1.363  0.00  0.00     0.128 A 
ATOM      2  C   LIG d   1      12.980  -7.580   2.192  0.00  0.00     0.033 A 
ATOM      3  C   LIG d   1      12.342  -8.699   1.646  0.00  0.00     0.013 A 
ATOM      4  C   LIG d   1      13.835  -7.009  -0.006  0.00  0.00     0.053 A 
ATOM      5  C   LIG d   1      13.185  -8.129  -0.546  0.00  0.00     0.052 A 
ATOM      6 CL   LIG d   1      13.308  -8.344  -2.260  0.00  0.00    -0.083 Cl
ATOM      7  C   LIG d   1      12.429  -8.999   0.268  0.00  0.00     0.019 A 
ENDROOT
BRANCH   7   8
ATOM      8  C   LIG d   1      11.725 -10.179  -0.260  0.00  0.00     0.078 A 
ATOM      9  C   LIG d   1      10.367 -10.351  -0.090  0.00  0.00     0.051 A 
ATOM     10  C   LIG d   1       9.820 -11.504  -0.606  0.00  0.00     0.044 A 
ATOM     11  N   LIG d   1      10.564 -12.416  -1.264  0.00  0.00    -0.220 NA
ATOM     12  C   LIG d   1       8.367 -11.821  -0.421  0.00  0.00     0.066 C 
ATOM     13  C   LIG d   1      11.872 -12.170  -1.375  0.00  0.00     0.213 A 
ATOM     14  N   LIG d   1      12.492 -11.096  -0.883  0.00  0.00    -0.215 NA
BRANCH  13  15
ATOM     15  N   LIG d   1      12.633 -13.097  -2.023  0.00  0.00    -0.328 N 
ATOM     16  H   LIG d   1      12.165 -13.886  -2.434  0.00  0.00     0.145 HD
ATOM     17  H   LIG d   1      13.612 -12.905  -2.136  0.00  0.00     0.145 HD
ENDBRANCH  13  15
ENDBRANCH   7   8
BRANCH   1  18
ATOM     18  N   LIG d   1      14.389  -5.561   1.931  0.00  0.00     0.057 N 
ATOM     19  O   LIG d   1      15.007  -4.817   1.157  0.00  0.00    -0.126 OA
ATOM     20  O   LIG d   1      14.290  -5.378   3.153  0.00  0.00    -0.126 OA
ENDBRANCH   1  18
TORSDOF 3
