@<TRIPOS>MOLECULE
4YKW_4ES_A_301
 27 28 0 0 0
SMALL
USER_CHARGES

@<TRIPOS>ATOM
      1 O          15.0066   -4.8167    1.1574 O.2     1  LIG1       -0.1261
      2 N          14.3893   -5.5612    1.9314 N.pl3   1  LIG1        0.0565
      3 O          14.2897   -5.3785    3.1533 O.2     1  LIG1       -0.1261
      4 C          13.7299   -6.7417    1.3625 C.ar    1  LIG1        0.1276
      5 C          12.9802   -7.5803    2.1919 C.ar    1  LIG1       -0.0308
      6 C          12.3419   -8.6989    1.6461 C.ar    1  LIG1       -0.0490
      7 C          13.8355   -7.0093   -0.0059 C.ar    1  LIG1       -0.0125
      8 C          13.1854   -8.1292   -0.5456 C.ar    1  LIG1        0.0523
      9 CL         13.3083   -8.3438   -2.2603 Cl      1  LIG1       -0.0828
     10 C          12.4294   -8.9993    0.2679 C.ar    1  LIG1        0.0190
     11 C          11.7252  -10.1793   -0.2595 C.ar    1  LIG1        0.0777
     12 C          10.3668  -10.3508   -0.0904 C.ar    1  LIG1       -0.0144
     13 N          12.4921  -11.0959   -0.8833 N.ar    1  LIG1       -0.2146
     14 C          11.8721  -12.1698   -1.3753 C.ar    1  LIG1        0.2133
     15 N          12.6331  -13.0974   -2.0232 N.pl3   1  LIG1       -0.3275
     16 N          10.5638  -12.4161   -1.2638 N.ar    1  LIG1       -0.2199
     17 C           9.8196  -11.5043   -0.6061 C.ar    1  LIG1        0.0439
     18 C           8.3672  -11.8211   -0.4209 C.3     1  LIG1       -0.0222
     19 H          12.8807   -7.3830    3.2597 H       1  LIG1        0.0640
     20 H          11.7745   -9.3513    2.3108 H       1  LIG1        0.0625
     21 H          14.4077   -6.3553   -0.6596 H       1  LIG1        0.0655
     22 H           9.7585   -9.6170    0.4253 H       1  LIG1        0.0657
     23 H          12.1653  -13.8855   -2.4339 H       1  LIG1        0.1452
     24 H          13.6124  -12.9055   -2.1357 H       1  LIG1        0.1452
     25 H           7.8484  -11.0264    0.1255 H       1  LIG1        0.0293
     26 H           8.2634  -12.7477    0.1521 H       1  LIG1        0.0293
     27 H           7.8770  -11.9455   -1.3913 H       1  LIG1        0.0293
@<TRIPOS>BOND
     1     1     2    2
     2     2     3    2
     3     2     4    1
     4     4     5   ar
     5     4     7   ar
     6     5     6   ar
     7     5    19    1
     8     6    10   ar
     9     6    20    1
    10     7     8   ar
    11     7    21    1
    12     8     9    1
    13     8    10   ar
    14    10    11    1
    15    11    12   ar
    16    11    13   ar
    17    12    17   ar
    18    12    22    1
    19    13    14   ar
    20    14    15    1
    21    14    16   ar
    22    15    23    1
    23    15    24    1
    24    16    17   ar
    25    17    18    1
    26    18    25    1
    27    18    26    1
    28    18    27    1
