@<TRIPOS>MOLECULE
4YKX_4ET_A_301
 26 27 0 0 0
SMALL
USER_CHARGES

@<TRIPOS>ATOM
      1 CL         33.2577   12.4042   23.2283 Cl      1  LIG1       -0.0835
      2 C          31.7002   11.8355   23.6894 C.ar    1  LIG1        0.0419
      3 C          31.5568   11.1068   24.8677 C.ar    1  LIG1       -0.0290
      4 C          30.5957   12.1120   22.8822 C.ar    1  LIG1       -0.0399
      5 C          29.3265   11.6709   23.2650 C.ar    1  LIG1       -0.0181
      6 C          29.1703   10.9496   24.4485 C.ar    1  LIG1        0.1277
      7 O          27.9101   10.5070   24.7353 O.3     1  LIG1       -0.5061
      8 C          30.2811   10.6757   25.2486 C.ar    1  LIG1        0.0650
      9 C          30.1149    9.8777   26.4770 C.2     1  LIG1        0.1967
     10 O          29.3516   10.2887   27.3435 O.2     1  LIG1       -0.2865
     11 C          30.7399    8.5392   26.5772 C.ar    1  LIG1        0.0226
     12 C          30.8498    7.9237   27.8331 C.ar    1  LIG1       -0.0475
     13 C          31.3462    6.6193   27.9282 C.ar    1  LIG1       -0.0195
     14 C          31.1186    7.8347   25.4267 C.ar    1  LIG1       -0.0475
     15 C          31.6030    6.5302   25.5227 C.ar    1  LIG1       -0.0195
     16 C          31.7182    5.9368   26.7740 C.ar    1  LIG1        0.1169
     17 O          32.2076    4.6667   26.8970 O.3     1  LIG1       -0.5068
     18 H          32.4260   10.8680   25.4735 H       1  LIG1        0.0640
     19 H          30.7152   12.6650   21.9539 H       1  LIG1        0.0633
     20 H          28.4624   11.8829   22.6393 H       1  LIG1        0.0655
     21 H          27.9068   10.1045   25.6268 H       1  LIG1        0.2922
     22 H          30.5450    8.4528   28.7338 H       1  LIG1        0.0626
     23 H          31.4254    6.1358   28.9000 H       1  LIG1        0.0654
     24 H          31.0164    8.2673   24.4372 H       1  LIG1        0.0626
     25 H          31.8536    5.9902   24.6176 H       1  LIG1        0.0654
     26 H          32.5047    4.3573   26.0323 H       1  LIG1        0.2921
@<TRIPOS>BOND
     1     1     2    1
     2     2     3   ar
     3     2     4   ar
     4     3     8   ar
     5     3    18    1
     6     4     5   ar
     7     4    19    1
     8     5     6   ar
     9     5    20    1
    10     6     7    1
    11     6     8   ar
    12     7    21    1
    13     8     9    1
    14     9    10    2
    15     9    11    1
    16    11    12   ar
    17    11    14   ar
    18    12    13   ar
    19    12    22    1
    20    13    16   ar
    21    13    23    1
    22    14    15   ar
    23    14    24    1
    24    15    16   ar
    25    15    25    1
    26    16    17    1
    27    17    26    1
