REMARK  4 active torsions:
REMARK  status: ('A' for Active; 'I' for Inactive)
REMARK    1  A    between atoms: C_6  and  O_7 
REMARK    2  A    between atoms: C_8  and  C_9 
REMARK    3  A    between atoms: C_9  and  C_11 
REMARK    4  A    between atoms: C_16  and  O_17 
ROOT
ATOM      1  C   LIG d   1      30.115   9.878  26.477  0.00  0.00     0.197 C 
ATOM      2  O   LIG d   1      29.352  10.289  27.343  0.00  0.00    -0.286 OA
ENDROOT
BRANCH   1   3
ATOM      3  C   LIG d   1      30.281  10.676  25.249  0.00  0.00     0.065 A 
ATOM      4  C   LIG d   1      31.557  11.107  24.868  0.00  0.00     0.035 A 
ATOM      5  C   LIG d   1      31.700  11.835  23.689  0.00  0.00     0.042 A 
ATOM      6 CL   LIG d   1      33.258  12.404  23.228  0.00  0.00    -0.084 Cl
ATOM      7  C   LIG d   1      30.596  12.112  22.882  0.00  0.00     0.023 A 
ATOM      8  C   LIG d   1      29.326  11.671  23.265  0.00  0.00     0.047 A 
ATOM      9  C   LIG d   1      29.170  10.950  24.448  0.00  0.00     0.128 A 
BRANCH   9  10
ATOM     10  O   LIG d   1      27.910  10.507  24.735  0.00  0.00    -0.506 OA
ATOM     11  H   LIG d   1      27.907  10.104  25.627  0.00  0.00     0.292 HD
ENDBRANCH   9  10
ENDBRANCH   1   3
BRANCH   1  12
ATOM     12  C   LIG d   1      30.740   8.539  26.577  0.00  0.00     0.023 A 
ATOM     13  C   LIG d   1      30.850   7.924  27.833  0.00  0.00     0.015 A 
ATOM     14  C   LIG d   1      31.346   6.619  27.928  0.00  0.00     0.046 A 
ATOM     15  C   LIG d   1      31.718   5.937  26.774  0.00  0.00     0.117 A 
ATOM     16  C   LIG d   1      31.603   6.530  25.523  0.00  0.00     0.046 A 
ATOM     17  C   LIG d   1      31.119   7.835  25.427  0.00  0.00     0.015 A 
BRANCH  15  18
ATOM     18  O   LIG d   1      32.208   4.667  26.897  0.00  0.00    -0.507 OA
ATOM     19  H   LIG d   1      32.505   4.357  26.032  0.00  0.00     0.292 HD
ENDBRANCH  15  18
ENDBRANCH   1  12
TORSDOF 4
