REMARK  5 active torsions:
REMARK  status: ('A' for Active; 'I' for Inactive)
REMARK    1  A    between atoms: C_2  and  C_3 
REMARK    2  A    between atoms: C_2  and  C_10 
REMARK    3  A    between atoms: C_8  and  O_9 
REMARK    4  A    between atoms: C_11  and  O_12 
REMARK    5  A    between atoms: C_14  and  O_15 
ROOT
ATOM      1  C   LIG d   1       1.905 -33.797 -25.087  0.00  0.00     0.064 A 
ATOM      2  C   LIG d   1       3.016 -33.484 -24.296  0.00  0.00     0.131 A 
ATOM      3  C   LIG d   1       2.844 -32.843 -23.072  0.00  0.00     0.091 A 
ATOM      4  C   LIG d   1       1.558 -32.539 -22.634  0.00  0.00     0.120 A 
ATOM      5  C   LIG d   1       0.440 -32.847 -23.405  0.00  0.00     0.046 A 
ATOM      6  C   LIG d   1       0.614 -33.473 -24.643  0.00  0.00     0.019 A 
ENDROOT
BRANCH   1   7
ATOM      7  C   LIG d   1       2.079 -34.539 -26.361  0.00  0.00     0.197 C 
ATOM      8  O   LIG d   1       2.577 -33.977 -27.328  0.00  0.00    -0.286 OA
BRANCH   7   9
ATOM      9  C   LIG d   1       1.606 -35.951 -26.455  0.00  0.00     0.023 A 
ATOM     10  C   LIG d   1       1.280 -36.686 -25.309  0.00  0.00     0.015 A 
ATOM     11  C   LIG d   1       0.833 -38.000 -25.418  0.00  0.00     0.046 A 
ATOM     12  C   LIG d   1       0.706 -38.587 -26.674  0.00  0.00     0.117 A 
ATOM     13  C   LIG d   1       1.046 -37.882 -27.825  0.00  0.00     0.046 A 
ATOM     14  C   LIG d   1       1.499 -36.564 -27.718  0.00  0.00     0.015 A 
BRANCH  12  15
ATOM     15  O   LIG d   1       0.241 -39.866 -26.722  0.00  0.00    -0.507 OA
ATOM     16  H   LIG d   1       0.140 -40.128 -27.652  0.00  0.00     0.292 HD
ENDBRANCH  12  15
ENDBRANCH   7   9
ENDBRANCH   1   7
BRANCH   2  17
ATOM     17  O   LIG d   1       4.265 -33.862 -24.706  0.00  0.00    -0.506 OA
ATOM     18  H   LIG d   1       4.925 -33.541 -24.068  0.00  0.00     0.292 HD
ENDBRANCH   2  17
BRANCH   4  19
ATOM     19  O   LIG d   1       1.433 -31.948 -21.409  0.00  0.00    -0.507 OA
ATOM     20  H   LIG d   1       0.490 -31.825 -21.209  0.00  0.00     0.292 HD
ENDBRANCH   4  19
TORSDOF 5
