4YKY_4EU_A_301
 OpenBabel03301717373D

 27 28  0  0  0  0  0  0  0  0999 V2000
    2.5766  -33.9769  -27.3283 O   0  0  0  0  0  0  0  0  0  0  0  0
    2.0793  -34.5388  -26.3612 C   0  0  0  0  0  0  0  0  0  0  0  0
    1.6061  -35.9508  -26.4553 C   0  0  0  0  0  0  0  0  0  0  0  0
    1.2799  -36.6858  -25.3090 C   0  0  0  0  0  0  0  0  0  0  0  0
    0.8326  -37.9997  -25.4176 C   0  0  0  0  0  0  0  0  0  0  0  0
    1.4994  -36.5638  -27.7176 C   0  0  0  0  0  0  0  0  0  0  0  0
    1.0462  -37.8823  -27.8250 C   0  0  0  0  0  0  0  0  0  0  0  0
    0.7062  -38.5874  -26.6739 C   0  0  0  0  0  0  0  0  0  0  0  0
    0.2406  -39.8656  -26.7220 O   0  0  0  0  0  0  0  0  0  0  0  0
    1.9053  -33.7965  -25.0868 C   0  0  0  0  0  0  0  0  0  0  0  0
    3.0162  -33.4840  -24.2955 C   0  0  0  0  0  0  0  0  0  0  0  0
    4.2647  -33.8622  -24.7055 O   0  0  0  0  0  0  0  0  0  0  0  0
    2.8436  -32.8434  -23.0717 C   0  0  0  0  0  0  0  0  0  0  0  0
    1.5584  -32.5386  -22.6341 C   0  0  0  0  0  0  0  0  0  0  0  0
    1.4330  -31.9481  -21.4093 O   0  0  0  0  0  0  0  0  0  0  0  0
    0.4397  -32.8466  -23.4052 C   0  0  0  0  0  0  0  0  0  0  0  0
    0.6135  -33.4729  -24.6429 C   0  0  0  0  0  0  0  0  0  0  0  0
    1.3784  -36.2614  -24.3144 H   0  0  0  0  0  0  0  0  0  0  0  0
    0.5842  -38.5706  -24.5265 H   0  0  0  0  0  0  0  0  0  0  0  0
    1.7708  -36.0099  -28.6115 H   0  0  0  0  0  0  0  0  0  0  0  0
    0.9722  -38.3410  -28.8071 H   0  0  0  0  0  0  0  0  0  0  0  0
    0.1404  -40.1281  -27.6519 H   0  0  0  0  0  0  0  0  0  0  0  0
    4.9245  -33.5405  -24.0684 H   0  0  0  0  0  0  0  0  0  0  0  0
    3.6910  -32.5948  -22.4405 H   0  0  0  0  0  0  0  0  0  0  0  0
    0.4897  -31.8246  -21.2093 H   0  0  0  0  0  0  0  0  0  0  0  0
   -0.5631  -32.6125  -23.0634 H   0  0  0  0  0  0  0  0  0  0  0  0
   -0.2548  -33.7260  -25.2478 H   0  0  0  0  0  0  0  0  0  0  0  0
  1  2  2  0  0  0  0
  2  3  1  0  0  0  0
  2 10  1  0  0  0  0
  3  4  2  0  0  0  0
  3  6  1  0  0  0  0
  4  5  1  0  0  0  0
  4 18  1  0  0  0  0
  5  8  2  0  0  0  0
  5 19  1  0  0  0  0
  6  7  2  0  0  0  0
  6 20  1  0  0  0  0
  7  8  1  0  0  0  0
  7 21  1  0  0  0  0
  8  9  1  0  0  0  0
  9 22  1  0  0  0  0
 10 11  2  0  0  0  0
 10 17  1  0  0  0  0
 11 12  1  0  0  0  0
 11 13  1  0  0  0  0
 12 23  1  0  0  0  0
 13 14  2  0  0  0  0
 13 24  1  0  0  0  0
 14 15  1  0  0  0  0
 14 16  1  0  0  0  0
 15 25  1  0  0  0  0
 16 17  2  0  0  0  0
 16 26  1  0  0  0  0
 17 27  1  0  0  0  0
M  END
$$$$
