@<TRIPOS>MOLECULE
4YKY_4EU_A_301
 27 28 0 0 0
SMALL
USER_CHARGES

@<TRIPOS>ATOM
      1 O           2.5766  -33.9769  -27.3283 O.2     1  LIG1       -0.2865
      2 C           2.0793  -34.5388  -26.3612 C.2     1  LIG1        0.1966
      3 C           1.6061  -35.9508  -26.4553 C.ar    1  LIG1        0.0226
      4 C           1.2799  -36.6858  -25.3090 C.ar    1  LIG1       -0.0475
      5 C           0.8326  -37.9997  -25.4176 C.ar    1  LIG1       -0.0195
      6 C           1.4994  -36.5638  -27.7176 C.ar    1  LIG1       -0.0475
      7 C           1.0462  -37.8823  -27.8250 C.ar    1  LIG1       -0.0195
      8 C           0.7062  -38.5874  -26.6739 C.ar    1  LIG1        0.1169
      9 O           0.2406  -39.8656  -26.7220 O.3     1  LIG1       -0.5068
     10 C           1.9053  -33.7965  -25.0868 C.ar    1  LIG1        0.0638
     11 C           3.0162  -33.4840  -24.2955 C.ar    1  LIG1        0.1311
     12 O           4.2647  -33.8622  -24.7055 O.3     1  LIG1       -0.5059
     13 C           2.8436  -32.8434  -23.0717 C.ar    1  LIG1        0.0220
     14 C           1.5584  -32.5386  -22.6341 C.ar    1  LIG1        0.1204
     15 O           1.4330  -31.9481  -21.4093 O.3     1  LIG1       -0.5066
     16 C           0.4397  -32.8466  -23.4052 C.ar    1  LIG1       -0.0193
     17 C           0.6135  -33.4729  -24.6429 C.ar    1  LIG1       -0.0439
     18 H           1.3784  -36.2614  -24.3144 H       1  LIG1        0.0626
     19 H           0.5842  -38.5706  -24.5265 H       1  LIG1        0.0654
     20 H           1.7708  -36.0099  -28.6115 H       1  LIG1        0.0626
     21 H           0.9722  -38.3410  -28.8071 H       1  LIG1        0.0654
     22 H           0.1404  -40.1281  -27.6519 H       1  LIG1        0.2921
     23 H           4.9245  -33.5405  -24.0684 H       1  LIG1        0.2922
     24 H           3.6910  -32.5948  -22.4405 H       1  LIG1        0.0691
     25 H           0.4897  -31.8246  -21.2093 H       1  LIG1        0.2921
     26 H          -0.5631  -32.6125  -23.0634 H       1  LIG1        0.0654
     27 H          -0.2548  -33.7260  -25.2478 H       1  LIG1        0.0627
@<TRIPOS>BOND
     1     1     2    2
     2     2     3    1
     3     2    10    1
     4     3     4   ar
     5     3     6   ar
     6     4     5   ar
     7     4    18    1
     8     5     8   ar
     9     5    19    1
    10     6     7   ar
    11     6    20    1
    12     7     8   ar
    13     7    21    1
    14     8     9    1
    15     9    22    1
    16    10    11   ar
    17    10    17   ar
    18    11    12    1
    19    11    13   ar
    20    12    23    1
    21    13    14   ar
    22    13    24    1
    23    14    15    1
    24    14    16   ar
    25    15    25    1
    26    16    17   ar
    27    16    26    1
    28    17    27    1
