@<TRIPOS>MOLECULE
4YKZ_4EV_A_301
 27 28 0 0 0
SMALL
USER_CHARGES

@<TRIPOS>ATOM
      1 O          -2.6264   34.0847  -27.2609 O.2     1  LIG1       -0.2865
      2 C          -2.0645   34.5903  -26.2934 C.2     1  LIG1        0.1967
      3 C          -1.5393   35.9794  -26.3981 C.ar    1  LIG1        0.0258
      4 C          -1.3741   36.7705  -25.2549 C.ar    1  LIG1       -0.0507
      5 C          -0.9829   38.1051  -25.3804 C.ar    1  LIG1       -0.0576
      6 C          -0.7404   38.6482  -26.6412 C.ar    1  LIG1       -0.0201
      7 C          -1.2739   36.5203  -27.6652 C.ar    1  LIG1       -0.0094
      8 C          -0.8671   37.8486  -27.7737 C.ar    1  LIG1        0.1175
      9 O          -0.5827   38.4108  -28.9833 O.3     1  LIG1       -0.5067
     10 C          -1.9063   33.8163  -25.0375 C.ar    1  LIG1        0.0638
     11 C          -3.0248   33.3426  -24.3435 C.ar    1  LIG1        0.1311
     12 O          -4.2790   33.6016  -24.8194 O.3     1  LIG1       -0.5059
     13 C          -2.8620   32.6398  -23.1472 C.ar    1  LIG1        0.0220
     14 C          -1.5779   32.4005  -22.6582 C.ar    1  LIG1        0.1204
     15 O          -1.4451   31.7241  -21.4874 O.3     1  LIG1       -0.5066
     16 C          -0.4553   32.8486  -23.3501 C.ar    1  LIG1       -0.0193
     17 C          -0.6184   33.5609  -24.5424 C.ar    1  LIG1       -0.0439
     18 H          -1.5736   36.3749  -24.2646 H       1  LIG1        0.0625
     19 H          -0.8846   38.7237  -24.4916 H       1  LIG1        0.0619
     20 H          -0.4579   39.6937  -26.7382 H       1  LIG1        0.0654
     21 H          -1.3935   35.9039  -28.5526 H       1  LIG1        0.0661
     22 H          -0.6908   37.7387  -29.6788 H       1  LIG1        0.2921
     23 H          -4.9455   33.1670  -24.2638 H       1  LIG1        0.2922
     24 H          -3.7210   32.2843  -22.5869 H       1  LIG1        0.0691
     25 H          -0.5030   31.6337  -21.2731 H       1  LIG1        0.2921
     26 H           0.5451   32.6521  -22.9777 H       1  LIG1        0.0654
     27 H           0.2602   33.9080  -25.0793 H       1  LIG1        0.0627
@<TRIPOS>BOND
     1     1     2    2
     2     2     3    1
     3     2    10    1
     4     3     4   ar
     5     3     7   ar
     6     4     5   ar
     7     4    18    1
     8     5     6   ar
     9     5    19    1
    10     6     8   ar
    11     6    20    1
    12     7     8   ar
    13     7    21    1
    14     8     9    1
    15     9    22    1
    16    10    11   ar
    17    10    17   ar
    18    11    12    1
    19    11    13   ar
    20    12    23    1
    21    13    14   ar
    22    13    24    1
    23    14    15    1
    24    14    16   ar
    25    15    25    1
    26    16    17   ar
    27    16    26    1
    28    17    27    1
