REMARK  5 active torsions:
REMARK  status: ('A' for Active; 'I' for Inactive)
REMARK    1  A    between atoms: C_2  and  C_3 
REMARK    2  A    between atoms: C_2  and  C_10 
REMARK    3  A    between atoms: C_8  and  O_9 
REMARK    4  A    between atoms: C_11  and  O_12 
REMARK    5  A    between atoms: C_14  and  O_15 
ROOT
ATOM      1  C   LIG d   1      -1.906  33.816 -25.038  0.00  0.00     0.064 A 
ATOM      2  C   LIG d   1      -3.025  33.343 -24.343  0.00  0.00     0.131 A 
ATOM      3  C   LIG d   1      -2.862  32.640 -23.147  0.00  0.00     0.091 A 
ATOM      4  C   LIG d   1      -1.578  32.401 -22.658  0.00  0.00     0.120 A 
ATOM      5  C   LIG d   1      -0.455  32.849 -23.350  0.00  0.00     0.046 A 
ATOM      6  C   LIG d   1      -0.618  33.561 -24.542  0.00  0.00     0.019 A 
ENDROOT
BRANCH   1   7
ATOM      7  C   LIG d   1      -2.064  34.590 -26.293  0.00  0.00     0.197 C 
ATOM      8  O   LIG d   1      -2.626  34.085 -27.261  0.00  0.00    -0.286 OA
BRANCH   7   9
ATOM      9  C   LIG d   1      -1.539  35.979 -26.398  0.00  0.00     0.026 A 
ATOM     10  C   LIG d   1      -1.374  36.770 -25.255  0.00  0.00     0.012 A 
ATOM     11  C   LIG d   1      -0.983  38.105 -25.380  0.00  0.00     0.004 A 
ATOM     12  C   LIG d   1      -0.740  38.648 -26.641  0.00  0.00     0.045 A 
ATOM     13  C   LIG d   1      -0.867  37.849 -27.774  0.00  0.00     0.117 A 
ATOM     14  C   LIG d   1      -1.274  36.520 -27.665  0.00  0.00     0.057 A 
BRANCH  13  15
ATOM     15  O   LIG d   1      -0.583  38.411 -28.983  0.00  0.00    -0.507 OA
ATOM     16  H   LIG d   1      -0.691  37.739 -29.679  0.00  0.00     0.292 HD
ENDBRANCH  13  15
ENDBRANCH   7   9
ENDBRANCH   1   7
BRANCH   2  17
ATOM     17  O   LIG d   1      -4.279  33.602 -24.819  0.00  0.00    -0.506 OA
ATOM     18  H   LIG d   1      -4.946  33.167 -24.264  0.00  0.00     0.292 HD
ENDBRANCH   2  17
BRANCH   4  19
ATOM     19  O   LIG d   1      -1.445  31.724 -21.487  0.00  0.00    -0.507 OA
ATOM     20  H   LIG d   1      -0.503  31.634 -21.273  0.00  0.00     0.292 HD
ENDBRANCH   4  19
TORSDOF 5
