REMARK  4 active torsions:
REMARK  status: ('A' for Active; 'I' for Inactive)
REMARK    1  A    between atoms: O_4  and  C_5 
REMARK    2  A    between atoms: C_7  and  O_8 
REMARK    3  A    between atoms: C_12  and  O_14 
REMARK    4  A    between atoms: O_14  and  C_16 
ROOT
ATOM      1  C   LIG d   1      -1.518  11.650  24.455  0.00  0.00     0.124 A 
ATOM      2  C   LIG d   1      -1.628  12.285  23.216  0.00  0.00     0.091 A 
ATOM      3  C   LIG d   1      -0.465  12.649  22.537  0.00  0.00     0.124 A 
ATOM      4  C   LIG d   1       0.798  12.380  23.066  0.00  0.00     0.091 A 
ATOM      5  C   LIG d   1       0.895  11.753  24.308  0.00  0.00     0.135 A 
ATOM      6  C   LIG d   1      -0.264  11.377  25.007  0.00  0.00     0.091 A 
ENDROOT
BRANCH   5   7
ATOM      7  O   LIG d   1       2.086  11.363  24.882  0.00  0.00    -0.456 OA
BRANCH   7   8
ATOM      8  C   LIG d   1       3.216  12.121  24.687  0.00  0.00     0.130 A 
ATOM      9  C   LIG d   1       3.334  13.428  25.179  0.00  0.00     0.067 A 
ATOM     10  C   LIG d   1       4.569  14.085  25.080  0.00  0.00     0.063 A 
ATOM     11  C   LIG d   1       5.671  13.441  24.505  0.00  0.00     0.059 A 
ATOM     12 CL   LIG d   1       4.698  15.697  25.703  0.00  0.00    -0.082 Cl
ATOM     13  C   LIG d   1       5.554  12.136  24.018  0.00  0.00     0.025 A 
ATOM     14 CL   LIG d   1       7.216  14.223  24.371  0.00  0.00    -0.082 Cl
ATOM     15  C   LIG d   1       4.327  11.480  24.121  0.00  0.00     0.048 A 
ENDBRANCH   7   8
ENDBRANCH   5   7
BRANCH   3  16
ATOM     16  O   LIG d   1      -0.586  13.262  21.320  0.00  0.00    -0.506 OA
ATOM     17  H   LIG d   1       0.309  13.444  20.963  0.00  0.00     0.292 HD
ENDBRANCH   3  16
BRANCH   1  18
ATOM     18  O   LIG d   1      -2.662  11.291  25.113  0.00  0.00    -0.506 OA
ATOM     19  H   LIG d   1      -2.437  10.834  25.940  0.00  0.00     0.292 HD
ENDBRANCH   1  18
TORSDOF 4
