@<TRIPOS>MOLECULE
4BQG_50Q_A_1225
 25 26 0 0 0
SMALL
USER_CHARGES

@<TRIPOS>ATOM
      1 C           5.5538   12.1360   24.0181 C.ar    1  LIG1       -0.0385
      2 C           4.5693   14.0852   25.0803 C.ar    1  LIG1        0.0627
      3 C           3.3339   13.4281   25.1793 C.ar    1  LIG1        0.0004
      4 O          -2.6615   11.2908   25.1131 O.3     1  LIG1       -0.5065
      5 C          -1.5184   11.6505   24.4553 C.ar    1  LIG1        0.1238
      6 C          -1.6277   12.2847   23.2157 C.ar    1  LIG1        0.0215
      7 C          -0.4647   12.6492   22.5371 C.ar    1  LIG1        0.1238
      8 O          -0.5860   13.2616   21.3204 O.3     1  LIG1       -0.5065
      9 C           0.7983   12.3796   23.0656 C.ar    1  LIG1        0.0224
     10 C           4.3272   11.4804   24.1213 C.ar    1  LIG1       -0.0179
     11 C           5.6709   13.4412   24.5048 C.ar    1  LIG1        0.0595
     12 C           3.2163   12.1206   24.6870 C.ar    1  LIG1        0.1299
     13 CL          7.2161   14.2226   24.3713 Cl      1  LIG1       -0.0820
     14 O           2.0859   11.3631   24.8824 O.3     1  LIG1       -0.4557
     15 CL          4.6982   15.6967   25.7035 Cl      1  LIG1       -0.0819
     16 C           0.8947   11.7528   24.3084 C.ar    1  LIG1        0.1354
     17 C          -0.2644   11.3766   25.0066 C.ar    1  LIG1        0.0224
     18 H           6.4126   11.6345   23.5870 H       1  LIG1        0.0634
     19 H           2.4901   13.9092   25.6590 H       1  LIG1        0.0669
     20 H          -2.4369   10.8341   25.9401 H       1  LIG1        0.2921
     21 H          -2.6060   12.4898   22.7901 H       1  LIG1        0.0691
     22 H           0.3094   13.4435   20.9631 H       1  LIG1        0.2921
     23 H           1.6929   12.6341   22.5070 H       1  LIG1        0.0691
     24 H           4.2371   10.4433   23.7826 H       1  LIG1        0.0655
     25 H          -0.1770   10.8746   25.9588 H       1  LIG1        0.0691
@<TRIPOS>BOND
     1     1    10   ar
     2     1    11   ar
     3     1    18    1
     4     2     3   ar
     5     2    11   ar
     6     2    15    1
     7     3    12   ar
     8     3    19    1
     9     4     5    1
    10     4    20    1
    11     5     6   ar
    12     5    17   ar
    13     6     7   ar
    14     6    21    1
    15     7     8    1
    16     7     9   ar
    17     8    22    1
    18     9    16   ar
    19     9    23    1
    20    10    12   ar
    21    10    24    1
    22    11    13    1
    23    12    14    1
    24    14    16    1
    25    16    17   ar
    26    17    25    1
