REMARK  7 active torsions:
REMARK  status: ('A' for Active; 'I' for Inactive)
REMARK    1  A    between atoms: C_3  and  O_4 
REMARK    2  A    between atoms: C_9  and  C_10 
REMARK       I    between atoms: C_10  and  N_12 
REMARK    3  A    between atoms: N_12  and  C_13 
REMARK    4  A    between atoms: N_20  and  C_21 
REMARK    5  A    between atoms: C_26  and  C_27 
REMARK       I    between atoms: C_27  and  N_29 
REMARK    6  A    between atoms: N_29  and  C_30 
REMARK    7  A    between atoms: C_30  and  C_31 
ROOT
ATOM      1  C   LIG d   1      -3.979   5.766  -3.756  0.00  0.00     0.077 C 
ATOM      2  C   LIG d   1      -2.670   5.698  -4.581  0.00  0.00     0.044 C 
ATOM      3  C   LIG d   1      -5.224   5.554  -4.645  0.00  0.00     0.044 C 
ATOM      4  C   LIG d   1      -5.022   4.463  -5.714  0.00  0.00     0.077 C 
ATOM      5  C   LIG d   1      -4.544   3.115  -5.152  0.00  0.00     0.024 C 
ATOM      6  C   LIG d   1      -3.008   3.225  -5.119  0.00  0.00     0.024 C 
ATOM      7  C   LIG d   1      -2.697   4.623  -5.688  0.00  0.00     0.077 C 
ATOM      8  N   LIG d   1      -3.874   4.845  -6.522  0.00  0.00    -0.309 N 
ENDROOT
BRANCH   8   9
ATOM      9  C   LIG d   1      -3.897   5.730  -7.566  0.00  0.00     0.122 A 
ATOM     10  C   LIG d   1      -5.088   6.011  -8.233  0.00  0.00     0.044 A 
ATOM     11  C   LIG d   1      -5.108   6.852  -9.341  0.00  0.00     0.018 A 
ATOM     12  C   LIG d   1      -3.923   7.412  -9.796  0.00  0.00     0.055 A 
ATOM     13  C   LIG d   1      -2.773   7.105  -9.083  0.00  0.00     0.126 A 
ATOM     14  N   LIG d   1      -2.744   6.288  -7.991  0.00  0.00    -0.240 NA
BRANCH  12  15
ATOM     15  C   LIG d   1      -3.834   8.256 -11.018  0.00  0.00     0.246 C 
ATOM     16  O   LIG d   1      -2.743   8.660 -11.402  0.00  0.00    -0.270 OA
ATOM     17  N   LIG d   1      -5.019   8.525 -11.676  0.00  0.00    -0.307 N 
ATOM     18  H   LIG d   1      -5.908   8.252 -11.298  0.00  0.00     0.149 HD
BRANCH  17  19
ATOM     19  C   LIG d   1      -5.062   9.266 -12.914  0.00  0.00     0.140 C 
BRANCH  19  20
ATOM     20  C   LIG d   1      -5.011  10.766 -12.752  0.00  0.00    -0.030 A 
ATOM     21  C   LIG d   1      -4.768  11.546 -13.892  0.00  0.00     0.005 A 
ATOM     22  C   LIG d   1      -4.706  12.938 -13.802  0.00  0.00     0.000 A 
ATOM     23  C   LIG d   1      -4.892  13.566 -12.573  0.00  0.00     0.000 A 
ATOM     24  C   LIG d   1      -5.149  12.803 -11.436  0.00  0.00     0.000 A 
ATOM     25  C   LIG d   1      -5.217  11.412 -11.526  0.00  0.00     0.005 A 
ENDBRANCH  19  20
ENDBRANCH  17  19
ENDBRANCH  12  15
ENDBRANCH   8   9
BRANCH   1  26
ATOM     26  N   LIG d   1      -4.004   4.817  -2.639  0.00  0.00    -0.308 N 
ATOM     27  C   LIG d   1      -3.204   4.897  -1.526  0.00  0.00     0.245 C 
ATOM     28  O   LIG d   1      -2.386   5.784  -1.313  0.00  0.00    -0.270 OA
ATOM     29  H   LIG d   1      -4.752   4.137  -2.604  0.00  0.00     0.149 HD
BRANCH  27  30
ATOM     30  C   LIG d   1      -3.417   3.781  -0.560  0.00  0.00     0.043 A 
ATOM     31  C   LIG d   1      -3.749   4.020   0.788  0.00  0.00     0.003 A 
ATOM     32  C   LIG d   1      -3.889   5.431   1.298  0.00  0.00     0.048 C 
ATOM     33  C   LIG d   1      -3.983   2.912   1.631  0.00  0.00     0.124 A 
ATOM     34  C   LIG d   1      -3.872   1.608   1.127  0.00  0.00     0.046 A 
ATOM     35  C   LIG d   1      -3.538   1.387  -0.206  0.00  0.00     0.004 A 
ATOM     36  C   LIG d   1      -3.310   2.469  -1.048  0.00  0.00     0.013 A 
BRANCH  33  37
ATOM     37  O   LIG d   1      -4.316   3.204   2.929  0.00  0.00    -0.495 OA
ATOM     38  C   LIG d   1      -4.678   2.124   3.779  0.00  0.00     0.277 C 
ENDBRANCH  33  37
ENDBRANCH  27  30
ENDBRANCH   1  26
TORSDOF 7
