@<TRIPOS>MOLECULE
4AWQ_592_A_1224
 68 72 0 0 0
SMALL
USER_CHARGES

@<TRIPOS>ATOM
      1 C          -3.8893    5.4308    1.2977 C.3     1  LIG1       -0.0355
      2 C          -3.7486    4.0203    0.7881 C.ar    1  LIG1        0.0033
      3 C          -3.9832    2.9124    1.6309 C.ar    1  LIG1        0.1237
      4 O          -4.3160    3.2037    2.9291 O.3     1  LIG1       -0.4948
      5 C          -4.6779    2.1243    3.7792 C.3     1  LIG1        0.0788
      6 C          -3.8723    1.6080    1.1275 C.ar    1  LIG1       -0.0197
      7 C          -3.5380    1.3872   -0.2063 C.ar    1  LIG1       -0.0576
      8 C          -3.3103    2.4689   -1.0483 C.ar    1  LIG1       -0.0492
      9 C          -3.4168    3.7809   -0.5602 C.ar    1  LIG1        0.0431
     10 C          -3.2036    4.8969   -1.5256 C.2     1  LIG1        0.2447
     11 O          -2.3860    5.7835   -1.3135 O.2     1  LIG1       -0.2702
     12 N          -4.0036    4.8167   -2.6388 N.am    1  LIG1       -0.3084
     13 C          -3.9788    5.7665   -3.7564 C.3     1  LIG1        0.0268
     14 C          -2.6699    5.6976   -4.5810 C.3     1  LIG1       -0.0157
     15 C          -5.2237    5.5543   -4.6446 C.3     1  LIG1       -0.0157
     16 C          -5.0223    4.4626   -5.7144 C.3     1  LIG1        0.0269
     17 C          -4.5438    3.1148   -5.1521 C.3     1  LIG1       -0.0326
     18 C          -3.0084    3.2252   -5.1185 C.3     1  LIG1       -0.0326
     19 C          -2.6966    4.6227   -5.6875 C.3     1  LIG1        0.0269
     20 N          -3.8741    4.8452   -6.5221 N.pl3   1  LIG1       -0.3090
     21 C          -3.8973    5.7296   -7.5662 C.ar    1  LIG1        0.1217
     22 C          -5.0876    6.0114   -8.2332 C.ar    1  LIG1       -0.0210
     23 C          -5.1081    6.8521   -9.3412 C.ar    1  LIG1       -0.0449
     24 N          -2.7441    6.2885   -7.9908 N.ar    1  LIG1       -0.2396
     25 C          -2.7731    7.1046   -9.0829 C.ar    1  LIG1        0.0418
     26 C          -3.9232    7.4117   -9.7964 C.ar    1  LIG1        0.0549
     27 C          -3.8344    8.2557  -11.0176 C.2     1  LIG1        0.2458
     28 O          -2.7427    8.6601  -11.4023 O.2     1  LIG1       -0.2701
     29 N          -5.0189    8.5246  -11.6758 N.am    1  LIG1       -0.3072
     30 C          -5.0617    9.2659  -12.9138 C.3     1  LIG1        0.0371
     31 C          -5.0109   10.7656  -12.7518 C.ar    1  LIG1       -0.0303
     32 C          -4.7682   11.5461  -13.8918 C.ar    1  LIG1       -0.0571
     33 C          -4.7059   12.9385  -13.8016 C.ar    1  LIG1       -0.0615
     34 C          -4.8916   13.5655  -12.5729 C.ar    1  LIG1       -0.0617
     35 C          -5.1491   12.8031  -11.4364 C.ar    1  LIG1       -0.0615
     36 C          -5.2174   11.4124  -11.5256 C.ar    1  LIG1       -0.0571
     37 H          -4.1389    5.4745    2.3623 H       1  LIG1        0.0279
     38 H          -4.6918    5.9446    0.7586 H       1  LIG1        0.0279
     39 H          -2.9515    5.9791    1.1750 H       1  LIG1        0.0279
     40 H          -4.9407    2.5437    4.7549 H       1  LIG1        0.0660
     41 H          -3.8375    1.4387    3.9283 H       1  LIG1        0.0660
     42 H          -5.5576    1.5981    3.3943 H       1  LIG1        0.0660
     43 H          -4.0344    0.7380    1.7551 H       1  LIG1        0.0654
     44 H          -3.4494    0.3716   -0.5851 H       1  LIG1        0.0619
     45 H          -3.0342    2.2827   -2.0814 H       1  LIG1        0.0625
     46 H          -4.7517    4.1374   -2.6038 H       1  LIG1        0.1493
     47 H          -4.0396    6.7604   -3.2919 H       1  LIG1        0.0499
     48 H          -1.8031    5.5373   -3.9307 H       1  LIG1        0.0301
     49 H          -2.5229    6.6754   -5.0602 H       1  LIG1        0.0301
     50 H          -5.4472    6.5028   -5.1516 H       1  LIG1        0.0301
     51 H          -6.1005    5.3149   -4.0318 H       1  LIG1        0.0301
     52 H          -5.9439    4.3047   -6.2819 H       1  LIG1        0.0501
     53 H          -4.8215    2.3098   -5.8429 H       1  LIG1        0.0284
     54 H          -4.9912    2.8615   -4.1891 H       1  LIG1        0.0284
     55 H          -2.5846    2.4489   -5.7668 H       1  LIG1        0.0284
     56 H          -2.5868    3.0710   -4.1232 H       1  LIG1        0.0284
     57 H          -1.7543    4.6059   -6.2465 H       1  LIG1        0.0501
     58 H          -6.0231    5.5613   -7.9279 H       1  LIG1        0.0652
     59 H          -6.0625    7.0109   -9.8240 H       1  LIG1        0.0627
     60 H          -1.8036    7.5005   -9.3769 H       1  LIG1        0.0838
     61 H          -5.9077    8.2520  -11.2978 H       1  LIG1        0.1493
     62 H          -6.0085    8.9990  -13.4017 H       1  LIG1        0.0512
     63 H          -4.2367    8.9247  -13.5475 H       1  LIG1        0.0512
     64 H          -4.6097   11.0717  -14.8569 H       1  LIG1        0.0621
     65 H          -4.5001   13.5289  -14.6911 H       1  LIG1        0.0618
     66 H          -4.8281   14.6468  -12.5007 H       1  LIG1        0.0618
     67 H          -5.2849   13.2915  -10.4732 H       1  LIG1        0.0618
     68 H          -5.4096   10.8443  -10.6190 H       1  LIG1        0.0621
@<TRIPOS>BOND
     1     1     2    1
     2     1    37    1
     3     1    38    1
     4     1    39    1
     5     2     3   ar
     6     2     9   ar
     7     3     4    1
     8     3     6   ar
     9     4     5    1
    10     5    40    1
    11     5    41    1
    12     5    42    1
    13     6     7   ar
    14     6    43    1
    15     7     8   ar
    16     7    44    1
    17     8     9   ar
    18     8    45    1
    19     9    10    1
    20    10    11    2
    21    10    12   am
    22    12    13    1
    23    12    46    1
    24    13    14    1
    25    13    15    1
    26    13    47    1
    27    14    19    1
    28    14    48    1
    29    14    49    1
    30    15    16    1
    31    15    50    1
    32    15    51    1
    33    16    17    1
    34    16    20    1
    35    16    52    1
    36    17    18    1
    37    17    53    1
    38    17    54    1
    39    18    19    1
    40    18    55    1
    41    18    56    1
    42    19    20    1
    43    19    57    1
    44    20    21    1
    45    21    22   ar
    46    21    24   ar
    47    22    23   ar
    48    22    58    1
    49    23    26   ar
    50    23    59    1
    51    24    25   ar
    52    25    26   ar
    53    25    60    1
    54    26    27    1
    55    27    28    2
    56    27    29   am
    57    29    30    1
    58    29    61    1
    59    30    31    1
    60    30    62    1
    61    30    63    1
    62    31    32   ar
    63    31    36   ar
    64    32    33   ar
    65    32    64    1
    66    33    34   ar
    67    33    65    1
    68    34    35   ar
    69    34    66    1
    70    35    36   ar
    71    35    67    1
    72    36    68    1
