@<TRIPOS>MOLECULE
4CWN_6LV_A_1224
 42 45 0 0 0
SMALL
USER_CHARGES

@<TRIPOS>ATOM
      1 N          -2.1498   11.8189   24.1271 N.pl3   1  LIG1       -0.3262
      2 C          -1.0752   11.2103   24.6012 C.ar    1  LIG1        0.2328
      3 N           0.1177   11.1667   24.0080 N.ar    1  LIG1       -0.1276
      4 N           0.8150   10.4214   24.8858 N.ar    1  LIG1       -0.1963
      5 C           0.0326   10.0616   25.9502 C.ar    1  LIG1        0.1688
      6 N          -1.1757   10.5552   25.7908 N.ar    1  LIG1       -0.1936
      7 C           2.1506   10.0288   24.7723 C.ar    1  LIG1        0.1378
      8 N           2.7282    9.2855   25.6760 N.ar    1  LIG1       -0.2315
      9 C           1.9787    8.8880   26.8140 C.ar    1  LIG1        0.0766
     10 C           2.6068    8.1175   27.7907 C.ar    1  LIG1       -0.0356
     11 C           1.8994    7.7027   28.9187 C.ar    1  LIG1       -0.0597
     12 C           0.5584    8.0585   29.0804 C.ar    1  LIG1       -0.0610
     13 C          -0.0832    8.8382   28.1184 C.ar    1  LIG1       -0.0490
     14 C           0.6251    9.2503   26.9914 C.ar    1  LIG1        0.0447
     15 C           2.8931   10.5443   23.5722 C.3     1  LIG1        0.0328
     16 C           3.8643   11.6361   23.9618 C.ar    1  LIG1       -0.0332
     17 C           3.3941   12.8400   24.5064 C.ar    1  LIG1       -0.0161
     18 C           4.2767   13.8491   24.8929 C.ar    1  LIG1        0.1238
     19 O           3.6719   14.9547   25.4239 O.3     1  LIG1       -0.4950
     20 C           4.5191   16.0013   25.8782 C.3     1  LIG1        0.0788
     21 C           5.6460   13.6595   24.7119 C.ar    1  LIG1        0.0218
     22 C           6.1377   12.4640   24.1701 C.ar    1  LIG1        0.1238
     23 C           5.2463   11.4569   23.7991 C.ar    1  LIG1       -0.0161
     24 O           7.5003   12.4137   24.0366 O.3     1  LIG1       -0.4950
     25 C           8.0763   11.1454   23.7450 C.3     1  LIG1        0.0788
     26 H          -3.0114   11.8285   24.6552 H       1  LIG1        0.1452
     27 H          -2.1155   12.3556   23.2722 H       1  LIG1        0.1452
     28 H           3.6520    7.8429   27.6673 H       1  LIG1        0.0639
     29 H           2.3963    7.0989   29.6741 H       1  LIG1        0.0618
     30 H           0.0113    7.7279   29.9602 H       1  LIG1        0.0618
     31 H          -1.1260    9.1197   28.2452 H       1  LIG1        0.0625
     32 H           2.2380   10.9036   22.7728 H       1  LIG1        0.0392
     33 H           3.4437    9.6931   23.1525 H       1  LIG1        0.0392
     34 H           2.3268   13.0047   24.6440 H       1  LIG1        0.0657
     35 H           3.8803   16.8002   26.2701 H       1  LIG1        0.0660
     36 H           5.1062   16.4199   25.0542 H       1  LIG1        0.0660
     37 H           5.1655   15.6615   26.6941 H       1  LIG1        0.0660
     38 H           6.3639   14.4252   24.9874 H       1  LIG1        0.0691
     39 H           5.6024   10.5215   23.3781 H       1  LIG1        0.0657
     40 H           9.1592   11.2833   23.6647 H       1  LIG1        0.0660
     41 H           7.7279   10.7504   22.7853 H       1  LIG1        0.0660
     42 H           7.8879   10.4355   24.5572 H       1  LIG1        0.0660
@<TRIPOS>BOND
     1     1     2    1
     2     1    26    1
     3     1    27    1
     4     2     3   ar
     5     2     6   ar
     6     3     4   ar
     7     4     5   ar
     8     4     7   ar
     9     5     6   ar
    10     5    14   ar
    11     7     8   ar
    12     7    15    1
    13     8     9   ar
    14     9    10   ar
    15     9    14   ar
    16    10    11   ar
    17    10    28    1
    18    11    12   ar
    19    11    29    1
    20    12    13   ar
    21    12    30    1
    22    13    14   ar
    23    13    31    1
    24    15    16    1
    25    15    32    1
    26    15    33    1
    27    16    17   ar
    28    16    23   ar
    29    17    18   ar
    30    17    34    1
    31    18    19    1
    32    18    21   ar
    33    19    20    1
    34    20    35    1
    35    20    36    1
    36    20    37    1
    37    21    22   ar
    38    21    38    1
    39    22    23   ar
    40    22    24    1
    41    23    39    1
    42    24    25    1
    43    25    40    1
    44    25    41    1
    45    25    42    1
