@<TRIPOS>MOLECULE
2YI6_6QM_A_1225
 42 44 0 0 0
SMALL
USER_CHARGES

@<TRIPOS>ATOM
      1 N          29.9142    9.3664   28.0710 N.ar    1  LIG1       -0.1094
      2 N          29.8315   10.1543   27.0343 N.ar    1  LIG1       -0.1404
      3 C          30.5975    9.6813   25.9809 C.ar    1  LIG1        0.1131
      4 C          31.2799    8.5007   26.2134 C.ar    1  LIG1        0.0673
      5 C          30.7070   10.4256   24.7721 C.ar    1  LIG1        0.0452
      6 C          32.1860    7.7385   25.3545 C.ar    1  LIG1       -0.0075
      7 C          33.4787    7.4408   25.8110 C.ar    1  LIG1       -0.0500
      8 C          34.3936    6.7568   25.0071 C.ar    1  LIG1       -0.0193
      9 C          34.0153    6.3812   23.7168 C.ar    1  LIG1        0.1205
     10 C          32.7327    6.7000   23.2595 C.ar    1  LIG1       -0.0193
     11 C          31.8209    7.3686   24.0640 C.ar    1  LIG1       -0.0500
     12 C          29.5576   10.7534   24.0346 C.ar    1  LIG1        0.1296
     13 C          29.6591   11.4550   22.8614 C.ar    1  LIG1        0.0222
     14 C          30.9210   11.8537   22.4228 C.ar    1  LIG1        0.1235
     15 C          32.0835   11.5175   23.1337 C.ar    1  LIG1       -0.0054
     16 C          31.9642   10.8222   24.3180 C.ar    1  LIG1       -0.0423
     17 O          30.9418   12.5956   21.2779 O.3     1  LIG1       -0.5064
     18 O          28.3269   10.3482   24.4766 O.3     1  LIG1       -0.5060
     19 O          34.9583    5.7273   22.9443 O.3     1  LIG1       -0.4922
     20 S          30.9143    8.0442   27.8222 S.2     1  LIG1        0.0372
     21 C          34.4866    5.5399   21.6065 C.3     1  LIG1        0.0868
     22 C          35.4561    4.8308   20.7002 C.3     1  LIG1       -0.0307
     23 C          33.4458   11.9754   22.7161 C.3     1  LIG1       -0.0271
     24 C          33.7149   13.3228   23.3691 C.3     1  LIG1       -0.0611
     25 H          33.7930    7.7633   26.8061 H       1  LIG1        0.0625
     26 H          35.3795    6.5208   25.3931 H       1  LIG1        0.0654
     27 H          32.3806    6.4356   22.2655 H       1  LIG1        0.0654
     28 H          30.8432    7.6001   23.6459 H       1  LIG1        0.0625
     29 H          28.7851   11.7088   22.2669 H       1  LIG1        0.0691
     30 H          32.8521   10.5806   24.9051 H       1  LIG1        0.0629
     31 H          31.8585   12.8291   21.0853 H       1  LIG1        0.2921
     32 H          27.6489   10.7462   23.9031 H       1  LIG1        0.2922
     33 H          34.2834    6.5244   21.1664 H       1  LIG1        0.0694
     34 H          33.5840    4.9181   21.6315 H       1  LIG1        0.0694
     35 H          36.3949    5.3811   20.6195 H       1  LIG1        0.0262
     36 H          35.0008    4.7530   19.7059 H       1  LIG1        0.0262
     37 H          35.6650    3.8241   21.0687 H       1  LIG1        0.0262
     38 H          33.5163   12.0389   21.6259 H       1  LIG1        0.0312
     39 H          34.2034   11.2383   23.0123 H       1  LIG1        0.0312
     40 H          32.9521   14.0564   23.0862 H       1  LIG1        0.0233
     41 H          34.6948   13.7057   23.0661 H       1  LIG1        0.0233
     42 H          33.6965   13.2394   24.4607 H       1  LIG1        0.0233
@<TRIPOS>BOND
     1     1     2   ar
     2     1    20   ar
     3     2     3   ar
     4     3     4   ar
     5     3     5    1
     6     4     6    1
     7     4    20   ar
     8     5    12   ar
     9     5    16   ar
    10     6     7   ar
    11     6    11   ar
    12     7     8   ar
    13     7    25    1
    14     8     9   ar
    15     8    26    1
    16     9    10   ar
    17     9    19    1
    18    10    11   ar
    19    10    27    1
    20    11    28    1
    21    12    13   ar
    22    12    18    1
    23    13    14   ar
    24    13    29    1
    25    14    15   ar
    26    14    17    1
    27    15    16   ar
    28    15    23    1
    29    16    30    1
    30    17    31    1
    31    18    32    1
    32    19    21    1
    33    21    22    1
    34    21    33    1
    35    21    34    1
    36    22    35    1
    37    22    36    1
    38    22    37    1
    39    23    24    1
    40    23    38    1
    41    23    39    1
    42    24    40    1
    43    24    41    1
    44    24    42    1
