REMARK  7 active torsions:
REMARK  status: ('A' for Active; 'I' for Inactive)
REMARK    1  A    between atoms: C_3  and  C_5 
REMARK    2  A    between atoms: C_4  and  C_6 
REMARK    3  A    between atoms: C_9  and  O_19 
REMARK    4  A    between atoms: C_12  and  O_18 
REMARK    5  A    between atoms: C_14  and  O_17 
REMARK    6  A    between atoms: C_15  and  C_23 
REMARK    7  A    between atoms: O_19  and  C_21 
ROOT
ATOM      1  N   LIG d   1      29.914   9.366  28.071  0.00  0.00    -0.109 NA
ATOM      2  N   LIG d   1      29.831  10.154  27.034  0.00  0.00    -0.140 NA
ATOM      3  C   LIG d   1      30.598   9.681  25.981  0.00  0.00     0.113 A 
ATOM      4  C   LIG d   1      31.280   8.501  26.213  0.00  0.00     0.067 A 
ATOM      5  S   LIG d   1      30.914   8.044  27.822  0.00  0.00     0.037 SA
ENDROOT
BRANCH   3   6
ATOM      6  C   LIG d   1      30.707  10.426  24.772  0.00  0.00     0.045 A 
ATOM      7  C   LIG d   1      29.558  10.753  24.035  0.00  0.00     0.130 A 
ATOM      8  C   LIG d   1      29.659  11.455  22.861  0.00  0.00     0.091 A 
ATOM      9  C   LIG d   1      30.921  11.854  22.423  0.00  0.00     0.123 A 
ATOM     10  C   LIG d   1      32.084  11.518  23.134  0.00  0.00    -0.005 A 
ATOM     11  C   LIG d   1      31.964  10.822  24.318  0.00  0.00     0.021 A 
BRANCH   7  12
ATOM     12  O   LIG d   1      28.327  10.348  24.477  0.00  0.00    -0.506 OA
ATOM     13  H   LIG d   1      27.649  10.746  23.903  0.00  0.00     0.292 HD
ENDBRANCH   7  12
BRANCH   9  14
ATOM     14  O   LIG d   1      30.942  12.596  21.278  0.00  0.00    -0.506 OA
ATOM     15  H   LIG d   1      31.858  12.829  21.085  0.00  0.00     0.292 HD
ENDBRANCH   9  14
BRANCH  10  16
ATOM     16  C   LIG d   1      33.446  11.975  22.716  0.00  0.00     0.035 C 
ATOM     17  C   LIG d   1      33.715  13.323  23.369  0.00  0.00     0.009 C 
ENDBRANCH  10  16
ENDBRANCH   3   6
BRANCH   4  18
ATOM     18  C   LIG d   1      32.186   7.739  25.355  0.00  0.00    -0.007 A 
ATOM     19  C   LIG d   1      33.479   7.441  25.811  0.00  0.00     0.012 A 
ATOM     20  C   LIG d   1      34.394   6.757  25.007  0.00  0.00     0.046 A 
ATOM     21  C   LIG d   1      34.015   6.381  23.717  0.00  0.00     0.120 A 
ATOM     22  C   LIG d   1      32.733   6.700  23.259  0.00  0.00     0.046 A 
ATOM     23  C   LIG d   1      31.821   7.369  24.064  0.00  0.00     0.012 A 
BRANCH  21  24
ATOM     24  O   LIG d   1      34.958   5.727  22.944  0.00  0.00    -0.492 OA
BRANCH  24  25
ATOM     25  C   LIG d   1      34.487   5.540  21.607  0.00  0.00     0.226 C 
ATOM     26  C   LIG d   1      35.456   4.831  20.700  0.00  0.00     0.048 C 
ENDBRANCH  24  25
ENDBRANCH  21  24
ENDBRANCH   4  18
TORSDOF 7
