@<TRIPOS>MOLECULE
5GGZ_6TN_B_301
 49 51 0 0 0
SMALL
USER_CHARGES

@<TRIPOS>ATOM
      1 C          16.2978  -11.4716  -48.3892 C.2     1  LIG1        0.2504
      2 C          17.5303  -10.1750  -50.1467 C.ar    1  LIG1       -0.0392
      3 C          18.9525   -8.9041  -51.8292 C.3     1  LIG1       -0.0180
      4 C          20.1497   -9.8262  -51.5686 C.3     1  LIG1       -0.0585
      5 C          15.1864   -9.7182  -51.5741 C.ar    1  LIG1        0.0223
      6 C          15.1414  -10.4410  -50.3698 C.ar    1  LIG1        0.1324
      7 C          18.6990  -13.8833  -49.4768 C.3     1  LIG1        0.0060
      8 C          20.7361  -19.1307  -45.7441 C.3     1  LIG1       -0.0306
      9 C          21.4198  -17.7726  -45.7223 C.3     1  LIG1        0.0899
     10 O          21.2253  -17.0770  -46.9853 O.3     1  LIG1       -0.4627
     11 C          20.1277  -16.2461  -47.0158 C.ar    1  LIG1        0.3181
     12 N          19.2894  -16.2025  -45.9665 N.ar    1  LIG1       -0.2030
     13 C          18.2490  -15.3515  -46.0624 C.ar    1  LIG1        0.0393
     14 C          17.9945  -14.5491  -47.1581 C.ar    1  LIG1        0.0095
     15 C          16.8044  -13.6216  -47.2174 C.3     1  LIG1        0.0432
     16 N          16.8014  -12.7744  -48.4225 N.am    1  LIG1       -0.2926
     17 O          15.7871  -10.9735  -47.3979 O.2     1  LIG1       -0.2698
     18 C          16.3133  -10.6717  -49.6531 C.ar    1  LIG1        0.0787
     19 C          17.6096   -9.4654  -51.3740 C.ar    1  LIG1       -0.0024
     20 C          19.1719   -7.5605  -51.1337 C.3     1  LIG1       -0.0585
     21 C          16.4163   -9.2308  -52.0710 C.ar    1  LIG1        0.1238
     22 O          16.3626   -8.5249  -53.2441 O.3     1  LIG1       -0.5064
     23 O          13.9282  -10.9306  -49.9625 O.3     1  LIG1       -0.5059
     24 C          17.2537  -13.4312  -49.6383 C.3     1  LIG1        0.0207
     25 C          18.8963  -14.6906  -48.2087 C.ar    1  LIG1        0.0542
     26 N          19.9738  -15.5240  -48.1470 N.ar    1  LIG1       -0.1995
     27 H          18.4265  -10.3484  -49.5639 H       1  LIG1        0.0630
     28 H          18.9516   -8.7507  -52.9174 H       1  LIG1        0.0345
     29 H          20.3068  -10.0021  -50.5006 H       1  LIG1        0.0235
     30 H          21.0730   -9.3796  -51.9549 H       1  LIG1        0.0235
     31 H          20.0113  -10.7944  -52.0608 H       1  LIG1        0.0235
     32 H          14.2720   -9.5281  -52.1305 H       1  LIG1        0.0691
     33 H          19.3484  -12.9965  -49.4410 H       1  LIG1        0.0344
     34 H          18.9748  -14.4703  -50.3574 H       1  LIG1        0.0344
     35 H          20.8504  -19.6420  -44.7824 H       1  LIG1        0.0262
     36 H          21.1571  -19.7715  -46.5264 H       1  LIG1        0.0262
     37 H          19.6691  -19.0197  -45.9540 H       1  LIG1        0.0262
     38 H          22.4955  -17.9319  -45.5699 H       1  LIG1        0.0695
     39 H          21.0898  -17.1820  -44.8605 H       1  LIG1        0.0695
     40 H          17.6030  -15.3412  -45.1852 H       1  LIG1        0.0835
     41 H          16.7772  -12.9933  -46.3216 H       1  LIG1        0.0515
     42 H          15.8868  -14.2283  -47.2311 H       1  LIG1        0.0515
     43 H          19.1994   -7.6902  -50.0454 H       1  LIG1        0.0235
     44 H          18.3611   -6.8604  -51.3629 H       1  LIG1        0.0235
     45 H          20.1164   -7.1000  -51.4401 H       1  LIG1        0.0235
     46 H          17.2476   -8.1968  -53.4988 H       1  LIG1        0.2921
     47 H          14.0243  -11.3478  -49.0887 H       1  LIG1        0.2922
     48 H          16.5854  -14.2760  -49.8405 H       1  LIG1        0.0468
     49 H          17.1738  -12.7650  -50.4953 H       1  LIG1        0.0468
@<TRIPOS>BOND
     1     1    16   am
     2     1    17    2
     3     1    18    1
     4     2    18   ar
     5     2    19   ar
     6     2    27    1
     7     3     4    1
     8     3    19    1
     9     3    20    1
    10     3    28    1
    11     4    29    1
    12     4    30    1
    13     4    31    1
    14     5     6   ar
    15     5    21   ar
    16     5    32    1
    17     6    18   ar
    18     6    23    1
    19     7    24    1
    20     7    25    1
    21     7    33    1
    22     7    34    1
    23     8     9    1
    24     8    35    1
    25     8    36    1
    26     8    37    1
    27     9    10    1
    28     9    38    1
    29     9    39    1
    30    10    11    1
    31    11    12   ar
    32    11    26   ar
    33    12    13   ar
    34    13    14   ar
    35    13    40    1
    36    14    15    1
    37    14    25   ar
    38    15    16    1
    39    15    41    1
    40    15    42    1
    41    16    24    1
    42    19    21   ar
    43    20    43    1
    44    20    44    1
    45    20    45    1
    46    21    22    1
    47    22    46    1
    48    23    47    1
    49    24    48    1
    50    24    49    1
    51    25    26   ar
