5GGZ_6TN_B_301
 OpenBabel03301717383D

 49 51  0  0  0  0  0  0  0  0999 V2000
   16.2978  -11.4716  -48.3892 C   0  0  0  0  0  0  0  0  0  0  0  0
   17.5303  -10.1750  -50.1467 C   0  0  0  0  0  0  0  0  0  0  0  0
   18.9525   -8.9041  -51.8292 C   0  0  0  0  0  0  0  0  0  0  0  0
   20.1497   -9.8262  -51.5686 C   0  0  0  0  0  0  0  0  0  0  0  0
   15.1864   -9.7182  -51.5741 C   0  0  0  0  0  0  0  0  0  0  0  0
   15.1414  -10.4410  -50.3698 C   0  0  0  0  0  0  0  0  0  0  0  0
   18.6990  -13.8833  -49.4768 C   0  0  0  0  0  0  0  0  0  0  0  0
   20.7361  -19.1307  -45.7441 C   0  0  0  0  0  0  0  0  0  0  0  0
   21.4198  -17.7726  -45.7223 C   0  0  0  0  0  0  0  0  0  0  0  0
   21.2253  -17.0770  -46.9853 O   0  0  0  0  0  0  0  0  0  0  0  0
   20.1277  -16.2461  -47.0158 C   0  0  0  0  0  0  0  0  0  0  0  0
   19.2894  -16.2025  -45.9665 N   0  0  0  0  0  0  0  0  0  0  0  0
   18.2490  -15.3515  -46.0624 C   0  0  0  0  0  0  0  0  0  0  0  0
   17.9945  -14.5491  -47.1581 C   0  0  0  0  0  0  0  0  0  0  0  0
   16.8044  -13.6216  -47.2174 C   0  0  0  0  0  0  0  0  0  0  0  0
   16.8014  -12.7744  -48.4225 N   0  0  0  0  0  0  0  0  0  0  0  0
   15.7871  -10.9735  -47.3979 O   0  0  0  0  0  0  0  0  0  0  0  0
   16.3133  -10.6717  -49.6531 C   0  0  0  0  0  0  0  0  0  0  0  0
   17.6096   -9.4654  -51.3740 C   0  0  0  0  0  0  0  0  0  0  0  0
   19.1719   -7.5605  -51.1337 C   0  0  0  0  0  0  0  0  0  0  0  0
   16.4163   -9.2308  -52.0710 C   0  0  0  0  0  0  0  0  0  0  0  0
   16.3626   -8.5249  -53.2441 O   0  0  0  0  0  0  0  0  0  0  0  0
   13.9282  -10.9306  -49.9625 O   0  0  0  0  0  0  0  0  0  0  0  0
   17.2537  -13.4312  -49.6383 C   0  0  0  0  0  0  0  0  0  0  0  0
   18.8963  -14.6906  -48.2087 C   0  0  0  0  0  0  0  0  0  0  0  0
   19.9738  -15.5240  -48.1470 N   0  0  0  0  0  0  0  0  0  0  0  0
   18.4265  -10.3484  -49.5639 H   0  0  0  0  0  0  0  0  0  0  0  0
   18.9516   -8.7507  -52.9174 H   0  0  0  0  0  0  0  0  0  0  0  0
   20.3068  -10.0021  -50.5006 H   0  0  0  0  0  0  0  0  0  0  0  0
   21.0730   -9.3796  -51.9549 H   0  0  0  0  0  0  0  0  0  0  0  0
   20.0113  -10.7944  -52.0608 H   0  0  0  0  0  0  0  0  0  0  0  0
   14.2720   -9.5281  -52.1305 H   0  0  0  0  0  0  0  0  0  0  0  0
   19.3484  -12.9965  -49.4410 H   0  0  0  0  0  0  0  0  0  0  0  0
   18.9748  -14.4703  -50.3574 H   0  0  0  0  0  0  0  0  0  0  0  0
   20.8504  -19.6420  -44.7824 H   0  0  0  0  0  0  0  0  0  0  0  0
   21.1571  -19.7715  -46.5264 H   0  0  0  0  0  0  0  0  0  0  0  0
   19.6691  -19.0197  -45.9540 H   0  0  0  0  0  0  0  0  0  0  0  0
   22.4955  -17.9319  -45.5699 H   0  0  0  0  0  0  0  0  0  0  0  0
   21.0898  -17.1820  -44.8605 H   0  0  0  0  0  0  0  0  0  0  0  0
   17.6030  -15.3412  -45.1852 H   0  0  0  0  0  0  0  0  0  0  0  0
   16.7772  -12.9933  -46.3216 H   0  0  0  0  0  0  0  0  0  0  0  0
   15.8868  -14.2283  -47.2311 H   0  0  0  0  0  0  0  0  0  0  0  0
   19.1994   -7.6902  -50.0454 H   0  0  0  0  0  0  0  0  0  0  0  0
   18.3611   -6.8604  -51.3629 H   0  0  0  0  0  0  0  0  0  0  0  0
   20.1164   -7.1000  -51.4401 H   0  0  0  0  0  0  0  0  0  0  0  0
   17.2476   -8.1968  -53.4988 H   0  0  0  0  0  0  0  0  0  0  0  0
   14.0243  -11.3478  -49.0887 H   0  0  0  0  0  0  0  0  0  0  0  0
   16.5854  -14.2760  -49.8405 H   0  0  0  0  0  0  0  0  0  0  0  0
   17.1738  -12.7650  -50.4953 H   0  0  0  0  0  0  0  0  0  0  0  0
  1 16  1  0  0  0  0
  1 17  2  0  0  0  0
  1 18  1  0  0  0  0
  2 18  2  0  0  0  0
  2 19  1  0  0  0  0
  2 27  1  0  0  0  0
  3  4  1  0  0  0  0
  3 19  1  0  0  0  0
  3 20  1  0  0  0  0
  3 28  1  0  0  0  0
  4 29  1  0  0  0  0
  4 30  1  0  0  0  0
  4 31  1  0  0  0  0
  5  6  2  0  0  0  0
  5 21  1  0  0  0  0
  5 32  1  0  0  0  0
  6 18  1  0  0  0  0
  6 23  1  0  0  0  0
  7 24  1  0  0  0  0
  7 25  1  0  0  0  0
  7 33  1  0  0  0  0
  7 34  1  0  0  0  0
  8  9  1  0  0  0  0
  8 35  1  0  0  0  0
  8 36  1  0  0  0  0
  8 37  1  0  0  0  0
  9 10  1  0  0  0  0
  9 38  1  0  0  0  0
  9 39  1  0  0  0  0
 10 11  1  0  0  0  0
 11 12  2  0  0  0  0
 11 26  1  0  0  0  0
 12 13  1  0  0  0  0
 13 14  2  0  0  0  0
 13 40  1  0  0  0  0
 14 15  1  0  0  0  0
 14 25  1  0  0  0  0
 15 16  1  0  0  0  0
 15 41  1  0  0  0  0
 15 42  1  0  0  0  0
 16 24  1  0  0  0  0
 19 21  2  0  0  0  0
 20 43  1  0  0  0  0
 20 44  1  0  0  0  0
 20 45  1  0  0  0  0
 21 22  1  0  0  0  0
 22 46  1  0  0  0  0
 23 47  1  0  0  0  0
 24 48  1  0  0  0  0
 24 49  1  0  0  0  0
 25 26  2  0  0  0  0
M  END
$$$$
