REMARK  6 active torsions:
REMARK  status: ('A' for Active; 'I' for Inactive)
REMARK       I    between atoms: C_1  and  N_16 
REMARK    1  A    between atoms: C_1  and  C_18 
REMARK    2  A    between atoms: C_3  and  C_19 
REMARK    3  A    between atoms: C_6  and  O_23 
REMARK    4  A    between atoms: C_9  and  O_10 
REMARK    5  A    between atoms: O_10  and  C_11 
REMARK    6  A    between atoms: C_21  and  O_22 
ROOT
ATOM      1  C   LIG d   1      16.298 -11.472 -48.389  0.00  0.00     0.250 C 
ATOM      2  C   LIG d   1      18.699 -13.883 -49.477  0.00  0.00     0.075 C 
ATOM      3  C   LIG d   1      20.128 -16.246 -47.016  0.00  0.00     0.318 A 
ATOM      4  N   LIG d   1      19.289 -16.203 -45.967  0.00  0.00    -0.203 NA
ATOM      5  C   LIG d   1      18.249 -15.351 -46.062  0.00  0.00     0.123 A 
ATOM      6  C   LIG d   1      17.994 -14.549 -47.158  0.00  0.00     0.009 A 
ATOM      7  C   LIG d   1      16.804 -13.622 -47.217  0.00  0.00     0.146 C 
ATOM      8  N   LIG d   1      16.801 -12.774 -48.422  0.00  0.00    -0.293 N 
ATOM      9  O   LIG d   1      15.787 -10.973 -47.398  0.00  0.00    -0.270 OA
ATOM     10  C   LIG d   1      17.254 -13.431 -49.638  0.00  0.00     0.114 C 
ATOM     11  C   LIG d   1      18.896 -14.691 -48.209  0.00  0.00     0.054 A 
ATOM     12  N   LIG d   1      19.974 -15.524 -48.147  0.00  0.00    -0.200 NA
ENDROOT
BRANCH   1  13
ATOM     13  C   LIG d   1      16.313 -10.672 -49.653  0.00  0.00     0.079 A 
ATOM     14  C   LIG d   1      17.530 -10.175 -50.147  0.00  0.00     0.024 A 
ATOM     15  C   LIG d   1      17.610  -9.465 -51.374  0.00  0.00    -0.002 A 
ATOM     16  C   LIG d   1      16.416  -9.231 -52.071  0.00  0.00     0.124 A 
ATOM     17  C   LIG d   1      15.186  -9.718 -51.574  0.00  0.00     0.091 A 
ATOM     18  C   LIG d   1      15.141 -10.441 -50.370  0.00  0.00     0.132 A 
BRANCH  15  19
ATOM     19  C   LIG d   1      18.953  -8.904 -51.829  0.00  0.00     0.017 C 
ATOM     20  C   LIG d   1      20.150  -9.826 -51.569  0.00  0.00     0.012 C 
ATOM     21  C   LIG d   1      19.172  -7.561 -51.134  0.00  0.00     0.012 C 
ENDBRANCH  15  19
BRANCH  16  22
ATOM     22  O   LIG d   1      16.363  -8.525 -53.244  0.00  0.00    -0.506 OA
ATOM     23  H   LIG d   1      17.248  -8.197 -53.499  0.00  0.00     0.292 HD
ENDBRANCH  16  22
BRANCH  18  24
ATOM     24  O   LIG d   1      13.928 -10.931 -49.962  0.00  0.00    -0.506 OA
ATOM     25  H   LIG d   1      14.024 -11.348 -49.089  0.00  0.00     0.292 HD
ENDBRANCH  18  24
ENDBRANCH   1  13
BRANCH   3  26
ATOM     26  O   LIG d   1      21.225 -17.077 -46.985  0.00  0.00    -0.463 OA
BRANCH  26  27
ATOM     27  C   LIG d   1      21.420 -17.773 -45.722  0.00  0.00     0.229 C 
ATOM     28  C   LIG d   1      20.736 -19.131 -45.744  0.00  0.00     0.048 C 
ENDBRANCH  26  27
ENDBRANCH   3  26
TORSDOF 6
