@<TRIPOS>MOLECULE
5M4E_7F9_A_301
 45 46 0 0 0
SMALL
USER_CHARGES

@<TRIPOS>ATOM
      1 C          32.4131   11.6819   23.4087 C.ar    1  LIG1       -0.0192
      2 N          31.6429    8.5742   26.4495 N.am    1  LIG1       -0.2585
      3 O          30.1232   10.1849   27.1262 O.2     1  LIG1       -0.2695
      4 C          31.2791   11.9309   22.6422 C.ar    1  LIG1        0.1204
      5 N          32.3587    5.6102   28.2945 N.am    1  LIG1       -0.3143
      6 O          35.2524    6.6183   22.6970 O.3     1  LIG1       -0.4951
      7 C          30.0223   11.5007   23.0585 C.ar    1  LIG1        0.0221
      8 O          28.6416   10.3833   24.5983 O.3     1  LIG1       -0.5059
      9 C          29.9013   10.7957   24.2550 C.ar    1  LIG1        0.1324
     10 O          31.4468   12.6133   21.4743 O.3     1  LIG1       -0.5066
     11 C          31.0355   10.5205   25.0265 C.ar    1  LIG1        0.0788
     12 O          30.6158    5.8647   26.8244 O.2     1  LIG1       -0.2741
     13 C          32.2895   10.9940   24.6147 C.ar    1  LIG1       -0.0426
     14 C          30.9004    9.7421   26.2800 C.2     1  LIG1        0.2548
     15 C          32.5131    8.0543   25.4701 C.ar    1  LIG1        0.0373
     16 C          33.8858    8.0349   25.7269 C.ar    1  LIG1       -0.0368
     17 C          34.7670    7.5576   24.7608 C.ar    1  LIG1       -0.0182
     18 C          34.2809    7.0524   23.5560 C.ar    1  LIG1        0.1202
     19 C          32.9062    7.0418   23.3068 C.ar    1  LIG1       -0.0182
     20 C          32.0214    7.5521   24.2541 C.ar    1  LIG1       -0.0368
     21 C          34.8104    5.8286   21.6011 C.3     1  LIG1        0.0788
     22 C          31.4518    6.3659   27.5732 C.2     1  LIG1        0.2308
     23 C          32.5496    4.2023   28.0116 C.3     1  LIG1        0.0088
     24 C          31.6160    7.8822   27.7458 C.3     1  LIG1        0.0963
     25 C          33.5199    3.9956   26.8590 C.3     1  LIG1       -0.0495
     26 H          33.3871   12.0183   23.0658 H       1  LIG1        0.0654
     27 H          33.0153    6.0656   28.9145 H       1  LIG1        0.1487
     28 H          29.1333   11.7009   22.4697 H       1  LIG1        0.0691
     29 H          28.6593   10.0496   25.5181 H       1  LIG1        0.2922
     30 H          30.5812   12.7303   21.0566 H       1  LIG1        0.2921
     31 H          33.1775   10.8167   25.2136 H       1  LIG1        0.0627
     32 H          34.2747    8.4455   26.6532 H       1  LIG1        0.0637
     33 H          35.8339    7.5900   24.9507 H       1  LIG1        0.0655
     34 H          32.4909    6.6513   22.3844 H       1  LIG1        0.0655
     35 H          30.9481    7.5265   24.0624 H       1  LIG1        0.0637
     36 H          35.6906    5.5475   21.0156 H       1  LIG1        0.0660
     37 H          34.1456    6.3944   20.9410 H       1  LIG1        0.0660
     38 H          34.3308    4.9101   21.9556 H       1  LIG1        0.0660
     39 H          31.5847    3.7442   27.7716 H       1  LIG1        0.0459
     40 H          32.9383    3.7345   28.9211 H       1  LIG1        0.0459
     41 H          30.7836    8.2355   28.3665 H       1  LIG1        0.0564
     42 H          32.5439    8.1253   28.2752 H       1  LIG1        0.0564
     43 H          33.1579    4.4732   25.9422 H       1  LIG1        0.0245
     44 H          33.6529    2.9283   26.6576 H       1  LIG1        0.0245
     45 H          34.5008    4.4253   27.0902 H       1  LIG1        0.0245
@<TRIPOS>BOND
     1     1     4   ar
     2     1    13   ar
     3     1    26    1
     4     2    14   am
     5     2    15    1
     6     2    24    1
     7     3    14    2
     8     4     7   ar
     9     4    10    1
    10     5    22   am
    11     5    23    1
    12     5    27    1
    13     6    18    1
    14     6    21    1
    15     7     9   ar
    16     7    28    1
    17     8     9    1
    18     8    29    1
    19     9    11   ar
    20    10    30    1
    21    11    13   ar
    22    11    14    1
    23    12    22    2
    24    13    31    1
    25    15    16   ar
    26    15    20   ar
    27    16    17   ar
    28    16    32    1
    29    17    18   ar
    30    17    33    1
    31    18    19   ar
    32    19    20   ar
    33    19    34    1
    34    20    35    1
    35    21    36    1
    36    21    37    1
    37    21    38    1
    38    22    24    1
    39    23    25    1
    40    23    39    1
    41    23    40    1
    42    24    41    1
    43    24    42    1
    44    25    43    1
    45    25    44    1
    46    25    45    1
