REMARK  8 active torsions:
REMARK  status: ('A' for Active; 'I' for Inactive)
REMARK       I    between atoms: N_2  and  C_14 
REMARK    1  A    between atoms: N_2  and  C_15 
REMARK    2  A    between atoms: N_2  and  C_24 
REMARK    3  A    between atoms: C_4  and  O_10 
REMARK       I    between atoms: N_5  and  C_22 
REMARK    4  A    between atoms: N_5  and  C_23 
REMARK    5  A    between atoms: O_6  and  C_18 
REMARK    6  A    between atoms: O_8  and  C_9 
REMARK    7  A    between atoms: C_11  and  C_14 
REMARK    8  A    between atoms: C_22  and  C_24 
ROOT
ATOM      1  N   LIG d   1      31.643   8.574  26.450  0.00  0.00    -0.259 N 
ATOM      2  O   LIG d   1      30.123  10.185  27.126  0.00  0.00    -0.270 OA
ATOM      3  C   LIG d   1      30.900   9.742  26.280  0.00  0.00     0.255 C 
ENDROOT
BRANCH   1   4
ATOM      4  C   LIG d   1      32.513   8.054  25.470  0.00  0.00     0.037 A 
ATOM      5  C   LIG d   1      33.886   8.035  25.727  0.00  0.00     0.027 A 
ATOM      6  C   LIG d   1      34.767   7.558  24.761  0.00  0.00     0.047 A 
ATOM      7  C   LIG d   1      34.281   7.052  23.556  0.00  0.00     0.120 A 
ATOM      8  C   LIG d   1      32.906   7.042  23.307  0.00  0.00     0.047 A 
ATOM      9  C   LIG d   1      32.021   7.552  24.254  0.00  0.00     0.027 A 
BRANCH   7  10
ATOM     10  O   LIG d   1      35.252   6.618  22.697  0.00  0.00    -0.495 OA
ATOM     11  C   LIG d   1      34.810   5.829  21.601  0.00  0.00     0.277 C 
ENDBRANCH   7  10
ENDBRANCH   1   4
BRANCH   1  12
ATOM     12  C   LIG d   1      31.616   7.882  27.746  0.00  0.00     0.209 C 
BRANCH  12  13
ATOM     13  C   LIG d   1      31.452   6.366  27.573  0.00  0.00     0.231 C 
ATOM     14  N   LIG d   1      32.359   5.610  28.294  0.00  0.00    -0.314 N 
ATOM     15  H   LIG d   1      33.015   6.066  28.915  0.00  0.00     0.149 HD
ATOM     16  O   LIG d   1      30.616   5.865  26.824  0.00  0.00    -0.274 OA
BRANCH  14  17
ATOM     17  C   LIG d   1      32.550   4.202  28.012  0.00  0.00     0.101 C 
ATOM     18  C   LIG d   1      33.520   3.996  26.859  0.00  0.00     0.024 C 
ENDBRANCH  14  17
ENDBRANCH  12  13
ENDBRANCH   1  12
BRANCH   3  19
ATOM     19  C   LIG d   1      31.035  10.521  25.026  0.00  0.00     0.079 A 
ATOM     20  C   LIG d   1      29.901  10.796  24.255  0.00  0.00     0.132 A 
ATOM     21  C   LIG d   1      30.022  11.501  23.058  0.00  0.00     0.091 A 
ATOM     22  C   LIG d   1      31.279  11.931  22.642  0.00  0.00     0.120 A 
ATOM     23  C   LIG d   1      32.413  11.682  23.409  0.00  0.00     0.046 A 
ATOM     24  C   LIG d   1      32.289  10.994  24.615  0.00  0.00     0.020 A 
BRANCH  20  25
ATOM     25  O   LIG d   1      28.642  10.383  24.598  0.00  0.00    -0.506 OA
ATOM     26  H   LIG d   1      28.659  10.050  25.518  0.00  0.00     0.292 HD
ENDBRANCH  20  25
BRANCH  22  27
ATOM     27  O   LIG d   1      31.447  12.613  21.474  0.00  0.00    -0.507 OA
ATOM     28  H   LIG d   1      30.581  12.730  21.057  0.00  0.00     0.292 HD
ENDBRANCH  22  27
ENDBRANCH   3  19
TORSDOF 8
