5M4E_7F9_A_301
 OpenBabel03301717393D

 45 46  0  0  0  0  0  0  0  0999 V2000
   32.4131   11.6819   23.4087 C   0  0  0  0  0  0  0  0  0  0  0  0
   31.6429    8.5742   26.4495 N   0  0  0  0  0  0  0  0  0  0  0  0
   30.1232   10.1849   27.1262 O   0  0  0  0  0  0  0  0  0  0  0  0
   31.2791   11.9309   22.6422 C   0  0  0  0  0  0  0  0  0  0  0  0
   32.3587    5.6102   28.2945 N   0  0  0  0  0  0  0  0  0  0  0  0
   35.2524    6.6183   22.6970 O   0  0  0  0  0  0  0  0  0  0  0  0
   30.0223   11.5007   23.0585 C   0  0  0  0  0  0  0  0  0  0  0  0
   28.6416   10.3833   24.5983 O   0  0  0  0  0  0  0  0  0  0  0  0
   29.9013   10.7957   24.2550 C   0  0  0  0  0  0  0  0  0  0  0  0
   31.4468   12.6133   21.4743 O   0  0  0  0  0  0  0  0  0  0  0  0
   31.0355   10.5205   25.0265 C   0  0  0  0  0  0  0  0  0  0  0  0
   30.6158    5.8647   26.8244 O   0  0  0  0  0  0  0  0  0  0  0  0
   32.2895   10.9940   24.6147 C   0  0  0  0  0  0  0  0  0  0  0  0
   30.9004    9.7421   26.2800 C   0  0  0  0  0  0  0  0  0  0  0  0
   32.5131    8.0543   25.4701 C   0  0  0  0  0  0  0  0  0  0  0  0
   33.8858    8.0349   25.7269 C   0  0  0  0  0  0  0  0  0  0  0  0
   34.7670    7.5576   24.7608 C   0  0  0  0  0  0  0  0  0  0  0  0
   34.2809    7.0524   23.5560 C   0  0  0  0  0  0  0  0  0  0  0  0
   32.9062    7.0418   23.3068 C   0  0  0  0  0  0  0  0  0  0  0  0
   32.0214    7.5521   24.2541 C   0  0  0  0  0  0  0  0  0  0  0  0
   34.8104    5.8286   21.6011 C   0  0  0  0  0  0  0  0  0  0  0  0
   31.4518    6.3659   27.5732 C   0  0  0  0  0  0  0  0  0  0  0  0
   32.5496    4.2023   28.0116 C   0  0  0  0  0  0  0  0  0  0  0  0
   31.6160    7.8822   27.7458 C   0  0  0  0  0  0  0  0  0  0  0  0
   33.5199    3.9956   26.8590 C   0  0  0  0  0  0  0  0  0  0  0  0
   33.3871   12.0183   23.0658 H   0  0  0  0  0  0  0  0  0  0  0  0
   33.0153    6.0656   28.9145 H   0  0  0  0  0  0  0  0  0  0  0  0
   29.1333   11.7009   22.4697 H   0  0  0  0  0  0  0  0  0  0  0  0
   28.6593   10.0496   25.5181 H   0  0  0  0  0  0  0  0  0  0  0  0
   30.5812   12.7303   21.0566 H   0  0  0  0  0  0  0  0  0  0  0  0
   33.1775   10.8167   25.2136 H   0  0  0  0  0  0  0  0  0  0  0  0
   34.2747    8.4455   26.6532 H   0  0  0  0  0  0  0  0  0  0  0  0
   35.8339    7.5900   24.9507 H   0  0  0  0  0  0  0  0  0  0  0  0
   32.4909    6.6513   22.3844 H   0  0  0  0  0  0  0  0  0  0  0  0
   30.9481    7.5265   24.0624 H   0  0  0  0  0  0  0  0  0  0  0  0
   35.6906    5.5475   21.0156 H   0  0  0  0  0  0  0  0  0  0  0  0
   34.1456    6.3944   20.9410 H   0  0  0  0  0  0  0  0  0  0  0  0
   34.3308    4.9101   21.9556 H   0  0  0  0  0  0  0  0  0  0  0  0
   31.5847    3.7442   27.7716 H   0  0  0  0  0  0  0  0  0  0  0  0
   32.9383    3.7345   28.9211 H   0  0  0  0  0  0  0  0  0  0  0  0
   30.7836    8.2355   28.3665 H   0  0  0  0  0  0  0  0  0  0  0  0
   32.5439    8.1253   28.2752 H   0  0  0  0  0  0  0  0  0  0  0  0
   33.1579    4.4732   25.9422 H   0  0  0  0  0  0  0  0  0  0  0  0
   33.6529    2.9283   26.6576 H   0  0  0  0  0  0  0  0  0  0  0  0
   34.5008    4.4253   27.0902 H   0  0  0  0  0  0  0  0  0  0  0  0
  1  4  2  0  0  0  0
  1 13  1  0  0  0  0
  1 26  1  0  0  0  0
  2 14  1  0  0  0  0
  2 15  1  0  0  0  0
  2 24  1  0  0  0  0
  3 14  2  0  0  0  0
  4  7  1  0  0  0  0
  4 10  1  0  0  0  0
  5 22  1  0  0  0  0
  5 23  1  0  0  0  0
  5 27  1  0  0  0  0
  6 18  1  0  0  0  0
  6 21  1  0  0  0  0
  7  9  2  0  0  0  0
  7 28  1  0  0  0  0
  8  9  1  0  0  0  0
  8 29  1  0  0  0  0
  9 11  1  0  0  0  0
 10 30  1  0  0  0  0
 11 13  2  0  0  0  0
 11 14  1  0  0  0  0
 12 22  2  0  0  0  0
 13 31  1  0  0  0  0
 15 16  2  0  0  0  0
 15 20  1  0  0  0  0
 16 17  1  0  0  0  0
 16 32  1  0  0  0  0
 17 18  2  0  0  0  0
 17 33  1  0  0  0  0
 18 19  1  0  0  0  0
 19 20  2  0  0  0  0
 19 34  1  0  0  0  0
 20 35  1  0  0  0  0
 21 36  1  0  0  0  0
 21 37  1  0  0  0  0
 21 38  1  0  0  0  0
 22 24  1  0  0  0  0
 23 25  1  0  0  0  0
 23 39  1  0  0  0  0
 23 40  1  0  0  0  0
 24 41  1  0  0  0  0
 24 42  1  0  0  0  0
 25 43  1  0  0  0  0
 25 44  1  0  0  0  0
 25 45  1  0  0  0  0
M  END
$$$$
