@<TRIPOS>MOLECULE
5M4H_7FX_A_301
 35 37 0 0 0
SMALL
USER_CHARGES

@<TRIPOS>ATOM
      1 C          30.7106    7.9354   27.1962 C.3     1  LIG1        0.0237
      2 C          32.6013    6.4778   26.3598 C.3     1  LIG1        0.1506
      3 C          31.3339    7.9247   24.8485 C.ar    1  LIG1        0.1266
      4 C          32.1396    5.0612   26.5434 C.3     1  LIG1        0.4118
      5 C          32.0570    7.3380   27.5169 C.3     1  LIG1       -0.0057
      6 C          31.1274    8.0171   23.4938 C.ar    1  LIG1       -0.0019
      7 C          31.9587    7.0529   22.9458 C.ar    1  LIG1        0.0513
      8 N          30.7880    8.5920   25.8891 N.am    1  LIG1       -0.2521
      9 N          32.6134    6.3569   23.8872 N.ar    1  LIG1       -0.1774
     10 N          32.2104    6.9182   25.0361 N.ar    1  LIG1       -0.2385
     11 C          30.2580   10.5634   24.5007 C.ar    1  LIG1        0.0788
     12 C          31.5439   10.8794   24.0712 C.ar    1  LIG1       -0.0426
     13 C          31.6974   11.5511   22.8746 C.ar    1  LIG1       -0.0192
     14 C          30.5649   11.8896   22.1385 C.ar    1  LIG1        0.1204
     15 C          29.2905   11.5360   22.5836 C.ar    1  LIG1        0.0221
     16 C          29.1281   10.8577   23.7739 C.ar    1  LIG1        0.1324
     17 O          27.9325   10.4453   24.2738 O.3     1  LIG1       -0.5059
     18 O          30.7540   12.5760   20.9704 O.3     1  LIG1       -0.5066
     19 C          30.1109    9.8111   25.7471 C.2     1  LIG1        0.2554
     20 O          29.5134   10.2498   26.6791 O.2     1  LIG1       -0.2695
     21 F          30.7876    4.9900   26.6159 F       1  LIG1       -0.1684
     22 F          32.5565    4.2610   25.5437 F       1  LIG1       -0.1684
     23 F          32.6257    4.5434   27.6997 F       1  LIG1       -0.1684
     24 H          30.4269    8.6502   27.9678 H       1  LIG1        0.0470
     25 H          29.9459    7.1593   27.1334 H       1  LIG1        0.0470
     26 H          33.6875    6.5356   26.4013 H       1  LIG1        0.0636
     27 H          31.9630    6.7308   28.4291 H       1  LIG1        0.0304
     28 H          32.7696    8.1457   27.7311 H       1  LIG1        0.0304
     29 H          30.4769    8.6562   22.9382 H       1  LIG1        0.0668
     30 H          32.0727    6.8572   21.8720 H       1  LIG1        0.0848
     31 H          32.4011   10.5762   24.6653 H       1  LIG1        0.0627
     32 H          32.6967   11.8150   22.5438 H       1  LIG1        0.0654
     33 H          28.4263   11.8084   22.0000 H       1  LIG1        0.0691
     34 H          27.1887   10.7270   23.7173 H       1  LIG1        0.2922
     35 H          29.9085   12.7707   20.5306 H       1  LIG1        0.2921
@<TRIPOS>BOND
     1     1     5    1
     2     1     8    1
     3     1    24    1
     4     1    25    1
     5     2     4    1
     6     2     5    1
     7     2    10    1
     8     2    26    1
     9     3     6   ar
    10     3     8    1
    11     3    10   ar
    12     4    21    1
    13     4    22    1
    14     4    23    1
    15     5    27    1
    16     5    28    1
    17     6     7   ar
    18     6    29    1
    19     7     9   ar
    20     7    30    1
    21     8    19   am
    22     9    10   ar
    23    11    12   ar
    24    11    16   ar
    25    11    19    1
    26    12    13   ar
    27    12    31    1
    28    13    14   ar
    29    13    32    1
    30    14    15   ar
    31    14    18    1
    32    15    16   ar
    33    15    33    1
    34    16    17    1
    35    17    34    1
    36    18    35    1
    37    19    20    2
