REMARK  4 active torsions:
REMARK  status: ('A' for Active; 'I' for Inactive)
REMARK    1  A    between atoms: C_2  and  C_4 
REMARK       I    between atoms: N_8  and  C_19 
REMARK    2  A    between atoms: C_11  and  C_19 
REMARK    3  A    between atoms: C_14  and  O_18 
REMARK    4  A    between atoms: C_16  and  O_17 
ROOT
ATOM      1  C   LIG d   1      30.711   7.935  27.196  0.00  0.00     0.118 C 
ATOM      2  C   LIG d   1      32.601   6.478  26.360  0.00  0.00     0.214 C 
ATOM      3  C   LIG d   1      31.334   7.925  24.849  0.00  0.00     0.127 A 
ATOM      4  C   LIG d   1      32.057   7.338  27.517  0.00  0.00     0.055 C 
ATOM      5  C   LIG d   1      31.127   8.017  23.494  0.00  0.00     0.065 A 
ATOM      6  C   LIG d   1      31.959   7.053  22.946  0.00  0.00     0.136 A 
ATOM      7  N   LIG d   1      30.788   8.592  25.889  0.00  0.00    -0.252 N 
ATOM      8  N   LIG d   1      32.613   6.357  23.887  0.00  0.00    -0.177 NA
ATOM      9  N   LIG d   1      32.210   6.918  25.036  0.00  0.00    -0.238 N 
ATOM     10  C   LIG d   1      30.111   9.811  25.747  0.00  0.00     0.255 C 
ATOM     11  O   LIG d   1      29.513  10.250  26.679  0.00  0.00    -0.270 OA
ENDROOT
BRANCH  10  12
ATOM     12  C   LIG d   1      30.258  10.563  24.501  0.00  0.00     0.079 A 
ATOM     13  C   LIG d   1      31.544  10.879  24.071  0.00  0.00     0.020 A 
ATOM     14  C   LIG d   1      31.697  11.551  22.875  0.00  0.00     0.046 A 
ATOM     15  C   LIG d   1      30.565  11.890  22.139  0.00  0.00     0.120 A 
ATOM     16  C   LIG d   1      29.291  11.536  22.584  0.00  0.00     0.091 A 
ATOM     17  C   LIG d   1      29.128  10.858  23.774  0.00  0.00     0.132 A 
BRANCH  15  18
ATOM     18  O   LIG d   1      30.754  12.576  20.970  0.00  0.00    -0.507 OA
ATOM     19  H   LIG d   1      29.909  12.771  20.531  0.00  0.00     0.292 HD
ENDBRANCH  15  18
BRANCH  17  20
ATOM     20  O   LIG d   1      27.933  10.445  24.274  0.00  0.00    -0.506 OA
ATOM     21  H   LIG d   1      27.189  10.727  23.717  0.00  0.00     0.292 HD
ENDBRANCH  17  20
ENDBRANCH  10  12
BRANCH   2  22
ATOM     22  C   LIG d   1      32.140   5.061  26.543  0.00  0.00     0.412 C 
ATOM     23  F   LIG d   1      30.788   4.990  26.616  0.00  0.00    -0.168 F 
ATOM     24  F   LIG d   1      32.556   4.261  25.544  0.00  0.00    -0.168 F 
ATOM     25  F   LIG d   1      32.626   4.543  27.700  0.00  0.00    -0.168 F 
ENDBRANCH   2  22
TORSDOF 4
