@<TRIPOS>MOLECULE
3HHU_819_A_500
 54 56 0 0 0
SMALL
USER_CHARGES

@<TRIPOS>ATOM
      1 C           5.2457  -41.5671    1.5342 C.3     1  LIG1       -0.0305
      2 C           4.9098  -42.0126    0.1193 C.3     1  LIG1        0.0912
      3 O           4.3060  -40.9412   -0.6233 O.3     1  LIG1       -0.4507
      4 C           5.1753  -39.9681   -0.9993 C.2     1  LIG1        0.4005
      5 O           6.3744  -39.9708   -0.7876 O.2     1  LIG1       -0.2265
      6 N           4.5909  -38.9142   -1.6217 N.am    1  LIG1       -0.2770
      7 C           3.2065  -38.8033   -2.0075 C.3     1  LIG1        0.0400
      8 C           2.3018  -38.2828   -0.9318 C.ar    1  LIG1       -0.0301
      9 C           2.7832  -37.5918    0.1878 C.ar    1  LIG1       -0.0551
     10 C           1.8948  -37.0454    1.1036 C.ar    1  LIG1       -0.0374
     11 C           0.9165  -38.4315   -1.1119 C.ar    1  LIG1       -0.0551
     12 C           0.0242  -37.8618   -0.2116 C.ar    1  LIG1       -0.0374
     13 C           0.5226  -37.1553    0.8821 C.ar    1  LIG1        0.0505
     14 N          -0.3499  -36.5705    1.7934 N.ar    1  LIG1       -0.2713
     15 C          -0.6935  -37.0884    3.0204 C.ar    1  LIG1        0.1804
     16 S          -0.2038  -38.4801    3.7823 S.2     1  LIG1       -0.0111
     17 N          -1.6133  -36.1946    3.5519 N.ar    1  LIG1       -0.2537
     18 N          -1.8535  -35.1648    2.6771 N.ar    1  LIG1       -0.1528
     19 C          -1.0928  -35.4266    1.6473 C.ar    1  LIG1        0.1706
     20 C          -0.9938  -34.5708    0.4459 C.ar    1  LIG1        0.0614
     21 C           0.2418  -34.0362    0.0717 C.ar    1  LIG1       -0.0406
     22 C           0.3967  -33.2842   -1.1048 C.ar    1  LIG1       -0.0025
     23 C           1.7501  -32.7072   -1.4982 C.3     1  LIG1       -0.0180
     24 C           1.9933  -31.3809   -0.7738 C.3     1  LIG1       -0.0585
     25 C           2.9071  -33.6775   -1.2358 C.3     1  LIG1       -0.0585
     26 C          -0.7442  -33.0539   -1.8851 C.ar    1  LIG1        0.1238
     27 O          -0.6087  -32.3524   -3.0525 O.3     1  LIG1       -0.5064
     28 C          -2.0017  -33.5260   -1.4927 C.ar    1  LIG1        0.0223
     29 C          -2.1232  -34.2745   -0.3183 C.ar    1  LIG1        0.1310
     30 O          -3.3468  -34.7479    0.0651 O.3     1  LIG1       -0.5059
     31 H           5.7329  -42.3728    2.0878 H       1  LIG1        0.0262
     32 H           4.3415  -41.2571    2.0672 H       1  LIG1        0.0262
     33 H           5.9169  -40.7027    1.5329 H       1  LIG1        0.0262
     34 H           4.1982  -42.8456    0.1544 H       1  LIG1        0.0695
     35 H           5.7986  -42.3733   -0.4099 H       1  LIG1        0.0695
     36 H           5.2107  -38.1326   -1.7734 H       1  LIG1        0.1523
     37 H           2.8667  -39.7831   -2.3589 H       1  LIG1        0.0513
     38 H           3.1775  -38.1015   -2.8482 H       1  LIG1        0.0513
     39 H           3.8492  -37.4692    0.3621 H       1  LIG1        0.0621
     40 H           2.2736  -36.5048    1.9682 H       1  LIG1        0.0638
     41 H           0.5288  -38.9910   -1.9616 H       1  LIG1        0.0621
     42 H          -1.0464  -37.9882   -0.3516 H       1  LIG1        0.0638
     43 H          -2.0961  -36.2792    4.4361 H       1  LIG1        0.1911
     44 H           1.0981  -34.2080    0.7257 H       1  LIG1        0.0630
     45 H           1.7609  -32.5077   -2.5780 H       1  LIG1        0.0345
     46 H           2.0142  -31.5176    0.3129 H       1  LIG1        0.0235
     47 H           1.2058  -30.6545   -1.0039 H       1  LIG1        0.0235
     48 H           2.9505  -30.9412   -1.0757 H       1  LIG1        0.0235
     49 H           3.0212  -33.9047   -0.1712 H       1  LIG1        0.0235
     50 H           3.8575  -33.2519   -1.5736 H       1  LIG1        0.0235
     51 H           2.7472  -34.6214   -1.7682 H       1  LIG1        0.0235
     52 H          -1.4579  -32.3193   -3.5216 H       1  LIG1        0.2921
     53 H          -2.8743  -33.3256   -2.1042 H       1  LIG1        0.0691
     54 H          -4.0437  -34.3663   -0.4919 H       1  LIG1        0.2922
@<TRIPOS>BOND
     1     1     2    1
     2     1    31    1
     3     1    32    1
     4     1    33    1
     5     2     3    1
     6     2    34    1
     7     2    35    1
     8     3     4    1
     9     4     5    2
    10     4     6   am
    11     6     7    1
    12     6    36    1
    13     7     8    1
    14     7    37    1
    15     7    38    1
    16     8     9   ar
    17     8    11   ar
    18     9    10   ar
    19     9    39    1
    20    10    13   ar
    21    10    40    1
    22    11    12   ar
    23    11    41    1
    24    12    13   ar
    25    12    42    1
    26    13    14    1
    27    14    15   ar
    28    14    19   ar
    29    15    16    2
    30    15    17   ar
    31    17    18   ar
    32    17    43    1
    33    18    19   ar
    34    19    20    1
    35    20    21   ar
    36    20    29   ar
    37    21    22   ar
    38    21    44    1
    39    22    23    1
    40    22    26   ar
    41    23    24    1
    42    23    25    1
    43    23    45    1
    44    24    46    1
    45    24    47    1
    46    24    48    1
    47    25    49    1
    48    25    50    1
    49    25    51    1
    50    26    27    1
    51    26    28   ar
    52    27    52    1
    53    28    29   ar
    54    28    53    1
    55    29    30    1
    56    30    54    1
