3HHU_819_A_500
 OpenBabel03301717173D

 54 56  0  0  1  0  0  0  0  0999 V2000
    5.2457  -41.5671    1.5342 C   0  0  0  0  0  0  0  0  0  0  0  0
    4.9098  -42.0126    0.1193 C   0  0  0  0  0  0  0  0  0  0  0  0
    4.3060  -40.9412   -0.6233 O   0  0  0  0  0  0  0  0  0  0  0  0
    5.1753  -39.9681   -0.9993 C   0  0  0  0  0  0  0  0  0  0  0  0
    6.3744  -39.9708   -0.7876 O   0  0  0  0  0  0  0  0  0  0  0  0
    4.5909  -38.9142   -1.6217 N   0  0  0  0  0  0  0  0  0  0  0  0
    3.2065  -38.8033   -2.0075 C   0  0  0  0  0  0  0  0  0  0  0  0
    2.3018  -38.2828   -0.9318 C   0  0  0  0  0  0  0  0  0  0  0  0
    2.7832  -37.5918    0.1878 C   0  0  0  0  0  0  0  0  0  0  0  0
    1.8948  -37.0454    1.1036 C   0  0  0  0  0  0  0  0  0  0  0  0
    0.9165  -38.4315   -1.1119 C   0  0  0  0  0  0  0  0  0  0  0  0
    0.0242  -37.8618   -0.2116 C   0  0  0  0  0  0  0  0  0  0  0  0
    0.5226  -37.1553    0.8821 C   0  0  0  0  0  0  0  0  0  0  0  0
   -0.3499  -36.5705    1.7934 N   0  3  0  0  0  0  0  0  0  0  0  0
   -0.6935  -37.0884    3.0204 C   0  0  0  0  0  0  0  0  0  0  0  0
   -0.2038  -38.4801    3.7823 S   0  0  0  0  0  0  0  0  0  0  0  0
   -1.6133  -36.1946    3.5519 N   0  0  0  0  0  0  0  0  0  0  0  0
   -1.8535  -35.1648    2.6771 N   0  0  0  0  0  0  0  0  0  0  0  0
   -1.0928  -35.4266    1.6473 C   0  0  1  0  0  0  0  0  0  0  0  0
   -0.9938  -34.5708    0.4459 C   0  0  0  0  0  0  0  0  0  0  0  0
    0.2418  -34.0362    0.0717 C   0  0  0  0  0  0  0  0  0  0  0  0
    0.3967  -33.2842   -1.1048 C   0  0  0  0  0  0  0  0  0  0  0  0
    1.7501  -32.7072   -1.4982 C   0  0  0  0  0  0  0  0  0  0  0  0
    1.9933  -31.3809   -0.7738 C   0  0  0  0  0  0  0  0  0  0  0  0
    2.9071  -33.6775   -1.2358 C   0  0  0  0  0  0  0  0  0  0  0  0
   -0.7442  -33.0539   -1.8851 C   0  0  0  0  0  0  0  0  0  0  0  0
   -0.6087  -32.3524   -3.0525 O   0  0  0  0  0  0  0  0  0  0  0  0
   -2.0017  -33.5260   -1.4927 C   0  0  0  0  0  0  0  0  0  0  0  0
   -2.1232  -34.2745   -0.3183 C   0  0  0  0  0  0  0  0  0  0  0  0
   -3.3468  -34.7479    0.0651 O   0  0  0  0  0  0  0  0  0  0  0  0
    5.7329  -42.3728    2.0878 H   0  0  0  0  0  0  0  0  0  0  0  0
    4.3415  -41.2571    2.0672 H   0  0  0  0  0  0  0  0  0  0  0  0
    5.9169  -40.7027    1.5329 H   0  0  0  0  0  0  0  0  0  0  0  0
    4.1982  -42.8456    0.1544 H   0  0  0  0  0  0  0  0  0  0  0  0
    5.7986  -42.3733   -0.4099 H   0  0  0  0  0  0  0  0  0  0  0  0
    5.2107  -38.1326   -1.7734 H   0  0  0  0  0  0  0  0  0  0  0  0
    2.8667  -39.7831   -2.3589 H   0  0  0  0  0  0  0  0  0  0  0  0
    3.1775  -38.1015   -2.8482 H   0  0  0  0  0  0  0  0  0  0  0  0
    3.8492  -37.4692    0.3621 H   0  0  0  0  0  0  0  0  0  0  0  0
    2.2736  -36.5048    1.9682 H   0  0  0  0  0  0  0  0  0  0  0  0
    0.5288  -38.9910   -1.9616 H   0  0  0  0  0  0  0  0  0  0  0  0
   -1.0464  -37.9882   -0.3516 H   0  0  0  0  0  0  0  0  0  0  0  0
   -2.0961  -36.2792    4.4361 H   0  0  0  0  0  0  0  0  0  0  0  0
    1.0981  -34.2080    0.7257 H   0  0  0  0  0  0  0  0  0  0  0  0
    1.7609  -32.5077   -2.5780 H   0  0  0  0  0  0  0  0  0  0  0  0
    2.0142  -31.5176    0.3129 H   0  0  0  0  0  0  0  0  0  0  0  0
    1.2058  -30.6545   -1.0039 H   0  0  0  0  0  0  0  0  0  0  0  0
    2.9505  -30.9412   -1.0757 H   0  0  0  0  0  0  0  0  0  0  0  0
    3.0212  -33.9047   -0.1712 H   0  0  0  0  0  0  0  0  0  0  0  0
    3.8575  -33.2519   -1.5736 H   0  0  0  0  0  0  0  0  0  0  0  0
    2.7472  -34.6214   -1.7682 H   0  0  0  0  0  0  0  0  0  0  0  0
   -1.4579  -32.3193   -3.5216 H   0  0  0  0  0  0  0  0  0  0  0  0
   -2.8743  -33.3256   -2.1042 H   0  0  0  0  0  0  0  0  0  0  0  0
   -4.0437  -34.3663   -0.4919 H   0  0  0  0  0  0  0  0  0  0  0  0
  1  2  1  0  0  0  0
  1 31  1  0  0  0  0
  1 32  1  0  0  0  0
  1 33  1  0  0  0  0
  2  3  1  0  0  0  0
  2 34  1  0  0  0  0
  2 35  1  0  0  0  0
  3  4  1  0  0  0  0
  4  5  2  0  0  0  0
  4  6  1  0  0  0  0
  6  7  1  0  0  0  0
  6 36  1  0  0  0  0
  7  8  1  0  0  0  0
  7 37  1  0  0  0  0
  7 38  1  0  0  0  0
  8  9  2  0  0  0  0
  8 11  1  0  0  0  0
  9 10  1  0  0  0  0
  9 39  1  0  0  0  0
 10 13  2  0  0  0  0
 10 40  1  0  0  0  0
 11 12  2  0  0  0  0
 11 41  1  0  0  0  0
 12 13  1  0  0  0  0
 12 42  1  0  0  0  0
 13 14  1  0  0  0  0
 14 15  1  0  0  0  0
 14 19  1  0  0  0  0
 15 16  2  0  0  0  0
 15 17  1  0  0  0  0
 17 18  1  0  0  0  0
 17 43  1  0  0  0  0
 18 19  1  0  0  0  0
 19 20  1  1  0  0  0
 20 21  2  0  0  0  0
 20 29  1  0  0  0  0
 21 22  1  0  0  0  0
 21 44  1  0  0  0  0
 22 23  1  0  0  0  0
 22 26  2  0  0  0  0
 23 24  1  0  0  0  0
 23 25  1  0  0  0  0
 23 45  1  0  0  0  0
 24 46  1  0  0  0  0
 24 47  1  0  0  0  0
 24 48  1  0  0  0  0
 25 49  1  0  0  0  0
 25 50  1  0  0  0  0
 25 51  1  0  0  0  0
 26 27  1  0  0  0  0
 26 28  1  0  0  0  0
 27 52  1  0  0  0  0
 28 29  2  0  0  0  0
 28 53  1  0  0  0  0
 29 30  1  0  0  0  0
 30 54  1  0  0  0  0
M  CHG  1  14   1
M  END
$$$$
