REMARK  9 active torsions:
REMARK  status: ('A' for Active; 'I' for Inactive)
REMARK    1  A    between atoms: C_2  and  O_3 
REMARK    2  A    between atoms: O_3  and  C_4 
REMARK       I    between atoms: C_4  and  N_6 
REMARK    3  A    between atoms: N_6  and  C_7 
REMARK    4  A    between atoms: C_7  and  C_8 
REMARK    5  A    between atoms: C_13  and  N_14 
REMARK    6  A    between atoms: C_19  and  C_20 
REMARK    7  A    between atoms: C_22  and  C_23 
REMARK    8  A    between atoms: C_26  and  O_27 
REMARK    9  A    between atoms: C_29  and  O_30 
ROOT
ATOM      1  N   LIG d   1      -0.350 -36.571   1.793  0.00  0.00    -0.271 N 
ATOM      2  C   LIG d   1      -0.694 -37.088   3.020  0.00  0.00     0.180 A 
ATOM      3  S   LIG d   1      -0.204 -38.480   3.782  0.00  0.00    -0.011 SA
ATOM      4  N   LIG d   1      -1.613 -36.195   3.552  0.00  0.00    -0.254 N 
ATOM      5  N   LIG d   1      -1.853 -35.165   2.677  0.00  0.00    -0.153 NA
ATOM      6  C   LIG d   1      -1.093 -35.427   1.647  0.00  0.00     0.171 A 
ATOM      7  H   LIG d   1      -2.096 -36.279   4.436  0.00  0.00     0.191 HD
ENDROOT
BRANCH   1   8
ATOM      8  C   LIG d   1       0.523 -37.155   0.882  0.00  0.00     0.051 A 
ATOM      9  C   LIG d   1       1.895 -37.045   1.104  0.00  0.00     0.026 A 
ATOM     10  C   LIG d   1       2.783 -37.592   0.188  0.00  0.00     0.007 A 
ATOM     11  C   LIG d   1       2.302 -38.283  -0.932  0.00  0.00    -0.030 A 
ATOM     12  C   LIG d   1       0.916 -38.431  -1.112  0.00  0.00     0.007 A 
ATOM     13  C   LIG d   1       0.024 -37.862  -0.212  0.00  0.00     0.026 A 
BRANCH  11  14
ATOM     14  C   LIG d   1       3.207 -38.803  -2.007  0.00  0.00     0.143 C 
BRANCH  14  15
ATOM     15  N   LIG d   1       4.591 -38.914  -1.622  0.00  0.00    -0.277 N 
ATOM     16  C   LIG d   1       5.175 -39.968  -0.999  0.00  0.00     0.401 C 
ATOM     17  O   LIG d   1       6.374 -39.971  -0.788  0.00  0.00    -0.227 OA
ATOM     18  H   LIG d   1       5.211 -38.133  -1.773  0.00  0.00     0.152 HD
BRANCH  16  19
ATOM     19  O   LIG d   1       4.306 -40.941  -0.623  0.00  0.00    -0.451 OA
BRANCH  19  20
ATOM     20  C   LIG d   1       4.910 -42.013   0.119  0.00  0.00     0.230 C 
ATOM     21  C   LIG d   1       5.246 -41.567   1.534  0.00  0.00     0.048 C 
ENDBRANCH  19  20
ENDBRANCH  16  19
ENDBRANCH  14  15
ENDBRANCH  11  14
ENDBRANCH   1   8
BRANCH   6  22
ATOM     22  C   LIG d   1      -0.994 -34.571   0.446  0.00  0.00     0.061 A 
ATOM     23  C   LIG d   1       0.242 -34.036   0.072  0.00  0.00     0.022 A 
ATOM     24  C   LIG d   1       0.397 -33.284  -1.105  0.00  0.00    -0.003 A 
ATOM     25  C   LIG d   1      -0.744 -33.054  -1.885  0.00  0.00     0.124 A 
ATOM     26  C   LIG d   1      -2.002 -33.526  -1.493  0.00  0.00     0.091 A 
ATOM     27  C   LIG d   1      -2.123 -34.275  -0.318  0.00  0.00     0.131 A 
BRANCH  24  28
ATOM     28  C   LIG d   1       1.750 -32.707  -1.498  0.00  0.00     0.017 C 
ATOM     29  C   LIG d   1       1.993 -31.381  -0.774  0.00  0.00     0.012 C 
ATOM     30  C   LIG d   1       2.907 -33.678  -1.236  0.00  0.00     0.012 C 
ENDBRANCH  24  28
BRANCH  25  31
ATOM     31  O   LIG d   1      -0.609 -32.352  -3.053  0.00  0.00    -0.506 OA
ATOM     32  H   LIG d   1      -1.458 -32.319  -3.522  0.00  0.00     0.292 HD
ENDBRANCH  25  31
BRANCH  27  33
ATOM     33  O   LIG d   1      -3.347 -34.748   0.065  0.00  0.00    -0.506 OA
ATOM     34  H   LIG d   1      -4.044 -34.366  -0.492  0.00  0.00     0.292 HD
ENDBRANCH  27  33
ENDBRANCH   6  22
TORSDOF 9
