3QDD_94M_A_999
 OpenBabel03301717203D

 37 39  0  0  0  0  0  0  0  0999 V2000
    1.5811   34.8918   25.7732 N   0  0  0  0  0  0  0  0  0  0  0  0
    1.2905   34.3173   24.6009 C   0  0  0  0  0  0  0  0  0  0  0  0
    2.3388   33.7356   23.9470 N   0  0  0  0  0  0  0  0  0  0  0  0
    0.0743   34.2252   24.0298 N   0  0  0  0  0  0  0  0  0  0  0  0
   -0.8993   34.7654   24.7846 C   0  0  0  0  0  0  0  0  0  0  0  0
   -0.7435   35.3864   26.0174 C   0  0  0  0  0  0  0  0  0  0  0  0
    0.5636   35.4245   26.4709 C   0  0  0  0  0  0  0  0  0  0  0  0
    0.8997   36.1330   27.9739 Cl  0  0  0  0  0  0  0  0  0  0  0  0
   -1.9596   35.8163   26.5015 N   0  0  0  0  0  0  0  0  0  0  0  0
   -2.8366   35.4472   25.5859 C   0  0  0  0  0  0  0  0  0  0  0  0
   -2.2463   34.7865   24.5465 N   0  3  0  0  0  0  0  0  0  0  0  0
   -4.5100   29.5311   26.3725 C   0  0  0  0  0  0  0  0  0  0  0  0
   -7.2020   30.5620   24.7579 C   0  0  0  0  0  0  0  0  0  0  0  0
   -2.2563   31.3925   24.3719 C   0  0  0  0  0  0  0  0  0  0  0  0
   -6.2558   32.7588   24.0099 C   0  0  0  0  0  0  0  0  0  0  0  0
   -2.9374   34.2244   23.3979 C   0  0  0  0  0  0  0  0  0  0  0  0
   -5.2655   33.6237   23.6889 N   0  0  0  0  0  0  0  0  0  0  0  0
   -4.4391   29.7629   24.9646 O   0  0  0  0  0  0  0  0  0  0  0  0
   -6.0488   31.4724   24.4806 C   0  0  0  0  0  0  0  0  0  0  0  0
   -3.6575   31.9135   24.2671 C   0  0  0  0  0  0  0  0  0  0  0  0
   -3.9774   33.2018   23.8039 C   0  0  0  0  0  0  0  0  0  0  0  0
   -4.7230   31.0653   24.6246 C   0  0  0  0  0  0  0  0  0  0  0  0
    2.1910   33.3763   23.0201 H   0  0  0  0  0  0  0  0  0  0  0  0
    3.2569   33.8919   24.3316 H   0  0  0  0  0  0  0  0  0  0  0  0
   -3.9085   35.6277   25.6192 H   0  0  0  0  0  0  0  0  0  0  0  0
   -4.2597   28.4794   26.5451 H   0  0  0  0  0  0  0  0  0  0  0  0
   -5.5139   29.6862   26.7725 H   0  0  0  0  0  0  0  0  0  0  0  0
   -3.7990   30.1535   26.9221 H   0  0  0  0  0  0  0  0  0  0  0  0
   -8.1613   31.0719   24.6186 H   0  0  0  0  0  0  0  0  0  0  0  0
   -7.1900   30.2190   25.7933 H   0  0  0  0  0  0  0  0  0  0  0  0
   -7.1721   29.6963   24.0889 H   0  0  0  0  0  0  0  0  0  0  0  0
   -1.5024   32.1225   24.0896 H   0  0  0  0  0  0  0  0  0  0  0  0
   -2.1236   30.5298   23.7116 H   0  0  0  0  0  0  0  0  0  0  0  0
   -2.0483   31.0959   25.4046 H   0  0  0  0  0  0  0  0  0  0  0  0
   -7.2604   33.1441   23.8527 H   0  0  0  0  0  0  0  0  0  0  0  0
   -2.2123   33.7931   22.7018 H   0  0  0  0  0  0  0  0  0  0  0  0
   -3.4124   35.0684   22.8785 H   0  0  0  0  0  0  0  0  0  0  0  0
  1  2  2  0  0  0  0
  1  7  1  0  0  0  0
  2  3  1  0  0  0  0
  2  4  1  0  0  0  0
  3 23  1  0  0  0  0
  3 24  1  0  0  0  0
  4  5  2  0  0  0  0
  5  6  1  0  0  0  0
  5 11  1  0  0  0  0
  6  7  2  0  0  0  0
  6  9  1  0  0  0  0
  7  8  1  0  0  0  0
  9 10  1  0  0  0  0
 10 11  2  0  0  0  0
 10 25  1  0  0  0  0
 11 16  1  0  0  0  0
 12 18  1  0  0  0  0
 12 26  1  0  0  0  0
 12 27  1  0  0  0  0
 12 28  1  0  0  0  0
 13 19  1  0  0  0  0
 13 29  1  0  0  0  0
 13 30  1  0  0  0  0
 13 31  1  0  0  0  0
 14 20  1  0  0  0  0
 14 32  1  0  0  0  0
 14 33  1  0  0  0  0
 14 34  1  0  0  0  0
 15 17  2  0  0  0  0
 15 19  1  0  0  0  0
 15 35  1  0  0  0  0
 16 21  1  0  0  0  0
 16 36  1  0  0  0  0
 16 37  1  0  0  0  0
 17 21  1  0  0  0  0
 18 22  1  0  0  0  0
 19 22  2  0  0  0  0
 20 21  2  0  0  0  0
 20 22  1  0  0  0  0
M  CHG  1  11   1
M  END
$$$$
