REMARK  4 active torsions:
REMARK  status: ('A' for Active; 'I' for Inactive)
REMARK    1  A    between atoms: C_2  and  N_3 
REMARK    2  A    between atoms: N_11  and  C_16 
REMARK    3  A    between atoms: C_16  and  C_21 
REMARK    4  A    between atoms: O_18  and  C_22 
ROOT
ATOM      1  N   LIG d   1       1.581  34.892  25.773  0.00  0.00    -0.201 NA
ATOM      2  C   LIG d   1       1.290  34.317  24.601  0.00  0.00     0.216 A 
ATOM      3  N   LIG d   1       0.074  34.225  24.030  0.00  0.00    -0.195 NA
ATOM      4  C   LIG d   1      -0.899  34.765  24.785  0.00  0.00     0.167 A 
ATOM      5  C   LIG d   1      -0.744  35.386  26.017  0.00  0.00     0.145 A 
ATOM      6  C   LIG d   1       0.564  35.425  26.471  0.00  0.00     0.162 A 
ATOM      7 CL   LIG d   1       0.900  36.133  27.974  0.00  0.00    -0.059 Cl
ATOM      8  N   LIG d   1      -1.960  35.816  26.502  0.00  0.00    -0.231 NA
ATOM      9  C   LIG d   1      -2.837  35.447  25.586  0.00  0.00     0.202 A 
ATOM     10  N   LIG d   1      -2.246  34.786  24.547  0.00  0.00    -0.309 N 
ENDROOT
BRANCH  10  11
ATOM     11  C   LIG d   1      -2.937  34.224  23.398  0.00  0.00     0.180 C 
BRANCH  11  12
ATOM     12  C   LIG d   1      -3.977  33.202  23.804  0.00  0.00     0.067 A 
ATOM     13  N   LIG d   1      -5.266  33.624  23.689  0.00  0.00    -0.257 NA
ATOM     14  C   LIG d   1      -6.256  32.759  24.010  0.00  0.00     0.118 A 
ATOM     15  C   LIG d   1      -6.049  31.472  24.481  0.00  0.00     0.009 A 
ATOM     16  C   LIG d   1      -7.202  30.562  24.758  0.00  0.00     0.049 C 
ATOM     17  C   LIG d   1      -4.723  31.065  24.625  0.00  0.00     0.129 A 
ATOM     18  C   LIG d   1      -3.658  31.913  24.267  0.00  0.00     0.015 A 
ATOM     19  C   LIG d   1      -2.256  31.392  24.372  0.00  0.00     0.049 C 
BRANCH  17  20
ATOM     20  O   LIG d   1      -4.439  29.763  24.965  0.00  0.00    -0.494 OA
ATOM     21  C   LIG d   1      -4.510  29.531  26.372  0.00  0.00     0.277 C 
ENDBRANCH  17  20
ENDBRANCH  11  12
ENDBRANCH  10  11
BRANCH   2  22
ATOM     22  N   LIG d   1       2.339  33.736  23.947  0.00  0.00    -0.327 N 
ATOM     23  H   LIG d   1       2.191  33.376  23.020  0.00  0.00     0.145 HD
ATOM     24  H   LIG d   1       3.257  33.892  24.332  0.00  0.00     0.145 HD
ENDBRANCH   2  22
TORSDOF 4
