@<TRIPOS>MOLECULE
3QDD_94M_A_999
 37 39 0 0 0
SMALL
USER_CHARGES

@<TRIPOS>ATOM
      1 N           1.5811   34.8918   25.7732 N.ar    1  LIG1       -0.2007
      2 C           1.2905   34.3173   24.6009 C.ar    1  LIG1        0.2159
      3 N           2.3388   33.7356   23.9470 N.pl3   1  LIG1       -0.3274
      4 N           0.0743   34.2252   24.0298 N.ar    1  LIG1       -0.1949
      5 C          -0.8993   34.7654   24.7846 C.ar    1  LIG1        0.1671
      6 C          -0.7435   35.3864   26.0174 C.ar    1  LIG1        0.1447
      7 C           0.5636   35.4245   26.4709 C.ar    1  LIG1        0.1617
      8 CL          0.8997   36.1330   27.9739 Cl      1  LIG1       -0.0595
      9 N          -1.9596   35.8163   26.5015 N.ar    1  LIG1       -0.2310
     10 C          -2.8366   35.4472   25.5859 C.ar    1  LIG1        0.0986
     11 N          -2.2463   34.7865   24.5465 N.ar    1  LIG1       -0.3090
     12 C          -4.5100   29.5311   26.3725 C.3     1  LIG1        0.0788
     13 C          -7.2020   30.5620   24.7579 C.3     1  LIG1       -0.0348
     14 C          -2.2563   31.3925   24.3719 C.3     1  LIG1       -0.0345
     15 C          -6.2558   32.7588   24.0099 C.ar    1  LIG1        0.0343
     16 C          -2.9374   34.2244   23.3979 C.3     1  LIG1        0.0685
     17 N          -5.2655   33.6237   23.6889 N.ar    1  LIG1       -0.2573
     18 O          -4.4391   29.7629   24.9646 O.3     1  LIG1       -0.4945
     19 C          -6.0488   31.4724   24.4806 C.ar    1  LIG1        0.0095
     20 C          -3.6575   31.9135   24.2671 C.ar    1  LIG1        0.0145
     21 C          -3.9774   33.2018   23.8039 C.ar    1  LIG1        0.0673
     22 C          -4.7230   31.0653   24.6246 C.ar    1  LIG1        0.1291
     23 H           2.1910   33.3763   23.0201 H       1  LIG1        0.1452
     24 H           3.2569   33.8919   24.3316 H       1  LIG1        0.1452
     25 H          -3.9085   35.6277   25.6192 H       1  LIG1        0.1029
     26 H          -4.2597   28.4794   26.5451 H       1  LIG1        0.0660
     27 H          -5.5139   29.6862   26.7725 H       1  LIG1        0.0660
     28 H          -3.7990   30.1535   26.9221 H       1  LIG1        0.0660
     29 H          -8.1613   31.0719   24.6186 H       1  LIG1        0.0279
     30 H          -7.1900   30.2190   25.7933 H       1  LIG1        0.0279
     31 H          -7.1721   29.6963   24.0889 H       1  LIG1        0.0279
     32 H          -1.5024   32.1225   24.0896 H       1  LIG1        0.0279
     33 H          -2.1236   30.5298   23.7116 H       1  LIG1        0.0279
     34 H          -2.0483   31.0959   25.4046 H       1  LIG1        0.0279
     35 H          -7.2604   33.1441   23.8527 H       1  LIG1        0.0833
     36 H          -2.2123   33.7931   22.7018 H       1  LIG1        0.0558
     37 H          -3.4124   35.0684   22.8785 H       1  LIG1        0.0558
@<TRIPOS>BOND
     1     1     2   ar
     2     1     7   ar
     3     2     3    1
     4     2     4   ar
     5     3    23    1
     6     3    24    1
     7     4     5   ar
     8     5     6   ar
     9     5    11   ar
    10     6     7   ar
    11     6     9   ar
    12     7     8    1
    13     9    10   ar
    14    10    11   ar
    15    10    25    1
    16    11    16    1
    17    12    18    1
    18    12    26    1
    19    12    27    1
    20    12    28    1
    21    13    19    1
    22    13    29    1
    23    13    30    1
    24    13    31    1
    25    14    20    1
    26    14    32    1
    27    14    33    1
    28    14    34    1
    29    15    17   ar
    30    15    19   ar
    31    15    35    1
    32    16    21    1
    33    16    36    1
    34    16    37    1
    35    17    21   ar
    36    18    22    1
    37    19    22   ar
    38    20    21   ar
    39    20    22   ar
