@<TRIPOS>MOLECULE
4U93_990_A_301
 46 49 0 0 0
SMALL
USER_CHARGES

@<TRIPOS>ATOM
      1 F          24.8528   22.3848   10.0545 F       1  LIG1       -0.2055
      2 C          26.0310   22.9874   10.2447 C.ar    1  LIG1        0.1240
      3 C          26.3410   23.5014   11.4964 C.ar    1  LIG1       -0.0170
      4 C          27.5700   24.1402   11.7414 C.ar    1  LIG1        0.0081
      5 C          27.8361   24.6767   13.0937 C.ar    1  LIG1        0.0752
      6 N          29.0970   24.5274   13.5849 N.ar    1  LIG1       -0.2129
      7 C          29.3645   25.0168   14.8206 C.ar    1  LIG1        0.2149
      8 O          30.6396   24.8943   15.3505 O.3     1  LIG1       -0.4796
      9 C          31.6226   24.3212   14.4796 C.3     1  LIG1        0.0804
     10 C          28.4105   25.6390   15.6068 C.ar    1  LIG1        0.0000
     11 C          27.1209   25.7822   15.0940 C.ar    1  LIG1       -0.0547
     12 C          26.8297   25.2902   13.8287 C.ar    1  LIG1       -0.0354
     13 C          26.9195   23.0946    9.1891 C.ar    1  LIG1       -0.0261
     14 C          28.1345   23.7258    9.3881 C.ar    1  LIG1       -0.0535
     15 C          28.4707   24.2456   10.6531 C.ar    1  LIG1       -0.0175
     16 C          29.8228   24.9041   10.7888 C.3     1  LIG1        0.0547
     17 N          30.0279   25.8211    9.6885 N.am    1  LIG1       -0.3040
     18 C          31.2554   26.3655    9.3899 C.2     1  LIG1        0.2480
     19 O          31.3507   27.2051    8.5346 O.2     1  LIG1       -0.2701
     20 C          30.9637   23.8872   10.7709 C.3     1  LIG1        0.0131
     21 C          32.3110   24.5967   10.7365 C.ar    1  LIG1        0.0608
     22 N          33.3695   23.9823   11.3373 N.ar    1  LIG1       -0.2188
     23 C          34.5561   24.6144   11.2912 C.ar    1  LIG1        0.2130
     24 N          35.6330   23.9934   11.8849 N.pl3   1  LIG1       -0.3275
     25 N          34.7634   25.8063   10.7036 N.ar    1  LIG1       -0.2192
     26 C          33.6909   26.4054   10.0966 C.ar    1  LIG1        0.0556
     27 C          32.4333   25.8150   10.0948 C.ar    1  LIG1        0.0791
     28 C          33.9769   27.7396    9.4589 C.3     1  LIG1       -0.0214
     29 H          25.6174   23.3983   12.3030 H       1  LIG1        0.0653
     30 H          32.5848   24.2771   15.0161 H       1  LIG1        0.0660
     31 H          31.7713   24.9400   13.5885 H       1  LIG1        0.0660
     32 H          31.3580   23.2983   14.1893 H       1  LIG1        0.0660
     33 H          28.6356   26.0144   16.6057 H       1  LIG1        0.0671
     34 H          26.3437   26.2744   15.6713 H       1  LIG1        0.0620
     35 H          25.8278   25.3840   13.4214 H       1  LIG1        0.0639
     36 H          26.6738   22.6904    8.2163 H       1  LIG1        0.0646
     37 H          28.8397   23.8266    8.5627 H       1  LIG1        0.0622
     38 H          29.8363   25.4959   11.7044 H       1  LIG1        0.0552
     39 H          29.2702   26.0610    9.0556 H       1  LIG1        0.1496
     40 H          30.8606   23.2565    9.8720 H       1  LIG1        0.0350
     41 H          30.8863   23.2402   11.6479 H       1  LIG1        0.0350
     42 H          36.5305   24.4451   11.8750 H       1  LIG1        0.1452
     43 H          35.4971   23.0972   12.3152 H       1  LIG1        0.1452
     44 H          35.0376   28.0147    9.5719 H       1  LIG1        0.0293
     45 H          33.3778   28.5297    9.9306 H       1  LIG1        0.0293
     46 H          33.7577   27.7206    8.3839 H       1  LIG1        0.0293
@<TRIPOS>BOND
     1     1     2    1
     2     2     3   ar
     3     2    13   ar
     4     3     4   ar
     5     3    29    1
     6     4     5    1
     7     4    15   ar
     8     5     6   ar
     9     5    12   ar
    10     6     7   ar
    11     7     8    1
    12     7    10   ar
    13     8     9    1
    14     9    30    1
    15     9    31    1
    16     9    32    1
    17    10    11   ar
    18    10    33    1
    19    11    12   ar
    20    11    34    1
    21    12    35    1
    22    13    14   ar
    23    13    36    1
    24    14    15   ar
    25    14    37    1
    26    15    16    1
    27    16    17    1
    28    16    20    1
    29    16    38    1
    30    17    18   am
    31    17    39    1
    32    18    19    2
    33    18    27    1
    34    20    21    1
    35    20    40    1
    36    20    41    1
    37    21    22   ar
    38    21    27   ar
    39    22    23   ar
    40    23    24    1
    41    23    25   ar
    42    24    42    1
    43    24    43    1
    44    25    26   ar
    45    26    27   ar
    46    26    28    1
    47    28    44    1
    48    28    45    1
    49    28    46    1
