@<TRIPOS>MOLECULE
4AWP_99A_A_1224
 71 75 0 0 0
SMALL
USER_CHARGES

@<TRIPOS>ATOM
      1 C          -9.8714  -21.8894  -19.4929 C.3     1  LIG1       -0.0390
      2 C         -10.2264  -21.0245  -18.3134 C.ar    1  LIG1       -0.0376
      3 C         -10.7067  -21.6648  -17.1518 C.ar    1  LIG1       -0.0458
      4 C         -11.0633  -20.9190  -16.0243 C.ar    1  LIG1        0.0397
      5 C         -11.7404  -21.6190  -14.8872 C.2     1  LIG1        0.2418
      6 O         -12.8206  -21.2939  -14.5495 O.2     1  LIG1       -0.2704
      7 N         -11.0408  -22.6694  -14.3165 N.am    1  LIG1       -0.3253
      8 C         -10.9500  -19.5167  -16.0210 C.ar    1  LIG1       -0.0376
      9 C         -11.3292  -18.6536  -14.8524 C.3     1  LIG1       -0.0390
     10 C         -10.4380  -18.8831  -17.1654 C.ar    1  LIG1       -0.0457
     11 C         -10.0693  -19.6142  -18.3078 C.ar    1  LIG1        0.0399
     12 C          -9.6267  -18.8180  -19.5242 C.2     1  LIG1        0.2446
     13 O          -8.7226  -18.0204  -19.5218 O.2     1  LIG1       -0.2702
     14 N         -10.4443  -19.0891  -20.5933 N.am    1  LIG1       -0.3084
     15 C         -10.4523  -18.4067  -21.8734 C.3     1  LIG1        0.0268
     16 C         -11.7720  -18.5651  -22.6592 C.3     1  LIG1       -0.0157
     17 C          -9.1498  -18.3716  -22.6992 C.3     1  LIG1       -0.0157
     18 C          -9.2132  -19.4602  -23.7506 C.3     1  LIG1        0.0269
     19 C          -9.5826  -20.8783  -23.2249 C.3     1  LIG1       -0.0326
     20 C         -11.1224  -20.9572  -23.2147 C.3     1  LIG1       -0.0326
     21 C         -11.5898  -19.6040  -23.7732 C.3     1  LIG1        0.0269
     22 N         -10.4183  -19.1760  -24.5499 N.pl3   1  LIG1       -0.3090
     23 C         -10.4563  -18.2837  -25.5999 C.ar    1  LIG1        0.1217
     24 C         -11.6633  -17.9929  -26.2378 C.ar    1  LIG1       -0.0210
     25 C         -11.6878  -17.1592  -27.3600 C.ar    1  LIG1       -0.0449
     26 N          -9.3061  -17.7281  -26.0548 N.ar    1  LIG1       -0.2396
     27 C          -9.3441  -16.9085  -27.1487 C.ar    1  LIG1        0.0418
     28 C         -10.5055  -16.5966  -27.8369 C.ar    1  LIG1        0.0549
     29 C         -10.4417  -15.7035  -29.0500 C.2     1  LIG1        0.2458
     30 O          -9.3994  -15.2235  -29.4178 O.2     1  LIG1       -0.2701
     31 N         -11.6561  -15.5005  -29.6899 N.am    1  LIG1       -0.3072
     32 C         -11.7908  -14.7435  -30.9298 C.3     1  LIG1        0.0371
     33 C         -11.7071  -13.2443  -30.8135 C.ar    1  LIG1       -0.0303
     34 C         -11.4158  -12.5073  -31.9886 C.ar    1  LIG1       -0.0571
     35 C         -11.3136  -11.1201  -31.9460 C.ar    1  LIG1       -0.0615
     36 C         -11.5482  -10.4545  -30.7374 C.ar    1  LIG1       -0.0617
     37 C         -11.8532  -11.1679  -29.5731 C.ar    1  LIG1       -0.0615
     38 C         -11.9471  -12.5572  -29.6162 C.ar    1  LIG1       -0.0571
     39 H         -10.0641  -22.9497  -19.2833 H       1  LIG1        0.0278
     40 H          -8.8132  -21.7808  -19.7433 H       1  LIG1        0.0278
     41 H         -10.4759  -21.6261  -20.3607 H       1  LIG1        0.0278
     42 H         -10.8263  -22.7549  -17.1467 H       1  LIG1        0.0628
     43 H         -11.5073  -23.2010  -13.5793 H       1  LIG1        0.1453
     44 H         -10.1171  -22.9105  -14.6005 H       1  LIG1        0.1453
     45 H         -11.7048  -19.2492  -14.0179 H       1  LIG1        0.0278
     46 H         -12.1091  -17.9355  -15.1336 H       1  LIG1        0.0278
     47 H         -10.4576  -18.0933  -14.4905 H       1  LIG1        0.0278
     48 H         -10.3355  -17.7954  -17.1635 H       1  LIG1        0.0628
     49 H         -11.2354  -19.6641  -20.3621 H       1  LIG1        0.1493
     50 H         -10.3495  -17.3925  -21.6262 H       1  LIG1        0.0499
     51 H         -12.0174  -17.5853  -23.1053 H       1  LIG1        0.0301
     52 H         -12.6210  -18.8169  -22.0017 H       1  LIG1        0.0301
     53 H          -8.2691  -18.3834  -22.0411 H       1  LIG1        0.0301
     54 H          -9.1338  -17.3538  -23.1677 H       1  LIG1        0.0301
     55 H          -8.2302  -19.5033  -24.2286 H       1  LIG1        0.0501
     56 H          -9.1862  -21.0854  -22.2273 H       1  LIG1        0.0284
     57 H          -9.1960  -21.6563  -23.9020 H       1  LIG1        0.0284
     58 H         -11.5067  -21.1353  -22.2046 H       1  LIG1        0.0284
     59 H         -11.4758  -21.7883  -23.8444 H       1  LIG1        0.0284
     60 H         -12.5265  -19.7625  -24.3229 H       1  LIG1        0.0501
     61 H         -12.6007  -18.3959  -25.8668 H       1  LIG1        0.0652
     62 H         -12.6413  -16.9746  -27.8349 H       1  LIG1        0.0627
     63 H          -8.3790  -16.5148  -27.4716 H       1  LIG1        0.0838
     64 H         -12.4849  -15.9233  -29.3256 H       1  LIG1        0.1493
     65 H         -12.7719  -14.9893  -31.3547 H       1  LIG1        0.0512
     66 H         -11.0133  -15.0830  -31.6187 H       1  LIG1        0.0512
     67 H         -11.2691  -13.0245  -32.9373 H       1  LIG1        0.0621
     68 H         -11.0489  -10.5589  -32.8403 H       1  LIG1        0.0618
     69 H         -11.5005   -9.3753  -30.7081 H       1  LIG1        0.0618
     70 H         -12.0094  -10.6335  -28.6373 H       1  LIG1        0.0618
     71 H         -12.2050  -13.1109  -28.7171 H       1  LIG1        0.0621
@<TRIPOS>BOND
     1     1     2    1
     2     1    39    1
     3     1    40    1
     4     1    41    1
     5     2     3   ar
     6     2    11   ar
     7     3     4   ar
     8     3    42    1
     9     4     5    1
    10     4     8   ar
    11     5     6    2
    12     5     7   am
    13     7    43    1
    14     7    44    1
    15     8     9    1
    16     8    10   ar
    17     9    45    1
    18     9    46    1
    19     9    47    1
    20    10    11   ar
    21    10    48    1
    22    11    12    1
    23    12    13    2
    24    12    14   am
    25    14    15    1
    26    14    49    1
    27    15    16    1
    28    15    17    1
    29    15    50    1
    30    16    21    1
    31    16    51    1
    32    16    52    1
    33    17    18    1
    34    17    53    1
    35    17    54    1
    36    18    19    1
    37    18    22    1
    38    18    55    1
    39    19    20    1
    40    19    56    1
    41    19    57    1
    42    20    21    1
    43    20    58    1
    44    20    59    1
    45    21    22    1
    46    21    60    1
    47    22    23    1
    48    23    24   ar
    49    23    26   ar
    50    24    25   ar
    51    24    61    1
    52    25    28   ar
    53    25    62    1
    54    26    27   ar
    55    27    28   ar
    56    27    63    1
    57    28    29    1
    58    29    30    2
    59    29    31   am
    60    31    32    1
    61    31    64    1
    62    32    33    1
    63    32    65    1
    64    32    66    1
    65    33    34   ar
    66    33    38   ar
    67    34    35   ar
    68    34    67    1
    69    35    36   ar
    70    35    68    1
    71    36    37   ar
    72    36    69    1
    73    37    38   ar
    74    37    70    1
    75    38    71    1
