REMARK  7 active torsions:
REMARK  status: ('A' for Active; 'I' for Inactive)
REMARK    1  A    between atoms: C_4  and  C_5 
REMARK       I    between atoms: C_5  and  N_7 
REMARK    2  A    between atoms: C_11  and  C_12 
REMARK       I    between atoms: C_12  and  N_14 
REMARK    3  A    between atoms: N_14  and  C_15 
REMARK    4  A    between atoms: N_22  and  C_23 
REMARK    5  A    between atoms: C_28  and  C_29 
REMARK       I    between atoms: C_29  and  N_31 
REMARK    6  A    between atoms: N_31  and  C_32 
REMARK    7  A    between atoms: C_32  and  C_33 
ROOT
ATOM      1  C   LIG d   1     -10.452 -18.407 -21.873  0.00  0.00     0.077 C 
ATOM      2  C   LIG d   1     -11.772 -18.565 -22.659  0.00  0.00     0.044 C 
ATOM      3  C   LIG d   1      -9.150 -18.372 -22.699  0.00  0.00     0.044 C 
ATOM      4  C   LIG d   1      -9.213 -19.460 -23.751  0.00  0.00     0.077 C 
ATOM      5  C   LIG d   1      -9.583 -20.878 -23.225  0.00  0.00     0.024 C 
ATOM      6  C   LIG d   1     -11.122 -20.957 -23.215  0.00  0.00     0.024 C 
ATOM      7  C   LIG d   1     -11.590 -19.604 -23.773  0.00  0.00     0.077 C 
ATOM      8  N   LIG d   1     -10.418 -19.176 -24.550  0.00  0.00    -0.309 N 
ENDROOT
BRANCH   1   9
ATOM      9  N   LIG d   1     -10.444 -19.089 -20.593  0.00  0.00    -0.308 N 
ATOM     10  C   LIG d   1      -9.627 -18.818 -19.524  0.00  0.00     0.245 C 
ATOM     11  O   LIG d   1      -8.723 -18.020 -19.522  0.00  0.00    -0.270 OA
ATOM     12  H   LIG d   1     -11.235 -19.664 -20.362  0.00  0.00     0.149 HD
BRANCH  10  13
ATOM     13  C   LIG d   1     -10.069 -19.614 -18.308  0.00  0.00     0.040 A 
ATOM     14  C   LIG d   1     -10.226 -21.024 -18.313  0.00  0.00    -0.038 A 
ATOM     15  C   LIG d   1      -9.871 -21.889 -19.493  0.00  0.00     0.044 C 
ATOM     16  C   LIG d   1     -10.707 -21.665 -17.152  0.00  0.00     0.017 A 
ATOM     17  C   LIG d   1     -11.063 -20.919 -16.024  0.00  0.00     0.040 A 
ATOM     18  C   LIG d   1     -10.950 -19.517 -16.021  0.00  0.00    -0.038 A 
ATOM     19  C   LIG d   1     -11.329 -18.654 -14.852  0.00  0.00     0.044 C 
ATOM     20  C   LIG d   1     -10.438 -18.883 -17.165  0.00  0.00     0.017 A 
BRANCH  17  21
ATOM     21  C   LIG d   1     -11.740 -21.619 -14.887  0.00  0.00     0.242 C 
ATOM     22  O   LIG d   1     -12.821 -21.294 -14.550  0.00  0.00    -0.270 OA
ATOM     23  N   LIG d   1     -11.041 -22.669 -14.316  0.00  0.00    -0.325 N 
ATOM     24  H   LIG d   1     -11.507 -23.201 -13.579  0.00  0.00     0.145 HD
ATOM     25  H   LIG d   1     -10.117 -22.910 -14.601  0.00  0.00     0.145 HD
ENDBRANCH  17  21
ENDBRANCH  10  13
ENDBRANCH   1   9
BRANCH   8  26
ATOM     26  C   LIG d   1     -10.456 -18.284 -25.600  0.00  0.00     0.122 A 
ATOM     27  C   LIG d   1     -11.663 -17.993 -26.238  0.00  0.00     0.044 A 
ATOM     28  C   LIG d   1     -11.688 -17.159 -27.360  0.00  0.00     0.018 A 
ATOM     29  C   LIG d   1     -10.505 -16.597 -27.837  0.00  0.00     0.055 A 
ATOM     30  C   LIG d   1      -9.344 -16.909 -27.149  0.00  0.00     0.126 A 
ATOM     31  N   LIG d   1      -9.306 -17.728 -26.055  0.00  0.00    -0.240 NA
BRANCH  29  32
ATOM     32  C   LIG d   1     -10.442 -15.704 -29.050  0.00  0.00     0.246 C 
ATOM     33  O   LIG d   1      -9.399 -15.223 -29.418  0.00  0.00    -0.270 OA
ATOM     34  N   LIG d   1     -11.656 -15.501 -29.690  0.00  0.00    -0.307 N 
ATOM     35  H   LIG d   1     -12.485 -15.923 -29.326  0.00  0.00     0.149 HD
BRANCH  34  36
ATOM     36  C   LIG d   1     -11.791 -14.743 -30.930  0.00  0.00     0.140 C 
BRANCH  36  37
ATOM     37  C   LIG d   1     -11.707 -13.244 -30.814  0.00  0.00    -0.030 A 
ATOM     38  C   LIG d   1     -11.416 -12.507 -31.989  0.00  0.00     0.005 A 
ATOM     39  C   LIG d   1     -11.314 -11.120 -31.946  0.00  0.00     0.000 A 
ATOM     40  C   LIG d   1     -11.548 -10.454 -30.737  0.00  0.00     0.000 A 
ATOM     41  C   LIG d   1     -11.853 -11.168 -29.573  0.00  0.00     0.000 A 
ATOM     42  C   LIG d   1     -11.947 -12.557 -29.616  0.00  0.00     0.005 A 
ENDBRANCH  36  37
ENDBRANCH  34  36
ENDBRANCH  29  32
ENDBRANCH   8  26
TORSDOF 7
