4AWO_99B_A_1225
 OpenBabel03301717243D

 74 78  0  0  1  0  0  0  0  0999 V2000
  -12.4106  -18.4394  -13.4735 C   0  0  1  0  0  0  0  0  0  0  0  0
  -11.8587  -19.7855  -13.4134 N   0  0  0  0  0  0  0  0  0  0  0  0
   -9.2422  -18.9989  -18.0202 O   0  0  0  0  0  0  0  0  0  0  0  0
  -13.8078  -18.3396  -14.0994 C   0  0  0  0  0  0  0  0  0  0  0  0
  -11.0118  -20.0576  -18.9979 N   0  0  0  0  0  0  0  0  0  0  0  0
   -9.5770  -16.1616  -27.7674 O   0  0  0  0  0  0  0  0  0  0  0  0
  -14.7917  -19.3806  -13.6053 C   0  0  0  0  0  0  0  0  0  0  0  0
  -10.6823  -20.1817  -23.0705 N   0  0  0  0  0  0  0  0  0  0  0  0
  -13.0879  -22.2852  -12.8461 O   0  0  0  0  0  0  0  0  0  0  0  0
  -12.5076  -17.8486  -12.0748 C   0  0  0  0  0  0  0  0  0  0  0  0
   -9.5747  -18.7021  -24.5250 N   0  0  0  0  0  0  0  0  0  0  0  0
  -11.4087  -20.5047  -14.5024 C   0  0  0  0  0  0  0  0  0  0  0  0
  -11.4291  -23.7895  -12.8930 N   0  0  0  0  0  0  0  0  0  0  0  0
  -10.9481  -19.8337  -15.6492 C   0  0  0  0  0  0  0  0  0  0  0  0
  -10.5356  -20.5749  -16.7602 C   0  0  0  0  0  0  0  0  0  0  0  0
  -10.1672  -19.8230  -17.9884 C   0  0  0  0  0  0  0  0  0  0  0  0
  -10.8653  -19.5585  -20.3471 C   0  0  2  0  0  0  0  0  0  0  0  0
   -9.5381  -19.2854  -21.0741 C   0  0  0  0  0  0  0  0  0  0  0  0
   -9.4993  -20.4003  -22.1957 C   0  0  1  0  0  0  0  0  0  0  0  0
  -11.8937  -20.5552  -22.3191 C   0  0  2  0  0  0  0  0  0  0  0  0
  -12.1097  -19.4365  -21.2243 C   0  0  0  0  0  0  0  0  0  0  0  0
  -11.4630  -21.9556  -21.7147 C   0  0  0  0  0  0  0  0  0  0  0  0
   -9.8675  -21.8607  -21.6301 C   0  0  0  0  0  0  0  0  0  0  0  0
  -10.7340  -19.3129  -24.1264 C   0  0  0  0  0  0  0  0  0  0  0  0
   -9.5781  -17.8635  -25.5817 C   0  0  0  0  0  0  0  0  0  0  0  0
  -10.7324  -17.5836  -26.2764 C   0  0  0  0  0  0  0  0  0  0  0  0
  -10.6205  -16.6100  -27.4040 C   0  0  0  0  0  0  0  0  0  0  0  0
  -11.9108  -16.1670  -28.0021 C   0  0  0  0  0  0  0  0  0  0  0  0
  -12.1471  -14.6636  -28.0743 C   0  0  0  0  0  0  0  0  0  0  0  0
  -12.0062  -15.4624  -29.3497 C   0  0  0  0  0  0  0  0  0  0  0  0
  -11.9461  -19.0756  -24.7887 C   0  0  0  0  0  0  0  0  0  0  0  0
  -11.9383  -18.1979  -25.8620 C   0  0  0  0  0  0  0  0  0  0  0  0
  -11.4445  -21.9238  -14.4967 C   0  0  0  0  0  0  0  0  0  0  0  0
  -12.0794  -22.6454  -13.3306 C   0  0  0  0  0  0  0  0  0  0  0  0
  -11.0522  -22.6578  -15.6054 C   0  0  0  0  0  0  0  0  0  0  0  0
  -10.6162  -21.9946  -16.7555 C   0  0  0  0  0  0  0  0  0  0  0  0
  -10.2286  -22.8436  -17.9261 C   0  0  0  0  0  0  0  0  0  0  0  0
  -11.7260  -17.8432  -14.0747 H   0  0  0  0  0  0  0  0  0  0  0  0
  -11.8067  -20.2671  -12.5207 H   0  0  0  0  0  0  0  0  0  0  0  0
  -13.7327  -18.4233  -15.1868 H   0  0  0  0  0  0  0  0  0  0  0  0
  -14.2329  -17.3490  -13.8752 H   0  0  0  0  0  0  0  0  0  0  0  0
  -11.7728  -20.7097  -18.8085 H   0  0  0  0  0  0  0  0  0  0  0  0
  -14.4217  -20.3786  -13.8384 H   0  0  0  0  0  0  0  0  0  0  0  0
  -15.7615  -19.2498  -14.0954 H   0  0  0  0  0  0  0  0  0  0  0  0
  -14.9355  -19.2957  -12.5254 H   0  0  0  0  0  0  0  0  0  0  0  0
  -13.2202  -18.4145  -11.4630 H   0  0  0  0  0  0  0  0  0  0  0  0
  -12.8590  -16.8096  -12.1191 H   0  0  0  0  0  0  0  0  0  0  0  0
  -11.5385  -17.8655  -11.5711 H   0  0  0  0  0  0  0  0  0  0  0  0
  -11.8969  -24.3349  -12.1776 H   0  0  0  0  0  0  0  0  0  0  0  0
  -10.5553  -24.0883  -13.2560 H   0  0  0  0  0  0  0  0  0  0  0  0
  -10.8929  -18.7474  -15.6769 H   0  0  0  0  0  0  0  0  0  0  0  0
  -10.7898  -20.5779  -20.5232 H   0  0  0  0  0  0  0  0  0  0  0  0
   -8.6721  -19.3346  -20.4034 H   0  0  0  0  0  0  0  0  0  0  0  0
   -9.5460  -18.2855  -21.5292 H   0  0  0  0  0  0  0  0  0  0  0  0
   -8.4908  -20.4349  -22.6410 H   0  0  0  0  0  0  0  0  0  0  0  0
  -12.7966  -20.7044  -22.9057 H   0  0  0  0  0  0  0  0  0  0  0  0
  -12.1622  -18.4314  -21.6613 H   0  0  0  0  0  0  0  0  0  0  0  0
  -13.0263  -19.5959  -20.6403 H   0  0  0  0  0  0  0  0  0  0  0  0
  -11.7786  -22.7937  -22.3416 H   0  0  0  0  0  0  0  0  0  0  0  0
  -11.9243  -22.1022  -20.7177 H   0  0  0  0  0  0  0  0  0  0  0  0
   -9.5233  -21.9657  -20.5921 H   0  0  0  0  0  0  0  0  0  0  0  0
   -9.4032  -22.6557  -22.2097 H   0  0  0  0  0  0  0  0  0  0  0  0
   -8.6227  -17.4123  -25.8685 H   0  0  0  0  0  0  0  0  0  0  0  0
  -12.6779  -16.8627  -27.7468 H   0  0  0  0  0  0  0  0  0  0  0  0
  -11.3231  -14.0325  -27.7451 H   0  0  0  0  0  0  0  0  0  0  0  0
  -13.1021  -14.1991  -27.8164 H   0  0  0  0  0  0  0  0  0  0  0  0
  -12.8736  -15.5503  -30.0155 H   0  0  0  0  0  0  0  0  0  0  0  0
  -11.1019  -15.3854  -29.9466 H   0  0  0  0  0  0  0  0  0  0  0  0
  -12.8877  -19.5338  -24.4713 H   0  0  0  0  0  0  0  0  0  0  0  0
  -12.8812  -18.0069  -26.3598 H   0  0  0  0  0  0  0  0  0  0  0  0
  -11.1007  -23.7494  -15.5946 H   0  0  0  0  0  0  0  0  0  0  0  0
   -9.9041  -22.2275  -18.7505 H   0  0  0  0  0  0  0  0  0  0  0  0
  -11.0732  -23.4514  -18.2656 H   0  0  0  0  0  0  0  0  0  0  0  0
   -9.3966  -23.4996  -17.6629 H   0  0  0  0  0  0  0  0  0  0  0  0
  1  2  1  0  0  0  0
  1  4  1  0  0  0  0
  1 10  1  0  0  0  0
  1 38  1  6  0  0  0
  2 12  1  0  0  0  0
  2 39  1  0  0  0  0
  3 16  2  0  0  0  0
  4  7  1  0  0  0  0
  4 40  1  0  0  0  0
  4 41  1  0  0  0  0
  5 16  1  0  0  0  0
  5 17  1  0  0  0  0
  5 42  1  0  0  0  0
  6 27  2  0  0  0  0
  7 43  1  0  0  0  0
  7 44  1  0  0  0  0
  7 45  1  0  0  0  0
  8 19  1  0  0  0  0
  8 20  1  0  0  0  0
  8 24  1  0  0  0  0
  9 34  2  0  0  0  0
 10 46  1  0  0  0  0
 10 47  1  0  0  0  0
 10 48  1  0  0  0  0
 11 24  2  0  0  0  0
 11 25  1  0  0  0  0
 12 14  2  0  0  0  0
 12 33  1  0  0  0  0
 13 34  1  0  0  0  0
 13 49  1  0  0  0  0
 13 50  1  0  0  0  0
 14 15  1  0  0  0  0
 14 51  1  0  0  0  0
 15 16  1  0  0  0  0
 15 36  2  0  0  0  0
 17 18  1  0  0  0  0
 17 21  1  0  0  0  0
 17 52  1  6  0  0  0
 18 19  1  0  0  0  0
 18 53  1  0  0  0  0
 18 54  1  0  0  0  0
 19 23  1  0  0  0  0
 19 55  1  6  0  0  0
 20 21  1  0  0  0  0
 20 22  1  0  0  0  0
 20 56  1  6  0  0  0
 21 57  1  0  0  0  0
 21 58  1  0  0  0  0
 22 23  1  0  0  0  0
 22 59  1  0  0  0  0
 22 60  1  0  0  0  0
 23 61  1  0  0  0  0
 23 62  1  0  0  0  0
 24 31  1  0  0  0  0
 25 26  2  0  0  0  0
 25 63  1  0  0  0  0
 26 27  1  0  0  0  0
 26 32  1  0  0  0  0
 27 28  1  0  0  0  0
 28 29  1  0  0  0  0
 28 30  1  0  0  0  0
 28 64  1  0  0  0  0
 29 30  1  0  0  0  0
 29 65  1  0  0  0  0
 29 66  1  0  0  0  0
 30 67  1  0  0  0  0
 30 68  1  0  0  0  0
 31 32  2  0  0  0  0
 31 69  1  0  0  0  0
 32 70  1  0  0  0  0
 33 34  1  0  0  0  0
 33 35  2  0  0  0  0
 35 36  1  0  0  0  0
 35 71  1  0  0  0  0
 36 37  1  0  0  0  0
 37 72  1  0  0  0  0
 37 73  1  0  0  0  0
 37 74  1  0  0  0  0
M  END
$$$$
