@<TRIPOS>MOLECULE
4AWO_99B_A_1225
 74 78 0 0 0
SMALL
USER_CHARGES

@<TRIPOS>ATOM
      1 C         -12.4106  -18.4394  -13.4735 C.3     1  LIG1        0.0176
      2 N         -11.8587  -19.7855  -13.4134 N.pl3   1  LIG1       -0.3407
      3 O          -9.2422  -18.9989  -18.0202 O.2     1  LIG1       -0.2702
      4 C         -13.8078  -18.3396  -14.0994 C.3     1  LIG1       -0.0377
      5 N         -11.0118  -20.0576  -18.9979 N.am    1  LIG1       -0.3084
      6 O          -9.5770  -16.1616  -27.7674 O.2     1  LIG1       -0.2917
      7 C         -14.7917  -19.3806  -13.6053 C.3     1  LIG1       -0.0636
      8 N         -10.6823  -20.1817  -23.0705 N.pl3   1  LIG1       -0.3090
      9 O         -13.0879  -22.2852  -12.8461 O.2     1  LIG1       -0.2704
     10 C         -12.5076  -17.8486  -12.0748 C.3     1  LIG1       -0.0467
     11 N          -9.5747  -18.7021  -24.5250 N.ar    1  LIG1       -0.2396
     12 C         -11.4087  -20.5047  -14.5024 C.ar    1  LIG1        0.0403
     13 N         -11.4291  -23.7895  -12.8930 N.am    1  LIG1       -0.3253
     14 C         -10.9481  -19.8337  -15.6492 C.ar    1  LIG1       -0.0277
     15 C         -10.5356  -20.5749  -16.7602 C.ar    1  LIG1        0.0414
     16 C         -10.1672  -19.8230  -17.9884 C.2     1  LIG1        0.2446
     17 C         -10.8653  -19.5585  -20.3471 C.3     1  LIG1        0.0268
     18 C          -9.5381  -19.2854  -21.0741 C.3     1  LIG1       -0.0157
     19 C          -9.4993  -20.4003  -22.1957 C.3     1  LIG1        0.0269
     20 C         -11.8937  -20.5552  -22.3191 C.3     1  LIG1        0.0269
     21 C         -12.1097  -19.4365  -21.2243 C.3     1  LIG1       -0.0157
     22 C         -11.4630  -21.9556  -21.7147 C.3     1  LIG1       -0.0326
     23 C          -9.8675  -21.8607  -21.6301 C.3     1  LIG1       -0.0326
     24 C         -10.7340  -19.3129  -24.1264 C.ar    1  LIG1        0.1217
     25 C          -9.5781  -17.8635  -25.5817 C.ar    1  LIG1        0.0402
     26 C         -10.7324  -17.5836  -26.2764 C.ar    1  LIG1        0.0359
     27 C         -10.6205  -16.6100  -27.4040 C.2     1  LIG1        0.1677
     28 C         -11.9108  -16.1670  -28.0021 C.3     1  LIG1        0.0222
     29 C         -12.1471  -14.6636  -28.0743 C.3     1  LIG1       -0.0425
     30 C         -12.0062  -15.4624  -29.3497 C.3     1  LIG1       -0.0425
     31 C         -11.9461  -19.0756  -24.7887 C.ar    1  LIG1       -0.0210
     32 C         -11.9383  -18.1979  -25.8620 C.ar    1  LIG1       -0.0466
     33 C         -11.4445  -21.9238  -14.4967 C.ar    1  LIG1        0.0576
     34 C         -12.0794  -22.6454  -13.3306 C.2     1  LIG1        0.2433
     35 C         -11.0522  -22.6578  -15.6054 C.ar    1  LIG1       -0.0442
     36 C         -10.6162  -21.9946  -16.7555 C.ar    1  LIG1       -0.0375
     37 C         -10.2286  -22.8436  -17.9261 C.3     1  LIG1       -0.0390
     38 H         -11.7260  -17.8432  -14.0747 H       1  LIG1        0.0494
     39 H         -11.8067  -20.2671  -12.5207 H       1  LIG1        0.1464
     40 H         -13.7327  -18.4233  -15.1868 H       1  LIG1        0.0280
     41 H         -14.2329  -17.3490  -13.8752 H       1  LIG1        0.0280
     42 H         -11.7728  -20.7097  -18.8085 H       1  LIG1        0.1493
     43 H         -14.4217  -20.3786  -13.8384 H       1  LIG1        0.0230
     44 H         -15.7615  -19.2498  -14.0954 H       1  LIG1        0.0230
     45 H         -14.9355  -19.2957  -12.5254 H       1  LIG1        0.0230
     46 H         -13.2202  -18.4145  -11.4630 H       1  LIG1        0.0247
     47 H         -12.8590  -16.8096  -12.1191 H       1  LIG1        0.0247
     48 H         -11.5385  -17.8655  -11.5711 H       1  LIG1        0.0247
     49 H         -11.8969  -24.3349  -12.1776 H       1  LIG1        0.1453
     50 H         -10.5553  -24.0883  -13.2560 H       1  LIG1        0.1453
     51 H         -10.8929  -18.7474  -15.6769 H       1  LIG1        0.0644
     52 H         -10.7898  -20.5779  -20.5232 H       1  LIG1        0.0499
     53 H          -8.6721  -19.3346  -20.4034 H       1  LIG1        0.0301
     54 H          -9.5460  -18.2855  -21.5292 H       1  LIG1        0.0301
     55 H          -8.4908  -20.4349  -22.6410 H       1  LIG1        0.0501
     56 H         -12.7966  -20.7044  -22.9057 H       1  LIG1        0.0501
     57 H         -12.1622  -18.4314  -21.6613 H       1  LIG1        0.0301
     58 H         -13.0263  -19.5959  -20.6403 H       1  LIG1        0.0301
     59 H         -11.7786  -22.7937  -22.3416 H       1  LIG1        0.0284
     60 H         -11.9243  -22.1022  -20.7177 H       1  LIG1        0.0284
     61 H          -9.5233  -21.9657  -20.5921 H       1  LIG1        0.0284
     62 H          -9.4032  -22.6557  -22.2097 H       1  LIG1        0.0284
     63 H          -8.6227  -17.4123  -25.8685 H       1  LIG1        0.0837
     64 H         -12.6779  -16.8627  -27.7468 H       1  LIG1        0.0381
     65 H         -11.3231  -14.0325  -27.7451 H       1  LIG1        0.0272
     66 H         -13.1021  -14.1991  -27.8164 H       1  LIG1        0.0272
     67 H         -12.8736  -15.5503  -30.0155 H       1  LIG1        0.0272
     68 H         -11.1019  -15.3854  -29.9466 H       1  LIG1        0.0272
     69 H         -12.8877  -19.5338  -24.4713 H       1  LIG1        0.0652
     70 H         -12.8812  -18.0069  -26.3598 H       1  LIG1        0.0626
     71 H         -11.1007  -23.7494  -15.5946 H       1  LIG1        0.0628
     72 H          -9.9041  -22.2275  -18.7505 H       1  LIG1        0.0278
     73 H         -11.0732  -23.4514  -18.2656 H       1  LIG1        0.0278
     74 H          -9.3966  -23.4996  -17.6629 H       1  LIG1        0.0278
@<TRIPOS>BOND
     1     1     2    1
     2     1     4    1
     3     1    10    1
     4     1    38    1
     5     2    12    1
     6     2    39    1
     7     3    16    2
     8     4     7    1
     9     4    40    1
    10     4    41    1
    11     5    16   am
    12     5    17    1
    13     5    42    1
    14     6    27    2
    15     7    43    1
    16     7    44    1
    17     7    45    1
    18     8    19    1
    19     8    20    1
    20     8    24    1
    21     9    34    2
    22    10    46    1
    23    10    47    1
    24    10    48    1
    25    11    24   ar
    26    11    25   ar
    27    12    14   ar
    28    12    33   ar
    29    13    34   am
    30    13    49    1
    31    13    50    1
    32    14    15   ar
    33    14    51    1
    34    15    16    1
    35    15    36   ar
    36    17    18    1
    37    17    21    1
    38    17    52    1
    39    18    19    1
    40    18    53    1
    41    18    54    1
    42    19    23    1
    43    19    55    1
    44    20    21    1
    45    20    22    1
    46    20    56    1
    47    21    57    1
    48    21    58    1
    49    22    23    1
    50    22    59    1
    51    22    60    1
    52    23    61    1
    53    23    62    1
    54    24    31   ar
    55    25    26   ar
    56    25    63    1
    57    26    27    1
    58    26    32   ar
    59    27    28    1
    60    28    29    1
    61    28    30    1
    62    28    64    1
    63    29    30    1
    64    29    65    1
    65    29    66    1
    66    30    67    1
    67    30    68    1
    68    31    32   ar
    69    31    69    1
    70    32    70    1
    71    33    34    1
    72    33    35   ar
    73    35    36   ar
    74    35    71    1
    75    36    37    1
    76    37    72    1
    77    37    73    1
    78    37    74    1
