REMARK  9 active torsions:
REMARK  status: ('A' for Active; 'I' for Inactive)
REMARK    1  A    between atoms: C_1  and  N_2 
REMARK    2  A    between atoms: C_1  and  C_4 
REMARK    3  A    between atoms: N_2  and  C_12 
REMARK       I    between atoms: N_5  and  C_16 
REMARK    4  A    between atoms: N_5  and  C_17 
REMARK    5  A    between atoms: N_8  and  C_24 
REMARK       I    between atoms: N_13  and  C_34 
REMARK    6  A    between atoms: C_15  and  C_16 
REMARK    7  A    between atoms: C_26  and  C_27 
REMARK    8  A    between atoms: C_27  and  C_28 
REMARK    9  A    between atoms: C_33  and  C_34 
ROOT
ATOM      1  O   LIG d   1      -9.242 -18.999 -18.020  0.00  0.00    -0.270 OA
ATOM      2  N   LIG d   1     -11.012 -20.058 -18.998  0.00  0.00    -0.308 N 
ATOM      3  C   LIG d   1     -10.167 -19.823 -17.988  0.00  0.00     0.245 C 
ATOM      4  H   LIG d   1     -11.773 -20.710 -18.808  0.00  0.00     0.149 HD
ENDROOT
BRANCH   2   5
ATOM      5  C   LIG d   1     -10.865 -19.558 -20.347  0.00  0.00     0.077 C 
ATOM      6  C   LIG d   1      -9.538 -19.285 -21.074  0.00  0.00     0.044 C 
ATOM      7  C   LIG d   1      -9.499 -20.400 -22.196  0.00  0.00     0.077 C 
ATOM      8  N   LIG d   1     -10.682 -20.182 -23.070  0.00  0.00    -0.309 N 
ATOM      9  C   LIG d   1      -9.867 -21.861 -21.630  0.00  0.00     0.024 C 
ATOM     10  C   LIG d   1     -11.894 -20.555 -22.319  0.00  0.00     0.077 C 
ATOM     11  C   LIG d   1     -12.110 -19.436 -21.224  0.00  0.00     0.044 C 
ATOM     12  C   LIG d   1     -11.463 -21.956 -21.715  0.00  0.00     0.024 C 
BRANCH   8  13
ATOM     13  C   LIG d   1     -10.734 -19.313 -24.126  0.00  0.00     0.122 A 
ATOM     14  N   LIG d   1      -9.575 -18.702 -24.525  0.00  0.00    -0.240 NA
ATOM     15  C   LIG d   1      -9.578 -17.863 -25.582  0.00  0.00     0.124 A 
ATOM     16  C   LIG d   1     -10.732 -17.584 -26.276  0.00  0.00     0.036 A 
ATOM     17  C   LIG d   1     -11.938 -18.198 -25.862  0.00  0.00     0.016 A 
ATOM     18  C   LIG d   1     -11.946 -19.076 -24.789  0.00  0.00     0.044 A 
BRANCH  16  19
ATOM     19  C   LIG d   1     -10.620 -16.610 -27.404  0.00  0.00     0.168 C 
ATOM     20  O   LIG d   1      -9.577 -16.162 -27.767  0.00  0.00    -0.292 OA
BRANCH  19  21
ATOM     21  C   LIG d   1     -11.911 -16.167 -28.002  0.00  0.00     0.060 A 
ATOM     22  C   LIG d   1     -12.147 -14.664 -28.074  0.00  0.00     0.012 A 
ATOM     23  C   LIG d   1     -12.006 -15.462 -29.350  0.00  0.00     0.012 A 
ENDBRANCH  19  21
ENDBRANCH  16  19
ENDBRANCH   8  13
ENDBRANCH   2   5
BRANCH   3  24
ATOM     24  C   LIG d   1     -10.536 -20.575 -16.760  0.00  0.00     0.041 A 
ATOM     25  C   LIG d   1     -10.948 -19.834 -15.649  0.00  0.00     0.037 A 
ATOM     26  C   LIG d   1     -11.409 -20.505 -14.502  0.00  0.00     0.040 A 
ATOM     27  C   LIG d   1     -11.444 -21.924 -14.497  0.00  0.00     0.058 A 
ATOM     28  C   LIG d   1     -11.052 -22.658 -15.605  0.00  0.00     0.019 A 
ATOM     29  C   LIG d   1     -10.616 -21.995 -16.756  0.00  0.00    -0.037 A 
ATOM     30  C   LIG d   1     -10.229 -22.844 -17.926  0.00  0.00     0.044 C 
BRANCH  26  31
ATOM     31  N   LIG d   1     -11.859 -19.785 -13.413  0.00  0.00    -0.341 N 
ATOM     32  H   LIG d   1     -11.807 -20.267 -12.521  0.00  0.00     0.146 HD
BRANCH  31  33
ATOM     33  C   LIG d   1     -12.411 -18.439 -13.473  0.00  0.00     0.067 C 
ATOM     34  C   LIG d   1     -12.508 -17.849 -12.075  0.00  0.00     0.027 C 
BRANCH  33  35
ATOM     35  C   LIG d   1     -13.808 -18.340 -14.099  0.00  0.00     0.018 C 
ATOM     36  C   LIG d   1     -14.792 -19.381 -13.605  0.00  0.00     0.005 C 
ENDBRANCH  33  35
ENDBRANCH  31  33
ENDBRANCH  26  31
BRANCH  27  37
ATOM     37  C   LIG d   1     -12.079 -22.645 -13.331  0.00  0.00     0.243 C 
ATOM     38  O   LIG d   1     -13.088 -22.285 -12.846  0.00  0.00    -0.270 OA
ATOM     39  N   LIG d   1     -11.429 -23.790 -12.893  0.00  0.00    -0.325 N 
ATOM     40  H   LIG d   1     -11.897 -24.335 -12.178  0.00  0.00     0.145 HD
ATOM     41  H   LIG d   1     -10.555 -24.088 -13.256  0.00  0.00     0.145 HD
ENDBRANCH  27  37
ENDBRANCH   3  24
TORSDOF 9
