REMARK  8 active torsions:
REMARK  status: ('A' for Active; 'I' for Inactive)
REMARK    1  A    between atoms: C_2  and  O_8 
REMARK    2  A    between atoms: C_3  and  C_19 
REMARK    3  A    between atoms: C_4  and  O_9 
REMARK    4  A    between atoms: C_6  and  O_7 
REMARK    5  A    between atoms: O_9  and  C_10 
REMARK    6  A    between atoms: C_13  and  N_16 
REMARK    7  A    between atoms: C_22  and  C_24 
REMARK       I    between atoms: C_24  and  N_26 
REMARK    8  A    between atoms: N_26  and  C_27 
ROOT
ATOM      1  C   LIG d   1       8.059   3.833  11.053  0.00  0.00     0.000 A 
ATOM      2  C   LIG d   1       6.814   4.364  11.421  0.00  0.00     0.000 A 
ATOM      3  C   LIG d   1       5.674   3.592  11.304  0.00  0.00     0.000 A 
ATOM      4  C   LIG d   1       5.784   2.295  10.806  0.00  0.00     0.000 A 
ATOM      5  C   LIG d   1       7.027   1.724  10.457  0.00  0.00     0.000 A 
ATOM      6  C   LIG d   1       8.157   2.519  10.586  0.00  0.00     0.000 A 
ENDROOT
BRANCH   3   7
ATOM      7  C   LIG d   1       4.338   4.128  11.562  0.00  0.00     0.000 A 
ATOM      8  O   LIG d   1       4.122   4.901  12.668  0.00  0.00     0.000 OA
ATOM      9  N   LIG d   1       2.767   5.277  12.708  0.00  0.00     0.000 NA
ATOM     10  C   LIG d   1       2.226   4.747  11.599  0.00  0.00     0.000 A 
ATOM     11  C   LIG d   1       3.181   4.040  10.862  0.00  0.00     0.000 A 
BRANCH  10  12
ATOM     12  C   LIG d   1       0.823   4.886  11.193  0.00  0.00     0.000 C 
ATOM     13  O   LIG d   1       0.452   4.713  10.030  0.00  0.00     0.000 OA
ATOM     14  N   LIG d   1      -0.073   5.121  12.213  0.00  0.00     0.000 N 
ATOM     15  H   LIG d   1       0.307   5.140  13.157  0.00  0.00     0.000 HD
BRANCH  14  16
ATOM     16  C   LIG d   1      -1.513   5.133  12.021  0.00  0.00     0.000 C 
ATOM     17  C   LIG d   1      -2.176   5.712  13.271  0.00  0.00     0.000 C 
ATOM     18  C   LIG d   1      -3.686   5.606  13.177  0.00  0.00     0.000 C 
ATOM     19  N   LIG d   1      -4.069   4.158  12.996  0.00  0.00     1.000 N 
ATOM     20  C   LIG d   1      -3.507   3.630  11.706  0.00  0.00     0.000 C 
ATOM     21  C   LIG d   1      -5.563   3.965  13.008  0.00  0.00     0.000 C 
ATOM     22  H   LIG d   1      -3.676   3.617  13.784  0.00  0.00     0.000 HD
ATOM     23  C   LIG d   1      -2.003   3.709  11.761  0.00  0.00     0.000 C 
ENDBRANCH  14  16
ENDBRANCH  10  12
ENDBRANCH   3   7
BRANCH   2  24
ATOM     24  O   LIG d   1       6.775   5.660  11.862  0.00  0.00     0.000 OA
ATOM     25  H   LIG d   1       5.857   5.916  12.032  0.00  0.00     0.000 HD
ENDBRANCH   2  24
BRANCH   4  26
ATOM     26  O   LIG d   1       4.635   1.547  10.752  0.00  0.00     0.000 OA
BRANCH  26  27
ATOM     27  C   LIG d   1       4.436   0.717   9.690  0.00  0.00     0.000 A 
ATOM     28  C   LIG d   1       3.933  -0.532  10.051  0.00  0.00     0.000 A 
ATOM     29  C   LIG d   1       3.638  -1.445   9.063  0.00  0.00     0.000 A 
ATOM     30  C   LIG d   1       3.881  -1.092   7.745  0.00  0.00     0.000 A 
ATOM     31  C   LIG d   1       4.362   0.164   7.354  0.00  0.00     0.000 A 
ATOM     32  C   LIG d   1       4.638   1.085   8.358  0.00  0.00     0.000 A 
BRANCH  30  33
ATOM     33  N   LIG d   1       3.535  -2.091   6.748  0.00  0.00     0.000 N 
ATOM     34  O   LIG d   1       3.008  -1.669   5.709  0.00  0.00     0.000 OA
ATOM     35  O   LIG d   1       3.741  -3.276   7.017  0.00  0.00     0.000 OA
ENDBRANCH  30  33
ENDBRANCH  26  27
ENDBRANCH   4  26
BRANCH   6  36
ATOM     36  O   LIG d   1       9.383   2.025  10.255  0.00  0.00     0.000 OA
ATOM     37  H   LIG d   1       9.294   1.110   9.946  0.00  0.00     0.000 HD
ENDBRANCH   6  36
TORSDOF 8
