@<TRIPOS>MOLECULE
4B7P_9UN_A_1226
 56 59 0 0 0
SMALL
USER_CHARGES

@<TRIPOS>ATOM
      1 C           8.0588    3.8332   11.0526 C.ar    1  LIG1        0.0000
      2 C           6.8144    4.3642   11.4215 C.ar    1  LIG1        0.0000
      3 C           5.6742    3.5923   11.3039 C.ar    1  LIG1        0.0000
      4 C           5.7843    2.2949   10.8055 C.ar    1  LIG1        0.0000
      5 C           7.0265    1.7242   10.4571 C.ar    1  LIG1        0.0000
      6 C           8.1566    2.5193   10.5862 C.ar    1  LIG1        0.0000
      7 O           9.3827    2.0254   10.2550 O.3     1  LIG1        0.0000
      8 O           6.7753    5.6604   11.8622 O.3     1  LIG1        0.0000
      9 O           4.6349    1.5474   10.7519 O.3     1  LIG1        0.0000
     10 C           4.4357    0.7167    9.6899 C.ar    1  LIG1        0.0000
     11 C           3.9330   -0.5324   10.0506 C.ar    1  LIG1        0.0000
     12 C           3.6376   -1.4448    9.0631 C.ar    1  LIG1        0.0000
     13 C           3.8811   -1.0916    7.7451 C.ar    1  LIG1        0.0000
     14 C           4.3615    0.1641    7.3545 C.ar    1  LIG1        0.0000
     15 C           4.6380    1.0847    8.3579 C.ar    1  LIG1        0.0000
     16 N           3.5353   -2.0911    6.7485 N.pl3   1  LIG1        0.0000
     17 O           3.0084   -1.6685    5.7089 O.2     1  LIG1        0.0000
     18 O           3.7414   -3.2757    7.0170 O.2     1  LIG1        0.0000
     19 C           4.3376    4.1284   11.5616 C.ar    1  LIG1        0.0000
     20 O           4.1221    4.9014   12.6677 O.2     1  LIG1        0.0000
     21 N           2.7671    5.2772   12.7082 N.ar    1  LIG1        0.0000
     22 C           2.2258    4.7468   11.5988 C.ar    1  LIG1        0.0000
     23 C           3.1809    4.0405   10.8616 C.ar    1  LIG1        0.0000
     24 C           0.8230    4.8859   11.1928 C.2     1  LIG1        0.0000
     25 O           0.4520    4.7131   10.0298 O.2     1  LIG1        0.0000
     26 N          -0.0734    5.1212   12.2134 N.am    1  LIG1        0.0000
     27 C          -1.5128    5.1335   12.0215 C.3     1  LIG1        0.0000
     28 C          -2.1765    5.7121   13.2709 C.3     1  LIG1        0.0000
     29 C          -3.6855    5.6057   13.1768 C.3     1  LIG1        0.0000
     30 N          -4.0691    4.1580   12.9956 N.4     1  LIG1        1.0000
     31 C          -3.5074    3.6298   11.7062 C.3     1  LIG1        0.0000
     32 C          -2.0028    3.7088   11.7615 C.3     1  LIG1        0.0000
     33 C          -5.5628    3.9649   13.0085 C.3     1  LIG1        0.0000
     34 H           8.9514    4.4539   11.1255 H       1  LIG1        0.0000
     35 H           7.1036    0.7039   10.1169 H       1  LIG1        0.0000
     36 H           9.2937    1.1098    9.9456 H       1  LIG1        0.0000
     37 H           5.8568    5.9162   12.0320 H       1  LIG1        0.0000
     38 H           3.7918   -0.7856   11.0982 H       1  LIG1        0.0000
     39 H           3.2125   -2.4189    9.3257 H       1  LIG1        0.0000
     40 H           4.5070    0.4183    6.3093 H       1  LIG1        0.0000
     41 H           5.0175    2.0781    8.0950 H       1  LIG1        0.0000
     42 H           3.0346    3.5127    9.9358 H       1  LIG1        0.0000
     43 H           0.3069    5.1400   13.1572 H       1  LIG1        0.0000
     44 H          -1.7586    5.7674   11.1549 H       1  LIG1        0.0000
     45 H          -1.8884    6.7626   13.4006 H       1  LIG1        0.0000
     46 H          -1.8087    5.1786   14.1573 H       1  LIG1        0.0000
     47 H          -4.0616    6.1483   12.3027 H       1  LIG1        0.0000
     48 H          -4.1727    5.9700   14.0860 H       1  LIG1        0.0000
     49 H          -3.6758    3.6172   13.7839 H       1  LIG1        0.0000
     50 H          -3.9147    4.2493   10.8998 H       1  LIG1        0.0000
     51 H          -3.8475    2.5959   11.5907 H       1  LIG1        0.0000
     52 H          -1.6278    3.0585   12.5612 H       1  LIG1        0.0000
     53 H          -1.5999    3.3295   10.8192 H       1  LIG1        0.0000
     54 H          -5.9783    4.5165   12.1605 H       1  LIG1        0.0000
     55 H          -5.9539    4.3436   13.9554 H       1  LIG1        0.0000
     56 H          -5.7689    2.8939   12.9092 H       1  LIG1        0.0000
@<TRIPOS>BOND
     1     1     2   ar
     2     1     6   ar
     3     1    34    1
     4     2     3   ar
     5     2     8    1
     6     3     4   ar
     7     3    19    1
     8     4     5   ar
     9     4     9    1
    10     5     6   ar
    11     5    35    1
    12     6     7    1
    13     7    36    1
    14     8    37    1
    15     9    10    1
    16    10    11   ar
    17    10    15   ar
    18    11    12   ar
    19    11    38    1
    20    12    13   ar
    21    12    39    1
    22    13    14   ar
    23    13    16    1
    24    14    15   ar
    25    14    40    1
    26    15    41    1
    27    16    17    2
    28    16    18    2
    29    19    20   ar
    30    19    23   ar
    31    20    21   ar
    32    21    22   ar
    33    22    23   ar
    34    22    24    1
    35    23    42    1
    36    24    25    2
    37    24    26   am
    38    26    27    1
    39    26    43    1
    40    27    28    1
    41    27    32    1
    42    27    44    1
    43    28    29    1
    44    28    45    1
    45    28    46    1
    46    29    30    1
    47    29    47    1
    48    29    48    1
    49    30    31    1
    50    30    33    1
    51    30    49    1
    52    31    32    1
    53    31    50    1
    54    31    51    1
    55    32    52    1
    56    32    53    1
    57    33    54    1
    58    33    55    1
    59    33    56    1
