@<TRIPOS>MOLECULE
2QFO_A13_A_900
 18 18 0 0 0
SMALL
USER_CHARGES

@<TRIPOS>ATOM
      1 C           3.7316   34.4691   51.0228 C.ar    1  LIG1        0.0438
      2 C           2.3961   34.1769   50.7274 C.ar    1  LIG1       -0.0104
      3 C           2.1721   33.5374   49.5028 C.ar    1  LIG1        0.1488
      4 N           3.1861   33.2224   48.6602 N.ar    1  LIG1       -0.2107
      5 C           4.4074   33.5522   49.0464 C.ar    1  LIG1        0.2132
      6 N           4.7447   34.1565   50.1802 N.ar    1  LIG1       -0.2199
      7 N           5.4217   33.2304   48.1712 N.pl3   1  LIG1       -0.3275
      8 C           4.1684   35.1568   52.3046 C.3     1  LIG1       -0.0222
      9 C           0.7938   33.1336   49.0323 C.3     1  LIG1        0.4344
     10 F           0.6575   31.7772   48.9192 F       1  LIG1       -0.1644
     11 F           0.4717   33.6521   47.8075 F       1  LIG1       -0.1644
     12 F          -0.1852   33.5361   49.8917 F       1  LIG1       -0.1644
     13 H           1.5655   34.4243   51.3969 H       1  LIG1        0.0656
     14 H           6.3550   33.4614   48.4293 H       1  LIG1        0.1452
     15 H           5.1742   32.7782   47.3162 H       1  LIG1        0.1452
     16 H           3.3000   35.3784   52.9296 H       1  LIG1        0.0293
     17 H           4.6898   36.1044   52.0940 H       1  LIG1        0.0293
     18 H           4.8555   34.5209   52.8855 H       1  LIG1        0.0293
@<TRIPOS>BOND
     1     1     2   ar
     2     1     6   ar
     3     1     8    1
     4     2     3   ar
     5     2    13    1
     6     3     4   ar
     7     3     9    1
     8     4     5   ar
     9     5     6   ar
    10     5     7    1
    11     7    14    1
    12     7    15    1
    13     8    16    1
    14     8    17    1
    15     8    18    1
    16     9    10    1
    17     9    11    1
    18     9    12    1
