REMARK  2 active torsions:
REMARK  status: ('A' for Active; 'I' for Inactive)
REMARK    1  A    between atoms: C_3  and  C_9 
REMARK    2  A    between atoms: C_5  and  N_7 
ROOT
ATOM      1  C   LIG d   1       3.732  34.469  51.023  0.00  0.00     0.044 A 
ATOM      2  C   LIG d   1       2.396  34.177  50.727  0.00  0.00     0.055 A 
ATOM      3  C   LIG d   1       2.172  33.537  49.503  0.00  0.00     0.149 A 
ATOM      4  N   LIG d   1       3.186  33.222  48.660  0.00  0.00    -0.211 NA
ATOM      5  C   LIG d   1       4.407  33.552  49.046  0.00  0.00     0.213 A 
ATOM      6  N   LIG d   1       4.745  34.157  50.180  0.00  0.00    -0.220 NA
ATOM      7  C   LIG d   1       4.168  35.157  52.305  0.00  0.00     0.066 C 
ENDROOT
BRANCH   3   8
ATOM      8  C   LIG d   1       0.794  33.134  49.032  0.00  0.00     0.434 C 
ATOM      9  F   LIG d   1       0.657  31.777  48.919  0.00  0.00    -0.164 F 
ATOM     10  F   LIG d   1       0.472  33.652  47.807  0.00  0.00    -0.164 F 
ATOM     11  F   LIG d   1      -0.185  33.536  49.892  0.00  0.00    -0.164 F 
ENDBRANCH   3   8
BRANCH   5  12
ATOM     12  N   LIG d   1       5.422  33.230  48.171  0.00  0.00    -0.328 N 
ATOM     13  H   LIG d   1       6.355  33.461  48.429  0.00  0.00     0.145 HD
ATOM     14  H   LIG d   1       5.174  32.778  47.316  0.00  0.00     0.145 HD
ENDBRANCH   5  12
TORSDOF 2
