@<TRIPOS>MOLECULE
2QF6_A56_A_256
 29 31 0 0 0
SMALL
USER_CHARGES

@<TRIPOS>ATOM
      1 C          18.6136   36.8870    9.0897 C.ar    1  LIG1       -0.0612
      2 C          18.3519   38.1525    8.5599 C.ar    1  LIG1       -0.0540
      3 C          18.2237   38.3374    7.1658 C.ar    1  LIG1       -0.0168
      4 C          18.3403   37.2217    6.3081 C.ar    1  LIG1       -0.0171
      5 C          18.6026   35.9626    6.8583 C.ar    1  LIG1       -0.0540
      6 C          18.7386   35.7936    8.2392 C.ar    1  LIG1       -0.0612
      7 C          17.9593   39.5943    6.6128 C.ar    1  LIG1       -0.0393
      8 C          17.8250   39.7735    5.2223 C.ar    1  LIG1        0.0291
      9 C          17.9345   38.6811    4.3420 C.ar    1  LIG1        0.0339
     10 C          18.1914   37.4196    4.9203 C.ar    1  LIG1       -0.0423
     11 BR         17.4145   41.5388    4.6404 Br      1  LIG1       -0.0495
     12 C          17.7674   38.7823    2.8802 C.ar    1  LIG1        0.1678
     13 N          18.4856   39.6889    2.2155 N.ar    1  LIG1       -0.1948
     14 C          18.3056   39.6849    0.9030 C.ar    1  LIG1        0.2174
     15 N          17.4883   38.8731    0.2508 N.ar    1  LIG1       -0.1815
     16 C          16.8517   37.9884    0.9954 C.ar    1  LIG1        0.2174
     17 N          16.9471   37.8990    2.3104 N.ar    1  LIG1       -0.1948
     18 N          16.0640   37.0668    0.3549 N.pl3   1  LIG1       -0.3273
     19 N          19.0442   40.5640    0.1594 N.pl3   1  LIG1       -0.3273
     20 H          18.7168   36.7590   10.1643 H       1  LIG1        0.0618
     21 H          18.2574   38.9954    9.2369 H       1  LIG1        0.0624
     22 H          18.7038   35.0894    6.2151 H       1  LIG1        0.0624
     23 H          18.9447   34.8066    8.6516 H       1  LIG1        0.0618
     24 H          17.8606   40.4602    7.2736 H       1  LIG1        0.0635
     25 H          18.2804   36.5523    4.2575 H       1  LIG1        0.0631
     26 H          15.4512   36.5152    0.9370 H       1  LIG1        0.1452
     27 H          15.8572   37.2474   -0.6140 H       1  LIG1        0.1452
     28 H          18.7899   40.6630   -0.8109 H       1  LIG1        0.1452
     29 H          19.5459   41.2803    0.6563 H       1  LIG1        0.1452
@<TRIPOS>BOND
     1     1     2   ar
     2     1     6   ar
     3     1    20    1
     4     2     3   ar
     5     2    21    1
     6     3     4   ar
     7     3     7   ar
     8     4     5   ar
     9     4    10   ar
    10     5     6   ar
    11     5    22    1
    12     6    23    1
    13     7     8   ar
    14     7    24    1
    15     8     9   ar
    16     8    11    1
    17     9    10   ar
    18     9    12    1
    19    10    25    1
    20    12    13   ar
    21    12    17   ar
    22    13    14   ar
    23    14    15   ar
    24    14    19    1
    25    15    16   ar
    26    16    17   ar
    27    16    18    1
    28    18    26    1
    29    18    27    1
    30    19    28    1
    31    19    29    1
