2QF6_A56_A_256
 OpenBabel03301717023D

 29 31  0  0  0  0  0  0  0  0999 V2000
   18.6136   36.8870    9.0897 C   0  0  0  0  0  0  0  0  0  0  0  0
   18.3519   38.1525    8.5599 C   0  0  0  0  0  0  0  0  0  0  0  0
   18.2237   38.3374    7.1658 C   0  0  0  0  0  0  0  0  0  0  0  0
   18.3403   37.2217    6.3081 C   0  0  0  0  0  0  0  0  0  0  0  0
   18.6026   35.9626    6.8583 C   0  0  0  0  0  0  0  0  0  0  0  0
   18.7386   35.7936    8.2392 C   0  0  0  0  0  0  0  0  0  0  0  0
   17.9593   39.5943    6.6128 C   0  0  0  0  0  0  0  0  0  0  0  0
   17.8250   39.7735    5.2223 C   0  0  0  0  0  0  0  0  0  0  0  0
   17.9345   38.6811    4.3420 C   0  0  0  0  0  0  0  0  0  0  0  0
   18.1914   37.4196    4.9203 C   0  0  0  0  0  0  0  0  0  0  0  0
   17.4145   41.5388    4.6404 Br  0  0  0  0  0  0  0  0  0  0  0  0
   17.7674   38.7823    2.8802 C   0  0  0  0  0  0  0  0  0  0  0  0
   18.4856   39.6889    2.2155 N   0  0  0  0  0  0  0  0  0  0  0  0
   18.3056   39.6849    0.9030 C   0  0  0  0  0  0  0  0  0  0  0  0
   17.4883   38.8731    0.2508 N   0  0  0  0  0  0  0  0  0  0  0  0
   16.8517   37.9884    0.9954 C   0  0  0  0  0  0  0  0  0  0  0  0
   16.9471   37.8990    2.3104 N   0  0  0  0  0  0  0  0  0  0  0  0
   16.0640   37.0668    0.3549 N   0  0  0  0  0  0  0  0  0  0  0  0
   19.0442   40.5640    0.1594 N   0  0  0  0  0  0  0  0  0  0  0  0
   18.7168   36.7590   10.1643 H   0  0  0  0  0  0  0  0  0  0  0  0
   18.2574   38.9954    9.2369 H   0  0  0  0  0  0  0  0  0  0  0  0
   18.7038   35.0894    6.2151 H   0  0  0  0  0  0  0  0  0  0  0  0
   18.9447   34.8066    8.6516 H   0  0  0  0  0  0  0  0  0  0  0  0
   17.8606   40.4602    7.2736 H   0  0  0  0  0  0  0  0  0  0  0  0
   18.2804   36.5523    4.2575 H   0  0  0  0  0  0  0  0  0  0  0  0
   15.4512   36.5152    0.9370 H   0  0  0  0  0  0  0  0  0  0  0  0
   15.8572   37.2474   -0.6140 H   0  0  0  0  0  0  0  0  0  0  0  0
   18.7899   40.6630   -0.8109 H   0  0  0  0  0  0  0  0  0  0  0  0
   19.5459   41.2803    0.6563 H   0  0  0  0  0  0  0  0  0  0  0  0
  1  2  2  0  0  0  0
  1  6  1  0  0  0  0
  1 20  1  0  0  0  0
  2  3  1  0  0  0  0
  2 21  1  0  0  0  0
  3  4  2  0  0  0  0
  3  7  1  0  0  0  0
  4  5  1  0  0  0  0
  4 10  1  0  0  0  0
  5  6  2  0  0  0  0
  5 22  1  0  0  0  0
  6 23  1  0  0  0  0
  7  8  2  0  0  0  0
  7 24  1  0  0  0  0
  8  9  1  0  0  0  0
  8 11  1  0  0  0  0
  9 10  2  0  0  0  0
  9 12  1  0  0  0  0
 10 25  1  0  0  0  0
 12 13  2  0  0  0  0
 12 17  1  0  0  0  0
 13 14  1  0  0  0  0
 14 15  2  0  0  0  0
 14 19  1  0  0  0  0
 15 16  1  0  0  0  0
 16 17  2  0  0  0  0
 16 18  1  0  0  0  0
 18 26  1  0  0  0  0
 18 27  1  0  0  0  0
 19 28  1  0  0  0  0
 19 29  1  0  0  0  0
M  END
$$$$
