@<TRIPOS>MOLECULE
2QG2_A91_A_300
 39 41 0 0 0
SMALL
USER_CHARGES

@<TRIPOS>ATOM
      1 C           4.7385   29.4898   23.3156 C.ar    1  LIG1        0.1155
      2 C           4.6573   30.4852   24.2084 C.ar    1  LIG1        0.0665
      3 N           5.8384   31.1847   24.0653 N.ar    1  LIG1       -0.2032
      4 C           6.6702   30.5677   23.1384 C.ar    1  LIG1        0.4372
      5 O           5.9540   29.5404   22.5597 O.2     1  LIG1       -0.4148
      6 O           7.8275   30.9119   22.8856 O.2     1  LIG1       -0.2210
      7 N           6.3630   32.3443   24.6737 N.pl3   1  LIG1       -0.2752
      8 C           5.3508   33.2270   25.1388 C.3     1  LIG1        0.0515
      9 C           5.7997   34.5461   25.7264 C.ar    1  LIG1       -0.0135
     10 C           4.8335   35.5920   25.8559 C.ar    1  LIG1        0.0300
     11 C           5.2182   36.8205   26.4253 C.ar    1  LIG1       -0.0460
     12 C           6.5355   37.0063   26.8712 C.ar    1  LIG1       -0.0606
     13 C           7.4825   35.9681   26.7539 C.ar    1  LIG1       -0.0614
     14 C           7.1179   34.7407   26.1879 C.ar    1  LIG1       -0.0559
     15 C           3.4787   35.4321   25.4152 C.1     1  LIG1       -0.0592
     16 C           2.3152   35.3034   25.0286 C.1     1  LIG1       -0.0410
     17 C           1.0263   35.2386   24.4492 C.ar    1  LIG1        0.1190
     18 C           0.8478   35.7851   23.1983 C.ar    1  LIG1       -0.0066
     19 C          -0.4205   35.7102   22.6871 C.ar    1  LIG1        0.0445
     20 N          -1.4479   35.1377   23.3548 N.ar    1  LIG1       -0.2199
     21 C          -1.1754   34.6341   24.5671 C.ar    1  LIG1        0.2139
     22 N           0.0272   34.6523   25.1577 N.ar    1  LIG1       -0.2062
     23 C          -0.6988   36.2823   21.3326 C.3     1  LIG1       -0.0222
     24 N          -2.2127   34.0521   25.2564 N.pl3   1  LIG1       -0.3274
     25 H           4.0796   28.6559   23.0503 H       1  LIG1        0.1047
     26 H           3.8569   30.7144   24.9145 H       1  LIG1        0.0861
     27 H           6.8737   32.8636   23.9356 H       1  LIG1        0.1669
     28 H           4.8352   32.6637   25.9133 H       1  LIG1        0.0527
     29 H           4.7271   33.4431   24.2677 H       1  LIG1        0.0527
     30 H           4.4853   37.6290   26.5206 H       1  LIG1        0.0630
     31 H           6.8276   37.9631   27.3134 H       1  LIG1        0.0618
     32 H           8.5058   36.1201   27.1062 H       1  LIG1        0.0618
     33 H           7.8600   33.9326   26.0990 H       1  LIG1        0.0621
     34 H           1.6790   36.2445   22.6689 H       1  LIG1        0.0663
     35 H           0.2165   36.7130   20.9050 H       1  LIG1        0.0293
     36 H          -1.4532   37.0730   21.4034 H       1  LIG1        0.0293
     37 H          -1.0612   35.4990   20.6584 H       1  LIG1        0.0293
     38 H          -2.0220   33.6743   26.1641 H       1  LIG1        0.1452
     39 H          -3.1209   34.0286   24.8328 H       1  LIG1        0.1452
@<TRIPOS>BOND
     1     1     2   ar
     2     1     5   ar
     3     1    25    1
     4     2     3   ar
     5     2    26    1
     6     3     4   ar
     7     3     7    1
     8     4     5   ar
     9     4     6    2
    10     7     8    1
    11     7    27    1
    12     8     9    1
    13     8    28    1
    14     8    29    1
    15     9    10   ar
    16     9    14   ar
    17    10    11   ar
    18    10    15    1
    19    11    12   ar
    20    11    30    1
    21    12    13   ar
    22    12    31    1
    23    13    14   ar
    24    13    32    1
    25    14    33    1
    26    15    16    3
    27    16    17    1
    28    17    18   ar
    29    17    22   ar
    30    18    19   ar
    31    18    34    1
    32    19    20   ar
    33    19    23    1
    34    20    21   ar
    35    21    22   ar
    36    21    24    1
    37    23    35    1
    38    23    36    1
    39    23    37    1
    40    24    38    1
    41    24    39    1
