2QG0_A94_A_2001
 OpenBabel03301717033D

 46 48  0  0  0  0  0  0  0  0999 V2000
   18.8186   26.6488   15.4973 C   0  0  0  0  0  0  0  0  0  0  0  0
   17.5801   26.9702   15.9183 N   0  0  0  0  0  0  0  0  0  0  0  0
   17.2492   26.6035   17.1549 C   0  0  0  0  0  0  0  0  0  0  0  0
   18.0489   25.9335   17.9905 N   0  0  0  0  0  0  0  0  0  0  0  0
   19.2817   25.6092   17.5417 C   0  0  0  0  0  0  0  0  0  0  0  0
   19.7239   25.9827   16.2918 C   0  0  0  0  0  0  0  0  0  0  0  0
   19.1796   27.0344   14.0996 C   0  0  0  0  0  0  0  0  0  0  0  0
   16.0105   26.9494   17.6074 N   0  0  0  0  0  0  0  0  0  0  0  0
   20.1835   24.8660   18.4978 C   0  0  0  0  0  0  0  0  0  0  0  0
   21.1594   23.9454   17.8735 N   0  0  0  0  0  0  0  0  0  0  0  0
   20.7001   22.3443   17.5994 S   0  0  0  0  0  0  0  0  0  0  0  0
   19.9654   21.9030   18.7616 O   0  0  0  0  0  0  0  0  0  0  0  0
   21.9072   21.6634   17.1759 O   0  0  0  0  0  0  0  0  0  0  0  0
   20.5208   25.7065    8.7986 C   0  0  0  0  0  0  0  0  0  0  0  0
   20.7759   24.7796    9.9717 C   0  0  0  0  0  0  0  0  0  0  0  0
   19.4180   24.4681   10.4446 C   0  0  0  0  0  0  0  0  0  0  0  0
   18.4425   25.0111    9.4751 C   0  0  0  0  0  0  0  0  0  0  0  0
   19.1259   25.6975    8.5206 O   0  0  0  0  0  0  0  0  0  0  0  0
   17.2401   24.8657    9.5086 O   0  0  0  0  0  0  0  0  0  0  0  0
   19.0100   23.8548   11.5634 C   0  0  0  0  0  0  0  0  0  0  0  0
   19.7546   23.3192   12.5918 N   0  0  0  0  0  0  0  0  0  0  0  0
   19.2686   22.8155   13.8189 C   0  0  0  0  0  0  0  0  0  0  0  0
   17.9216   22.4693   14.0070 C   0  0  0  0  0  0  0  0  0  0  0  0
   17.4317   22.0618   15.2507 C   0  0  0  0  0  0  0  0  0  0  0  0
   18.2786   22.0201   16.3522 C   0  0  0  0  0  0  0  0  0  0  0  0
   19.6150   22.3950   16.1974 C   0  0  0  0  0  0  0  0  0  0  0  0
   20.1172   22.7667   14.9389 C   0  0  0  0  0  0  0  0  0  0  0  0
   20.7179   25.7400   15.9376 H   0  0  0  0  0  0  0  0  0  0  0  0
   20.2015   26.7273   13.8556 H   0  0  0  0  0  0  0  0  0  0  0  0
   19.1048   28.1189   13.9894 H   0  0  0  0  0  0  0  0  0  0  0  0
   18.4969   26.5464   13.3987 H   0  0  0  0  0  0  0  0  0  0  0  0
   15.7397   26.6293   18.5190 H   0  0  0  0  0  0  0  0  0  0  0  0
   15.3836   27.3882   16.9566 H   0  0  0  0  0  0  0  0  0  0  0  0
   19.5856   24.3511   19.2550 H   0  0  0  0  0  0  0  0  0  0  0  0
   20.7636   25.6256   19.0422 H   0  0  0  0  0  0  0  0  0  0  0  0
   22.0617   23.9338   18.3513 H   0  0  0  0  0  0  0  0  0  0  0  0
   21.0538   25.3713    7.9029 H   0  0  0  0  0  0  0  0  0  0  0  0
   20.8335   26.7350    9.0115 H   0  0  0  0  0  0  0  0  0  0  0  0
   21.2825   23.8728    9.6366 H   0  0  0  0  0  0  0  0  0  0  0  0
   21.3807   25.2755   10.7340 H   0  0  0  0  0  0  0  0  0  0  0  0
   17.9349   23.7801   11.7209 H   0  0  0  0  0  0  0  0  0  0  0  0
   20.7587   23.2648   12.4593 H   0  0  0  0  0  0  0  0  0  0  0  0
   17.2201   22.4891   13.1777 H   0  0  0  0  0  0  0  0  0  0  0  0
   16.3838   21.7858   15.3491 H   0  0  0  0  0  0  0  0  0  0  0  0
   17.8875   21.6964   17.3143 H   0  0  0  0  0  0  0  0  0  0  0  0
   21.1653   23.0419   14.8497 H   0  0  0  0  0  0  0  0  0  0  0  0
  1  2  2  0  0  0  0
  1  6  1  0  0  0  0
  1  7  1  0  0  0  0
  2  3  1  0  0  0  0
  3  4  2  0  0  0  0
  3  8  1  0  0  0  0
  4  5  1  0  0  0  0
  5  6  2  0  0  0  0
  5  9  1  0  0  0  0
  6 28  1  0  0  0  0
  7 29  1  0  0  0  0
  7 30  1  0  0  0  0
  7 31  1  0  0  0  0
  8 32  1  0  0  0  0
  8 33  1  0  0  0  0
  9 10  1  0  0  0  0
  9 34  1  0  0  0  0
  9 35  1  0  0  0  0
 10 11  1  0  0  0  0
 10 36  1  0  0  0  0
 11 12  2  0  0  0  0
 11 13  2  0  0  0  0
 11 26  1  0  0  0  0
 14 15  1  0  0  0  0
 14 18  1  0  0  0  0
 14 37  1  0  0  0  0
 14 38  1  0  0  0  0
 15 16  1  0  0  0  0
 15 39  1  0  0  0  0
 15 40  1  0  0  0  0
 16 17  1  0  0  0  0
 16 20  2  0  0  0  0
 17 18  1  0  0  0  0
 17 19  2  0  0  0  0
 20 21  1  0  0  0  0
 20 41  1  0  0  0  0
 21 22  1  0  0  0  0
 21 42  1  0  0  0  0
 22 23  2  0  0  0  0
 22 27  1  0  0  0  0
 23 24  1  0  0  0  0
 23 43  1  0  0  0  0
 24 25  2  0  0  0  0
 24 44  1  0  0  0  0
 25 26  1  0  0  0  0
 25 45  1  0  0  0  0
 26 27  2  0  0  0  0
 27 46  1  0  0  0  0
M  END
$$$$
