@<TRIPOS>MOLECULE
2QG0_A94_A_2001
 46 48 0 0 0
SMALL
USER_CHARGES

@<TRIPOS>ATOM
      1 C          18.8186   26.6488   15.4973 C.ar    1  LIG1        0.0436
      2 N          17.5801   26.9702   15.9183 N.ar    1  LIG1       -0.2199
      3 C          17.2492   26.6035   17.1549 C.ar    1  LIG1        0.2130
      4 N          18.0489   25.9335   17.9905 N.ar    1  LIG1       -0.2183
      5 C          19.2817   25.6092   17.5417 C.ar    1  LIG1        0.0620
      6 C          19.7239   25.9827   16.2918 C.ar    1  LIG1       -0.0179
      7 C          19.1796   27.0344   14.0996 C.3     1  LIG1       -0.0222
      8 N          16.0105   26.9494   17.6074 N.pl3   1  LIG1       -0.3275
      9 C          20.1835   24.8660   18.4978 C.3     1  LIG1        0.0598
     10 N          21.1594   23.9454   17.8735 N.3     1  LIG1       -0.1841
     11 S          20.7001   22.3443   17.5994 S.O2    1  LIG1        0.0588
     12 O          19.9654   21.9030   18.7616 O.2     1  LIG1       -0.1530
     13 O          21.9072   21.6634   17.1759 O.2     1  LIG1       -0.1530
     14 C          20.5208   25.7065    8.7986 C.3     1  LIG1        0.0970
     15 C          20.7759   24.7796    9.9717 C.3     1  LIG1        0.0147
     16 C          19.4180   24.4681   10.4446 C.2     1  LIG1        0.0535
     17 C          18.4425   25.0111    9.4751 C.2     1  LIG1        0.3365
     18 O          19.1259   25.6975    8.5206 O.3     1  LIG1       -0.4610
     19 O          17.2401   24.8657    9.5086 O.2     1  LIG1       -0.2453
     20 C          19.0100   23.8548   11.5634 C.2     1  LIG1        0.0038
     21 N          19.7546   23.3192   12.5918 N.pl3   1  LIG1       -0.3200
     22 C          19.2686   22.8155   13.8189 C.ar    1  LIG1        0.0328
     23 C          17.9216   22.4693   14.0070 C.ar    1  LIG1       -0.0404
     24 C          17.4317   22.0618   15.2507 C.ar    1  LIG1       -0.0582
     25 C          18.2786   22.0201   16.3522 C.ar    1  LIG1       -0.0352
     26 C          19.6150   22.3950   16.1974 C.ar    1  LIG1        0.1070
     27 C          20.1172   22.7667   14.9389 C.ar    1  LIG1       -0.0142
     28 H          20.7179   25.7400   15.9376 H       1  LIG1        0.0654
     29 H          20.2015   26.7273   13.8556 H       1  LIG1        0.0293
     30 H          19.1048   28.1189   13.9894 H       1  LIG1        0.0293
     31 H          18.4969   26.5464   13.3987 H       1  LIG1        0.0293
     32 H          15.7397   26.6293   18.5190 H       1  LIG1        0.1452
     33 H          15.3836   27.3882   16.9566 H       1  LIG1        0.1452
     34 H          19.5856   24.3511   19.2550 H       1  LIG1        0.0506
     35 H          20.7636   25.6256   19.0422 H       1  LIG1        0.0506
     36 H          22.0617   23.9338   18.3513 H       1  LIG1        0.1484
     37 H          21.0538   25.3713    7.9029 H       1  LIG1        0.0701
     38 H          20.8335   26.7350    9.0115 H       1  LIG1        0.0701
     39 H          21.2825   23.8728    9.6366 H       1  LIG1        0.0349
     40 H          21.3807   25.2755   10.7340 H       1  LIG1        0.0349
     41 H          17.9349   23.7801   11.7209 H       1  LIG1        0.0786
     42 H          20.7587   23.2648   12.4593 H       1  LIG1        0.1516
     43 H          17.2201   22.4891   13.1777 H       1  LIG1        0.0636
     44 H          16.3838   21.7858   15.3491 H       1  LIG1        0.0619
     45 H          17.8875   21.6964   17.3143 H       1  LIG1        0.0637
     46 H          21.1653   23.0419   14.8497 H       1  LIG1        0.0656
@<TRIPOS>BOND
     1     1     2   ar
     2     1     6   ar
     3     1     7    1
     4     2     3   ar
     5     3     4   ar
     6     3     8    1
     7     4     5   ar
     8     5     6   ar
     9     5     9    1
    10     6    28    1
    11     7    29    1
    12     7    30    1
    13     7    31    1
    14     8    32    1
    15     8    33    1
    16     9    10    1
    17     9    34    1
    18     9    35    1
    19    10    11    1
    20    10    36    1
    21    11    12    2
    22    11    13    2
    23    11    26    1
    24    14    15    1
    25    14    18    1
    26    14    37    1
    27    14    38    1
    28    15    16    1
    29    15    39    1
    30    15    40    1
    31    16    17    1
    32    16    20    2
    33    17    18    1
    34    17    19    2
    35    20    21    1
    36    20    41    1
    37    21    22    1
    38    21    42    1
    39    22    23   ar
    40    22    27   ar
    41    23    24   ar
    42    23    43    1
    43    24    25   ar
    44    24    44    1
    45    25    26   ar
    46    25    45    1
    47    26    27   ar
    48    27    46    1
