REMARK  7 active torsions:
REMARK  status: ('A' for Active; 'I' for Inactive)
REMARK    1  A    between atoms: C_3  and  N_8 
REMARK    2  A    between atoms: C_5  and  C_9 
REMARK    3  A    between atoms: C_9  and  N_10 
REMARK    4  A    between atoms: N_10  and  S_11 
REMARK    5  A    between atoms: S_11  and  C_26 
REMARK    6  A    between atoms: C_20  and  N_21 
REMARK    7  A    between atoms: N_21  and  C_22 
ROOT
ATOM      1  S   LIG d   1      20.700  22.344  17.599  0.00  0.00     0.059 S 
ATOM      2  O   LIG d   1      19.965  21.903  18.762  0.00  0.00    -0.153 OA
ATOM      3  O   LIG d   1      21.907  21.663  17.176  0.00  0.00    -0.153 OA
ENDROOT
BRANCH   1   4
ATOM      4  N   LIG d   1      21.159  23.945  17.873  0.00  0.00    -0.184 NA
ATOM      5  H   LIG d   1      22.062  23.934  18.351  0.00  0.00     0.148 HD
BRANCH   4   6
ATOM      6  C   LIG d   1      20.183  24.866  18.498  0.00  0.00     0.161 C 
BRANCH   6   7
ATOM      7  C   LIG d   1      19.282  25.609  17.542  0.00  0.00     0.062 A 
ATOM      8  N   LIG d   1      18.049  25.933  17.991  0.00  0.00    -0.218 NA
ATOM      9  C   LIG d   1      17.249  26.604  17.155  0.00  0.00     0.213 A 
ATOM     10  N   LIG d   1      17.580  26.970  15.918  0.00  0.00    -0.220 NA
ATOM     11  C   LIG d   1      18.819  26.649  15.497  0.00  0.00     0.044 A 
ATOM     12  C   LIG d   1      19.724  25.983  16.292  0.00  0.00     0.048 A 
ATOM     13  C   LIG d   1      19.180  27.034  14.100  0.00  0.00     0.066 C 
BRANCH   9  14
ATOM     14  N   LIG d   1      16.011  26.949  17.607  0.00  0.00    -0.328 N 
ATOM     15  H   LIG d   1      15.740  26.629  18.519  0.00  0.00     0.145 HD
ATOM     16  H   LIG d   1      15.384  27.388  16.957  0.00  0.00     0.145 HD
ENDBRANCH   9  14
ENDBRANCH   6   7
ENDBRANCH   4   6
ENDBRANCH   1   4
BRANCH   1  17
ATOM     17  C   LIG d   1      19.615  22.395  16.197  0.00  0.00     0.107 A 
ATOM     18  C   LIG d   1      18.279  22.020  16.352  0.00  0.00     0.029 A 
ATOM     19  C   LIG d   1      17.432  22.062  15.251  0.00  0.00     0.004 A 
ATOM     20  C   LIG d   1      17.922  22.469  14.007  0.00  0.00     0.023 A 
ATOM     21  C   LIG d   1      19.269  22.816  13.819  0.00  0.00     0.033 A 
ATOM     22  C   LIG d   1      20.117  22.767  14.939  0.00  0.00     0.051 A 
BRANCH  21  23
ATOM     23  N   LIG d   1      19.755  23.319  12.592  0.00  0.00    -0.320 N 
ATOM     24  H   LIG d   1      20.759  23.265  12.459  0.00  0.00     0.152 HD
BRANCH  23  25
ATOM     25  C   LIG d   1      19.010  23.855  11.563  0.00  0.00     0.082 C 
ATOM     26  C   LIG d   1      19.418  24.468  10.445  0.00  0.00     0.053 C 
ATOM     27  C   LIG d   1      20.776  24.780   9.972  0.00  0.00     0.084 C 
ATOM     28  C   LIG d   1      18.442  25.011   9.475  0.00  0.00     0.337 C 
ATOM     29  C   LIG d   1      20.521  25.706   8.799  0.00  0.00     0.237 C 
ATOM     30  O   LIG d   1      19.126  25.698   8.521  0.00  0.00    -0.461 OA
ATOM     31  O   LIG d   1      17.240  24.866   9.509  0.00  0.00    -0.245 OA
ENDBRANCH  23  25
ENDBRANCH  21  23
ENDBRANCH   1  17
TORSDOF 7
