@<TRIPOS>MOLECULE
2BZ5_AB4_A_1226
 45 48 0 0 0
SMALL
USER_CHARGES

@<TRIPOS>ATOM
      1 CL         30.7445    5.1222   47.6776 Cl      1  LIG1       -0.0815
      2 C          32.0289    6.0430   48.3722 C.ar    1  LIG1        0.0676
      3 C          32.8360    6.7602   47.4766 C.ar    1  LIG1       -0.0401
      4 C          33.9132    7.5207   47.9427 C.ar    1  LIG1       -0.0419
      5 C          34.1840    7.5625   49.3061 C.ar    1  LIG1        0.0429
      6 CL         35.5281    8.4764   49.8722 Cl      1  LIG1       -0.0835
      7 C          33.3823    6.8715   50.2090 C.ar    1  LIG1       -0.0153
      8 C          32.2923    6.1093   49.7431 C.ar    1  LIG1        0.1281
      9 S          31.3849    5.1408   50.9279 S.O2    1  LIG1        0.0738
     10 O          31.8266    5.5357   52.2455 O.2     1  LIG1       -0.1499
     11 O          31.4895    3.7591   50.5044 O.2     1  LIG1       -0.1499
     12 N          29.7782    5.5744   50.7699 N.pl3   1  LIG1       -0.2162
     13 H          29.1440    4.8840   50.3706 H       1  LIG1        0.1737
     14 C          29.2827    6.8224   51.2026 C.ar    1  LIG1        0.0488
     15 C          29.2076    7.8598   50.2842 C.ar    1  LIG1       -0.0280
     16 C          28.7969    6.9944   52.4984 C.ar    1  LIG1       -0.0358
     17 C          28.2898    8.2349   52.8874 C.ar    1  LIG1       -0.0178
     18 C          28.2706    9.2928   51.9787 C.ar    1  LIG1        0.1248
     19 O          27.8014   10.4906   52.4524 O.3     1  LIG1       -0.5062
     20 C          28.7224    9.1237   50.6601 C.ar    1  LIG1        0.0294
     21 C          28.7383   10.2102   49.6590 C.ar    1  LIG1        0.0348
     22 C          29.9702   10.7386   49.1642 C.ar    1  LIG1       -0.0066
     23 C          31.2441   10.2908   49.5936 C.ar    1  LIG1       -0.0533
     24 C          32.4256   10.8419   49.1012 C.ar    1  LIG1       -0.0611
     25 C          32.3738   11.8534   48.1575 C.ar    1  LIG1       -0.0612
     26 C          31.1375   12.3224   47.7157 C.ar    1  LIG1       -0.0540
     27 C          29.9362   11.7787   48.2032 C.ar    1  LIG1       -0.0171
     28 C          28.7016   12.2647   47.7456 C.ar    1  LIG1       -0.0505
     29 C          27.5000   11.7455   48.2211 C.ar    1  LIG1       -0.0190
     30 C          27.5244   10.7323   49.1692 C.ar    1  LIG1        0.1252
     31 O          26.3441   10.2406   49.6586 O.3     1  LIG1       -0.5061
     32 H          32.6455    6.7250   46.4052 H       1  LIG1        0.0633
     33 H          34.5333    8.0642   47.2369 H       1  LIG1        0.0633
     34 H          33.6220    6.9016   51.2699 H       1  LIG1        0.0652
     35 H          29.5420    7.7002   49.2632 H       1  LIG1        0.0644
     36 H          28.8064    6.1742   53.2105 H       1  LIG1        0.0638
     37 H          27.9078    8.3854   53.8941 H       1  LIG1        0.0655
     38 H          27.7422   11.1082   51.7034 H       1  LIG1        0.2922
     39 H          31.3369    9.5018   50.3362 H       1  LIG1        0.0624
     40 H          33.3823   10.4860   49.4688 H       1  LIG1        0.0618
     41 H          33.2949   12.2831   47.7732 H       1  LIG1        0.0618
     42 H          31.1210   13.1296   46.9870 H       1  LIG1        0.0624
     43 H          28.6684   13.0637   47.0072 H       1  LIG1        0.0625
     44 H          26.5627   12.1440   47.8462 H       1  LIG1        0.0654
     45 H          25.5961   10.6791   49.2212 H       1  LIG1        0.2922
@<TRIPOS>BOND
     1     1     2    1
     2     2     3   ar
     3     2     8   ar
     4     3     4   ar
     5     3    32    1
     6     4     5   ar
     7     4    33    1
     8     5     6    1
     9     5     7   ar
    10     7     8   ar
    11     7    34    1
    12     8     9    1
    13     9    10    2
    14     9    11    2
    15     9    12    1
    16    12    13    1
    17    12    14    1
    18    14    15   ar
    19    14    16   ar
    20    15    20   ar
    21    15    35    1
    22    16    17   ar
    23    16    36    1
    24    17    18   ar
    25    17    37    1
    26    18    19    1
    27    18    20   ar
    28    19    38    1
    29    20    21    1
    30    21    22   ar
    31    21    30   ar
    32    22    23   ar
    33    22    27   ar
    34    23    24   ar
    35    23    39    1
    36    24    25   ar
    37    24    40    1
    38    25    26   ar
    39    25    41    1
    40    26    27   ar
    41    26    42    1
    42    27    28   ar
    43    28    29   ar
    44    28    43    1
    45    29    30   ar
    46    29    44    1
    47    30    31    1
    48    31    45    1
