REMARK  11 active torsions:
REMARK  status: ('A' for Active; 'I' for Inactive)
REMARK    1  A    between atoms: P_1  and  C_8 
REMARK    2  A    between atoms: P_5  and  C_8 
REMARK    3  A    between atoms: P_5  and  O_12 
REMARK    4  A    between atoms: P_9  and  O_12 
REMARK    5  A    between atoms: P_9  and  O_13 
REMARK    6  A    between atoms: O_13  and  C_14 
REMARK    7  A    between atoms: C_14  and  C_15 
REMARK    8  A    between atoms: C_17  and  O_18 
REMARK    9  A    between atoms: C_19  and  O_20 
REMARK   10  A    between atoms: C_21  and  N_22 
REMARK   11  A    between atoms: C_26  and  N_27 
ROOT
ATOM      1  C   LIG d   1      12.319  -4.076  16.246  0.00  0.00     0.000 C 
ATOM      2  O   LIG d   1      11.723  -4.022  14.909  0.00  0.00     0.000 OA
ATOM      3  C   LIG d   1      12.482  -2.616  16.699  0.00  0.00     0.000 C 
ATOM      4  C   LIG d   1      12.748  -1.914  15.381  0.00  0.00     0.000 C 
ATOM      5  C   LIG d   1      11.861  -2.674  14.411  0.00  0.00     0.000 C 
ENDROOT
BRANCH   1   6
ATOM      6  C   LIG d   1      11.506  -4.989  17.144  0.00  0.00     0.000 C 
BRANCH   6   7
ATOM      7  O   LIG d   1      10.290  -4.374  17.468  0.00  0.00     0.000 OA
BRANCH   7   8
ATOM      8  P   LIG d   1       9.562  -4.916  18.831  0.00  0.00     0.000 P 
ATOM      9  O   LIG d   1       8.206  -4.246  18.819  0.00  0.00    -0.500 OA
ATOM     10  O   LIG d   1       9.605  -6.441  18.676  0.00  0.00    -0.500 OA
BRANCH   8  11
ATOM     11  O   LIG d   1      10.606  -4.458  19.937  0.00  0.00     0.000 OA
BRANCH  11  12
ATOM     12  P   LIG d   1      11.256  -3.122  20.476  0.00  0.00     0.000 P 
ATOM     13  O   LIG d   1      12.795  -3.273  20.291  0.00  0.00    -0.500 OA
ATOM     14  O   LIG d   1      10.694  -1.850  19.853  0.00  0.00    -0.500 OA
BRANCH  12  15
ATOM     15  C   LIG d   1      10.984  -3.253  22.285  0.00  0.00     0.000 C 
BRANCH  15  16
ATOM     16  P   LIG d   1       9.428  -3.507  23.277  0.00  0.00     0.000 P 
ATOM     17  O   LIG d   1       9.647  -2.623  24.527  0.00  0.00    -0.667 OA
ATOM     18  O   LIG d   1       9.431  -4.995  23.670  0.00  0.00    -0.667 OA
ATOM     19  O   LIG d   1       8.238  -3.052  22.462  0.00  0.00    -0.667 OA
ENDBRANCH  15  16
ENDBRANCH  12  15
ENDBRANCH  11  12
ENDBRANCH   8  11
ENDBRANCH   7   8
ENDBRANCH   6   7
ENDBRANCH   1   6
BRANCH   3  20
ATOM     20  O   LIG d   1      13.595  -2.314  17.527  0.00  0.00     0.000 OA
ATOM     21  H   LIG d   1      14.294  -2.969  17.422  0.00  0.00     0.000 HD
ENDBRANCH   3  20
BRANCH   5  22
ATOM     22  N   LIG d   1      10.576  -2.056  14.141  0.00  0.00     0.000 N 
ATOM     23  C   LIG d   1       9.329  -2.482  14.497  0.00  0.00     0.000 A 
ATOM     24  N   LIG d   1       8.380  -1.712  13.983  0.00  0.00     0.000 NA
ATOM     25  C   LIG d   1       9.060  -0.691  13.341  0.00  0.00     0.000 A 
ATOM     26  C   LIG d   1       8.613   0.456  12.668  0.00  0.00     0.000 A 
ATOM     27  C   LIG d   1      10.425  -0.902  13.406  0.00  0.00     0.000 A 
ATOM     28  N   LIG d   1       9.539   1.294  12.141  0.00  0.00     0.000 NA
ATOM     29  C   LIG d   1      10.842   0.956  12.268  0.00  0.00     0.000 A 
ATOM     30  N   LIG d   1      11.379  -0.133  12.859  0.00  0.00     0.000 NA
BRANCH  26  31
ATOM     31  N   LIG d   1       7.263   0.776  12.500  0.00  0.00     0.000 NA
ATOM     32  H   LIG d   1       7.133   1.771  12.386  0.00  0.00     0.000 HD
ATOM     33  H   LIG d   1       6.694   0.317  13.210  0.00  0.00     0.000 HD
ENDBRANCH  26  31
ENDBRANCH   5  22
BRANCH   4  34
ATOM     34  O   LIG d   1      14.134  -2.087  14.953  0.00  0.00     0.000 OA
ATOM     35  H   LIG d   1      14.347  -3.025  15.091  0.00  0.00     0.000 HD
ENDBRANCH   4  34
TORSDOF 11
