@<TRIPOS>MOLECULE
3T10_ACP_A_301
 45 47 0 0 0
SMALL
USER_CHARGES

@<TRIPOS>ATOM
      1 P           9.4277   -3.5072   23.2770 P.3     1  LIG1        0.0000
      2 O           9.6472   -2.6229   24.5272 O.3     1  LIG1       -0.6667
      3 O           9.4310   -4.9955   23.6696 O.3     1  LIG1       -0.6667
      4 O           8.2377   -3.0519   22.4617 O.3     1  LIG1       -0.6667
      5 P          11.2560   -3.1221   20.4758 P.3     1  LIG1        0.0000
      6 O          12.7946   -3.2729   20.2907 O.3     1  LIG1       -0.5000
      7 O          10.6937   -1.8499   19.8528 O.3     1  LIG1       -0.5000
      8 C          10.9839   -3.2526   22.2850 C.3     1  LIG1        0.0000
      9 P           9.5619   -4.9164   18.8305 P.3     1  LIG1        0.0000
     10 O           8.2058   -4.2459   18.8189 O.3     1  LIG1       -0.5000
     11 O           9.6051   -6.4407   18.6758 O.3     1  LIG1       -0.5000
     12 O          10.6060   -4.4582   19.9369 O.3     1  LIG1        0.0000
     13 O          10.2901   -4.3742   17.4676 O.3     1  LIG1        0.0000
     14 C          11.5063   -4.9895   17.1440 C.3     1  LIG1        0.0000
     15 C          12.3195   -4.0758   16.2463 C.3     1  LIG1        0.0000
     16 O          11.7227   -4.0222   14.9095 O.3     1  LIG1        0.0000
     17 C          12.4820   -2.6158   16.6994 C.3     1  LIG1        0.0000
     18 O          13.5951   -2.3140   17.5272 O.3     1  LIG1        0.0000
     19 C          12.7476   -1.9142   15.3810 C.3     1  LIG1        0.0000
     20 O          14.1336   -2.0866   14.9527 O.3     1  LIG1        0.0000
     21 C          11.8609   -2.6740   14.4108 C.3     1  LIG1        0.0000
     22 N          10.5759   -2.0562   14.1413 N.ar    1  LIG1        0.0000
     23 C           9.3293   -2.4823   14.4971 C.ar    1  LIG1        0.0000
     24 N           8.3799   -1.7122   13.9835 N.ar    1  LIG1        0.0000
     25 C           9.0596   -0.6906   13.3415 C.ar    1  LIG1        0.0000
     26 C           8.6126    0.4555   12.6680 C.ar    1  LIG1        0.0000
     27 N           7.2630    0.7763   12.4998 N.pl3   1  LIG1        0.0000
     28 N           9.5387    1.2939   12.1412 N.ar    1  LIG1        0.0000
     29 C          10.8421    0.9558   12.2684 C.ar    1  LIG1        0.0000
     30 N          11.3791   -0.1329   12.8586 N.ar    1  LIG1        0.0000
     31 C          10.4246   -0.9023   13.4062 C.ar    1  LIG1        0.0000
     32 H          11.6220   -4.1001   22.5888 H       1  LIG1        0.0000
     33 H          11.4728   -2.3744   22.7256 H       1  LIG1        0.0000
     34 H          11.2684   -5.9226   16.6076 H       1  LIG1        0.0000
     35 H          12.0778   -5.2573   18.0423 H       1  LIG1        0.0000
     36 H          13.2999   -4.5500   16.1204 H       1  LIG1        0.0000
     37 H          11.5594   -2.2321   17.1529 H       1  LIG1        0.0000
     38 H          14.2942   -2.9690   17.4222 H       1  LIG1        0.0000
     39 H          12.5735   -0.8370   15.4345 H       1  LIG1        0.0000
     40 H          14.3468   -3.0249   15.0905 H       1  LIG1        0.0000
     41 H          12.3513   -2.7691   13.4348 H       1  LIG1        0.0000
     42 H           9.1627   -3.3536   15.1268 H       1  LIG1        0.0000
     43 H           7.1334    1.7710   12.3856 H       1  LIG1        0.0000
     44 H           6.6941    0.3171   13.2103 H       1  LIG1        0.0000
     45 H          11.5465    1.6471   11.8248 H       1  LIG1        0.0000
@<TRIPOS>BOND
     1     1     2    1
     2     1     3    1
     3     1     4    1
     4     1     8    1
     5     5     6    1
     6     5     7    1
     7     5     8    1
     8     5    12    1
     9     8    32    1
    10     8    33    1
    11     9    10    1
    12     9    11    1
    13     9    12    1
    14     9    13    1
    15    13    14    1
    16    14    15    1
    17    14    34    1
    18    14    35    1
    19    15    16    1
    20    15    17    1
    21    15    36    1
    22    16    21    1
    23    17    18    1
    24    17    19    1
    25    17    37    1
    26    18    38    1
    27    19    20    1
    28    19    21    1
    29    19    39    1
    30    20    40    1
    31    21    22    1
    32    21    41    1
    33    22    23   ar
    34    22    31   ar
    35    23    24   ar
    36    23    42    1
    37    24    25   ar
    38    25    26   ar
    39    25    31   ar
    40    26    27    1
    41    26    28   ar
    42    27    43    1
    43    27    44    1
    44    28    29   ar
    45    29    30   ar
    46    29    45    1
    47    30    31   ar
