REMARK  1 active torsions:
REMARK  status: ('A' for Active; 'I' for Inactive)
REMARK    1  A    between atoms: C_5  and  N_6 
ROOT
ATOM      1  N   LIG d   1      33.788  10.672  24.894  0.00  0.00    -0.329 N 
ATOM      2  C   LIG d   1      33.578  11.330  23.712  0.00  0.00     0.198 A 
ATOM      3  N   LIG d   1      32.302  11.449  23.421  0.00  0.00    -0.231 NA
ATOM      4  C   LIG d   1      31.643  10.838  24.464  0.00  0.00     0.147 A 
ATOM      5  C   LIG d   1      30.261  10.648  24.715  0.00  0.00     0.147 A 
ATOM      6  N   LIG d   1      29.936   9.991  25.860  0.00  0.00    -0.219 NA
ATOM      7  C   LIG d   1      30.924   9.561  26.684  0.00  0.00     0.225 A 
ATOM      8  N   LIG d   1      32.257   9.701  26.520  0.00  0.00    -0.216 NA
ATOM      9  C   LIG d   1      32.544  10.352  25.383  0.00  0.00     0.163 A 
ATOM     10  H   LIG d   1      34.675  10.464  25.320  0.00  0.00     0.168 HD
ENDROOT
BRANCH   5  11
ATOM     11  N   LIG d   1      29.286  11.111  23.833  0.00  0.00    -0.341 N 
ATOM     12  H   LIG d   1      28.310  10.965  24.032  0.00  0.00     0.144 HD
ATOM     13  H   LIG d   1      29.549  11.597  22.987  0.00  0.00     0.144 HD
ENDBRANCH   5  11
TORSDOF 1
