2YED_ADE_A_1225
 OpenBabel03301717103D

 15 16  0  0  0  0  0  0  0  0999 V2000
   33.7877   10.6716   24.8939 N   0  3  0  0  0  0  0  0  0  0  0  0
   33.5776   11.3299   23.7123 C   0  0  0  0  0  0  0  0  0  0  0  0
   32.3023   11.4494   23.4214 N   0  0  0  0  0  0  0  0  0  0  0  0
   31.6429   10.8382   24.4641 C   0  0  0  0  0  0  0  0  0  0  0  0
   30.2614   10.6477   24.7155 C   0  0  0  0  0  0  0  0  0  0  0  0
   29.2858   11.1110   23.8332 N   0  0  0  0  0  0  0  0  0  0  0  0
   29.9357    9.9906   25.8601 N   0  0  0  0  0  0  0  0  0  0  0  0
   30.9242    9.5610   26.6843 C   0  0  0  0  0  0  0  0  0  0  0  0
   32.2572    9.7007   26.5204 N   0  0  0  0  0  0  0  0  0  0  0  0
   32.5440   10.3520   25.3827 C   0  0  0  0  0  0  0  0  0  0  0  0
   34.6745   10.4639   25.3195 H   0  0  0  0  0  0  0  0  0  0  0  0
   34.3782   11.7050   23.0968 H   0  0  0  0  0  0  0  0  0  0  0  0
   28.3098   10.9646   24.0324 H   0  0  0  0  0  0  0  0  0  0  0  0
   29.5493   11.5973   22.9870 H   0  0  0  0  0  0  0  0  0  0  0  0
   30.6130    9.0387   27.5911 H   0  0  0  0  0  0  0  0  0  0  0  0
  1  2  2  0  0  0  0
  1 10  1  0  0  0  0
  1 11  1  0  0  0  0
  2  3  1  0  0  0  0
  2 12  1  0  0  0  0
  3  4  1  0  0  0  0
  4  5  2  0  0  0  0
  4 10  1  0  0  0  0
  5  6  1  0  0  0  0
  5  7  1  0  0  0  0
  6 13  1  0  0  0  0
  6 14  1  0  0  0  0
  7  8  2  0  0  0  0
  8  9  1  0  0  0  0
  8 15  1  0  0  0  0
  9 10  2  0  0  0  0
M  CHG  1   1   1
M  END
$$$$
