@<TRIPOS>MOLECULE
2YED_ADE_A_1225
 15 16 0 0 0
SMALL
USER_CHARGES

@<TRIPOS>ATOM
      1 N          33.7877   10.6716   24.8939 N.ar    1  LIG1       -0.3292
      2 C          33.5776   11.3299   23.7123 C.ar    1  LIG1        0.0957
      3 N          32.3023   11.4494   23.4214 N.ar    1  LIG1       -0.2308
      4 C          31.6429   10.8382   24.4641 C.ar    1  LIG1        0.1470
      5 C          30.2614   10.6477   24.7155 C.ar    1  LIG1        0.1471
      6 N          29.2858   11.1110   23.8332 N.pl3   1  LIG1       -0.3413
      7 N          29.9357    9.9906   25.8601 N.ar    1  LIG1       -0.2188
      8 C          30.9242    9.5610   26.6843 C.ar    1  LIG1        0.1205
      9 N          32.2572    9.7007   26.5204 N.ar    1  LIG1       -0.2162
     10 C          32.5440   10.3520   25.3827 C.ar    1  LIG1        0.1627
     11 H          34.6745   10.4639   25.3195 H       1  LIG1        0.1682
     12 H          34.3782   11.7050   23.0968 H       1  LIG1        0.1027
     13 H          28.3098   10.9646   24.0324 H       1  LIG1        0.1438
     14 H          29.5493   11.5973   22.9870 H       1  LIG1        0.1438
     15 H          30.6130    9.0387   27.5911 H       1  LIG1        0.1048
@<TRIPOS>BOND
     1     1     2   ar
     2     1    10   ar
     3     1    11    1
     4     2     3   ar
     5     2    12    1
     6     3     4   ar
     7     4     5   ar
     8     4    10   ar
     9     5     6    1
    10     5     7   ar
    11     6    13    1
    12     6    14    1
    13     7     8   ar
    14     8     9   ar
    15     8    15    1
    16     9    10   ar
