@<TRIPOS>MOLECULE
2XK2_ADP_A_1226
 39 41 0 0 0
SMALL
USER_CHARGES

@<TRIPOS>ATOM
      1 P           1.4426   -0.1930    5.1298 P.3     1  LIG1        0.0000
      2 O           1.5482   -1.3588    6.1029 O.3     1  LIG1       -0.6667
      3 O           0.0544   -0.0017    4.5344 O.3     1  LIG1       -0.6667
      4 O           2.4920   -0.2036    4.0287 O.3     1  LIG1       -0.6667
      5 P           2.2802    1.4653    7.4162 P.3     1  LIG1        0.0000
      6 O           2.3842    2.9851    7.6426 O.3     1  LIG1       -0.5000
      7 O           1.5660    0.6791    8.5008 O.3     1  LIG1       -0.5000
      8 O           1.7479    1.1940    5.9488 O.3     1  LIG1        0.0000
      9 O           3.8231    0.9337    7.3580 O.3     1  LIG1        0.0000
     10 C           4.7150    1.5551    6.4613 C.3     1  LIG1        0.0000
     11 C           5.8302    0.5658    6.1228 C.3     1  LIG1        0.0000
     12 O           6.7997    0.4504    7.2159 O.3     1  LIG1        0.0000
     13 C           5.4027   -0.8575    5.7970 C.3     1  LIG1        0.0000
     14 O           5.0061   -1.0254    4.4649 O.3     1  LIG1        0.0000
     15 C           6.6905   -1.6420    6.0466 C.3     1  LIG1        0.0000
     16 O           7.6019   -1.6010    4.9072 O.3     1  LIG1        0.0000
     17 C           7.3123   -0.9127    7.2397 C.3     1  LIG1        0.0000
     18 N           7.0581   -1.5329    8.5250 N.ar    1  LIG1        0.0000
     19 C           6.1971   -1.0807    9.5064 C.ar    1  LIG1        0.0000
     20 N           6.1862   -1.8602   10.5665 N.ar    1  LIG1        0.0000
     21 C           7.0441   -2.9012   10.2484 C.ar    1  LIG1        0.0000
     22 C           7.4233   -4.0535   10.9655 C.ar    1  LIG1        0.0000
     23 N           6.9452   -4.3802   12.2191 N.pl3   1  LIG1        0.0000
     24 N           8.3361   -4.8911   10.4041 N.ar    1  LIG1        0.0000
     25 C           8.7962   -4.5690    9.1695 C.ar    1  LIG1        0.0000
     26 N           8.5179   -3.4994    8.3918 N.ar    1  LIG1        0.0000
     27 C           7.6053   -2.6934    9.0095 C.ar    1  LIG1        0.0000
     28 H           5.1557    2.4239    6.9715 H       1  LIG1        0.0000
     29 H           4.2330    1.8845    5.5429 H       1  LIG1        0.0000
     30 H           6.3480    1.0049    5.2577 H       1  LIG1        0.0000
     31 H           4.5928   -1.2098    6.4388 H       1  LIG1        0.0000
     32 H           5.6368   -0.6635    3.8568 H       1  LIG1        0.0000
     33 H           6.5373   -2.7057    6.2291 H       1  LIG1        0.0000
     34 H           7.7628   -0.6667    4.7014 H       1  LIG1        0.0000
     35 H           8.4091   -0.8408    7.1273 H       1  LIG1        0.0000
     36 H           5.6083   -0.1784    9.3861 H       1  LIG1        0.0000
     37 H           7.2667   -5.2164   12.6611 H       1  LIG1        0.0000
     38 H           6.2490   -3.7732   12.6333 H       1  LIG1        0.0000
     39 H           9.5104   -5.2726    8.7470 H       1  LIG1        0.0000
@<TRIPOS>BOND
     1     1     2    1
     2     1     3    1
     3     1     4    1
     4     1     8    1
     5     5     6    1
     6     5     7    1
     7     5     8    1
     8     5     9    1
     9     9    10    1
    10    10    11    1
    11    10    28    1
    12    10    29    1
    13    11    12    1
    14    11    13    1
    15    11    30    1
    16    12    17    1
    17    13    14    1
    18    13    15    1
    19    13    31    1
    20    14    32    1
    21    15    16    1
    22    15    17    1
    23    15    33    1
    24    16    34    1
    25    17    18    1
    26    17    35    1
    27    18    19   ar
    28    18    27   ar
    29    19    20   ar
    30    19    36    1
    31    20    21   ar
    32    21    22   ar
    33    21    27   ar
    34    22    23    1
    35    22    24   ar
    36    23    37    1
    37    23    38    1
    38    24    25   ar
    39    25    26   ar
    40    25    39    1
    41    26    27   ar
