REMARK  9 active torsions:
REMARK  status: ('A' for Active; 'I' for Inactive)
REMARK    1  A    between atoms: P_1  and  O_8 
REMARK    2  A    between atoms: P_5  and  O_8 
REMARK    3  A    between atoms: P_5  and  O_9 
REMARK    4  A    between atoms: O_9  and  C_10 
REMARK    5  A    between atoms: C_10  and  C_11 
REMARK    6  A    between atoms: C_13  and  O_14 
REMARK    7  A    between atoms: C_15  and  O_16 
REMARK    8  A    between atoms: C_17  and  N_18 
REMARK    9  A    between atoms: C_22  and  N_23 
ROOT
ATOM      1  C   LIG d   1       5.830   0.566   6.123  0.00  0.00     0.000 C 
ATOM      2  O   LIG d   1       6.800   0.450   7.216  0.00  0.00     0.000 OA
ATOM      3  C   LIG d   1       5.403  -0.858   5.797  0.00  0.00     0.000 C 
ATOM      4  C   LIG d   1       6.691  -1.642   6.047  0.00  0.00     0.000 C 
ATOM      5  C   LIG d   1       7.312  -0.913   7.240  0.00  0.00     0.000 C 
ENDROOT
BRANCH   5   6
ATOM      6  N   LIG d   1       7.058  -1.533   8.525  0.00  0.00     0.000 N 
ATOM      7  C   LIG d   1       6.197  -1.081   9.506  0.00  0.00     0.000 A 
ATOM      8  N   LIG d   1       6.186  -1.860  10.566  0.00  0.00     0.000 NA
ATOM      9  C   LIG d   1       7.044  -2.901  10.248  0.00  0.00     0.000 A 
ATOM     10  C   LIG d   1       7.423  -4.053  10.966  0.00  0.00     0.000 A 
ATOM     11  C   LIG d   1       7.605  -2.693   9.009  0.00  0.00     0.000 A 
ATOM     12  N   LIG d   1       8.336  -4.891  10.404  0.00  0.00     0.000 NA
ATOM     13  C   LIG d   1       8.796  -4.569   9.169  0.00  0.00     0.000 A 
ATOM     14  N   LIG d   1       8.518  -3.499   8.392  0.00  0.00     0.000 NA
BRANCH  10  15
ATOM     15  N   LIG d   1       6.945  -4.380  12.219  0.00  0.00     0.000 N 
ATOM     16  H   LIG d   1       7.267  -5.216  12.661  0.00  0.00     0.000 HD
ATOM     17  H   LIG d   1       6.249  -3.773  12.633  0.00  0.00     0.000 HD
ENDBRANCH  10  15
ENDBRANCH   5   6
BRANCH   4  18
ATOM     18  O   LIG d   1       7.602  -1.601   4.907  0.00  0.00     0.000 OA
ATOM     19  H   LIG d   1       7.763  -0.667   4.701  0.00  0.00     0.000 HD
ENDBRANCH   4  18
BRANCH   1  20
ATOM     20  C   LIG d   1       4.715   1.555   6.461  0.00  0.00     0.000 C 
BRANCH  20  21
ATOM     21  O   LIG d   1       3.823   0.934   7.358  0.00  0.00     0.000 OA
BRANCH  21  22
ATOM     22  P   LIG d   1       2.280   1.465   7.416  0.00  0.00     0.000 P 
ATOM     23  O   LIG d   1       2.384   2.985   7.643  0.00  0.00    -0.500 OA
ATOM     24  O   LIG d   1       1.566   0.679   8.501  0.00  0.00    -0.500 OA
BRANCH  22  25
ATOM     25  O   LIG d   1       1.748   1.194   5.949  0.00  0.00     0.000 OA
BRANCH  25  26
ATOM     26  P   LIG d   1       1.443  -0.193   5.130  0.00  0.00     0.000 P 
ATOM     27  O   LIG d   1       1.548  -1.359   6.103  0.00  0.00    -0.667 OA
ATOM     28  O   LIG d   1       0.054  -0.002   4.534  0.00  0.00    -0.667 OA
ATOM     29  O   LIG d   1       2.492  -0.204   4.029  0.00  0.00    -0.667 OA
ENDBRANCH  25  26
ENDBRANCH  22  25
ENDBRANCH  21  22
ENDBRANCH  20  21
ENDBRANCH   1  20
BRANCH   3  30
ATOM     30  O   LIG d   1       5.006  -1.025   4.465  0.00  0.00     0.000 OA
ATOM     31  H   LIG d   1       5.637  -0.663   3.857  0.00  0.00     0.000 HD
ENDBRANCH   3  30
TORSDOF 9
