2XK2_ADP_A_1226
 OpenBabel03301717073D

 39 41  0  0  1  0  0  0  0  0999 V2000
    1.4426   -0.1930    5.1298 P   0  0  0  0  0  0  0  0  0  0  0  0
    1.5482   -1.3588    6.1029 O   0  0  0  0  0  0  0  0  0  0  0  0
    0.0544   -0.0017    4.5344 O   0  0  0  0  0  0  0  0  0  0  0  0
    2.4920   -0.2036    4.0287 O   0  0  0  0  0  0  0  0  0  0  0  0
    2.2802    1.4653    7.4162 P   0  0  0  0  0  0  0  0  0  0  0  0
    2.3842    2.9851    7.6426 O   0  0  0  0  0  0  0  0  0  0  0  0
    1.5660    0.6791    8.5008 O   0  0  0  0  0  0  0  0  0  0  0  0
    1.7479    1.1940    5.9488 O   0  0  0  0  0  0  0  0  0  0  0  0
    3.8231    0.9337    7.3580 O   0  0  0  0  0  0  0  0  0  0  0  0
    4.7150    1.5551    6.4613 C   0  0  0  0  0  0  0  0  0  0  0  0
    5.8302    0.5658    6.1228 C   0  0  1  0  0  0  0  0  0  0  0  0
    6.7997    0.4504    7.2159 O   0  0  0  0  0  0  0  0  0  0  0  0
    5.4027   -0.8575    5.7970 C   0  0  1  0  0  0  0  0  0  0  0  0
    5.0061   -1.0254    4.4649 O   0  0  0  0  0  0  0  0  0  0  0  0
    6.6905   -1.6420    6.0466 C   0  0  1  0  0  0  0  0  0  0  0  0
    7.6019   -1.6010    4.9072 O   0  0  0  0  0  0  0  0  0  0  0  0
    7.3123   -0.9127    7.2397 C   0  0  2  0  0  0  0  0  0  0  0  0
    7.0581   -1.5329    8.5250 N   0  3  0  0  0  0  0  0  0  0  0  0
    6.1971   -1.0807    9.5064 C   0  0  0  0  0  0  0  0  0  0  0  0
    6.1862   -1.8602   10.5665 N   0  0  0  0  0  0  0  0  0  0  0  0
    7.0441   -2.9012   10.2484 C   0  0  0  0  0  0  0  0  0  0  0  0
    7.4233   -4.0535   10.9655 C   0  0  0  0  0  0  0  0  0  0  0  0
    6.9452   -4.3802   12.2191 N   0  0  0  0  0  0  0  0  0  0  0  0
    8.3361   -4.8911   10.4041 N   0  0  0  0  0  0  0  0  0  0  0  0
    8.7962   -4.5690    9.1695 C   0  0  0  0  0  0  0  0  0  0  0  0
    8.5179   -3.4994    8.3918 N   0  0  0  0  0  0  0  0  0  0  0  0
    7.6053   -2.6934    9.0095 C   0  0  0  0  0  0  0  0  0  0  0  0
    5.1557    2.4239    6.9715 H   0  0  0  0  0  0  0  0  0  0  0  0
    4.2330    1.8845    5.5429 H   0  0  0  0  0  0  0  0  0  0  0  0
    6.3480    1.0049    5.2577 H   0  0  0  0  0  0  0  0  0  0  0  0
    4.5928   -1.2098    6.4388 H   0  0  0  0  0  0  0  0  0  0  0  0
    5.6368   -0.6635    3.8568 H   0  0  0  0  0  0  0  0  0  0  0  0
    6.5373   -2.7057    6.2291 H   0  0  0  0  0  0  0  0  0  0  0  0
    7.7628   -0.6667    4.7014 H   0  0  0  0  0  0  0  0  0  0  0  0
    8.4091   -0.8408    7.1273 H   0  0  0  0  0  0  0  0  0  0  0  0
    5.6083   -0.1784    9.3861 H   0  0  0  0  0  0  0  0  0  0  0  0
    7.2667   -5.2164   12.6611 H   0  0  0  0  0  0  0  0  0  0  0  0
    6.2490   -3.7732   12.6333 H   0  0  0  0  0  0  0  0  0  0  0  0
    9.5104   -5.2726    8.7470 H   0  0  0  0  0  0  0  0  0  0  0  0
  1  2  1  0  0  0  0
  1  3  1  0  0  0  0
  1  4  1  0  0  0  0
  1  8  1  0  0  0  0
  5  6  1  0  0  0  0
  5  7  1  0  0  0  0
  5  8  1  0  0  0  0
  5  9  1  0  0  0  0
  9 10  1  0  0  0  0
 10 11  1  0  0  0  0
 10 28  1  0  0  0  0
 10 29  1  0  0  0  0
 11 12  1  0  0  0  0
 11 13  1  0  0  0  0
 11 30  1  6  0  0  0
 12 17  1  0  0  0  0
 13 14  1  0  0  0  0
 13 15  1  0  0  0  0
 13 31  1  1  0  0  0
 14 32  1  0  0  0  0
 15 16  1  0  0  0  0
 15 17  1  0  0  0  0
 15 33  1  1  0  0  0
 16 34  1  0  0  0  0
 17 18  1  0  0  0  0
 17 35  1  6  0  0  0
 18 19  2  0  0  0  0
 18 27  1  0  0  0  0
 19 20  1  0  0  0  0
 19 36  1  0  0  0  0
 20 21  1  0  0  0  0
 21 22  2  0  0  0  0
 21 27  1  0  0  0  0
 22 23  1  0  0  0  0
 22 24  1  0  0  0  0
 23 37  1  0  0  0  0
 23 38  1  0  0  0  0
 24 25  2  0  0  0  0
 25 26  1  0  0  0  0
 25 39  1  0  0  0  0
 26 27  2  0  0  0  0
M  CHG  1  18   1
M  END
$$$$
