@<TRIPOS>MOLECULE
1BYQ_ADP_A_2001
 39 41 0 0 0
SMALL
USER_CHARGES

@<TRIPOS>ATOM
      1 P          41.1284  -47.1333   69.0906 P.3     1  LIG1        0.0000
      2 O          40.1976  -46.0387   68.5913 O.3     1  LIG1       -0.6667
      3 O          42.5309  -47.0752   68.4844 O.3     1  LIG1       -0.6667
      4 O          41.1915  -47.2375   70.6182 O.3     1  LIG1       -0.6667
      5 P          39.4463  -49.0591   67.5618 P.3     1  LIG1        0.0000
      6 O          38.0759  -48.4321   67.7059 O.3     1  LIG1       -0.5000
      7 O          39.4728  -50.5982   67.5240 O.3     1  LIG1       -0.5000
      8 O          40.5407  -48.5568   68.6076 O.3     1  LIG1        0.0000
      9 O          40.0641  -48.6048   66.1122 O.3     1  LIG1        0.0000
     10 C          41.2668  -49.2246   65.7143 C.3     1  LIG1        0.0000
     11 C          42.0276  -48.3589   64.7055 C.3     1  LIG1        0.0000
     12 O          41.4265  -48.4771   63.3715 O.3     1  LIG1        0.0000
     13 C          42.1092  -46.8581   64.9991 C.3     1  LIG1        0.0000
     14 O          43.2002  -46.4143   65.7799 O.3     1  LIG1        0.0000
     15 C          42.3471  -46.2807   63.6123 C.3     1  LIG1        0.0000
     16 O          43.7517  -46.3889   63.2262 O.3     1  LIG1        0.0000
     17 C          41.5384  -47.1955   62.7080 C.3     1  LIG1        0.0000
     18 N          40.2461  -46.6681   62.3152 N.ar    1  LIG1        0.0000
     19 C          38.9997  -47.1039   62.6960 C.ar    1  LIG1        0.0000
     20 N          38.0370  -46.3937   62.1407 N.ar    1  LIG1        0.0000
     21 C          38.6950  -45.4210   61.4094 C.ar    1  LIG1        0.0000
     22 C          38.2167  -44.3340   60.6640 C.ar    1  LIG1        0.0000
     23 N          36.8751  -44.0337   60.4826 N.pl3   1  LIG1        0.0000
     24 N          39.1343  -43.5331   60.0353 N.ar    1  LIG1        0.0000
     25 C          40.4282  -43.8568   60.1592 C.ar    1  LIG1        0.0000
     26 N          41.0052  -44.8794   60.8312 N.ar    1  LIG1        0.0000
     27 C          40.0611  -45.6089   61.4701 C.ar    1  LIG1        0.0000
     28 H          41.0048  -50.1794   65.2334 H       1  LIG1        0.0000
     29 H          41.9067  -49.4479   66.5749 H       1  LIG1        0.0000
     30 H          43.0344  -48.7860   64.6152 H       1  LIG1        0.0000
     31 H          41.1675  -46.4868   65.4130 H       1  LIG1        0.0000
     32 H          43.9972  -46.9189   65.5912 H       1  LIG1        0.0000
     33 H          42.0931  -45.2200   63.5583 H       1  LIG1        0.0000
     34 H          44.0082  -47.3160   63.3674 H       1  LIG1        0.0000
     35 H          42.0786  -47.3844   61.7737 H       1  LIG1        0.0000
     36 H          38.8639  -47.9404   63.3773 H       1  LIG1        0.0000
     37 H          36.6798  -43.0935   60.1795 H       1  LIG1        0.0000
     38 H          36.2593  -44.4788   61.1641 H       1  LIG1        0.0000
     39 H          41.1292  -43.1968   59.6410 H       1  LIG1        0.0000
@<TRIPOS>BOND
     1     1     2    1
     2     1     3    1
     3     1     4    1
     4     1     8    1
     5     5     6    1
     6     5     7    1
     7     5     8    1
     8     5     9    1
     9     9    10    1
    10    10    11    1
    11    10    28    1
    12    10    29    1
    13    11    12    1
    14    11    13    1
    15    11    30    1
    16    12    17    1
    17    13    14    1
    18    13    15    1
    19    13    31    1
    20    14    32    1
    21    15    16    1
    22    15    17    1
    23    15    33    1
    24    16    34    1
    25    17    18    1
    26    17    35    1
    27    18    19   ar
    28    18    27   ar
    29    19    20   ar
    30    19    36    1
    31    20    21   ar
    32    21    22   ar
    33    21    27   ar
    34    22    23    1
    35    22    24   ar
    36    23    37    1
    37    23    38    1
    38    24    25   ar
    39    25    26   ar
    40    25    39    1
    41    26    27   ar
