REMARK  12 active torsions:
REMARK  status: ('A' for Active; 'I' for Inactive)
REMARK    1  A    between atoms: P_1  and  S_2 
REMARK    2  A    between atoms: P_1  and  O_8 
REMARK    3  A    between atoms: P_5  and  O_8 
REMARK    4  A    between atoms: P_5  and  O_12 
REMARK    5  A    between atoms: P_9  and  O_12 
REMARK    6  A    between atoms: P_9  and  O_13 
REMARK    7  A    between atoms: O_13  and  C_14 
REMARK    8  A    between atoms: C_14  and  C_15 
REMARK    9  A    between atoms: C_17  and  O_18 
REMARK   10  A    between atoms: C_19  and  O_20 
REMARK   11  A    between atoms: C_21  and  N_22 
REMARK   12  A    between atoms: C_26  and  N_27 
ROOT
ATOM      1  C   LIG d   1       2.718   5.310  35.113  0.00  0.00     0.000 C 
ATOM      2  O   LIG d   1       2.974   4.129  34.286  0.00  0.00     0.000 OA
ATOM      3  C   LIG d   1       4.042   5.626  35.815  0.00  0.00     0.000 C 
ATOM      4  C   LIG d   1       4.626   4.238  36.020  0.00  0.00     0.000 C 
ATOM      5  C   LIG d   1       4.174   3.488  34.781  0.00  0.00     0.000 C 
ENDROOT
BRANCH   1   6
ATOM      6  C   LIG d   1       2.107   6.435  34.279  0.00  0.00     0.000 C 
BRANCH   6   7
ATOM      7  O   LIG d   1       3.084   7.017  33.443  0.00  0.00     0.000 OA
BRANCH   7   8
ATOM      8  P   LIG d   1       2.717   8.477  32.816  0.00  0.00     0.000 P 
ATOM      9  O   LIG d   1       3.779   8.809  31.793  0.00  0.00    -0.500 OA
ATOM     10  O   LIG d   1       1.281   8.362  32.318  0.00  0.00    -0.500 OA
BRANCH   8  11
ATOM     11  O   LIG d   1       2.742   9.446  34.085  0.00  0.00     0.000 OA
BRANCH  11  12
ATOM     12  P   LIG d   1       3.754   9.645  35.315  0.00  0.00     0.000 P 
ATOM     13  O   LIG d   1       3.114   8.975  36.526  0.00  0.00    -0.500 OA
ATOM     14  O   LIG d   1       5.168   9.274  34.946  0.00  0.00    -0.500 OA
BRANCH  12  15
ATOM     15  O   LIG d   1       3.608  11.230  35.551  0.00  0.00     0.000 OA
BRANCH  15  16
ATOM     16  P   LIG d   1       4.440  12.458  34.946  0.00  0.00     0.000 P 
ATOM     17  O   LIG d   1       3.551  13.700  34.966  0.00  0.00    -0.500 OA
ATOM     18  O   LIG d   1       5.788  12.616  35.628  0.00  0.00    -0.500 OA
BRANCH  16  19
ATOM     19  S   LIG d   1       4.803  12.143  32.897  0.00  0.00     0.000 SA
ATOM     20  H   LIG d   1       5.722  13.097  32.804  0.00  0.00     0.000 HD
ENDBRANCH  16  19
ENDBRANCH  15  16
ENDBRANCH  12  15
ENDBRANCH  11  12
ENDBRANCH   8  11
ENDBRANCH   7   8
ENDBRANCH   6   7
ENDBRANCH   1   6
BRANCH   3  21
ATOM     21  O   LIG d   1       3.974   6.232  37.092  0.00  0.00     0.000 OA
ATOM     22  H   LIG d   1       3.155   5.999  37.545  0.00  0.00     0.000 HD
ENDBRANCH   3  21
BRANCH   5  23
ATOM     23  N   LIG d   1       5.192   3.381  33.746  0.00  0.00     0.000 N 
ATOM     24  C   LIG d   1       5.192   3.944  32.507  0.00  0.00     0.000 A 
ATOM     25  N   LIG d   1       6.248   3.567  31.798  0.00  0.00     0.000 NA
ATOM     26  C   LIG d   1       6.976   2.803  32.667  0.00  0.00     0.000 A 
ATOM     27  C   LIG d   1       8.227   2.128  32.519  0.00  0.00     0.000 A 
ATOM     28  C   LIG d   1       6.330   2.624  33.871  0.00  0.00     0.000 A 
ATOM     29  N   LIG d   1       8.710   1.419  33.564  0.00  0.00     0.000 NA
ATOM     30  C   LIG d   1       7.951   1.349  34.684  0.00  0.00     0.000 A 
ATOM     31  N   LIG d   1       6.741   1.903  34.928  0.00  0.00     0.000 NA
BRANCH  27  32
ATOM     32  N   LIG d   1       8.966   2.163  31.335  0.00  0.00     0.000 NA
ATOM     33  H   LIG d   1       9.947   1.974  31.480  0.00  0.00     0.000 HD
ATOM     34  H   LIG d   1       8.715   2.964  30.759  0.00  0.00     0.000 HD
ENDBRANCH  27  32
ENDBRANCH   5  23
BRANCH   4  35
ATOM     35  O   LIG d   1       4.049   3.587  37.189  0.00  0.00     0.000 OA
ATOM     36  H   LIG d   1       3.086   3.707  37.133  0.00  0.00     0.000 HD
ENDBRANCH   4  35
TORSDOF 12
