@<TRIPOS>MOLECULE
3T2S_AGS_A_301
 44 46 0 0 0
SMALL
USER_CHARGES

@<TRIPOS>ATOM
      1 P           4.4398   12.4581   34.9461 P.3     1  LIG1        0.0000
      2 S           4.8026   12.1427   32.8974 S.3     1  LIG1        0.0000
      3 O           3.5515   13.6997   34.9661 O.3     1  LIG1       -0.5000
      4 O           5.7877   12.6164   35.6282 O.3     1  LIG1       -0.5000
      5 P           3.7542    9.6451   35.3146 P.3     1  LIG1        0.0000
      6 O           3.1141    8.9752   36.5257 O.3     1  LIG1       -0.5000
      7 O           5.1677    9.2735   34.9457 O.3     1  LIG1       -0.5000
      8 O           3.6079   11.2305   35.5514 O.3     1  LIG1        0.0000
      9 P           2.7173    8.4773   32.8162 P.3     1  LIG1        0.0000
     10 O           3.7789    8.8091   31.7933 O.3     1  LIG1       -0.5000
     11 O           1.2807    8.3621   32.3179 O.3     1  LIG1       -0.5000
     12 O           2.7423    9.4456   34.0852 O.3     1  LIG1        0.0000
     13 O           3.0838    7.0174   33.4430 O.3     1  LIG1        0.0000
     14 C           2.1073    6.4354   34.2789 C.3     1  LIG1        0.0000
     15 C           2.7177    5.3099   35.1130 C.3     1  LIG1        0.0000
     16 O           2.9739    4.1294   34.2861 O.3     1  LIG1        0.0000
     17 C           4.0418    5.6263   35.8145 C.3     1  LIG1        0.0000
     18 O           3.9745    6.2316   37.0916 O.3     1  LIG1        0.0000
     19 C           4.6260    4.2382   36.0200 C.3     1  LIG1        0.0000
     20 O           4.0487    3.5866   37.1891 O.3     1  LIG1        0.0000
     21 C           4.1740    3.4876   34.7808 C.3     1  LIG1        0.0000
     22 N           5.1917    3.3811   33.7462 N.ar    1  LIG1        0.0000
     23 C           5.1916    3.9436   32.5068 C.ar    1  LIG1        0.0000
     24 N           6.2484    3.5671   31.7982 N.ar    1  LIG1        0.0000
     25 C           6.9755    2.8032   32.6671 C.ar    1  LIG1        0.0000
     26 C           8.2274    2.1284   32.5185 C.ar    1  LIG1        0.0000
     27 N           8.9659    2.1628   31.3354 N.pl3   1  LIG1        0.0000
     28 N           8.7099    1.4186   33.5641 N.ar    1  LIG1        0.0000
     29 C           7.9513    1.3486   34.6843 C.ar    1  LIG1        0.0000
     30 N           6.7411    1.9026   34.9279 N.ar    1  LIG1        0.0000
     31 C           6.3303    2.6236   33.8710 C.ar    1  LIG1        0.0000
     32 H           5.7220   13.0965   32.8041 H       1  LIG1        0.0000
     33 H           1.3150    6.0233   33.6369 H       1  LIG1        0.0000
     34 H           1.6648    7.1889   34.9338 H       1  LIG1        0.0000
     35 H           1.9550    5.0056   35.8398 H       1  LIG1        0.0000
     36 H           4.6988    6.2131   35.1608 H       1  LIG1        0.0000
     37 H           3.1553    5.9993   37.5451 H       1  LIG1        0.0000
     38 H           5.7044    4.2721   36.1839 H       1  LIG1        0.0000
     39 H           3.0860    3.7066   37.1329 H       1  LIG1        0.0000
     40 H           3.8888    2.4583   35.0282 H       1  LIG1        0.0000
     41 H           4.4131    4.6200   32.1694 H       1  LIG1        0.0000
     42 H           9.9466    1.9738   31.4796 H       1  LIG1        0.0000
     43 H           8.7151    2.9639   30.7590 H       1  LIG1        0.0000
     44 H           8.3652    0.7622   35.4981 H       1  LIG1        0.0000
@<TRIPOS>BOND
     1     1     2    1
     2     1     3    1
     3     1     4    1
     4     1     8    1
     5     2    32    1
     6     5     6    1
     7     5     7    1
     8     5     8    1
     9     5    12    1
    10     9    10    1
    11     9    11    1
    12     9    12    1
    13     9    13    1
    14    13    14    1
    15    14    15    1
    16    14    33    1
    17    14    34    1
    18    15    16    1
    19    15    17    1
    20    15    35    1
    21    16    21    1
    22    17    18    1
    23    17    19    1
    24    17    36    1
    25    18    37    1
    26    19    20    1
    27    19    21    1
    28    19    38    1
    29    20    39    1
    30    21    22    1
    31    21    40    1
    32    22    23   ar
    33    22    31   ar
    34    23    24   ar
    35    23    41    1
    36    24    25   ar
    37    25    26   ar
    38    25    31   ar
    39    26    27    1
    40    26    28   ar
    41    27    42    1
    42    27    43    1
    43    28    29   ar
    44    29    30   ar
    45    29    44    1
    46    30    31   ar
