3T2S_AGS_A_301
 OpenBabel03301717233D

 44 46  0  0  1  0  0  0  0  0999 V2000
    4.4398   12.4581   34.9461 P   0  0  0  0  0  0  0  0  0  0  0  0
    4.8026   12.1427   32.8974 S   0  0  0  0  0  0  0  0  0  0  0  0
    3.5515   13.6997   34.9661 O   0  0  0  0  0  0  0  0  0  0  0  0
    5.7877   12.6164   35.6282 O   0  0  0  0  0  0  0  0  0  0  0  0
    3.7542    9.6451   35.3146 P   0  0  0  0  0  0  0  0  0  0  0  0
    3.1141    8.9752   36.5257 O   0  0  0  0  0  0  0  0  0  0  0  0
    5.1677    9.2735   34.9457 O   0  0  0  0  0  0  0  0  0  0  0  0
    3.6079   11.2305   35.5514 O   0  0  0  0  0  0  0  0  0  0  0  0
    2.7173    8.4773   32.8162 P   0  0  0  0  0  0  0  0  0  0  0  0
    3.7789    8.8091   31.7933 O   0  0  0  0  0  0  0  0  0  0  0  0
    1.2807    8.3621   32.3179 O   0  0  0  0  0  0  0  0  0  0  0  0
    2.7423    9.4456   34.0852 O   0  0  0  0  0  0  0  0  0  0  0  0
    3.0838    7.0174   33.4430 O   0  0  0  0  0  0  0  0  0  0  0  0
    2.1073    6.4354   34.2789 C   0  0  0  0  0  0  0  0  0  0  0  0
    2.7177    5.3099   35.1130 C   0  0  1  0  0  0  0  0  0  0  0  0
    2.9739    4.1294   34.2861 O   0  0  0  0  0  0  0  0  0  0  0  0
    4.0418    5.6263   35.8145 C   0  0  1  0  0  0  0  0  0  0  0  0
    3.9745    6.2316   37.0916 O   0  0  0  0  0  0  0  0  0  0  0  0
    4.6260    4.2382   36.0200 C   0  0  1  0  0  0  0  0  0  0  0  0
    4.0487    3.5866   37.1891 O   0  0  0  0  0  0  0  0  0  0  0  0
    4.1740    3.4876   34.7808 C   0  0  2  0  0  0  0  0  0  0  0  0
    5.1917    3.3811   33.7462 N   0  3  0  0  0  0  0  0  0  0  0  0
    5.1916    3.9436   32.5068 C   0  0  0  0  0  0  0  0  0  0  0  0
    6.2484    3.5671   31.7982 N   0  0  0  0  0  0  0  0  0  0  0  0
    6.9755    2.8032   32.6671 C   0  0  0  0  0  0  0  0  0  0  0  0
    8.2274    2.1284   32.5185 C   0  0  0  0  0  0  0  0  0  0  0  0
    8.9659    2.1628   31.3354 N   0  0  0  0  0  0  0  0  0  0  0  0
    8.7099    1.4186   33.5641 N   0  0  0  0  0  0  0  0  0  0  0  0
    7.9513    1.3486   34.6843 C   0  0  0  0  0  0  0  0  0  0  0  0
    6.7411    1.9026   34.9279 N   0  0  0  0  0  0  0  0  0  0  0  0
    6.3303    2.6236   33.8710 C   0  0  0  0  0  0  0  0  0  0  0  0
    5.7220   13.0965   32.8041 H   0  0  0  0  0  0  0  0  0  0  0  0
    1.3150    6.0233   33.6369 H   0  0  0  0  0  0  0  0  0  0  0  0
    1.6648    7.1889   34.9338 H   0  0  0  0  0  0  0  0  0  0  0  0
    1.9550    5.0056   35.8398 H   0  0  0  0  0  0  0  0  0  0  0  0
    4.6988    6.2131   35.1608 H   0  0  0  0  0  0  0  0  0  0  0  0
    3.1553    5.9993   37.5451 H   0  0  0  0  0  0  0  0  0  0  0  0
    5.7044    4.2721   36.1839 H   0  0  0  0  0  0  0  0  0  0  0  0
    3.0860    3.7066   37.1329 H   0  0  0  0  0  0  0  0  0  0  0  0
    3.8888    2.4583   35.0282 H   0  0  0  0  0  0  0  0  0  0  0  0
    4.4131    4.6200   32.1694 H   0  0  0  0  0  0  0  0  0  0  0  0
    9.9466    1.9738   31.4796 H   0  0  0  0  0  0  0  0  0  0  0  0
    8.7151    2.9639   30.7590 H   0  0  0  0  0  0  0  0  0  0  0  0
    8.3652    0.7622   35.4981 H   0  0  0  0  0  0  0  0  0  0  0  0
  1  2  1  0  0  0  0
  1  3  1  0  0  0  0
  1  4  1  0  0  0  0
  1  8  1  0  0  0  0
  2 32  1  0  0  0  0
  5  6  1  0  0  0  0
  5  7  1  0  0  0  0
  5  8  1  0  0  0  0
  5 12  1  0  0  0  0
  9 10  1  0  0  0  0
  9 11  1  0  0  0  0
  9 12  1  0  0  0  0
  9 13  1  0  0  0  0
 13 14  1  0  0  0  0
 14 15  1  0  0  0  0
 14 33  1  0  0  0  0
 14 34  1  0  0  0  0
 15 16  1  0  0  0  0
 15 17  1  0  0  0  0
 15 35  1  1  0  0  0
 16 21  1  0  0  0  0
 17 18  1  0  0  0  0
 17 19  1  0  0  0  0
 17 36  1  6  0  0  0
 18 37  1  0  0  0  0
 19 20  1  0  0  0  0
 19 21  1  0  0  0  0
 19 38  1  1  0  0  0
 20 39  1  0  0  0  0
 21 22  1  0  0  0  0
 21 40  1  1  0  0  0
 22 23  2  0  0  0  0
 22 31  1  0  0  0  0
 23 24  1  0  0  0  0
 23 41  1  0  0  0  0
 24 25  1  0  0  0  0
 25 26  2  0  0  0  0
 25 31  1  0  0  0  0
 26 27  1  0  0  0  0
 26 28  1  0  0  0  0
 27 42  1  0  0  0  0
 27 43  1  0  0  0  0
 28 29  2  0  0  0  0
 29 30  1  0  0  0  0
 29 44  1  0  0  0  0
 30 31  2  0  0  0  0
M  CHG  1  22   1
M  END
$$$$
