REMARK  11 active torsions:
REMARK  status: ('A' for Active; 'I' for Inactive)
REMARK    1  A    between atoms: P_1  and  N_8 
REMARK    2  A    between atoms: P_5  and  N_8 
REMARK    3  A    between atoms: P_5  and  O_12 
REMARK    4  A    between atoms: P_9  and  O_12 
REMARK    5  A    between atoms: P_9  and  O_13 
REMARK    6  A    between atoms: O_13  and  C_14 
REMARK    7  A    between atoms: C_14  and  C_15 
REMARK    8  A    between atoms: C_17  and  O_18 
REMARK    9  A    between atoms: C_19  and  O_20 
REMARK   10  A    between atoms: C_21  and  N_22 
REMARK   11  A    between atoms: C_26  and  N_27 
ROOT
ATOM      1  C   LIG d   1       5.970   0.455   6.121  0.00  0.00     0.000 C 
ATOM      2  O   LIG d   1       6.951   0.333   7.201  0.00  0.00     0.000 OA
ATOM      3  C   LIG d   1       5.547  -0.971   5.763  0.00  0.00     0.000 C 
ATOM      4  C   LIG d   1       6.817  -1.762   6.038  0.00  0.00     0.000 C 
ATOM      5  C   LIG d   1       7.407  -1.035   7.236  0.00  0.00     0.000 C 
ENDROOT
BRANCH   1   6
ATOM      6  C   LIG d   1       4.856   1.425   6.518  0.00  0.00     0.000 C 
BRANCH   6   7
ATOM      7  O   LIG d   1       3.958   0.765   7.378  0.00  0.00     0.000 OA
BRANCH   7   8
ATOM      8  P   LIG d   1       2.397   1.273   7.442  0.00  0.00     0.000 P 
ATOM      9  O   LIG d   1       2.530   2.796   7.578  0.00  0.00    -0.500 OA
ATOM     10  O   LIG d   1       1.831   0.513   8.609  0.00  0.00    -0.500 OA
BRANCH   8  11
ATOM     11  O   LIG d   1       1.889   0.910   5.973  0.00  0.00     0.000 OA
BRANCH  11  12
ATOM     12  P   LIG d   1       1.561  -0.512   5.319  0.00  0.00     0.000 P 
ATOM     13  O   LIG d   1       1.804  -1.694   6.228  0.00  0.00    -0.500 OA
ATOM     14  O   LIG d   1       2.383  -0.537   4.020  0.00  0.00    -0.500 OA
BRANCH  12  15
ATOM     15  N   LIG d   1      -0.029  -0.366   4.718  0.00  0.00     0.000 NA
ATOM     16  H   LIG d   1      -0.075   0.462   4.144  0.00  0.00     0.000 HD
BRANCH  15  17
ATOM     17  P   LIG d   1      -1.353  -0.203   5.805  0.00  0.00     0.000 P 
ATOM     18  O   LIG d   1      -0.900  -0.246   7.233  0.00  0.00    -0.667 OA
ATOM     19  O   LIG d   1      -1.921   1.147   5.369  0.00  0.00    -0.667 OA
ATOM     20  O   LIG d   1      -2.266  -1.362   5.400  0.00  0.00    -0.667 OA
ENDBRANCH  15  17
ENDBRANCH  12  15
ENDBRANCH  11  12
ENDBRANCH   8  11
ENDBRANCH   7   8
ENDBRANCH   6   7
ENDBRANCH   1   6
BRANCH   3  21
ATOM     21  O   LIG d   1       5.183  -1.159   4.410  0.00  0.00     0.000 OA
ATOM     22  H   LIG d   1       5.867  -0.861   3.804  0.00  0.00     0.000 HD
ENDBRANCH   3  21
BRANCH   5  23
ATOM     23  N   LIG d   1       7.154  -1.661   8.524  0.00  0.00     0.000 N 
ATOM     24  C   LIG d   1       6.336  -1.190   9.526  0.00  0.00     0.000 A 
ATOM     25  N   LIG d   1       6.354  -1.987  10.582  0.00  0.00     0.000 NA
ATOM     26  C   LIG d   1       7.191  -3.012  10.223  0.00  0.00     0.000 A 
ATOM     27  C   LIG d   1       7.591  -4.183  10.895  0.00  0.00     0.000 A 
ATOM     28  C   LIG d   1       7.742  -2.808   8.973  0.00  0.00     0.000 A 
ATOM     29  N   LIG d   1       8.464  -5.008  10.325  0.00  0.00     0.000 NA
ATOM     30  C   LIG d   1       8.935  -4.670   9.071  0.00  0.00     0.000 A 
ATOM     31  N   LIG d   1       8.650  -3.551   8.358  0.00  0.00     0.000 NA
BRANCH  27  32
ATOM     32  N   LIG d   1       7.157  -4.488  12.199  0.00  0.00     0.000 N 
ATOM     33  H   LIG d   1       7.360  -5.395  12.570  0.00  0.00     0.000 HD
ATOM     34  H   LIG d   1       6.415  -3.898  12.563  0.00  0.00     0.000 HD
ENDBRANCH  27  32
ENDBRANCH   5  23
BRANCH   4  35
ATOM     35  O   LIG d   1       7.762  -1.668   4.926  0.00  0.00     0.000 OA
ATOM     36  H   LIG d   1       7.940  -0.724   4.781  0.00  0.00     0.000 HD
ENDBRANCH   4  35
TORSDOF 11
