@<TRIPOS>MOLECULE
2YEF_ANP_A_1228
 44 46 0 0 0
SMALL
USER_CHARGES

@<TRIPOS>ATOM
      1 P          -1.3529   -0.2032    5.8048 P.3     1  LIG1        0.0000
      2 O          -0.8998   -0.2456    7.2331 O.3     1  LIG1       -0.6667
      3 O          -1.9213    1.1471    5.3693 O.3     1  LIG1       -0.6667
      4 O          -2.2662   -1.3620    5.4002 O.3     1  LIG1       -0.6667
      5 P           1.5608   -0.5124    5.3189 P.3     1  LIG1        0.0000
      6 O           1.8037   -1.6944    6.2277 O.3     1  LIG1       -0.5000
      7 O           2.3829   -0.5372    4.0199 O.3     1  LIG1       -0.5000
      8 N          -0.0288   -0.3663    4.7178 N.3     1  LIG1        0.0000
      9 P           2.3966    1.2732    7.4417 P.3     1  LIG1        0.0000
     10 O           2.5304    2.7958    7.5783 O.3     1  LIG1       -0.5000
     11 O           1.8310    0.5134    8.6088 O.3     1  LIG1       -0.5000
     12 O           1.8892    0.9105    5.9735 O.3     1  LIG1        0.0000
     13 O           3.9583    0.7655    7.3785 O.3     1  LIG1        0.0000
     14 C           4.8562    1.4248    6.5182 C.3     1  LIG1        0.0000
     15 C           5.9697    0.4548    6.1208 C.3     1  LIG1        0.0000
     16 O           6.9506    0.3325    7.2007 O.3     1  LIG1        0.0000
     17 C           5.5468   -0.9705    5.7626 C.3     1  LIG1        0.0000
     18 O           5.1831   -1.1586    4.4097 O.3     1  LIG1        0.0000
     19 C           6.8168   -1.7623    6.0379 C.3     1  LIG1        0.0000
     20 O           7.7618   -1.6683    4.9260 O.3     1  LIG1        0.0000
     21 C           7.4068   -1.0349    7.2357 C.3     1  LIG1        0.0000
     22 N           7.1537   -1.6606    8.5239 N.ar    1  LIG1        0.0000
     23 C           6.3364   -1.1901    9.5264 C.ar    1  LIG1        0.0000
     24 N           6.3543   -1.9873   10.5816 N.ar    1  LIG1        0.0000
     25 C           7.1905   -3.0123   10.2233 C.ar    1  LIG1        0.0000
     26 C           7.5909   -4.1832   10.8946 C.ar    1  LIG1        0.0000
     27 N           7.1570   -4.4876   12.1987 N.pl3   1  LIG1        0.0000
     28 N           8.4640   -5.0077   10.3248 N.ar    1  LIG1        0.0000
     29 C           8.9347   -4.6698    9.0714 C.ar    1  LIG1        0.0000
     30 N           8.6505   -3.5513    8.3584 N.ar    1  LIG1        0.0000
     31 C           7.7419   -2.8083    8.9731 C.ar    1  LIG1        0.0000
     32 H          -0.0753    0.4622    4.1442 H       1  LIG1        0.0000
     33 H           5.2929    2.2614    7.0726 H       1  LIG1        0.0000
     34 H           4.3560    1.8134    5.6284 H       1  LIG1        0.0000
     35 H           6.5133    0.9035    5.2835 H       1  LIG1        0.0000
     36 H           4.7373   -1.3108    6.4176 H       1  LIG1        0.0000
     37 H           5.8665   -0.8613    3.8043 H       1  LIG1        0.0000
     38 H           6.6367   -2.8292    6.1923 H       1  LIG1        0.0000
     39 H           7.9397   -0.7240    4.7813 H       1  LIG1        0.0000
     40 H           8.4978   -0.9794    7.1302 H       1  LIG1        0.0000
     41 H           5.7518   -0.2737    9.4364 H       1  LIG1        0.0000
     42 H           7.3597   -5.3953   12.5698 H       1  LIG1        0.0000
     43 H           6.4151   -3.8976   12.5632 H       1  LIG1        0.0000
     44 H           9.6573   -5.3385    8.6477 H       1  LIG1        0.0000
@<TRIPOS>BOND
     1     1     2    1
     2     1     3    1
     3     1     4    1
     4     1     8    1
     5     5     6    1
     6     5     7    1
     7     5     8    1
     8     5    12    1
     9     8    32    1
    10     9    10    1
    11     9    11    1
    12     9    12    1
    13     9    13    1
    14    13    14    1
    15    14    15    1
    16    14    33    1
    17    14    34    1
    18    15    16    1
    19    15    17    1
    20    15    35    1
    21    16    21    1
    22    17    18    1
    23    17    19    1
    24    17    36    1
    25    18    37    1
    26    19    20    1
    27    19    21    1
    28    19    38    1
    29    20    39    1
    30    21    22    1
    31    21    40    1
    32    22    23   ar
    33    22    31   ar
    34    23    24   ar
    35    23    41    1
    36    24    25   ar
    37    25    26   ar
    38    25    31   ar
    39    26    27    1
    40    26    28   ar
    41    27    42    1
    42    27    43    1
    43    28    29   ar
    44    29    30   ar
    45    29    44    1
    46    30    31   ar
