3T1K_ANP_A_301
 OpenBabel03301717233D

 44 46  0  0  1  0  0  0  0  0999 V2000
  -32.3713   18.3275  -25.4933 P   0  0  0  0  0  0  0  0  0  0  0  0
  -31.4881   19.3567  -24.8288 O   0  0  0  0  0  0  0  0  0  0  0  0
  -31.7853   17.7245  -26.7442 O   0  0  0  0  0  0  0  0  0  0  0  0
  -33.7990   18.8694  -25.6612 O   0  0  0  0  0  0  0  0  0  0  0  0
  -32.5835   15.4650  -24.5291 P   0  0  0  0  0  0  0  0  0  0  0  0
  -31.1965   14.9055  -24.7079 O   0  0  0  0  0  0  0  0  0  0  0  0
  -33.3186   14.9690  -23.2769 O   0  0  0  0  0  0  0  0  0  0  0  0
  -32.6532   17.1540  -24.2981 N   0  0  0  0  0  0  0  0  0  0  0  0
  -33.7020   14.1094  -26.9179 P   0  0  0  0  0  0  0  0  0  0  0  0
  -32.6827   14.2025  -28.0515 O   0  0  0  0  0  0  0  0  0  0  0  0
  -35.1596   13.9683  -27.3424 O   0  0  0  0  0  0  0  0  0  0  0  0
  -33.5698   15.1730  -25.7239 O   0  0  0  0  0  0  0  0  0  0  0  0
  -33.3939   12.6647  -26.2208 O   0  0  0  0  0  0  0  0  0  0  0  0
  -34.3825   12.1657  -25.3562 C   0  0  0  0  0  0  0  0  0  0  0  0
  -33.7636   11.0867  -24.4758 C   0  0  1  0  0  0  0  0  0  0  0  0
  -33.4605    9.8891  -25.2588 O   0  0  0  0  0  0  0  0  0  0  0  0
  -32.4613   11.4791  -23.7677 C   0  0  1  0  0  0  0  0  0  0  0  0
  -32.5689   12.0708  -22.4806 O   0  0  0  0  0  0  0  0  0  0  0  0
  -31.8053   10.1264  -23.5395 C   0  0  1  0  0  0  0  0  0  0  0  0
  -32.3524    9.4509  -22.3710 O   0  0  0  0  0  0  0  0  0  0  0  0
  -32.2128    9.3413  -24.7722 C   0  0  2  0  0  0  0  0  0  0  0  0
  -31.1984    9.2655  -25.8014 N   0  3  0  0  0  0  0  0  0  0  0  0
  -31.1959    9.8575  -27.0387 C   0  0  0  0  0  0  0  0  0  0  0  0
  -30.1467    9.4833  -27.7537 N   0  0  0  0  0  0  0  0  0  0  0  0
  -29.4112    8.6782  -26.9119 C   0  0  0  0  0  0  0  0  0  0  0  0
  -28.1809    8.0209  -27.0702 C   0  0  0  0  0  0  0  0  0  0  0  0
  -27.4347    8.0776  -28.2611 N   0  0  0  0  0  0  0  0  0  0  0  0
  -27.6858    7.2986  -26.0474 N   0  0  0  0  0  0  0  0  0  0  0  0
  -28.4297    7.2210  -24.9113 C   0  0  0  0  0  0  0  0  0  0  0  0
  -29.6299    7.7715  -24.6556 N   0  0  0  0  0  0  0  0  0  0  0  0
  -30.0474    8.5288  -25.6965 C   0  0  0  0  0  0  0  0  0  0  0  0
  -33.6378   17.3543  -24.1897 H   0  0  0  0  0  0  0  0  0  0  0  0
  -35.1797   11.7176  -25.9708 H   0  0  0  0  0  0  0  0  0  0  0  0
  -34.8127   12.9621  -24.7487 H   0  0  0  0  0  0  0  0  0  0  0  0
  -34.5287   10.7878  -23.7471 H   0  0  0  0  0  0  0  0  0  0  0  0
  -31.8249   12.0941  -24.4188 H   0  0  0  0  0  0  0  0  0  0  0  0
  -33.4606   11.9557  -22.1224 H   0  0  0  0  0  0  0  0  0  0  0  0
  -30.7283   10.2172  -23.3773 H   0  0  0  0  0  0  0  0  0  0  0  0
  -33.3056    9.6385  -22.3713 H   0  0  0  0  0  0  0  0  0  0  0  0
  -32.4328    8.3015  -24.5029 H   0  0  0  0  0  0  0  0  0  0  0  0
  -31.9674   10.5439  -27.3646 H   0  0  0  0  0  0  0  0  0  0  0  0
  -26.4513    7.9545  -28.0706 H   0  0  0  0  0  0  0  0  0  0  0  0
  -27.6941    8.9118  -28.7941 H   0  0  0  0  0  0  0  0  0  0  0  0
  -28.0054    6.6232  -24.1157 H   0  0  0  0  0  0  0  0  0  0  0  0
  1  2  1  0  0  0  0
  1  3  1  0  0  0  0
  1  4  1  0  0  0  0
  1  8  1  0  0  0  0
  5  6  1  0  0  0  0
  5  7  1  0  0  0  0
  5  8  1  0  0  0  0
  5 12  1  0  0  0  0
  8 32  1  0  0  0  0
  9 10  1  0  0  0  0
  9 11  1  0  0  0  0
  9 12  1  0  0  0  0
  9 13  1  0  0  0  0
 13 14  1  0  0  0  0
 14 15  1  0  0  0  0
 14 33  1  0  0  0  0
 14 34  1  0  0  0  0
 15 16  1  0  0  0  0
 15 17  1  0  0  0  0
 15 35  1  1  0  0  0
 16 21  1  0  0  0  0
 17 18  1  0  0  0  0
 17 19  1  0  0  0  0
 17 36  1  6  0  0  0
 18 37  1  0  0  0  0
 19 20  1  0  0  0  0
 19 21  1  0  0  0  0
 19 38  1  1  0  0  0
 20 39  1  0  0  0  0
 21 22  1  0  0  0  0
 21 40  1  1  0  0  0
 22 23  2  0  0  0  0
 22 31  1  0  0  0  0
 23 24  1  0  0  0  0
 23 41  1  0  0  0  0
 24 25  1  0  0  0  0
 25 26  2  0  0  0  0
 25 31  1  0  0  0  0
 26 27  1  0  0  0  0
 26 28  1  0  0  0  0
 27 42  1  0  0  0  0
 27 43  1  0  0  0  0
 28 29  2  0  0  0  0
 29 30  1  0  0  0  0
 29 44  1  0  0  0  0
 30 31  2  0  0  0  0
M  CHG  1  22   1
M  END
$$$$
