REMARK  11 active torsions:
REMARK  status: ('A' for Active; 'I' for Inactive)
REMARK    1  A    between atoms: P_1  and  N_8 
REMARK    2  A    between atoms: P_5  and  N_8 
REMARK    3  A    between atoms: P_5  and  O_12 
REMARK    4  A    between atoms: P_9  and  O_12 
REMARK    5  A    between atoms: P_9  and  O_13 
REMARK    6  A    between atoms: O_13  and  C_14 
REMARK    7  A    between atoms: C_14  and  C_15 
REMARK    8  A    between atoms: C_17  and  O_18 
REMARK    9  A    between atoms: C_19  and  O_20 
REMARK   10  A    between atoms: C_21  and  N_22 
REMARK   11  A    between atoms: C_26  and  N_27 
ROOT
ATOM      1  C   LIG d   1     -33.764  11.087 -24.476  0.00  0.00     0.000 C 
ATOM      2  O   LIG d   1     -33.461   9.889 -25.259  0.00  0.00     0.000 OA
ATOM      3  C   LIG d   1     -32.461  11.479 -23.768  0.00  0.00     0.000 C 
ATOM      4  C   LIG d   1     -31.805  10.126 -23.540  0.00  0.00     0.000 C 
ATOM      5  C   LIG d   1     -32.213   9.341 -24.772  0.00  0.00     0.000 C 
ENDROOT
BRANCH   1   6
ATOM      6  C   LIG d   1     -34.383  12.166 -25.356  0.00  0.00     0.000 C 
BRANCH   6   7
ATOM      7  O   LIG d   1     -33.394  12.665 -26.221  0.00  0.00     0.000 OA
BRANCH   7   8
ATOM      8  P   LIG d   1     -33.702  14.109 -26.918  0.00  0.00     0.000 P 
ATOM      9  O   LIG d   1     -32.683  14.203 -28.052  0.00  0.00    -0.500 OA
ATOM     10  O   LIG d   1     -35.160  13.968 -27.342  0.00  0.00    -0.500 OA
BRANCH   8  11
ATOM     11  O   LIG d   1     -33.570  15.173 -25.724  0.00  0.00     0.000 OA
BRANCH  11  12
ATOM     12  P   LIG d   1     -32.584  15.465 -24.529  0.00  0.00     0.000 P 
ATOM     13  O   LIG d   1     -31.197  14.905 -24.708  0.00  0.00    -0.500 OA
ATOM     14  O   LIG d   1     -33.319  14.969 -23.277  0.00  0.00    -0.500 OA
BRANCH  12  15
ATOM     15  N   LIG d   1     -32.653  17.154 -24.298  0.00  0.00     0.000 NA
ATOM     16  H   LIG d   1     -33.638  17.354 -24.190  0.00  0.00     0.000 HD
BRANCH  15  17
ATOM     17  P   LIG d   1     -32.371  18.328 -25.493  0.00  0.00     0.000 P 
ATOM     18  O   LIG d   1     -31.488  19.357 -24.829  0.00  0.00    -0.667 OA
ATOM     19  O   LIG d   1     -31.785  17.724 -26.744  0.00  0.00    -0.667 OA
ATOM     20  O   LIG d   1     -33.799  18.869 -25.661  0.00  0.00    -0.667 OA
ENDBRANCH  15  17
ENDBRANCH  12  15
ENDBRANCH  11  12
ENDBRANCH   8  11
ENDBRANCH   7   8
ENDBRANCH   6   7
ENDBRANCH   1   6
BRANCH   3  21
ATOM     21  O   LIG d   1     -32.569  12.071 -22.481  0.00  0.00     0.000 OA
ATOM     22  H   LIG d   1     -33.461  11.956 -22.122  0.00  0.00     0.000 HD
ENDBRANCH   3  21
BRANCH   5  23
ATOM     23  N   LIG d   1     -31.198   9.265 -25.801  0.00  0.00     0.000 N 
ATOM     24  C   LIG d   1     -31.196   9.857 -27.039  0.00  0.00     0.000 A 
ATOM     25  N   LIG d   1     -30.147   9.483 -27.754  0.00  0.00     0.000 NA
ATOM     26  C   LIG d   1     -29.411   8.678 -26.912  0.00  0.00     0.000 A 
ATOM     27  C   LIG d   1     -28.181   8.021 -27.070  0.00  0.00     0.000 A 
ATOM     28  C   LIG d   1     -30.047   8.529 -25.697  0.00  0.00     0.000 A 
ATOM     29  N   LIG d   1     -27.686   7.299 -26.047  0.00  0.00     0.000 NA
ATOM     30  C   LIG d   1     -28.430   7.221 -24.911  0.00  0.00     0.000 A 
ATOM     31  N   LIG d   1     -29.630   7.771 -24.656  0.00  0.00     0.000 NA
BRANCH  27  32
ATOM     32  N   LIG d   1     -27.435   8.078 -28.261  0.00  0.00     0.000 NA
ATOM     33  H   LIG d   1     -26.451   7.955 -28.071  0.00  0.00     0.000 HD
ATOM     34  H   LIG d   1     -27.694   8.912 -28.794  0.00  0.00     0.000 HD
ENDBRANCH  27  32
ENDBRANCH   5  23
BRANCH   4  35
ATOM     35  O   LIG d   1     -32.352   9.451 -22.371  0.00  0.00     0.000 OA
ATOM     36  H   LIG d   1     -33.306   9.639 -22.371  0.00  0.00     0.000 HD
ENDBRANCH   4  35
TORSDOF 11
