@<TRIPOS>MOLECULE
3T1K_ANP_A_301
 44 46 0 0 0
SMALL
USER_CHARGES

@<TRIPOS>ATOM
      1 P         -32.3713   18.3275  -25.4933 P.3     1  LIG1        0.0000
      2 O         -31.4881   19.3567  -24.8288 O.3     1  LIG1       -0.6667
      3 O         -31.7853   17.7245  -26.7442 O.3     1  LIG1       -0.6667
      4 O         -33.7990   18.8694  -25.6612 O.3     1  LIG1       -0.6667
      5 P         -32.5835   15.4650  -24.5291 P.3     1  LIG1        0.0000
      6 O         -31.1965   14.9055  -24.7079 O.3     1  LIG1       -0.5000
      7 O         -33.3186   14.9690  -23.2769 O.3     1  LIG1       -0.5000
      8 N         -32.6532   17.1540  -24.2981 N.3     1  LIG1        0.0000
      9 P         -33.7020   14.1094  -26.9179 P.3     1  LIG1        0.0000
     10 O         -32.6827   14.2025  -28.0515 O.3     1  LIG1       -0.5000
     11 O         -35.1596   13.9683  -27.3424 O.3     1  LIG1       -0.5000
     12 O         -33.5698   15.1730  -25.7239 O.3     1  LIG1        0.0000
     13 O         -33.3939   12.6647  -26.2208 O.3     1  LIG1        0.0000
     14 C         -34.3825   12.1657  -25.3562 C.3     1  LIG1        0.0000
     15 C         -33.7636   11.0867  -24.4758 C.3     1  LIG1        0.0000
     16 O         -33.4605    9.8891  -25.2588 O.3     1  LIG1        0.0000
     17 C         -32.4613   11.4791  -23.7677 C.3     1  LIG1        0.0000
     18 O         -32.5689   12.0708  -22.4806 O.3     1  LIG1        0.0000
     19 C         -31.8053   10.1264  -23.5395 C.3     1  LIG1        0.0000
     20 O         -32.3524    9.4509  -22.3710 O.3     1  LIG1        0.0000
     21 C         -32.2128    9.3413  -24.7722 C.3     1  LIG1        0.0000
     22 N         -31.1984    9.2655  -25.8014 N.ar    1  LIG1        0.0000
     23 C         -31.1959    9.8575  -27.0387 C.ar    1  LIG1        0.0000
     24 N         -30.1467    9.4833  -27.7537 N.ar    1  LIG1        0.0000
     25 C         -29.4112    8.6782  -26.9119 C.ar    1  LIG1        0.0000
     26 C         -28.1809    8.0209  -27.0702 C.ar    1  LIG1        0.0000
     27 N         -27.4347    8.0776  -28.2611 N.pl3   1  LIG1        0.0000
     28 N         -27.6858    7.2986  -26.0474 N.ar    1  LIG1        0.0000
     29 C         -28.4297    7.2210  -24.9113 C.ar    1  LIG1        0.0000
     30 N         -29.6299    7.7715  -24.6556 N.ar    1  LIG1        0.0000
     31 C         -30.0474    8.5288  -25.6965 C.ar    1  LIG1        0.0000
     32 H         -33.6378   17.3543  -24.1897 H       1  LIG1        0.0000
     33 H         -35.1797   11.7176  -25.9708 H       1  LIG1        0.0000
     34 H         -34.8127   12.9621  -24.7487 H       1  LIG1        0.0000
     35 H         -34.5287   10.7878  -23.7471 H       1  LIG1        0.0000
     36 H         -31.8249   12.0941  -24.4188 H       1  LIG1        0.0000
     37 H         -33.4606   11.9557  -22.1224 H       1  LIG1        0.0000
     38 H         -30.7283   10.2172  -23.3773 H       1  LIG1        0.0000
     39 H         -33.3056    9.6385  -22.3713 H       1  LIG1        0.0000
     40 H         -32.4328    8.3015  -24.5029 H       1  LIG1        0.0000
     41 H         -31.9674   10.5439  -27.3646 H       1  LIG1        0.0000
     42 H         -26.4513    7.9545  -28.0706 H       1  LIG1        0.0000
     43 H         -27.6941    8.9118  -28.7941 H       1  LIG1        0.0000
     44 H         -28.0054    6.6232  -24.1157 H       1  LIG1        0.0000
@<TRIPOS>BOND
     1     1     2    1
     2     1     3    1
     3     1     4    1
     4     1     8    1
     5     5     6    1
     6     5     7    1
     7     5     8    1
     8     5    12    1
     9     8    32    1
    10     9    10    1
    11     9    11    1
    12     9    12    1
    13     9    13    1
    14    13    14    1
    15    14    15    1
    16    14    33    1
    17    14    34    1
    18    15    16    1
    19    15    17    1
    20    15    35    1
    21    16    21    1
    22    17    18    1
    23    17    19    1
    24    17    36    1
    25    18    37    1
    26    19    20    1
    27    19    21    1
    28    19    38    1
    29    20    39    1
    30    21    22    1
    31    21    40    1
    32    22    23   ar
    33    22    31   ar
    34    23    24   ar
    35    23    41    1
    36    24    25   ar
    37    25    26   ar
    38    25    31   ar
    39    26    27    1
    40    26    28   ar
    41    27    42    1
    42    27    43    1
    43    28    29   ar
    44    29    30   ar
    45    29    44    1
    46    30    31   ar
