REMARK  11 active torsions:
REMARK  status: ('A' for Active; 'I' for Inactive)
REMARK    1  A    between atoms: P_1  and  O_8 
REMARK    2  A    between atoms: P_5  and  O_8 
REMARK    3  A    between atoms: P_5  and  O_12 
REMARK    4  A    between atoms: P_9  and  O_12 
REMARK    5  A    between atoms: P_9  and  O_13 
REMARK    6  A    between atoms: O_13  and  C_14 
REMARK    7  A    between atoms: C_14  and  C_15 
REMARK    8  A    between atoms: C_17  and  O_18 
REMARK    9  A    between atoms: C_19  and  O_20 
REMARK   10  A    between atoms: C_21  and  N_22 
REMARK   11  A    between atoms: C_26  and  N_27 
ROOT
ATOM      1  C   LIG d   1      13.467  -6.210  14.749  0.00  0.00     0.000 C 
ATOM      2  O   LIG d   1      12.870  -5.912  13.454  0.00  0.00     0.000 OA
ATOM      3  C   LIG d   1      13.717  -4.869  15.446  0.00  0.00     0.000 C 
ATOM      4  C   LIG d   1      13.878  -3.891  14.296  0.00  0.00     0.000 C 
ATOM      5  C   LIG d   1      13.054  -4.511  13.173  0.00  0.00     0.000 C 
ENDROOT
BRANCH   1   6
ATOM      6  C   LIG d   1      12.595  -7.185  15.542  0.00  0.00     0.000 C 
BRANCH   6   7
ATOM      7  O   LIG d   1      11.514  -6.471  16.085  0.00  0.00     0.000 OA
BRANCH   7   8
ATOM      8  P   LIG d   1      10.854  -7.045  17.471  0.00  0.00     0.000 P 
ATOM      9  O   LIG d   1       9.575  -6.251  17.584  0.00  0.00    -0.500 OA
ATOM     10  O   LIG d   1      10.758  -8.549  17.203  0.00  0.00    -0.500 OA
BRANCH   8  11
ATOM     11  O   LIG d   1      12.032  -6.750  18.500  0.00  0.00     0.000 OA
BRANCH  11  12
ATOM     12  P   LIG d   1      12.640  -5.476  19.261  0.00  0.00     0.000 P 
ATOM     13  O   LIG d   1      14.157  -5.513  19.007  0.00  0.00    -0.500 OA
ATOM     14  O   LIG d   1      11.991  -4.160  18.851  0.00  0.00    -0.500 OA
BRANCH  12  15
ATOM     15  O   LIG d   1      12.452  -5.859  20.808  0.00  0.00     0.000 OA
BRANCH  15  16
ATOM     16  P   LIG d   1      11.196  -6.149  21.778  0.00  0.00     0.000 P 
ATOM     17  O   LIG d   1      11.339  -5.138  22.924  0.00  0.00    -0.667 OA
ATOM     18  O   LIG d   1      11.389  -7.584  22.291  0.00  0.00    -0.667 OA
ATOM     19  O   LIG d   1       9.914  -5.966  20.988  0.00  0.00    -0.667 OA
ENDBRANCH  15  16
ENDBRANCH  12  15
ENDBRANCH  11  12
ENDBRANCH   8  11
ENDBRANCH   7   8
ENDBRANCH   6   7
ENDBRANCH   1   6
BRANCH   3  20
ATOM     20  O   LIG d   1      14.898  -4.876  16.228  0.00  0.00     0.000 OA
ATOM     21  H   LIG d   1      15.681  -5.002  15.690  0.00  0.00     0.000 HD
ENDBRANCH   3  20
BRANCH   5  22
ATOM     22  N   LIG d   1      11.787  -3.837  12.958  0.00  0.00     0.000 N 
ATOM     23  C   LIG d   1      10.555  -4.236  13.373  0.00  0.00     0.000 A 
ATOM     24  N   LIG d   1       9.613  -3.377  13.019  0.00  0.00     0.000 NA
ATOM     25  C   LIG d   1      10.277  -2.340  12.436  0.00  0.00     0.000 A 
ATOM     26  C   LIG d   1       9.840  -1.109  11.898  0.00  0.00     0.000 A 
ATOM     27  C   LIG d   1      11.649  -2.597  12.341  0.00  0.00     0.000 A 
ATOM     28  N   LIG d   1      10.740  -0.260  11.365  0.00  0.00     0.000 NA
ATOM     29  C   LIG d   1      12.042  -0.659  11.342  0.00  0.00     0.000 A 
ATOM     30  N   LIG d   1      12.581  -1.837  11.802  0.00  0.00     0.000 NA
BRANCH  26  31
ATOM     31  N   LIG d   1       8.496  -0.749  11.860  0.00  0.00     0.000 N 
ATOM     32  H   LIG d   1       8.300   0.224  11.668  0.00  0.00     0.000 HD
ATOM     33  H   LIG d   1       7.893  -1.277  12.486  0.00  0.00     0.000 HD
ENDBRANCH  26  31
ENDBRANCH   5  22
BRANCH   4  34
ATOM     34  O   LIG d   1      15.258  -3.796  13.856  0.00  0.00     0.000 OA
ATOM     35  H   LIG d   1      15.568  -4.708  13.728  0.00  0.00     0.000 HD
ENDBRANCH   4  34
TORSDOF 11
