@<TRIPOS>MOLECULE
3T0Z_ATP_A_301
 43 45 0 0 0
SMALL
USER_CHARGES

@<TRIPOS>ATOM
      1 P          11.1962   -6.1489   21.7777 P.3     1  LIG1        0.0000
      2 O          11.3387   -5.1382   22.9242 O.3     1  LIG1       -0.6667
      3 O          11.3891   -7.5836   22.2909 O.3     1  LIG1       -0.6667
      4 O           9.9138   -5.9665   20.9880 O.3     1  LIG1       -0.6667
      5 P          12.6398   -5.4755   19.2608 P.3     1  LIG1        0.0000
      6 O          14.1569   -5.5125   19.0068 O.3     1  LIG1       -0.5000
      7 O          11.9910   -4.1603   18.8511 O.3     1  LIG1       -0.5000
      8 O          12.4523   -5.8592   20.8083 O.3     1  LIG1        0.0000
      9 P          10.8535   -7.0445   17.4715 P.3     1  LIG1        0.0000
     10 O           9.5754   -6.2509   17.5835 O.3     1  LIG1       -0.5000
     11 O          10.7577   -8.5493   17.2034 O.3     1  LIG1       -0.5000
     12 O          12.0318   -6.7505   18.4995 O.3     1  LIG1        0.0000
     13 O          11.5135   -6.4709   16.0855 O.3     1  LIG1        0.0000
     14 C          12.5950   -7.1850   15.5423 C.3     1  LIG1        0.0000
     15 C          13.4666   -6.2096   14.7494 C.3     1  LIG1        0.0000
     16 O          12.8701   -5.9120   13.4539 O.3     1  LIG1        0.0000
     17 C          13.7168   -4.8691   15.4456 C.3     1  LIG1        0.0000
     18 O          14.8984   -4.8759   16.2276 O.3     1  LIG1        0.0000
     19 C          13.8780   -3.8914   14.2963 C.3     1  LIG1        0.0000
     20 O          15.2581   -3.7961   13.8563 O.3     1  LIG1        0.0000
     21 C          13.0538   -4.5106   13.1728 C.3     1  LIG1        0.0000
     22 N          11.7870   -3.8372   12.9582 N.ar    1  LIG1        0.0000
     23 C          10.5547   -4.2360   13.3730 C.ar    1  LIG1        0.0000
     24 N           9.6130   -3.3774   13.0188 N.ar    1  LIG1        0.0000
     25 C          10.2771   -2.3395   12.4359 C.ar    1  LIG1        0.0000
     26 C           9.8397   -1.1086   11.8982 C.ar    1  LIG1        0.0000
     27 N           8.4956   -0.7486   11.8596 N.pl3   1  LIG1        0.0000
     28 N          10.7403   -0.2597   11.3647 N.ar    1  LIG1        0.0000
     29 C          12.0418   -0.6593   11.3423 C.ar    1  LIG1        0.0000
     30 N          12.5809   -1.8369   11.8016 N.ar    1  LIG1        0.0000
     31 C          11.6485   -2.5969   12.3405 C.ar    1  LIG1        0.0000
     32 H          12.1761   -7.9463   14.8729 H       1  LIG1        0.0000
     33 H          13.1823   -7.6859   16.3184 H       1  LIG1        0.0000
     34 H          14.4146   -6.7169   14.5370 H       1  LIG1        0.0000
     35 H          12.8672   -4.5666   16.0646 H       1  LIG1        0.0000
     36 H          15.6813   -5.0020   15.6896 H       1  LIG1        0.0000
     37 H          13.5560   -2.8817   14.5711 H       1  LIG1        0.0000
     38 H          15.5679   -4.7076   13.7282 H       1  LIG1        0.0000
     39 H          13.5867   -4.4631   12.2178 H       1  LIG1        0.0000
     40 H          10.4001   -5.1559   13.9402 H       1  LIG1        0.0000
     41 H           8.3003    0.2239   11.6675 H       1  LIG1        0.0000
     42 H           7.8930   -1.2772   12.4863 H       1  LIG1        0.0000
     43 H          12.7387    0.0395   10.9038 H       1  LIG1        0.0000
@<TRIPOS>BOND
     1     1     2    1
     2     1     3    1
     3     1     4    1
     4     1     8    1
     5     5     6    1
     6     5     7    1
     7     5     8    1
     8     5    12    1
     9     9    10    1
    10     9    11    1
    11     9    12    1
    12     9    13    1
    13    13    14    1
    14    14    15    1
    15    14    32    1
    16    14    33    1
    17    15    16    1
    18    15    17    1
    19    15    34    1
    20    16    21    1
    21    17    18    1
    22    17    19    1
    23    17    35    1
    24    18    36    1
    25    19    20    1
    26    19    21    1
    27    19    37    1
    28    20    38    1
    29    21    22    1
    30    21    39    1
    31    22    23   ar
    32    22    31   ar
    33    23    24   ar
    34    23    40    1
    35    24    25   ar
    36    25    26   ar
    37    25    31   ar
    38    26    27    1
    39    26    28   ar
    40    27    41    1
    41    27    42    1
    42    28    29   ar
    43    29    30   ar
    44    29    43    1
    45    30    31   ar
