4EGI_B2J_A_301
 OpenBabel03301717293D

 15 15  0  0  0  0  0  0  0  0999 V2000
   10.2013   -8.2546   13.7581 S   0  0  0  0  0  0  0  0  0  0  0  0
    8.9496   -8.6383   14.0789 H   0  0  0  0  0  0  0  0  0  0  0  0
    9.9765   -6.5435   13.2731 C   0  0  0  0  0  0  0  0  0  0  0  0
    8.7502   -6.0423   13.3043 N   0  0  0  0  0  0  0  0  0  0  0  0
   11.0974   -5.8926   12.9069 N   0  0  0  0  0  0  0  0  0  0  0  0
   10.9078   -4.6356   12.5306 C   0  0  0  0  0  0  0  0  0  0  0  0
   12.1247   -3.8442   12.0794 C   0  0  0  0  0  0  0  0  0  0  0  0
    9.7208   -4.0205   12.5335 N   0  0  0  0  0  0  0  0  0  0  0  0
    8.6836   -4.7735   12.9160 C   0  0  0  0  0  0  0  0  0  0  0  0
    7.4206   -4.2020   12.9273 N   0  0  0  0  0  0  0  0  0  0  0  0
   11.8667   -2.8083   11.8297 H   0  0  0  0  0  0  0  0  0  0  0  0
   12.5547   -4.3050   11.1831 H   0  0  0  0  0  0  0  0  0  0  0  0
   12.9011   -3.8176   12.8516 H   0  0  0  0  0  0  0  0  0  0  0  0
    6.6474   -4.7849   13.2030 H   0  0  0  0  0  0  0  0  0  0  0  0
    7.3147   -3.2511   12.6527 H   0  0  0  0  0  0  0  0  0  0  0  0
  1  2  1  0  0  0  0
  1  3  1  0  0  0  0
  3  4  2  0  0  0  0
  3  5  1  0  0  0  0
  4  9  1  0  0  0  0
  5  6  2  0  0  0  0
  6  7  1  0  0  0  0
  6  8  1  0  0  0  0
  7 11  1  0  0  0  0
  7 12  1  0  0  0  0
  7 13  1  0  0  0  0
  8  9  2  0  0  0  0
  9 10  1  0  0  0  0
 10 14  1  0  0  0  0
 10 15  1  0  0  0  0
M  END
$$$$
