REMARK  3 active torsions:
REMARK  status: ('A' for Active; 'I' for Inactive)
REMARK    1  A    between atoms: C_2  and  S_3 
REMARK    2  A    between atoms: S_3  and  C_4 
REMARK    3  A    between atoms: C_10  and  N_11 
ROOT
ATOM      1  C   LIG d   1      33.199  34.614  50.899  0.00  0.00     0.193 A 
ATOM      2  N   LIG d   1      34.227  34.165  50.191  0.00  0.00    -0.189 NA
ATOM      3  N   LIG d   1      31.923  34.529  50.536  0.00  0.00    -0.207 NA
ATOM      4  C   LIG d   1      31.710  33.939  49.367  0.00  0.00     0.132 A 
ATOM      5  C   LIG d   1      30.289  33.799  48.899  0.00  0.00     0.088 C 
ATOM      6  N   LIG d   1      32.682  33.462  48.576  0.00  0.00    -0.200 NA
ATOM      7  C   LIG d   1      33.913  33.596  49.042  0.00  0.00     0.216 A 
ENDROOT
BRANCH   1   8
ATOM      8  S   LIG d   1      33.589  35.315  52.486  0.00  0.00    -0.086 SA
BRANCH   8   9
ATOM      9  C   LIG d   1      32.501  36.773  52.484  0.00  0.00     0.074 C 
ATOM     10  C   LIG d   1      33.126  37.927  51.718  0.00  0.00     0.016 C 
ENDBRANCH   8   9
ENDBRANCH   1   8
BRANCH   7  11
ATOM     11  N   LIG d   1      34.951  33.108  48.294  0.00  0.00    -0.327 N 
ATOM     12  H   LIG d   1      34.770  32.791  47.361  0.00  0.00     0.145 HD
ATOM     13  H   LIG d   1      35.882  33.324  48.621  0.00  0.00     0.145 HD
ENDBRANCH   7  11
TORSDOF 3
