@<TRIPOS>MOLECULE
4EGI_B2J_A_301
 15 15 0 0 0
SMALL
USER_CHARGES

@<TRIPOS>ATOM
      1 S          10.2013   -8.2546   13.7581 S.3     1  LIG1       -0.1033
      2 H           8.9496   -8.6383   14.0789 H       1  LIG1        0.1101
      3 C           9.9765   -6.5435   13.2731 C.ar    1  LIG1        0.1898
      4 N           8.7502   -6.0423   13.3043 N.ar    1  LIG1       -0.1892
      5 N          11.0974   -5.8926   12.9069 N.ar    1  LIG1       -0.2073
      6 C          10.9078   -4.6356   12.5306 C.ar    1  LIG1        0.1324
      7 C          12.1247   -3.8442   12.0794 C.3     1  LIG1       -0.0044
      8 N           9.7208   -4.0205   12.5335 N.ar    1  LIG1       -0.2000
      9 C           8.6836   -4.7735   12.9160 C.ar    1  LIG1        0.2165
     10 N           7.4206   -4.2020   12.9273 N.pl3   1  LIG1       -0.3274
     11 H          11.8667   -2.8083   11.8297 H       1  LIG1        0.0308
     12 H          12.5547   -4.3050   11.1831 H       1  LIG1        0.0308
     13 H          12.9011   -3.8176   12.8516 H       1  LIG1        0.0308
     14 H           6.6474   -4.7849   13.2030 H       1  LIG1        0.1452
     15 H           7.3147   -3.2511   12.6527 H       1  LIG1        0.1452
@<TRIPOS>BOND
     1     1     2    1
     2     1     3    1
     3     3     4   ar
     4     3     5   ar
     5     4     9   ar
     6     5     6   ar
     7     6     7    1
     8     6     8   ar
     9     7    11    1
    10     7    12    1
    11     7    13    1
    12     8     9   ar
    13     9    10    1
    14    10    14    1
    15    10    15    1
