@<TRIPOS>MOLECULE
3B24_B2J_A_237
 21 21 0 0 0
SMALL
USER_CHARGES

@<TRIPOS>ATOM
      1 C          33.1255   37.9266   51.7184 C.3     1  LIG1       -0.0558
      2 C          32.5009   36.7729   52.4839 C.3     1  LIG1       -0.0017
      3 S          33.5892   35.3149   52.4857 S.3     1  LIG1       -0.0862
      4 C          33.1990   34.6143   50.8987 C.ar    1  LIG1        0.1929
      5 N          34.2268   34.1649   50.1913 N.ar    1  LIG1       -0.1889
      6 N          31.9229   34.5290   50.5357 N.ar    1  LIG1       -0.2071
      7 C          31.7098   33.9391   49.3665 C.ar    1  LIG1        0.1324
      8 C          30.2892   33.7986   48.8990 C.3     1  LIG1       -0.0044
      9 N          32.6816   33.4617   48.5757 N.ar    1  LIG1       -0.2000
     10 C          33.9134   33.5959   49.0425 C.ar    1  LIG1        0.2165
     11 N          34.9511   33.1077   48.2939 N.pl3   1  LIG1       -0.3274
     12 H          32.4623   38.7980   51.7500 H       1  LIG1        0.0238
     13 H          33.2902   37.6733   50.6666 H       1  LIG1        0.0238
     14 H          34.0821   38.2284   52.1593 H       1  LIG1        0.0238
     15 H          31.5130   36.5290   52.0825 H       1  LIG1        0.0378
     16 H          32.3544   37.0743   53.5265 H       1  LIG1        0.0378
     17 H          29.5961   34.2525   49.6176 H       1  LIG1        0.0308
     18 H          30.0244   32.7427   48.7919 H       1  LIG1        0.0308
     19 H          30.1537   34.2978   47.9350 H       1  LIG1        0.0308
     20 H          34.7701   32.7906   47.3607 H       1  LIG1        0.1452
     21 H          35.8822   33.3238   48.6210 H       1  LIG1        0.1452
@<TRIPOS>BOND
     1     1     2    1
     2     1    12    1
     3     1    13    1
     4     1    14    1
     5     2     3    1
     6     2    15    1
     7     2    16    1
     8     3     4    1
     9     4     5   ar
    10     4     6   ar
    11     5    10   ar
    12     6     7   ar
    13     7     8    1
    14     7     9   ar
    15     8    17    1
    16     8    18    1
    17     8    19    1
    18     9    10   ar
    19    10    11    1
    20    11    20    1
    21    11    21    1
