REMARK  2 active torsions:
REMARK  status: ('A' for Active; 'I' for Inactive)
REMARK    1  A    between atoms: S_1  and  C_3 
REMARK    2  A    between atoms: C_9  and  N_10 
ROOT
ATOM      1  C   LIG d   1       9.976  -6.543  13.273  0.00  0.00     0.190 A 
ATOM      2  N   LIG d   1       8.750  -6.042  13.304  0.00  0.00    -0.189 NA
ATOM      3  N   LIG d   1      11.097  -5.893  12.907  0.00  0.00    -0.207 NA
ATOM      4  C   LIG d   1      10.908  -4.636  12.531  0.00  0.00     0.132 A 
ATOM      5  C   LIG d   1      12.125  -3.844  12.079  0.00  0.00     0.088 C 
ATOM      6  N   LIG d   1       9.721  -4.021  12.534  0.00  0.00    -0.200 NA
ATOM      7  C   LIG d   1       8.684  -4.774  12.916  0.00  0.00     0.216 A 
ENDROOT
BRANCH   7   8
ATOM      8  N   LIG d   1       7.421  -4.202  12.927  0.00  0.00    -0.327 N 
ATOM      9  H   LIG d   1       6.647  -4.785  13.203  0.00  0.00     0.145 HD
ATOM     10  H   LIG d   1       7.315  -3.251  12.653  0.00  0.00     0.145 HD
ENDBRANCH   7   8
BRANCH   1  11
ATOM     11  S   LIG d   1      10.201  -8.255  13.758  0.00  0.00    -0.103 SA
ATOM     12  H   LIG d   1       8.950  -8.638  14.079  0.00  0.00     0.110 HD
ENDBRANCH   1  11
TORSDOF 2
