@<TRIPOS>MOLECULE
3B25_B2K_A_1
 31 32 0 0 0
SMALL
USER_CHARGES

@<TRIPOS>ATOM
      1 C          63.7704   13.4979   25.2717 C.ar    1  LIG1       -0.0362
      2 C          63.1979   14.7196   24.8978 C.ar    1  LIG1       -0.0570
      3 C          62.1607   14.7728   23.9532 C.ar    1  LIG1       -0.0503
      4 C          61.5756   16.0952   23.5454 C.3     1  LIG1       -0.0397
      5 C          61.6841   13.5788   23.3967 C.ar    1  LIG1       -0.0570
      6 C          62.2242   12.3479   23.8010 C.ar    1  LIG1       -0.0362
      7 C          63.2830   12.3123   24.7225 C.ar    1  LIG1        0.0953
      8 S          64.0156   10.7547   25.2221 S.O2    1  LIG1        0.0422
      9 O          63.2283    9.7086   24.5768 O.2     1  LIG1       -0.1629
     10 O          64.1231   10.7648   26.6689 O.2     1  LIG1       -0.1629
     11 C          65.6810   10.7259   24.4888 C.ar    1  LIG1        0.1867
     12 N          66.6849   11.2530   25.2469 N.ar    1  LIG1       -0.1955
     13 C          65.8725   10.1881   23.2407 C.ar    1  LIG1        0.0035
     14 C          67.1652   10.1833   22.7675 C.ar    1  LIG1        0.0451
     15 C          67.4717    9.5902   21.4176 C.3     1  LIG1       -0.0221
     16 N          68.1923   10.6966   23.4939 N.ar    1  LIG1       -0.2198
     17 C          67.9102   11.1931   24.6997 C.ar    1  LIG1        0.2145
     18 N          68.9706   11.6893   25.4179 N.pl3   1  LIG1       -0.3274
     19 H          64.5841   13.4803   25.9910 H       1  LIG1        0.0637
     20 H          63.5655   15.6391   25.3480 H       1  LIG1        0.0621
     21 H          62.0606   16.9163   24.0839 H       1  LIG1        0.0278
     22 H          60.5054   16.1303   23.7709 H       1  LIG1        0.0278
     23 H          61.7231   16.2616   22.4740 H       1  LIG1        0.0278
     24 H          60.8888   13.6044   22.6512 H       1  LIG1        0.0621
     25 H          61.8101   11.4292   23.3979 H       1  LIG1        0.0637
     26 H          65.0455    9.8037   22.6552 H       1  LIG1        0.0670
     27 H          66.5648    9.1751   20.9540 H       1  LIG1        0.0293
     28 H          68.1975    8.7727   21.4926 H       1  LIG1        0.0293
     29 H          67.8682   10.3496   20.7400 H       1  LIG1        0.0293
     30 H          69.8870   11.6183   25.0198 H       1  LIG1        0.1452
     31 H          68.8134   12.0467   26.3543 H       1  LIG1        0.1452
@<TRIPOS>BOND
     1     1     2   ar
     2     1     7   ar
     3     1    19    1
     4     2     3   ar
     5     2    20    1
     6     3     4    1
     7     3     5   ar
     8     4    21    1
     9     4    22    1
    10     4    23    1
    11     5     6   ar
    12     5    24    1
    13     6     7   ar
    14     6    25    1
    15     7     8    1
    16     8     9    2
    17     8    10    2
    18     8    11    1
    19    11    12   ar
    20    11    13   ar
    21    12    17   ar
    22    13    14   ar
    23    13    26    1
    24    14    15    1
    25    14    16   ar
    26    15    27    1
    27    15    28    1
    28    15    29    1
    29    16    17   ar
    30    17    18    1
    31    18    30    1
    32    18    31    1
