REMARK  3 active torsions:
REMARK  status: ('A' for Active; 'I' for Inactive)
REMARK    1  A    between atoms: C_7  and  S_8 
REMARK    2  A    between atoms: S_8  and  C_11 
REMARK    3  A    between atoms: C_17  and  N_18 
ROOT
ATOM      1  C   LIG d   1      65.681  10.726  24.489  0.00  0.00     0.187 A 
ATOM      2  N   LIG d   1      66.685  11.253  25.247  0.00  0.00    -0.196 NA
ATOM      3  C   LIG d   1      65.873  10.188  23.241  0.00  0.00     0.071 A 
ATOM      4  C   LIG d   1      67.165  10.183  22.767  0.00  0.00     0.045 A 
ATOM      5  C   LIG d   1      67.472   9.590  21.418  0.00  0.00     0.066 C 
ATOM      6  N   LIG d   1      68.192  10.697  23.494  0.00  0.00    -0.220 NA
ATOM      7  C   LIG d   1      67.910  11.193  24.700  0.00  0.00     0.214 A 
ENDROOT
BRANCH   1   8
ATOM      8  S   LIG d   1      64.016  10.755  25.222  0.00  0.00     0.042 S 
ATOM      9  O   LIG d   1      63.228   9.709  24.577  0.00  0.00    -0.163 OA
ATOM     10  O   LIG d   1      64.123  10.765  26.669  0.00  0.00    -0.163 OA
BRANCH   8  11
ATOM     11  C   LIG d   1      63.283  12.312  24.723  0.00  0.00     0.095 A 
ATOM     12  C   LIG d   1      63.770  13.498  25.272  0.00  0.00     0.028 A 
ATOM     13  C   LIG d   1      63.198  14.720  24.898  0.00  0.00     0.005 A 
ATOM     14  C   LIG d   1      62.161  14.773  23.953  0.00  0.00    -0.050 A 
ATOM     15  C   LIG d   1      61.576  16.095  23.545  0.00  0.00     0.044 C 
ATOM     16  C   LIG d   1      61.684  13.579  23.397  0.00  0.00     0.005 A 
ATOM     17  C   LIG d   1      62.224  12.348  23.801  0.00  0.00     0.028 A 
ENDBRANCH   8  11
ENDBRANCH   1   8
BRANCH   7  18
ATOM     18  N   LIG d   1      68.971  11.689  25.418  0.00  0.00    -0.327 N 
ATOM     19  H   LIG d   1      69.887  11.618  25.020  0.00  0.00     0.145 HD
ATOM     20  H   LIG d   1      68.813  12.047  26.354  0.00  0.00     0.145 HD
ENDBRANCH   7  18
TORSDOF 3
