@<TRIPOS>MOLECULE
3B26_B2L_A_1
 36 39 0 0 0
SMALL
USER_CHARGES

@<TRIPOS>ATOM
      1 C          -3.2099   11.3165    1.5237 C.3     1  LIG1        0.0737
      2 O          -3.8549   10.1781    2.0920 O.3     1  LIG1       -0.3706
      3 C          -3.8130    9.0345    1.2412 C.3     1  LIG1        0.0737
      4 C          -2.4107    8.6948    0.8210 C.ar    1  LIG1       -0.0139
      5 C          -2.0990    7.3825    0.4465 C.ar    1  LIG1       -0.0558
      6 C          -0.8166    7.0752    0.0243 C.ar    1  LIG1       -0.0608
      7 C           0.1585    8.0713   -0.0107 C.ar    1  LIG1       -0.0534
      8 C          -0.1257    9.4192    0.3288 C.ar    1  LIG1       -0.0080
      9 C          -1.4386    9.7093    0.7546 C.ar    1  LIG1       -0.0065
     10 C          -1.7981   11.0204    1.1174 C.ar    1  LIG1       -0.0138
     11 C          -0.8605   12.0490    1.0529 C.ar    1  LIG1       -0.0552
     12 C           0.4335   11.7795    0.6349 C.ar    1  LIG1       -0.0516
     13 C           0.8271   10.4805    0.2660 C.ar    1  LIG1        0.0082
     14 C           2.2013   10.3091   -0.2226 C.ar    1  LIG1        0.0769
     15 N           3.1791   10.7764    0.5828 N.ar    1  LIG1       -0.2146
     16 C           2.4586    9.7751   -1.4690 C.ar    1  LIG1       -0.0145
     17 C           3.7779    9.6888   -1.8377 C.ar    1  LIG1        0.0439
     18 C           4.1450    9.0720   -3.1569 C.3     1  LIG1       -0.0222
     19 N           4.7737   10.1399   -1.0439 N.ar    1  LIG1       -0.2199
     20 C           4.4296   10.6806    0.1346 C.ar    1  LIG1        0.2133
     21 N           5.4213   11.1929    0.9174 N.pl3   1  LIG1       -0.3275
     22 H          -3.1966   12.0936    2.2952 H       1  LIG1        0.0610
     23 H          -3.7774   11.6863    0.6629 H       1  LIG1        0.0610
     24 H          -4.4361    9.1955    0.3546 H       1  LIG1        0.0610
     25 H          -4.2250    8.1969    1.8139 H       1  LIG1        0.0610
     26 H          -2.8518    6.5993    0.4931 H       1  LIG1        0.0621
     27 H          -0.5649    6.0588   -0.2697 H       1  LIG1        0.0618
     28 H           1.1550    7.7768   -0.3165 H       1  LIG1        0.0624
     29 H          -1.1312   13.0654    1.3287 H       1  LIG1        0.0621
     30 H           1.1526   12.5949    0.5731 H       1  LIG1        0.0624
     31 H           1.6558    9.4407   -2.1134 H       1  LIG1        0.0657
     32 H           3.2544    8.7482   -3.7092 H       1  LIG1        0.0293
     33 H           4.7740    8.1923   -2.9979 H       1  LIG1        0.0293
     34 H           4.6799    9.7933   -3.7797 H       1  LIG1        0.0293
     35 H           6.3703   11.0764    0.6109 H       1  LIG1        0.1452
     36 H           5.1702   11.5642    1.8193 H       1  LIG1        0.1452
@<TRIPOS>BOND
     1     1     2    1
     2     1    10    1
     3     1    22    1
     4     1    23    1
     5     2     3    1
     6     3     4    1
     7     3    24    1
     8     3    25    1
     9     4     5   ar
    10     4     9   ar
    11     5     6   ar
    12     5    26    1
    13     6     7   ar
    14     6    27    1
    15     7     8   ar
    16     7    28    1
    17     8     9   ar
    18     8    13   ar
    19     9    10   ar
    20    10    11   ar
    21    11    12   ar
    22    11    29    1
    23    12    13   ar
    24    12    30    1
    25    13    14    1
    26    14    15   ar
    27    14    16   ar
    28    15    20   ar
    29    16    17   ar
    30    16    31    1
    31    17    18    1
    32    17    19   ar
    33    18    32    1
    34    18    33    1
    35    18    34    1
    36    19    20   ar
    37    20    21    1
    38    21    35    1
    39    21    36    1
