3B27_B2T_A_1
 OpenBabel03301717143D

 25 26  0  0  0  0  0  0  0  0999 V2000
   13.6069    4.6504   12.6985 C   0  0  0  0  0  0  0  0  0  0  0  0
   12.1814    5.4790   11.9580 S   0  0  0  0  0  0  0  0  0  0  0  0
   10.8294    4.5224   12.6178 C   0  0  0  0  0  0  0  0  0  0  0  0
   11.0588    3.2853   13.0644 N   0  0  0  0  0  0  0  0  0  0  0  0
    9.6412    5.1089   12.5611 N   0  0  0  0  0  0  0  0  0  0  0  0
    8.6269    4.3903   12.9987 C   0  0  0  0  0  0  0  0  0  0  0  0
    7.3868    4.9596   13.0049 N   0  0  0  0  0  0  0  0  0  0  0  0
    8.7269    3.1503   13.4490 N   0  0  0  0  0  0  0  0  0  0  0  0
    9.9574    2.6420   13.4394 C   0  0  0  0  0  0  0  0  0  0  0  0
   10.0957    1.2558   13.8892 C   0  0  0  0  0  0  0  0  0  0  0  0
   10.9358    0.9489   14.9765 C   0  0  0  0  0  0  0  0  0  0  0  0
   11.0636   -0.3551   15.4508 C   0  0  0  0  0  0  0  0  0  0  0  0
   10.3644   -1.3900   14.8356 C   0  0  0  0  0  0  0  0  0  0  0  0
    9.5339   -1.1138   13.7530 C   0  0  0  0  0  0  0  0  0  0  0  0
    9.4044    0.1934   13.2757 C   0  0  0  0  0  0  0  0  0  0  0  0
    8.3848    0.4207   11.8893 Cl  0  0  0  0  0  0  0  0  0  0  0  0
   14.5147    5.1609   12.3665 H   0  0  0  0  0  0  0  0  0  0  0  0
   13.6710    3.6067   12.3807 H   0  0  0  0  0  0  0  0  0  0  0  0
   13.5652    4.7051   13.7895 H   0  0  0  0  0  0  0  0  0  0  0  0
    6.5988    4.3503   13.1790 H   0  0  0  0  0  0  0  0  0  0  0  0
    7.2840    5.8530   12.5532 H   0  0  0  0  0  0  0  0  0  0  0  0
   11.4829    1.7493   15.4791 H   0  0  0  0  0  0  0  0  0  0  0  0
   11.7100   -0.5694   16.2991 H   0  0  0  0  0  0  0  0  0  0  0  0
   10.4601   -2.4102   15.1996 H   0  0  0  0  0  0  0  0  0  0  0  0
    8.9928   -1.9295   13.2691 H   0  0  0  0  0  0  0  0  0  0  0  0
  1  2  1  0  0  0  0
  1 17  1  0  0  0  0
  1 18  1  0  0  0  0
  1 19  1  0  0  0  0
  2  3  1  0  0  0  0
  3  4  2  0  0  0  0
  3  5  1  0  0  0  0
  4  9  1  0  0  0  0
  5  6  2  0  0  0  0
  6  7  1  0  0  0  0
  6  8  1  0  0  0  0
  7 20  1  0  0  0  0
  7 21  1  0  0  0  0
  8  9  2  0  0  0  0
  9 10  1  0  0  0  0
 10 11  2  0  0  0  0
 10 15  1  0  0  0  0
 11 12  1  0  0  0  0
 11 22  1  0  0  0  0
 12 13  2  0  0  0  0
 12 23  1  0  0  0  0
 13 14  1  0  0  0  0
 13 24  1  0  0  0  0
 14 15  2  0  0  0  0
 14 25  1  0  0  0  0
 15 16  1  0  0  0  0
M  END
$$$$
