@<TRIPOS>MOLECULE
3B27_B2T_A_1
 25 26 0 0 0
SMALL
USER_CHARGES

@<TRIPOS>ATOM
      1 C          13.6069    4.6504   12.6985 C.3     1  LIG1       -0.0106
      2 S          12.1814    5.4790   11.9580 S.3     1  LIG1       -0.0893
      3 C          10.8294    4.5224   12.6178 C.ar    1  LIG1        0.1929
      4 N          11.0588    3.2853   13.0644 N.ar    1  LIG1       -0.2020
      5 N           9.6412    5.1089   12.5611 N.ar    1  LIG1       -0.1889
      6 C           8.6269    4.3903   12.9987 C.ar    1  LIG1        0.2168
      7 N           7.3868    4.9596   13.0049 N.pl3   1  LIG1       -0.3274
      8 N           8.7269    3.1503   13.4490 N.ar    1  LIG1       -0.1948
      9 C           9.9574    2.6420   13.4394 C.ar    1  LIG1        0.1674
     10 C          10.0957    1.2558   13.8892 C.ar    1  LIG1        0.0376
     11 C          10.9358    0.9489   14.9765 C.ar    1  LIG1       -0.0496
     12 C          11.0636   -0.3551   15.4508 C.ar    1  LIG1       -0.0610
     13 C          10.3644   -1.3900   14.8356 C.ar    1  LIG1       -0.0603
     14 C           9.5339   -1.1138   13.7530 C.ar    1  LIG1       -0.0427
     15 C           9.4044    0.1934   13.2757 C.ar    1  LIG1        0.0516
     16 CL          8.3848    0.4207   11.8893 Cl      1  LIG1       -0.0828
     17 H          14.5147    5.1609   12.3665 H       1  LIG1        0.0345
     18 H          13.6710    3.6067   12.3807 H       1  LIG1        0.0345
     19 H          13.5652    4.7051   13.7895 H       1  LIG1        0.0345
     20 H           6.5988    4.3503   13.1790 H       1  LIG1        0.1452
     21 H           7.2840    5.8530   12.5532 H       1  LIG1        0.1452
     22 H          11.4829    1.7493   15.4791 H       1  LIG1        0.0625
     23 H          11.7100   -0.5694   16.2991 H       1  LIG1        0.0618
     24 H          10.4601   -2.4102   15.1996 H       1  LIG1        0.0618
     25 H           8.9928   -1.9295   13.2691 H       1  LIG1        0.0632
@<TRIPOS>BOND
     1     1     2    1
     2     1    17    1
     3     1    18    1
     4     1    19    1
     5     2     3    1
     6     3     4   ar
     7     3     5   ar
     8     4     9   ar
     9     5     6   ar
    10     6     7    1
    11     6     8   ar
    12     7    20    1
    13     7    21    1
    14     8     9   ar
    15     9    10    1
    16    10    11   ar
    17    10    15   ar
    18    11    12   ar
    19    11    22    1
    20    12    13   ar
    21    12    23    1
    22    13    14   ar
    23    13    24    1
    24    14    15   ar
    25    14    25    1
    26    15    16    1
