REMARK  3 active torsions:
REMARK  status: ('A' for Active; 'I' for Inactive)
REMARK    1  A    between atoms: S_2  and  C_3 
REMARK    2  A    between atoms: C_6  and  N_7 
REMARK    3  A    between atoms: C_9  and  C_10 
ROOT
ATOM      1  C   LIG d   1      10.829   4.522  12.618  0.00  0.00     0.193 A 
ATOM      2  N   LIG d   1      11.059   3.285  13.064  0.00  0.00    -0.202 NA
ATOM      3  N   LIG d   1       9.641   5.109  12.561  0.00  0.00    -0.189 NA
ATOM      4  C   LIG d   1       8.627   4.390  12.999  0.00  0.00     0.217 A 
ATOM      5  N   LIG d   1       8.727   3.150  13.449  0.00  0.00    -0.195 NA
ATOM      6  C   LIG d   1       9.957   2.642  13.439  0.00  0.00     0.167 A 
ENDROOT
BRANCH   6   7
ATOM      7  C   LIG d   1      10.096   1.256  13.889  0.00  0.00     0.038 A 
ATOM      8  C   LIG d   1      10.936   0.949  14.976  0.00  0.00     0.013 A 
ATOM      9  C   LIG d   1      11.064  -0.355  15.451  0.00  0.00     0.001 A 
ATOM     10  C   LIG d   1      10.364  -1.390  14.836  0.00  0.00     0.002 A 
ATOM     11  C   LIG d   1       9.534  -1.114  13.753  0.00  0.00     0.021 A 
ATOM     12  C   LIG d   1       9.404   0.193  13.276  0.00  0.00     0.052 A 
ATOM     13 CL   LIG d   1       8.385   0.421  11.889  0.00  0.00    -0.083 Cl
ENDBRANCH   6   7
BRANCH   1  14
ATOM     14  S   LIG d   1      12.181   5.479  11.958  0.00  0.00    -0.089 SA
ATOM     15  C   LIG d   1      13.607   4.650  12.698  0.00  0.00     0.093 C 
ENDBRANCH   1  14
BRANCH   4  16
ATOM     16  N   LIG d   1       7.387   4.960  13.005  0.00  0.00    -0.327 N 
ATOM     17  H   LIG d   1       6.599   4.350  13.179  0.00  0.00     0.145 HD
ATOM     18  H   LIG d   1       7.284   5.853  12.553  0.00  0.00     0.145 HD
ENDBRANCH   4  16
TORSDOF 3
