3B28_B2X_A_237
 OpenBabel03301717153D

 36 39  0  0  0  0  0  0  0  0999 V2000
  -23.8871   23.2748  -23.0154 C   0  0  0  0  0  0  0  0  0  0  0  0
  -24.5532   23.9293  -24.0957 O   0  0  0  0  0  0  0  0  0  0  0  0
  -25.5302   23.0667  -24.6793 C   0  0  0  0  0  0  0  0  0  0  0  0
  -26.5714   22.6855  -23.6577 C   0  0  0  0  0  0  0  0  0  0  0  0
  -27.8804   22.3955  -24.0552 C   0  0  0  0  0  0  0  0  0  0  0  0
  -28.8279   22.0479  -23.1045 C   0  0  0  0  0  0  0  0  0  0  0  0
  -28.4650   21.9609  -21.7578 C   0  0  0  0  0  0  0  0  0  0  0  0
  -27.1440   22.2106  -21.3108 C   0  0  0  0  0  0  0  0  0  0  0  0
  -26.2002   22.5890  -22.3029 C   0  0  0  0  0  0  0  0  0  0  0  0
  -24.8723   22.8894  -21.9444 C   0  0  0  0  0  0  0  0  0  0  0  0
  -24.4688   22.7843  -20.6196 C   0  0  0  0  0  0  0  0  0  0  0  0
  -25.3766   22.4017  -19.6314 C   0  0  0  0  0  0  0  0  0  0  0  0
  -24.7309   22.2512  -18.0272 Cl  0  0  0  0  0  0  0  0  0  0  0  0
  -26.7239   22.1161  -19.9438 C   0  0  0  0  0  0  0  0  0  0  0  0
  -27.6612   21.7210  -18.8763 C   0  0  0  0  0  0  0  0  0  0  0  0
  -28.2467   20.5290  -18.9817 N   0  0  0  0  0  0  0  0  0  0  0  0
  -27.8477   22.5833  -17.8816 N   0  0  0  0  0  0  0  0  0  0  0  0
  -28.6525   22.1680  -16.9196 C   0  0  0  0  0  0  0  0  0  0  0  0
  -28.8736   23.0140  -15.8706 N   0  0  0  0  0  0  0  0  0  0  0  0
  -29.2705   21.0000  -16.9078 N   0  0  0  0  0  0  0  0  0  0  0  0
  -29.0467   20.2270  -17.9657 C   0  0  0  0  0  0  0  0  0  0  0  0
  -29.8875   18.6581  -17.9663 S   0  0  0  0  0  0  0  0  0  0  0  0
  -29.7435   18.1935  -19.7085 C   0  0  0  0  0  0  0  0  0  0  0  0
  -23.1472   23.9748  -22.6141 H   0  0  0  0  0  0  0  0  0  0  0  0
  -23.3575   22.3904  -23.3896 H   0  0  0  0  0  0  0  0  0  0  0  0
  -25.0370   22.1719  -25.0785 H   0  0  0  0  0  0  0  0  0  0  0  0
  -25.9896   23.6101  -25.5110 H   0  0  0  0  0  0  0  0  0  0  0  0
  -28.1704   22.4591  -25.1015 H   0  0  0  0  0  0  0  0  0  0  0  0
  -29.8556   21.8468  -23.4008 H   0  0  0  0  0  0  0  0  0  0  0  0
  -29.2512   21.6948  -21.0525 H   0  0  0  0  0  0  0  0  0  0  0  0
  -23.4377   23.0058  -20.3520 H   0  0  0  0  0  0  0  0  0  0  0  0
  -29.3669   22.6465  -15.0740 H   0  0  0  0  0  0  0  0  0  0  0  0
  -28.3044   23.8427  -15.8165 H   0  0  0  0  0  0  0  0  0  0  0  0
  -30.2181   17.2179  -19.8498 H   0  0  0  0  0  0  0  0  0  0  0  0
  -28.6963   18.1072  -20.0105 H   0  0  0  0  0  0  0  0  0  0  0  0
  -30.2553   18.9184  -20.3486 H   0  0  0  0  0  0  0  0  0  0  0  0
  1  2  1  0  0  0  0
  1 10  1  0  0  0  0
  1 24  1  0  0  0  0
  1 25  1  0  0  0  0
  2  3  1  0  0  0  0
  3  4  1  0  0  0  0
  3 26  1  0  0  0  0
  3 27  1  0  0  0  0
  4  5  2  0  0  0  0
  4  9  1  0  0  0  0
  5  6  1  0  0  0  0
  5 28  1  0  0  0  0
  6  7  2  0  0  0  0
  6 29  1  0  0  0  0
  7  8  1  0  0  0  0
  7 30  1  0  0  0  0
  8  9  2  0  0  0  0
  8 14  1  0  0  0  0
  9 10  1  0  0  0  0
 10 11  2  0  0  0  0
 11 12  1  0  0  0  0
 11 31  1  0  0  0  0
 12 13  1  0  0  0  0
 12 14  2  0  0  0  0
 14 15  1  0  0  0  0
 15 16  2  0  0  0  0
 15 17  1  0  0  0  0
 16 21  1  0  0  0  0
 17 18  2  0  0  0  0
 18 19  1  0  0  0  0
 18 20  1  0  0  0  0
 19 32  1  0  0  0  0
 19 33  1  0  0  0  0
 20 21  2  0  0  0  0
 21 22  1  0  0  0  0
 22 23  1  0  0  0  0
 23 34  1  0  0  0  0
 23 35  1  0  0  0  0
 23 36  1  0  0  0  0
M  END
$$$$
