@<TRIPOS>MOLECULE
3B28_B2X_A_237
 36 39 0 0 0
SMALL
USER_CHARGES

@<TRIPOS>ATOM
      1 C         -23.8871   23.2748  -23.0154 C.3     1  LIG1        0.0737
      2 O         -24.5532   23.9293  -24.0957 O.3     1  LIG1       -0.3706
      3 C         -25.5302   23.0667  -24.6793 C.3     1  LIG1        0.0737
      4 C         -26.5714   22.6855  -23.6577 C.ar    1  LIG1       -0.0139
      5 C         -27.8804   22.3955  -24.0552 C.ar    1  LIG1       -0.0558
      6 C         -28.8279   22.0479  -23.1045 C.ar    1  LIG1       -0.0608
      7 C         -28.4650   21.9609  -21.7578 C.ar    1  LIG1       -0.0533
      8 C         -27.1440   22.2106  -21.3108 C.ar    1  LIG1       -0.0051
      9 C         -26.2002   22.5890  -22.3029 C.ar    1  LIG1       -0.0064
     10 C         -24.8723   22.8894  -21.9444 C.ar    1  LIG1       -0.0125
     11 C         -24.4688   22.7843  -20.6196 C.ar    1  LIG1       -0.0367
     12 C         -25.3766   22.4017  -19.6314 C.ar    1  LIG1        0.0526
     13 CL        -24.7309   22.2512  -18.0272 Cl      1  LIG1       -0.0828
     14 C         -26.7239   22.1161  -19.9438 C.ar    1  LIG1        0.0453
     15 C         -27.6612   21.7210  -18.8763 C.ar    1  LIG1        0.1680
     16 N         -28.2467   20.5290  -18.9817 N.ar    1  LIG1       -0.2020
     17 N         -27.8477   22.5833  -17.8816 N.ar    1  LIG1       -0.1948
     18 C         -28.6525   22.1680  -16.9196 C.ar    1  LIG1        0.2168
     19 N         -28.8736   23.0140  -15.8706 N.pl3   1  LIG1       -0.3274
     20 N         -29.2705   21.0000  -16.9078 N.ar    1  LIG1       -0.1889
     21 C         -29.0467   20.2270  -17.9657 C.ar    1  LIG1        0.1929
     22 S         -29.8875   18.6581  -17.9663 S.3     1  LIG1       -0.0893
     23 C         -29.7435   18.1935  -19.7085 C.3     1  LIG1       -0.0106
     24 H         -23.1472   23.9748  -22.6141 H       1  LIG1        0.0610
     25 H         -23.3575   22.3904  -23.3896 H       1  LIG1        0.0610
     26 H         -25.0370   22.1719  -25.0785 H       1  LIG1        0.0610
     27 H         -25.9896   23.6101  -25.5110 H       1  LIG1        0.0610
     28 H         -28.1704   22.4591  -25.1015 H       1  LIG1        0.0621
     29 H         -29.8556   21.8468  -23.4008 H       1  LIG1        0.0618
     30 H         -29.2512   21.6948  -21.0525 H       1  LIG1        0.0624
     31 H         -23.4377   23.0058  -20.3520 H       1  LIG1        0.0636
     32 H         -29.3669   22.6465  -15.0740 H       1  LIG1        0.1452
     33 H         -28.3044   23.8427  -15.8165 H       1  LIG1        0.1452
     34 H         -30.2181   17.2179  -19.8498 H       1  LIG1        0.0345
     35 H         -28.6963   18.1072  -20.0105 H       1  LIG1        0.0345
     36 H         -30.2553   18.9184  -20.3486 H       1  LIG1        0.0345
@<TRIPOS>BOND
     1     1     2    1
     2     1    10    1
     3     1    24    1
     4     1    25    1
     5     2     3    1
     6     3     4    1
     7     3    26    1
     8     3    27    1
     9     4     5   ar
    10     4     9   ar
    11     5     6   ar
    12     5    28    1
    13     6     7   ar
    14     6    29    1
    15     7     8   ar
    16     7    30    1
    17     8     9   ar
    18     8    14   ar
    19     9    10   ar
    20    10    11   ar
    21    11    12   ar
    22    11    31    1
    23    12    13    1
    24    12    14   ar
    25    14    15    1
    26    15    16   ar
    27    15    17   ar
    28    16    21   ar
    29    17    18   ar
    30    18    19    1
    31    18    20   ar
    32    19    32    1
    33    19    33    1
    34    20    21   ar
    35    21    22    1
    36    22    23    1
    37    23    34    1
    38    23    35    1
    39    23    36    1
