3HEK_BD0_A_901
 OpenBabel03301717163D

 53 56  0  0  1  0  0  0  0  0999 V2000
   16.9567   -0.4030   48.8577 C   0  0  0  0  0  0  0  0  0  0  0  0
   16.1604   -1.4504   49.3394 C   0  0  0  0  0  0  0  0  0  0  0  0
   14.8073   -1.2322   49.6586 C   0  0  0  0  0  0  0  0  0  0  0  0
   14.2730    0.0568   49.5341 C   0  0  0  0  0  0  0  0  0  0  0  0
   16.7416   -2.8260   49.4569 C   0  0  0  0  0  0  0  0  0  0  0  0
   16.9959   -3.3392   50.7311 N   0  0  0  0  0  0  0  0  0  0  0  0
   17.6113   -4.6556   50.8105 C   0  0  0  0  0  0  0  0  0  0  0  0
   17.8775   -3.5741   52.9482 C   0  0  0  0  0  0  0  0  0  0  0  0
   15.7006   -2.4358   52.7640 C   0  0  0  0  0  0  0  0  0  0  0  0
   13.3270   -2.0714   54.2811 C   0  0  0  0  0  0  0  0  0  0  0  0
   12.0718   -1.9200   55.1101 C   0  0  0  0  0  0  0  0  0  0  0  0
    9.0424   -0.9385   53.2219 C   0  0  0  0  0  0  0  0  0  0  0  0
    9.8798   -1.0383   55.4888 C   0  0  0  0  0  0  0  0  0  0  0  0
   14.5672    2.3862   48.9660 O   0  0  0  0  0  0  0  0  0  0  0  0
   15.2373    3.0065   48.6413 H   0  0  0  0  0  0  0  0  0  0  0  0
   15.0856    1.1114   49.0787 C   0  0  0  0  0  0  0  0  0  0  0  0
   16.4192    0.8865   48.7335 C   0  0  0  0  0  0  0  0  0  0  0  0
   18.2705   -0.6473   48.5431 O   0  0  0  0  0  0  0  0  0  0  0  0
   12.6134    0.3112   49.9609 Cl  0  0  0  0  0  0  0  0  0  0  0  0
   16.9006   -3.4808   48.3991 O   0  0  0  0  0  0  0  0  0  0  0  0
   17.8455   -4.9452   52.2853 C   0  0  0  0  0  0  0  0  0  0  0  0
   17.0311   -2.6461   52.0385 C   0  0  2  0  0  0  0  0  0  0  0  0
   14.6856   -3.4011   52.7475 C   0  0  0  0  0  0  0  0  0  0  0  0
   13.5095   -3.2185   53.4876 C   0  0  0  0  0  0  0  0  0  0  0  0
   11.0092   -1.0941   54.5389 N   0  0  0  0  0  0  0  0  0  0  0  0
   10.4143   -1.6097   53.3017 C   0  0  0  0  0  0  0  0  0  0  0  0
    8.7173   -0.5547   54.6504 C   0  0  0  0  0  0  0  0  0  0  0  0
    7.5588   -1.1161   55.0616 F   0  0  0  0  0  0  0  0  0  0  0  0
    8.5843    0.7871   54.7652 F   0  0  0  0  0  0  0  0  0  0  0  0
   14.3505   -1.1125   54.3261 C   0  0  0  0  0  0  0  0  0  0  0  0
   15.5287   -1.2973   53.5871 C   0  0  0  0  0  0  0  0  0  0  0  0
   14.1755   -2.0536   49.9997 H   0  0  0  0  0  0  0  0  0  0  0  0
   18.5663   -4.6623   50.2713 H   0  0  0  0  0  0  0  0  0  0  0  0
   16.9519   -5.4009   50.3647 H   0  0  0  0  0  0  0  0  0  0  0  0
   18.9156   -3.2332   53.0333 H   0  0  0  0  0  0  0  0  0  0  0  0
   17.4734   -3.6532   53.9656 H   0  0  0  0  0  0  0  0  0  0  0  0
   12.3573   -1.4645   56.0687 H   0  0  0  0  0  0  0  0  0  0  0  0
   11.6776   -2.9170   55.3427 H   0  0  0  0  0  0  0  0  0  0  0  0
    8.2920   -1.6207   52.8083 H   0  0  0  0  0  0  0  0  0  0  0  0
    9.0914   -0.0444   52.5909 H   0  0  0  0  0  0  0  0  0  0  0  0
   10.0899   -0.3420   56.3057 H   0  0  0  0  0  0  0  0  0  0  0  0
    9.6517   -2.0266   55.9140 H   0  0  0  0  0  0  0  0  0  0  0  0
   17.0383    1.6977   48.3800 H   0  0  0  0  0  0  0  0  0  0  0  0
   18.7326    0.1408   48.2131 H   0  0  0  0  0  0  0  0  0  0  0  0
   18.7774   -5.5011   52.4442 H   0  0  0  0  0  0  0  0  0  0  0  0
   17.0294   -5.5587   52.6854 H   0  0  0  0  0  0  0  0  0  0  0  0
   17.4891   -1.6581   51.8835 H   0  0  0  0  0  0  0  0  0  0  0  0
   14.8022   -4.3096   52.1572 H   0  0  0  0  0  0  0  0  0  0  0  0
   12.7323   -3.9796   53.4501 H   0  0  0  0  0  0  0  0  0  0  0  0
   11.0210   -1.3497   52.4286 H   0  0  0  0  0  0  0  0  0  0  0  0
   10.2856   -2.7000   53.3246 H   0  0  0  0  0  0  0  0  0  0  0  0
   14.2301   -0.2211   54.9398 H   0  0  0  0  0  0  0  0  0  0  0  0
   16.3123   -0.5443   53.6550 H   0  0  0  0  0  0  0  0  0  0  0  0
  1  2  2  0  0  0  0
  1 17  1  0  0  0  0
  1 18  1  0  0  0  0
  2  3  1  0  0  0  0
  2  5  1  0  0  0  0
  3  4  2  0  0  0  0
  3 32  1  0  0  0  0
  4 16  1  0  0  0  0
  4 19  1  0  0  0  0
  5  6  1  0  0  0  0
  5 20  2  0  0  0  0
  6  7  1  0  0  0  0
  6 22  1  0  0  0  0
  7 21  1  0  0  0  0
  7 33  1  0  0  0  0
  7 34  1  0  0  0  0
  8 21  1  0  0  0  0
  8 22  1  0  0  0  0
  8 35  1  0  0  0  0
  8 36  1  0  0  0  0
  9 22  1  0  0  0  0
  9 23  2  0  0  0  0
  9 31  1  0  0  0  0
 10 11  1  0  0  0  0
 10 24  2  0  0  0  0
 10 30  1  0  0  0  0
 11 25  1  0  0  0  0
 11 37  1  0  0  0  0
 11 38  1  0  0  0  0
 12 26  1  0  0  0  0
 12 27  1  0  0  0  0
 12 39  1  0  0  0  0
 12 40  1  0  0  0  0
 13 25  1  0  0  0  0
 13 27  1  0  0  0  0
 13 41  1  0  0  0  0
 13 42  1  0  0  0  0
 14 15  1  0  0  0  0
 14 16  1  0  0  0  0
 16 17  2  0  0  0  0
 17 43  1  0  0  0  0
 18 44  1  0  0  0  0
 21 45  1  0  0  0  0
 21 46  1  0  0  0  0
 22 47  1  6  0  0  0
 23 24  1  0  0  0  0
 23 48  1  0  0  0  0
 24 49  1  0  0  0  0
 25 26  1  0  0  0  0
 26 50  1  0  0  0  0
 26 51  1  0  0  0  0
 27 28  1  0  0  0  0
 27 29  1  0  0  0  0
 30 31  2  0  0  0  0
 30 52  1  0  0  0  0
 31 53  1  0  0  0  0
M  END
$$$$
