@<TRIPOS>MOLECULE
3HEK_BD0_A_901
 53 56 0 0 0
SMALL
USER_CHARGES

@<TRIPOS>ATOM
      1 C          16.9567   -0.4030   48.8577 C.ar    1  LIG1        0.1325
      2 C          16.1604   -1.4504   49.3394 C.ar    1  LIG1        0.0798
      3 C          14.8073   -1.2322   49.6586 C.ar    1  LIG1       -0.0242
      4 C          14.2730    0.0568   49.5341 C.ar    1  LIG1        0.0832
      5 C          16.7416   -2.8260   49.4569 C.2     1  LIG1        0.2507
      6 N          16.9959   -3.3392   50.7311 N.am    1  LIG1       -0.2904
      7 C          17.6113   -4.6556   50.8105 C.3     1  LIG1        0.0157
      8 C          17.8775   -3.5741   52.9482 C.3     1  LIG1       -0.0287
      9 C          15.7006   -2.4358   52.7640 C.ar    1  LIG1       -0.0270
     10 C          13.3270   -2.0714   54.2811 C.ar    1  LIG1       -0.0333
     11 C          12.0718   -1.9200   55.1101 C.3     1  LIG1        0.0242
     12 C           9.0424   -0.9385   53.2219 C.3     1  LIG1        0.0248
     13 C           9.8798   -1.0383   55.4888 C.3     1  LIG1        0.0628
     14 O          14.5672    2.3862   48.9660 O.3     1  LIG1       -0.5052
     15 H          15.2373    3.0065   48.6413 H       1  LIG1        0.2922
     16 C          15.0856    1.1114   49.0787 C.ar    1  LIG1        0.1386
     17 C          16.4192    0.8865   48.7335 C.ar    1  LIG1        0.0235
     18 O          18.2705   -0.6473   48.5431 O.3     1  LIG1       -0.5059
     19 CL         12.6134    0.3112   49.9609 Cl      1  LIG1       -0.0797
     20 O          16.9006   -3.4808   48.3991 O.2     1  LIG1       -0.2698
     21 C          17.8455   -4.9452   52.2853 C.3     1  LIG1       -0.0351
     22 C          17.0311   -2.6461   52.0385 C.3     1  LIG1        0.0515
     23 C          14.6856   -3.4011   52.7475 C.ar    1  LIG1       -0.0565
     24 C          13.5095   -3.2185   53.4876 C.ar    1  LIG1       -0.0570
     25 N          11.0092   -1.0941   54.5389 N.3     1  LIG1       -0.2924
     26 C          10.4143   -1.6097   53.3017 C.3     1  LIG1        0.0049
     27 C           8.7173   -0.5547   54.6504 C.3     1  LIG1        0.2625
     28 F           7.5588   -1.1161   55.0616 F       1  LIG1       -0.2042
     29 F           8.5843    0.7871   54.7652 F       1  LIG1       -0.2042
     30 C          14.3505   -1.1125   54.3261 C.ar    1  LIG1       -0.0570
     31 C          15.5287   -1.2973   53.5871 C.ar    1  LIG1       -0.0565
     32 H          14.1755   -2.0536   49.9997 H       1  LIG1        0.0642
     33 H          18.5663   -4.6623   50.2713 H       1  LIG1        0.0465
     34 H          16.9519   -5.4009   50.3647 H       1  LIG1        0.0465
     35 H          18.9156   -3.2332   53.0333 H       1  LIG1        0.0287
     36 H          17.4734   -3.6532   53.9656 H       1  LIG1        0.0287
     37 H          12.3573   -1.4645   56.0687 H       1  LIG1        0.0476
     38 H          11.6776   -2.9170   55.3427 H       1  LIG1        0.0476
     39 H           8.2920   -1.6207   52.8083 H       1  LIG1        0.0335
     40 H           9.0914   -0.0444   52.5909 H       1  LIG1        0.0335
     41 H          10.0899   -0.3420   56.3057 H       1  LIG1        0.0485
     42 H           9.6517   -2.0266   55.9140 H       1  LIG1        0.0485
     43 H          17.0383    1.6977   48.3800 H       1  LIG1        0.0691
     44 H          18.7326    0.1408   48.2131 H       1  LIG1        0.2922
     45 H          18.7774   -5.5011   52.4442 H       1  LIG1        0.0281
     46 H          17.0294   -5.5587   52.6854 H       1  LIG1        0.0281
     47 H          17.4891   -1.6581   51.8835 H       1  LIG1        0.0550
     48 H          14.8022   -4.3096   52.1572 H       1  LIG1        0.0621
     49 H          12.7323   -3.9796   53.4501 H       1  LIG1        0.0621
     50 H          11.0210   -1.3497   52.4286 H       1  LIG1        0.0428
     51 H          10.2856   -2.7000   53.3246 H       1  LIG1        0.0428
     52 H          14.2301   -0.2211   54.9398 H       1  LIG1        0.0621
     53 H          16.3123   -0.5443   53.6550 H       1  LIG1        0.0621
@<TRIPOS>BOND
     1     1     2   ar
     2     1    17   ar
     3     1    18    1
     4     2     3   ar
     5     2     5    1
     6     3     4   ar
     7     3    32    1
     8     4    16   ar
     9     4    19    1
    10     5     6   am
    11     5    20    2
    12     6     7    1
    13     6    22    1
    14     7    21    1
    15     7    33    1
    16     7    34    1
    17     8    21    1
    18     8    22    1
    19     8    35    1
    20     8    36    1
    21     9    22    1
    22     9    23   ar
    23     9    31   ar
    24    10    11    1
    25    10    24   ar
    26    10    30   ar
    27    11    25    1
    28    11    37    1
    29    11    38    1
    30    12    26    1
    31    12    27    1
    32    12    39    1
    33    12    40    1
    34    13    25    1
    35    13    27    1
    36    13    41    1
    37    13    42    1
    38    14    15    1
    39    14    16    1
    40    16    17   ar
    41    17    43    1
    42    18    44    1
    43    21    45    1
    44    21    46    1
    45    22    47    1
    46    23    24   ar
    47    23    48    1
    48    24    49    1
    49    25    26    1
    50    26    50    1
    51    26    51    1
    52    27    28    1
    53    27    29    1
    54    30    31   ar
    55    30    52    1
    56    31    53    1
