REMARK  7 active torsions:
REMARK  status: ('A' for Active; 'I' for Inactive)
REMARK    1  A    between atoms: O_2  and  C_3 
REMARK    2  A    between atoms: C_8  and  C_9 
REMARK    3  A    between atoms: C_10  and  C_11 
REMARK       I    between atoms: C_11  and  N_13 
REMARK    4  A    between atoms: N_13  and  C_14 
REMARK    5  A    between atoms: C_18  and  C_19 
REMARK    6  A    between atoms: C_23  and  O_24 
REMARK    7  A    between atoms: C_27  and  O_28 
ROOT
ATOM      1  C   LIG d   1      31.648   8.537  26.156  0.00  0.00     0.040 A 
ATOM      2  C   LIG d   1      31.293   8.172  27.488  0.00  0.00     0.155 A 
ATOM      3  N   LIG d   1      30.424   9.055  28.024  0.00  0.00    -0.168 NA
ATOM      4  N   LIG d   1      30.165   9.898  27.003  0.00  0.00    -0.276 N 
ATOM      5  C   LIG d   1      30.927   9.688  25.885  0.00  0.00     0.078 A 
ATOM      6  H   LIG d   1      29.470  10.626  27.137  0.00  0.00     0.189 HD
ENDROOT
BRANCH   5   7
ATOM      7  C   LIG d   1      30.890  10.561  24.718  0.00  0.00     0.043 A 
ATOM      8  C   LIG d   1      32.095  11.054  24.196  0.00  0.00     0.037 A 
ATOM      9  C   LIG d   1      32.099  11.828  23.038  0.00  0.00     0.083 A 
ATOM     10 CL   LIG d   1      33.608  12.409  22.436  0.00  0.00    -0.080 Cl
ATOM     11  C   LIG d   1      30.895  12.111  22.387  0.00  0.00     0.139 A 
ATOM     12  C   LIG d   1      29.684  11.642  22.901  0.00  0.00     0.092 A 
ATOM     13  C   LIG d   1      29.689  10.882  24.071  0.00  0.00     0.130 A 
BRANCH  11  14
ATOM     14  O   LIG d   1      30.907  12.859  21.241  0.00  0.00    -0.505 OA
ATOM     15  H   LIG d   1      30.004  12.949  20.894  0.00  0.00     0.292 HD
ENDBRANCH  11  14
BRANCH  13  16
ATOM     16  O   LIG d   1      28.507  10.433  24.600  0.00  0.00    -0.506 OA
ATOM     17  H   LIG d   1      27.776  10.644  23.995  0.00  0.00     0.292 HD
ENDBRANCH  13  16
ENDBRANCH   5   7
BRANCH   1  18
ATOM     18  C   LIG d   1      32.596   7.918  25.252  0.00  0.00    -0.013 A 
ATOM     19  C   LIG d   1      32.200   7.477  23.989  0.00  0.00     0.012 A 
ATOM     20  C   LIG d   1      33.122   6.864  23.135  0.00  0.00     0.046 A 
ATOM     21  C   LIG d   1      34.446   6.682  23.540  0.00  0.00     0.120 A 
ATOM     22  C   LIG d   1      34.843   7.129  24.800  0.00  0.00     0.046 A 
ATOM     23  C   LIG d   1      33.924   7.750  25.652  0.00  0.00     0.012 A 
BRANCH  21  24
ATOM     24  O   LIG d   1      35.434   6.090  22.801  0.00  0.00    -0.495 OA
ATOM     25  C   LIG d   1      35.035   5.523  21.559  0.00  0.00     0.277 C 
ENDBRANCH  21  24
ENDBRANCH   1  18
BRANCH   2  26
ATOM     26  C   LIG d   1      31.794   7.013  28.234  0.00  0.00     0.265 C 
ATOM     27  O   LIG d   1      32.242   6.006  27.698  0.00  0.00    -0.268 OA
ATOM     28  N   LIG d   1      31.715   7.172  29.604  0.00  0.00    -0.310 N 
ATOM     29  H   LIG d   1      31.185   7.984  29.908  0.00  0.00     0.149 HD
BRANCH  28  30
ATOM     30  C   LIG d   1      32.051   6.126  30.545  0.00  0.00     0.101 C 
ATOM     31  C   LIG d   1      33.464   5.583  30.389  0.00  0.00     0.024 C 
ENDBRANCH  28  30
ENDBRANCH   2  26
TORSDOF 7
