@<TRIPOS>MOLECULE
2BSM_BSM_A_1224
 45 47 0 0 0
SMALL
USER_CHARGES

@<TRIPOS>ATOM
      1 C          35.0350    5.5228   21.5592 C.3     1  LIG1        0.0788
      2 O          35.4343    6.0905   22.8009 O.3     1  LIG1       -0.4951
      3 C          34.4455    6.6820   23.5400 C.ar    1  LIG1        0.1201
      4 C          33.1224    6.8638   23.1354 C.ar    1  LIG1       -0.0194
      5 C          32.1999    7.4766   23.9892 C.ar    1  LIG1       -0.0504
      6 C          34.8425    7.1293   24.8000 C.ar    1  LIG1       -0.0194
      7 C          33.9238    7.7501   25.6516 C.ar    1  LIG1       -0.0504
      8 C          32.5963    7.9176   25.2520 C.ar    1  LIG1       -0.0134
      9 C          31.6478    8.5369   26.1556 C.ar    1  LIG1        0.0397
     10 C          31.2933    8.1723   27.4881 C.ar    1  LIG1        0.1551
     11 C          31.7941    7.0127   28.2340 C.2     1  LIG1        0.2648
     12 O          32.2423    6.0058   27.6980 O.2     1  LIG1       -0.2684
     13 N          31.7153    7.1716   29.6041 N.am    1  LIG1       -0.3103
     14 C          32.0509    6.1262   30.5449 C.3     1  LIG1        0.0091
     15 C          33.4638    5.5830   30.3894 C.3     1  LIG1       -0.0495
     16 N          30.4236    9.0552   28.0243 N.ar    1  LIG1       -0.1680
     17 N          30.1649    9.8976   27.0026 N.ar    1  LIG1       -0.2755
     18 C          30.9273    9.6882   25.8851 C.ar    1  LIG1        0.0777
     19 C          30.8896   10.5612   24.7184 C.ar    1  LIG1        0.0434
     20 C          32.0948   11.0541   24.1959 C.ar    1  LIG1       -0.0272
     21 C          32.0987   11.8284   23.0385 C.ar    1  LIG1        0.0831
     22 CL         33.6083   12.4085   22.4360 Cl      1  LIG1       -0.0797
     23 C          30.8947   12.1113   22.3870 C.ar    1  LIG1        0.1386
     24 O          30.9071   12.8589   21.2406 O.3     1  LIG1       -0.5052
     25 H          30.0041   12.9494   20.8937 H       1  LIG1        0.2922
     26 C          29.6838   11.6417   22.9012 C.ar    1  LIG1        0.0234
     27 C          29.6887   10.8821   24.0710 C.ar    1  LIG1        0.1296
     28 O          28.5070   10.4328   24.6004 O.3     1  LIG1       -0.5060
     29 H          35.9170    5.0788   21.0915 H       1  LIG1        0.0660
     30 H          34.6499    6.2915   20.8806 H       1  LIG1        0.0660
     31 H          34.2982    4.7260   21.7125 H       1  LIG1        0.0660
     32 H          32.7709    6.5343   22.1623 H       1  LIG1        0.0654
     33 H          31.1678    7.5908   23.6601 H       1  LIG1        0.0625
     34 H          35.8690    6.9855   25.1297 H       1  LIG1        0.0654
     35 H          34.2573    8.0791   26.6342 H       1  LIG1        0.0625
     36 H          31.1854    7.9836   29.9076 H       1  LIG1        0.1490
     37 H          31.3164    5.3211   30.4364 H       1  LIG1        0.0459
     38 H          31.9398    6.5583   31.5458 H       1  LIG1        0.0459
     39 H          33.6018    5.0678   29.4339 H       1  LIG1        0.0245
     40 H          33.6814    4.8585   31.1788 H       1  LIG1        0.0245
     41 H          34.2027    6.3892   30.4402 H       1  LIG1        0.0245
     42 H          29.4701   10.6256   27.1365 H       1  LIG1        0.1889
     43 H          33.0391   10.8254   24.6889 H       1  LIG1        0.0641
     44 H          28.7506   11.8633   22.3925 H       1  LIG1        0.0691
     45 H          27.7760   10.6440   23.9947 H       1  LIG1        0.2922
@<TRIPOS>BOND
     1     1     2    1
     2     1    29    1
     3     1    30    1
     4     1    31    1
     5     2     3    1
     6     3     4   ar
     7     3     6   ar
     8     4     5   ar
     9     4    32    1
    10     5     8   ar
    11     5    33    1
    12     6     7   ar
    13     6    34    1
    14     7     8   ar
    15     7    35    1
    16     8     9    1
    17     9    10   ar
    18     9    18   ar
    19    10    11    1
    20    10    16   ar
    21    11    12    2
    22    11    13   am
    23    13    14    1
    24    13    36    1
    25    14    15    1
    26    14    37    1
    27    14    38    1
    28    15    39    1
    29    15    40    1
    30    15    41    1
    31    16    17   ar
    32    17    18   ar
    33    17    42    1
    34    18    19    1
    35    19    20   ar
    36    19    27   ar
    37    20    21   ar
    38    20    43    1
    39    21    22    1
    40    21    23   ar
    41    23    24    1
    42    23    26   ar
    43    24    25    1
    44    26    27   ar
    45    26    44    1
    46    27    28    1
    47    28    45    1
