@<TRIPOS>MOLECULE
3OWB_BSM_A_1
 45 47 0 0 0
SMALL
USER_CHARGES

@<TRIPOS>ATOM
      1 C          -2.3270    5.6399   28.2539 C.3     1  LIG1        0.0788
      2 O          -2.6968    6.1831   26.9916 O.3     1  LIG1       -0.4951
      3 C          -1.6893    6.7300   26.2496 C.ar    1  LIG1        0.1201
      4 C          -2.0917    7.2431   25.0142 C.ar    1  LIG1       -0.0194
      5 C          -1.1634    7.8347   24.1577 C.ar    1  LIG1       -0.0504
      6 C          -0.3458    6.8153   26.6205 C.ar    1  LIG1       -0.0194
      7 C           0.5873    7.4119   25.7665 C.ar    1  LIG1       -0.0504
      8 C           0.1819    7.9290   24.5347 C.ar    1  LIG1       -0.0134
      9 C           1.1292    8.5519   23.6311 C.ar    1  LIG1        0.0397
     10 C           1.4663    8.2011   22.2948 C.ar    1  LIG1        0.1551
     11 C           0.9805    7.0377   21.5362 C.2     1  LIG1        0.2648
     12 O           0.4507    6.0612   22.0527 O.2     1  LIG1       -0.2684
     13 N           1.1855    7.1603   20.1810 N.am    1  LIG1       -0.3103
     14 C           0.8895    6.0964   19.2578 C.3     1  LIG1        0.0091
     15 C          -0.3129    6.4238   18.3969 C.3     1  LIG1       -0.0495
     16 N           2.3183    9.0976   21.7516 N.ar    1  LIG1       -0.1680
     17 N           2.5788    9.9419   22.7682 N.ar    1  LIG1       -0.2755
     18 C           1.8510    9.7013   23.9030 C.ar    1  LIG1        0.0777
     19 C           1.9077   10.5702   25.0728 C.ar    1  LIG1        0.0434
     20 C           0.7114   11.0800   25.5959 C.ar    1  LIG1       -0.0272
     21 C           0.7233   11.8614   26.7487 C.ar    1  LIG1        0.0831
     22 CL         -0.7758   12.4665   27.3506 Cl      1  LIG1       -0.0797
     23 C           1.9353   12.1362   27.3914 C.ar    1  LIG1        0.1386
     24 O           1.9369   12.8793   28.5389 O.3     1  LIG1       -0.5052
     25 H           2.8312   12.9098   28.9138 H       1  LIG1        0.2922
     26 C           3.1390   11.6565   26.8703 C.ar    1  LIG1        0.0234
     27 C           3.1190   10.8928   25.7020 C.ar    1  LIG1        0.1296
     28 O           4.2944   10.4450   25.1584 O.3     1  LIG1       -0.5060
     29 H          -3.2311    5.2587   28.7352 H       1  LIG1        0.0660
     30 H          -1.9025    6.4116   28.9053 H       1  LIG1        0.0660
     31 H          -1.6334    4.8016   28.1294 H       1  LIG1        0.0660
     32 H          -3.1317    7.1691   24.7076 H       1  LIG1        0.0654
     33 H          -1.4958    8.2118   23.1947 H       1  LIG1        0.0625
     34 H           0.0109    6.4161   27.5632 H       1  LIG1        0.0654
     35 H           1.6317    7.4588   26.0675 H       1  LIG1        0.0625
     36 H           1.6448    8.0139   19.8796 H       1  LIG1        0.1490
     37 H           0.7105    5.1651   19.8042 H       1  LIG1        0.0459
     38 H           1.7796    5.9573   18.6364 H       1  LIG1        0.0459
     39 H          -1.2023    6.6042   19.0110 H       1  LIG1        0.0245
     40 H          -0.5261    5.5938   17.7172 H       1  LIG1        0.0245
     41 H          -0.1319    7.3223   17.7979 H       1  LIG1        0.0245
     42 H           3.2424   10.6938   22.6196 H       1  LIG1        0.1889
     43 H          -0.2351   10.8612   25.1062 H       1  LIG1        0.0641
     44 H           4.0769   11.8779   27.3661 H       1  LIG1        0.0691
     45 H           5.0342   10.6680   25.7465 H       1  LIG1        0.2922
@<TRIPOS>BOND
     1     1     2    1
     2     1    29    1
     3     1    30    1
     4     1    31    1
     5     2     3    1
     6     3     4   ar
     7     3     6   ar
     8     4     5   ar
     9     4    32    1
    10     5     8   ar
    11     5    33    1
    12     6     7   ar
    13     6    34    1
    14     7     8   ar
    15     7    35    1
    16     8     9    1
    17     9    10   ar
    18     9    18   ar
    19    10    11    1
    20    10    16   ar
    21    11    12    2
    22    11    13   am
    23    13    14    1
    24    13    36    1
    25    14    15    1
    26    14    37    1
    27    14    38    1
    28    15    39    1
    29    15    40    1
    30    15    41    1
    31    16    17   ar
    32    17    18   ar
    33    17    42    1
    34    18    19    1
    35    19    20   ar
    36    19    27   ar
    37    20    21   ar
    38    20    43    1
    39    21    22    1
    40    21    23   ar
    41    23    24    1
    42    23    26   ar
    43    24    25    1
    44    26    27   ar
    45    26    44    1
    46    27    28    1
    47    28    45    1
