2BSM_BSM_A_1224
 OpenBabel03301717003D

 45 47  0  0  0  0  0  0  0  0999 V2000
   35.0350    5.5228   21.5592 C   0  0  0  0  0  0  0  0  0  0  0  0
   35.4343    6.0905   22.8009 O   0  0  0  0  0  0  0  0  0  0  0  0
   34.4455    6.6820   23.5400 C   0  0  0  0  0  0  0  0  0  0  0  0
   33.1224    6.8638   23.1354 C   0  0  0  0  0  0  0  0  0  0  0  0
   32.1999    7.4766   23.9892 C   0  0  0  0  0  0  0  0  0  0  0  0
   34.8425    7.1293   24.8000 C   0  0  0  0  0  0  0  0  0  0  0  0
   33.9238    7.7501   25.6516 C   0  0  0  0  0  0  0  0  0  0  0  0
   32.5963    7.9176   25.2520 C   0  0  0  0  0  0  0  0  0  0  0  0
   31.6478    8.5369   26.1556 C   0  0  0  0  0  0  0  0  0  0  0  0
   31.2933    8.1723   27.4881 C   0  0  0  0  0  0  0  0  0  0  0  0
   31.7941    7.0127   28.2340 C   0  0  0  0  0  0  0  0  0  0  0  0
   32.2423    6.0058   27.6980 O   0  0  0  0  0  0  0  0  0  0  0  0
   31.7153    7.1716   29.6041 N   0  0  0  0  0  0  0  0  0  0  0  0
   32.0509    6.1262   30.5449 C   0  0  0  0  0  0  0  0  0  0  0  0
   33.4638    5.5830   30.3894 C   0  0  0  0  0  0  0  0  0  0  0  0
   30.4236    9.0552   28.0243 N   0  0  0  0  0  0  0  0  0  0  0  0
   30.1649    9.8976   27.0026 N   0  3  0  0  0  0  0  0  0  0  0  0
   30.9273    9.6882   25.8851 C   0  0  0  0  0  0  0  0  0  0  0  0
   30.8896   10.5612   24.7184 C   0  0  0  0  0  0  0  0  0  0  0  0
   32.0948   11.0541   24.1959 C   0  0  0  0  0  0  0  0  0  0  0  0
   32.0987   11.8284   23.0385 C   0  0  0  0  0  0  0  0  0  0  0  0
   33.6083   12.4085   22.4360 Cl  0  0  0  0  0  0  0  0  0  0  0  0
   30.8947   12.1113   22.3870 C   0  0  0  0  0  0  0  0  0  0  0  0
   30.9071   12.8589   21.2406 O   0  0  0  0  0  0  0  0  0  0  0  0
   30.0041   12.9494   20.8937 H   0  0  0  0  0  0  0  0  0  0  0  0
   29.6838   11.6417   22.9012 C   0  0  0  0  0  0  0  0  0  0  0  0
   29.6887   10.8821   24.0710 C   0  0  0  0  0  0  0  0  0  0  0  0
   28.5070   10.4328   24.6004 O   0  0  0  0  0  0  0  0  0  0  0  0
   35.9170    5.0788   21.0915 H   0  0  0  0  0  0  0  0  0  0  0  0
   34.6499    6.2915   20.8806 H   0  0  0  0  0  0  0  0  0  0  0  0
   34.2982    4.7260   21.7125 H   0  0  0  0  0  0  0  0  0  0  0  0
   32.7709    6.5343   22.1623 H   0  0  0  0  0  0  0  0  0  0  0  0
   31.1678    7.5908   23.6601 H   0  0  0  0  0  0  0  0  0  0  0  0
   35.8690    6.9855   25.1297 H   0  0  0  0  0  0  0  0  0  0  0  0
   34.2573    8.0791   26.6342 H   0  0  0  0  0  0  0  0  0  0  0  0
   31.1854    7.9836   29.9076 H   0  0  0  0  0  0  0  0  0  0  0  0
   31.3164    5.3211   30.4364 H   0  0  0  0  0  0  0  0  0  0  0  0
   31.9398    6.5583   31.5458 H   0  0  0  0  0  0  0  0  0  0  0  0
   33.6018    5.0678   29.4339 H   0  0  0  0  0  0  0  0  0  0  0  0
   33.6814    4.8585   31.1788 H   0  0  0  0  0  0  0  0  0  0  0  0
   34.2027    6.3892   30.4402 H   0  0  0  0  0  0  0  0  0  0  0  0
   29.4701   10.6256   27.1365 H   0  0  0  0  0  0  0  0  0  0  0  0
   33.0391   10.8254   24.6889 H   0  0  0  0  0  0  0  0  0  0  0  0
   28.7506   11.8633   22.3925 H   0  0  0  0  0  0  0  0  0  0  0  0
   27.7760   10.6440   23.9947 H   0  0  0  0  0  0  0  0  0  0  0  0
  1  2  1  0  0  0  0
  1 29  1  0  0  0  0
  1 30  1  0  0  0  0
  1 31  1  0  0  0  0
  2  3  1  0  0  0  0
  3  4  2  0  0  0  0
  3  6  1  0  0  0  0
  4  5  1  0  0  0  0
  4 32  1  0  0  0  0
  5  8  2  0  0  0  0
  5 33  1  0  0  0  0
  6  7  2  0  0  0  0
  6 34  1  0  0  0  0
  7  8  1  0  0  0  0
  7 35  1  0  0  0  0
  8  9  1  0  0  0  0
  9 10  2  0  0  0  0
  9 18  1  0  0  0  0
 10 11  1  0  0  0  0
 10 16  1  0  0  0  0
 11 12  2  0  0  0  0
 11 13  1  0  0  0  0
 13 14  1  0  0  0  0
 13 36  1  0  0  0  0
 14 15  1  0  0  0  0
 14 37  1  0  0  0  0
 14 38  1  0  0  0  0
 15 39  1  0  0  0  0
 15 40  1  0  0  0  0
 15 41  1  0  0  0  0
 16 17  1  0  0  0  0
 17 18  2  0  0  0  0
 17 42  1  0  0  0  0
 18 19  1  0  0  0  0
 19 20  2  0  0  0  0
 19 27  1  0  0  0  0
 20 21  1  0  0  0  0
 20 43  1  0  0  0  0
 21 22  1  0  0  0  0
 21 23  2  0  0  0  0
 23 24  1  0  0  0  0
 23 26  1  0  0  0  0
 24 25  1  0  0  0  0
 26 27  2  0  0  0  0
 26 44  1  0  0  0  0
 27 28  1  0  0  0  0
 28 45  1  0  0  0  0
M  CHG  1  17   1
M  END
$$$$
