REMARK  7 active torsions:
REMARK  status: ('A' for Active; 'I' for Inactive)
REMARK    1  A    between atoms: O_2  and  C_3 
REMARK    2  A    between atoms: C_8  and  C_9 
REMARK    3  A    between atoms: C_10  and  C_11 
REMARK       I    between atoms: C_11  and  N_13 
REMARK    4  A    between atoms: N_13  and  C_14 
REMARK    5  A    between atoms: C_18  and  C_19 
REMARK    6  A    between atoms: C_23  and  O_24 
REMARK    7  A    between atoms: C_27  and  O_28 
ROOT
ATOM      1  C   LIG d   1       1.129   8.552  23.631  0.00  0.00     0.040 A 
ATOM      2  C   LIG d   1       1.466   8.201  22.295  0.00  0.00     0.155 A 
ATOM      3  N   LIG d   1       2.318   9.098  21.752  0.00  0.00    -0.168 NA
ATOM      4  N   LIG d   1       2.579   9.942  22.768  0.00  0.00    -0.276 N 
ATOM      5  C   LIG d   1       1.851   9.701  23.903  0.00  0.00     0.078 A 
ATOM      6  H   LIG d   1       3.242  10.694  22.620  0.00  0.00     0.189 HD
ENDROOT
BRANCH   5   7
ATOM      7  C   LIG d   1       1.908  10.570  25.073  0.00  0.00     0.043 A 
ATOM      8  C   LIG d   1       0.711  11.080  25.596  0.00  0.00     0.037 A 
ATOM      9  C   LIG d   1       0.723  11.861  26.749  0.00  0.00     0.083 A 
ATOM     10 CL   LIG d   1      -0.776  12.466  27.351  0.00  0.00    -0.080 Cl
ATOM     11  C   LIG d   1       1.935  12.136  27.391  0.00  0.00     0.139 A 
ATOM     12  C   LIG d   1       3.139  11.656  26.870  0.00  0.00     0.092 A 
ATOM     13  C   LIG d   1       3.119  10.893  25.702  0.00  0.00     0.130 A 
BRANCH  11  14
ATOM     14  O   LIG d   1       1.937  12.879  28.539  0.00  0.00    -0.505 OA
ATOM     15  H   LIG d   1       2.831  12.910  28.914  0.00  0.00     0.292 HD
ENDBRANCH  11  14
BRANCH  13  16
ATOM     16  O   LIG d   1       4.294  10.445  25.158  0.00  0.00    -0.506 OA
ATOM     17  H   LIG d   1       5.034  10.668  25.747  0.00  0.00     0.292 HD
ENDBRANCH  13  16
ENDBRANCH   5   7
BRANCH   1  18
ATOM     18  C   LIG d   1       0.182   7.929  24.535  0.00  0.00    -0.013 A 
ATOM     19  C   LIG d   1      -1.163   7.835  24.158  0.00  0.00     0.012 A 
ATOM     20  C   LIG d   1      -2.092   7.243  25.014  0.00  0.00     0.046 A 
ATOM     21  C   LIG d   1      -1.689   6.730  26.250  0.00  0.00     0.120 A 
ATOM     22  C   LIG d   1      -0.346   6.815  26.620  0.00  0.00     0.046 A 
ATOM     23  C   LIG d   1       0.587   7.412  25.767  0.00  0.00     0.012 A 
BRANCH  21  24
ATOM     24  O   LIG d   1      -2.697   6.183  26.992  0.00  0.00    -0.495 OA
ATOM     25  C   LIG d   1      -2.327   5.640  28.254  0.00  0.00     0.277 C 
ENDBRANCH  21  24
ENDBRANCH   1  18
BRANCH   2  26
ATOM     26  C   LIG d   1       0.981   7.038  21.536  0.00  0.00     0.265 C 
ATOM     27  O   LIG d   1       0.451   6.061  22.053  0.00  0.00    -0.268 OA
ATOM     28  N   LIG d   1       1.185   7.160  20.181  0.00  0.00    -0.310 N 
ATOM     29  H   LIG d   1       1.645   8.014  19.880  0.00  0.00     0.149 HD
BRANCH  28  30
ATOM     30  C   LIG d   1       0.889   6.096  19.258  0.00  0.00     0.101 C 
ATOM     31  C   LIG d   1      -0.313   6.424  18.397  0.00  0.00     0.024 C 
ENDBRANCH  28  30
ENDBRANCH   2  26
TORSDOF 7
