REMARK  4 active torsions:
REMARK  status: ('A' for Active; 'I' for Inactive)
REMARK    1  A    between atoms: C_6  and  O_7 
REMARK    2  A    between atoms: C_10  and  C_11 
REMARK    3  A    between atoms: C_14  and  O_18 
REMARK    4  A    between atoms: C_16  and  O_17 
ROOT
ATOM      1  C   LIG d   1      -0.861  37.494  26.841  0.00  0.00     0.046 A 
ATOM      2  C   LIG d   1      -0.268  36.449  26.123  0.00  0.00     0.017 A 
ATOM      3  C   LIG d   1       0.870  35.825  26.668  0.00  0.00     0.049 A 
ATOM      4  C   LIG d   1       1.359  36.277  27.879  0.00  0.00     0.171 A 
ATOM      5  C   LIG d   1       0.806  37.321  28.615  0.00  0.00     0.095 A 
ATOM      6  C   LIG d   1      -0.326  37.914  28.057  0.00  0.00     0.120 A 
ATOM      7  O   LIG d   1       2.447  35.545  28.225  0.00  0.00    -0.354 OA
ATOM      8  N   LIG d   1       2.688  34.586  27.260  0.00  0.00    -0.077 NA
ATOM      9  C   LIG d   1       1.756  34.765  26.309  0.00  0.00     0.125 A 
ENDROOT
BRANCH   9  10
ATOM     10  C   LIG d   1       1.694  33.932  25.108  0.00  0.00     0.047 A 
ATOM     11  C   LIG d   1       0.457  33.406  24.702  0.00  0.00     0.032 A 
ATOM     12  C   LIG d   1       0.359  32.642  23.539  0.00  0.00     0.060 A 
ATOM     13  C   LIG d   1       1.496  32.397  22.767  0.00  0.00     0.134 A 
ATOM     14 BR   LIG d   1      -1.338  31.953  23.049  0.00  0.00    -0.046 Br
ATOM     15  C   LIG d   1       2.736  32.902  23.160  0.00  0.00     0.092 A 
ATOM     16  C   LIG d   1       2.830  33.667  24.326  0.00  0.00     0.130 A 
BRANCH  13  17
ATOM     17  O   LIG d   1       1.386  31.661  21.619  0.00  0.00    -0.505 OA
ATOM     18  H   LIG d   1       2.250  31.591  21.184  0.00  0.00     0.292 HD
ENDBRANCH  13  17
BRANCH  16  19
ATOM     19  O   LIG d   1       4.040  34.195  24.683  0.00  0.00    -0.506 OA
ATOM     20  H   LIG d   1       4.742  33.867  24.099  0.00  0.00     0.292 HD
ENDBRANCH  16  19
ENDBRANCH   9  10
BRANCH   6  21
ATOM     21  O   LIG d   1      -0.961  38.944  28.698  0.00  0.00    -0.507 OA
ATOM     22  H   LIG d   1      -0.488  39.132  29.526  0.00  0.00     0.292 HD
ENDBRANCH   6  21
TORSDOF 4
