@<TRIPOS>MOLECULE
3BM9_BXZ_A_1
 27 29 0 0 0
SMALL
USER_CHARGES

@<TRIPOS>ATOM
      1 C          -0.8608   37.4939   26.8414 C.ar    1  LIG1       -0.0193
      2 C          -0.2683   36.4485   26.1233 C.ar    1  LIG1       -0.0454
      3 C           0.8697   35.8247   26.6676 C.ar    1  LIG1        0.0493
      4 C           1.3589   36.2771   27.8790 C.ar    1  LIG1        0.1713
      5 C           0.8063   37.3210   28.6152 C.ar    1  LIG1        0.0254
      6 C          -0.3261   37.9145   28.0573 C.ar    1  LIG1        0.1205
      7 O          -0.9605   38.9444   28.6982 O.3     1  LIG1       -0.5066
      8 O           2.4473   35.5452   28.2252 O.2     1  LIG1       -0.3539
      9 N           2.6879   34.5858   27.2596 N.ar    1  LIG1       -0.0769
     10 C           1.7563   34.7651   26.3088 C.ar    1  LIG1        0.1246
     11 C           1.6944   33.9325   25.1083 C.ar    1  LIG1        0.0469
     12 C           0.4570   33.4063   24.7023 C.ar    1  LIG1       -0.0314
     13 C           0.3592   32.6417   23.5390 C.ar    1  LIG1        0.0601
     14 C           1.4962   32.3968   22.7667 C.ar    1  LIG1        0.1343
     15 C           2.7356   32.9021   23.1595 C.ar    1  LIG1        0.0231
     16 C           2.8296   33.6671   24.3265 C.ar    1  LIG1        0.1297
     17 O           4.0404   34.1948   24.6829 O.3     1  LIG1       -0.5060
     18 O           1.3860   31.6613   21.6187 O.3     1  LIG1       -0.5055
     19 BR         -1.3381   31.9526   23.0488 Br      1  LIG1       -0.0465
     20 H          -1.7494   37.9814   26.4437 H       1  LIG1        0.0654
     21 H          -0.6907   36.1280   25.1750 H       1  LIG1        0.0626
     22 H           1.2398   37.6311   29.5563 H       1  LIG1        0.0692
     23 H          -0.4876   39.1320   29.5261 H       1  LIG1        0.2921
     24 H          -0.4365   33.5888   25.2958 H       1  LIG1        0.0637
     25 H           3.6188   32.7126   22.5597 H       1  LIG1        0.0691
     26 H           4.7418   33.8675   24.0988 H       1  LIG1        0.2922
     27 H           2.2499   31.5913   21.1840 H       1  LIG1        0.2922
@<TRIPOS>BOND
     1     1     2   ar
     2     1     6   ar
     3     1    20    1
     4     2     3   ar
     5     2    21    1
     6     3     4   ar
     7     3    10   ar
     8     4     5   ar
     9     4     8   ar
    10     5     6   ar
    11     5    22    1
    12     6     7    1
    13     7    23    1
    14     8     9   ar
    15     9    10   ar
    16    10    11    1
    17    11    12   ar
    18    11    16   ar
    19    12    13   ar
    20    12    24    1
    21    13    14   ar
    22    13    19    1
    23    14    15   ar
    24    14    18    1
    25    15    16   ar
    26    15    25    1
    27    16    17    1
    28    17    26    1
    29    18    27    1
