REMARK  6 active torsions:
REMARK  status: ('A' for Active; 'I' for Inactive)
REMARK    1  A    between atoms: C_3  and  C_5 
REMARK    2  A    between atoms: C_4  and  C_6 
REMARK    3  A    between atoms: C_9  and  O_19 
REMARK    4  A    between atoms: C_12  and  O_18 
REMARK    5  A    between atoms: C_14  and  O_17 
REMARK    6  A    between atoms: O_19  and  C_21 
ROOT
ATOM      1  N   LIG d   1      29.953   9.255  28.228  0.00  0.00    -0.109 NA
ATOM      2  N   LIG d   1      29.892  10.111  27.223  0.00  0.00    -0.140 NA
ATOM      3  C   LIG d   1      30.697   9.716  26.158  0.00  0.00     0.113 A 
ATOM      4  C   LIG d   1      31.399   8.532  26.360  0.00  0.00     0.067 A 
ATOM      5  S   LIG d   1      30.972   7.968  27.927  0.00  0.00     0.037 SA
ENDROOT
BRANCH   3   6
ATOM      6  C   LIG d   1      30.767  10.507  24.936  0.00  0.00     0.046 A 
ATOM      7  C   LIG d   1      29.606  10.806  24.203  0.00  0.00     0.130 A 
ATOM      8  C   LIG d   1      29.673  11.517  23.007  0.00  0.00     0.092 A 
ATOM      9  C   LIG d   1      30.913  11.932  22.529  0.00  0.00     0.139 A 
ATOM     10  C   LIG d   1      32.075  11.663  23.253  0.00  0.00     0.083 A 
ATOM     11  C   LIG d   1      32.010  10.951  24.448  0.00  0.00     0.037 A 
ATOM     12 CL   LIG d   1      33.606  12.200  22.668  0.00  0.00    -0.080 Cl
BRANCH   7  13
ATOM     13  O   LIG d   1      28.394  10.348  24.642  0.00  0.00    -0.506 OA
ATOM     14  H   LIG d   1      27.684  10.709  24.087  0.00  0.00     0.292 HD
ENDBRANCH   7  13
BRANCH   9  15
ATOM     15  O   LIG d   1      30.936  12.588  21.331  0.00  0.00    -0.505 OA
ATOM     16  H   LIG d   1      31.873  12.759  21.111  0.00  0.00     0.292 HD
ENDBRANCH   9  15
ENDBRANCH   3   6
BRANCH   4  17
ATOM     17  C   LIG d   1      32.287   7.766  25.492  0.00  0.00    -0.007 A 
ATOM     18  C   LIG d   1      33.568   7.387  25.906  0.00  0.00     0.012 A 
ATOM     19  C   LIG d   1      34.414   6.705  25.028  0.00  0.00     0.046 A 
ATOM     20  C   LIG d   1      33.992   6.379  23.738  0.00  0.00     0.120 A 
ATOM     21  C   LIG d   1      32.711   6.741  23.323  0.00  0.00     0.046 A 
ATOM     22  C   LIG d   1      31.870   7.436  24.194  0.00  0.00     0.012 A 
BRANCH  20  23
ATOM     23  O   LIG d   1      34.919   5.713  22.991  0.00  0.00    -0.492 OA
BRANCH  23  24
ATOM     24  C   LIG d   1      34.559   5.373  21.653  0.00  0.00     0.226 C 
ATOM     25  C   LIG d   1      35.721   4.596  21.064  0.00  0.00     0.048 C 
ENDBRANCH  23  24
ENDBRANCH  20  23
ENDBRANCH   4  17
TORSDOF 6
