@<TRIPOS>MOLECULE
2YI7_BZ8_A_1225
 36 38 0 0 0
SMALL
USER_CHARGES

@<TRIPOS>ATOM
      1 N          29.9525    9.2553   28.2281 N.ar    1  LIG1       -0.1094
      2 N          29.8921   10.1113   27.2225 N.ar    1  LIG1       -0.1404
      3 C          30.6972    9.7162   26.1583 C.ar    1  LIG1        0.1131
      4 C          31.3993    8.5317   26.3600 C.ar    1  LIG1        0.0673
      5 C          30.7675   10.5067   24.9356 C.ar    1  LIG1        0.0463
      6 C          32.2871    7.7656   25.4919 C.ar    1  LIG1       -0.0075
      7 C          33.5682    7.3873   25.9060 C.ar    1  LIG1       -0.0500
      8 C          34.4140    6.7048   25.0284 C.ar    1  LIG1       -0.0193
      9 C          33.9917    6.3789   23.7382 C.ar    1  LIG1        0.1205
     10 C          32.7114    6.7409   23.3232 C.ar    1  LIG1       -0.0193
     11 C          31.8704    7.4364   24.1935 C.ar    1  LIG1       -0.0500
     12 C          29.6056   10.8056   24.2025 C.ar    1  LIG1        0.1296
     13 C          29.6727   11.5168   23.0069 C.ar    1  LIG1        0.0234
     14 C          30.9127   11.9322   22.5292 C.ar    1  LIG1        0.1386
     15 C          32.0755   11.6632   23.2532 C.ar    1  LIG1        0.0831
     16 C          32.0099   10.9515   24.4481 C.ar    1  LIG1       -0.0271
     17 O          30.9355   12.5881   21.3307 O.3     1  LIG1       -0.5052
     18 O          28.3936   10.3479   24.6417 O.3     1  LIG1       -0.5060
     19 O          34.9186    5.7133   22.9910 O.3     1  LIG1       -0.4922
     20 S          30.9720    7.9676   27.9266 S.2     1  LIG1        0.0372
     21 C          34.5590    5.3733   21.6531 C.3     1  LIG1        0.0868
     22 CL         33.6061   12.2003   22.6681 Cl      1  LIG1       -0.0797
     23 C          35.7208    4.5962   21.0641 C.3     1  LIG1       -0.0307
     24 H          33.9321    7.6316   26.9002 H       1  LIG1        0.0625
     25 H          35.4151    6.4268   25.3509 H       1  LIG1        0.0654
     26 H          32.3368    6.4991   22.3360 H       1  LIG1        0.0654
     27 H          30.8792    7.7200   23.8447 H       1  LIG1        0.0625
     28 H          28.7816   11.7381   22.4255 H       1  LIG1        0.0691
     29 H          32.9232   10.7303   24.9929 H       1  LIG1        0.0641
     30 H          31.8732   12.7589   21.1114 H       1  LIG1        0.2922
     31 H          27.6842   10.7087   24.0866 H       1  LIG1        0.2922
     32 H          34.3883    6.2820   21.0632 H       1  LIG1        0.0694
     33 H          33.6634    4.7427   21.6419 H       1  LIG1        0.0694
     34 H          36.6308    5.2035   21.0732 H       1  LIG1        0.0262
     35 H          35.5073    4.2889   20.0372 H       1  LIG1        0.0262
     36 H          35.9259    3.7068   21.6672 H       1  LIG1        0.0262
@<TRIPOS>BOND
     1     1     2   ar
     2     1    20   ar
     3     2     3   ar
     4     3     4   ar
     5     3     5    1
     6     4     6    1
     7     4    20   ar
     8     5    12   ar
     9     5    16   ar
    10     6     7   ar
    11     6    11   ar
    12     7     8   ar
    13     7    24    1
    14     8     9   ar
    15     8    25    1
    16     9    10   ar
    17     9    19    1
    18    10    11   ar
    19    10    26    1
    20    11    27    1
    21    12    13   ar
    22    12    18    1
    23    13    14   ar
    24    13    28    1
    25    14    15   ar
    26    14    17    1
    27    15    16   ar
    28    15    22    1
    29    16    29    1
    30    17    30    1
    31    18    31    1
    32    19    21    1
    33    21    23    1
    34    21    32    1
    35    21    33    1
    36    23    34    1
    37    23    35    1
    38    23    36    1
