2YI7_BZ8_A_1225
 OpenBabel03301717113D

 36 38  0  0  0  0  0  0  0  0999 V2000
   29.9525    9.2553   28.2281 N   0  0  0  0  0  0  0  0  0  0  0  0
   29.8921   10.1113   27.2225 N   0  0  0  0  0  0  0  0  0  0  0  0
   30.6972    9.7162   26.1583 C   0  0  0  0  0  0  0  0  0  0  0  0
   31.3993    8.5317   26.3600 C   0  0  0  0  0  0  0  0  0  0  0  0
   30.7675   10.5067   24.9356 C   0  0  0  0  0  0  0  0  0  0  0  0
   32.2871    7.7656   25.4919 C   0  0  0  0  0  0  0  0  0  0  0  0
   33.5682    7.3873   25.9060 C   0  0  0  0  0  0  0  0  0  0  0  0
   34.4140    6.7048   25.0284 C   0  0  0  0  0  0  0  0  0  0  0  0
   33.9917    6.3789   23.7382 C   0  0  0  0  0  0  0  0  0  0  0  0
   32.7114    6.7409   23.3232 C   0  0  0  0  0  0  0  0  0  0  0  0
   31.8704    7.4364   24.1935 C   0  0  0  0  0  0  0  0  0  0  0  0
   29.6056   10.8056   24.2025 C   0  0  0  0  0  0  0  0  0  0  0  0
   29.6727   11.5168   23.0069 C   0  0  0  0  0  0  0  0  0  0  0  0
   30.9127   11.9322   22.5292 C   0  0  0  0  0  0  0  0  0  0  0  0
   32.0755   11.6632   23.2532 C   0  0  0  0  0  0  0  0  0  0  0  0
   32.0099   10.9515   24.4481 C   0  0  0  0  0  0  0  0  0  0  0  0
   30.9355   12.5881   21.3307 O   0  0  0  0  0  0  0  0  0  0  0  0
   28.3936   10.3479   24.6417 O   0  0  0  0  0  0  0  0  0  0  0  0
   34.9186    5.7133   22.9910 O   0  0  0  0  0  0  0  0  0  0  0  0
   30.9720    7.9676   27.9266 S   0  0  0  0  0  0  0  0  0  0  0  0
   34.5590    5.3733   21.6531 C   0  0  0  0  0  0  0  0  0  0  0  0
   33.6061   12.2003   22.6681 Cl  0  0  0  0  0  0  0  0  0  0  0  0
   35.7208    4.5962   21.0641 C   0  0  0  0  0  0  0  0  0  0  0  0
   33.9321    7.6316   26.9002 H   0  0  0  0  0  0  0  0  0  0  0  0
   35.4151    6.4268   25.3509 H   0  0  0  0  0  0  0  0  0  0  0  0
   32.3368    6.4991   22.3360 H   0  0  0  0  0  0  0  0  0  0  0  0
   30.8792    7.7200   23.8447 H   0  0  0  0  0  0  0  0  0  0  0  0
   28.7816   11.7381   22.4255 H   0  0  0  0  0  0  0  0  0  0  0  0
   32.9232   10.7303   24.9929 H   0  0  0  0  0  0  0  0  0  0  0  0
   31.8732   12.7589   21.1114 H   0  0  0  0  0  0  0  0  0  0  0  0
   27.6842   10.7087   24.0866 H   0  0  0  0  0  0  0  0  0  0  0  0
   34.3883    6.2820   21.0632 H   0  0  0  0  0  0  0  0  0  0  0  0
   33.6634    4.7427   21.6419 H   0  0  0  0  0  0  0  0  0  0  0  0
   36.6308    5.2035   21.0732 H   0  0  0  0  0  0  0  0  0  0  0  0
   35.5073    4.2889   20.0372 H   0  0  0  0  0  0  0  0  0  0  0  0
   35.9259    3.7068   21.6672 H   0  0  0  0  0  0  0  0  0  0  0  0
  1  2  2  0  0  0  0
  1 20  1  0  0  0  0
  2  3  1  0  0  0  0
  3  4  2  0  0  0  0
  3  5  1  0  0  0  0
  4  6  1  0  0  0  0
  4 20  1  0  0  0  0
  5 12  2  0  0  0  0
  5 16  1  0  0  0  0
  6  7  2  0  0  0  0
  6 11  1  0  0  0  0
  7  8  1  0  0  0  0
  7 24  1  0  0  0  0
  8  9  2  0  0  0  0
  8 25  1  0  0  0  0
  9 10  1  0  0  0  0
  9 19  1  0  0  0  0
 10 11  2  0  0  0  0
 10 26  1  0  0  0  0
 11 27  1  0  0  0  0
 12 13  1  0  0  0  0
 12 18  1  0  0  0  0
 13 14  2  0  0  0  0
 13 28  1  0  0  0  0
 14 15  1  0  0  0  0
 14 17  1  0  0  0  0
 15 16  2  0  0  0  0
 15 22  1  0  0  0  0
 16 29  1  0  0  0  0
 17 30  1  0  0  0  0
 18 31  1  0  0  0  0
 19 21  1  0  0  0  0
 21 23  1  0  0  0  0
 21 32  1  0  0  0  0
 21 33  1  0  0  0  0
 23 34  1  0  0  0  0
 23 35  1  0  0  0  0
 23 36  1  0  0  0  0
M  END
$$$$
