@<TRIPOS>MOLECULE
2XHR_C0P_A_1001
 42 44 0 0 0
SMALL
USER_CHARGES

@<TRIPOS>ATOM
      1 N          -3.6732   11.5539   23.7688 N.pl3   1  LIG1       -0.3274
      2 C          -2.6803   11.1459   24.6420 C.ar    1  LIG1        0.2144
      3 N          -3.0785   10.6550   25.8109 N.ar    1  LIG1       -0.2030
      4 C          -2.0863   10.2727   26.6277 C.ar    1  LIG1        0.1349
      5 CL         -2.5711    9.6317   28.1499 Cl      1  LIG1       -0.0618
      6 C          -0.7610   10.3515   26.3144 C.ar    1  LIG1        0.0014
      7 C          -0.4453   10.8839   25.0912 C.ar    1  LIG1        0.0790
      8 N          -1.4119   11.2753   24.2314 N.ar    1  LIG1       -0.2145
      9 C           0.9623   11.0237   24.6787 C.ar    1  LIG1        0.0224
     10 C           1.7528    9.8651   24.5431 C.ar    1  LIG1       -0.0079
     11 C           3.1039    9.9351   24.1974 C.ar    1  LIG1        0.1395
     12 O           3.8778    8.8345   24.0204 O.3     1  LIG1       -0.4892
     13 C           3.3311    7.5625   24.3456 C.3     1  LIG1        0.1023
     14 C           4.3972    6.5078   24.0508 C.3     1  LIG1        0.0333
     15 N           5.5638    6.5443   24.9501 N.3     1  LIG1       -0.2948
     16 C           5.1682    6.6175   26.3741 C.3     1  LIG1        0.0225
     17 C           6.3974    6.6808   27.2818 C.3     1  LIG1        0.0604
     18 O           7.2416    7.7920   26.9475 O.3     1  LIG1       -0.3772
     19 C           7.6653    7.6882   25.5789 C.3     1  LIG1        0.0604
     20 C           6.4659    7.6741   24.6292 C.3     1  LIG1        0.0225
     21 C           3.7102   11.1807   24.0026 C.ar    1  LIG1        0.0839
     22 CL          5.3859   11.3231   23.5973 Cl      1  LIG1       -0.0797
     23 C           2.9639   12.3507   24.1524 C.ar    1  LIG1       -0.0208
     24 C           1.5981   12.2679   24.4758 C.ar    1  LIG1        0.0517
     25 CL          0.7424   13.7587   24.6602 Cl      1  LIG1       -0.0828
     26 H          -3.4056   11.9436   22.8884 H       1  LIG1        0.1452
     27 H          -4.6278   11.4629   24.0549 H       1  LIG1        0.1452
     28 H          -0.0005   10.0188   27.0083 H       1  LIG1        0.0669
     29 H           1.2837    8.9043   24.7297 H       1  LIG1        0.0661
     30 H           2.4464    7.3602   23.7402 H       1  LIG1        0.0709
     31 H           3.0458    7.5123   25.3989 H       1  LIG1        0.0709
     32 H           4.7326    6.6356   23.0131 H       1  LIG1        0.0460
     33 H           3.9307    5.5162   24.1191 H       1  LIG1        0.0460
     34 H           4.5733    5.7370   26.6464 H       1  LIG1        0.0449
     35 H           4.5700    7.5124   26.5822 H       1  LIG1        0.0449
     36 H           6.9653    5.7506   27.1889 H       1  LIG1        0.0572
     37 H           6.0808    6.7918   28.3252 H       1  LIG1        0.0572
     38 H           8.2481    6.7696   25.4476 H       1  LIG1        0.0572
     39 H           8.3145    8.5433   25.3511 H       1  LIG1        0.0572
     40 H           5.9623    8.6371   24.7315 H       1  LIG1        0.0449
     41 H           6.8374    7.5871   23.6015 H       1  LIG1        0.0449
     42 H           3.4402   13.3165   24.0074 H       1  LIG1        0.0648
@<TRIPOS>BOND
     1     1     2    1
     2     1    26    1
     3     1    27    1
     4     2     3   ar
     5     2     8   ar
     6     3     4   ar
     7     4     5    1
     8     4     6   ar
     9     6     7   ar
    10     6    28    1
    11     7     8   ar
    12     7     9    1
    13     9    10   ar
    14     9    24   ar
    15    10    11   ar
    16    10    29    1
    17    11    12    1
    18    11    21   ar
    19    12    13    1
    20    13    14    1
    21    13    30    1
    22    13    31    1
    23    14    15    1
    24    14    32    1
    25    14    33    1
    26    15    16    1
    27    15    20    1
    28    16    17    1
    29    16    34    1
    30    16    35    1
    31    17    18    1
    32    17    36    1
    33    17    37    1
    34    18    19    1
    35    19    20    1
    36    19    38    1
    37    19    39    1
    38    20    40    1
    39    20    41    1
    40    21    22    1
    41    21    23   ar
    42    23    24   ar
    43    23    42    1
    44    24    25    1
