REMARK  6 active torsions:
REMARK  status: ('A' for Active; 'I' for Inactive)
REMARK    1  A    between atoms: N_1  and  C_2 
REMARK    2  A    between atoms: C_7  and  C_9 
REMARK    3  A    between atoms: C_11  and  O_12 
REMARK    4  A    between atoms: O_12  and  C_13 
REMARK    5  A    between atoms: C_13  and  C_14 
REMARK    6  A    between atoms: C_14  and  N_15 
ROOT
ATOM      1  C   LIG d   1       0.962  11.024  24.679  0.00  0.00     0.022 A 
ATOM      2  C   LIG d   1       1.753   9.865  24.543  0.00  0.00     0.058 A 
ATOM      3  C   LIG d   1       3.104   9.935  24.197  0.00  0.00     0.140 A 
ATOM      4  C   LIG d   1       3.710  11.181  24.003  0.00  0.00     0.084 A 
ATOM      5 CL   LIG d   1       5.386  11.323  23.597  0.00  0.00    -0.080 Cl
ATOM      6  C   LIG d   1       2.964  12.351  24.152  0.00  0.00     0.044 A 
ATOM      7  C   LIG d   1       1.598  12.268  24.476  0.00  0.00     0.052 A 
ATOM      8 CL   LIG d   1       0.742  13.759  24.660  0.00  0.00    -0.083 Cl
ENDROOT
BRANCH   1   9
ATOM      9  C   LIG d   1      -0.445  10.884  25.091  0.00  0.00     0.079 A 
ATOM     10  C   LIG d   1      -0.761  10.351  26.314  0.00  0.00     0.068 A 
ATOM     11  C   LIG d   1      -2.086  10.273  26.628  0.00  0.00     0.135 A 
ATOM     12  N   LIG d   1      -3.079  10.655  25.811  0.00  0.00    -0.203 NA
ATOM     13 CL   LIG d   1      -2.571   9.632  28.150  0.00  0.00    -0.062 Cl
ATOM     14  C   LIG d   1      -2.680  11.146  24.642  0.00  0.00     0.214 A 
ATOM     15  N   LIG d   1      -1.412  11.275  24.231  0.00  0.00    -0.214 NA
BRANCH  14  16
ATOM     16  N   LIG d   1      -3.673  11.554  23.769  0.00  0.00    -0.327 N 
ATOM     17  H   LIG d   1      -3.406  11.944  22.888  0.00  0.00     0.145 HD
ATOM     18  H   LIG d   1      -4.628  11.463  24.055  0.00  0.00     0.145 HD
ENDBRANCH  14  16
ENDBRANCH   1   9
BRANCH   3  19
ATOM     19  O   LIG d   1       3.878   8.835  24.020  0.00  0.00    -0.489 OA
BRANCH  19  20
ATOM     20  C   LIG d   1       3.331   7.562  24.346  0.00  0.00     0.244 C 
BRANCH  20  21
ATOM     21  C   LIG d   1       4.397   6.508  24.051  0.00  0.00     0.125 C 
BRANCH  21  22
ATOM     22  N   LIG d   1       5.564   6.544  24.950  0.00  0.00    -0.295 N 
ATOM     23  C   LIG d   1       5.168   6.617  26.374  0.00  0.00     0.112 C 
ATOM     24  C   LIG d   1       6.397   6.681  27.282  0.00  0.00     0.175 C 
ATOM     25  O   LIG d   1       7.242   7.792  26.948  0.00  0.00    -0.377 OA
ATOM     26  C   LIG d   1       7.665   7.688  25.579  0.00  0.00     0.175 C 
ATOM     27  C   LIG d   1       6.466   7.674  24.629  0.00  0.00     0.112 C 
ENDBRANCH  21  22
ENDBRANCH  20  21
ENDBRANCH  19  20
ENDBRANCH   3  19
TORSDOF 6
