REMARK  3 active torsions:
REMARK  status: ('A' for Active; 'I' for Inactive)
REMARK    1  A    between atoms: C_2  and  C_5 
REMARK    2  A    between atoms: C_7  and  C_12 
REMARK    3  A    between atoms: C_10  and  O_11 
REMARK       I    between atoms: C_12  and  N_14 
ROOT
ATOM      1  C   LIG d   1       6.717  -3.047  11.626  0.00  0.00     0.000 A 
ATOM      2  C   LIG d   1       7.668  -3.668  10.781  0.00  0.00     0.020 A 
ATOM      3  C   LIG d   1       8.100  -4.967  10.984  0.00  0.00     0.037 A 
ATOM      4  C   LIG d   1       7.587  -5.695  12.051  0.00  0.00     0.016 A 
ATOM      5  C   LIG d   1       6.641  -5.114  12.901  0.00  0.00     0.046 A 
ATOM      6  C   LIG d   1       6.211  -3.805  12.695  0.00  0.00     0.121 A 
ENDROOT
BRANCH   3   7
ATOM      7  C   LIG d   1       9.131  -5.522  10.079  0.00  0.00     0.247 C 
ATOM      8  O   LIG d   1      10.174  -5.939  10.609  0.00  0.00    -0.270 OA
ATOM      9  N   LIG d   1       8.908  -5.519   8.715  0.00  0.00    -0.293 N 
ATOM     10  C   LIG d   1       9.941  -5.975   7.790  0.00  0.00     0.136 C 
ATOM     11  C   LIG d   1       7.577  -5.411   8.141  0.00  0.00     0.136 C 
ATOM     12  C   LIG d   1       9.483  -7.243   7.073  0.00  0.00     0.178 C 
ATOM     13  O   LIG d   1       8.210  -7.045   6.435  0.00  0.00    -0.377 OA
ATOM     14  C   LIG d   1       7.214  -6.702   7.413  0.00  0.00     0.178 C 
ENDBRANCH   3   7
BRANCH   1  15
ATOM     15  C   LIG d   1       6.352  -1.601  11.312  0.00  0.00    -0.009 C 
ATOM     16  C   LIG d   1       7.002  -1.125  10.013  0.00  0.00     0.016 C 
ATOM     17  C   LIG d   1       6.835  -0.674  12.426  0.00  0.00     0.016 C 
ATOM     18  C   LIG d   1       4.842  -1.438  11.146  0.00  0.00     0.016 C 
ENDBRANCH   1  15
BRANCH   6  19
ATOM     19  O   LIG d   1       5.285  -3.257  13.553  0.00  0.00    -0.506 OA
ATOM     20  H   LIG d   1       5.008  -3.889  14.247  0.00  0.00     0.292 HD
ENDBRANCH   6  19
TORSDOF 3
