@<TRIPOS>MOLECULE
2XHT_C0Y_A_1224
 40 41 0 0 0
SMALL
USER_CHARGES

@<TRIPOS>ATOM
      1 C           7.0021   -1.1255   10.0134 C.3     1  LIG1       -0.0559
      2 C           6.3518   -1.6010   11.3120 C.3     1  LIG1       -0.0092
      3 C           6.8349   -0.6737   12.4260 C.3     1  LIG1       -0.0559
      4 C           4.8420   -1.4378   11.1456 C.3     1  LIG1       -0.0559
      5 C           6.7174   -3.0469   11.6259 C.ar    1  LIG1        0.0001
      6 C           7.6682   -3.6684   10.7815 C.ar    1  LIG1       -0.0425
      7 C           8.0999   -4.9670   10.9837 C.ar    1  LIG1        0.0374
      8 C           7.5867   -5.6951   12.0514 C.ar    1  LIG1       -0.0462
      9 C           6.6407   -5.1138   12.9010 C.ar    1  LIG1       -0.0192
     10 C           6.2111   -3.8046   12.6951 C.ar    1  LIG1        0.1206
     11 O           5.2854   -3.2572   13.5535 O.3     1  LIG1       -0.5065
     12 C           9.1313   -5.5219   10.0790 C.2     1  LIG1        0.2468
     13 O          10.1741   -5.9391   10.6092 O.2     1  LIG1       -0.2700
     14 N           8.9075   -5.5187    8.7151 N.am    1  LIG1       -0.2932
     15 C           9.9415   -5.9750    7.7895 C.3     1  LIG1        0.0385
     16 C           9.4835   -7.2430    7.0727 C.3     1  LIG1        0.0635
     17 O           8.2095   -7.0448    6.4349 O.3     1  LIG1       -0.3767
     18 C           7.2138   -6.7023    7.4126 C.3     1  LIG1        0.0635
     19 C           7.5775   -5.4108    8.1409 C.3     1  LIG1        0.0385
     20 H           6.7539   -0.0870    9.7774 H       1  LIG1        0.0238
     21 H           6.6849   -1.7467    9.1588 H       1  LIG1        0.0238
     22 H           8.1054   -1.1726   10.0800 H       1  LIG1        0.0238
     23 H           6.5746    0.3684   12.2011 H       1  LIG1        0.0238
     24 H           7.9226   -0.7365   12.5379 H       1  LIG1        0.0238
     25 H           6.3725   -0.9394   13.3769 H       1  LIG1        0.0238
     26 H           4.5900   -0.3950   10.9233 H       1  LIG1        0.0238
     27 H           4.3216   -1.7155   12.0598 H       1  LIG1        0.0238
     28 H           4.4755   -2.0666   10.3297 H       1  LIG1        0.0238
     29 H           8.0920   -3.1383    9.9397 H       1  LIG1        0.0629
     30 H           7.9220   -6.7053   12.2099 H       1  LIG1        0.0626
     31 H           6.2605   -5.7001   13.7289 H       1  LIG1        0.0654
     32 H           5.0080   -3.8895   14.2471 H       1  LIG1        0.2921
     33 H          10.8833   -6.1712    8.3074 H       1  LIG1        0.0487
     34 H          10.1029   -5.1790    7.0527 H       1  LIG1        0.0487
     35 H           9.3972   -8.0632    7.7945 H       1  LIG1        0.0575
     36 H          10.2157   -7.5208    6.3077 H       1  LIG1        0.0575
     37 H           7.1268   -7.5203    8.1353 H       1  LIG1        0.0575
     38 H           6.2560   -6.5709    6.9055 H       1  LIG1        0.0575
     39 H           7.5971   -4.5691    7.4362 H       1  LIG1        0.0487
     40 H           6.8293   -5.2219    8.9030 H       1  LIG1        0.0487
@<TRIPOS>BOND
     1     1     2    1
     2     1    20    1
     3     1    21    1
     4     1    22    1
     5     2     3    1
     6     2     4    1
     7     2     5    1
     8     3    23    1
     9     3    24    1
    10     3    25    1
    11     4    26    1
    12     4    27    1
    13     4    28    1
    14     5     6   ar
    15     5    10   ar
    16     6     7   ar
    17     6    29    1
    18     7     8   ar
    19     7    12    1
    20     8     9   ar
    21     8    30    1
    22     9    10   ar
    23     9    31    1
    24    10    11    1
    25    11    32    1
    26    12    13    2
    27    12    14   am
    28    14    15    1
    29    14    19    1
    30    15    16    1
    31    15    33    1
    32    15    34    1
    33    16    17    1
    34    16    35    1
    35    16    36    1
    36    17    18    1
    37    18    19    1
    38    18    37    1
    39    18    38    1
    40    19    39    1
    41    19    40    1
