REMARK  5 active torsions:
REMARK  status: ('A' for Active; 'I' for Inactive)
REMARK    1  A    between atoms: C_8  and  C_9 
REMARK    2  A    between atoms: C_13  and  C_15 
REMARK    3  A    between atoms: C_17  and  C_18 
REMARK    4  A    between atoms: C_20  and  O_22 
REMARK    5  A    between atoms: C_25  and  O_26 
ROOT
ATOM      1  C   LIG d   1      -0.762 -35.867   1.879  0.00  0.00     0.030 A 
ATOM      2  C   LIG d   1      -1.225 -36.304   3.090  0.00  0.00     0.041 A 
ATOM      3  C   LIG d   1      -0.829 -37.469   3.906  0.00  0.00     0.065 C 
ATOM      4  N   LIG d   1      -2.200 -35.406   3.436  0.00  0.00    -0.281 N 
ATOM      5  C   LIG d   1      -1.506 -34.703   1.573  0.00  0.00     0.104 A 
ATOM      6  N   LIG d   1      -2.367 -34.416   2.554  0.00  0.00    -0.173 NA
ATOM      7  H   LIG d   1      -2.791 -35.413   4.259  0.00  0.00     0.189 HD
ENDROOT
BRANCH   5   8
ATOM      8  C   LIG d   1      -1.315 -33.889   0.393  0.00  0.00     0.045 A 
ATOM      9  C   LIG d   1      -0.006 -33.521   0.050  0.00  0.00     0.020 A 
ATOM     10  C   LIG d   1       0.255 -32.802  -1.114  0.00  0.00    -0.005 A 
ATOM     11  C   LIG d   1      -0.820 -32.430  -1.926  0.00  0.00     0.123 A 
ATOM     12  C   LIG d   1      -2.128 -32.797  -1.604  0.00  0.00     0.091 A 
ATOM     13  C   LIG d   1      -2.371 -33.537  -0.447  0.00  0.00     0.130 A 
BRANCH  10  14
ATOM     14  C   LIG d   1       1.665 -32.366  -1.400  0.00  0.00     0.035 C 
ATOM     15  C   LIG d   1       1.966 -31.113  -0.597  0.00  0.00     0.009 C 
ENDBRANCH  10  14
BRANCH  11  16
ATOM     16  O   LIG d   1      -0.548 -31.680  -3.036  0.00  0.00    -0.506 OA
ATOM     17  H   LIG d   1      -1.372 -31.501  -3.505  0.00  0.00     0.292 HD
ENDBRANCH  11  16
BRANCH  13  18
ATOM     18  O   LIG d   1      -3.636 -33.962  -0.148  0.00  0.00    -0.506 OA
ATOM     19  H   LIG d   1      -4.276 -33.586  -0.768  0.00  0.00     0.292 HD
ENDBRANCH  13  18
ENDBRANCH   5   8
BRANCH   1  20
ATOM     20  C   LIG d   1       0.291 -36.496   1.134  0.00  0.00    -0.010 A 
ATOM     21  C   LIG d   1      -0.000 -37.085  -0.094  0.00  0.00     0.058 A 
ATOM     22  C   LIG d   1       1.031 -37.671  -0.803  0.00  0.00     0.163 A 
ATOM     23  O   LIG d   1       0.751 -38.322  -1.972  0.00  0.00    -0.485 OA
ATOM     24  C   LIG d   1       2.338 -37.636  -0.318  0.00  0.00     0.162 A 
ATOM     25  C   LIG d   1       1.404 -39.589  -1.903  0.00  0.00     0.270 C 
ATOM     26  C   LIG d   1       2.891 -39.509  -1.520  0.00  0.00     0.270 C 
ATOM     27  O   LIG d   1       3.343 -38.247  -1.013  0.00  0.00    -0.485 OA
ATOM     28  C   LIG d   1       2.641 -36.992   0.876  0.00  0.00     0.050 A 
ATOM     29  C   LIG d   1       1.604 -36.428   1.610  0.00  0.00     0.012 A 
ENDBRANCH   1  20
TORSDOF 5
