@<TRIPOS>MOLECULE
2BT0_CT5_A_1224
 46 49 0 0 0
SMALL
USER_CHARGES

@<TRIPOS>ATOM
      1 C          -0.0003  -37.0853   -0.0944 C.ar    1  LIG1       -0.0085
      2 C           1.0312  -37.6711   -0.8027 C.ar    1  LIG1        0.1626
      3 O           0.7510  -38.3218   -1.9721 O.3     1  LIG1       -0.4849
      4 O           3.3434  -38.2467   -1.0131 O.3     1  LIG1       -0.4849
      5 C           2.3384  -37.6362   -0.3183 C.ar    1  LIG1        0.1621
      6 C           2.6412  -36.9923    0.8757 C.ar    1  LIG1       -0.0157
      7 C           1.6040  -36.4284    1.6103 C.ar    1  LIG1       -0.0502
      8 C           0.2908  -36.4958    1.1337 C.ar    1  LIG1       -0.0104
      9 C          -0.7616  -35.8668    1.8785 C.ar    1  LIG1        0.0304
     10 C          -1.2251  -36.3045    3.0898 C.ar    1  LIG1        0.0413
     11 C          -0.8293  -37.4693    3.9056 C.3     1  LIG1       -0.0223
     12 N          -2.1997  -35.4056    3.4357 N.ar    1  LIG1       -0.2807
     13 C          -1.5061  -34.7031    1.5725 C.ar    1  LIG1        0.1039
     14 N          -2.3668  -34.4163    2.5541 N.ar    1  LIG1       -0.1729
     15 C          -1.3146  -33.8885    0.3928 C.ar    1  LIG1        0.0446
     16 C          -0.0056  -33.5210    0.0502 C.ar    1  LIG1       -0.0424
     17 C           0.2551  -32.8024   -1.1138 C.ar    1  LIG1       -0.0054
     18 C           1.6652  -32.3661   -1.3999 C.3     1  LIG1       -0.0271
     19 C           1.9662  -31.1127   -0.5969 C.3     1  LIG1       -0.0611
     20 C          -0.8200  -32.4297   -1.9256 C.ar    1  LIG1        0.1235
     21 C           1.4043  -39.5888   -1.9032 C.3     1  LIG1        0.1237
     22 O          -0.5484  -31.6803   -3.0362 O.3     1  LIG1       -0.5064
     23 C          -2.1280  -32.7969   -1.6043 C.ar    1  LIG1        0.0222
     24 C           2.8911  -39.5090   -1.5198 C.3     1  LIG1        0.1237
     25 C          -2.3713  -33.5370   -0.4471 C.ar    1  LIG1        0.1296
     26 O          -3.6362  -33.9621   -0.1483 O.3     1  LIG1       -0.5060
     27 H          -1.0169  -37.1104   -0.4772 H       1  LIG1        0.0661
     28 H           3.6592  -36.9496    1.2421 H       1  LIG1        0.0655
     29 H           1.8207  -35.9201    2.5546 H       1  LIG1        0.0625
     30 H          -0.0235  -38.0191    3.4071 H       1  LIG1        0.0292
     31 H          -1.6647  -38.1588    4.0302 H       1  LIG1        0.0292
     32 H          -0.4549  -37.1500    4.8795 H       1  LIG1        0.0292
     33 H          -2.7907  -35.4132    4.2594 H       1  LIG1        0.1885
     34 H           0.8263  -33.7972    0.6958 H       1  LIG1        0.0629
     35 H           1.7976  -32.1763   -2.4697 H       1  LIG1        0.0312
     36 H           2.3698  -33.1660   -1.1393 H       1  LIG1        0.0312
     37 H           1.2623  -30.3119   -0.8498 H       1  LIG1        0.0233
     38 H           2.9809  -30.7628   -0.8007 H       1  LIG1        0.0233
     39 H           1.8765  -31.3030    0.4783 H       1  LIG1        0.0233
     40 H           1.2846  -40.0902   -2.8691 H       1  LIG1        0.0731
     41 H           0.8615  -40.2097   -1.1762 H       1  LIG1        0.0731
     42 H          -1.3718  -31.5014   -3.5046 H       1  LIG1        0.2921
     43 H          -2.9498  -32.5117   -2.2484 H       1  LIG1        0.0691
     44 H           3.1107  -40.2620   -0.7520 H       1  LIG1        0.0731
     45 H           3.5127  -39.7724   -2.3818 H       1  LIG1        0.0731
     46 H          -4.2756  -33.5858   -0.7679 H       1  LIG1        0.2922
@<TRIPOS>BOND
     1     1     2   ar
     2     1     8   ar
     3     1    27    1
     4     2     3    1
     5     2     5   ar
     6     3    21    1
     7     4     5    1
     8     4    24    1
     9     5     6   ar
    10     6     7   ar
    11     6    28    1
    12     7     8   ar
    13     7    29    1
    14     8     9    1
    15     9    10   ar
    16     9    13   ar
    17    10    11    1
    18    10    12   ar
    19    11    30    1
    20    11    31    1
    21    11    32    1
    22    12    14   ar
    23    12    33    1
    24    13    14   ar
    25    13    15    1
    26    15    16   ar
    27    15    25   ar
    28    16    17   ar
    29    16    34    1
    30    17    18    1
    31    17    20   ar
    32    18    19    1
    33    18    35    1
    34    18    36    1
    35    19    37    1
    36    19    38    1
    37    19    39    1
    38    20    22    1
    39    20    23   ar
    40    21    24    1
    41    21    40    1
    42    21    41    1
    43    22    42    1
    44    23    25   ar
    45    23    43    1
    46    24    44    1
    47    24    45    1
    48    25    26    1
    49    26    46    1
