REMARK  7 active torsions:
REMARK  status: ('A' for Active; 'I' for Inactive)
REMARK    1  A    between atoms: C_6  and  N_7 
REMARK    2  A    between atoms: N_7  and  C_8 
REMARK    3  A    between atoms: C_8  and  C_9 
REMARK    4  A    between atoms: C_9  and  N_10 
REMARK    5  A    between atoms: C_16  and  C_19 
REMARK    6  A    between atoms: C_22  and  O_26 
REMARK    7  A    between atoms: C_24  and  O_25 
ROOT
ATOM      1  C   LIG d   1      -0.487   4.536  21.907  0.00  0.00     0.000 A 
ATOM      2  C   LIG d   1       0.497   5.311  22.578  0.00  0.00     0.000 A 
ATOM      3  C   LIG d   1       1.826   5.104  22.172  0.00  0.00     0.000 A 
ATOM      4  C   LIG d   1       2.190   4.217  21.199  0.00  0.00     0.000 A 
ATOM      5  C   LIG d   1       1.191   3.461  20.597  0.00  0.00     0.000 A 
ATOM      6  C   LIG d   1      -0.153   3.613  20.917  0.00  0.00     0.000 A 
ATOM      7  C   LIG d   1       3.590   4.345  21.053  0.00  0.00     0.000 A 
ATOM      8  N   LIG d   1       4.055   5.239  21.936  0.00  0.00     0.000 NA
ATOM      9  O   LIG d   1       2.944   5.722  22.629  0.00  0.00     0.000 OA
ENDROOT
BRANCH   6  10
ATOM     10  N   LIG d   1      -1.111   2.905  20.194  0.00  0.00     0.000 N 
ATOM     11  H   LIG d   1      -2.083   3.146  20.380  0.00  0.00     0.000 HD
BRANCH  10  12
ATOM     12  C   LIG d   1      -0.836   1.532  19.730  0.00  0.00     0.000 C 
BRANCH  12  13
ATOM     13  C   LIG d   1      -1.450   1.311  18.328  0.00  0.00     0.000 C 
BRANCH  13  14
ATOM     14  N   LIG d   1      -0.642   1.981  17.214  0.00  0.00     1.000 N 
ATOM     15  C   LIG d   1      -1.371   1.919  15.875  0.00  0.00     0.000 C 
ATOM     16  C   LIG d   1      -0.499   2.564  14.790  0.00  0.00     0.000 C 
ATOM     17  O   LIG d   1      -0.174   3.921  15.111  0.00  0.00     0.000 OA
ATOM     18  C   LIG d   1       0.562   3.995  16.327  0.00  0.00     0.000 C 
ATOM     19  C   LIG d   1      -0.261   3.434  17.479  0.00  0.00     0.000 C 
ATOM     20  H   LIG d   1       0.235   1.453  17.113  0.00  0.00     0.000 HD
ENDBRANCH  13  14
ENDBRANCH  12  13
ENDBRANCH  10  12
ENDBRANCH   6  10
BRANCH   7  21
ATOM     21  C   LIG d   1       4.431   3.614  20.080  0.00  0.00     0.000 A 
ATOM     22  C   LIG d   1       4.108   2.281  19.757  0.00  0.00     0.000 A 
ATOM     23  C   LIG d   1       4.809   1.580  18.776  0.00  0.00     0.000 A 
ATOM     24  C   LIG d   1       5.880   2.186  18.129  0.00  0.00     0.000 A 
ATOM     25 CL   LIG d   1       4.280  -0.015  18.380  0.00  0.00     0.000 Cl
ATOM     26  C   LIG d   1       6.239   3.497  18.444  0.00  0.00     0.000 A 
ATOM     27  C   LIG d   1       5.501   4.211  19.399  0.00  0.00     0.000 A 
BRANCH  24  28
ATOM     28  O   LIG d   1       6.566   1.496  17.170  0.00  0.00     0.000 OA
ATOM     29  H   LIG d   1       7.333   2.012  16.870  0.00  0.00     0.000 HD
ENDBRANCH  24  28
BRANCH  27  30
ATOM     30  O   LIG d   1       5.792   5.526  19.624  0.00  0.00     0.000 OA
ATOM     31  H   LIG d   1       6.619   5.782  19.186  0.00  0.00     0.000 HD
ENDBRANCH  27  30
ENDBRANCH   7  21
TORSDOF 7
