@<TRIPOS>MOLECULE
3BMY_CXZ_A_1
 48 51 0 0 0
SMALL
USER_CHARGES

@<TRIPOS>ATOM
      1 C          -0.4868    4.5362   21.9075 C.ar    1  LIG1        0.0000
      2 C           0.4972    5.3111   22.5777 C.ar    1  LIG1        0.0000
      3 C           1.8263    5.1042   22.1720 C.ar    1  LIG1        0.0000
      4 C           2.1897    4.2172   21.1992 C.ar    1  LIG1        0.0000
      5 C           1.1908    3.4613   20.5966 C.ar    1  LIG1        0.0000
      6 C          -0.1529    3.6128   20.9173 C.ar    1  LIG1        0.0000
      7 N          -1.1108    2.9052   20.1939 N.pl3   1  LIG1        0.0000
      8 C          -0.8357    1.5323   19.7302 C.3     1  LIG1        0.0000
      9 C          -1.4501    1.3111   18.3285 C.3     1  LIG1        0.0000
     10 N          -0.6418    1.9806   17.2139 N.4     1  LIG1        1.0000
     11 C          -1.3715    1.9186   15.8748 C.3     1  LIG1        0.0000
     12 C          -0.4990    2.5637   14.7901 C.3     1  LIG1        0.0000
     13 O          -0.1745    3.9209   15.1109 O.3     1  LIG1        0.0000
     14 C           0.5625    3.9948   16.3268 C.3     1  LIG1        0.0000
     15 C          -0.2612    3.4344   17.4785 C.3     1  LIG1        0.0000
     16 C           3.5896    4.3454   21.0533 C.ar    1  LIG1        0.0000
     17 N           4.0549    5.2389   21.9361 N.ar    1  LIG1        0.0000
     18 O           2.9440    5.7220   22.6289 O.2     1  LIG1        0.0000
     19 C           4.4315    3.6140   20.0801 C.ar    1  LIG1        0.0000
     20 C           4.1078    2.2806   19.7571 C.ar    1  LIG1        0.0000
     21 C           4.8085    1.5799   18.7761 C.ar    1  LIG1        0.0000
     22 C           5.8803    2.1863   18.1294 C.ar    1  LIG1        0.0000
     23 C           6.2387    3.4967   18.4443 C.ar    1  LIG1        0.0000
     24 C           5.5009    4.2110   19.3989 C.ar    1  LIG1        0.0000
     25 O           5.7923    5.5256   19.6236 O.3     1  LIG1        0.0000
     26 O           6.5658    1.4962   17.1700 O.3     1  LIG1        0.0000
     27 CL          4.2804   -0.0155   18.3800 Cl      1  LIG1        0.0000
     28 H          -1.5226    4.6878   22.2056 H       1  LIG1        0.0000
     29 H           0.2512    6.0190   23.3573 H       1  LIG1        0.0000
     30 H           1.5088    2.7966   19.8037 H       1  LIG1        0.0000
     31 H          -2.0834    3.1461   20.3796 H       1  LIG1        0.0000
     32 H          -1.2447    0.8137   20.4487 H       1  LIG1        0.0000
     33 H           0.2309    1.2966   19.6552 H       1  LIG1        0.0000
     34 H          -2.4692    1.6990   18.2850 H       1  LIG1        0.0000
     35 H          -1.4481    0.2397   18.0942 H       1  LIG1        0.0000
     36 H           0.2353    1.4528   17.1134 H       1  LIG1        0.0000
     37 H          -2.3108    2.4670   16.0105 H       1  LIG1        0.0000
     38 H          -1.5695    0.8664   15.6587 H       1  LIG1        0.0000
     39 H          -1.0355    2.5733   13.8384 H       1  LIG1        0.0000
     40 H           0.4309    1.9998   14.6540 H       1  LIG1        0.0000
     41 H           0.8160    5.0394   16.5338 H       1  LIG1        0.0000
     42 H           1.5080    3.4443   16.2235 H       1  LIG1        0.0000
     43 H           0.3924    3.4478   18.3255 H       1  LIG1        0.0000
     44 H          -1.1832    3.9932   17.6578 H       1  LIG1        0.0000
     45 H           3.3000    1.7648   20.2677 H       1  LIG1        0.0000
     46 H           7.0708    3.9702   17.9328 H       1  LIG1        0.0000
     47 H           6.6194    5.7821   19.1856 H       1  LIG1        0.0000
     48 H           7.3334    2.0120   16.8705 H       1  LIG1        0.0000
@<TRIPOS>BOND
     1     1     2   ar
     2     1     6   ar
     3     1    28    1
     4     2     3   ar
     5     2    29    1
     6     3     4   ar
     7     3    18   ar
     8     4     5   ar
     9     4    16   ar
    10     5     6   ar
    11     5    30    1
    12     6     7    1
    13     7     8    1
    14     7    31    1
    15     8     9    1
    16     8    32    1
    17     8    33    1
    18     9    10    1
    19     9    34    1
    20     9    35    1
    21    10    11    1
    22    10    15    1
    23    10    36    1
    24    11    12    1
    25    11    37    1
    26    11    38    1
    27    12    13    1
    28    12    39    1
    29    12    40    1
    30    13    14    1
    31    14    15    1
    32    14    41    1
    33    14    42    1
    34    15    43    1
    35    15    44    1
    36    16    17   ar
    37    16    19    1
    38    17    18   ar
    39    19    20   ar
    40    19    24   ar
    41    20    21   ar
    42    20    45    1
    43    21    22   ar
    44    21    27    1
    45    22    23   ar
    46    22    26    1
    47    23    24   ar
    48    23    46    1
    49    24    25    1
    50    25    47    1
    51    26    48    1
