REMARK  8 active torsions:
REMARK  status: ('A' for Active; 'I' for Inactive)
REMARK    1  A    between atoms: C_2  and  N_4 
REMARK    2  A    between atoms: N_4  and  C_5 
REMARK    3  A    between atoms: C_5  and  C_6 
REMARK    4  A    between atoms: C_6  and  C_7 
REMARK    5  A    between atoms: C_7  and  N_8 
REMARK    6  A    between atoms: C_14  and  N_15 
REMARK    7  A    between atoms: C_18  and  C_19 
REMARK    8  A    between atoms: C_19  and  C_20 
ROOT
ATOM      1  N   LIG d   1       2.173  10.024  25.071  0.00  0.00     0.000 N 
ATOM      2  C   LIG d   1       0.899  10.046  25.585  0.00  0.00     0.000 A 
ATOM      3  N   LIG d   1       0.479   9.531  26.745  0.00  0.00     0.000 NA
ATOM      4  C   LIG d   1      -0.842   9.786  26.932  0.00  0.00     0.000 A 
ATOM      5  F   LIG d   1      -1.365   9.338  28.084  0.00  0.00     0.000 F 
ATOM      6  N   LIG d   1      -1.698  10.397  26.090  0.00  0.00     0.000 NA
ATOM      7  C   LIG d   1      -1.226  10.856  24.904  0.00  0.00     0.000 A 
ATOM      8  C   LIG d   1       0.142  10.705  24.629  0.00  0.00     0.000 A 
ATOM      9  N   LIG d   1       0.924  11.060  23.556  0.00  0.00     0.000 NA
ATOM     10  C   LIG d   1       2.150  10.683  23.858  0.00  0.00     0.000 A 
ENDROOT
BRANCH  10  11
ATOM     11  C   LIG d   1       3.367  10.963  23.020  0.00  0.00     0.000 C 
BRANCH  11  12
ATOM     12  C   LIG d   1       4.272  12.016  23.635  0.00  0.00     0.000 A 
ATOM     13  C   LIG d   1       3.665  13.202  24.109  0.00  0.00     0.000 A 
ATOM     14  C   LIG d   1       4.454  14.176  24.675  0.00  0.00     0.000 A 
ATOM     15  O   LIG d   1       4.013  15.344  25.210  0.00  0.00     0.000 OA
ATOM     16  C   LIG d   1       5.814  14.036  24.766  0.00  0.00     0.000 A 
ATOM     17  C   LIG d   1       5.237  15.852  25.779  0.00  0.00     0.000 C 
ATOM     18  O   LIG d   1       6.403  15.108  25.359  0.00  0.00     0.000 OA
ATOM     19  C   LIG d   1       6.460  12.912  24.306  0.00  0.00     0.000 A 
ATOM     20  C   LIG d   1       5.683  11.891  23.736  0.00  0.00     0.000 A 
ATOM     21  I   LIG d   1       6.745  10.191  23.095  0.00  0.00     0.000 I 
ENDBRANCH  11  12
ENDBRANCH  10  11
BRANCH   1  22
ATOM     22  C   LIG d   1       3.321   9.424  25.723  0.00  0.00     0.000 C 
BRANCH  22  23
ATOM     23  C   LIG d   1       3.685   8.050  25.157  0.00  0.00     0.000 C 
BRANCH  23  24
ATOM     24  C   LIG d   1       2.644   6.975  25.441  0.00  0.00     0.000 C 
BRANCH  24  25
ATOM     25  N   LIG d   1       2.828   6.417  26.818  0.00  0.00     1.000 N 
ATOM     26  H   LIG d   1       3.824   6.196  26.971  0.00  0.00     0.000 HD
ATOM     27  H   LIG d   1       2.572   7.123  27.526  0.00  0.00     0.000 HD
BRANCH  25  28
ATOM     28  C   LIG d   1       2.036   5.160  27.077  0.00  0.00     0.000 C 
ATOM     29  C   LIG d   1       0.551   5.495  27.133  0.00  0.00     0.000 C 
ATOM     30  C   LIG d   1       2.526   4.551  28.384  0.00  0.00     0.000 C 
ENDBRANCH  25  28
ENDBRANCH  24  25
ENDBRANCH  23  24
ENDBRANCH  22  23
ENDBRANCH   1  22
BRANCH   7  31
ATOM     31  N   LIG d   1      -2.107  11.441  24.009  0.00  0.00     0.000 N 
ATOM     32  H   LIG d   1      -1.687  12.028  23.297  0.00  0.00     0.000 HD
ATOM     33  H   LIG d   1      -2.994  11.727  24.401  0.00  0.00     0.000 HD
ENDBRANCH   7  31
TORSDOF 8
