@<TRIPOS>MOLECULE
2H55_DZ8_A_1001
 52 55 0 0 0
SMALL
USER_CHARGES

@<TRIPOS>ATOM
      1 C           0.5510    5.4949   27.1334 C.3     1  LIG1        0.0000
      2 C           2.0357    5.1595   27.0771 C.3     1  LIG1        0.0000
      3 C           2.5257    4.5513   28.3844 C.3     1  LIG1        0.0000
      4 N           2.8284    6.4173   26.8177 N.4     1  LIG1        1.0000
      5 C           2.6445    6.9749   25.4408 C.3     1  LIG1        0.0000
      6 C           3.6850    8.0496   25.1570 C.3     1  LIG1        0.0000
      7 C           3.3214    9.4241   25.7233 C.3     1  LIG1        0.0000
      8 N           2.1728   10.0242   25.0714 N.ar    1  LIG1        0.0000
      9 C           0.8995   10.0458   25.5851 C.ar    1  LIG1        0.0000
     10 N           0.4789    9.5310   26.7448 N.ar    1  LIG1        0.0000
     11 C          -0.8419    9.7863   26.9317 C.ar    1  LIG1        0.0000
     12 F          -1.3645    9.3376   28.0843 F       1  LIG1        0.0000
     13 N          -1.6984   10.3974   26.0900 N.ar    1  LIG1        0.0000
     14 C          -1.2259   10.8563   24.9035 C.ar    1  LIG1        0.0000
     15 N          -2.1071   11.4407   24.0094 N.pl3   1  LIG1        0.0000
     16 C           0.1418   10.7046   24.6294 C.ar    1  LIG1        0.0000
     17 N           0.9241   11.0604   23.5565 N.ar    1  LIG1        0.0000
     18 C           2.1497   10.6827   23.8581 C.ar    1  LIG1        0.0000
     19 C           3.3667   10.9632   23.0200 C.3     1  LIG1        0.0000
     20 C           4.2719   12.0156   23.6349 C.ar    1  LIG1        0.0000
     21 C           3.6649   13.2019   24.1087 C.ar    1  LIG1        0.0000
     22 C           4.4536   14.1758   24.6750 C.ar    1  LIG1        0.0000
     23 O           4.0126   15.3437   25.2098 O.3     1  LIG1        0.0000
     24 C           5.2375   15.8516   25.7789 C.3     1  LIG1        0.0000
     25 O           6.4026   15.1084   25.3591 O.3     1  LIG1        0.0000
     26 C           5.8137   14.0362   24.7662 C.ar    1  LIG1        0.0000
     27 C           6.4602   12.9118   24.3056 C.ar    1  LIG1        0.0000
     28 C           5.6831   11.8911   23.7357 C.ar    1  LIG1        0.0000
     29 I           6.7455   10.1914   23.0946 I       1  LIG1        0.0000
     30 H          -0.0366    4.5934   27.3281 H       1  LIG1        0.0000
     31 H           0.1948    5.9105   26.1854 H       1  LIG1        0.0000
     32 H           0.3359    6.2227   27.9228 H       1  LIG1        0.0000
     33 H           2.2519    4.4727   26.2509 H       1  LIG1        0.0000
     34 H           2.3685    5.2292   29.2284 H       1  LIG1        0.0000
     35 H           3.5952    4.3169   28.3313 H       1  LIG1        0.0000
     36 H           1.9931    3.6181   28.5924 H       1  LIG1        0.0000
     37 H           3.8242    6.1961   26.9714 H       1  LIG1        0.0000
     38 H           2.5721    7.1227   27.5258 H       1  LIG1        0.0000
     39 H           1.6224    7.3498   25.3608 H       1  LIG1        0.0000
     40 H           2.7706    6.1402   24.7410 H       1  LIG1        0.0000
     41 H           3.8014    8.1198   24.0696 H       1  LIG1        0.0000
     42 H           4.6603    7.7434   25.5527 H       1  LIG1        0.0000
     43 H           4.1653   10.1084   25.6115 H       1  LIG1        0.0000
     44 H           3.1184    9.3623   26.7985 H       1  LIG1        0.0000
     45 H          -1.6871   12.0281   23.2971 H       1  LIG1        0.0000
     46 H          -2.9941   11.7270   24.4009 H       1  LIG1        0.0000
     47 H           3.0531   11.3233   22.0303 H       1  LIG1        0.0000
     48 H           3.8783   10.0157   22.8445 H       1  LIG1        0.0000
     49 H           2.5894   13.3580   24.0504 H       1  LIG1        0.0000
     50 H           5.1635   15.7745   26.8719 H       1  LIG1        0.0000
     51 H           5.3551   16.9037   25.5051 H       1  LIG1        0.0000
     52 H           7.5384   12.8374   24.3999 H       1  LIG1        0.0000
@<TRIPOS>BOND
     1     1     2    1
     2     1    30    1
     3     1    31    1
     4     1    32    1
     5     2     3    1
     6     2     4    1
     7     2    33    1
     8     3    34    1
     9     3    35    1
    10     3    36    1
    11     4     5    1
    12     4    37    1
    13     4    38    1
    14     5     6    1
    15     5    39    1
    16     5    40    1
    17     6     7    1
    18     6    41    1
    19     6    42    1
    20     7     8    1
    21     7    43    1
    22     7    44    1
    23     8     9   ar
    24     8    18   ar
    25     9    10   ar
    26     9    16   ar
    27    10    11   ar
    28    11    12    1
    29    11    13   ar
    30    13    14   ar
    31    14    15    1
    32    14    16   ar
    33    15    45    1
    34    15    46    1
    35    16    17   ar
    36    17    18   ar
    37    18    19    1
    38    19    20    1
    39    19    47    1
    40    19    48    1
    41    20    21   ar
    42    20    28   ar
    43    21    22   ar
    44    21    49    1
    45    22    23    1
    46    22    26   ar
    47    23    24    1
    48    24    25    1
    49    24    50    1
    50    24    51    1
    51    25    26    1
    52    26    27   ar
    53    27    28   ar
    54    27    52    1
    55    28    29    1
