2H55_DZ8_A_1001
 OpenBabel03301717023D

 52 55  0  0  0  0  0  0  0  0999 V2000
    0.5510    5.4949   27.1334 C   0  0  0  0  0  0  0  0  0  0  0  0
    2.0357    5.1595   27.0771 C   0  0  0  0  0  0  0  0  0  0  0  0
    2.5257    4.5513   28.3844 C   0  0  0  0  0  0  0  0  0  0  0  0
    2.8284    6.4173   26.8177 N   0  3  0  0  0  0  0  0  0  0  0  0
    2.6445    6.9749   25.4408 C   0  0  0  0  0  0  0  0  0  0  0  0
    3.6850    8.0496   25.1570 C   0  0  0  0  0  0  0  0  0  0  0  0
    3.3214    9.4241   25.7233 C   0  0  0  0  0  0  0  0  0  0  0  0
    2.1728   10.0242   25.0714 N   0  3  0  0  0  0  0  0  0  0  0  0
    0.8995   10.0458   25.5851 C   0  0  0  0  0  0  0  0  0  0  0  0
    0.4789    9.5310   26.7448 N   0  0  0  0  0  0  0  0  0  0  0  0
   -0.8419    9.7863   26.9317 C   0  0  0  0  0  0  0  0  0  0  0  0
   -1.3645    9.3376   28.0843 F   0  0  0  0  0  0  0  0  0  0  0  0
   -1.6984   10.3974   26.0900 N   0  0  0  0  0  0  0  0  0  0  0  0
   -1.2259   10.8563   24.9035 C   0  0  0  0  0  0  0  0  0  0  0  0
   -2.1071   11.4407   24.0094 N   0  0  0  0  0  0  0  0  0  0  0  0
    0.1418   10.7046   24.6294 C   0  0  0  0  0  0  0  0  0  0  0  0
    0.9241   11.0604   23.5565 N   0  0  0  0  0  0  0  0  0  0  0  0
    2.1497   10.6827   23.8581 C   0  0  0  0  0  0  0  0  0  0  0  0
    3.3667   10.9632   23.0200 C   0  0  0  0  0  0  0  0  0  0  0  0
    4.2719   12.0156   23.6349 C   0  0  0  0  0  0  0  0  0  0  0  0
    3.6649   13.2019   24.1087 C   0  0  0  0  0  0  0  0  0  0  0  0
    4.4536   14.1758   24.6750 C   0  0  0  0  0  0  0  0  0  0  0  0
    4.0126   15.3437   25.2098 O   0  0  0  0  0  0  0  0  0  0  0  0
    5.2375   15.8516   25.7789 C   0  0  0  0  0  0  0  0  0  0  0  0
    6.4026   15.1084   25.3591 O   0  0  0  0  0  0  0  0  0  0  0  0
    5.8137   14.0362   24.7662 C   0  0  0  0  0  0  0  0  0  0  0  0
    6.4602   12.9118   24.3056 C   0  0  0  0  0  0  0  0  0  0  0  0
    5.6831   11.8911   23.7357 C   0  0  0  0  0  0  0  0  0  0  0  0
    6.7455   10.1914   23.0946 I   0  0  0  0  0  0  0  0  0  0  0  0
   -0.0366    4.5934   27.3281 H   0  0  0  0  0  0  0  0  0  0  0  0
    0.1948    5.9105   26.1854 H   0  0  0  0  0  0  0  0  0  0  0  0
    0.3359    6.2227   27.9228 H   0  0  0  0  0  0  0  0  0  0  0  0
    2.2519    4.4727   26.2509 H   0  0  0  0  0  0  0  0  0  0  0  0
    2.3685    5.2292   29.2284 H   0  0  0  0  0  0  0  0  0  0  0  0
    3.5952    4.3169   28.3313 H   0  0  0  0  0  0  0  0  0  0  0  0
    1.9931    3.6181   28.5924 H   0  0  0  0  0  0  0  0  0  0  0  0
    3.8242    6.1961   26.9714 H   0  0  0  0  0  0  0  0  0  0  0  0
    2.5721    7.1227   27.5258 H   0  0  0  0  0  0  0  0  0  0  0  0
    1.6224    7.3498   25.3608 H   0  0  0  0  0  0  0  0  0  0  0  0
    2.7706    6.1402   24.7410 H   0  0  0  0  0  0  0  0  0  0  0  0
    3.8014    8.1198   24.0696 H   0  0  0  0  0  0  0  0  0  0  0  0
    4.6603    7.7434   25.5527 H   0  0  0  0  0  0  0  0  0  0  0  0
    4.1653   10.1084   25.6115 H   0  0  0  0  0  0  0  0  0  0  0  0
    3.1184    9.3623   26.7985 H   0  0  0  0  0  0  0  0  0  0  0  0
   -1.6871   12.0281   23.2971 H   0  0  0  0  0  0  0  0  0  0  0  0
   -2.9941   11.7270   24.4009 H   0  0  0  0  0  0  0  0  0  0  0  0
    3.0531   11.3233   22.0303 H   0  0  0  0  0  0  0  0  0  0  0  0
    3.8783   10.0157   22.8445 H   0  0  0  0  0  0  0  0  0  0  0  0
    2.5894   13.3580   24.0504 H   0  0  0  0  0  0  0  0  0  0  0  0
    5.1635   15.7745   26.8719 H   0  0  0  0  0  0  0  0  0  0  0  0
    5.3551   16.9037   25.5051 H   0  0  0  0  0  0  0  0  0  0  0  0
    7.5384   12.8374   24.3999 H   0  0  0  0  0  0  0  0  0  0  0  0
  1  2  1  0  0  0  0
  1 30  1  0  0  0  0
  1 31  1  0  0  0  0
  1 32  1  0  0  0  0
  2  3  1  0  0  0  0
  2  4  1  0  0  0  0
  2 33  1  0  0  0  0
  3 34  1  0  0  0  0
  3 35  1  0  0  0  0
  3 36  1  0  0  0  0
  4  5  1  0  0  0  0
  4 37  1  0  0  0  0
  4 38  1  0  0  0  0
  5  6  1  0  0  0  0
  5 39  1  0  0  0  0
  5 40  1  0  0  0  0
  6  7  1  0  0  0  0
  6 41  1  0  0  0  0
  6 42  1  0  0  0  0
  7  8  1  0  0  0  0
  7 43  1  0  0  0  0
  7 44  1  0  0  0  0
  8  9  1  0  0  0  0
  8 18  2  0  0  0  0
  9 10  2  0  0  0  0
  9 16  1  0  0  0  0
 10 11  1  0  0  0  0
 11 12  1  0  0  0  0
 11 13  2  0  0  0  0
 13 14  1  0  0  0  0
 14 15  1  0  0  0  0
 14 16  2  0  0  0  0
 15 45  1  0  0  0  0
 15 46  1  0  0  0  0
 16 17  1  0  0  0  0
 17 18  1  0  0  0  0
 18 19  1  0  0  0  0
 19 20  1  0  0  0  0
 19 47  1  0  0  0  0
 19 48  1  0  0  0  0
 20 21  2  0  0  0  0
 20 28  1  0  0  0  0
 21 22  1  0  0  0  0
 21 49  1  0  0  0  0
 22 23  1  0  0  0  0
 22 26  2  0  0  0  0
 23 24  1  0  0  0  0
 24 25  1  0  0  0  0
 24 50  1  0  0  0  0
 24 51  1  0  0  0  0
 25 26  1  0  0  0  0
 26 27  1  0  0  0  0
 27 28  2  0  0  0  0
 27 52  1  0  0  0  0
 28 29  1  0  0  0  0
M  CHG  2   4   1   8   1
M  END
$$$$
