REMARK  4 active torsions:
REMARK  status: ('A' for Active; 'I' for Inactive)
REMARK    1  A    between atoms: C_2  and  O_14 
REMARK    2  A    between atoms: C_7  and  C_10 
REMARK    3  A    between atoms: C_10  and  C_11 
REMARK    4  A    between atoms: C_11  and  C_15 
ROOT
ATOM      1  C   LIG d   1      69.102  32.897  26.349  0.00  0.00     0.143 C 
ATOM      2  C   LIG d   1      69.516  34.300  26.311  0.00  0.00     0.072 C 
ATOM      3  N   LIG d   1      69.842  35.433  26.291  0.00  0.00    -0.196 NA
ENDROOT
BRANCH   1   4
ATOM      4  C   LIG d   1      67.618  32.847  26.729  0.00  0.00     0.087 A 
ATOM      5  N   LIG d   1      67.186  32.385  27.924  0.00  0.00    -0.176 NA
ATOM      6  N   LIG d   1      65.821  32.510  27.881  0.00  0.00    -0.277 N 
ATOM      7  C   LIG d   1      65.392  33.072  26.703  0.00  0.00     0.070 A 
ATOM      8  H   LIG d   1      65.236  32.201  28.672  0.00  0.00     0.189 HD
ATOM      9  C   LIG d   1      64.122  33.401  26.230  0.00  0.00     0.073 A 
ATOM     10  C   LIG d   1      66.534  33.304  25.943  0.00  0.00     0.024 A 
ATOM     11  C   LIG d   1      64.052  33.967  24.955  0.00  0.00     0.119 A 
ATOM     12  C   LIG d   1      65.172  34.221  24.174  0.00  0.00     0.046 A 
ATOM     13  C   LIG d   1      66.428  33.894  24.668  0.00  0.00     0.015 A 
BRANCH  11  14
ATOM     14  O   LIG d   1      62.832  34.266  24.413  0.00  0.00    -0.507 OA
ATOM     15  H   LIG d   1      62.108  34.017  25.016  0.00  0.00     0.292 HD
ENDBRANCH  11  14
ENDBRANCH   1   4
BRANCH   1  16
ATOM     16  C   LIG d   1      69.418  32.229  25.010  0.00  0.00     0.028 C 
BRANCH  16  17
ATOM     17  C   LIG d   1      70.676  31.343  25.021  0.00  0.00    -0.009 C 
ATOM     18  C   LIG d   1      70.740  30.659  23.651  0.00  0.00     0.003 C 
ATOM     19  C   LIG d   1      71.945  29.748  23.517  0.00  0.00     0.000 C 
ATOM     20  C   LIG d   1      73.240  30.501  23.794  0.00  0.00     0.000 C 
ATOM     21  C   LIG d   1      73.188  31.193  25.153  0.00  0.00     0.000 C 
ATOM     22  C   LIG d   1      71.974  32.119  25.257  0.00  0.00     0.003 C 
ENDBRANCH  16  17
ENDBRANCH   1  16
TORSDOF 4
