@<TRIPOS>MOLECULE
4EFT_EFT_A_301
 39 41 0 0 0
SMALL
USER_CHARGES

@<TRIPOS>ATOM
      1 C          65.1716   34.2210   24.1738 C.ar    1  LIG1       -0.0194
      2 C          64.0519   33.9667   24.9552 C.ar    1  LIG1        0.1189
      3 C          64.1217   33.4011   26.2304 C.ar    1  LIG1        0.0052
      4 C          66.4285   33.8943   24.6683 C.ar    1  LIG1       -0.0473
      5 N          65.8213   32.5100   27.8812 N.ar    1  LIG1       -0.2765
      6 N          67.1857   32.3847   27.9235 N.ar    1  LIG1       -0.1764
      7 C          67.6184   32.8474   26.7291 C.ar    1  LIG1        0.0873
      8 C          66.5342   33.3041   25.9428 C.ar    1  LIG1        0.0242
      9 C          65.3916   33.0725   26.7025 C.ar    1  LIG1        0.0695
     10 C          69.1023   32.8970   26.3491 C.3     1  LIG1        0.0906
     11 C          69.4182   32.2288   25.0096 C.3     1  LIG1       -0.0289
     12 C          69.5160   34.3003   26.3107 C.1     1  LIG1        0.0722
     13 N          69.8424   35.4328   26.2913 N.1     1  LIG1       -0.1959
     14 O          62.8324   34.2657   24.4130 O.3     1  LIG1       -0.5067
     15 C          70.6763   31.3428   25.0210 C.3     1  LIG1       -0.0395
     16 C          70.7398   30.6587   23.6515 C.3     1  LIG1       -0.0502
     17 C          71.9448   29.7476   23.5173 C.3     1  LIG1       -0.0528
     18 C          73.2396   30.5006   23.7936 C.3     1  LIG1       -0.0530
     19 C          73.1882   31.1931   25.1532 C.3     1  LIG1       -0.0528
     20 C          71.9737   32.1186   25.2571 C.3     1  LIG1       -0.0502
     21 H          65.0805   34.6600   23.1827 H       1  LIG1        0.0654
     22 H          63.2198   33.2280   26.8005 H       1  LIG1        0.0675
     23 H          67.3104   34.0983   24.0653 H       1  LIG1        0.0626
     24 H          65.2361   32.2012   28.6722 H       1  LIG1        0.1889
     25 H          69.6777   32.3609   27.1081 H       1  LIG1        0.0519
     26 H          69.5613   32.9934   24.2345 H       1  LIG1        0.0284
     27 H          68.5673   31.5994   24.7187 H       1  LIG1        0.0284
     28 H          62.1085   34.0169   25.0163 H       1  LIG1        0.2921
     29 H          70.5893   30.6099   25.8381 H       1  LIG1        0.0301
     30 H          70.7956   31.4382   22.8744 H       1  LIG1        0.0268
     31 H          69.8217   30.0832   23.4858 H       1  LIG1        0.0268
     32 H          71.9687   29.3240   22.5058 H       1  LIG1        0.0265
     33 H          71.8454   28.9224   24.2335 H       1  LIG1        0.0265
     34 H          73.3943   31.2550   23.0089 H       1  LIG1        0.0265
     35 H          74.0849   29.8010   23.7615 H       1  LIG1        0.0265
     36 H          74.1082   31.7704   25.3087 H       1  LIG1        0.0265
     37 H          73.1295   30.4291   25.9422 H       1  LIG1        0.0265
     38 H          71.9509   32.5846   26.2490 H       1  LIG1        0.0268
     39 H          72.0624   32.9144   24.5058 H       1  LIG1        0.0268
@<TRIPOS>BOND
     1     1     2   ar
     2     1     4   ar
     3     1    21    1
     4     2     3   ar
     5     2    14    1
     6     3     9   ar
     7     3    22    1
     8     4     8   ar
     9     4    23    1
    10     5     6   ar
    11     5     9   ar
    12     5    24    1
    13     6     7   ar
    14     7     8   ar
    15     7    10    1
    16     8     9   ar
    17    10    11    1
    18    10    12    1
    19    10    25    1
    20    11    15    1
    21    11    26    1
    22    11    27    1
    23    12    13    3
    24    14    28    1
    25    15    16    1
    26    15    20    1
    27    15    29    1
    28    16    17    1
    29    16    30    1
    30    16    31    1
    31    17    18    1
    32    17    32    1
    33    17    33    1
    34    18    19    1
    35    18    34    1
    36    18    35    1
    37    19    20    1
    38    19    36    1
    39    19    37    1
    40    20    38    1
    41    20    39    1
