@<TRIPOS>MOLECULE
4EFU_EFU_A_301
 52 55 0 0 0
SMALL
USER_CHARGES

@<TRIPOS>ATOM
      1 C          -0.8818   11.0493   25.7055 C.ar    1  LIG1        0.0790
      2 C          -2.0346   11.4868   25.0437 C.ar    1  LIG1        0.1310
      3 C          -1.9542   12.1943   23.8313 C.ar    1  LIG1        0.0060
      4 C           0.3890   11.3574   25.1996 C.ar    1  LIG1       -0.0351
      5 O          -3.2667   11.2047   25.5705 O.3     1  LIG1       -0.5059
      6 C          -0.9643   10.3717   27.0171 C.2     1  LIG1        0.2502
      7 N          -0.6394    9.0201   27.1392 N.am    1  LIG1       -0.2962
      8 O          -1.2930   11.0735   27.9849 O.2     1  LIG1       -0.2699
      9 C           0.4967   12.0409   23.9749 C.ar    1  LIG1        0.0239
     10 C          -0.6676   12.4358   23.3209 C.ar    1  LIG1        0.0695
     11 N          -0.2312   13.0342   22.1676 N.ar    1  LIG1       -0.2766
     12 N           1.1082   13.0266   22.0125 N.ar    1  LIG1       -0.1774
     13 C           1.5764   12.4445   23.1353 C.ar    1  LIG1        0.0748
     14 C           3.0401   12.1055   23.2590 C.3     1  LIG1        0.0171
     15 C           3.6915   12.7603   24.4599 C.ar    1  LIG1       -0.0413
     16 C           4.1184   11.9864   25.5556 C.ar    1  LIG1       -0.0582
     17 C           5.1620   13.8953   26.5903 C.ar    1  LIG1       -0.0588
     18 C           4.7696   14.6851   25.5051 C.ar    1  LIG1       -0.0502
     19 C           4.8475   12.5429   26.6094 C.ar    1  LIG1       -0.0612
     20 C           4.0424   14.1144   24.4455 C.ar    1  LIG1       -0.0553
     21 C          -0.7520    8.3913   28.4487 C.3     1  LIG1        0.0038
     22 C          -0.3764    8.1333   26.0067 C.3     1  LIG1        0.0397
     23 C           1.0462    8.1239   25.5004 C.ar    1  LIG1       -0.0301
     24 C           1.2585    7.8494   24.1393 C.ar    1  LIG1       -0.0571
     25 C           3.6423    8.0324   24.4363 C.ar    1  LIG1       -0.0617
     26 C           3.4496    8.2839   25.7935 C.ar    1  LIG1       -0.0615
     27 C           2.5462    7.8138   23.6075 C.ar    1  LIG1       -0.0615
     28 C           2.1577    8.3262   26.3254 C.ar    1  LIG1       -0.0571
     29 C           5.1262   16.1375   25.4620 C.3     1  LIG1       -0.0397
     30 H          -2.8424   12.5315   23.3098 H       1  LIG1        0.0675
     31 H           1.2836   11.0779   25.7437 H       1  LIG1        0.0633
     32 H          -3.9567   11.6441   25.0481 H       1  LIG1        0.2922
     33 H          -0.7958   13.4385   21.4271 H       1  LIG1        0.1889
     34 H           3.5919   12.4094   22.3605 H       1  LIG1        0.0377
     35 H           3.1487   11.0183   23.3368 H       1  LIG1        0.0377
     36 H           3.9032   10.9243   25.5856 H       1  LIG1        0.0620
     37 H           5.7150   14.3313   27.4208 H       1  LIG1        0.0620
     38 H           5.1784   11.9235   27.4410 H       1  LIG1        0.0618
     39 H           3.7736   14.7300   23.5885 H       1  LIG1        0.0623
     40 H          -0.9882    9.1141   29.2334 H       1  LIG1        0.0429
     41 H           0.1924    7.9019   28.6980 H       1  LIG1        0.0429
     42 H          -1.5480    7.6434   28.4200 H       1  LIG1        0.0429
     43 H          -1.0435    8.4336   25.1892 H       1  LIG1        0.0514
     44 H          -0.6488    7.1078   26.2872 H       1  LIG1        0.0514
     45 H           0.4106    7.6677   23.4813 H       1  LIG1        0.0621
     46 H           4.6472    8.0073   24.0231 H       1  LIG1        0.0618
     47 H           4.3072    8.4696   26.4362 H       1  LIG1        0.0618
     48 H           2.6890    7.6160   22.5485 H       1  LIG1        0.0618
     49 H           2.0342    8.5381   27.3853 H       1  LIG1        0.0621
     50 H           5.6850   16.4347   26.3555 H       1  LIG1        0.0278
     51 H           4.2122   16.7372   25.4158 H       1  LIG1        0.0278
     52 H           5.7492   16.3459   24.5865 H       1  LIG1        0.0278
@<TRIPOS>BOND
     1     1     2   ar
     2     1     4   ar
     3     1     6    1
     4     2     3   ar
     5     2     5    1
     6     3    10   ar
     7     3    30    1
     8     4     9   ar
     9     4    31    1
    10     5    32    1
    11     6     7   am
    12     6     8    2
    13     7    21    1
    14     7    22    1
    15     9    10   ar
    16     9    13   ar
    17    10    11   ar
    18    11    12   ar
    19    11    33    1
    20    12    13   ar
    21    13    14    1
    22    14    15    1
    23    14    34    1
    24    14    35    1
    25    15    16   ar
    26    15    20   ar
    27    16    19   ar
    28    16    36    1
    29    17    18   ar
    30    17    19   ar
    31    17    37    1
    32    18    20   ar
    33    18    29    1
    34    19    38    1
    35    20    39    1
    36    21    40    1
    37    21    41    1
    38    21    42    1
    39    22    23    1
    40    22    43    1
    41    22    44    1
    42    23    24   ar
    43    23    28   ar
    44    24    27   ar
    45    24    45    1
    46    25    26   ar
    47    25    27   ar
    48    25    46    1
    49    26    28   ar
    50    26    47    1
    51    27    48    1
    52    28    49    1
    53    29    50    1
    54    29    51    1
    55    29    52    1
