4EFU_EFU_A_301
 OpenBabel03301717283D

 52 55  0  0  0  0  0  0  0  0999 V2000
   -0.8818   11.0493   25.7055 C   0  0  0  0  0  0  0  0  0  0  0  0
   -2.0346   11.4868   25.0437 C   0  0  0  0  0  0  0  0  0  0  0  0
   -1.9542   12.1943   23.8313 C   0  0  0  0  0  0  0  0  0  0  0  0
    0.3890   11.3574   25.1996 C   0  0  0  0  0  0  0  0  0  0  0  0
   -3.2667   11.2047   25.5705 O   0  0  0  0  0  0  0  0  0  0  0  0
   -0.9643   10.3717   27.0171 C   0  0  0  0  0  0  0  0  0  0  0  0
   -0.6394    9.0201   27.1392 N   0  0  0  0  0  0  0  0  0  0  0  0
   -1.2930   11.0735   27.9849 O   0  0  0  0  0  0  0  0  0  0  0  0
    0.4967   12.0409   23.9749 C   0  0  0  0  0  0  0  0  0  0  0  0
   -0.6676   12.4358   23.3209 C   0  0  0  0  0  0  0  0  0  0  0  0
   -0.2312   13.0342   22.1676 N   0  3  0  0  0  0  0  0  0  0  0  0
    1.1082   13.0266   22.0125 N   0  0  0  0  0  0  0  0  0  0  0  0
    1.5764   12.4445   23.1353 C   0  0  0  0  0  0  0  0  0  0  0  0
    3.0401   12.1055   23.2590 C   0  0  0  0  0  0  0  0  0  0  0  0
    3.6915   12.7603   24.4599 C   0  0  0  0  0  0  0  0  0  0  0  0
    4.1184   11.9864   25.5556 C   0  0  0  0  0  0  0  0  0  0  0  0
    5.1620   13.8953   26.5903 C   0  0  0  0  0  0  0  0  0  0  0  0
    4.7696   14.6851   25.5051 C   0  0  0  0  0  0  0  0  0  0  0  0
    4.8475   12.5429   26.6094 C   0  0  0  0  0  0  0  0  0  0  0  0
    4.0424   14.1144   24.4455 C   0  0  0  0  0  0  0  0  0  0  0  0
   -0.7520    8.3913   28.4487 C   0  0  0  0  0  0  0  0  0  0  0  0
   -0.3764    8.1333   26.0067 C   0  0  0  0  0  0  0  0  0  0  0  0
    1.0462    8.1239   25.5004 C   0  0  0  0  0  0  0  0  0  0  0  0
    1.2585    7.8494   24.1393 C   0  0  0  0  0  0  0  0  0  0  0  0
    3.6423    8.0324   24.4363 C   0  0  0  0  0  0  0  0  0  0  0  0
    3.4496    8.2839   25.7935 C   0  0  0  0  0  0  0  0  0  0  0  0
    2.5462    7.8138   23.6075 C   0  0  0  0  0  0  0  0  0  0  0  0
    2.1577    8.3262   26.3254 C   0  0  0  0  0  0  0  0  0  0  0  0
    5.1262   16.1375   25.4620 C   0  0  0  0  0  0  0  0  0  0  0  0
   -2.8424   12.5315   23.3098 H   0  0  0  0  0  0  0  0  0  0  0  0
    1.2836   11.0779   25.7437 H   0  0  0  0  0  0  0  0  0  0  0  0
   -3.9567   11.6441   25.0481 H   0  0  0  0  0  0  0  0  0  0  0  0
   -0.7958   13.4385   21.4271 H   0  0  0  0  0  0  0  0  0  0  0  0
    3.5919   12.4094   22.3605 H   0  0  0  0  0  0  0  0  0  0  0  0
    3.1487   11.0183   23.3368 H   0  0  0  0  0  0  0  0  0  0  0  0
    3.9032   10.9243   25.5856 H   0  0  0  0  0  0  0  0  0  0  0  0
    5.7150   14.3313   27.4208 H   0  0  0  0  0  0  0  0  0  0  0  0
    5.1784   11.9235   27.4410 H   0  0  0  0  0  0  0  0  0  0  0  0
    3.7736   14.7300   23.5885 H   0  0  0  0  0  0  0  0  0  0  0  0
   -0.9882    9.1141   29.2334 H   0  0  0  0  0  0  0  0  0  0  0  0
    0.1924    7.9019   28.6980 H   0  0  0  0  0  0  0  0  0  0  0  0
   -1.5480    7.6434   28.4200 H   0  0  0  0  0  0  0  0  0  0  0  0
   -1.0435    8.4336   25.1892 H   0  0  0  0  0  0  0  0  0  0  0  0
   -0.6488    7.1078   26.2872 H   0  0  0  0  0  0  0  0  0  0  0  0
    0.4106    7.6677   23.4813 H   0  0  0  0  0  0  0  0  0  0  0  0
    4.6472    8.0073   24.0231 H   0  0  0  0  0  0  0  0  0  0  0  0
    4.3072    8.4696   26.4362 H   0  0  0  0  0  0  0  0  0  0  0  0
    2.6890    7.6160   22.5485 H   0  0  0  0  0  0  0  0  0  0  0  0
    2.0342    8.5381   27.3853 H   0  0  0  0  0  0  0  0  0  0  0  0
    5.6850   16.4347   26.3555 H   0  0  0  0  0  0  0  0  0  0  0  0
    4.2122   16.7372   25.4158 H   0  0  0  0  0  0  0  0  0  0  0  0
    5.7492   16.3459   24.5865 H   0  0  0  0  0  0  0  0  0  0  0  0
  1  2  1  0  0  0  0
  1  4  2  0  0  0  0
  1  6  1  0  0  0  0
  2  3  2  0  0  0  0
  2  5  1  0  0  0  0
  3 10  1  0  0  0  0
  3 30  1  0  0  0  0
  4  9  1  0  0  0  0
  4 31  1  0  0  0  0
  5 32  1  0  0  0  0
  6  7  1  0  0  0  0
  6  8  2  0  0  0  0
  7 21  1  0  0  0  0
  7 22  1  0  0  0  0
  9 10  1  0  0  0  0
  9 13  2  0  0  0  0
 10 11  2  0  0  0  0
 11 12  1  0  0  0  0
 11 33  1  0  0  0  0
 12 13  1  0  0  0  0
 13 14  1  0  0  0  0
 14 15  1  0  0  0  0
 14 34  1  0  0  0  0
 14 35  1  0  0  0  0
 15 16  2  0  0  0  0
 15 20  1  0  0  0  0
 16 19  1  0  0  0  0
 16 36  1  0  0  0  0
 17 18  1  0  0  0  0
 17 19  2  0  0  0  0
 17 37  1  0  0  0  0
 18 20  2  0  0  0  0
 18 29  1  0  0  0  0
 19 38  1  0  0  0  0
 20 39  1  0  0  0  0
 21 40  1  0  0  0  0
 21 41  1  0  0  0  0
 21 42  1  0  0  0  0
 22 23  1  0  0  0  0
 22 43  1  0  0  0  0
 22 44  1  0  0  0  0
 23 24  2  0  0  0  0
 23 28  1  0  0  0  0
 24 27  1  0  0  0  0
 24 45  1  0  0  0  0
 25 26  1  0  0  0  0
 25 27  2  0  0  0  0
 25 46  1  0  0  0  0
 26 28  2  0  0  0  0
 26 47  1  0  0  0  0
 27 48  1  0  0  0  0
 28 49  1  0  0  0  0
 29 50  1  0  0  0  0
 29 51  1  0  0  0  0
 29 52  1  0  0  0  0
M  CHG  1  11   1
M  END
$$$$
