4O07_FGH_A_4000
 OpenBabel03301717343D

 68 72  0  0  1  0  0  0  0  0999 V2000
    8.8601  -12.0690  -23.9774 O   0  0  0  0  0  0  0  0  0  0  0  0
    7.6988  -12.4687  -24.1422 C   0  0  0  0  0  0  0  0  0  0  0  0
    7.4373  -13.9087  -24.5418 C   0  0  0  0  0  0  0  0  0  0  0  0
    6.1840  -14.1003  -25.4093 C   0  0  0  0  0  0  0  0  0  0  0  0
    5.8931  -15.6043  -25.5385 C   0  0  0  0  0  0  0  0  0  0  0  0
    6.4232  -13.5492  -26.8151 C   0  0  0  0  0  0  0  0  0  0  0  0
    4.9702  -13.4057  -24.7520 C   0  0  0  0  0  0  0  0  0  0  0  0
    5.2840  -12.0318  -24.2291 C   0  0  1  0  0  0  0  0  0  0  0  0
    6.5607  -11.5803  -23.9415 C   0  0  2  0  0  0  0  0  0  0  0  0
    6.4405  -10.2289  -23.5359 C   0  0  1  0  0  0  0  0  0  0  0  0
    7.4806   -9.2354  -23.1222 C   0  0  0  0  0  0  0  0  0  0  0  0
    6.9321   -7.8034  -23.0637 C   0  0  0  0  0  0  0  0  0  0  0  0
    5.5548   -7.7207  -22.4572 N   0  3  1  0  0  0  0  0  0  0  0  0
    5.0987   -6.2950  -22.3662 C   0  0  0  0  0  0  0  0  0  0  0  0
    4.5542   -8.5555  -23.2359 C   0  0  0  0  0  0  0  0  0  0  0  0
    5.0970   -9.8923  -23.5864 C   0  0  1  0  0  0  0  0  0  0  0  0
    4.3791  -10.9982  -24.0331 N   0  3  1  0  0  0  0  0  0  0  0  0
    3.0004  -11.0350  -24.3495 C   0  0  1  0  0  0  0  0  0  0  0  0
    2.5088  -10.0944  -25.2555 C   0  0  0  0  0  0  0  0  0  0  0  0
    2.1522  -11.9925  -23.8047 C   0  0  0  0  0  0  0  0  0  0  0  0
    0.7975  -12.0156  -24.1641 C   0  0  2  0  0  0  0  0  0  0  0  0
   -0.1102  -13.0560  -23.5425 C   0  0  0  0  0  0  0  0  0  0  0  0
   -1.5353  -12.5423  -23.4514 C   0  0  0  0  0  0  0  0  0  0  0  0
   -1.9456  -11.9694  -24.7126 N   0  0  0  0  0  0  0  0  0  0  0  0
   -1.1193  -11.2655  -25.5710 C   0  0  0  0  0  0  0  0  0  0  0  0
   -1.5137  -10.8691  -26.6411 O   0  0  0  0  0  0  0  0  0  0  0  0
    0.3028  -11.0899  -25.1153 C   0  0  2  0  0  0  0  0  0  0  0  0
    1.1567  -10.0822  -25.6274 C   0  0  1  0  0  0  0  0  0  0  0  0
    0.7674   -8.9290  -26.5270 C   0  0  0  0  0  0  0  0  0  0  0  0
    0.1162   -7.7078  -25.8549 C   0  0  0  0  0  0  0  0  0  0  0  0
   -0.1706   -6.6383  -26.9125 C   0  0  0  0  0  0  0  0  0  0  0  0
    0.9182   -7.0648  -24.7298 C   0  0  0  0  0  0  0  0  0  0  0  0
    7.3266  -14.5057  -23.6270 H   0  0  0  0  0  0  0  0  0  0  0  0
    8.3106  -14.2697  -25.0939 H   0  0  0  0  0  0  0  0  0  0  0  0
    6.7343  -16.1282  -26.0103 H   0  0  0  0  0  0  0  0  0  0  0  0
    4.9961  -15.7723  -26.1465 H   0  0  0  0  0  0  0  0  0  0  0  0
    5.7250  -16.0465  -24.5491 H   0  0  0  0  0  0  0  0  0  0  0  0
    7.2720  -14.0521  -27.2936 H   0  0  0  0  0  0  0  0  0  0  0  0
    6.6348  -12.4792  -26.7692 H   0  0  0  0  0  0  0  0  0  0  0  0
    5.5367  -13.7013  -27.4419 H   0  0  0  0  0  0  0  0  0  0  0  0
    4.6467  -14.0268  -23.9116 H   0  0  0  0  0  0  0  0  0  0  0  0
    4.1727  -13.3486  -25.4938 H   0  0  0  0  0  0  0  0  0  0  0  0
    8.2980   -9.2374  -23.8443 H   0  0  0  0  0  0  0  0  0  0  0  0
    7.8803   -9.5014  -22.1401 H   0  0  0  0  0  0  0  0  0  0  0  0
    6.8448   -7.3910  -24.0716 H   0  0  0  0  0  0  0  0  0  0  0  0
    7.5802   -7.1709  -22.4490 H   0  0  0  0  0  0  0  0  0  0  0  0
    5.6128   -8.1023  -21.5041 H   0  0  0  0  0  0  0  0  0  0  0  0
    5.0380   -5.8880  -23.3787 H   0  0  0  0  0  0  0  0  0  0  0  0
    5.8243   -5.7366  -21.7718 H   0  0  0  0  0  0  0  0  0  0  0  0
    4.1192   -6.2820  -21.8869 H   0  0  0  0  0  0  0  0  0  0  0  0
    4.3425   -7.9781  -24.1378 H   0  0  0  0  0  0  0  0  0  0  0  0
    3.6776   -8.6227  -22.5895 H   0  0  0  0  0  0  0  0  0  0  0  0
    3.1792   -9.3668  -25.7104 H   0  0  0  0  0  0  0  0  0  0  0  0
    2.5237  -12.6976  -23.0678 H   0  0  0  0  0  0  0  0  0  0  0  0
    0.2396  -13.2999  -22.5323 H   0  0  0  0  0  0  0  0  0  0  0  0
   -0.0971  -13.9693  -24.1488 H   0  0  0  0  0  0  0  0  0  0  0  0
   -1.6142  -11.7797  -22.6691 H   0  0  0  0  0  0  0  0  0  0  0  0
   -2.2155  -13.3647  -23.2040 H   0  0  0  0  0  0  0  0  0  0  0  0
   -2.9015  -12.0677  -25.0297 H   0  0  0  0  0  0  0  0  0  0  0  0
    0.0860   -9.2964  -27.2948 H   0  0  0  0  0  0  0  0  0  0  0  0
    1.6735   -8.5803  -27.0413 H   0  0  0  0  0  0  0  0  0  0  0  0
   -0.8206   -8.0555  -25.4179 H   0  0  0  0  0  0  0  0  0  0  0  0
    0.7634   -6.2659  -27.3554 H   0  0  0  0  0  0  0  0  0  0  0  0
   -0.7008   -5.7869  -26.4687 H   0  0  0  0  0  0  0  0  0  0  0  0
   -0.7904   -7.0510  -27.7162 H   0  0  0  0  0  0  0  0  0  0  0  0
    1.8609   -6.6475  -25.1000 H   0  0  0  0  0  0  0  0  0  0  0  0
    1.1343   -7.7995  -23.9537 H   0  0  0  0  0  0  0  0  0  0  0  0
    0.3402   -6.2491  -24.2720 H   0  0  0  0  0  0  0  0  0  0  0  0
  1  2  2  0  0  0  0
  2  3  1  0  0  0  0
  3  4  1  0  0  0  0
  3 33  1  0  0  0  0
  3 34  1  0  0  0  0
  4  5  1  0  0  0  0
  4  6  1  0  0  0  0
  4  7  1  0  0  0  0
  5 35  1  0  0  0  0
  5 36  1  0  0  0  0
  5 37  1  0  0  0  0
  6 38  1  0  0  0  0
  6 39  1  0  0  0  0
  6 40  1  0  0  0  0
  7 41  1  0  0  0  0
  7 42  1  0  0  0  0
  8  7  1  6  0  0  0
  8  9  1  0  0  0  0
  8 17  1  0  0  0  0
  9  2  1  6  0  0  0
  9 10  1  0  0  0  0
 10 11  1  6  0  0  0
 10 16  1  0  0  0  0
 11 12  1  0  0  0  0
 11 43  1  0  0  0  0
 11 44  1  0  0  0  0
 12 13  1  0  0  0  0
 12 45  1  0  0  0  0
 12 46  1  0  0  0  0
 13 14  1  0  0  0  0
 13 15  1  0  0  0  0
 13 47  1  1  0  0  0
 14 48  1  0  0  0  0
 14 49  1  0  0  0  0
 14 50  1  0  0  0  0
 15 51  1  0  0  0  0
 15 52  1  0  0  0  0
 16 15  1  6  0  0  0
 16 17  1  0  0  0  0
 17 18  1  6  0  0  0
 18 19  1  6  0  0  0
 18 20  1  0  0  0  0
 19 28  1  0  0  0  0
 19 53  1  0  0  0  0
 20 54  1  0  0  0  0
 21 20  1  6  0  0  0
 21 22  1  0  0  0  0
 21 27  1  0  0  0  0
 22 23  1  0  0  0  0
 22 55  1  0  0  0  0
 22 56  1  0  0  0  0
 23 24  1  0  0  0  0
 23 57  1  0  0  0  0
 23 58  1  0  0  0  0
 24 25  1  0  0  0  0
 24 59  1  0  0  0  0
 25 26  2  0  0  0  0
 27 25  1  6  0  0  0
 27 28  1  0  0  0  0
 28 29  1  1  0  0  0
 29 30  1  0  0  0  0
 29 60  1  0  0  0  0
 29 61  1  0  0  0  0
 30 31  1  0  0  0  0
 30 32  1  0  0  0  0
 30 62  1  0  0  0  0
 31 63  1  0  0  0  0
 31 64  1  0  0  0  0
 31 65  1  0  0  0  0
 32 66  1  0  0  0  0
 32 67  1  0  0  0  0
 32 68  1  0  0  0  0
M  CHG  2  13   1  17   1
M  END
$$$$
