@<TRIPOS>MOLECULE
4O07_FGH_A_4000
 68 72 0 0 0
SMALL
USER_CHARGES

@<TRIPOS>ATOM
      1 O           8.8601  -12.0690  -23.9774 O.2     1  LIG1        0.0000
      2 C           7.6988  -12.4687  -24.1422 C.2     1  LIG1        0.0000
      3 C           7.4373  -13.9087  -24.5418 C.3     1  LIG1        0.0000
      4 C           6.1840  -14.1003  -25.4093 C.3     1  LIG1        0.0000
      5 C           5.8931  -15.6043  -25.5385 C.3     1  LIG1        0.0000
      6 C           6.4232  -13.5492  -26.8151 C.3     1  LIG1        0.0000
      7 C           4.9702  -13.4057  -24.7520 C.3     1  LIG1        0.0000
      8 C           5.2840  -12.0318  -24.2291 C.ar    1  LIG1        0.0000
      9 C           6.5607  -11.5803  -23.9415 C.ar    1  LIG1        0.0000
     10 C           6.4405  -10.2289  -23.5359 C.ar    1  LIG1        0.0000
     11 C           7.4806   -9.2354  -23.1222 C.3     1  LIG1        0.0000
     12 C           6.9321   -7.8034  -23.0637 C.3     1  LIG1        0.0000
     13 N           5.5548   -7.7207  -22.4572 N.4     1  LIG1        1.0000
     14 C           5.0987   -6.2950  -22.3662 C.3     1  LIG1        0.0000
     15 C           4.5542   -8.5555  -23.2359 C.3     1  LIG1        0.0000
     16 C           5.0970   -9.8923  -23.5864 C.ar    1  LIG1        0.0000
     17 N           4.3791  -10.9982  -24.0331 N.ar    1  LIG1        0.0000
     18 C           3.0004  -11.0350  -24.3495 C.ar    1  LIG1        0.0000
     19 C           2.5088  -10.0944  -25.2555 C.ar    1  LIG1        0.0000
     20 C           2.1522  -11.9925  -23.8047 C.ar    1  LIG1        0.0000
     21 C           0.7975  -12.0156  -24.1641 C.ar    1  LIG1        0.0000
     22 C          -0.1102  -13.0560  -23.5425 C.3     1  LIG1        0.0000
     23 C          -1.5353  -12.5423  -23.4514 C.3     1  LIG1        0.0000
     24 N          -1.9456  -11.9694  -24.7126 N.am    1  LIG1        0.0000
     25 C          -1.1193  -11.2655  -25.5710 C.2     1  LIG1        0.0000
     26 O          -1.5137  -10.8691  -26.6411 O.2     1  LIG1        0.0000
     27 C           0.3028  -11.0899  -25.1153 C.ar    1  LIG1        0.0000
     28 C           1.1567  -10.0822  -25.6274 C.ar    1  LIG1        0.0000
     29 C           0.7674   -8.9290  -26.5270 C.3     1  LIG1        0.0000
     30 C           0.1162   -7.7078  -25.8549 C.3     1  LIG1        0.0000
     31 C          -0.1706   -6.6383  -26.9125 C.3     1  LIG1        0.0000
     32 C           0.9182   -7.0648  -24.7298 C.3     1  LIG1        0.0000
     33 H           7.3266  -14.5057  -23.6270 H       1  LIG1        0.0000
     34 H           8.3106  -14.2697  -25.0939 H       1  LIG1        0.0000
     35 H           6.7343  -16.1282  -26.0103 H       1  LIG1        0.0000
     36 H           4.9961  -15.7723  -26.1465 H       1  LIG1        0.0000
     37 H           5.7250  -16.0465  -24.5491 H       1  LIG1        0.0000
     38 H           7.2720  -14.0521  -27.2936 H       1  LIG1        0.0000
     39 H           6.6348  -12.4792  -26.7692 H       1  LIG1        0.0000
     40 H           5.5367  -13.7013  -27.4419 H       1  LIG1        0.0000
     41 H           4.6467  -14.0268  -23.9116 H       1  LIG1        0.0000
     42 H           4.1727  -13.3486  -25.4938 H       1  LIG1        0.0000
     43 H           8.2980   -9.2374  -23.8443 H       1  LIG1        0.0000
     44 H           7.8803   -9.5014  -22.1401 H       1  LIG1        0.0000
     45 H           6.8448   -7.3910  -24.0716 H       1  LIG1        0.0000
     46 H           7.5802   -7.1709  -22.4490 H       1  LIG1        0.0000
     47 H           5.6128   -8.1023  -21.5041 H       1  LIG1        0.0000
     48 H           5.0380   -5.8880  -23.3787 H       1  LIG1        0.0000
     49 H           5.8243   -5.7366  -21.7718 H       1  LIG1        0.0000
     50 H           4.1192   -6.2820  -21.8869 H       1  LIG1        0.0000
     51 H           4.3425   -7.9781  -24.1378 H       1  LIG1        0.0000
     52 H           3.6776   -8.6227  -22.5895 H       1  LIG1        0.0000
     53 H           3.1792   -9.3668  -25.7104 H       1  LIG1        0.0000
     54 H           2.5237  -12.6976  -23.0678 H       1  LIG1        0.0000
     55 H           0.2396  -13.2999  -22.5323 H       1  LIG1        0.0000
     56 H          -0.0971  -13.9693  -24.1488 H       1  LIG1        0.0000
     57 H          -1.6142  -11.7797  -22.6691 H       1  LIG1        0.0000
     58 H          -2.2155  -13.3647  -23.2040 H       1  LIG1        0.0000
     59 H          -2.9015  -12.0677  -25.0297 H       1  LIG1        0.0000
     60 H           0.0860   -9.2964  -27.2948 H       1  LIG1        0.0000
     61 H           1.6735   -8.5803  -27.0413 H       1  LIG1        0.0000
     62 H          -0.8206   -8.0555  -25.4179 H       1  LIG1        0.0000
     63 H           0.7634   -6.2659  -27.3554 H       1  LIG1        0.0000
     64 H          -0.7008   -5.7869  -26.4687 H       1  LIG1        0.0000
     65 H          -0.7904   -7.0510  -27.7162 H       1  LIG1        0.0000
     66 H           1.8609   -6.6475  -25.1000 H       1  LIG1        0.0000
     67 H           1.1343   -7.7995  -23.9537 H       1  LIG1        0.0000
     68 H           0.3402   -6.2491  -24.2720 H       1  LIG1        0.0000
@<TRIPOS>BOND
     1     1     2    2
     2     2     3    1
     3     2     9    1
     4     3     4    1
     5     3    33    1
     6     3    34    1
     7     4     5    1
     8     4     6    1
     9     4     7    1
    10     5    35    1
    11     5    36    1
    12     5    37    1
    13     6    38    1
    14     6    39    1
    15     6    40    1
    16     7     8    1
    17     7    41    1
    18     7    42    1
    19     8     9   ar
    20     8    17   ar
    21     9    10   ar
    22    10    11    1
    23    10    16   ar
    24    11    12    1
    25    11    43    1
    26    11    44    1
    27    12    13    1
    28    12    45    1
    29    12    46    1
    30    13    14    1
    31    13    15    1
    32    13    47    1
    33    14    48    1
    34    14    49    1
    35    14    50    1
    36    15    16    1
    37    15    51    1
    38    15    52    1
    39    16    17   ar
    40    17    18    1
    41    18    19   ar
    42    18    20   ar
    43    19    28   ar
    44    19    53    1
    45    20    21   ar
    46    20    54    1
    47    21    22    1
    48    21    27   ar
    49    22    23    1
    50    22    55    1
    51    22    56    1
    52    23    24    1
    53    23    57    1
    54    23    58    1
    55    24    25   am
    56    24    59    1
    57    25    26    2
    58    25    27    1
    59    27    28   ar
    60    28    29    1
    61    29    30    1
    62    29    60    1
    63    29    61    1
    64    30    31    1
    65    30    32    1
    66    30    62    1
    67    31    63    1
    68    31    64    1
    69    31    65    1
    70    32    66    1
    71    32    67    1
    72    32    68    1
