REMARK  3 active torsions:
REMARK  status: ('A' for Active; 'I' for Inactive)
REMARK    1  A    between atoms: N_17  and  C_18 
REMARK    2  A    between atoms: C_28  and  C_29 
REMARK    3  A    between atoms: C_29  and  C_30 
ROOT
ATOM      1  O   LIG d   1       8.860 -12.069 -23.977  0.00  0.00     0.000 OA
ATOM      2  C   LIG d   1       7.699 -12.469 -24.142  0.00  0.00     0.000 C 
ATOM      3  C   LIG d   1       7.437 -13.909 -24.542  0.00  0.00     0.000 C 
ATOM      4  C   LIG d   1       6.184 -14.100 -25.409  0.00  0.00     0.000 C 
ATOM      5  C   LIG d   1       5.893 -15.604 -25.538  0.00  0.00     0.000 C 
ATOM      6  C   LIG d   1       6.423 -13.549 -26.815  0.00  0.00     0.000 C 
ATOM      7  C   LIG d   1       4.970 -13.406 -24.752  0.00  0.00     0.000 C 
ATOM      8  C   LIG d   1       5.284 -12.032 -24.229  0.00  0.00     0.000 A 
ATOM      9  C   LIG d   1       6.561 -11.580 -23.942  0.00  0.00     0.000 A 
ATOM     10  C   LIG d   1       6.441 -10.229 -23.536  0.00  0.00     0.000 A 
ATOM     11  C   LIG d   1       7.481  -9.235 -23.122  0.00  0.00     0.000 C 
ATOM     12  C   LIG d   1       6.932  -7.803 -23.064  0.00  0.00     0.000 C 
ATOM     13  N   LIG d   1       5.555  -7.721 -22.457  0.00  0.00     1.000 N 
ATOM     14  C   LIG d   1       5.099  -6.295 -22.366  0.00  0.00     0.000 C 
ATOM     15  C   LIG d   1       4.554  -8.556 -23.236  0.00  0.00     0.000 C 
ATOM     16  C   LIG d   1       5.097  -9.892 -23.586  0.00  0.00     0.000 A 
ATOM     17  N   LIG d   1       4.379 -10.998 -24.033  0.00  0.00     0.000 N 
ATOM     18  H   LIG d   1       5.613  -8.102 -21.504  0.00  0.00     0.000 HD
ENDROOT
BRANCH  17  19
ATOM     19  C   LIG d   1       3.000 -11.035 -24.349  0.00  0.00     0.000 A 
ATOM     20  C   LIG d   1       2.509 -10.094 -25.256  0.00  0.00     0.000 A 
ATOM     21  C   LIG d   1       1.157 -10.082 -25.627  0.00  0.00     0.000 A 
ATOM     22  C   LIG d   1       0.303 -11.090 -25.115  0.00  0.00     0.000 A 
ATOM     23  C   LIG d   1       0.797 -12.016 -24.164  0.00  0.00     0.000 A 
ATOM     24  C   LIG d   1      -1.119 -11.265 -25.571  0.00  0.00     0.000 C 
ATOM     25  C   LIG d   1       2.152 -11.992 -23.805  0.00  0.00     0.000 A 
ATOM     26  C   LIG d   1      -0.110 -13.056 -23.543  0.00  0.00     0.000 C 
ATOM     27  C   LIG d   1      -1.535 -12.542 -23.451  0.00  0.00     0.000 C 
ATOM     28  N   LIG d   1      -1.946 -11.969 -24.713  0.00  0.00     0.000 N 
ATOM     29  H   LIG d   1      -2.901 -12.068 -25.030  0.00  0.00     0.000 HD
ATOM     30  O   LIG d   1      -1.514 -10.869 -26.641  0.00  0.00     0.000 OA
BRANCH  21  31
ATOM     31  C   LIG d   1       0.767  -8.929 -26.527  0.00  0.00     0.000 C 
BRANCH  31  32
ATOM     32  C   LIG d   1       0.116  -7.708 -25.855  0.00  0.00     0.000 C 
ATOM     33  C   LIG d   1      -0.171  -6.638 -26.913  0.00  0.00     0.000 C 
ATOM     34  C   LIG d   1       0.918  -7.065 -24.730  0.00  0.00     0.000 C 
ENDBRANCH  31  32
ENDBRANCH  21  31
ENDBRANCH  17  19
TORSDOF 3
