REMARK  1 active torsions:
REMARK  status: ('A' for Active; 'I' for Inactive)
REMARK    1  A    between atoms: C_9  and  C_13 
ROOT
ATOM      1  C   LIG d   1      -7.163 -14.446 -24.840  0.00  0.00     0.086 C 
ATOM      2  C   LIG d   1      -5.828 -14.480 -24.061  0.00  0.00    -0.022 C 
ATOM      3  C   LIG d   1      -4.676 -13.871 -24.879  0.00  0.00     0.062 C 
ATOM      4  C   LIG d   1      -7.527 -13.055 -25.318  0.00  0.00     0.167 C 
ATOM      5  C   LIG d   1      -6.426 -12.195 -25.706  0.00  0.00     0.070 A 
ATOM      6  C   LIG d   1      -5.120 -12.592 -25.470  0.00  0.00     0.048 A 
ATOM      7  N   LIG d   1      -4.309 -11.574 -25.856  0.00  0.00    -0.280 N 
ATOM      8  N   LIG d   1      -5.010 -10.532 -26.350  0.00  0.00    -0.169 NA
ATOM      9  C   LIG d   1      -6.301 -10.902 -26.244  0.00  0.00     0.176 A 
ATOM     10  C   LIG d   1      -5.463 -15.917 -23.720  0.00  0.00     0.011 C 
ATOM     11  C   LIG d   1      -6.008 -13.711 -22.753  0.00  0.00     0.011 C 
ATOM     12  O   LIG d   1      -8.697 -12.704 -25.414  0.00  0.00    -0.292 OA
ATOM     13  H   LIG d   1      -3.302 -11.491 -25.835  0.00  0.00     0.189 HD
ENDROOT
BRANCH   9  14
ATOM     14  C   LIG d   1      -7.399  -9.967 -26.691  0.00  0.00     0.437 C 
ATOM     15  F   LIG d   1      -8.056 -10.432 -27.782  0.00  0.00    -0.164 F 
ATOM     16  F   LIG d   1      -8.320  -9.742 -25.723  0.00  0.00    -0.164 F 
ATOM     17  F   LIG d   1      -6.907  -8.741 -27.037  0.00  0.00    -0.164 F 
ENDBRANCH   9  14
TORSDOF 1
