4HY6_FJ1_A_501
 OpenBabel03301717303D

 27 28  0  0  0  0  0  0  0  0999 V2000
   -7.1633  -14.4458  -24.8396 C   0  0  0  0  0  0  0  0  0  0  0  0
   -5.8282  -14.4801  -24.0605 C   0  0  0  0  0  0  0  0  0  0  0  0
   -4.6765  -13.8712  -24.8786 C   0  0  0  0  0  0  0  0  0  0  0  0
   -7.5268  -13.0554  -25.3180 C   0  0  0  0  0  0  0  0  0  0  0  0
   -6.4255  -12.1946  -25.7055 C   0  0  0  0  0  0  0  0  0  0  0  0
   -5.1195  -12.5917  -25.4703 C   0  0  0  0  0  0  0  0  0  0  0  0
   -4.3085  -11.5743  -25.8562 N   0  3  0  0  0  0  0  0  0  0  0  0
   -5.0097  -10.5318  -26.3496 N   0  0  0  0  0  0  0  0  0  0  0  0
   -6.3007  -10.9023  -26.2443 C   0  0  0  0  0  0  0  0  0  0  0  0
   -5.4625  -15.9174  -23.7197 C   0  0  0  0  0  0  0  0  0  0  0  0
   -6.0082  -13.7113  -22.7534 C   0  0  0  0  0  0  0  0  0  0  0  0
   -8.6970  -12.7035  -25.4141 O   0  0  0  0  0  0  0  0  0  0  0  0
   -7.3985   -9.9668  -26.6908 C   0  0  0  0  0  0  0  0  0  0  0  0
   -8.0559  -10.4320  -27.7819 F   0  0  0  0  0  0  0  0  0  0  0  0
   -8.3199   -9.7416  -25.7225 F   0  0  0  0  0  0  0  0  0  0  0  0
   -6.9071   -8.7405  -27.0374 F   0  0  0  0  0  0  0  0  0  0  0  0
   -7.9565  -14.8113  -24.1655 H   0  0  0  0  0  0  0  0  0  0  0  0
   -7.1030  -15.1365  -25.6897 H   0  0  0  0  0  0  0  0  0  0  0  0
   -4.4149  -14.5583  -25.6902 H   0  0  0  0  0  0  0  0  0  0  0  0
   -3.8055  -13.7439  -24.2294 H   0  0  0  0  0  0  0  0  0  0  0  0
   -3.3021  -11.4906  -25.8354 H   0  0  0  0  0  0  0  0  0  0  0  0
   -5.3306  -16.5053  -24.6340 H   0  0  0  0  0  0  0  0  0  0  0  0
   -6.2477  -16.3806  -23.1147 H   0  0  0  0  0  0  0  0  0  0  0  0
   -4.5247  -15.9372  -23.1534 H   0  0  0  0  0  0  0  0  0  0  0  0
   -6.2868  -12.6723  -22.9482 H   0  0  0  0  0  0  0  0  0  0  0  0
   -5.0751  -13.7203  -22.1858 H   0  0  0  0  0  0  0  0  0  0  0  0
   -6.7993  -14.1709  -22.1527 H   0  0  0  0  0  0  0  0  0  0  0  0
  1  2  1  0  0  0  0
  1  4  1  0  0  0  0
  1 17  1  0  0  0  0
  1 18  1  0  0  0  0
  2  3  1  0  0  0  0
  2 10  1  0  0  0  0
  2 11  1  0  0  0  0
  3  6  1  0  0  0  0
  3 19  1  0  0  0  0
  3 20  1  0  0  0  0
  4  5  1  0  0  0  0
  4 12  2  0  0  0  0
  5  6  1  0  0  0  0
  5  9  2  0  0  0  0
  6  7  2  0  0  0  0
  7  8  1  0  0  0  0
  7 21  1  0  0  0  0
  8  9  1  0  0  0  0
  9 13  1  0  0  0  0
 10 22  1  0  0  0  0
 10 23  1  0  0  0  0
 10 24  1  0  0  0  0
 11 25  1  0  0  0  0
 11 26  1  0  0  0  0
 11 27  1  0  0  0  0
 13 14  1  0  0  0  0
 13 15  1  0  0  0  0
 13 16  1  0  0  0  0
M  CHG  1   7   1
M  END
$$$$
