@<TRIPOS>MOLECULE
4HY6_FJ1_A_501
 27 28 0 0 0
SMALL
USER_CHARGES

@<TRIPOS>ATOM
      1 C          -7.1633  -14.4458  -24.8396 C.3     1  LIG1        0.0161
      2 C          -5.8282  -14.4801  -24.0605 C.3     1  LIG1       -0.0225
      3 C          -4.6765  -13.8712  -24.8786 C.3     1  LIG1       -0.0047
      4 C          -7.5268  -13.0554  -25.3180 C.2     1  LIG1        0.1674
      5 C          -6.4255  -12.1946  -25.7055 C.ar    1  LIG1        0.0697
      6 C          -5.1195  -12.5917  -25.4703 C.ar    1  LIG1        0.0476
      7 N          -4.3085  -11.5743  -25.8562 N.ar    1  LIG1       -0.2803
      8 N          -5.0097  -10.5318  -26.3496 N.ar    1  LIG1       -0.1689
      9 C          -6.3007  -10.9023  -26.2443 C.ar    1  LIG1        0.1757
     10 C          -5.4625  -15.9174  -23.7197 C.3     1  LIG1       -0.0591
     11 C          -6.0082  -13.7113  -22.7534 C.3     1  LIG1       -0.0591
     12 O          -8.6970  -12.7035  -25.4141 O.2     1  LIG1       -0.2919
     13 C          -7.3985   -9.9668  -26.6908 C.3     1  LIG1        0.4366
     14 F          -8.0559  -10.4320  -27.7819 F       1  LIG1       -0.1643
     15 F          -8.3199   -9.7416  -25.7225 F       1  LIG1       -0.1643
     16 F          -6.9071   -8.7405  -27.0374 F       1  LIG1       -0.1643
     17 H          -7.9565  -14.8113  -24.1655 H       1  LIG1        0.0350
     18 H          -7.1030  -15.1365  -25.6897 H       1  LIG1        0.0350
     19 H          -4.4149  -14.5583  -25.6902 H       1  LIG1        0.0334
     20 H          -3.8055  -13.7439  -24.2294 H       1  LIG1        0.0334
     21 H          -3.3021  -11.4906  -25.8354 H       1  LIG1        0.1885
     22 H          -5.3306  -16.5053  -24.6340 H       1  LIG1        0.0235
     23 H          -6.2477  -16.3806  -23.1147 H       1  LIG1        0.0235
     24 H          -4.5247  -15.9372  -23.1534 H       1  LIG1        0.0235
     25 H          -6.2868  -12.6723  -22.9482 H       1  LIG1        0.0235
     26 H          -5.0751  -13.7203  -22.1858 H       1  LIG1        0.0235
     27 H          -6.7993  -14.1709  -22.1527 H       1  LIG1        0.0235
@<TRIPOS>BOND
     1     1     2    1
     2     1     4    1
     3     1    17    1
     4     1    18    1
     5     2     3    1
     6     2    10    1
     7     2    11    1
     8     3     6    1
     9     3    19    1
    10     3    20    1
    11     4     5    1
    12     4    12    2
    13     5     6   ar
    14     5     9   ar
    15     6     7   ar
    16     7     8   ar
    17     7    21    1
    18     8     9   ar
    19     9    13    1
    20    10    22    1
    21    10    23    1
    22    10    24    1
    23    11    25    1
    24    11    26    1
    25    11    27    1
    26    13    14    1
    27    13    15    1
    28    13    16    1
