REMARK  6 active torsions:
REMARK  status: ('A' for Active; 'I' for Inactive)
REMARK    1  A    between atoms: C_1  and  O_8 
REMARK    2  A    between atoms: C_3  and  O_7 
REMARK    3  A    between atoms: C_4  and  C_10 
REMARK    4  A    between atoms: C_13  and  N_16 
REMARK    5  A    between atoms: C_14  and  C_15 
REMARK       I    between atoms: N_16  and  C_17 
REMARK    6  A    between atoms: C_22  and  O_25 
ROOT
ATOM      1  C   LIG d   1       0.419 -35.070 -26.439  0.00  0.00     0.127 A 
ATOM      2  N   LIG d   1       1.162 -34.864 -27.537  0.00  0.00    -0.075 NA
ATOM      3  O   LIG d   1       0.722 -35.799 -28.477  0.00  0.00    -0.338 OA
ATOM      4  C   LIG d   1      -0.188 -36.635 -27.901  0.00  0.00     0.232 A 
ATOM      5  C   LIG d   1      -0.404 -36.226 -26.601  0.00  0.00     0.072 A 
ENDROOT
BRANCH   1   6
ATOM      6  C   LIG d   1       0.480 -34.203 -25.256  0.00  0.00     0.047 A 
ATOM      7  C   LIG d   1       1.688 -33.893 -24.614  0.00  0.00     0.130 A 
ATOM      8  C   LIG d   1       1.698 -33.187 -23.405  0.00  0.00     0.092 A 
ATOM      9  C   LIG d   1       0.505 -32.748 -22.834  0.00  0.00     0.139 A 
ATOM     10  C   LIG d   1      -0.703 -33.002 -23.489  0.00  0.00     0.083 A 
ATOM     11  C   LIG d   1      -0.714 -33.731 -24.682  0.00  0.00     0.037 A 
ATOM     12 CL   LIG d   1      -2.186 -32.397 -22.851  0.00  0.00    -0.080 Cl
BRANCH   7  13
ATOM     13  O   LIG d   1       2.898 -34.289 -25.120  0.00  0.00    -0.506 OA
ATOM     14  H   LIG d   1       2.751 -34.681 -26.005  0.00  0.00     0.292 HD
ENDBRANCH   7  13
BRANCH   9  15
ATOM     15  O   LIG d   1       0.548 -32.083 -21.640  0.00  0.00    -0.505 OA
ATOM     16  H   LIG d   1      -0.363 -31.886 -21.391  0.00  0.00     0.292 HD
ENDBRANCH   9  15
ENDBRANCH   1   6
BRANCH   5  17
ATOM     17  C   LIG d   1      -1.387 -36.788 -25.703  0.00  0.00    -0.011 A 
ATOM     18  C   LIG d   1      -2.733 -36.853 -26.069  0.00  0.00     0.012 A 
ATOM     19  C   LIG d   1      -3.675 -37.388 -25.186  0.00  0.00     0.046 A 
ATOM     20  C   LIG d   1      -3.283 -37.852 -23.929  0.00  0.00     0.120 A 
ATOM     21  C   LIG d   1      -1.936 -37.777 -23.564  0.00  0.00     0.046 A 
ATOM     22  C   LIG d   1      -0.993 -37.242 -24.441  0.00  0.00     0.012 A 
BRANCH  20  23
ATOM     23  O   LIG d   1      -4.284 -38.352 -23.143  0.00  0.00    -0.495 OA
ATOM     24  C   LIG d   1      -3.898 -38.776 -21.838  0.00  0.00     0.277 C 
ENDBRANCH  20  23
ENDBRANCH   5  17
BRANCH   4  25
ATOM     25  N   LIG d   1      -0.734 -37.654 -28.658  0.00  0.00    -0.254 N 
ATOM     26  C   LIG d   1      -0.821 -38.925 -28.121  0.00  0.00     0.216 C 
ATOM     27  C   LIG d   1      -1.574 -39.932 -28.956  0.00  0.00     0.110 C 
ATOM     28  O   LIG d   1      -0.303 -39.277 -27.064  0.00  0.00    -0.276 OA
ATOM     29  H   LIG d   1      -0.921 -37.481 -29.637  0.00  0.00     0.158 HD
ENDBRANCH   4  25
TORSDOF 6
