@<TRIPOS>MOLECULE
4LWE_FJ2_A_301
 41 43 0 0 0
SMALL
USER_CHARGES

@<TRIPOS>ATOM
      1 C           0.5055  -32.7478  -22.8336 C.ar    1  LIG1        0.1386
      2 C           1.6979  -33.1872  -23.4052 C.ar    1  LIG1        0.0234
      3 C           1.6877  -33.8926  -24.6139 C.ar    1  LIG1        0.1297
      4 C           0.4802  -34.2033  -25.2558 C.ar    1  LIG1        0.0473
      5 C          -0.7142  -33.7312  -24.6823 C.ar    1  LIG1       -0.0270
      6 C          -0.7032  -33.0021  -23.4889 C.ar    1  LIG1        0.0831
      7 O           2.8978  -34.2887  -25.1205 O.3     1  LIG1       -0.5060
      8 O           0.5482  -32.0830  -21.6402 O.3     1  LIG1       -0.5052
      9 CL         -2.1862  -32.3971  -22.8509 Cl      1  LIG1       -0.0797
     10 C           0.4195  -35.0697  -26.4387 C.ar    1  LIG1        0.1265
     11 N           1.1623  -34.8639  -27.5372 N.ar    1  LIG1       -0.0753
     12 O           0.7218  -35.7988  -28.4775 O.2     1  LIG1       -0.3381
     13 C          -0.1882  -36.6350  -27.9008 C.ar    1  LIG1        0.2323
     14 C          -0.4044  -36.2256  -26.6014 C.ar    1  LIG1        0.0716
     15 C          -1.3870  -36.7880  -25.7026 C.ar    1  LIG1       -0.0106
     16 N          -0.7342  -37.6535  -28.6582 N.am    1  LIG1       -0.2540
     17 C          -0.8205  -38.9255  -28.1207 C.2     1  LIG1        0.2163
     18 C          -1.5737  -39.9319  -28.9557 C.3     1  LIG1        0.0126
     19 O          -0.3034  -39.2773  -27.0639 O.2     1  LIG1       -0.2757
     20 C          -2.7326  -36.8533  -26.0691 C.ar    1  LIG1       -0.0503
     21 C          -3.6753  -37.3878  -25.1862 C.ar    1  LIG1       -0.0194
     22 C          -3.2826  -37.8515  -23.9291 C.ar    1  LIG1        0.1201
     23 C          -1.9363  -37.7767  -23.5635 C.ar    1  LIG1       -0.0194
     24 C          -0.9934  -37.2424  -24.4411 C.ar    1  LIG1       -0.0503
     25 O          -4.2844  -38.3521  -23.1428 O.3     1  LIG1       -0.4951
     26 C          -3.8976  -38.7760  -21.8378 C.3     1  LIG1        0.0788
     27 H           2.6406  -32.9752  -22.9070 H       1  LIG1        0.0691
     28 H          -1.6699  -33.9425  -25.1599 H       1  LIG1        0.0641
     29 H           2.7505  -34.6812  -26.0054 H       1  LIG1        0.2922
     30 H          -0.3635  -31.8863  -21.3912 H       1  LIG1        0.2922
     31 H          -0.9213  -37.4808  -29.6369 H       1  LIG1        0.1577
     32 H          -2.0682  -39.4729  -29.8144 H       1  LIG1        0.0323
     33 H          -2.3385  -40.4079  -28.3315 H       1  LIG1        0.0323
     34 H          -0.8803  -40.7012  -29.3079 H       1  LIG1        0.0323
     35 H          -3.0629  -36.4894  -27.0379 H       1  LIG1        0.0625
     36 H          -4.7208  -37.4387  -25.4806 H       1  LIG1        0.0654
     37 H          -1.5862  -38.1372  -22.6046 H       1  LIG1        0.0654
     38 H           0.0530  -37.2067  -24.1368 H       1  LIG1        0.0625
     39 H          -4.7873  -39.1415  -21.3186 H       1  LIG1        0.0660
     40 H          -3.4899  -37.9417  -21.2593 H       1  LIG1        0.0660
     41 H          -3.1807  -39.6045  -21.8910 H       1  LIG1        0.0660
@<TRIPOS>BOND
     1     1     2   ar
     2     1     6   ar
     3     1     8    1
     4     2     3   ar
     5     2    27    1
     6     3     4   ar
     7     3     7    1
     8     4     5   ar
     9     4    10    1
    10     5     6   ar
    11     5    28    1
    12     6     9    1
    13     7    29    1
    14     8    30    1
    15    10    11   ar
    16    10    14   ar
    17    11    12   ar
    18    12    13   ar
    19    13    14   ar
    20    13    16    1
    21    14    15    1
    22    15    20   ar
    23    15    24   ar
    24    16    17   am
    25    16    31    1
    26    17    18    1
    27    17    19    2
    28    18    32    1
    29    18    33    1
    30    18    34    1
    31    20    21   ar
    32    20    35    1
    33    21    22   ar
    34    21    36    1
    35    22    23   ar
    36    22    25    1
    37    23    24   ar
    38    23    37    1
    39    24    38    1
    40    25    26    1
    41    26    39    1
    42    26    40    1
    43    26    41    1
