@<TRIPOS>MOLECULE
4LWF_FJ3_A_301
 31 32 0 0 0
SMALL
USER_CHARGES

@<TRIPOS>ATOM
      1 C          -1.4196  -11.7907  -22.7007 C.ar    1  LIG1        0.1238
      2 C          -2.6591  -11.3477  -23.1697 C.ar    1  LIG1        0.0222
      3 C          -2.7524  -10.6700  -24.3827 C.ar    1  LIG1        0.1296
      4 C          -1.6045  -10.4002  -25.1321 C.ar    1  LIG1        0.0456
      5 C          -0.3671  -10.8665  -24.6518 C.ar    1  LIG1       -0.0421
      6 C          -0.2444  -11.5676  -23.4329 C.ar    1  LIG1       -0.0025
      7 C           1.1079  -12.1341  -23.0241 C.3     1  LIG1       -0.0180
      8 O          -1.4628  -12.4635  -21.5113 O.3     1  LIG1       -0.5064
      9 O          -4.0088  -10.2928  -24.7768 O.3     1  LIG1       -0.5060
     10 C          -1.6352   -9.6447  -26.3805 C.ar    1  LIG1        0.1187
     11 N          -2.6159   -9.7930  -27.2871 N.ar    1  LIG1       -0.0760
     12 O          -2.2830   -8.9553  -28.3444 O.2     1  LIG1       -0.3394
     13 C          -1.1397   -8.2846  -28.0498 C.ar    1  LIG1        0.2158
     14 C          -0.6998   -8.6692  -26.8161 C.ar    1  LIG1        0.0274
     15 N          -0.6583   -7.4158  -28.9470 N.pl3   1  LIG1       -0.3272
     16 C           1.3407  -13.4522  -23.7652 C.3     1  LIG1       -0.0585
     17 C           2.2848  -11.1725  -23.2340 C.3     1  LIG1       -0.0585
     18 H          -3.5578  -11.5459  -22.5911 H       1  LIG1        0.0691
     19 H           0.5175  -10.7105  -25.2659 H       1  LIG1        0.0629
     20 H           1.1108  -12.3450  -21.9508 H       1  LIG1        0.0345
     21 H          -0.5775  -12.7368  -21.2378 H       1  LIG1        0.2921
     22 H          -3.9594  -10.0069  -25.7106 H       1  LIG1        0.2922
     23 H           0.1751   -8.3090  -26.2965 H       1  LIG1        0.0691
     24 H           0.1334   -6.8079  -28.7537 H       1  LIG1        0.1452
     25 H          -1.1633   -7.2244  -29.8053 H       1  LIG1        0.1452
     26 H           1.3877  -13.3049  -24.8496 H       1  LIG1        0.0235
     27 H           0.5314  -14.1633  -23.5632 H       1  LIG1        0.0235
     28 H           2.2807  -13.9193  -23.4481 H       1  LIG1        0.0235
     29 H           2.4654  -10.9479  -24.2898 H       1  LIG1        0.0235
     30 H           3.2070  -11.6106  -22.8362 H       1  LIG1        0.0235
     31 H           2.1119  -10.2260  -22.7097 H       1  LIG1        0.0235
@<TRIPOS>BOND
     1     1     2   ar
     2     1     6   ar
     3     1     8    1
     4     2     3   ar
     5     2    18    1
     6     3     4   ar
     7     3     9    1
     8     4     5   ar
     9     4    10    1
    10     5     6   ar
    11     5    19    1
    12     6     7    1
    13     7    16    1
    14     7    17    1
    15     7    20    1
    16     8    21    1
    17     9    22    1
    18    10    11   ar
    19    10    14   ar
    20    11    12   ar
    21    12    13   ar
    22    13    14   ar
    23    13    15    1
    24    14    23    1
    25    15    24    1
    26    15    25    1
    27    16    26    1
    28    16    27    1
    29    16    28    1
    30    17    29    1
    31    17    30    1
    32    17    31    1
