REMARK  5 active torsions:
REMARK  status: ('A' for Active; 'I' for Inactive)
REMARK    1  A    between atoms: C_1  and  O_8 
REMARK    2  A    between atoms: C_3  and  O_9 
REMARK    3  A    between atoms: C_4  and  C_10 
REMARK    4  A    between atoms: C_6  and  C_7 
REMARK    5  A    between atoms: C_13  and  N_15 
ROOT
ATOM      1  C   LIG d   1      -1.420 -11.791 -22.701  0.00  0.00     0.124 A 
ATOM      2  C   LIG d   1      -2.659 -11.348 -23.170  0.00  0.00     0.091 A 
ATOM      3  C   LIG d   1      -2.752 -10.670 -24.383  0.00  0.00     0.130 A 
ATOM      4  C   LIG d   1      -1.605 -10.400 -25.132  0.00  0.00     0.046 A 
ATOM      5  C   LIG d   1      -0.367 -10.867 -24.652  0.00  0.00     0.021 A 
ATOM      6  C   LIG d   1      -0.244 -11.568 -23.433  0.00  0.00    -0.003 A 
ENDROOT
BRANCH   4   7
ATOM      7  C   LIG d   1      -1.635  -9.645 -26.381  0.00  0.00     0.119 A 
ATOM      8  N   LIG d   1      -2.616  -9.793 -27.287  0.00  0.00    -0.076 NA
ATOM      9  O   LIG d   1      -2.283  -8.955 -28.344  0.00  0.00    -0.339 OA
ATOM     10  C   LIG d   1      -1.140  -8.285 -28.050  0.00  0.00     0.216 A 
ATOM     11  C   LIG d   1      -0.700  -8.669 -26.816  0.00  0.00     0.097 A 
BRANCH  10  12
ATOM     12  N   LIG d   1      -0.658  -7.416 -28.947  0.00  0.00    -0.327 N 
ATOM     13  H   LIG d   1       0.133  -6.808 -28.754  0.00  0.00     0.145 HD
ATOM     14  H   LIG d   1      -1.163  -7.224 -29.805  0.00  0.00     0.145 HD
ENDBRANCH  10  12
ENDBRANCH   4   7
BRANCH   3  15
ATOM     15  O   LIG d   1      -4.009 -10.293 -24.777  0.00  0.00    -0.506 OA
ATOM     16  H   LIG d   1      -3.959 -10.007 -25.711  0.00  0.00     0.292 HD
ENDBRANCH   3  15
BRANCH   6  17
ATOM     17  C   LIG d   1       1.108 -12.134 -23.024  0.00  0.00     0.017 C 
ATOM     18  C   LIG d   1       1.341 -13.452 -23.765  0.00  0.00     0.012 C 
ATOM     19  C   LIG d   1       2.285 -11.172 -23.234  0.00  0.00     0.012 C 
ENDBRANCH   6  17
BRANCH   1  20
ATOM     20  O   LIG d   1      -1.463 -12.463 -21.511  0.00  0.00    -0.506 OA
ATOM     21  H   LIG d   1      -0.578 -12.737 -21.238  0.00  0.00     0.292 HD
ENDBRANCH   1  20
TORSDOF 5
