@<TRIPOS>MOLECULE
4LWG_FJ4_A_301
 33 34 0 0 0
SMALL
USER_CHARGES

@<TRIPOS>ATOM
      1 C          -2.4638  -11.2684  -23.5318 C.ar    1  LIG1        0.0235
      2 C          -1.1749  -11.5542  -23.0625 C.ar    1  LIG1        0.1386
      3 C          -0.0763  -11.2228  -23.8365 C.ar    1  LIG1        0.0832
      4 C          -2.6429  -10.6364  -24.7794 C.ar    1  LIG1        0.1309
      5 C          -1.5311  -10.2788  -25.5500 C.ar    1  LIG1        0.0607
      6 C          -0.2555  -10.5945  -25.0657 C.ar    1  LIG1       -0.0258
      7 C          -0.4672   -8.8152  -27.3818 C.3     1  LIG1        0.0358
      8 C          -1.6394   -9.5731  -26.8481 C.2     1  LIG1        0.1710
      9 O          -2.7195   -9.6335  -27.4742 O.2     1  LIG1       -0.2916
     10 O          -3.9329  -10.3778  -25.1584 O.3     1  LIG1       -0.5059
     11 O          -1.0408  -12.1585  -21.8311 O.3     1  LIG1       -0.5052
     12 H          -0.0907  -12.2901  -21.6122 H       1  LIG1        0.2922
     13 C          -0.3252   -7.3945  -26.9394 C.ar    1  LIG1       -0.0397
     14 C           0.9536   -6.9185  -26.6138 C.ar    1  LIG1       -0.0547
     15 C           1.1306   -5.5997  -26.2376 C.ar    1  LIG1       -0.0197
     16 C           0.0471   -4.7331  -26.1830 C.ar    1  LIG1        0.1201
     17 C          -1.2251   -5.1897  -26.5501 C.ar    1  LIG1       -0.0197
     18 C          -1.4044   -6.5175  -26.9250 C.ar    1  LIG1       -0.0547
     19 O           0.1775   -3.4080  -25.8638 O.3     1  LIG1       -0.4951
     20 C           0.9480   -3.1782  -24.6777 C.3     1  LIG1        0.0788
     21 CL          1.5206  -11.5575  -23.2988 Cl      1  LIG1       -0.0797
     22 H          -3.3264  -11.5325  -22.9344 H       1  LIG1        0.0691
     23 H           0.6323  -10.3547  -25.6280 H       1  LIG1        0.0641
     24 H          -0.5082   -8.8462  -28.4707 H       1  LIG1        0.0394
     25 H           0.4456   -9.3335  -27.1023 H       1  LIG1        0.0394
     26 H          -3.9548   -9.9574  -26.0560 H       1  LIG1        0.2922
     27 H           1.8103   -7.5878  -26.6399 H       1  LIG1        0.0622
     28 H           2.1273   -5.2489  -25.9819 H       1  LIG1        0.0654
     29 H          -2.0777   -4.5224  -26.5175 H       1  LIG1        0.0654
     30 H          -2.3985   -6.8782  -27.1982 H       1  LIG1        0.0622
     31 H           1.0021   -2.0943  -24.5174 H       1  LIG1        0.0660
     32 H           1.9730   -3.5551  -24.7661 H       1  LIG1        0.0660
     33 H           0.4529   -3.6325  -23.8117 H       1  LIG1        0.0660
@<TRIPOS>BOND
     1     1     2   ar
     2     1     4   ar
     3     1    22    1
     4     2     3   ar
     5     2    11    1
     6     3     6   ar
     7     3    21    1
     8     4     5   ar
     9     4    10    1
    10     5     6   ar
    11     5     8    1
    12     6    23    1
    13     7     8    1
    14     7    13    1
    15     7    24    1
    16     7    25    1
    17     8     9    2
    18    10    26    1
    19    11    12    1
    20    13    14   ar
    21    13    18   ar
    22    14    15   ar
    23    14    27    1
    24    15    16   ar
    25    15    28    1
    26    16    17   ar
    27    16    19    1
    28    17    18   ar
    29    17    29    1
    30    18    30    1
    31    19    20    1
    32    20    31    1
    33    20    32    1
    34    20    33    1
