4LWG_FJ4_A_301
 OpenBabel03301717323D

 33 34  0  0  0  0  0  0  0  0999 V2000
   -2.4638  -11.2684  -23.5318 C   0  0  0  0  0  0  0  0  0  0  0  0
   -1.1749  -11.5542  -23.0625 C   0  0  0  0  0  0  0  0  0  0  0  0
   -0.0763  -11.2228  -23.8365 C   0  0  0  0  0  0  0  0  0  0  0  0
   -2.6429  -10.6364  -24.7794 C   0  0  0  0  0  0  0  0  0  0  0  0
   -1.5311  -10.2788  -25.5500 C   0  0  0  0  0  0  0  0  0  0  0  0
   -0.2555  -10.5945  -25.0657 C   0  0  0  0  0  0  0  0  0  0  0  0
   -0.4672   -8.8152  -27.3818 C   0  0  0  0  0  0  0  0  0  0  0  0
   -1.6394   -9.5731  -26.8481 C   0  0  0  0  0  0  0  0  0  0  0  0
   -2.7195   -9.6335  -27.4742 O   0  0  0  0  0  0  0  0  0  0  0  0
   -3.9329  -10.3778  -25.1584 O   0  0  0  0  0  0  0  0  0  0  0  0
   -1.0408  -12.1585  -21.8311 O   0  0  0  0  0  0  0  0  0  0  0  0
   -0.0907  -12.2901  -21.6122 H   0  0  0  0  0  0  0  0  0  0  0  0
   -0.3252   -7.3945  -26.9394 C   0  0  0  0  0  0  0  0  0  0  0  0
    0.9536   -6.9185  -26.6138 C   0  0  0  0  0  0  0  0  0  0  0  0
    1.1306   -5.5997  -26.2376 C   0  0  0  0  0  0  0  0  0  0  0  0
    0.0471   -4.7331  -26.1830 C   0  0  0  0  0  0  0  0  0  0  0  0
   -1.2251   -5.1897  -26.5501 C   0  0  0  0  0  0  0  0  0  0  0  0
   -1.4044   -6.5175  -26.9250 C   0  0  0  0  0  0  0  0  0  0  0  0
    0.1775   -3.4080  -25.8638 O   0  0  0  0  0  0  0  0  0  0  0  0
    0.9480   -3.1782  -24.6777 C   0  0  0  0  0  0  0  0  0  0  0  0
    1.5206  -11.5575  -23.2988 Cl  0  0  0  0  0  0  0  0  0  0  0  0
   -3.3264  -11.5325  -22.9344 H   0  0  0  0  0  0  0  0  0  0  0  0
    0.6323  -10.3547  -25.6280 H   0  0  0  0  0  0  0  0  0  0  0  0
   -0.5082   -8.8462  -28.4707 H   0  0  0  0  0  0  0  0  0  0  0  0
    0.4456   -9.3335  -27.1023 H   0  0  0  0  0  0  0  0  0  0  0  0
   -3.9548   -9.9574  -26.0560 H   0  0  0  0  0  0  0  0  0  0  0  0
    1.8103   -7.5878  -26.6399 H   0  0  0  0  0  0  0  0  0  0  0  0
    2.1273   -5.2489  -25.9819 H   0  0  0  0  0  0  0  0  0  0  0  0
   -2.0777   -4.5224  -26.5175 H   0  0  0  0  0  0  0  0  0  0  0  0
   -2.3985   -6.8782  -27.1982 H   0  0  0  0  0  0  0  0  0  0  0  0
    1.0021   -2.0943  -24.5174 H   0  0  0  0  0  0  0  0  0  0  0  0
    1.9730   -3.5551  -24.7661 H   0  0  0  0  0  0  0  0  0  0  0  0
    0.4529   -3.6325  -23.8117 H   0  0  0  0  0  0  0  0  0  0  0  0
  1  2  2  0  0  0  0
  1  4  1  0  0  0  0
  1 22  1  0  0  0  0
  2  3  1  0  0  0  0
  2 11  1  0  0  0  0
  3  6  2  0  0  0  0
  3 21  1  0  0  0  0
  4  5  2  0  0  0  0
  4 10  1  0  0  0  0
  5  6  1  0  0  0  0
  5  8  1  0  0  0  0
  6 23  1  0  0  0  0
  7  8  1  0  0  0  0
  7 13  1  0  0  0  0
  7 24  1  0  0  0  0
  7 25  1  0  0  0  0
  8  9  2  0  0  0  0
 10 26  1  0  0  0  0
 11 12  1  0  0  0  0
 13 14  2  0  0  0  0
 13 18  1  0  0  0  0
 14 15  1  0  0  0  0
 14 27  1  0  0  0  0
 15 16  2  0  0  0  0
 15 28  1  0  0  0  0
 16 17  1  0  0  0  0
 16 19  1  0  0  0  0
 17 18  2  0  0  0  0
 17 29  1  0  0  0  0
 18 30  1  0  0  0  0
 19 20  1  0  0  0  0
 20 31  1  0  0  0  0
 20 32  1  0  0  0  0
 20 33  1  0  0  0  0
M  END
$$$$
