REMARK  6 active torsions:
REMARK  status: ('A' for Active; 'I' for Inactive)
REMARK    1  A    between atoms: C_2  and  O_11 
REMARK    2  A    between atoms: C_4  and  O_10 
REMARK    3  A    between atoms: C_5  and  C_8 
REMARK    4  A    between atoms: C_7  and  C_8 
REMARK    5  A    between atoms: C_7  and  C_13 
REMARK    6  A    between atoms: C_16  and  O_19 
ROOT
ATOM      1  C   LIG d   1      -2.464 -11.268 -23.532  0.00  0.00     0.093 A 
ATOM      2  C   LIG d   1      -1.175 -11.554 -23.062  0.00  0.00     0.139 A 
ATOM      3  C   LIG d   1      -0.076 -11.223 -23.837  0.00  0.00     0.083 A 
ATOM      4  C   LIG d   1      -2.643 -10.636 -24.779  0.00  0.00     0.131 A 
ATOM      5  C   LIG d   1      -1.531 -10.279 -25.550  0.00  0.00     0.061 A 
ATOM      6  C   LIG d   1      -0.256 -10.595 -25.066  0.00  0.00     0.038 A 
ATOM      7 CL   LIG d   1       1.521 -11.557 -23.299  0.00  0.00    -0.080 Cl
ENDROOT
BRANCH   5   8
ATOM      8  C   LIG d   1      -1.639  -9.573 -26.848  0.00  0.00     0.171 C 
ATOM      9  O   LIG d   1      -2.720  -9.633 -27.474  0.00  0.00    -0.292 OA
BRANCH   8  10
ATOM     10  C   LIG d   1      -0.467  -8.815 -27.382  0.00  0.00     0.115 C 
BRANCH  10  11
ATOM     11  C   LIG d   1      -0.325  -7.394 -26.939  0.00  0.00    -0.040 A 
ATOM     12  C   LIG d   1       0.954  -6.918 -26.614  0.00  0.00     0.007 A 
ATOM     13  C   LIG d   1       1.131  -5.600 -26.238  0.00  0.00     0.046 A 
ATOM     14  C   LIG d   1       0.047  -4.733 -26.183  0.00  0.00     0.120 A 
ATOM     15  C   LIG d   1      -1.225  -5.190 -26.550  0.00  0.00     0.046 A 
ATOM     16  C   LIG d   1      -1.404  -6.518 -26.925  0.00  0.00     0.007 A 
BRANCH  14  17
ATOM     17  O   LIG d   1       0.177  -3.408 -25.864  0.00  0.00    -0.495 OA
ATOM     18  C   LIG d   1       0.948  -3.178 -24.678  0.00  0.00     0.277 C 
ENDBRANCH  14  17
ENDBRANCH  10  11
ENDBRANCH   8  10
ENDBRANCH   5   8
BRANCH   4  19
ATOM     19  O   LIG d   1      -3.933 -10.378 -25.158  0.00  0.00    -0.506 OA
ATOM     20  H   LIG d   1      -3.955  -9.957 -26.056  0.00  0.00     0.292 HD
ENDBRANCH   4  19
BRANCH   2  21
ATOM     21  O   LIG d   1      -1.041 -12.159 -21.831  0.00  0.00    -0.505 OA
ATOM     22  H   LIG d   1      -0.091 -12.290 -21.612  0.00  0.00     0.292 HD
ENDBRANCH   2  21
TORSDOF 6
