4LWH_FJ5_A_301
 OpenBabel03301717323D

 67 71  0  0  0  0  0  0  0  0999 V2000
    1.5822  -34.0519  -25.1358 C   0  0  0  0  0  0  0  0  0  0  0  0
    0.3286  -33.6456  -24.6450 C   0  0  0  0  0  0  0  0  0  0  0  0
    0.2008  -32.9381  -23.4338 C   0  0  0  0  0  0  0  0  0  0  0  0
    1.3566  -32.6385  -22.7015 C   0  0  0  0  0  0  0  0  0  0  0  0
    2.6063  -33.0393  -23.1682 C   0  0  0  0  0  0  0  0  0  0  0  0
    2.7186  -33.7340  -24.3845 C   0  0  0  0  0  0  0  0  0  0  0  0
    3.9401  -34.1270  -24.8560 O   0  0  0  0  0  0  0  0  0  0  0  0
    1.2318  -31.9435  -21.5253 O   0  0  0  0  0  0  0  0  0  0  0  0
   -1.1512  -32.4449  -22.9715 C   0  0  0  0  0  0  0  0  0  0  0  0
    1.6119  -34.9185  -26.3277 C   0  0  0  0  0  0  0  0  0  0  0  0
   -2.2650  -33.4400  -23.2046 C   0  0  0  0  0  0  0  0  0  0  0  0
   -1.4534  -31.1247  -23.6551 C   0  0  0  0  0  0  0  0  0  0  0  0
    2.3273  -34.7076  -27.4496 N   0  0  0  0  0  0  0  0  0  0  0  0
    1.9930  -35.7605  -28.3181 O   0  0  0  0  0  0  0  0  0  0  0  0
    1.0775  -36.6183  -27.6961 C   0  0  0  0  0  0  0  0  0  0  0  0
    0.8374  -36.1131  -26.4427 C   0  0  0  0  0  0  0  0  0  0  0  0
   -0.0688  -36.6491  -25.4323 C   0  0  0  0  0  0  0  0  0  0  0  0
   -1.4533  -36.6636  -25.6251 C   0  0  0  0  0  0  0  0  0  0  0  0
   -2.2932  -37.0999  -24.5942 C   0  0  0  0  0  0  0  0  0  0  0  0
   -1.7608  -37.4879  -23.3562 C   0  0  0  0  0  0  0  0  0  0  0  0
   -0.3770  -37.4691  -23.1523 C   0  0  0  0  0  0  0  0  0  0  0  0
    0.4574  -37.0242  -24.1814 C   0  0  0  0  0  0  0  0  0  0  0  0
   -2.6849  -37.9251  -22.2655 C   0  0  0  0  0  0  0  0  0  0  0  0
   -2.6834  -39.4298  -22.1394 N   0  3  0  0  0  0  0  0  0  0  0  0
    0.6561  -37.7566  -28.3523 N   0  0  0  0  0  0  0  0  0  0  0  0
    0.5310  -39.0116  -27.8362 C   0  0  0  0  0  0  0  0  0  0  0  0
   -0.0613  -39.9151  -28.3811 O   0  0  0  0  0  0  0  0  0  0  0  0
    1.2832  -39.3114  -26.5924 C   0  0  0  0  0  0  0  0  0  0  0  0
    0.5780  -40.1525  -25.5267 C   0  0  0  0  0  0  0  0  0  0  0  0
    1.6077  -40.8083  -26.4061 C   0  0  0  0  0  0  0  0  0  0  0  0
   -3.4021  -40.0950  -23.2596 C   0  0  0  0  0  0  0  0  0  0  0  0
   -3.8834  -41.4809  -22.9056 C   0  0  0  0  0  0  0  0  0  0  0  0
   -4.4485  -41.5759  -21.6009 O   0  0  0  0  0  0  0  0  0  0  0  0
   -3.4745  -41.2366  -20.6242 C   0  0  0  0  0  0  0  0  0  0  0  0
   -3.1311  -39.7782  -20.7439 C   0  0  0  0  0  0  0  0  0  0  0  0
   -0.5629  -33.8916  -25.2232 H   0  0  0  0  0  0  0  0  0  0  0  0
    3.4876  -32.8030  -22.5861 H   0  0  0  0  0  0  0  0  0  0  0  0
    4.6761  -33.8130  -24.3070 H   0  0  0  0  0  0  0  0  0  0  0  0
    2.0937  -31.7961  -21.0994 H   0  0  0  0  0  0  0  0  0  0  0  0
   -1.1550  -32.2966  -21.8881 H   0  0  0  0  0  0  0  0  0  0  0  0
   -2.3816  -33.6497  -24.2688 H   0  0  0  0  0  0  0  0  0  0  0  0
   -3.2020  -33.0268  -22.8198 H   0  0  0  0  0  0  0  0  0  0  0  0
   -2.0247  -34.3595  -22.6646 H   0  0  0  0  0  0  0  0  0  0  0  0
   -1.4687  -31.2420  -24.7455 H   0  0  0  0  0  0  0  0  0  0  0  0
   -0.6772  -30.3999  -23.3933 H   0  0  0  0  0  0  0  0  0  0  0  0
   -2.4230  -30.7350  -23.3316 H   0  0  0  0  0  0  0  0  0  0  0  0
   -1.8926  -36.3181  -26.5606 H   0  0  0  0  0  0  0  0  0  0  0  0
   -3.3731  -37.1168  -24.7510 H   0  0  0  0  0  0  0  0  0  0  0  0
    0.0575  -37.7688  -22.1980 H   0  0  0  0  0  0  0  0  0  0  0  0
    1.5342  -36.9665  -24.0056 H   0  0  0  0  0  0  0  0  0  0  0  0
   -3.7103  -37.5841  -22.4405 H   0  0  0  0  0  0  0  0  0  0  0  0
   -2.3493  -37.5131  -21.3003 H   0  0  0  0  0  0  0  0  0  0  0  0
   -1.7556  -39.7242  -22.2054 H   0  0  0  0  0  0  0  0  0  0  0  0
    0.3317  -37.6638  -29.3116 H   0  0  0  0  0  0  0  0  0  0  0  0
    2.0128  -38.5560  -26.3586 H   0  0  0  0  0  0  0  0  0  0  0  0
   -0.4744  -40.3546  -25.7131 H   0  0  0  0  0  0  0  0  0  0  0  0
    0.7961  -40.0522  -24.4709 H   0  0  0  0  0  0  0  0  0  0  0  0
    2.5375  -41.1636  -25.9763 H   0  0  0  0  0  0  0  0  0  0  0  0
    1.2744  -41.4752  -27.2064 H   0  0  0  0  0  0  0  0  0  0  0  0
   -2.6342  -40.1593  -24.0296 H   0  0  0  0  0  0  0  0  0  0  0  0
   -4.2374  -39.4521  -23.5473 H   0  0  0  0  0  0  0  0  0  0  0  0
   -3.0527  -42.1843  -22.9951 H   0  0  0  0  0  0  0  0  0  0  0  0
   -4.6553  -41.7201  -23.6282 H   0  0  0  0  0  0  0  0  0  0  0  0
   -2.5763  -41.8493  -20.7514 H   0  0  0  0  0  0  0  0  0  0  0  0
   -3.8965  -41.3985  -19.6326 H   0  0  0  0  0  0  0  0  0  0  0  0
   -3.9932  -39.1615  -20.4858 H   0  0  0  0  0  0  0  0  0  0  0  0
   -2.2685  -39.5526  -20.1049 H   0  0  0  0  0  0  0  0  0  0  0  0
  1  2  2  0  0  0  0
  1  6  1  0  0  0  0
  1 10  1  0  0  0  0
  2  3  1  0  0  0  0
  2 36  1  0  0  0  0
  3  4  2  0  0  0  0
  3  9  1  0  0  0  0
  4  5  1  0  0  0  0
  4  8  1  0  0  0  0
  5  6  2  0  0  0  0
  5 37  1  0  0  0  0
  6  7  1  0  0  0  0
  7 38  1  0  0  0  0
  8 39  1  0  0  0  0
  9 11  1  0  0  0  0
  9 12  1  0  0  0  0
  9 40  1  0  0  0  0
 10 13  2  0  0  0  0
 10 16  1  0  0  0  0
 11 41  1  0  0  0  0
 11 42  1  0  0  0  0
 11 43  1  0  0  0  0
 12 44  1  0  0  0  0
 12 45  1  0  0  0  0
 12 46  1  0  0  0  0
 13 14  1  0  0  0  0
 14 15  1  0  0  0  0
 15 16  2  0  0  0  0
 15 25  1  0  0  0  0
 16 17  1  0  0  0  0
 17 18  2  0  0  0  0
 17 22  1  0  0  0  0
 18 19  1  0  0  0  0
 18 47  1  0  0  0  0
 19 20  2  0  0  0  0
 19 48  1  0  0  0  0
 20 21  1  0  0  0  0
 20 23  1  0  0  0  0
 21 22  2  0  0  0  0
 21 49  1  0  0  0  0
 22 50  1  0  0  0  0
 23 24  1  0  0  0  0
 23 51  1  0  0  0  0
 23 52  1  0  0  0  0
 24 31  1  0  0  0  0
 24 35  1  0  0  0  0
 24 53  1  0  0  0  0
 25 26  1  0  0  0  0
 25 54  1  0  0  0  0
 26 27  2  0  0  0  0
 26 28  1  0  0  0  0
 28 29  1  0  0  0  0
 28 30  1  0  0  0  0
 28 55  1  0  0  0  0
 29 30  1  0  0  0  0
 29 56  1  0  0  0  0
 29 57  1  0  0  0  0
 30 58  1  0  0  0  0
 30 59  1  0  0  0  0
 31 32  1  0  0  0  0
 31 60  1  0  0  0  0
 31 61  1  0  0  0  0
 32 33  1  0  0  0  0
 32 62  1  0  0  0  0
 32 63  1  0  0  0  0
 33 34  1  0  0  0  0
 34 35  1  0  0  0  0
 34 64  1  0  0  0  0
 34 65  1  0  0  0  0
 35 66  1  0  0  0  0
 35 67  1  0  0  0  0
M  CHG  1  24   1
M  END
$$$$
