@<TRIPOS>MOLECULE
4LWH_FJ5_A_301
 67 71 0 0 0
SMALL
USER_CHARGES

@<TRIPOS>ATOM
      1 C           1.5822  -34.0519  -25.1358 C.ar    1  LIG1        0.0000
      2 C           0.3286  -33.6456  -24.6450 C.ar    1  LIG1        0.0000
      3 C           0.2008  -32.9381  -23.4338 C.ar    1  LIG1        0.0000
      4 C           1.3566  -32.6385  -22.7015 C.ar    1  LIG1        0.0000
      5 C           2.6063  -33.0393  -23.1682 C.ar    1  LIG1        0.0000
      6 C           2.7186  -33.7340  -24.3845 C.ar    1  LIG1        0.0000
      7 O           3.9401  -34.1270  -24.8560 O.3     1  LIG1        0.0000
      8 O           1.2318  -31.9435  -21.5253 O.3     1  LIG1        0.0000
      9 C          -1.1512  -32.4449  -22.9715 C.3     1  LIG1        0.0000
     10 C           1.6119  -34.9185  -26.3277 C.ar    1  LIG1        0.0000
     11 C          -2.2650  -33.4400  -23.2046 C.3     1  LIG1        0.0000
     12 C          -1.4534  -31.1247  -23.6551 C.3     1  LIG1        0.0000
     13 N           2.3273  -34.7076  -27.4496 N.ar    1  LIG1        0.0000
     14 O           1.9930  -35.7605  -28.3181 O.2     1  LIG1        0.0000
     15 C           1.0775  -36.6183  -27.6961 C.ar    1  LIG1        0.0000
     16 C           0.8374  -36.1131  -26.4427 C.ar    1  LIG1        0.0000
     17 C          -0.0688  -36.6491  -25.4323 C.ar    1  LIG1        0.0000
     18 C          -1.4533  -36.6636  -25.6251 C.ar    1  LIG1        0.0000
     19 C          -2.2932  -37.0999  -24.5942 C.ar    1  LIG1        0.0000
     20 C          -1.7608  -37.4879  -23.3562 C.ar    1  LIG1        0.0000
     21 C          -0.3770  -37.4691  -23.1523 C.ar    1  LIG1        0.0000
     22 C           0.4574  -37.0242  -24.1814 C.ar    1  LIG1        0.0000
     23 C          -2.6849  -37.9251  -22.2655 C.3     1  LIG1        0.0000
     24 N          -2.6834  -39.4298  -22.1394 N.4     1  LIG1        1.0000
     25 N           0.6561  -37.7566  -28.3523 N.am    1  LIG1        0.0000
     26 C           0.5310  -39.0116  -27.8362 C.2     1  LIG1        0.0000
     27 O          -0.0613  -39.9151  -28.3811 O.2     1  LIG1        0.0000
     28 C           1.2832  -39.3114  -26.5924 C.3     1  LIG1        0.0000
     29 C           0.5780  -40.1525  -25.5267 C.3     1  LIG1        0.0000
     30 C           1.6077  -40.8083  -26.4061 C.3     1  LIG1        0.0000
     31 C          -3.4021  -40.0950  -23.2596 C.3     1  LIG1        0.0000
     32 C          -3.8834  -41.4809  -22.9056 C.3     1  LIG1        0.0000
     33 O          -4.4485  -41.5759  -21.6009 O.3     1  LIG1        0.0000
     34 C          -3.4745  -41.2366  -20.6242 C.3     1  LIG1        0.0000
     35 C          -3.1311  -39.7782  -20.7439 C.3     1  LIG1        0.0000
     36 H          -0.5629  -33.8916  -25.2232 H       1  LIG1        0.0000
     37 H           3.4876  -32.8030  -22.5861 H       1  LIG1        0.0000
     38 H           4.6761  -33.8130  -24.3070 H       1  LIG1        0.0000
     39 H           2.0937  -31.7961  -21.0994 H       1  LIG1        0.0000
     40 H          -1.1550  -32.2966  -21.8881 H       1  LIG1        0.0000
     41 H          -2.3816  -33.6497  -24.2688 H       1  LIG1        0.0000
     42 H          -3.2020  -33.0268  -22.8198 H       1  LIG1        0.0000
     43 H          -2.0247  -34.3595  -22.6646 H       1  LIG1        0.0000
     44 H          -1.4687  -31.2420  -24.7455 H       1  LIG1        0.0000
     45 H          -0.6772  -30.3999  -23.3933 H       1  LIG1        0.0000
     46 H          -2.4230  -30.7350  -23.3316 H       1  LIG1        0.0000
     47 H          -1.8926  -36.3181  -26.5606 H       1  LIG1        0.0000
     48 H          -3.3731  -37.1168  -24.7510 H       1  LIG1        0.0000
     49 H           0.0575  -37.7688  -22.1980 H       1  LIG1        0.0000
     50 H           1.5342  -36.9665  -24.0056 H       1  LIG1        0.0000
     51 H          -3.7103  -37.5841  -22.4405 H       1  LIG1        0.0000
     52 H          -2.3493  -37.5131  -21.3003 H       1  LIG1        0.0000
     53 H          -1.7556  -39.7242  -22.2054 H       1  LIG1        0.0000
     54 H           0.3317  -37.6638  -29.3116 H       1  LIG1        0.0000
     55 H           2.0128  -38.5560  -26.3586 H       1  LIG1        0.0000
     56 H          -0.4744  -40.3546  -25.7131 H       1  LIG1        0.0000
     57 H           0.7961  -40.0522  -24.4709 H       1  LIG1        0.0000
     58 H           2.5375  -41.1636  -25.9763 H       1  LIG1        0.0000
     59 H           1.2744  -41.4752  -27.2064 H       1  LIG1        0.0000
     60 H          -2.6342  -40.1593  -24.0296 H       1  LIG1        0.0000
     61 H          -4.2374  -39.4521  -23.5473 H       1  LIG1        0.0000
     62 H          -3.0527  -42.1843  -22.9951 H       1  LIG1        0.0000
     63 H          -4.6553  -41.7201  -23.6282 H       1  LIG1        0.0000
     64 H          -2.5763  -41.8493  -20.7514 H       1  LIG1        0.0000
     65 H          -3.8965  -41.3985  -19.6326 H       1  LIG1        0.0000
     66 H          -3.9932  -39.1615  -20.4858 H       1  LIG1        0.0000
     67 H          -2.2685  -39.5526  -20.1049 H       1  LIG1        0.0000
@<TRIPOS>BOND
     1     1     2   ar
     2     1     6   ar
     3     1    10    1
     4     2     3   ar
     5     2    36    1
     6     3     4   ar
     7     3     9    1
     8     4     5   ar
     9     4     8    1
    10     5     6   ar
    11     5    37    1
    12     6     7    1
    13     7    38    1
    14     8    39    1
    15     9    11    1
    16     9    12    1
    17     9    40    1
    18    10    13   ar
    19    10    16   ar
    20    11    41    1
    21    11    42    1
    22    11    43    1
    23    12    44    1
    24    12    45    1
    25    12    46    1
    26    13    14   ar
    27    14    15   ar
    28    15    16   ar
    29    15    25    1
    30    16    17    1
    31    17    18   ar
    32    17    22   ar
    33    18    19   ar
    34    18    47    1
    35    19    20   ar
    36    19    48    1
    37    20    21   ar
    38    20    23    1
    39    21    22   ar
    40    21    49    1
    41    22    50    1
    42    23    24    1
    43    23    51    1
    44    23    52    1
    45    24    31    1
    46    24    35    1
    47    24    53    1
    48    25    26   am
    49    25    54    1
    50    26    27    2
    51    26    28    1
    52    28    29    1
    53    28    30    1
    54    28    55    1
    55    29    30    1
    56    29    56    1
    57    29    57    1
    58    30    58    1
    59    30    59    1
    60    31    32    1
    61    31    60    1
    62    31    61    1
    63    32    33    1
    64    32    62    1
    65    32    63    1
    66    33    34    1
    67    34    35    1
    68    34    64    1
    69    34    65    1
    70    35    66    1
    71    35    67    1
