REMARK  9 active torsions:
REMARK  status: ('A' for Active; 'I' for Inactive)
REMARK    1  A    between atoms: C_1  and  C_10 
REMARK    2  A    between atoms: C_3  and  C_9 
REMARK    3  A    between atoms: C_4  and  O_8 
REMARK    4  A    between atoms: C_6  and  O_7 
REMARK    5  A    between atoms: C_15  and  N_25 
REMARK    6  A    between atoms: C_16  and  C_17 
REMARK    7  A    between atoms: C_20  and  C_23 
REMARK    8  A    between atoms: C_23  and  N_24 
REMARK       I    between atoms: N_25  and  C_26 
REMARK    9  A    between atoms: C_26  and  C_28 
ROOT
ATOM      1  C   LIG d   1       1.612 -34.919 -26.328  0.00  0.00     0.000 A 
ATOM      2  N   LIG d   1       2.327 -34.708 -27.450  0.00  0.00     0.000 NA
ATOM      3  O   LIG d   1       1.993 -35.761 -28.318  0.00  0.00     0.000 OA
ATOM      4  C   LIG d   1       1.077 -36.618 -27.696  0.00  0.00     0.000 A 
ATOM      5  C   LIG d   1       0.837 -36.113 -26.443  0.00  0.00     0.000 A 
ENDROOT
BRANCH   5   6
ATOM      6  C   LIG d   1      -0.069 -36.649 -25.432  0.00  0.00     0.000 A 
ATOM      7  C   LIG d   1      -1.453 -36.664 -25.625  0.00  0.00     0.000 A 
ATOM      8  C   LIG d   1      -2.293 -37.100 -24.594  0.00  0.00     0.000 A 
ATOM      9  C   LIG d   1      -1.761 -37.488 -23.356  0.00  0.00     0.000 A 
ATOM     10  C   LIG d   1      -0.377 -37.469 -23.152  0.00  0.00     0.000 A 
ATOM     11  C   LIG d   1       0.457 -37.024 -24.181  0.00  0.00     0.000 A 
BRANCH   9  12
ATOM     12  C   LIG d   1      -2.685 -37.925 -22.265  0.00  0.00     0.000 C 
BRANCH  12  13
ATOM     13  N   LIG d   1      -2.683 -39.430 -22.139  0.00  0.00     1.000 N 
ATOM     14  C   LIG d   1      -3.402 -40.095 -23.260  0.00  0.00     0.000 C 
ATOM     15  C   LIG d   1      -3.883 -41.481 -22.906  0.00  0.00     0.000 C 
ATOM     16  O   LIG d   1      -4.449 -41.576 -21.601  0.00  0.00     0.000 OA
ATOM     17  C   LIG d   1      -3.474 -41.237 -20.624  0.00  0.00     0.000 C 
ATOM     18  C   LIG d   1      -3.131 -39.778 -20.744  0.00  0.00     0.000 C 
ATOM     19  H   LIG d   1      -1.756 -39.724 -22.205  0.00  0.00     0.000 HD
ENDBRANCH  12  13
ENDBRANCH   9  12
ENDBRANCH   5   6
BRANCH   1  20
ATOM     20  C   LIG d   1       1.582 -34.052 -25.136  0.00  0.00     0.000 A 
ATOM     21  C   LIG d   1       0.329 -33.646 -24.645  0.00  0.00     0.000 A 
ATOM     22  C   LIG d   1       0.201 -32.938 -23.434  0.00  0.00     0.000 A 
ATOM     23  C   LIG d   1       1.357 -32.639 -22.701  0.00  0.00     0.000 A 
ATOM     24  C   LIG d   1       2.606 -33.039 -23.168  0.00  0.00     0.000 A 
ATOM     25  C   LIG d   1       2.719 -33.734 -24.384  0.00  0.00     0.000 A 
BRANCH  22  26
ATOM     26  C   LIG d   1      -1.151 -32.445 -22.971  0.00  0.00     0.000 C 
ATOM     27  C   LIG d   1      -2.265 -33.440 -23.205  0.00  0.00     0.000 C 
ATOM     28  C   LIG d   1      -1.453 -31.125 -23.655  0.00  0.00     0.000 C 
ENDBRANCH  22  26
BRANCH  23  29
ATOM     29  O   LIG d   1       1.232 -31.944 -21.525  0.00  0.00     0.000 OA
ATOM     30  H   LIG d   1       2.094 -31.796 -21.099  0.00  0.00     0.000 HD
ENDBRANCH  23  29
BRANCH  25  31
ATOM     31  O   LIG d   1       3.940 -34.127 -24.856  0.00  0.00     0.000 OA
ATOM     32  H   LIG d   1       4.676 -33.813 -24.307  0.00  0.00     0.000 HD
ENDBRANCH  25  31
ENDBRANCH   1  20
BRANCH   4  33
ATOM     33  N   LIG d   1       0.656 -37.757 -28.352  0.00  0.00     0.000 N 
ATOM     34  C   LIG d   1       0.531 -39.012 -27.836  0.00  0.00     0.000 C 
ATOM     35  O   LIG d   1      -0.061 -39.915 -28.381  0.00  0.00     0.000 OA
ATOM     36  H   LIG d   1       0.332 -37.664 -29.312  0.00  0.00     0.000 HD
BRANCH  34  37
ATOM     37  C   LIG d   1       1.283 -39.311 -26.592  0.00  0.00     0.000 A 
ATOM     38  C   LIG d   1       0.578 -40.153 -25.527  0.00  0.00     0.000 A 
ATOM     39  C   LIG d   1       1.608 -40.808 -26.406  0.00  0.00     0.000 A 
ENDBRANCH  34  37
ENDBRANCH   4  33
TORSDOF 9
