@<TRIPOS>MOLECULE
4LWI_FJ6_A_301
 54 57 0 0 0
SMALL
USER_CHARGES

@<TRIPOS>ATOM
      1 C           1.5996  -34.1675  -25.0528 C.ar    1  LIG1        0.0462
      2 C           0.3439  -33.7304  -24.5807 C.ar    1  LIG1       -0.0420
      3 C           0.2088  -32.9956  -23.3960 C.ar    1  LIG1       -0.0025
      4 C           1.3667  -32.6614  -22.6681 C.ar    1  LIG1        0.1238
      5 C           2.6270  -33.0844  -23.0928 C.ar    1  LIG1        0.0222
      6 C           2.7342  -33.8382  -24.2855 C.ar    1  LIG1        0.1296
      7 O           3.9740  -34.2727  -24.6972 O.3     1  LIG1       -0.5060
      8 O           1.2407  -31.9102  -21.5247 O.3     1  LIG1       -0.5064
      9 C          -1.1544  -32.4900  -22.9680 C.3     1  LIG1       -0.0180
     10 C           1.6127  -35.0489  -26.2461 C.ar    1  LIG1        0.1265
     11 C          -1.3727  -31.1497  -23.6516 C.3     1  LIG1       -0.0585
     12 C          -2.3000  -33.4378  -23.2563 C.3     1  LIG1       -0.0585
     13 N           2.3416  -34.8679  -27.3758 N.ar    1  LIG1       -0.0753
     14 O           1.9777  -35.9193  -28.2342 O.2     1  LIG1       -0.3381
     15 C           1.0725  -36.7623  -27.6123 C.ar    1  LIG1        0.2323
     16 C           0.7999  -36.2388  -26.3751 C.ar    1  LIG1        0.0716
     17 C          -0.1601  -36.7629  -25.4050 C.ar    1  LIG1       -0.0106
     18 C           0.2712  -37.1164  -24.1168 C.ar    1  LIG1       -0.0503
     19 C          -0.6311  -37.6227  -23.1686 C.ar    1  LIG1       -0.0194
     20 C          -1.9828  -37.7499  -23.4909 C.ar    1  LIG1        0.1201
     21 C          -2.4299  -37.3649  -24.7571 C.ar    1  LIG1       -0.0194
     22 C          -1.5201  -36.8697  -25.7064 C.ar    1  LIG1       -0.0503
     23 O          -2.9598  -38.2196  -22.6514 O.3     1  LIG1       -0.4951
     24 C          -2.5264  -38.7680  -21.4243 C.3     1  LIG1        0.0788
     25 N           0.5132  -37.9002  -28.3415 N.am    1  LIG1       -0.2535
     26 C           0.2951  -39.2923  -27.8619 C.2     1  LIG1        0.2225
     27 O          -0.2956  -40.1080  -28.7267 O.2     1  LIG1       -0.2751
     28 C           0.7609  -39.9239  -26.7309 C.3     1  LIG1        0.0360
     29 C           1.8720  -40.6758  -25.9577 C.3     1  LIG1       -0.0412
     30 C           0.5654  -40.2252  -25.2305 C.3     1  LIG1       -0.0412
     31 H          -0.5564  -33.9706  -25.1623 H       1  LIG1        0.0629
     32 H           3.5002  -32.8178  -22.5013 H       1  LIG1        0.0691
     33 H           4.7187  -33.9941  -24.1506 H       1  LIG1        0.2922
     34 H           2.0958  -31.7509  -21.1012 H       1  LIG1        0.2921
     35 H          -1.1642  -32.3810  -21.8800 H       1  LIG1        0.0345
     36 H          -1.3599  -31.2595  -24.7439 H       1  LIG1        0.0235
     37 H          -0.5769  -30.4560  -23.3697 H       1  LIG1        0.0235
     38 H          -2.3350  -30.7212  -23.3567 H       1  LIG1        0.0235
     39 H          -2.4186  -33.6127  -24.3316 H       1  LIG1        0.0235
     40 H          -3.2346  -33.0120  -22.8736 H       1  LIG1        0.0235
     41 H          -2.1184  -34.3950  -22.7554 H       1  LIG1        0.0235
     42 H           1.3294  -37.0397  -23.8601 H       1  LIG1        0.0625
     43 H          -0.2623  -37.9239  -22.1914 H       1  LIG1        0.0654
     44 H          -3.4883  -37.4629  -25.0020 H       1  LIG1        0.0654
     45 H          -1.8832  -36.5689  -26.6849 H       1  LIG1        0.0625
     46 H          -3.4088  -39.0948  -20.8620 H       1  LIG1        0.0660
     47 H          -1.9941  -38.0142  -20.8229 H       1  LIG1        0.0660
     48 H          -1.8797  -39.6421  -21.5985 H       1  LIG1        0.0660
     49 H           0.1711  -37.6637  -29.2662 H       1  LIG1        0.1578
     50 H           1.1540  -38.9248  -26.9072 H       1  LIG1        0.0394
     51 H           2.7917  -40.2037  -25.6085 H       1  LIG1        0.0273
     52 H           1.9481  -41.7364  -26.1850 H       1  LIG1        0.0273
     53 H          -0.1631  -40.9999  -25.0277 H       1  LIG1        0.0273
     54 H           0.6984  -39.4924  -24.4597 H       1  LIG1        0.0273
@<TRIPOS>BOND
     1     1     2   ar
     2     1     6   ar
     3     1    10    1
     4     2     3   ar
     5     2    31    1
     6     3     4   ar
     7     3     9    1
     8     4     5   ar
     9     4     8    1
    10     5     6   ar
    11     5    32    1
    12     6     7    1
    13     7    33    1
    14     8    34    1
    15     9    11    1
    16     9    12    1
    17     9    35    1
    18    10    13   ar
    19    10    16   ar
    20    11    36    1
    21    11    37    1
    22    11    38    1
    23    12    39    1
    24    12    40    1
    25    12    41    1
    26    13    14   ar
    27    14    15   ar
    28    15    16   ar
    29    15    25    1
    30    16    17    1
    31    17    18   ar
    32    17    22   ar
    33    18    19   ar
    34    18    42    1
    35    19    20   ar
    36    19    43    1
    37    20    21   ar
    38    20    23    1
    39    21    22   ar
    40    21    44    1
    41    22    45    1
    42    23    24    1
    43    24    46    1
    44    24    47    1
    45    24    48    1
    46    25    26   am
    47    25    49    1
    48    26    27    2
    49    26    28    1
    50    28    29    1
    51    28    30    1
    52    28    50    1
    53    29    30    1
    54    29    51    1
    55    29    52    1
    56    30    53    1
    57    30    54    1
