REMARK  7 active torsions:
REMARK  status: ('A' for Active; 'I' for Inactive)
REMARK    1  A    between atoms: C_1  and  C_10 
REMARK    2  A    between atoms: C_3  and  C_9 
REMARK    3  A    between atoms: C_4  and  O_8 
REMARK    4  A    between atoms: C_6  and  O_7 
REMARK    5  A    between atoms: C_15  and  N_25 
REMARK    6  A    between atoms: C_16  and  C_17 
REMARK    7  A    between atoms: C_20  and  O_23 
REMARK       I    between atoms: N_25  and  C_26 
ROOT
ATOM      1  C   LIG d   1       1.613 -35.049 -26.246  0.00  0.00     0.127 A 
ATOM      2  N   LIG d   1       2.342 -34.868 -27.376  0.00  0.00    -0.075 NA
ATOM      3  O   LIG d   1       1.978 -35.919 -28.234  0.00  0.00    -0.338 OA
ATOM      4  C   LIG d   1       1.073 -36.762 -27.612  0.00  0.00     0.232 A 
ATOM      5  C   LIG d   1       0.800 -36.239 -26.375  0.00  0.00     0.072 A 
ENDROOT
BRANCH   1   6
ATOM      6  C   LIG d   1       1.600 -34.167 -25.053  0.00  0.00     0.046 A 
ATOM      7  C   LIG d   1       0.344 -33.730 -24.581  0.00  0.00     0.021 A 
ATOM      8  C   LIG d   1       0.209 -32.996 -23.396  0.00  0.00    -0.003 A 
ATOM      9  C   LIG d   1       1.367 -32.661 -22.668  0.00  0.00     0.124 A 
ATOM     10  C   LIG d   1       2.627 -33.084 -23.093  0.00  0.00     0.091 A 
ATOM     11  C   LIG d   1       2.734 -33.838 -24.285  0.00  0.00     0.130 A 
BRANCH   8  12
ATOM     12  C   LIG d   1      -1.154 -32.490 -22.968  0.00  0.00     0.017 C 
ATOM     13  C   LIG d   1      -1.373 -31.150 -23.652  0.00  0.00     0.012 C 
ATOM     14  C   LIG d   1      -2.300 -33.438 -23.256  0.00  0.00     0.012 C 
ENDBRANCH   8  12
BRANCH   9  15
ATOM     15  O   LIG d   1       1.241 -31.910 -21.525  0.00  0.00    -0.506 OA
ATOM     16  H   LIG d   1       2.096 -31.751 -21.101  0.00  0.00     0.292 HD
ENDBRANCH   9  15
BRANCH  11  17
ATOM     17  O   LIG d   1       3.974 -34.273 -24.697  0.00  0.00    -0.506 OA
ATOM     18  H   LIG d   1       4.719 -33.994 -24.151  0.00  0.00     0.292 HD
ENDBRANCH  11  17
ENDBRANCH   1   6
BRANCH   5  19
ATOM     19  C   LIG d   1      -0.160 -36.763 -25.405  0.00  0.00    -0.011 A 
ATOM     20  C   LIG d   1       0.271 -37.116 -24.117  0.00  0.00     0.012 A 
ATOM     21  C   LIG d   1      -0.631 -37.623 -23.169  0.00  0.00     0.046 A 
ATOM     22  C   LIG d   1      -1.983 -37.750 -23.491  0.00  0.00     0.120 A 
ATOM     23  C   LIG d   1      -2.430 -37.365 -24.757  0.00  0.00     0.046 A 
ATOM     24  C   LIG d   1      -1.520 -36.870 -25.706  0.00  0.00     0.012 A 
BRANCH  22  25
ATOM     25  O   LIG d   1      -2.960 -38.220 -22.651  0.00  0.00    -0.495 OA
ATOM     26  C   LIG d   1      -2.526 -38.768 -21.424  0.00  0.00     0.277 C 
ENDBRANCH  22  25
ENDBRANCH   5  19
BRANCH   4  27
ATOM     27  N   LIG d   1       0.513 -37.900 -28.341  0.00  0.00    -0.254 N 
ATOM     28  C   LIG d   1       0.295 -39.292 -27.862  0.00  0.00     0.223 C 
ATOM     29  O   LIG d   1      -0.296 -40.108 -28.727  0.00  0.00    -0.275 OA
ATOM     30  C   LIG d   1       0.761 -39.924 -26.731  0.00  0.00     0.075 A 
ATOM     31  C   LIG d   1       1.872 -40.676 -25.958  0.00  0.00     0.013 A 
ATOM     32  C   LIG d   1       0.565 -40.225 -25.230  0.00  0.00     0.013 A 
ATOM     33  H   LIG d   1       0.171 -37.664 -29.266  0.00  0.00     0.158 HD
ENDBRANCH   4  27
TORSDOF 7
