4LWI_FJ6_A_301
 OpenBabel03301717323D

 54 57  0  0  0  0  0  0  0  0999 V2000
    1.5996  -34.1675  -25.0528 C   0  0  0  0  0  0  0  0  0  0  0  0
    0.3439  -33.7304  -24.5807 C   0  0  0  0  0  0  0  0  0  0  0  0
    0.2088  -32.9956  -23.3960 C   0  0  0  0  0  0  0  0  0  0  0  0
    1.3667  -32.6614  -22.6681 C   0  0  0  0  0  0  0  0  0  0  0  0
    2.6270  -33.0844  -23.0928 C   0  0  0  0  0  0  0  0  0  0  0  0
    2.7342  -33.8382  -24.2855 C   0  0  0  0  0  0  0  0  0  0  0  0
    3.9740  -34.2727  -24.6972 O   0  0  0  0  0  0  0  0  0  0  0  0
    1.2407  -31.9102  -21.5247 O   0  0  0  0  0  0  0  0  0  0  0  0
   -1.1544  -32.4900  -22.9680 C   0  0  0  0  0  0  0  0  0  0  0  0
    1.6127  -35.0489  -26.2461 C   0  0  0  0  0  0  0  0  0  0  0  0
   -1.3727  -31.1497  -23.6516 C   0  0  0  0  0  0  0  0  0  0  0  0
   -2.3000  -33.4378  -23.2563 C   0  0  0  0  0  0  0  0  0  0  0  0
    2.3416  -34.8679  -27.3758 N   0  0  0  0  0  0  0  0  0  0  0  0
    1.9777  -35.9193  -28.2342 O   0  0  0  0  0  0  0  0  0  0  0  0
    1.0725  -36.7623  -27.6123 C   0  0  0  0  0  0  0  0  0  0  0  0
    0.7999  -36.2388  -26.3751 C   0  0  0  0  0  0  0  0  0  0  0  0
   -0.1601  -36.7629  -25.4050 C   0  0  0  0  0  0  0  0  0  0  0  0
    0.2712  -37.1164  -24.1168 C   0  0  0  0  0  0  0  0  0  0  0  0
   -0.6311  -37.6227  -23.1686 C   0  0  0  0  0  0  0  0  0  0  0  0
   -1.9828  -37.7499  -23.4909 C   0  0  0  0  0  0  0  0  0  0  0  0
   -2.4299  -37.3649  -24.7571 C   0  0  0  0  0  0  0  0  0  0  0  0
   -1.5201  -36.8697  -25.7064 C   0  0  0  0  0  0  0  0  0  0  0  0
   -2.9598  -38.2196  -22.6514 O   0  0  0  0  0  0  0  0  0  0  0  0
   -2.5264  -38.7680  -21.4243 C   0  0  0  0  0  0  0  0  0  0  0  0
    0.5132  -37.9002  -28.3415 N   0  0  0  0  0  0  0  0  0  0  0  0
    0.2951  -39.2923  -27.8619 C   0  0  0  0  0  0  0  0  0  0  0  0
   -0.2956  -40.1080  -28.7267 O   0  0  0  0  0  0  0  0  0  0  0  0
    0.7609  -39.9239  -26.7309 C   0  0  0  0  0  0  0  0  0  0  0  0
    1.8720  -40.6758  -25.9577 C   0  0  0  0  0  0  0  0  0  0  0  0
    0.5654  -40.2252  -25.2305 C   0  0  0  0  0  0  0  0  0  0  0  0
   -0.5564  -33.9706  -25.1623 H   0  0  0  0  0  0  0  0  0  0  0  0
    3.5002  -32.8178  -22.5013 H   0  0  0  0  0  0  0  0  0  0  0  0
    4.7187  -33.9941  -24.1506 H   0  0  0  0  0  0  0  0  0  0  0  0
    2.0958  -31.7509  -21.1012 H   0  0  0  0  0  0  0  0  0  0  0  0
   -1.1642  -32.3810  -21.8800 H   0  0  0  0  0  0  0  0  0  0  0  0
   -1.3599  -31.2595  -24.7439 H   0  0  0  0  0  0  0  0  0  0  0  0
   -0.5769  -30.4560  -23.3697 H   0  0  0  0  0  0  0  0  0  0  0  0
   -2.3350  -30.7212  -23.3567 H   0  0  0  0  0  0  0  0  0  0  0  0
   -2.4186  -33.6127  -24.3316 H   0  0  0  0  0  0  0  0  0  0  0  0
   -3.2346  -33.0120  -22.8736 H   0  0  0  0  0  0  0  0  0  0  0  0
   -2.1184  -34.3950  -22.7554 H   0  0  0  0  0  0  0  0  0  0  0  0
    1.3294  -37.0397  -23.8601 H   0  0  0  0  0  0  0  0  0  0  0  0
   -0.2623  -37.9239  -22.1914 H   0  0  0  0  0  0  0  0  0  0  0  0
   -3.4883  -37.4629  -25.0020 H   0  0  0  0  0  0  0  0  0  0  0  0
   -1.8832  -36.5689  -26.6849 H   0  0  0  0  0  0  0  0  0  0  0  0
   -3.4088  -39.0948  -20.8620 H   0  0  0  0  0  0  0  0  0  0  0  0
   -1.9941  -38.0142  -20.8229 H   0  0  0  0  0  0  0  0  0  0  0  0
   -1.8797  -39.6421  -21.5985 H   0  0  0  0  0  0  0  0  0  0  0  0
    0.1711  -37.6637  -29.2662 H   0  0  0  0  0  0  0  0  0  0  0  0
    1.1540  -38.9248  -26.9072 H   0  0  0  0  0  0  0  0  0  0  0  0
    2.7917  -40.2037  -25.6085 H   0  0  0  0  0  0  0  0  0  0  0  0
    1.9481  -41.7364  -26.1850 H   0  0  0  0  0  0  0  0  0  0  0  0
   -0.1631  -40.9999  -25.0277 H   0  0  0  0  0  0  0  0  0  0  0  0
    0.6984  -39.4924  -24.4597 H   0  0  0  0  0  0  0  0  0  0  0  0
  1  2  2  0  0  0  0
  1  6  1  0  0  0  0
  1 10  1  0  0  0  0
  2  3  1  0  0  0  0
  2 31  1  0  0  0  0
  3  4  2  0  0  0  0
  3  9  1  0  0  0  0
  4  5  1  0  0  0  0
  4  8  1  0  0  0  0
  5  6  2  0  0  0  0
  5 32  1  0  0  0  0
  6  7  1  0  0  0  0
  7 33  1  0  0  0  0
  8 34  1  0  0  0  0
  9 11  1  0  0  0  0
  9 12  1  0  0  0  0
  9 35  1  0  0  0  0
 10 13  2  0  0  0  0
 10 16  1  0  0  0  0
 11 36  1  0  0  0  0
 11 37  1  0  0  0  0
 11 38  1  0  0  0  0
 12 39  1  0  0  0  0
 12 40  1  0  0  0  0
 12 41  1  0  0  0  0
 13 14  1  0  0  0  0
 14 15  1  0  0  0  0
 15 16  2  0  0  0  0
 15 25  1  0  0  0  0
 16 17  1  0  0  0  0
 17 18  2  0  0  0  0
 17 22  1  0  0  0  0
 18 19  1  0  0  0  0
 18 42  1  0  0  0  0
 19 20  2  0  0  0  0
 19 43  1  0  0  0  0
 20 21  1  0  0  0  0
 20 23  1  0  0  0  0
 21 22  2  0  0  0  0
 21 44  1  0  0  0  0
 22 45  1  0  0  0  0
 23 24  1  0  0  0  0
 24 46  1  0  0  0  0
 24 47  1  0  0  0  0
 24 48  1  0  0  0  0
 25 26  1  0  0  0  0
 25 49  1  0  0  0  0
 26 27  2  0  0  0  0
 26 28  1  0  0  0  0
 28 29  1  0  0  0  0
 28 30  1  0  0  0  0
 28 50  1  0  0  0  0
 29 30  1  0  0  0  0
 29 51  1  0  0  0  0
 29 52  1  0  0  0  0
 30 53  1  0  0  0  0
 30 54  1  0  0  0  0
M  END
$$$$
