5CF0_FJS_A_301
 OpenBabel03301717383D

 60 65  0  0  0  0  0  0  0  0999 V2000
   -4.1622   -7.2394  -23.4830 C   0  0  0  0  0  0  0  0  0  0  0  0
   -1.5270   -7.8971  -24.0789 C   0  0  0  0  0  0  0  0  0  0  0  0
   -2.0990  -11.8968  -24.7525 C   0  0  0  0  0  0  0  0  0  0  0  0
    0.3037  -12.2616  -24.8923 C   0  0  0  0  0  0  0  0  0  0  0  0
   -3.5060  -12.0618  -25.1530 C   0  0  0  0  0  0  0  0  0  0  0  0
   -1.5072   -6.0920  -20.3226 C   0  0  0  0  0  0  0  0  0  0  0  0
   -3.5987   -4.6301  -20.0073 C   0  0  0  0  0  0  0  0  0  0  0  0
    0.2497  -10.2982  -20.8572 N   0  0  0  0  0  0  0  0  0  0  0  0
   -0.0702   -9.3016  -19.9404 O   0  0  0  0  0  0  0  0  0  0  0  0
   -0.8819   -8.3744  -20.5256 C   0  0  0  0  0  0  0  0  0  0  0  0
   -1.1391   -8.7622  -21.8213 C   0  0  0  0  0  0  0  0  0  0  0  0
   -0.4728  -10.0171  -21.9501 C   0  0  0  0  0  0  0  0  0  0  0  0
   -0.5870  -10.9230  -23.0835 C   0  0  0  0  0  0  0  0  0  0  0  0
   -2.0147   -8.1194  -22.7865 C   0  0  0  0  0  0  0  0  0  0  0  0
   -1.2865   -7.3181  -19.7455 N   0  0  0  0  0  0  0  0  0  0  0  0
   -3.3481   -7.8087  -22.4965 C   0  0  0  0  0  0  0  0  0  0  0  0
   -3.6628   -7.0063  -24.7686 C   0  0  0  0  0  0  0  0  0  0  0  0
   -2.3438   -7.3450  -25.0598 C   0  0  0  0  0  0  0  0  0  0  0  0
   -1.8733  -11.1542  -23.5912 C   0  0  0  0  0  0  0  0  0  0  0  0
   -0.9894  -12.4394  -25.4023 C   0  0  0  0  0  0  0  0  0  0  0  0
    0.5014  -11.5006  -23.7330 C   0  0  0  0  0  0  0  0  0  0  0  0
    1.7842  -11.3305  -23.2990 O   0  0  0  0  0  0  0  0  0  0  0  0
   -1.1813  -13.1684  -26.5486 O   0  0  0  0  0  0  0  0  0  0  0  0
   -4.5341   -6.4418  -25.6618 O   0  0  0  0  0  0  0  0  0  0  0  0
   -4.0987   -6.4397  -27.0200 C   0  0  0  0  0  0  0  0  0  0  0  0
   -2.2655   -5.1234  -19.4762 C   0  0  0  0  0  0  0  0  0  0  0  0
   -1.1464   -5.7499  -21.4386 O   0  0  0  0  0  0  0  0  0  0  0  0
   -2.4203   -3.7006  -19.9783 C   0  0  0  0  0  0  0  0  0  0  0  0
   -6.1998  -12.0942  -25.7173 C   0  0  0  0  0  0  0  0  0  0  0  0
   -5.4928  -10.9986  -26.0825 N   0  0  0  0  0  0  0  0  0  0  0  0
   -4.1784  -11.0084  -25.7804 C   0  0  0  0  0  0  0  0  0  0  0  0
   -5.6571  -13.2007  -25.0492 C   0  0  0  0  0  0  0  0  0  0  0  0
   -4.2838  -13.1771  -24.7497 C   0  0  0  0  0  0  0  0  0  0  0  0
   -3.7470  -14.2648  -24.0214 C   0  0  0  0  0  0  0  0  0  0  0  0
   -4.5359  -15.3525  -23.6358 C   0  0  0  0  0  0  0  0  0  0  0  0
   -5.8843  -15.3698  -23.9653 C   0  0  0  0  0  0  0  0  0  0  0  0
   -6.4509  -14.3003  -24.6575 C   0  0  0  0  0  0  0  0  0  0  0  0
   -5.1931   -6.9845  -23.2501 H   0  0  0  0  0  0  0  0  0  0  0  0
   -0.5066   -8.1645  -24.3435 H   0  0  0  0  0  0  0  0  0  0  0  0
    1.1668  -12.6995  -25.3842 H   0  0  0  0  0  0  0  0  0  0  0  0
   -4.4133   -4.4122  -19.3280 H   0  0  0  0  0  0  0  0  0  0  0  0
   -3.9252   -5.0125  -20.9701 H   0  0  0  0  0  0  0  0  0  0  0  0
   -1.2892   -7.4309  -18.7443 H   0  0  0  0  0  0  0  0  0  0  0  0
   -3.7668   -8.0088  -21.5136 H   0  0  0  0  0  0  0  0  0  0  0  0
   -1.9093   -7.1875  -26.0398 H   0  0  0  0  0  0  0  0  0  0  0  0
   -2.7388  -10.7257  -23.0865 H   0  0  0  0  0  0  0  0  0  0  0  0
    1.7569  -10.8753  -22.4344 H   0  0  0  0  0  0  0  0  0  0  0  0
   -0.3163  -13.4540  -26.8906 H   0  0  0  0  0  0  0  0  0  0  0  0
   -4.8690   -5.9641  -27.6309 H   0  0  0  0  0  0  0  0  0  0  0  0
   -3.9613   -7.4657  -27.3809 H   0  0  0  0  0  0  0  0  0  0  0  0
   -3.1800   -5.8549  -27.1460 H   0  0  0  0  0  0  0  0  0  0  0  0
   -2.1678   -5.2575  -18.4045 H   0  0  0  0  0  0  0  0  0  0  0  0
   -2.4445   -2.8794  -19.2754 H   0  0  0  0  0  0  0  0  0  0  0  0
   -1.9330   -3.4502  -20.9165 H   0  0  0  0  0  0  0  0  0  0  0  0
   -7.2521  -12.0508  -25.9697 H   0  0  0  0  0  0  0  0  0  0  0  0
   -3.6529  -10.0873  -26.0263 H   0  0  0  0  0  0  0  0  0  0  0  0
   -2.6985  -14.2745  -23.7396 H   0  0  0  0  0  0  0  0  0  0  0  0
   -4.0890  -16.1745  -23.0918 H   0  0  0  0  0  0  0  0  0  0  0  0
   -6.5001  -16.2206  -23.6750 H   0  0  0  0  0  0  0  0  0  0  0  0
   -7.5143  -14.3244  -24.8850 H   0  0  0  0  0  0  0  0  0  0  0  0
  1 16  2  0  0  0  0
  1 17  1  0  0  0  0
  1 38  1  0  0  0  0
  2 14  2  0  0  0  0
  2 18  1  0  0  0  0
  2 39  1  0  0  0  0
  3  5  1  0  0  0  0
  3 19  2  0  0  0  0
  3 20  1  0  0  0  0
  4 20  2  0  0  0  0
  4 21  1  0  0  0  0
  4 40  1  0  0  0  0
  5 31  2  0  0  0  0
  5 33  1  0  0  0  0
  6 15  1  0  0  0  0
  6 26  1  0  0  0  0
  6 27  2  0  0  0  0
  7 26  1  0  0  0  0
  7 28  1  0  0  0  0
  7 41  1  0  0  0  0
  7 42  1  0  0  0  0
  8  9  1  0  0  0  0
  8 12  2  0  0  0  0
  9 10  1  0  0  0  0
 10 11  2  0  0  0  0
 10 15  1  0  0  0  0
 11 12  1  0  0  0  0
 11 14  1  0  0  0  0
 12 13  1  0  0  0  0
 13 19  1  0  0  0  0
 13 21  2  0  0  0  0
 14 16  1  0  0  0  0
 15 43  1  0  0  0  0
 16 44  1  0  0  0  0
 17 18  2  0  0  0  0
 17 24  1  0  0  0  0
 18 45  1  0  0  0  0
 19 46  1  0  0  0  0
 20 23  1  0  0  0  0
 21 22  1  0  0  0  0
 22 47  1  0  0  0  0
 23 48  1  0  0  0  0
 24 25  1  0  0  0  0
 25 49  1  0  0  0  0
 25 50  1  0  0  0  0
 25 51  1  0  0  0  0
 26 28  1  0  0  0  0
 26 52  1  0  0  0  0
 28 53  1  0  0  0  0
 28 54  1  0  0  0  0
 29 30  2  0  0  0  0
 29 32  1  0  0  0  0
 29 55  1  0  0  0  0
 30 31  1  0  0  0  0
 31 56  1  0  0  0  0
 32 33  2  0  0  0  0
 32 37  1  0  0  0  0
 33 34  1  0  0  0  0
 34 35  2  0  0  0  0
 34 57  1  0  0  0  0
 35 36  1  0  0  0  0
 35 58  1  0  0  0  0
 36 37  2  0  0  0  0
 36 59  1  0  0  0  0
 37 60  1  0  0  0  0
M  END
$$$$
