@<TRIPOS>MOLECULE
5CF0_FJS_A_301
 60 65 0 0 0
SMALL
USER_CHARGES

@<TRIPOS>ATOM
      1 C          -4.1622   -7.2394  -23.4830 C.ar    1  LIG1       -0.0194
      2 C          -1.5270   -7.8971  -24.0789 C.ar    1  LIG1       -0.0503
      3 C          -2.0990  -11.8968  -24.7525 C.ar    1  LIG1        0.0264
      4 C           0.3037  -12.2616  -24.8923 C.ar    1  LIG1        0.0226
      5 C          -3.5060  -12.0618  -25.1530 C.ar    1  LIG1        0.0114
      6 C          -1.5072   -6.0920  -20.3226 C.2     1  LIG1        0.2225
      7 C          -3.5987   -4.6301  -20.0073 C.3     1  LIG1       -0.0412
      8 N           0.2497  -10.2982  -20.8572 N.ar    1  LIG1       -0.0753
      9 O          -0.0702   -9.3016  -19.9404 O.2     1  LIG1       -0.3381
     10 C          -0.8819   -8.3744  -20.5256 C.ar    1  LIG1        0.2323
     11 C          -1.1391   -8.7622  -21.8213 C.ar    1  LIG1        0.0716
     12 C          -0.4728  -10.0171  -21.9501 C.ar    1  LIG1        0.1265
     13 C          -0.5870  -10.9230  -23.0835 C.ar    1  LIG1        0.0465
     14 C          -2.0147   -8.1194  -22.7865 C.ar    1  LIG1       -0.0106
     15 N          -1.2865   -7.3181  -19.7455 N.am    1  LIG1       -0.2535
     16 C          -3.3481   -7.8087  -22.4965 C.ar    1  LIG1       -0.0503
     17 C          -3.6628   -7.0063  -24.7686 C.ar    1  LIG1        0.1201
     18 C          -2.3438   -7.3450  -25.0598 C.ar    1  LIG1       -0.0194
     19 C          -1.8733  -11.1542  -23.5912 C.ar    1  LIG1       -0.0377
     20 C          -0.9894  -12.4394  -25.4023 C.ar    1  LIG1        0.1281
     21 C           0.5014  -11.5006  -23.7330 C.ar    1  LIG1        0.1296
     22 O           1.7842  -11.3305  -23.2990 O.3     1  LIG1       -0.5060
     23 O          -1.1813  -13.1684  -26.5486 O.3     1  LIG1       -0.5060
     24 O          -4.5341   -6.4418  -25.6618 O.3     1  LIG1       -0.4951
     25 C          -4.0987   -6.4397  -27.0200 C.3     1  LIG1        0.0788
     26 C          -2.2655   -5.1234  -19.4762 C.3     1  LIG1        0.0360
     27 O          -1.1464   -5.7499  -21.4386 O.2     1  LIG1       -0.2751
     28 C          -2.4203   -3.7006  -19.9783 C.3     1  LIG1       -0.0412
     29 C          -6.1998  -12.0942  -25.7173 C.ar    1  LIG1        0.0353
     30 N          -5.4928  -10.9986  -26.0825 N.ar    1  LIG1       -0.2620
     31 C          -4.1784  -11.0084  -25.7804 C.ar    1  LIG1        0.0360
     32 C          -5.6571  -13.2007  -25.0492 C.ar    1  LIG1        0.0008
     33 C          -4.2838  -13.1771  -24.7497 C.ar    1  LIG1       -0.0072
     34 C          -3.7470  -14.2648  -24.0214 C.ar    1  LIG1       -0.0534
     35 C          -4.5359  -15.3525  -23.6358 C.ar    1  LIG1       -0.0611
     36 C          -5.8843  -15.3698  -23.9653 C.ar    1  LIG1       -0.0611
     37 C          -6.4509  -14.3003  -24.6575 C.ar    1  LIG1       -0.0526
     38 H          -5.1931   -6.9845  -23.2501 H       1  LIG1        0.0654
     39 H          -0.5066   -8.1645  -24.3435 H       1  LIG1        0.0625
     40 H           1.1668  -12.6995  -25.3842 H       1  LIG1        0.0691
     41 H          -4.4133   -4.4122  -19.3280 H       1  LIG1        0.0273
     42 H          -3.9252   -5.0125  -20.9701 H       1  LIG1        0.0273
     43 H          -1.2892   -7.4309  -18.7443 H       1  LIG1        0.1578
     44 H          -3.7668   -8.0088  -21.5136 H       1  LIG1        0.0625
     45 H          -1.9093   -7.1875  -26.0398 H       1  LIG1        0.0654
     46 H          -2.7388  -10.7257  -23.0865 H       1  LIG1        0.0632
     47 H           1.7569  -10.8753  -22.4344 H       1  LIG1        0.2922
     48 H          -0.3163  -13.4540  -26.8906 H       1  LIG1        0.2922
     49 H          -4.8690   -5.9641  -27.6309 H       1  LIG1        0.0660
     50 H          -3.9613   -7.4657  -27.3809 H       1  LIG1        0.0660
     51 H          -3.1800   -5.8549  -27.1460 H       1  LIG1        0.0660
     52 H          -2.1678   -5.2575  -18.4045 H       1  LIG1        0.0394
     53 H          -2.4445   -2.8794  -19.2754 H       1  LIG1        0.0273
     54 H          -1.9330   -3.4502  -20.9165 H       1  LIG1        0.0273
     55 H          -7.2521  -12.0508  -25.9697 H       1  LIG1        0.0836
     56 H          -3.6529  -10.0873  -26.0263 H       1  LIG1        0.0836
     57 H          -2.6985  -14.2745  -23.7396 H       1  LIG1        0.0624
     58 H          -4.0890  -16.1745  -23.0918 H       1  LIG1        0.0618
     59 H          -6.5001  -16.2206  -23.6750 H       1  LIG1        0.0618
     60 H          -7.5143  -14.3244  -24.8850 H       1  LIG1        0.0624
@<TRIPOS>BOND
     1     1    16   ar
     2     1    17   ar
     3     1    38    1
     4     2    14   ar
     5     2    18   ar
     6     2    39    1
     7     3     5    1
     8     3    19   ar
     9     3    20   ar
    10     4    20   ar
    11     4    21   ar
    12     4    40    1
    13     5    31   ar
    14     5    33   ar
    15     6    15   am
    16     6    26    1
    17     6    27    2
    18     7    26    1
    19     7    28    1
    20     7    41    1
    21     7    42    1
    22     8     9   ar
    23     8    12   ar
    24     9    10   ar
    25    10    11   ar
    26    10    15    1
    27    11    12   ar
    28    11    14    1
    29    12    13    1
    30    13    19   ar
    31    13    21   ar
    32    14    16   ar
    33    15    43    1
    34    16    44    1
    35    17    18   ar
    36    17    24    1
    37    18    45    1
    38    19    46    1
    39    20    23    1
    40    21    22    1
    41    22    47    1
    42    23    48    1
    43    24    25    1
    44    25    49    1
    45    25    50    1
    46    25    51    1
    47    26    28    1
    48    26    52    1
    49    28    53    1
    50    28    54    1
    51    29    30   ar
    52    29    32   ar
    53    29    55    1
    54    30    31   ar
    55    31    56    1
    56    32    33   ar
    57    32    37   ar
    58    33    34   ar
    59    34    35   ar
    60    34    57    1
    61    35    36   ar
    62    35    58    1
    63    36    37   ar
    64    36    59    1
    65    37    60    1
