@<TRIPOS>MOLECULE
3R4O_FU3_A_901
 55 58 0 0 0
SMALL
USER_CHARGES

@<TRIPOS>ATOM
      1 C           2.6517  -32.4802   52.0683 C.ar    1  LIG1       -0.0009
      2 C           2.6101  -30.2397   51.1455 C.ar    1  LIG1       -0.0242
      3 C          -4.7888  -37.4965   46.1153 C.3     1  LIG1       -0.0497
      4 C          -3.5644  -37.3600   47.0460 C.3     1  LIG1       -0.0344
      5 C          -4.1294  -36.4068   45.2367 C.3     1  LIG1       -0.0344
      6 C           0.4511  -33.4983   48.2276 C.3     1  LIG1        0.0454
      7 C           0.6937  -34.5171   46.0403 C.3     1  LIG1        0.0591
      8 C           2.7607  -36.6753   50.7769 C.3     1  LIG1       -0.0105
      9 C           1.4972  -36.7551   49.9146 C.3     1  LIG1        0.0459
     10 C           2.8308  -35.3321   51.5172 C.3     1  LIG1        0.0899
     11 C           2.5433  -31.0999   52.2374 C.ar    1  LIG1        0.0458
     12 C           2.8176  -33.0053   50.7859 C.ar    1  LIG1        0.1324
     13 C           2.7767  -30.7618   49.8612 C.ar    1  LIG1        0.0550
     14 C           1.8305  -33.3171   47.7264 C.ar    1  LIG1        0.0190
     15 C           1.9863  -33.8728   46.4766 C.ar    1  LIG1        0.0689
     16 C           2.8717  -32.1504   49.6509 C.ar    1  LIG1        0.0608
     17 C           2.9245  -32.7243   48.2940 C.ar    1  LIG1        0.0859
     18 C           4.1527  -33.2396   46.4105 C.ar    1  LIG1        0.2134
     19 C          -3.4539  -35.9022   46.5334 C.3     1  LIG1        0.0246
     20 C          -1.4714  -34.7232   47.4067 C.2     1  LIG1        0.3030
     21 C           1.5178  -37.8720   48.8999 C.3     1  LIG1        0.3903
     22 N           5.3514  -33.2018   45.7519 N.pl3   1  LIG1       -0.3275
     23 N           3.1340  -33.8468   45.7861 N.ar    1  LIG1       -0.2177
     24 N           4.1025  -32.6770   47.6340 N.ar    1  LIG1       -0.2142
     25 N          -2.0735  -35.4091   46.3880 N.am    1  LIG1       -0.2964
     26 N          -0.1996  -34.2888   47.1872 N.am    1  LIG1       -0.2754
     27 O          -2.0421  -34.5131   48.4769 O.2     1  LIG1       -0.2526
     28 O           2.9214  -34.3372   50.5001 O.3     1  LIG1       -0.4912
     29 F           1.6264  -39.0791   49.4915 F       1  LIG1       -0.1708
     30 F           0.3764  -37.8643   48.1732 F       1  LIG1       -0.1708
     31 F           2.5441  -37.7284   48.0365 F       1  LIG1       -0.1708
     32 CL          2.3139  -30.4470   53.8140 Cl      1  LIG1       -0.0834
     33 CL          2.7983  -29.6355   48.5460 Cl      1  LIG1       -0.0827
     34 H           2.5936  -33.1210   52.9430 H       1  LIG1        0.0669
     35 H           2.5175  -29.1660   51.2903 H       1  LIG1        0.0647
     36 H          -5.7312  -37.1821   46.5806 H       1  LIG1        0.0266
     37 H          -4.9312  -38.4725   45.6467 H       1  LIG1        0.0266
     38 H          -2.7266  -38.0099   46.7652 H       1  LIG1        0.0283
     39 H          -3.7639  -37.4786   48.1141 H       1  LIG1        0.0283
     40 H          -4.8226  -35.7089   44.7595 H       1  LIG1        0.0283
     41 H          -3.4442  -36.8059   44.4816 H       1  LIG1        0.0283
     42 H          -0.0720  -32.5449   48.3362 H       1  LIG1        0.0516
     43 H           0.4093  -34.0409   49.1758 H       1  LIG1        0.0516
     44 H           0.8075  -35.5933   45.8779 H       1  LIG1        0.0530
     45 H           0.2753  -34.0282   45.1569 H       1  LIG1        0.0530
     46 H           3.6415  -36.7622   50.1274 H       1  LIG1        0.0301
     47 H           2.7853  -37.5073   51.4878 H       1  LIG1        0.0301
     48 H           1.3834  -35.8353   49.3485 H       1  LIG1        0.0353
     49 H           0.6160  -36.8484   50.5583 H       1  LIG1        0.0353
     50 H           3.7260  -35.2989   52.1474 H       1  LIG1        0.0696
     51 H           1.9340  -35.1988   52.1333 H       1  LIG1        0.0696
     52 H          -4.0906  -35.1961   47.0821 H       1  LIG1        0.0499
     53 H           6.0980  -32.6779   46.1710 H       1  LIG1        0.1452
     54 H           5.3780  -33.5472   44.8076 H       1  LIG1        0.1452
     55 H          -1.5616  -35.5489   45.5314 H       1  LIG1        0.1505
@<TRIPOS>BOND
     1     1    11   ar
     2     1    12   ar
     3     1    34    1
     4     2    11   ar
     5     2    13   ar
     6     2    35    1
     7     3     4    1
     8     3     5    1
     9     3    36    1
    10     3    37    1
    11     4    19    1
    12     4    38    1
    13     4    39    1
    14     5    19    1
    15     5    40    1
    16     5    41    1
    17     6    14    1
    18     6    26    1
    19     6    42    1
    20     6    43    1
    21     7    15    1
    22     7    26    1
    23     7    44    1
    24     7    45    1
    25     8     9    1
    26     8    10    1
    27     8    46    1
    28     8    47    1
    29     9    21    1
    30     9    48    1
    31     9    49    1
    32    10    28    1
    33    10    50    1
    34    10    51    1
    35    11    32    1
    36    12    16   ar
    37    12    28    1
    38    13    16   ar
    39    13    33    1
    40    14    15   ar
    41    14    17   ar
    42    15    23   ar
    43    16    17    1
    44    17    24   ar
    45    18    22    1
    46    18    23   ar
    47    18    24   ar
    48    19    25    1
    49    19    52    1
    50    20    25   am
    51    20    26   am
    52    20    27    2
    53    21    29    1
    54    21    30    1
    55    21    31    1
    56    22    53    1
    57    22    54    1
    58    25    55    1
