REMARK  8 active torsions:
REMARK  status: ('A' for Active; 'I' for Inactive)
REMARK    1  A    between atoms: C_8  and  C_9 
REMARK    2  A    between atoms: C_8  and  C_10 
REMARK    3  A    between atoms: C_9  and  C_21 
REMARK    4  A    between atoms: C_10  and  O_28 
REMARK    5  A    between atoms: C_12  and  O_28 
REMARK    6  A    between atoms: C_16  and  C_17 
REMARK    7  A    between atoms: C_18  and  N_22 
REMARK    8  A    between atoms: C_19  and  N_25 
REMARK       I    between atoms: C_20  and  N_25 
REMARK       I    between atoms: C_20  and  N_26 
ROOT
ATOM      1  C   LIG d   1       0.451 -33.498  48.228  0.00  0.00     0.149 A 
ATOM      2  C   LIG d   1       0.694 -34.517  46.040  0.00  0.00     0.165 A 
ATOM      3  C   LIG d   1       1.831 -33.317  47.726  0.00  0.00     0.019 A 
ATOM      4  C   LIG d   1       1.986 -33.873  46.477  0.00  0.00     0.069 A 
ATOM      5  C   LIG d   1       2.925 -32.724  48.294  0.00  0.00     0.086 A 
ATOM      6  C   LIG d   1       4.153 -33.240  46.410  0.00  0.00     0.213 A 
ATOM      7  C   LIG d   1      -1.471 -34.723  47.407  0.00  0.00     0.303 C 
ATOM      8  N   LIG d   1       3.134 -33.847  45.786  0.00  0.00    -0.218 NA
ATOM      9  N   LIG d   1       4.103 -32.677  47.634  0.00  0.00    -0.214 NA
ATOM     10  N   LIG d   1      -2.074 -35.409  46.388  0.00  0.00    -0.296 N 
ATOM     11  N   LIG d   1      -0.200 -34.289  47.187  0.00  0.00    -0.275 N 
ATOM     12  O   LIG d   1      -2.042 -34.513  48.477  0.00  0.00    -0.253 OA
ATOM     13  H   LIG d   1      -1.562 -35.549  45.531  0.00  0.00     0.150 HD
ENDROOT
BRANCH   5  14
ATOM     14  C   LIG d   1       2.872 -32.150  49.651  0.00  0.00     0.061 A 
ATOM     15  C   LIG d   1       2.818 -33.005  50.786  0.00  0.00     0.132 A 
ATOM     16  C   LIG d   1       2.652 -32.480  52.068  0.00  0.00     0.066 A 
ATOM     17  C   LIG d   1       2.543 -31.100  52.237  0.00  0.00     0.046 A 
ATOM     18  C   LIG d   1       2.610 -30.240  51.145  0.00  0.00     0.040 A 
ATOM     19 CL   LIG d   1       2.314 -30.447  53.814  0.00  0.00    -0.083 Cl
ATOM     20  C   LIG d   1       2.777 -30.762  49.861  0.00  0.00     0.055 A 
ATOM     21 CL   LIG d   1       2.798 -29.636  48.546  0.00  0.00    -0.083 Cl
BRANCH  15  22
ATOM     22  O   LIG d   1       2.921 -34.337  50.500  0.00  0.00    -0.491 OA
BRANCH  22  23
ATOM     23  C   LIG d   1       2.831 -35.332  51.517  0.00  0.00     0.229 C 
BRANCH  23  24
ATOM     24  C   LIG d   1       2.761 -36.675  50.777  0.00  0.00     0.050 C 
BRANCH  24  25
ATOM     25  C   LIG d   1       1.497 -36.755  49.915  0.00  0.00     0.116 C 
BRANCH  25  26
ATOM     26  C   LIG d   1       1.518 -37.872  48.900  0.00  0.00     0.390 C 
ATOM     27  F   LIG d   1       1.626 -39.079  49.492  0.00  0.00    -0.171 F 
ATOM     28  F   LIG d   1       0.376 -37.864  48.173  0.00  0.00    -0.171 F 
ATOM     29  F   LIG d   1       2.544 -37.728  48.036  0.00  0.00    -0.171 F 
ENDBRANCH  25  26
ENDBRANCH  24  25
ENDBRANCH  23  24
ENDBRANCH  22  23
ENDBRANCH  15  22
ENDBRANCH   5  14
BRANCH   6  30
ATOM     30  N   LIG d   1       5.351 -33.202  45.752  0.00  0.00    -0.328 N 
ATOM     31  H   LIG d   1       6.098 -32.678  46.171  0.00  0.00     0.145 HD
ATOM     32  H   LIG d   1       5.378 -33.547  44.808  0.00  0.00     0.145 HD
ENDBRANCH   6  30
BRANCH  10  33
ATOM     33  C   LIG d   1      -3.454 -35.902  46.533  0.00  0.00     0.074 C 
ATOM     34  C   LIG d   1      -3.564 -37.360  47.046  0.00  0.00     0.022 C 
ATOM     35  C   LIG d   1      -4.789 -37.496  46.115  0.00  0.00     0.003 C 
ATOM     36  C   LIG d   1      -4.129 -36.407  45.237  0.00  0.00     0.022 C 
ENDBRANCH  10  33
TORSDOF 8
