@<TRIPOS>MOLECULE
3R4N_FU5_A_901
 38 39 0 0 0
SMALL
USER_CHARGES

@<TRIPOS>ATOM
      1 C          13.7500   -1.4238   51.4553 C.ar    1  LIG1        0.0604
      2 C          15.0999   -1.6078   50.8168 C.ar    1  LIG1        0.0812
      3 C          13.5846   -1.6330   52.8741 C.ar    1  LIG1        0.1310
      4 C          12.6011   -1.1078   50.6910 C.ar    1  LIG1        0.0536
      5 C          15.6525   -2.8729   50.7653 C.ar    1  LIG1       -0.0143
      6 N          15.7409   -0.5229   50.3084 N.ar    1  LIG1       -0.2145
      7 C          12.3174   -1.5002   53.4790 C.ar    1  LIG1       -0.0192
      8 O          14.7744   -1.9421   53.5290 O.3     1  LIG1       -0.4913
      9 C          11.3411   -0.9850   51.3102 C.ar    1  LIG1       -0.0425
     10 CL         12.6929   -0.8539   48.9647 Cl      1  LIG1       -0.0827
     11 C          16.8920   -2.9770   50.1802 C.ar    1  LIG1        0.0439
     12 C          16.9645   -0.7014   49.7351 C.ar    1  LIG1        0.2133
     13 C          11.1926   -1.1754   52.6884 C.ar    1  LIG1       -0.0569
     14 C          14.8401   -2.1651   54.9244 C.3     1  LIG1        0.0899
     15 N          17.5521   -1.9114   49.6653 N.ar    1  LIG1       -0.2199
     16 C          17.5415   -4.3388   50.1153 C.3     1  LIG1       -0.0222
     17 N          17.6363    0.3756   49.2157 N.pl3   1  LIG1       -0.3275
     18 C          16.3051   -2.4932   55.2840 C.3     1  LIG1       -0.0105
     19 C          16.8537   -3.6106   54.3921 C.3     1  LIG1        0.0459
     20 C          18.2915   -3.9857   54.6651 C.3     1  LIG1        0.3903
     21 F          18.4795   -4.3081   55.9639 F       1  LIG1       -0.1708
     22 F          18.6451   -5.0624   53.9191 F       1  LIG1       -0.1708
     23 F          19.1313   -2.9771   54.3534 F       1  LIG1       -0.1708
     24 H          15.1388   -3.7358   51.1790 H       1  LIG1        0.0657
     25 H          12.1740   -1.6371   54.5540 H       1  LIG1        0.0654
     26 H          10.4595   -0.7244   50.6967 H       1  LIG1        0.0632
     27 H          10.2028   -1.0712   53.1469 H       1  LIG1        0.0619
     28 H          14.2135   -3.0172   55.1925 H       1  LIG1        0.0696
     29 H          14.5287   -1.2658   55.4558 H       1  LIG1        0.0696
     30 H          16.8995   -5.1081   50.5693 H       1  LIG1        0.0293
     31 H          18.4933   -4.3323   50.6574 H       1  LIG1        0.0293
     32 H          17.7233   -4.6233   49.0732 H       1  LIG1        0.0293
     33 H          18.5496    0.2559   48.7901 H       1  LIG1        0.1452
     34 H          17.2309    1.3008   49.2467 H       1  LIG1        0.1452
     35 H          16.3483   -2.7985   56.3349 H       1  LIG1        0.0301
     36 H          16.9207   -1.5925   55.1619 H       1  LIG1        0.0301
     37 H          16.7776   -3.2932   53.3476 H       1  LIG1        0.0353
     38 H          16.2226   -4.4961   54.5237 H       1  LIG1        0.0353
@<TRIPOS>BOND
     1     1     2    1
     2     1     3   ar
     3     1     4   ar
     4     2     5   ar
     5     2     6   ar
     6     3     7   ar
     7     3     8    1
     8     4     9   ar
     9     4    10    1
    10     5    11   ar
    11     5    24    1
    12     6    12   ar
    13     7    13   ar
    14     7    25    1
    15     8    14    1
    16     9    13   ar
    17     9    26    1
    18    11    15   ar
    19    11    16    1
    20    12    15   ar
    21    12    17    1
    22    13    27    1
    23    14    18    1
    24    14    28    1
    25    14    29    1
    26    16    30    1
    27    16    31    1
    28    16    32    1
    29    17    33    1
    30    17    34    1
    31    18    19    1
    32    18    35    1
    33    18    36    1
    34    19    20    1
    35    19    37    1
    36    19    38    1
    37    20    21    1
    38    20    22    1
    39    20    23    1
