@<TRIPOS>MOLECULE
3R4P_FU7_A_901
 55 58 0 0 0
SMALL
USER_CHARGES

@<TRIPOS>ATOM
      1 C          13.8016   -1.0626   51.6599 C.ar    1  LIG1        0.0608
      2 F          17.6736   -7.7640   54.3519 F       1  LIG1       -0.2043
      3 N          16.3192   -4.7726   51.4882 N.am    1  LIG1       -0.2754
      4 O          15.2013   -6.4376   52.5850 O.2     1  LIG1       -0.2526
      5 CL         12.8128   -0.7764   49.1035 Cl      1  LIG1       -0.0827
      6 C          13.5738   -1.1521   53.0690 C.ar    1  LIG1        0.1325
      7 F          19.3663   -8.1901   53.0505 F       1  LIG1       -0.2043
      8 N          17.6313   -1.7308   49.9269 N.ar    1  LIG1       -0.2177
      9 O          14.7070   -1.2518   53.8367 O.3     1  LIG1       -0.4894
     10 CL          9.5745   -1.0127   53.3519 Cl      1  LIG1       -0.0834
     11 C          12.2754   -1.1361   53.5815 C.ar    1  LIG1       -0.0009
     12 N          15.7978   -0.2826   50.4557 N.ar    1  LIG1       -0.2142
     13 C          11.1813   -1.0086   52.7229 C.ar    1  LIG1        0.0458
     14 N          17.6634    0.4911   49.2751 N.pl3   1  LIG1       -0.3275
     15 C          11.3739   -0.8739   51.3510 C.ar    1  LIG1       -0.0242
     16 N          17.1960   -6.9287   51.6207 N.am    1  LIG1       -0.2935
     17 C          12.6730   -0.8979   50.8269 C.ar    1  LIG1        0.0550
     18 N          16.9247   -2.3870   55.2241 N.ar    1  LIG1       -0.2682
     19 C          15.7396   -2.5406   51.1557 C.ar    1  LIG1        0.0190
     20 N          16.7956   -3.6936   55.5301 N.ar    1  LIG1       -0.1796
     21 C          15.2546   -3.8095   51.7697 C.3     1  LIG1        0.0454
     22 C          17.4187   -4.1426   50.7351 C.3     1  LIG1        0.0591
     23 C          16.9642   -2.7088   50.5747 C.ar    1  LIG1        0.0689
     24 C          17.0120   -0.5335   49.9095 C.ar    1  LIG1        0.2134
     25 C          15.1507   -1.3015   51.0929 C.ar    1  LIG1        0.0859
     26 C          16.1852   -6.0593   51.9501 C.2     1  LIG1        0.3030
     27 C          14.6285   -1.3908   55.2590 C.3     1  LIG1        0.1090
     28 C          16.0476   -1.4077   55.8409 C.3     1  LIG1        0.0756
     29 C          17.9549   -2.1420   54.3576 C.ar    1  LIG1        0.0256
     30 C          18.5114   -3.3623   54.0688 C.ar    1  LIG1       -0.0242
     31 C          17.7537   -4.2851   54.8103 C.ar    1  LIG1        0.0494
     32 C          17.2126   -8.3194   52.0879 C.3     1  LIG1        0.0762
     33 C          18.0833   -8.5500   53.3277 C.3     1  LIG1        0.2613
     34 C          18.0725   -9.9952   53.7839 C.3     1  LIG1        0.0004
     35 H          12.0753   -1.2352   54.6515 H       1  LIG1        0.0669
     36 H          17.2236    1.3952   49.2202 H       1  LIG1        0.1452
     37 H          18.5575    0.3136   48.8535 H       1  LIG1        0.1452
     38 H          10.5154   -0.7701   50.6889 H       1  LIG1        0.0647
     39 H          18.0260   -6.5800   51.1684 H       1  LIG1        0.1504
     40 H          15.1262   -3.7220   52.8529 H       1  LIG1        0.0516
     41 H          14.3254   -4.1576   51.3052 H       1  LIG1        0.0516
     42 H          17.5398   -4.6566   49.7766 H       1  LIG1        0.0530
     43 H          18.3427   -4.2117   51.3105 H       1  LIG1        0.0530
     44 H          14.0978   -2.3087   55.5381 H       1  LIG1        0.0715
     45 H          14.1024   -0.5266   55.6871 H       1  LIG1        0.0715
     46 H          16.5203   -0.4277   55.7079 H       1  LIG1        0.0542
     47 H          16.0188   -1.6233   56.9161 H       1  LIG1        0.0542
     48 H          18.2035   -1.1465   54.0140 H       1  LIG1        0.0826
     49 H          19.3417   -3.5620   53.4074 H       1  LIG1        0.0648
     50 H          17.8695   -5.3618   54.8477 H       1  LIG1        0.0848
     51 H          17.5912   -8.9272   51.2576 H       1  LIG1        0.0521
     52 H          16.1855   -8.6375   52.3049 H       1  LIG1        0.0521
     53 H          18.7088  -10.1129   54.6672 H       1  LIG1        0.0287
     54 H          18.4581  -10.6607   53.0048 H       1  LIG1        0.0287
     55 H          17.0609  -10.3104   54.0570 H       1  LIG1        0.0287
@<TRIPOS>BOND
     1     1     6   ar
     2     1    17   ar
     3     1    25    1
     4     2    33    1
     5     3    21    1
     6     3    22    1
     7     3    26   am
     8     4    26    2
     9     5    17    1
    10     6     9    1
    11     6    11   ar
    12     7    33    1
    13     8    23   ar
    14     8    24   ar
    15     9    27    1
    16    10    13    1
    17    11    13   ar
    18    11    35    1
    19    12    24   ar
    20    12    25   ar
    21    13    15   ar
    22    14    24    1
    23    14    36    1
    24    14    37    1
    25    15    17   ar
    26    15    38    1
    27    16    26   am
    28    16    32    1
    29    16    39    1
    30    18    20   ar
    31    18    28    1
    32    18    29   ar
    33    19    21    1
    34    19    23   ar
    35    19    25   ar
    36    20    31   ar
    37    21    40    1
    38    21    41    1
    39    22    23    1
    40    22    42    1
    41    22    43    1
    42    27    28    1
    43    27    44    1
    44    27    45    1
    45    28    46    1
    46    28    47    1
    47    29    30   ar
    48    29    48    1
    49    30    31   ar
    50    30    49    1
    51    31    50    1
    52    32    33    1
    53    32    51    1
    54    32    52    1
    55    33    34    1
    56    34    53    1
    57    34    54    1
    58    34    55    1
