REMARK  8 active torsions:
REMARK  status: ('A' for Active; 'I' for Inactive)
REMARK    1  A    between atoms: C_1  and  C_25 
REMARK       I    between atoms: N_3  and  C_26 
REMARK    2  A    between atoms: C_6  and  O_9 
REMARK    3  A    between atoms: O_9  and  C_27 
REMARK    4  A    between atoms: N_14  and  C_24 
REMARK       I    between atoms: N_16  and  C_26 
REMARK    5  A    between atoms: N_16  and  C_32 
REMARK    6  A    between atoms: N_18  and  C_28 
REMARK    7  A    between atoms: C_27  and  C_28 
REMARK    8  A    between atoms: C_32  and  C_33 
ROOT
ATOM      1  N   LIG d   1      16.319  -4.773  51.488  0.00  0.00    -0.275 N 
ATOM      2  O   LIG d   1      15.201  -6.438  52.585  0.00  0.00    -0.253 OA
ATOM      3  N   LIG d   1      17.631  -1.731  49.927  0.00  0.00    -0.218 NA
ATOM      4  N   LIG d   1      15.798  -0.283  50.456  0.00  0.00    -0.214 NA
ATOM      5  N   LIG d   1      17.196  -6.929  51.621  0.00  0.00    -0.293 N 
ATOM      6  C   LIG d   1      15.740  -2.541  51.156  0.00  0.00     0.019 A 
ATOM      7  C   LIG d   1      15.255  -3.809  51.770  0.00  0.00     0.149 A 
ATOM      8  C   LIG d   1      17.419  -4.143  50.735  0.00  0.00     0.165 A 
ATOM      9  C   LIG d   1      16.964  -2.709  50.575  0.00  0.00     0.069 A 
ATOM     10  C   LIG d   1      17.012  -0.533  49.910  0.00  0.00     0.213 A 
ATOM     11  C   LIG d   1      15.151  -1.302  51.093  0.00  0.00     0.086 A 
ATOM     12  C   LIG d   1      16.185  -6.059  51.950  0.00  0.00     0.303 C 
ATOM     13  H   LIG d   1      18.026  -6.580  51.168  0.00  0.00     0.150 HD
ENDROOT
BRANCH  11  14
ATOM     14  C   LIG d   1      13.802  -1.063  51.660  0.00  0.00     0.061 A 
ATOM     15  C   LIG d   1      13.574  -1.152  53.069  0.00  0.00     0.133 A 
ATOM     16  C   LIG d   1      12.275  -1.136  53.581  0.00  0.00     0.066 A 
ATOM     17  C   LIG d   1      11.181  -1.009  52.723  0.00  0.00     0.046 A 
ATOM     18 CL   LIG d   1       9.575  -1.013  53.352  0.00  0.00    -0.083 Cl
ATOM     19  C   LIG d   1      11.374  -0.874  51.351  0.00  0.00     0.040 A 
ATOM     20  C   LIG d   1      12.673  -0.898  50.827  0.00  0.00     0.055 A 
ATOM     21 CL   LIG d   1      12.813  -0.776  49.103  0.00  0.00    -0.083 Cl
BRANCH  15  22
ATOM     22  O   LIG d   1      14.707  -1.252  53.837  0.00  0.00    -0.489 OA
BRANCH  22  23
ATOM     23  C   LIG d   1      14.629  -1.391  55.259  0.00  0.00     0.252 C 
BRANCH  23  24
ATOM     24  C   LIG d   1      16.048  -1.408  55.841  0.00  0.00     0.184 C 
BRANCH  24  25
ATOM     25  N   LIG d   1      16.925  -2.387  55.224  0.00  0.00    -0.268 N 
ATOM     26  N   LIG d   1      16.796  -3.694  55.530  0.00  0.00    -0.180 NA
ATOM     27  C   LIG d   1      17.754  -4.285  54.810  0.00  0.00     0.134 A 
ATOM     28  C   LIG d   1      18.511  -3.362  54.069  0.00  0.00     0.041 A 
ATOM     29  C   LIG d   1      17.955  -2.142  54.358  0.00  0.00     0.108 A 
ENDBRANCH  24  25
ENDBRANCH  23  24
ENDBRANCH  22  23
ENDBRANCH  15  22
ENDBRANCH  11  14
BRANCH  10  30
ATOM     30  N   LIG d   1      17.663   0.491  49.275  0.00  0.00    -0.328 N 
ATOM     31  H   LIG d   1      17.224   1.395  49.220  0.00  0.00     0.145 HD
ATOM     32  H   LIG d   1      18.558   0.314  48.853  0.00  0.00     0.145 HD
ENDBRANCH  10  30
BRANCH   5  33
ATOM     33  C   LIG d   1      17.213  -8.319  52.088  0.00  0.00     0.180 C 
BRANCH  33  34
ATOM     34  C   LIG d   1      18.083  -8.550  53.328  0.00  0.00     0.261 C 
ATOM     35  F   LIG d   1      17.674  -7.764  54.352  0.00  0.00    -0.204 F 
ATOM     36  F   LIG d   1      19.366  -8.190  53.050  0.00  0.00    -0.204 F 
ATOM     37  C   LIG d   1      18.073  -9.995  53.784  0.00  0.00     0.087 C 
ENDBRANCH  33  34
ENDBRANCH   5  33
TORSDOF 8
