@<TRIPOS>MOLECULE
4CWS_G3R_A_1224
 46 50 0 0 0
SMALL
USER_CHARGES

@<TRIPOS>ATOM
      1 O           4.6981    6.4566   32.0698 O.3     1  LIG1       -0.3935
      2 C           5.0728    6.3031   30.7055 C.3     1  LIG1        0.0596
      3 C           4.4773    7.4282   29.8658 C.3     1  LIG1        0.0323
      4 N           3.0358    7.2434   29.6852 N.pl3   1  LIG1       -0.3416
      5 C           2.3390    8.0696   28.8164 C.ar    1  LIG1        0.0292
      6 C           0.9838    8.3716   29.0184 C.ar    1  LIG1       -0.0401
      7 C           0.2761    9.1905   28.1252 C.ar    1  LIG1       -0.0473
      8 C           2.9640    8.6148   27.7001 C.ar    1  LIG1       -0.0147
      9 C           2.2784    9.3990   26.7860 C.ar    1  LIG1        0.0783
     10 C           0.9249    9.6972   27.0040 C.ar    1  LIG1        0.0448
     11 N           2.9996    9.8433   25.6601 N.ar    1  LIG1       -0.2314
     12 C           2.3839   10.5783   24.7786 C.ar    1  LIG1        0.1378
     13 N           1.0370   10.9330   24.9303 N.ar    1  LIG1       -0.1963
     14 N           0.3066   11.6879   24.0901 N.ar    1  LIG1       -0.1276
     15 C           0.2930   10.5182   26.0011 C.ar    1  LIG1        0.1688
     16 N          -0.9361   10.9935   25.8797 N.ar    1  LIG1       -0.1936
     17 C          -0.8716   11.6860   24.7084 C.ar    1  LIG1        0.2328
     18 N          -1.9684   12.2902   24.2715 N.pl3   1  LIG1       -0.3262
     19 C           3.1004   11.1300   23.5850 C.3     1  LIG1        0.0327
     20 C           4.0171   12.2782   23.9558 C.ar    1  LIG1       -0.0364
     21 C           3.4769   13.4544   24.5015 C.ar    1  LIG1       -0.0126
     22 C           4.3377   14.4793   24.8297 C.ar    1  LIG1        0.1665
     23 O           3.9721   15.6724   25.3702 O.3     1  LIG1       -0.4526
     24 C           5.2612   16.2926   25.5475 C.3     1  LIG1        0.2332
     25 O           6.3505   15.5114   25.0093 O.3     1  LIG1       -0.4526
     26 C           5.6926   14.3826   24.6271 C.ar    1  LIG1        0.1662
     27 C           6.2627   13.2456   24.0934 C.ar    1  LIG1       -0.0159
     28 C           5.4143   12.1812   23.7618 C.ar    1  LIG1       -0.0545
     29 H           5.1339    5.7409   32.5626 H       1  LIG1        0.2095
     30 H           4.7260    5.3279   30.3502 H       1  LIG1        0.0573
     31 H           6.1650    6.3390   30.6361 H       1  LIG1        0.0573
     32 H           4.9872    7.3881   28.8989 H       1  LIG1        0.0484
     33 H           4.6800    8.3990   30.3340 H       1  LIG1        0.0484
     34 H           2.5348    6.7758   30.4348 H       1  LIG1        0.1461
     35 H           0.4639    7.9816   29.8927 H       1  LIG1        0.0636
     36 H          -0.7703    9.4207   28.3010 H       1  LIG1        0.0626
     37 H           4.0064    8.4101   27.4716 H       1  LIG1        0.0657
     38 H          -2.8211   12.2835   24.8108 H       1  LIG1        0.1452
     39 H          -1.9522   12.8443   23.4267 H       1  LIG1        0.1452
     40 H           2.4271   11.4385   22.7781 H       1  LIG1        0.0392
     41 H           3.7007   10.3035   23.1784 H       1  LIG1        0.0392
     42 H           2.4124   13.5690   24.6721 H       1  LIG1        0.0658
     43 H           5.4317   16.4400   26.6209 H       1  LIG1        0.1166
     44 H           5.2492   17.2762   25.0629 H       1  LIG1        0.1166
     45 H           7.3335   13.1738   23.9382 H       1  LIG1        0.0655
     46 H           5.8485   11.2685   23.3552 H       1  LIG1        0.0622
@<TRIPOS>BOND
     1     1     2    1
     2     1    29    1
     3     2     3    1
     4     2    30    1
     5     2    31    1
     6     3     4    1
     7     3    32    1
     8     3    33    1
     9     4     5    1
    10     4    34    1
    11     5     6   ar
    12     5     8   ar
    13     6     7   ar
    14     6    35    1
    15     7    10   ar
    16     7    36    1
    17     8     9   ar
    18     8    37    1
    19     9    10   ar
    20     9    11   ar
    21    10    15   ar
    22    11    12   ar
    23    12    13   ar
    24    12    19    1
    25    13    14   ar
    26    13    15   ar
    27    14    17   ar
    28    15    16   ar
    29    16    17   ar
    30    17    18    1
    31    18    38    1
    32    18    39    1
    33    19    20    1
    34    19    40    1
    35    19    41    1
    36    20    21   ar
    37    20    28   ar
    38    21    22   ar
    39    21    42    1
    40    22    23    1
    41    22    26   ar
    42    23    24    1
    43    24    25    1
    44    24    43    1
    45    24    44    1
    46    25    26    1
    47    26    27   ar
    48    27    28   ar
    49    27    45    1
    50    28    46    1
