REMARK  7 active torsions:
REMARK  status: ('A' for Active; 'I' for Inactive)
REMARK    1  A    between atoms: O_1  and  C_2 
REMARK    2  A    between atoms: C_2  and  C_3 
REMARK    3  A    between atoms: C_3  and  N_4 
REMARK    4  A    between atoms: N_4  and  C_5 
REMARK    5  A    between atoms: C_12  and  C_19 
REMARK    6  A    between atoms: C_17  and  N_18 
REMARK    7  A    between atoms: C_19  and  C_20 
ROOT
ATOM      1  C   LIG d   1       2.339   8.070  28.816  0.00  0.00     0.029 A 
ATOM      2  C   LIG d   1       0.984   8.372  29.018  0.00  0.00     0.024 A 
ATOM      3  C   LIG d   1       0.276   9.191  28.125  0.00  0.00     0.015 A 
ATOM      4  C   LIG d   1       2.964   8.615  27.700  0.00  0.00     0.051 A 
ATOM      5  C   LIG d   1       2.278   9.399  26.786  0.00  0.00     0.078 A 
ATOM      6  C   LIG d   1       0.925   9.697  27.004  0.00  0.00     0.045 A 
ATOM      7  N   LIG d   1       3.000   9.843  25.660  0.00  0.00    -0.231 NA
ATOM      8  C   LIG d   1       2.384  10.578  24.779  0.00  0.00     0.138 A 
ATOM      9  N   LIG d   1       1.037  10.933  24.930  0.00  0.00    -0.196 N 
ATOM     10  N   LIG d   1       0.307  11.688  24.090  0.00  0.00    -0.128 NA
ATOM     11  C   LIG d   1       0.293  10.518  26.001  0.00  0.00     0.169 A 
ATOM     12  N   LIG d   1      -0.936  10.993  25.880  0.00  0.00    -0.194 NA
ATOM     13  C   LIG d   1      -0.872  11.686  24.708  0.00  0.00     0.233 A 
ENDROOT
BRANCH   8  14
ATOM     14  C   LIG d   1       3.100  11.130  23.585  0.00  0.00     0.111 C 
BRANCH  14  15
ATOM     15  C   LIG d   1       4.017  12.278  23.956  0.00  0.00    -0.036 A 
ATOM     16  C   LIG d   1       3.477  13.454  24.502  0.00  0.00     0.053 A 
ATOM     17  C   LIG d   1       4.338  14.479  24.830  0.00  0.00     0.167 A 
ATOM     18  O   LIG d   1       3.972  15.672  25.370  0.00  0.00    -0.453 OA
ATOM     19  C   LIG d   1       5.693  14.383  24.627  0.00  0.00     0.166 A 
ATOM     20  C   LIG d   1       5.261  16.293  25.547  0.00  0.00     0.466 A 
ATOM     21  O   LIG d   1       6.351  15.511  25.009  0.00  0.00    -0.453 OA
ATOM     22  C   LIG d   1       6.263  13.246  24.093  0.00  0.00     0.050 A 
ATOM     23  C   LIG d   1       5.414  12.181  23.762  0.00  0.00     0.008 A 
ENDBRANCH  14  15
ENDBRANCH   8  14
BRANCH  13  24
ATOM     24  N   LIG d   1      -1.968  12.290  24.271  0.00  0.00    -0.326 N 
ATOM     25  H   LIG d   1      -2.821  12.284  24.811  0.00  0.00     0.145 HD
ATOM     26  H   LIG d   1      -1.952  12.844  23.427  0.00  0.00     0.145 HD
ENDBRANCH  13  24
BRANCH   1  27
ATOM     27  N   LIG d   1       3.036   7.243  29.685  0.00  0.00    -0.342 N 
ATOM     28  H   LIG d   1       2.535   6.776  30.435  0.00  0.00     0.146 HD
BRANCH  27  29
ATOM     29  C   LIG d   1       4.477   7.428  29.866  0.00  0.00     0.129 C 
BRANCH  29  30
ATOM     30  C   LIG d   1       5.073   6.303  30.706  0.00  0.00     0.174 C 
BRANCH  30  31
ATOM     31  O   LIG d   1       4.698   6.457  32.070  0.00  0.00    -0.394 OA
ATOM     32  H   LIG d   1       5.134   5.741  32.563  0.00  0.00     0.209 HD
ENDBRANCH  30  31
ENDBRANCH  29  30
ENDBRANCH  27  29
ENDBRANCH   1  27
TORSDOF 7
