1YET_GDM_A_275
 OpenBabel03301716593D

 80 81  0  0  1  0  0  0  0  0999 V2000
   38.4299  -51.0033   68.1492 O   0  0  0  0  0  0  0  0  0  0  0  0
   37.6184  -47.4053   62.6462 O   0  0  0  0  0  0  0  0  0  0  0  0
   37.9648  -44.7001   63.2381 O   0  0  0  0  0  0  0  0  0  0  0  0
   38.9402  -43.2477   61.7417 O   0  0  0  0  0  0  0  0  0  0  0  0
   44.9577  -43.4984   64.4036 O   0  0  0  0  0  0  0  0  0  0  0  0
   45.3970  -46.2845   63.7339 O   0  0  0  0  0  0  0  0  0  0  0  0
   43.2216  -44.8065   68.5295 O   0  0  0  0  0  0  0  0  0  0  0  0
   40.6189  -44.5201   69.2568 O   0  0  0  0  0  0  0  0  0  0  0  0
   42.1452  -49.4590   68.1316 O   0  0  0  0  0  0  0  0  0  0  0  0
   39.5423  -49.1244   68.8120 N   0  0  0  0  0  0  0  0  0  0  0  0
   36.7279  -43.1783   62.2501 N   0  0  0  0  0  0  0  0  0  0  0  0
   39.2566  -50.0908   67.8704 C   0  0  0  0  0  0  0  0  0  0  0  0
   39.8789  -50.0560   66.5082 C   0  0  0  0  0  0  0  0  0  0  0  0
   39.7065  -48.9851   65.7162 C   0  0  0  0  0  0  0  0  0  0  0  0
   40.2836  -48.8024   64.3908 C   0  0  0  0  0  0  0  0  0  0  0  0
   39.8835  -47.9385   63.4531 C   0  0  0  0  0  0  0  0  0  0  0  0
   38.7178  -46.9952   63.5147 C   0  0  1  0  0  0  0  0  0  0  0  0
   39.1530  -45.5143   63.1859 C   0  0  2  0  0  0  0  0  0  0  0  0
   40.2377  -44.9077   64.1095 C   0  0  0  0  0  0  0  0  0  0  0  0
   41.4025  -44.4514   63.5802 C   0  0  0  0  0  0  0  0  0  0  0  0
   42.5541  -43.7848   64.2948 C   0  0  1  0  0  0  0  0  0  0  0  0
   43.9274  -44.3257   63.8509 C   0  0  2  0  0  0  0  0  0  0  0  0
   44.1547  -45.7906   64.2656 C   0  0  2  0  0  0  0  0  0  0  0  0
   44.2033  -45.9769   65.7901 C   0  0  0  0  0  0  0  0  0  0  0  0
   44.3735  -47.4238   66.2878 C   0  0  1  0  0  0  0  0  0  0  0  0
   44.1328  -47.5969   67.8007 C   0  0  0  0  0  0  0  0  0  0  0  0
   42.7718  -47.1892   68.2830 C   0  0  0  0  0  0  0  0  0  0  0  0
   42.4114  -45.9317   68.6052 C   0  0  0  0  0  0  0  0  0  0  0  0
   40.9803  -45.6549   68.9898 C   0  0  0  0  0  0  0  0  0  0  0  0
   40.0072  -46.7890   69.0748 C   0  0  0  0  0  0  0  0  0  0  0  0
   40.3912  -48.0259   68.7356 C   0  0  0  0  0  0  0  0  0  0  0  0
   41.7929  -48.2979   68.3633 C   0  0  0  0  0  0  0  0  0  0  0  0
   40.6553  -51.2804   66.1268 C   0  0  0  0  0  0  0  0  0  0  0  0
   37.8550  -48.5154   61.7775 C   0  0  0  0  0  0  0  0  0  0  0  0
   37.9526  -43.6734   62.3759 C   0  0  0  0  0  0  0  0  0  0  0  0
   39.9382  -44.8165   65.5782 C   0  0  0  0  0  0  0  0  0  0  0  0
   42.4703  -42.2911   63.9860 C   0  0  0  0  0  0  0  0  0  0  0  0
   45.3936  -46.4531   62.3255 C   0  0  0  0  0  0  0  0  0  0  0  0
   43.4580  -48.3473   65.5149 C   0  0  0  0  0  0  0  0  0  0  0  0
   44.5859  -44.8156   68.9348 C   0  0  0  0  0  0  0  0  0  0  0  0
   44.8004  -42.5909   64.1135 H   0  0  0  0  0  0  0  0  0  0  0  0
   39.1705  -49.3507   69.7312 H   0  0  0  0  0  0  0  0  0  0  0  0
   36.5457  -42.4077   61.6275 H   0  0  0  0  0  0  0  0  0  0  0  0
   35.9740  -43.5975   62.7831 H   0  0  0  0  0  0  0  0  0  0  0  0
   39.0943  -48.1783   66.0982 H   0  0  0  0  0  0  0  0  0  0  0  0
   41.1450  -49.4201   64.1391 H   0  0  0  0  0  0  0  0  0  0  0  0
   40.4202  -47.9323   62.5068 H   0  0  0  0  0  0  0  0  0  0  0  0
   38.3475  -47.0172   64.5440 H   0  0  0  0  0  0  0  0  0  0  0  0
   39.5106  -45.5213   62.1392 H   0  0  0  0  0  0  0  0  0  0  0  0
   41.5139  -44.5382   62.5063 H   0  0  0  0  0  0  0  0  0  0  0  0
   42.4858  -43.9559   65.3609 H   0  0  0  0  0  0  0  0  0  0  0  0
   43.9940  -44.2953   62.7614 H   0  0  0  0  0  0  0  0  0  0  0  0
   43.3056  -46.3568   63.8685 H   0  0  0  0  0  0  0  0  0  0  0  0
   45.0413  -45.3918   66.1731 H   0  0  0  0  0  0  0  0  0  0  0  0
   43.2772  -45.5822   66.2008 H   0  0  0  0  0  0  0  0  0  0  0  0
   45.4052  -47.7304   66.0889 H   0  0  0  0  0  0  0  0  0  0  0  0
   44.8921  -47.0687   68.3509 H   0  0  0  0  0  0  0  0  0  0  0  0
   44.3493  -48.6229   68.1073 H   0  0  0  0  0  0  0  0  0  0  0  0
   38.9845  -46.5455   69.3596 H   0  0  0  0  0  0  0  0  0  0  0  0
   40.6399  -52.0195   66.9350 H   0  0  0  0  0  0  0  0  0  0  0  0
   41.6998  -51.0166   65.9296 H   0  0  0  0  0  0  0  0  0  0  0  0
   40.2337  -51.7416   65.2275 H   0  0  0  0  0  0  0  0  0  0  0  0
   36.9721  -48.7274   61.1600 H   0  0  0  0  0  0  0  0  0  0  0  0
   38.0755  -49.4150   62.3625 H   0  0  0  0  0  0  0  0  0  0  0  0
   38.6908  -48.3041   61.1011 H   0  0  0  0  0  0  0  0  0  0  0  0
   38.9556  -45.2416   65.7886 H   0  0  0  0  0  0  0  0  0  0  0  0
   39.9388  -43.7769   65.9314 H   0  0  0  0  0  0  0  0  0  0  0  0
   40.6783  -45.3782   66.1628 H   0  0  0  0  0  0  0  0  0  0  0  0
   42.5466  -42.1110   62.9052 H   0  0  0  0  0  0  0  0  0  0  0  0
   43.2698  -41.7303   64.4798 H   0  0  0  0  0  0  0  0  0  0  0  0
   41.5252  -41.8763   64.3425 H   0  0  0  0  0  0  0  0  0  0  0  0
   46.3738  -46.8115   61.9949 H   0  0  0  0  0  0  0  0  0  0  0  0
   45.1955  -45.5127   61.8086 H   0  0  0  0  0  0  0  0  0  0  0  0
   44.6376  -47.1884   62.0416 H   0  0  0  0  0  0  0  0  0  0  0  0
   42.4184  -48.0604   65.6820 H   0  0  0  0  0  0  0  0  0  0  0  0
   43.6035  -49.3825   65.8293 H   0  0  0  0  0  0  0  0  0  0  0  0
   43.6658  -48.2882   64.4449 H   0  0  0  0  0  0  0  0  0  0  0  0
   45.0336  -43.8325   68.7787 H   0  0  0  0  0  0  0  0  0  0  0  0
   45.2156  -45.4460   68.3193 H   0  0  0  0  0  0  0  0  0  0  0  0
   44.6869  -45.0960   69.9860 H   0  0  0  0  0  0  0  0  0  0  0  0
  1 12  2  0  0  0  0
  2 17  1  0  0  0  0
  2 34  1  0  0  0  0
  3 18  1  0  0  0  0
  3 35  1  0  0  0  0
  4 35  2  0  0  0  0
  5 22  1  0  0  0  0
  5 41  1  0  0  0  0
  6 23  1  0  0  0  0
  6 38  1  0  0  0  0
  7 28  1  0  0  0  0
  7 40  1  0  0  0  0
  8 29  2  0  0  0  0
  9 32  2  0  0  0  0
 10 12  1  0  0  0  0
 10 31  1  0  0  0  0
 10 42  1  0  0  0  0
 11 35  1  0  0  0  0
 11 43  1  0  0  0  0
 11 44  1  0  0  0  0
 12 13  1  0  0  0  0
 13 14  2  0  0  0  0
 13 33  1  0  0  0  0
 14 15  1  0  0  0  0
 14 45  1  0  0  0  0
 15 16  2  0  0  0  0
 15 46  1  0  0  0  0
 16 17  1  0  0  0  0
 16 47  1  0  0  0  0
 17 18  1  0  0  0  0
 17 48  1  1  0  0  0
 18 19  1  0  0  0  0
 18 49  1  6  0  0  0
 19 20  2  0  0  0  0
 19 36  1  0  0  0  0
 20 21  1  0  0  0  0
 20 50  1  0  0  0  0
 21 22  1  0  0  0  0
 21 37  1  0  0  0  0
 21 51  1  1  0  0  0
 22 23  1  0  0  0  0
 22 52  1  6  0  0  0
 23 24  1  0  0  0  0
 23 53  1  6  0  0  0
 24 25  1  0  0  0  0
 24 54  1  0  0  0  0
 24 55  1  0  0  0  0
 25 26  1  0  0  0  0
 25 39  1  0  0  0  0
 25 56  1  6  0  0  0
 26 27  1  0  0  0  0
 26 57  1  0  0  0  0
 26 58  1  0  0  0  0
 27 28  2  0  0  0  0
 27 32  1  0  0  0  0
 28 29  1  0  0  0  0
 29 30  1  0  0  0  0
 30 31  2  0  0  0  0
 30 59  1  0  0  0  0
 31 32  1  0  0  0  0
 33 60  1  0  0  0  0
 33 61  1  0  0  0  0
 33 62  1  0  0  0  0
 34 63  1  0  0  0  0
 34 64  1  0  0  0  0
 34 65  1  0  0  0  0
 36 66  1  0  0  0  0
 36 67  1  0  0  0  0
 36 68  1  0  0  0  0
 37 69  1  0  0  0  0
 37 70  1  0  0  0  0
 37 71  1  0  0  0  0
 38 72  1  0  0  0  0
 38 73  1  0  0  0  0
 38 74  1  0  0  0  0
 39 75  1  0  0  0  0
 39 76  1  0  0  0  0
 39 77  1  0  0  0  0
 40 78  1  0  0  0  0
 40 79  1  0  0  0  0
 40 80  1  0  0  0  0
M  END
$$$$
