REMARK  6 active torsions:
REMARK  status: ('A' for Active; 'I' for Inactive)
REMARK    1  A    between atoms: O_2  and  C_17 
REMARK    2  A    between atoms: O_3  and  C_18 
REMARK    3  A    between atoms: O_3  and  C_35 
REMARK    4  A    between atoms: O_5  and  C_22 
REMARK    5  A    between atoms: O_6  and  C_23 
REMARK    6  A    between atoms: O_7  and  C_28 
REMARK       I    between atoms: N_11  and  C_35 
ROOT
ATOM      1  O   LIG d   1      38.430 -51.003  68.149  0.00  0.00    -0.270 OA
ATOM      2  O   LIG d   1      40.619 -44.520  69.257  0.00  0.00    -0.284 OA
ATOM      3  O   LIG d   1      42.145 -49.459  68.132  0.00  0.00    -0.285 OA
ATOM      4  N   LIG d   1      39.542 -49.124  68.812  0.00  0.00    -0.279 N 
ATOM      5  C   LIG d   1      39.257 -50.091  67.870  0.00  0.00     0.244 C 
ATOM      6  C   LIG d   1      39.879 -50.056  66.508  0.00  0.00     0.011 C 
ATOM      7  C   LIG d   1      39.706 -48.985  65.716  0.00  0.00     0.008 C 
ATOM      8  C   LIG d   1      40.284 -48.802  64.391  0.00  0.00    -0.001 C 
ATOM      9  C   LIG d   1      39.883 -47.938  63.453  0.00  0.00     0.008 C 
ATOM     10  C   LIG d   1      38.718 -46.995  63.515  0.00  0.00     0.186 C 
ATOM     11  C   LIG d   1      39.153 -45.514  63.186  0.00  0.00     0.236 C 
ATOM     12  C   LIG d   1      40.238 -44.908  64.109  0.00  0.00    -0.033 C 
ATOM     13  C   LIG d   1      41.403 -44.451  63.580  0.00  0.00    -0.019 C 
ATOM     14  C   LIG d   1      42.554 -43.785  64.295  0.00  0.00     0.040 C 
ATOM     15  C   LIG d   1      43.927 -44.326  63.851  0.00  0.00     0.150 C 
ATOM     16  C   LIG d   1      44.155 -45.791  64.266  0.00  0.00     0.147 C 
ATOM     17  C   LIG d   1      44.203 -45.977  65.790  0.00  0.00     0.037 C 
ATOM     18  C   LIG d   1      44.373 -47.424  66.288  0.00  0.00    -0.007 C 
ATOM     19  C   LIG d   1      44.133 -47.597  67.801  0.00  0.00     0.046 C 
ATOM     20  C   LIG d   1      42.772 -47.189  68.283  0.00  0.00     0.047 A 
ATOM     21  C   LIG d   1      42.411 -45.932  68.605  0.00  0.00     0.173 A 
ATOM     22  C   LIG d   1      40.980 -45.655  68.990  0.00  0.00     0.223 A 
ATOM     23  C   LIG d   1      40.007 -46.789  69.075  0.00  0.00     0.081 A 
ATOM     24  C   LIG d   1      40.391 -48.026  68.736  0.00  0.00     0.085 A 
ATOM     25  C   LIG d   1      41.793 -48.298  68.363  0.00  0.00     0.207 A 
ATOM     26  C   LIG d   1      40.655 -51.280  66.127  0.00  0.00     0.049 C 
ATOM     27  C   LIG d   1      39.938 -44.816  65.578  0.00  0.00     0.043 C 
ATOM     28  C   LIG d   1      42.470 -42.291  63.986  0.00  0.00     0.014 C 
ATOM     29  C   LIG d   1      43.458 -48.347  65.515  0.00  0.00     0.008 C 
ATOM     30  H   LIG d   1      39.170 -49.351  69.731  0.00  0.00     0.155 HD
ENDROOT
BRANCH  11  31
ATOM     31  O   LIG d   1      37.965 -44.700  63.238  0.00  0.00    -0.440 OA
BRANCH  31  32
ATOM     32  C   LIG d   1      37.953 -43.673  62.376  0.00  0.00     0.398 C 
ATOM     33  O   LIG d   1      38.940 -43.248  61.742  0.00  0.00    -0.227 OA
ATOM     34  N   LIG d   1      36.728 -43.178  62.250  0.00  0.00    -0.295 N 
ATOM     35  H   LIG d   1      36.546 -42.408  61.627  0.00  0.00     0.148 HD
ATOM     36  H   LIG d   1      35.974 -43.597  62.783  0.00  0.00     0.148 HD
ENDBRANCH  31  32
ENDBRANCH  11  31
BRANCH  10  37
ATOM     37  O   LIG d   1      37.618 -47.405  62.646  0.00  0.00    -0.372 OA
ATOM     38  C   LIG d   1      37.855 -48.515  61.778  0.00  0.00     0.195 C 
ENDBRANCH  10  37
BRANCH  15  39
ATOM     39  O   LIG d   1      44.958 -43.498  64.404  0.00  0.00    -0.389 OA
ATOM     40  H   LIG d   1      44.800 -42.591  64.114  0.00  0.00     0.210 HD
ENDBRANCH  15  39
BRANCH  16  41
ATOM     41  O   LIG d   1      45.397 -46.285  63.734  0.00  0.00    -0.377 OA
ATOM     42  C   LIG d   1      45.394 -46.453  62.325  0.00  0.00     0.194 C 
ENDBRANCH  16  41
BRANCH  21  43
ATOM     43  O   LIG d   1      43.222 -44.806  68.529  0.00  0.00    -0.491 OA
ATOM     44  C   LIG d   1      44.586 -44.816  68.935  0.00  0.00     0.277 C 
ENDBRANCH  21  43
TORSDOF 6
