@<TRIPOS>MOLECULE
1YET_GDM_A_275
 80 81 0 0 0
SMALL
USER_CHARGES

@<TRIPOS>ATOM
      1 O          38.4299  -51.0033   68.1492 O.2     1  LIG1       -0.2702
      2 O          37.6184  -47.4053   62.6462 O.3     1  LIG1       -0.3717
      3 O          37.9648  -44.7001   63.2381 O.3     1  LIG1       -0.4398
      4 O          38.9402  -43.2477   61.7417 O.2     1  LIG1       -0.2267
      5 O          44.9577  -43.4984   64.4036 O.3     1  LIG1       -0.3887
      6 O          45.3970  -46.2845   63.7339 O.3     1  LIG1       -0.3772
      7 O          43.2216  -44.8065   68.5295 O.2     1  LIG1       -0.4909
      8 O          40.6189  -44.5201   69.2568 O.2     1  LIG1       -0.2839
      9 O          42.1452  -49.4590   68.1316 O.2     1  LIG1       -0.2855
     10 N          39.5423  -49.1244   68.8120 N.am    1  LIG1       -0.2786
     11 N          36.7279  -43.1783   62.2501 N.am    1  LIG1       -0.2950
     12 C          39.2566  -50.0908   67.8704 C.2     1  LIG1        0.2441
     13 C          39.8789  -50.0560   66.5082 C.2     1  LIG1        0.0115
     14 C          39.7065  -48.9851   65.7162 C.2     1  LIG1       -0.0541
     15 C          40.2836  -48.8024   64.3908 C.2     1  LIG1       -0.0627
     16 C          39.8835  -47.9385   63.4531 C.2     1  LIG1       -0.0518
     17 C          38.7178  -46.9952   63.5147 C.3     1  LIG1        0.1175
     18 C          39.1530  -45.5143   63.1859 C.3     1  LIG1        0.1550
     19 C          40.2377  -44.9077   64.1095 C.2     1  LIG1       -0.0334
     20 C          41.4025  -44.4514   63.5802 C.2     1  LIG1       -0.0761
     21 C          42.5541  -43.7848   64.2948 C.3     1  LIG1        0.0031
     22 C          43.9274  -44.3257   63.8509 C.3     1  LIG1        0.0872
     23 C          44.1547  -45.7906   64.2656 C.3     1  LIG1        0.0849
     24 C          44.2033  -45.9769   65.7901 C.3     1  LIG1       -0.0213
     25 C          44.3735  -47.4238   66.2878 C.3     1  LIG1       -0.0372
     26 C          44.1328  -47.5969   67.8007 C.3     1  LIG1       -0.0177
     27 C          42.7718  -47.1892   68.2830 C.2     1  LIG1        0.0468
     28 C          42.4114  -45.9317   68.6052 C.2     1  LIG1        0.1734
     29 C          40.9803  -45.6549   68.9898 C.2     1  LIG1        0.2225
     30 C          40.0072  -46.7890   69.0748 C.2     1  LIG1        0.0138
     31 C          40.3912  -48.0259   68.7356 C.2     1  LIG1        0.0850
     32 C          41.7929  -48.2979   68.3633 C.2     1  LIG1        0.2069
     33 C          40.6553  -51.2804   66.1268 C.3     1  LIG1       -0.0348
     34 C          37.8550  -48.5154   61.7775 C.3     1  LIG1        0.0374
     35 C          37.9526  -43.6734   62.3759 C.2     1  LIG1        0.3983
     36 C          39.9382  -44.8165   65.5782 C.3     1  LIG1       -0.0402
     37 C          42.4703  -42.2911   63.9860 C.3     1  LIG1       -0.0565
     38 C          45.3936  -46.4531   62.3255 C.3     1  LIG1        0.0369
     39 C          43.4580  -48.3473   65.5149 C.3     1  LIG1       -0.0620
     40 C          44.5859  -44.8156   68.9348 C.3     1  LIG1        0.0790
     41 H          44.8004  -42.5909   64.1135 H       1  LIG1        0.2099
     42 H          39.1705  -49.3507   69.7312 H       1  LIG1        0.1552
     43 H          36.5457  -42.4077   61.6275 H       1  LIG1        0.1482
     44 H          35.9740  -43.5975   62.7831 H       1  LIG1        0.1482
     45 H          39.0943  -48.1783   66.0982 H       1  LIG1        0.0622
     46 H          41.1450  -49.4201   64.1391 H       1  LIG1        0.0615
     47 H          40.4202  -47.9323   62.5068 H       1  LIG1        0.0599
     48 H          38.3475  -47.0172   64.5440 H       1  LIG1        0.0681
     49 H          39.5106  -45.5213   62.1392 H       1  LIG1        0.0812
     50 H          41.5139  -44.5382   62.5063 H       1  LIG1        0.0576
     51 H          42.4858  -43.9559   65.3609 H       1  LIG1        0.0366
     52 H          43.9940  -44.2953   62.7614 H       1  LIG1        0.0625
     53 H          43.3056  -46.3568   63.8685 H       1  LIG1        0.0622
     54 H          45.0413  -45.3918   66.1731 H       1  LIG1        0.0294
     55 H          43.2772  -45.5822   66.2008 H       1  LIG1        0.0294
     56 H          45.4052  -47.7304   66.0889 H       1  LIG1        0.0302
     57 H          44.8921  -47.0687   68.3509 H       1  LIG1        0.0318
     58 H          44.3493  -48.6229   68.1073 H       1  LIG1        0.0318
     59 H          38.9845  -46.5455   69.3596 H       1  LIG1        0.0677
     60 H          40.6399  -52.0195   66.9350 H       1  LIG1        0.0279
     61 H          41.6998  -51.0166   65.9296 H       1  LIG1        0.0279
     62 H          40.2337  -51.7416   65.2275 H       1  LIG1        0.0279
     63 H          36.9721  -48.7274   61.1600 H       1  LIG1        0.0524
     64 H          38.0755  -49.4150   62.3625 H       1  LIG1        0.0524
     65 H          38.6908  -48.3041   61.1011 H       1  LIG1        0.0524
     66 H          38.9556  -45.2416   65.7886 H       1  LIG1        0.0276
     67 H          39.9388  -43.7769   65.9314 H       1  LIG1        0.0276
     68 H          40.6783  -45.3782   66.1628 H       1  LIG1        0.0276
     69 H          42.5466  -42.1110   62.9052 H       1  LIG1        0.0236
     70 H          43.2698  -41.7303   64.4798 H       1  LIG1        0.0236
     71 H          41.5252  -41.8763   64.3425 H       1  LIG1        0.0236
     72 H          46.3738  -46.8115   61.9949 H       1  LIG1        0.0524
     73 H          45.1955  -45.5127   61.8086 H       1  LIG1        0.0524
     74 H          44.6376  -47.1884   62.0416 H       1  LIG1        0.0524
     75 H          42.4184  -48.0604   65.6820 H       1  LIG1        0.0233
     76 H          43.6035  -49.3825   65.8293 H       1  LIG1        0.0233
     77 H          43.6658  -48.2882   64.4449 H       1  LIG1        0.0233
     78 H          45.0336  -43.8325   68.7787 H       1  LIG1        0.0660
     79 H          45.2156  -45.4460   68.3193 H       1  LIG1        0.0660
     80 H          44.6869  -45.0960   69.9860 H       1  LIG1        0.0660
@<TRIPOS>BOND
     1     1    12    2
     2     2    17    1
     3     2    34    1
     4     3    18    1
     5     3    35    1
     6     4    35    2
     7     5    22    1
     8     5    41    1
     9     6    23    1
    10     6    38    1
    11     7    28    1
    12     7    40    1
    13     8    29    2
    14     9    32    2
    15    10    12   am
    16    10    31    1
    17    10    42    1
    18    11    35   am
    19    11    43    1
    20    11    44    1
    21    12    13    1
    22    13    14    2
    23    13    33    1
    24    14    15    1
    25    14    45    1
    26    15    16    2
    27    15    46    1
    28    16    17    1
    29    16    47    1
    30    17    18    1
    31    17    48    1
    32    18    19    1
    33    18    49    1
    34    19    20    2
    35    19    36    1
    36    20    21    1
    37    20    50    1
    38    21    22    1
    39    21    37    1
    40    21    51    1
    41    22    23    1
    42    22    52    1
    43    23    24    1
    44    23    53    1
    45    24    25    1
    46    24    54    1
    47    24    55    1
    48    25    26    1
    49    25    39    1
    50    25    56    1
    51    26    27    1
    52    26    57    1
    53    26    58    1
    54    27    28    2
    55    27    32    1
    56    28    29    1
    57    29    30    1
    58    30    31    2
    59    30    59    1
    60    31    32    1
    61    33    60    1
    62    33    61    1
    63    33    62    1
    64    34    63    1
    65    34    64    1
    66    34    65    1
    67    36    66    1
    68    36    67    1
    69    36    68    1
    70    37    69    1
    71    37    70    1
    72    37    71    1
    73    38    72    1
    74    38    73    1
    75    38    74    1
    76    39    75    1
    77    39    76    1
    78    39    77    1
    79    40    78    1
    80    40    79    1
    81    40    80    1
