@<TRIPOS>MOLECULE
4CWF_H05_A_1224
 30 32 0 0 0
SMALL
USER_CHARGES

@<TRIPOS>ATOM
      1 C           6.3260   11.8932   24.0293 C.ar    1  LIG1        0.1688
      2 N           5.2982   11.1074   23.5875 N.ar    1  LIG1       -0.1966
      3 N           7.4739   11.3209   23.7515 N.ar    1  LIG1       -0.1936
      4 N           5.7744    9.9967   22.9864 N.ar    1  LIG1       -0.1276
      5 C           3.9572   11.4611   23.7681 C.ar    1  LIG1        0.1336
      6 N           3.6154   12.5744   24.3609 N.ar    1  LIG1       -0.2318
      7 C           7.0870   10.1772   23.1248 C.ar    1  LIG1        0.2328
      8 C           6.0082   13.1368   24.6893 C.ar    1  LIG1        0.0447
      9 C           4.6377   13.4421   24.8322 C.ar    1  LIG1        0.0766
     10 N           8.0439    9.3561   22.7164 N.pl3   1  LIG1       -0.3262
     11 C           6.9957   13.9992   25.1665 C.ar    1  LIG1       -0.0490
     12 C           2.9235   10.4835   23.2696 C.3     1  LIG1        0.0072
     13 C           4.2832   14.6358   25.4610 C.ar    1  LIG1       -0.0356
     14 C           2.7944    9.2468   24.1598 C.3     1  LIG1       -0.0490
     15 C           6.6230   15.1861   25.7919 C.ar    1  LIG1       -0.0610
     16 C           5.2710   15.5045   25.9384 C.ar    1  LIG1       -0.0597
     17 C           2.2972    9.5760   25.5596 C.3     1  LIG1       -0.0649
     18 H           7.8289    8.4898   22.2428 H       1  LIG1        0.1452
     19 H           9.0178    9.5838   22.8622 H       1  LIG1        0.1452
     20 H           8.0472   13.7454   25.0495 H       1  LIG1        0.0625
     21 H           3.1581   10.1897   22.2406 H       1  LIG1        0.0344
     22 H           1.9568   11.0013   23.2332 H       1  LIG1        0.0344
     23 H           3.2340   14.8913   25.5808 H       1  LIG1        0.0639
     24 H           3.7526    8.7253   24.2369 H       1  LIG1        0.0267
     25 H           2.0891    8.5481   23.6924 H       1  LIG1        0.0267
     26 H           7.3880   15.8633   26.1649 H       1  LIG1        0.0618
     27 H           4.9858   16.4326   26.4283 H       1  LIG1        0.0618
     28 H           2.9748   10.2645   26.0734 H       1  LIG1        0.0230
     29 H           2.2336    8.6625   26.1593 H       1  LIG1        0.0230
     30 H           1.3021   10.0307   25.5267 H       1  LIG1        0.0230
@<TRIPOS>BOND
     1     1     2   ar
     2     1     3   ar
     3     1     8   ar
     4     2     4   ar
     5     2     5   ar
     6     3     7   ar
     7     4     7   ar
     8     5     6   ar
     9     5    12    1
    10     6     9   ar
    11     7    10    1
    12     8     9   ar
    13     8    11   ar
    14     9    13   ar
    15    10    18    1
    16    10    19    1
    17    11    15   ar
    18    11    20    1
    19    12    14    1
    20    12    21    1
    21    12    22    1
    22    13    16   ar
    23    13    23    1
    24    14    17    1
    25    14    24    1
    26    14    25    1
    27    15    16   ar
    28    15    26    1
    29    16    27    1
    30    17    28    1
    31    17    29    1
    32    17    30    1
