REMARK  3 active torsions:
REMARK  status: ('A' for Active; 'I' for Inactive)
REMARK    1  A    between atoms: C_5  and  C_12 
REMARK    2  A    between atoms: C_7  and  N_10 
REMARK    3  A    between atoms: C_12  and  C_14 
ROOT
ATOM      1  C   LIG d   1       6.326  11.893  24.029  0.00  0.00     0.169 A 
ATOM      2  N   LIG d   1       5.298  11.107  23.587  0.00  0.00    -0.197 N 
ATOM      3  N   LIG d   1       7.474  11.321  23.752  0.00  0.00    -0.194 NA
ATOM      4  N   LIG d   1       5.774   9.997  22.986  0.00  0.00    -0.128 NA
ATOM      5  C   LIG d   1       3.957  11.461  23.768  0.00  0.00     0.134 A 
ATOM      6  N   LIG d   1       3.615  12.574  24.361  0.00  0.00    -0.232 NA
ATOM      7  C   LIG d   1       7.087  10.177  23.125  0.00  0.00     0.233 A 
ATOM      8  C   LIG d   1       6.008  13.137  24.689  0.00  0.00     0.045 A 
ATOM      9  C   LIG d   1       4.638  13.442  24.832  0.00  0.00     0.077 A 
ATOM     10  C   LIG d   1       6.996  13.999  25.166  0.00  0.00     0.013 A 
ATOM     11  C   LIG d   1       4.283  14.636  25.461  0.00  0.00     0.028 A 
ATOM     12  C   LIG d   1       6.623  15.186  25.792  0.00  0.00     0.001 A 
ATOM     13  C   LIG d   1       5.271  15.505  25.938  0.00  0.00     0.002 A 
ENDROOT
BRANCH   5  14
ATOM     14  C   LIG d   1       2.924  10.483  23.270  0.00  0.00     0.076 C 
BRANCH  14  15
ATOM     15  C   LIG d   1       2.794   9.247  24.160  0.00  0.00     0.004 C 
ATOM     16  C   LIG d   1       2.297   9.576  25.560  0.00  0.00     0.004 C 
ENDBRANCH  14  15
ENDBRANCH   5  14
BRANCH   7  17
ATOM     17  N   LIG d   1       8.044   9.356  22.716  0.00  0.00    -0.326 N 
ATOM     18  H   LIG d   1       7.829   8.490  22.243  0.00  0.00     0.145 HD
ATOM     19  H   LIG d   1       9.018   9.584  22.862  0.00  0.00     0.145 HD
ENDBRANCH   7  17
TORSDOF 3
