REMARK  8 active torsions:
REMARK  status: ('A' for Active; 'I' for Inactive)
REMARK    1  A    between atoms: C_2  and  N_4 
REMARK    2  A    between atoms: N_4  and  C_5 
REMARK    3  A    between atoms: C_5  and  C_6 
REMARK    4  A    between atoms: C_6  and  C_7 
REMARK    5  A    between atoms: C_7  and  N_8 
REMARK    6  A    between atoms: C_13  and  N_14 
REMARK    7  A    between atoms: C_17  and  S_18 
REMARK    8  A    between atoms: S_18  and  C_19 
ROOT
ATOM      1  N   LIG d   1       2.097   9.991  25.251  0.00  0.00     0.000 N 
ATOM      2  C   LIG d   1       0.835   9.979  25.799  0.00  0.00     0.000 A 
ATOM      3  N   LIG d   1       0.432   9.476  26.970  0.00  0.00     0.000 NA
ATOM      4  C   LIG d   1      -0.891   9.709  27.153  0.00  0.00     0.000 A 
ATOM      5  N   LIG d   1      -1.758  10.307  26.311  0.00  0.00     0.000 NA
ATOM      6  C   LIG d   1      -1.306  10.738  25.114  0.00  0.00     0.000 A 
ATOM      7  C   LIG d   1       0.048  10.596  24.825  0.00  0.00     0.000 A 
ATOM      8  N   LIG d   1       0.792  10.913  23.709  0.00  0.00     0.000 NA
ATOM      9  C   LIG d   1       2.000  10.514  23.995  0.00  0.00     0.000 A 
ENDROOT
BRANCH   9  10
ATOM     10  S   LIG d   1       3.335  10.644  22.889  0.00  0.00     0.000 SA
BRANCH  10  11
ATOM     11  C   LIG d   1       4.300  11.909  23.731  0.00  0.00     0.000 A 
ATOM     12  C   LIG d   1       3.637  13.021  24.279  0.00  0.00     0.000 A 
ATOM     13  C   LIG d   1       4.396  14.014  24.849  0.00  0.00     0.000 A 
ATOM     14  O   LIG d   1       3.931  15.205  25.320  0.00  0.00     0.000 OA
ATOM     15  C   LIG d   1       5.768  13.938  24.913  0.00  0.00     0.000 A 
ATOM     16  C   LIG d   1       5.164  15.952  25.276  0.00  0.00     0.000 C 
ATOM     17  O   LIG d   1       6.309  15.083  25.416  0.00  0.00     0.000 OA
ATOM     18  C   LIG d   1       6.459  12.849  24.434  0.00  0.00     0.000 A 
ATOM     19  C   LIG d   1       5.716  11.829  23.827  0.00  0.00     0.000 A 
ATOM     20 BR   LIG d   1       6.700  10.338  23.160  0.00  0.00     0.000 Br
ENDBRANCH  10  11
ENDBRANCH   9  10
BRANCH   1  21
ATOM     21  C   LIG d   1       3.256   9.467  25.895  0.00  0.00     0.000 C 
BRANCH  21  22
ATOM     22  C   LIG d   1       3.493   8.016  25.542  0.00  0.00     0.000 C 
BRANCH  22  23
ATOM     23  C   LIG d   1       2.488   7.093  26.211  0.00  0.00     0.000 C 
BRANCH  23  24
ATOM     24  N   LIG d   1       3.019   5.694  26.280  0.00  0.00     1.000 N 
ATOM     25  H   LIG d   1       2.204   5.085  26.454  0.00  0.00     0.000 HD
ATOM     26  H   LIG d   1       3.375   5.389  25.361  0.00  0.00     0.000 HD
BRANCH  24  27
ATOM     27  C   LIG d   1       4.035   5.462  27.368  0.00  0.00     0.000 C 
ATOM     28  C   LIG d   1       5.455   5.702  26.859  0.00  0.00     0.000 C 
ATOM     29  C   LIG d   1       3.921   4.020  27.840  0.00  0.00     0.000 C 
ENDBRANCH  24  27
ENDBRANCH  23  24
ENDBRANCH  22  23
ENDBRANCH  21  22
ENDBRANCH   1  21
BRANCH   6  30
ATOM     30  N   LIG d   1      -2.183  11.269  24.193  0.00  0.00     0.000 N 
ATOM     31  H   LIG d   1      -1.773  11.748  23.400  0.00  0.00     0.000 HD
ATOM     32  H   LIG d   1      -3.082  11.555  24.541  0.00  0.00     0.000 HD
ENDBRANCH   6  30
TORSDOF 8
