@<TRIPOS>MOLECULE
2FWY_H64_A_1001
 50 53 0 0 0
SMALL
USER_CHARGES

@<TRIPOS>ATOM
      1 C           5.4555    5.7015   26.8592 C.3     1  LIG1        0.0000
      2 C           4.0355    5.4617   27.3680 C.3     1  LIG1        0.0000
      3 C           3.9209    4.0200   27.8403 C.3     1  LIG1        0.0000
      4 N           3.0186    5.6941   26.2796 N.4     1  LIG1        1.0000
      5 C           2.4876    7.0928   26.2109 C.3     1  LIG1        0.0000
      6 C           3.4925    8.0160   25.5417 C.3     1  LIG1        0.0000
      7 C           3.2559    9.4670   25.8955 C.3     1  LIG1        0.0000
      8 N           2.0974    9.9911   25.2511 N.ar    1  LIG1        0.0000
      9 C           0.8353    9.9790   25.7987 C.ar    1  LIG1        0.0000
     10 N           0.4321    9.4757   26.9702 N.ar    1  LIG1        0.0000
     11 C          -0.8911    9.7085   27.1533 C.ar    1  LIG1        0.0000
     12 N          -1.7585   10.3071   26.3114 N.ar    1  LIG1        0.0000
     13 C          -1.3061   10.7384   25.1136 C.ar    1  LIG1        0.0000
     14 N          -2.1830   11.2688   24.1933 N.pl3   1  LIG1        0.0000
     15 C           0.0480   10.5957   24.8248 C.ar    1  LIG1        0.0000
     16 N           0.7918   10.9126   23.7088 N.ar    1  LIG1        0.0000
     17 C           2.0001   10.5139   23.9946 C.ar    1  LIG1        0.0000
     18 S           3.3351   10.6443   22.8892 S.3     1  LIG1        0.0000
     19 C           4.3003   11.9091   23.7309 C.ar    1  LIG1        0.0000
     20 C           3.6366   13.0208   24.2792 C.ar    1  LIG1        0.0000
     21 C           4.3959   14.0142   24.8491 C.ar    1  LIG1        0.0000
     22 O           3.9312   15.2052   25.3205 O.3     1  LIG1        0.0000
     23 C           5.1639   15.9523   25.2756 C.3     1  LIG1        0.0000
     24 O           6.3095   15.0832   25.4155 O.3     1  LIG1        0.0000
     25 C           5.7683   13.9375   24.9127 C.ar    1  LIG1        0.0000
     26 C           6.4593   12.8491   24.4339 C.ar    1  LIG1        0.0000
     27 C           5.7164   11.8286   23.8266 C.ar    1  LIG1        0.0000
     28 BR          6.7001   10.3380   23.1597 Br      1  LIG1        0.0000
     29 H           6.1760    5.5071   27.6482 H       1  LIG1        0.0000
     30 H           5.6617    6.7307   26.5709 H       1  LIG1        0.0000
     31 H           5.6734    5.0764   25.9907 H       1  LIG1        0.0000
     32 H           3.7860    6.1346   28.1962 H       1  LIG1        0.0000
     33 H           4.1398    3.3209   27.0266 H       1  LIG1        0.0000
     34 H           2.9221    3.8019   28.2283 H       1  LIG1        0.0000
     35 H           4.6414    3.8412   28.6449 H       1  LIG1        0.0000
     36 H           2.2041    5.0851   26.4545 H       1  LIG1        0.0000
     37 H           3.3747    5.3893   25.3614 H       1  LIG1        0.0000
     38 H           2.2506    7.3935   27.2362 H       1  LIG1        0.0000
     39 H           1.5581    7.0471   25.6336 H       1  LIG1        0.0000
     40 H           3.5158    7.8274   24.4612 H       1  LIG1        0.0000
     41 H           4.4991    7.8444   25.8850 H       1  LIG1        0.0000
     42 H           4.1298   10.0488   25.6032 H       1  LIG1        0.0000
     43 H           3.1645    9.5993   26.9797 H       1  LIG1        0.0000
     44 H          -1.3182    9.3586   28.0909 H       1  LIG1        0.0000
     45 H          -1.7734   11.7476   23.3998 H       1  LIG1        0.0000
     46 H          -3.0816   11.5548   24.5406 H       1  LIG1        0.0000
     47 H           2.5595   13.1428   24.2199 H       1  LIG1        0.0000
     48 H           5.1727   16.7317   26.0440 H       1  LIG1        0.0000
     49 H           5.2241   16.4393   24.2908 H       1  LIG1        0.0000
     50 H           7.5427   12.8222   24.4829 H       1  LIG1        0.0000
@<TRIPOS>BOND
     1     1     2    1
     2     1    29    1
     3     1    30    1
     4     1    31    1
     5     2     3    1
     6     2     4    1
     7     2    32    1
     8     3    33    1
     9     3    34    1
    10     3    35    1
    11     4     5    1
    12     4    36    1
    13     4    37    1
    14     5     6    1
    15     5    38    1
    16     5    39    1
    17     6     7    1
    18     6    40    1
    19     6    41    1
    20     7     8    1
    21     7    42    1
    22     7    43    1
    23     8     9   ar
    24     8    17   ar
    25     9    10   ar
    26     9    15   ar
    27    10    11   ar
    28    11    12   ar
    29    11    44    1
    30    12    13   ar
    31    13    14    1
    32    13    15   ar
    33    14    45    1
    34    14    46    1
    35    15    16   ar
    36    16    17   ar
    37    17    18    1
    38    18    19    1
    39    19    20   ar
    40    19    27   ar
    41    20    21   ar
    42    20    47    1
    43    21    22    1
    44    21    25   ar
    45    22    23    1
    46    23    24    1
    47    23    48    1
    48    23    49    1
    49    24    25    1
    50    25    26   ar
    51    26    27   ar
    52    26    50    1
    53    27    28    1
