2FWZ_H71_A_1001
 OpenBabel03301717023D

 50 53  0  0  0  0  0  0  0  0999 V2000
    2.3499    5.1612   28.5413 C   0  0  0  0  0  0  0  0  0  0  0  0
    1.8143    4.9397   27.1296 C   0  0  0  0  0  0  0  0  0  0  0  0
    0.3397    5.3049   26.9949 C   0  0  0  0  0  0  0  0  0  0  0  0
    2.6352    5.7460   26.1495 N   0  3  0  0  0  0  0  0  0  0  0  0
    2.4511    7.2148   26.2773 C   0  0  0  0  0  0  0  0  0  0  0  0
    3.5227    7.9896   25.5414 C   0  0  0  0  0  0  0  0  0  0  0  0
    3.3703    9.4752   25.8945 C   0  0  0  0  0  0  0  0  0  0  0  0
    2.1936   10.0806   25.3033 N   0  3  0  0  0  0  0  0  0  0  0  0
    0.9416   10.1156   25.8601 C   0  0  0  0  0  0  0  0  0  0  0  0
    0.5452    9.6106   27.0444 N   0  0  0  0  0  0  0  0  0  0  0  0
   -0.7758    9.8386   27.2399 C   0  0  0  0  0  0  0  0  0  0  0  0
   -1.6590   10.4322   26.4063 N   0  0  0  0  0  0  0  0  0  0  0  0
   -1.2157   10.8875   25.2152 C   0  0  0  0  0  0  0  0  0  0  0  0
   -2.1126   11.4436   24.3240 N   0  0  0  0  0  0  0  0  0  0  0  0
    0.1471   10.7412   24.9120 C   0  0  0  0  0  0  0  0  0  0  0  0
    0.8728   11.0782   23.8044 N   0  0  0  0  0  0  0  0  0  0  0  0
    2.0965   10.6738   24.0603 C   0  0  0  0  0  0  0  0  0  0  0  0
    3.4128   10.8247   22.9651 S   0  0  0  0  0  0  0  0  0  0  0  0
    4.3783   12.0589   23.8484 C   0  0  0  0  0  0  0  0  0  0  0  0
    3.7100   13.1926   24.3469 C   0  0  0  0  0  0  0  0  0  0  0  0
    4.4591   14.1750   24.9472 C   0  0  0  0  0  0  0  0  0  0  0  0
    3.9932   15.3798   25.3787 O   0  0  0  0  0  0  0  0  0  0  0  0
    5.2435   16.0960   25.4366 C   0  0  0  0  0  0  0  0  0  0  0  0
    6.3618   15.2009   25.6232 O   0  0  0  0  0  0  0  0  0  0  0  0
    5.8222   14.0668   25.0958 C   0  0  0  0  0  0  0  0  0  0  0  0
    6.5158   12.9574   24.6733 C   0  0  0  0  0  0  0  0  0  0  0  0
    5.7859   11.9488   24.0261 C   0  0  0  0  0  0  0  0  0  0  0  0
    6.9090   10.2957   23.3441 I   0  0  0  0  0  0  0  0  0  0  0  0
    1.7937    4.5529   29.2619 H   0  0  0  0  0  0  0  0  0  0  0  0
    2.2556    6.1981   28.8738 H   0  0  0  0  0  0  0  0  0  0  0  0
    3.4079    4.8857   28.6036 H   0  0  0  0  0  0  0  0  0  0  0  0
    1.9639    3.8951   26.8422 H   0  0  0  0  0  0  0  0  0  0  0  0
    0.1484    6.3553   27.2409 H   0  0  0  0  0  0  0  0  0  0  0  0
   -0.2708    4.7061   27.6753 H   0  0  0  0  0  0  0  0  0  0  0  0
   -0.0131    5.1295   25.9724 H   0  0  0  0  0  0  0  0  0  0  0  0
    2.3742    5.4589   25.1959 H   0  0  0  0  0  0  0  0  0  0  0  0
    3.6256    5.4870   26.2522 H   0  0  0  0  0  0  0  0  0  0  0  0
    2.4978    7.4781   27.3389 H   0  0  0  0  0  0  0  0  0  0  0  0
    1.4640    7.4387   25.8735 H   0  0  0  0  0  0  0  0  0  0  0  0
    3.4353    7.8229   24.4615 H   0  0  0  0  0  0  0  0  0  0  0  0
    4.5156    7.6446   25.8486 H   0  0  0  0  0  0  0  0  0  0  0  0
    4.2582   10.0166   25.5748 H   0  0  0  0  0  0  0  0  0  0  0  0
    3.3138    9.6190   26.9821 H   0  0  0  0  0  0  0  0  0  0  0  0
   -1.1983    9.4813   28.1789 H   0  0  0  0  0  0  0  0  0  0  0  0
   -1.7226   11.9373   23.5300 H   0  0  0  0  0  0  0  0  0  0  0  0
   -3.0076   11.7202   24.6940 H   0  0  0  0  0  0  0  0  0  0  0  0
    2.6407   13.3423   24.2244 H   0  0  0  0  0  0  0  0  0  0  0  0
    5.2159   16.8418   26.2366 H   0  0  0  0  0  0  0  0  0  0  0  0
    5.3781   16.6162   24.4770 H   0  0  0  0  0  0  0  0  0  0  0  0
    7.5926   12.9114   24.7963 H   0  0  0  0  0  0  0  0  0  0  0  0
  1  2  1  0  0  0  0
  1 29  1  0  0  0  0
  1 30  1  0  0  0  0
  1 31  1  0  0  0  0
  2  3  1  0  0  0  0
  2  4  1  0  0  0  0
  2 32  1  0  0  0  0
  3 33  1  0  0  0  0
  3 34  1  0  0  0  0
  3 35  1  0  0  0  0
  4  5  1  0  0  0  0
  4 36  1  0  0  0  0
  4 37  1  0  0  0  0
  5  6  1  0  0  0  0
  5 38  1  0  0  0  0
  5 39  1  0  0  0  0
  6  7  1  0  0  0  0
  6 40  1  0  0  0  0
  6 41  1  0  0  0  0
  7  8  1  0  0  0  0
  7 42  1  0  0  0  0
  7 43  1  0  0  0  0
  8  9  1  0  0  0  0
  8 17  2  0  0  0  0
  9 10  2  0  0  0  0
  9 15  1  0  0  0  0
 10 11  1  0  0  0  0
 11 12  2  0  0  0  0
 11 44  1  0  0  0  0
 12 13  1  0  0  0  0
 13 14  1  0  0  0  0
 13 15  2  0  0  0  0
 14 45  1  0  0  0  0
 14 46  1  0  0  0  0
 15 16  1  0  0  0  0
 16 17  1  0  0  0  0
 17 18  1  0  0  0  0
 18 19  1  0  0  0  0
 19 20  2  0  0  0  0
 19 27  1  0  0  0  0
 20 21  1  0  0  0  0
 20 47  1  0  0  0  0
 21 22  1  0  0  0  0
 21 25  2  0  0  0  0
 22 23  1  0  0  0  0
 23 24  1  0  0  0  0
 23 48  1  0  0  0  0
 23 49  1  0  0  0  0
 24 25  1  0  0  0  0
 25 26  1  0  0  0  0
 26 27  2  0  0  0  0
 26 50  1  0  0  0  0
 27 28  1  0  0  0  0
M  CHG  2   4   1   8   1
M  END
$$$$
