REMARK  8 active torsions:
REMARK  status: ('A' for Active; 'I' for Inactive)
REMARK    1  A    between atoms: C_2  and  N_4 
REMARK    2  A    between atoms: N_4  and  C_5 
REMARK    3  A    between atoms: C_5  and  C_6 
REMARK    4  A    between atoms: C_6  and  C_7 
REMARK    5  A    between atoms: C_7  and  N_8 
REMARK    6  A    between atoms: C_13  and  N_14 
REMARK    7  A    between atoms: C_17  and  S_18 
REMARK    8  A    between atoms: S_18  and  C_19 
ROOT
ATOM      1  N   LIG d   1       2.194  10.081  25.303  0.00  0.00     0.000 N 
ATOM      2  C   LIG d   1       0.942  10.116  25.860  0.00  0.00     0.000 A 
ATOM      3  N   LIG d   1       0.545   9.611  27.044  0.00  0.00     0.000 NA
ATOM      4  C   LIG d   1      -0.776   9.839  27.240  0.00  0.00     0.000 A 
ATOM      5  N   LIG d   1      -1.659  10.432  26.406  0.00  0.00     0.000 NA
ATOM      6  C   LIG d   1      -1.216  10.887  25.215  0.00  0.00     0.000 A 
ATOM      7  C   LIG d   1       0.147  10.741  24.912  0.00  0.00     0.000 A 
ATOM      8  N   LIG d   1       0.873  11.078  23.804  0.00  0.00     0.000 NA
ATOM      9  C   LIG d   1       2.096  10.674  24.060  0.00  0.00     0.000 A 
ENDROOT
BRANCH   9  10
ATOM     10  S   LIG d   1       3.413  10.825  22.965  0.00  0.00     0.000 SA
BRANCH  10  11
ATOM     11  C   LIG d   1       4.378  12.059  23.848  0.00  0.00     0.000 A 
ATOM     12  C   LIG d   1       3.710  13.193  24.347  0.00  0.00     0.000 A 
ATOM     13  C   LIG d   1       4.459  14.175  24.947  0.00  0.00     0.000 A 
ATOM     14  O   LIG d   1       3.993  15.380  25.379  0.00  0.00     0.000 OA
ATOM     15  C   LIG d   1       5.822  14.067  25.096  0.00  0.00     0.000 A 
ATOM     16  C   LIG d   1       5.244  16.096  25.437  0.00  0.00     0.000 C 
ATOM     17  O   LIG d   1       6.362  15.201  25.623  0.00  0.00     0.000 OA
ATOM     18  C   LIG d   1       6.516  12.957  24.673  0.00  0.00     0.000 A 
ATOM     19  C   LIG d   1       5.786  11.949  24.026  0.00  0.00     0.000 A 
ATOM     20  I   LIG d   1       6.909  10.296  23.344  0.00  0.00     0.000 I 
ENDBRANCH  10  11
ENDBRANCH   9  10
BRANCH   1  21
ATOM     21  C   LIG d   1       3.370   9.475  25.895  0.00  0.00     0.000 C 
BRANCH  21  22
ATOM     22  C   LIG d   1       3.523   7.990  25.541  0.00  0.00     0.000 C 
BRANCH  22  23
ATOM     23  C   LIG d   1       2.451   7.215  26.277  0.00  0.00     0.000 C 
BRANCH  23  24
ATOM     24  N   LIG d   1       2.635   5.746  26.149  0.00  0.00     1.000 N 
ATOM     25  H   LIG d   1       2.374   5.459  25.196  0.00  0.00     0.000 HD
ATOM     26  H   LIG d   1       3.626   5.487  26.252  0.00  0.00     0.000 HD
BRANCH  24  27
ATOM     27  C   LIG d   1       1.814   4.940  27.130  0.00  0.00     0.000 C 
ATOM     28  C   LIG d   1       2.350   5.161  28.541  0.00  0.00     0.000 C 
ATOM     29  C   LIG d   1       0.340   5.305  26.995  0.00  0.00     0.000 C 
ENDBRANCH  24  27
ENDBRANCH  23  24
ENDBRANCH  22  23
ENDBRANCH  21  22
ENDBRANCH   1  21
BRANCH   6  30
ATOM     30  N   LIG d   1      -2.113  11.444  24.324  0.00  0.00     0.000 N 
ATOM     31  H   LIG d   1      -1.723  11.937  23.530  0.00  0.00     0.000 HD
ATOM     32  H   LIG d   1      -3.008  11.720  24.694  0.00  0.00     0.000 HD
ENDBRANCH   6  30
TORSDOF 8
