@<TRIPOS>MOLECULE
2FWZ_H71_A_1001
 50 53 0 0 0
SMALL
USER_CHARGES

@<TRIPOS>ATOM
      1 C           2.3499    5.1612   28.5413 C.3     1  LIG1        0.0000
      2 C           1.8143    4.9397   27.1296 C.3     1  LIG1        0.0000
      3 C           0.3397    5.3049   26.9949 C.3     1  LIG1        0.0000
      4 N           2.6352    5.7460   26.1495 N.4     1  LIG1        1.0000
      5 C           2.4511    7.2148   26.2773 C.3     1  LIG1        0.0000
      6 C           3.5227    7.9896   25.5414 C.3     1  LIG1        0.0000
      7 C           3.3703    9.4752   25.8945 C.3     1  LIG1        0.0000
      8 N           2.1936   10.0806   25.3033 N.ar    1  LIG1        0.0000
      9 C           0.9416   10.1156   25.8601 C.ar    1  LIG1        0.0000
     10 N           0.5452    9.6106   27.0444 N.ar    1  LIG1        0.0000
     11 C          -0.7758    9.8386   27.2399 C.ar    1  LIG1        0.0000
     12 N          -1.6590   10.4322   26.4063 N.ar    1  LIG1        0.0000
     13 C          -1.2157   10.8875   25.2152 C.ar    1  LIG1        0.0000
     14 N          -2.1126   11.4436   24.3240 N.pl3   1  LIG1        0.0000
     15 C           0.1471   10.7412   24.9120 C.ar    1  LIG1        0.0000
     16 N           0.8728   11.0782   23.8044 N.ar    1  LIG1        0.0000
     17 C           2.0965   10.6738   24.0603 C.ar    1  LIG1        0.0000
     18 S           3.4128   10.8247   22.9651 S.3     1  LIG1        0.0000
     19 C           4.3783   12.0589   23.8484 C.ar    1  LIG1        0.0000
     20 C           3.7100   13.1926   24.3469 C.ar    1  LIG1        0.0000
     21 C           4.4591   14.1750   24.9472 C.ar    1  LIG1        0.0000
     22 O           3.9932   15.3798   25.3787 O.3     1  LIG1        0.0000
     23 C           5.2435   16.0960   25.4366 C.3     1  LIG1        0.0000
     24 O           6.3618   15.2009   25.6232 O.3     1  LIG1        0.0000
     25 C           5.8222   14.0668   25.0958 C.ar    1  LIG1        0.0000
     26 C           6.5158   12.9574   24.6733 C.ar    1  LIG1        0.0000
     27 C           5.7859   11.9488   24.0261 C.ar    1  LIG1        0.0000
     28 I           6.9090   10.2957   23.3441 I       1  LIG1        0.0000
     29 H           1.7937    4.5529   29.2619 H       1  LIG1        0.0000
     30 H           2.2556    6.1981   28.8738 H       1  LIG1        0.0000
     31 H           3.4079    4.8857   28.6036 H       1  LIG1        0.0000
     32 H           1.9639    3.8951   26.8422 H       1  LIG1        0.0000
     33 H           0.1484    6.3553   27.2409 H       1  LIG1        0.0000
     34 H          -0.2708    4.7061   27.6753 H       1  LIG1        0.0000
     35 H          -0.0131    5.1295   25.9724 H       1  LIG1        0.0000
     36 H           2.3742    5.4589   25.1959 H       1  LIG1        0.0000
     37 H           3.6256    5.4870   26.2522 H       1  LIG1        0.0000
     38 H           2.4978    7.4781   27.3389 H       1  LIG1        0.0000
     39 H           1.4640    7.4387   25.8735 H       1  LIG1        0.0000
     40 H           3.4353    7.8229   24.4615 H       1  LIG1        0.0000
     41 H           4.5156    7.6446   25.8486 H       1  LIG1        0.0000
     42 H           4.2582   10.0166   25.5748 H       1  LIG1        0.0000
     43 H           3.3138    9.6190   26.9821 H       1  LIG1        0.0000
     44 H          -1.1983    9.4813   28.1789 H       1  LIG1        0.0000
     45 H          -1.7226   11.9373   23.5300 H       1  LIG1        0.0000
     46 H          -3.0076   11.7202   24.6940 H       1  LIG1        0.0000
     47 H           2.6407   13.3423   24.2244 H       1  LIG1        0.0000
     48 H           5.2159   16.8418   26.2366 H       1  LIG1        0.0000
     49 H           5.3781   16.6162   24.4770 H       1  LIG1        0.0000
     50 H           7.5926   12.9114   24.7963 H       1  LIG1        0.0000
@<TRIPOS>BOND
     1     1     2    1
     2     1    29    1
     3     1    30    1
     4     1    31    1
     5     2     3    1
     6     2     4    1
     7     2    32    1
     8     3    33    1
     9     3    34    1
    10     3    35    1
    11     4     5    1
    12     4    36    1
    13     4    37    1
    14     5     6    1
    15     5    38    1
    16     5    39    1
    17     6     7    1
    18     6    40    1
    19     6    41    1
    20     7     8    1
    21     7    42    1
    22     7    43    1
    23     8     9   ar
    24     8    17   ar
    25     9    10   ar
    26     9    15   ar
    27    10    11   ar
    28    11    12   ar
    29    11    44    1
    30    12    13   ar
    31    13    14    1
    32    13    15   ar
    33    14    45    1
    34    14    46    1
    35    15    16   ar
    36    16    17   ar
    37    17    18    1
    38    18    19    1
    39    19    20   ar
    40    19    27   ar
    41    20    21   ar
    42    20    47    1
    43    21    22    1
    44    21    25   ar
    45    22    23    1
    46    23    24    1
    47    23    48    1
    48    23    49    1
    49    24    25    1
    50    25    26   ar
    51    26    27   ar
    52    26    50    1
    53    27    28    1
