4CWR_HAJ_A_1224
 OpenBabel03301717273D

 37 41  0  0  0  0  0  0  0  0999 V2000
   -1.1509    9.2765   28.2376 F   0  0  0  0  0  0  0  0  0  0  0  0
    0.1358    8.9698   28.0248 C   0  0  0  0  0  0  0  0  0  0  0  0
    0.7990    8.2011   28.9796 C   0  0  0  0  0  0  0  0  0  0  0  0
    2.1396    7.8639   28.7986 C   0  0  0  0  0  0  0  0  0  0  0  0
    2.8137    8.2922   27.6559 C   0  0  0  0  0  0  0  0  0  0  0  0
    2.1536    9.0558   26.6903 C   0  0  0  0  0  0  0  0  0  0  0  0
    0.7978    9.4046   26.8804 C   0  0  0  0  0  0  0  0  0  0  0  0
    2.8900    9.4626   25.5522 N   0  0  0  0  0  0  0  0  0  0  0  0
    2.3007   10.2007   24.6506 C   0  0  0  0  0  0  0  0  0  0  0  0
    0.9661   10.5752   24.7696 N   0  3  0  0  0  0  0  0  0  0  0  0
    0.2576   11.3210   23.8964 N   0  0  0  0  0  0  0  0  0  0  0  0
   -0.9311   11.3645   24.4958 C   0  0  0  0  0  0  0  0  0  0  0  0
   -2.0032   11.9901   24.0329 N   0  0  0  0  0  0  0  0  0  0  0  0
   -1.0224   10.7027   25.6813 N   0  0  0  0  0  0  0  0  0  0  0  0
    0.1874   10.2104   25.8409 C   0  0  0  0  0  0  0  0  0  0  0  0
    3.0494   10.7283   23.4575 C   0  0  0  0  0  0  0  0  0  0  0  0
    3.9591   11.8777   23.8451 C   0  0  0  0  0  0  0  0  0  0  0  0
    5.3602   11.7700   23.6898 C   0  0  0  0  0  0  0  0  0  0  0  0
    6.2092   12.8233   24.0548 C   0  0  0  0  0  0  0  0  0  0  0  0
    5.6371   13.9627   24.5794 C   0  0  0  0  0  0  0  0  0  0  0  0
    4.2781   14.0748   24.7404 C   0  0  0  0  0  0  0  0  0  0  0  0
    3.4162   13.0601   24.3787 C   0  0  0  0  0  0  0  0  0  0  0  0
    6.2999   15.0770   24.9921 O   0  0  0  0  0  0  0  0  0  0  0  0
    5.2025   15.8903   25.4607 C   0  0  0  0  0  0  0  0  0  0  0  0
    3.9135   15.2683   25.2817 O   0  0  0  0  0  0  0  0  0  0  0  0
    0.2605    7.8697   29.8629 H   0  0  0  0  0  0  0  0  0  0  0  0
    2.6610    7.2681   29.5439 H   0  0  0  0  0  0  0  0  0  0  0  0
    3.8607    8.0343   27.5106 H   0  0  0  0  0  0  0  0  0  0  0  0
   -2.8779   11.9691   24.5374 H   0  0  0  0  0  0  0  0  0  0  0  0
   -1.9849   12.4859   23.1531 H   0  0  0  0  0  0  0  0  0  0  0  0
    2.3950   11.0285   22.6342 H   0  0  0  0  0  0  0  0  0  0  0  0
    3.6542    9.8943   23.0753 H   0  0  0  0  0  0  0  0  0  0  0  0
    5.7992   10.8565   23.2908 H   0  0  0  0  0  0  0  0  0  0  0  0
    7.2837   12.7422   23.9344 H   0  0  0  0  0  0  0  0  0  0  0  0
    2.3482   13.1879   24.5174 H   0  0  0  0  0  0  0  0  0  0  0  0
    5.2107   16.8449   24.9212 H   0  0  0  0  0  0  0  0  0  0  0  0
    5.3480   16.0969   26.5279 H   0  0  0  0  0  0  0  0  0  0  0  0
  1  2  1  0  0  0  0
  2  3  2  0  0  0  0
  2  7  1  0  0  0  0
  3  4  1  0  0  0  0
  3 26  1  0  0  0  0
  4  5  2  0  0  0  0
  4 27  1  0  0  0  0
  5  6  1  0  0  0  0
  5 28  1  0  0  0  0
  6  7  2  0  0  0  0
  6  8  1  0  0  0  0
  7 15  1  0  0  0  0
  8  9  2  0  0  0  0
  9 10  1  0  0  0  0
  9 16  1  0  0  0  0
 10 11  1  0  0  0  0
 10 15  2  0  0  0  0
 11 12  1  0  0  0  0
 12 13  1  0  0  0  0
 12 14  2  0  0  0  0
 13 29  1  0  0  0  0
 13 30  1  0  0  0  0
 14 15  1  0  0  0  0
 16 17  1  0  0  0  0
 16 31  1  0  0  0  0
 16 32  1  0  0  0  0
 17 18  2  0  0  0  0
 17 22  1  0  0  0  0
 18 19  1  0  0  0  0
 18 33  1  0  0  0  0
 19 20  2  0  0  0  0
 19 34  1  0  0  0  0
 20 21  1  0  0  0  0
 20 23  1  0  0  0  0
 21 22  2  0  0  0  0
 21 25  1  0  0  0  0
 22 35  1  0  0  0  0
 23 24  1  0  0  0  0
 24 25  1  0  0  0  0
 24 36  1  0  0  0  0
 24 37  1  0  0  0  0
M  CHG  1  10   1
M  END
$$$$
