@<TRIPOS>MOLECULE
4CWR_HAJ_A_1224
 37 41 0 0 0
SMALL
USER_CHARGES

@<TRIPOS>ATOM
      1 F          -1.1509    9.2765   28.2376 F       1  LIG1       -0.2047
      2 C           0.1358    8.9698   28.0248 C.ar    1  LIG1        0.1361
      3 C           0.7990    8.2011   28.9796 C.ar    1  LIG1       -0.0256
      4 C           2.1396    7.8639   28.7986 C.ar    1  LIG1       -0.0570
      5 C           2.8137    8.2922   27.6559 C.ar    1  LIG1       -0.0354
      6 C           2.1536    9.0558   26.6903 C.ar    1  LIG1        0.0794
      7 C           0.7978    9.4046   26.8804 C.ar    1  LIG1        0.0798
      8 N           2.8900    9.4626   25.5522 N.ar    1  LIG1       -0.2314
      9 C           2.3007   10.2007   24.6506 C.ar    1  LIG1        0.1378
     10 N           0.9661   10.5752   24.7696 N.ar    1  LIG1       -0.1962
     11 N           0.2576   11.3210   23.8964 N.ar    1  LIG1       -0.1276
     12 C          -0.9311   11.3645   24.4958 C.ar    1  LIG1        0.2328
     13 N          -2.0032   11.9901   24.0329 N.pl3   1  LIG1       -0.3262
     14 N          -1.0224   10.7027   25.6813 N.ar    1  LIG1       -0.1935
     15 C           0.1874   10.2104   25.8409 C.ar    1  LIG1        0.1716
     16 C           3.0494   10.7283   23.4575 C.3     1  LIG1        0.0327
     17 C           3.9591   11.8777   23.8451 C.ar    1  LIG1       -0.0364
     18 C           5.3602   11.7700   23.6898 C.ar    1  LIG1       -0.0545
     19 C           6.2092   12.8233   24.0548 C.ar    1  LIG1       -0.0159
     20 C           5.6371   13.9627   24.5794 C.ar    1  LIG1        0.1662
     21 C           4.2781   14.0748   24.7404 C.ar    1  LIG1        0.1665
     22 C           3.4162   13.0601   24.3787 C.ar    1  LIG1       -0.0126
     23 O           6.2999   15.0770   24.9921 O.3     1  LIG1       -0.4526
     24 C           5.2025   15.8903   25.4607 C.3     1  LIG1        0.2332
     25 O           3.9135   15.2683   25.2817 O.3     1  LIG1       -0.4526
     26 H           0.2605    7.8697   29.8629 H       1  LIG1        0.0646
     27 H           2.6610    7.2681   29.5439 H       1  LIG1        0.0619
     28 H           3.8607    8.0343   27.5106 H       1  LIG1        0.0639
     29 H          -2.8779   11.9691   24.5374 H       1  LIG1        0.1452
     30 H          -1.9849   12.4859   23.1531 H       1  LIG1        0.1452
     31 H           2.3950   11.0285   22.6342 H       1  LIG1        0.0392
     32 H           3.6542    9.8943   23.0753 H       1  LIG1        0.0392
     33 H           5.7992   10.8565   23.2908 H       1  LIG1        0.0622
     34 H           7.2837   12.7422   23.9344 H       1  LIG1        0.0655
     35 H           2.3482   13.1879   24.5174 H       1  LIG1        0.0658
     36 H           5.2107   16.8449   24.9212 H       1  LIG1        0.1166
     37 H           5.3480   16.0969   26.5279 H       1  LIG1        0.1166
@<TRIPOS>BOND
     1     1     2    1
     2     2     3   ar
     3     2     7   ar
     4     3     4   ar
     5     3    26    1
     6     4     5   ar
     7     4    27    1
     8     5     6   ar
     9     5    28    1
    10     6     7   ar
    11     6     8   ar
    12     7    15   ar
    13     8     9   ar
    14     9    10   ar
    15     9    16    1
    16    10    11   ar
    17    10    15   ar
    18    11    12   ar
    19    12    13    1
    20    12    14   ar
    21    13    29    1
    22    13    30    1
    23    14    15   ar
    24    16    17    1
    25    16    31    1
    26    16    32    1
    27    17    18   ar
    28    17    22   ar
    29    18    19   ar
    30    18    33    1
    31    19    20   ar
    32    19    34    1
    33    20    21   ar
    34    20    23    1
    35    21    22   ar
    36    21    25    1
    37    22    35    1
    38    23    24    1
    39    24    25    1
    40    24    36    1
    41    24    37    1
