4EEH_HH6_A_301
 OpenBabel03301717283D

 27 29  0  0  0  0  0  0  0  0999 V2000
   64.5164   33.8670   25.2333 C   0  0  0  0  0  0  0  0  0  0  0  0
   64.0061   34.5819   24.0882 C   0  0  0  0  0  0  0  0  0  0  0  0
   63.3998   33.3074   25.8585 C   0  0  0  0  0  0  0  0  0  0  0  0
   65.7834   33.6406   25.7954 C   0  0  0  0  0  0  0  0  0  0  0  0
   64.7515   35.4916   23.1490 C   0  0  0  0  0  0  0  0  0  0  0  0
   62.6861   34.3924   24.0026 N   0  0  0  0  0  0  0  0  0  0  0  0
   62.3011   33.6936   25.1230 N   0  3  0  0  0  0  0  0  0  0  0  0
   63.5040   32.5498   27.0316 C   0  0  0  0  0  0  0  0  0  0  0  0
   65.9203   32.8541   26.9382 C   0  0  0  0  0  0  0  0  0  0  0  0
   64.0980   36.0292   22.0212 C   0  0  0  0  0  0  0  0  0  0  0  0
   66.0519   35.9428   23.4249 C   0  0  0  0  0  0  0  0  0  0  0  0
   64.7802   32.3593   27.5599 C   0  0  0  0  0  0  0  0  0  0  0  0
   64.7501   36.9492   21.1918 C   0  0  0  0  0  0  0  0  0  0  0  0
   66.7176   36.8345   22.5854 C   0  0  0  0  0  0  0  0  0  0  0  0
   64.8568   31.6525   28.7269 O   0  0  0  0  0  0  0  0  0  0  0  0
   66.0569   37.3388   21.4749 C   0  0  0  0  0  0  0  0  0  0  0  0
   66.6725   38.2313   20.6428 O   0  0  0  0  0  0  0  0  0  0  0  0
   66.6788   34.0617   25.3412 H   0  0  0  0  0  0  0  0  0  0  0  0
   61.3198   33.5095   25.3467 H   0  0  0  0  0  0  0  0  0  0  0  0
   62.6396   32.1162   27.5223 H   0  0  0  0  0  0  0  0  0  0  0  0
   66.9054   32.6342   27.3231 H   0  0  0  0  0  0  0  0  0  0  0  0
   63.0702   35.7452   21.8047 H   0  0  0  0  0  0  0  0  0  0  0  0
   66.5576   35.6211   24.3257 H   0  0  0  0  0  0  0  0  0  0  0  0
   64.2288   37.3512   20.3267 H   0  0  0  0  0  0  0  0  0  0  0  0
   67.7378   37.1257   22.8002 H   0  0  0  0  0  0  0  0  0  0  0  0
   65.7716   31.5511   29.0356 H   0  0  0  0  0  0  0  0  0  0  0  0
   67.5778   38.4418   20.9274 H   0  0  0  0  0  0  0  0  0  0  0  0
  1  2  2  0  0  0  0
  1  3  1  0  0  0  0
  1  4  1  0  0  0  0
  2  5  1  0  0  0  0
  2  6  1  0  0  0  0
  3  7  2  0  0  0  0
  3  8  1  0  0  0  0
  4  9  2  0  0  0  0
  4 18  1  0  0  0  0
  5 10  2  0  0  0  0
  5 11  1  0  0  0  0
  6  7  1  0  0  0  0
  7 19  1  0  0  0  0
  8 12  2  0  0  0  0
  8 20  1  0  0  0  0
  9 12  1  0  0  0  0
  9 21  1  0  0  0  0
 10 13  1  0  0  0  0
 10 22  1  0  0  0  0
 11 14  2  0  0  0  0
 11 23  1  0  0  0  0
 12 15  1  0  0  0  0
 13 16  2  0  0  0  0
 13 24  1  0  0  0  0
 14 16  1  0  0  0  0
 14 25  1  0  0  0  0
 15 26  1  0  0  0  0
 16 17  1  0  0  0  0
 17 27  1  0  0  0  0
M  CHG  1   7   1
M  END
$$$$
