REMARK  3 active torsions:
REMARK  status: ('A' for Active; 'I' for Inactive)
REMARK    1  A    between atoms: C_2  and  C_5 
REMARK    2  A    between atoms: C_12  and  O_15 
REMARK    3  A    between atoms: C_16  and  O_17 
ROOT
ATOM      1  C   LIG d   1      64.516  33.867  25.233  0.00  0.00     0.028 A 
ATOM      2  C   LIG d   1      64.006  34.582  24.088  0.00  0.00     0.100 A 
ATOM      3  C   LIG d   1      63.400  33.307  25.858  0.00  0.00     0.070 A 
ATOM      4  C   LIG d   1      65.783  33.641  25.795  0.00  0.00     0.016 A 
ATOM      5  N   LIG d   1      62.686  34.392  24.003  0.00  0.00    -0.173 NA
ATOM      6  N   LIG d   1      62.301  33.694  25.123  0.00  0.00    -0.276 N 
ATOM      7  C   LIG d   1      63.504  32.550  27.032  0.00  0.00     0.073 A 
ATOM      8  C   LIG d   1      65.920  32.854  26.938  0.00  0.00     0.046 A 
ATOM      9  C   LIG d   1      64.780  32.359  27.560  0.00  0.00     0.119 A 
ATOM     10  H   LIG d   1      61.320  33.510  25.347  0.00  0.00     0.189 HD
ENDROOT
BRANCH   2  11
ATOM     11  C   LIG d   1      64.751  35.492  23.149  0.00  0.00     0.003 A 
ATOM     12  C   LIG d   1      64.098  36.029  22.021  0.00  0.00     0.013 A 
ATOM     13  C   LIG d   1      64.750  36.949  21.192  0.00  0.00     0.046 A 
ATOM     14  C   LIG d   1      66.057  37.339  21.475  0.00  0.00     0.117 A 
ATOM     15  C   LIG d   1      66.718  36.834  22.585  0.00  0.00     0.046 A 
ATOM     16  C   LIG d   1      66.052  35.943  23.425  0.00  0.00     0.013 A 
BRANCH  14  17
ATOM     17  O   LIG d   1      66.672  38.231  20.643  0.00  0.00    -0.507 OA
ATOM     18  H   LIG d   1      67.578  38.442  20.927  0.00  0.00     0.292 HD
ENDBRANCH  14  17
ENDBRANCH   2  11
BRANCH   9  19
ATOM     19  O   LIG d   1      64.857  31.652  28.727  0.00  0.00    -0.507 OA
ATOM     20  H   LIG d   1      65.772  31.551  29.036  0.00  0.00     0.292 HD
ENDBRANCH   9  19
TORSDOF 3
