@<TRIPOS>MOLECULE
4EEH_HH6_A_301
 27 29 0 0 0
SMALL
USER_CHARGES

@<TRIPOS>ATOM
      1 C          64.5164   33.8670   25.2333 C.ar    1  LIG1        0.0276
      2 C          64.0061   34.5819   24.0882 C.ar    1  LIG1        0.1002
      3 C          63.3998   33.3074   25.8585 C.ar    1  LIG1        0.0698
      4 C          65.7834   33.6406   25.7954 C.ar    1  LIG1       -0.0470
      5 C          64.7515   35.4916   23.1490 C.ar    1  LIG1        0.0029
      6 N          62.6861   34.3924   24.0026 N.ar    1  LIG1       -0.1727
      7 N          62.3011   33.6936   25.1230 N.ar    1  LIG1       -0.2763
      8 C          63.5040   32.5498   27.0316 C.ar    1  LIG1        0.0052
      9 C          65.9203   32.8541   26.9382 C.ar    1  LIG1       -0.0194
     10 C          64.0980   36.0292   22.0212 C.ar    1  LIG1       -0.0490
     11 C          66.0519   35.9428   23.4249 C.ar    1  LIG1       -0.0490
     12 C          64.7802   32.3593   27.5599 C.ar    1  LIG1        0.1189
     13 C          64.7501   36.9492   21.1918 C.ar    1  LIG1       -0.0196
     14 C          66.7176   36.8345   22.5854 C.ar    1  LIG1       -0.0196
     15 O          64.8568   31.6525   28.7269 O.3     1  LIG1       -0.5067
     16 C          66.0569   37.3388   21.4749 C.ar    1  LIG1        0.1169
     17 O          66.6725   38.2313   20.6428 O.3     1  LIG1       -0.5068
     18 H          66.6788   34.0617   25.3412 H       1  LIG1        0.0626
     19 H          61.3198   33.5095   25.3467 H       1  LIG1        0.1889
     20 H          62.6396   32.1162   27.5223 H       1  LIG1        0.0675
     21 H          66.9054   32.6342   27.3231 H       1  LIG1        0.0654
     22 H          63.0702   35.7452   21.8047 H       1  LIG1        0.0625
     23 H          66.5576   35.6211   24.3257 H       1  LIG1        0.0625
     24 H          64.2288   37.3512   20.3267 H       1  LIG1        0.0654
     25 H          67.7378   37.1257   22.8002 H       1  LIG1        0.0654
     26 H          65.7716   31.5511   29.0356 H       1  LIG1        0.2921
     27 H          67.5778   38.4418   20.9274 H       1  LIG1        0.2921
@<TRIPOS>BOND
     1     1     2   ar
     2     1     3   ar
     3     1     4   ar
     4     2     5    1
     5     2     6   ar
     6     3     7   ar
     7     3     8   ar
     8     4     9   ar
     9     4    18    1
    10     5    10   ar
    11     5    11   ar
    12     6     7   ar
    13     7    19    1
    14     8    12   ar
    15     8    20    1
    16     9    12   ar
    17     9    21    1
    18    10    13   ar
    19    10    22    1
    20    11    14   ar
    21    11    23    1
    22    12    15    1
    23    13    16   ar
    24    13    24    1
    25    14    16   ar
    26    14    25    1
    27    15    26    1
    28    16    17    1
    29    17    27    1
