@<TRIPOS>MOLECULE
4NH7_HIE_A_301
 60 63 0 0 0
SMALL
USER_CHARGES

@<TRIPOS>ATOM
      1 C          17.0572    7.7489   14.3498 C.3     1  LIG1        0.0208
      2 C          18.0437    9.9896   15.0441 C.ar    1  LIG1        0.0416
      3 C          18.7655   11.1568   14.6750 C.ar    1  LIG1        0.0574
      4 N          20.3165   12.1328   13.0609 N.am    1  LIG1       -0.3253
      5 C          18.6158   12.0453   16.9293 C.ar    1  LIG1       -0.0354
      6 O          18.5608   10.9342   12.3066 O.2     1  LIG1       -0.2704
      7 N          17.7802    8.9908   14.1212 N.pl3   1  LIG1       -0.3403
      8 N          17.3090   10.8554   18.5833 N.ar    1  LIG1       -0.2354
      9 C          17.8841   10.9190   17.2990 C.ar    1  LIG1        0.0675
     10 C          17.6433    9.8813   16.3846 C.ar    1  LIG1       -0.0146
     11 N          17.3581    9.7072   19.2896 N.ar    1  LIG1       -0.1614
     12 C          16.8276    5.3915   13.4880 C.3     1  LIG1       -0.0252
     13 C          15.3217    5.5650   13.3411 C.3     1  LIG1        0.0554
     14 C          14.7815    6.6154   14.3077 C.3     1  LIG1       -0.0252
     15 C          15.5406    7.9421   14.2192 C.3     1  LIG1       -0.0323
     16 C          16.6960    9.9598   20.4414 C.ar    1  LIG1        0.1763
     17 C          16.1717   11.2772   20.4278 C.ar    1  LIG1        0.0704
     18 C          16.5866   11.8231   19.2352 C.ar    1  LIG1        0.0565
     19 C          15.0249   13.4717   20.9609 C.3     1  LIG1        0.0161
     20 C          13.6654   13.0091   18.8840 C.3     1  LIG1       -0.0591
     21 C          19.0583   12.1602   15.6205 C.ar    1  LIG1       -0.0459
     22 F          17.0860    7.7137   21.1382 F       1  LIG1       -0.1643
     23 O          14.9159   11.5202   22.3929 O.2     1  LIG1       -0.2919
     24 F          17.1526    9.2597   22.6710 F       1  LIG1       -0.1643
     25 F          15.2382    8.6562   21.7908 F       1  LIG1       -0.1643
     26 O          14.6818    4.3167   13.5842 O.3     1  LIG1       -0.3918
     27 C          19.1849   11.3861   13.2594 C.2     1  LIG1        0.2433
     28 C          17.5523    6.7182   13.3282 C.3     1  LIG1       -0.0323
     29 C          16.1999   13.1696   18.7163 C.3     1  LIG1       -0.0040
     30 C          14.9264   13.6993   19.4315 C.3     1  LIG1       -0.0225
     31 C          15.3262   12.0170   21.3430 C.2     1  LIG1        0.1675
     32 C          14.7963   15.2054   19.1466 C.3     1  LIG1       -0.0591
     33 C          16.5422    8.9087   21.5075 C.3     1  LIG1        0.4366
     34 H          17.2842    7.3581   15.3484 H       1  LIG1        0.0497
     35 H          20.6296   12.2724   12.1095 H       1  LIG1        0.1453
     36 H          20.9262   12.4277   13.8084 H       1  LIG1        0.1453
     37 H          18.8721   12.8172   17.6504 H       1  LIG1        0.0639
     38 H          18.0343    9.2141   13.1538 H       1  LIG1        0.1464
     39 H          17.0711    9.0192   16.7205 H       1  LIG1        0.0657
     40 H          17.1907    4.6727   12.7449 H       1  LIG1        0.0291
     41 H          17.0567    4.9591   14.4704 H       1  LIG1        0.0291
     42 H          15.0840    5.8638   12.3133 H       1  LIG1        0.0593
     43 H          14.8311    6.2267   15.3329 H       1  LIG1        0.0291
     44 H          13.7170    6.7793   14.1003 H       1  LIG1        0.0291
     45 H          15.3031    8.4289   13.2647 H       1  LIG1        0.0284
     46 H          15.1794    8.6080   15.0111 H       1  LIG1        0.0284
     47 H          14.0878   13.7726   21.4440 H       1  LIG1        0.0350
     48 H          15.8284   14.0940   21.3731 H       1  LIG1        0.0350
     49 H          13.6859   11.9305   19.0619 H       1  LIG1        0.0235
     50 H          13.5715   13.1699   17.8047 H       1  LIG1        0.0235
     51 H          12.7628   13.4085   19.3612 H       1  LIG1        0.0235
     52 H          19.6088   13.0525   15.3384 H       1  LIG1        0.0626
     53 H          14.9124    4.0261   14.4843 H       1  LIG1        0.2098
     54 H          18.6295    6.5634   13.4523 H       1  LIG1        0.0284
     55 H          17.3974    7.0942   12.3079 H       1  LIG1        0.0284
     56 H          16.0194   13.1352   17.6368 H       1  LIG1        0.0334
     57 H          17.0301   13.8597   18.9099 H       1  LIG1        0.0334
     58 H          13.9021   15.6243   19.6218 H       1  LIG1        0.0235
     59 H          14.7234   15.3935   18.0691 H       1  LIG1        0.0235
     60 H          15.6652   15.7545   19.5249 H       1  LIG1        0.0235
@<TRIPOS>BOND
     1     1     7    1
     2     1    15    1
     3     1    28    1
     4     1    34    1
     5     2     3   ar
     6     2     7    1
     7     2    10   ar
     8     3    21   ar
     9     3    27    1
    10     4    27   am
    11     4    35    1
    12     4    36    1
    13     5     9   ar
    14     5    21   ar
    15     5    37    1
    16     6    27    2
    17     7    38    1
    18     8     9    1
    19     8    11   ar
    20     8    18   ar
    21     9    10   ar
    22    10    39    1
    23    11    16   ar
    24    12    13    1
    25    12    28    1
    26    12    40    1
    27    12    41    1
    28    13    14    1
    29    13    26    1
    30    13    42    1
    31    14    15    1
    32    14    43    1
    33    14    44    1
    34    15    45    1
    35    15    46    1
    36    16    17   ar
    37    16    33    1
    38    17    18   ar
    39    17    31    1
    40    18    29    1
    41    19    30    1
    42    19    31    1
    43    19    47    1
    44    19    48    1
    45    20    30    1
    46    20    49    1
    47    20    50    1
    48    20    51    1
    49    21    52    1
    50    22    33    1
    51    23    31    2
    52    24    33    1
    53    25    33    1
    54    26    53    1
    55    28    54    1
    56    28    55    1
    57    29    30    1
    58    29    56    1
    59    29    57    1
    60    30    32    1
    61    32    58    1
    62    32    59    1
    63    32    60    1
