REMARK  6 active torsions:
REMARK  status: ('A' for Active; 'I' for Inactive)
REMARK    1  A    between atoms: C_1  and  N_7 
REMARK    2  A    between atoms: C_2  and  N_7 
REMARK    3  A    between atoms: C_3  and  C_27 
REMARK       I    between atoms: N_4  and  C_27 
REMARK    4  A    between atoms: N_8  and  C_9 
REMARK    5  A    between atoms: C_13  and  O_26 
REMARK    6  A    between atoms: C_16  and  C_33 
ROOT
ATOM      1  C   LIG d   1      18.044   9.990  15.044  0.00  0.00     0.042 A 
ATOM      2  C   LIG d   1      18.765  11.157  14.675  0.00  0.00     0.057 A 
ATOM      3  C   LIG d   1      18.616  12.045  16.929  0.00  0.00     0.028 A 
ATOM      4  C   LIG d   1      17.884  10.919  17.299  0.00  0.00     0.068 A 
ATOM      5  C   LIG d   1      17.643   9.881  16.385  0.00  0.00     0.051 A 
ATOM      6  C   LIG d   1      19.058  12.160  15.620  0.00  0.00     0.017 A 
ENDROOT
BRANCH   4   7
ATOM      7  N   LIG d   1      17.309  10.855  18.583  0.00  0.00    -0.235 N 
ATOM      8  N   LIG d   1      17.358   9.707  19.290  0.00  0.00    -0.161 NA
ATOM      9  C   LIG d   1      16.696   9.960  20.441  0.00  0.00     0.176 A 
ATOM     10  C   LIG d   1      16.172  11.277  20.428  0.00  0.00     0.070 A 
ATOM     11  C   LIG d   1      16.587  11.823  19.235  0.00  0.00     0.057 A 
ATOM     12  C   LIG d   1      15.326  12.017  21.343  0.00  0.00     0.168 C 
ATOM     13  C   LIG d   1      16.200  13.170  18.716  0.00  0.00     0.063 C 
ATOM     14  C   LIG d   1      14.926  13.699  19.431  0.00  0.00    -0.022 C 
ATOM     15  C   LIG d   1      15.025  13.472  20.961  0.00  0.00     0.086 C 
ATOM     16  C   LIG d   1      13.665  13.009  18.884  0.00  0.00     0.011 C 
ATOM     17  C   LIG d   1      14.796  15.205  19.147  0.00  0.00     0.011 C 
ATOM     18  O   LIG d   1      14.916  11.520  22.393  0.00  0.00    -0.292 OA
BRANCH   9  19
ATOM     19  C   LIG d   1      16.542   8.909  21.508  0.00  0.00     0.437 C 
ATOM     20  F   LIG d   1      17.086   7.714  21.138  0.00  0.00    -0.164 F 
ATOM     21  F   LIG d   1      17.153   9.260  22.671  0.00  0.00    -0.164 F 
ATOM     22  F   LIG d   1      15.238   8.656  21.791  0.00  0.00    -0.164 F 
ENDBRANCH   9  19
ENDBRANCH   4   7
BRANCH   1  23
ATOM     23  N   LIG d   1      17.780   8.991  14.121  0.00  0.00    -0.340 N 
ATOM     24  H   LIG d   1      18.034   9.214  13.154  0.00  0.00     0.146 HD
BRANCH  23  25
ATOM     25  C   LIG d   1      17.057   7.749  14.350  0.00  0.00     0.071 C 
ATOM     26  C   LIG d   1      15.541   7.942  14.219  0.00  0.00     0.025 C 
ATOM     27  C   LIG d   1      14.781   6.615  14.308  0.00  0.00     0.033 C 
ATOM     28  C   LIG d   1      15.322   5.565  13.341  0.00  0.00     0.115 C 
ATOM     29  C   LIG d   1      16.828   5.391  13.488  0.00  0.00     0.033 C 
ATOM     30  C   LIG d   1      17.552   6.718  13.328  0.00  0.00     0.025 C 
BRANCH  28  31
ATOM     31  O   LIG d   1      14.682   4.317  13.584  0.00  0.00    -0.392 OA
ATOM     32  H   LIG d   1      14.912   4.026  14.484  0.00  0.00     0.210 HD
ENDBRANCH  28  31
ENDBRANCH  23  25
ENDBRANCH   1  23
BRANCH   2  33
ATOM     33  C   LIG d   1      19.185  11.386  13.259  0.00  0.00     0.243 C 
ATOM     34  N   LIG d   1      20.317  12.133  13.061  0.00  0.00    -0.325 N 
ATOM     35  H   LIG d   1      20.630  12.272  12.110  0.00  0.00     0.145 HD
ATOM     36  H   LIG d   1      20.926  12.428  13.808  0.00  0.00     0.145 HD
ATOM     37  O   LIG d   1      18.561  10.934  12.307  0.00  0.00    -0.270 OA
ENDBRANCH   2  33
TORSDOF 6
