5FNC_IEE_A_1225
 OpenBabel03301717383D

 30 31  0  0  0  0  0  0  0  0999 V2000
    0.6368   10.1730   26.1929 C   0  0  0  0  0  0  0  0  0  0  0  0
   -0.6922   10.1667   26.5103 C   0  0  0  0  0  0  0  0  0  0  0  0
   -1.2167    9.5197   28.0103 Cl  0  0  0  0  0  0  0  0  0  0  0  0
   -1.6609   10.6183   25.7119 N   0  0  0  0  0  0  0  0  0  0  0  0
   -1.2585   11.1029   24.5418 C   0  0  0  0  0  0  0  0  0  0  0  0
   -2.2462   11.4411   23.6558 N   0  0  0  0  0  0  0  0  0  0  0  0
    0.0283   11.2335   24.1653 N   0  0  0  0  0  0  0  0  0  0  0  0
    0.9621   10.7239   24.9815 C   0  0  0  0  0  0  0  0  0  0  0  0
    2.2983   10.7082   24.6539 N   0  0  0  0  0  0  0  0  0  0  0  0
    3.0223   11.7270   23.9312 C   0  0  0  0  0  0  0  0  0  0  0  0
    4.4026   11.1872   23.5790 C   0  0  0  0  0  0  0  0  0  0  0  0
    4.5706    9.8498   23.1785 C   0  0  0  0  0  0  0  0  0  0  0  0
    5.8348    9.3217   22.9246 C   0  0  0  0  0  0  0  0  0  0  0  0
    6.9654   10.1345   23.0040 C   0  0  0  0  0  0  0  0  0  0  0  0
    8.3211    9.5695   22.6992 C   0  0  0  0  0  0  0  0  0  0  0  0
    6.8097   11.4822   23.3518 C   0  0  0  0  0  0  0  0  0  0  0  0
    5.5416   12.0050   23.6418 C   0  0  0  0  0  0  0  0  0  0  0  0
    1.3913    9.7745   26.8628 H   0  0  0  0  0  0  0  0  0  0  0  0
   -1.9523   12.0470   22.9014 H   0  0  0  0  0  0  0  0  0  0  0  0
   -3.1461   11.5690   24.0864 H   0  0  0  0  0  0  0  0  0  0  0  0
    2.8119    9.8791   24.9230 H   0  0  0  0  0  0  0  0  0  0  0  0
    3.1395   12.5867   24.6025 H   0  0  0  0  0  0  0  0  0  0  0  0
    2.5146   12.0637   23.0210 H   0  0  0  0  0  0  0  0  0  0  0  0
    3.7096    9.1918   23.0793 H   0  0  0  0  0  0  0  0  0  0  0  0
    5.9239    8.2705   22.6619 H   0  0  0  0  0  0  0  0  0  0  0  0
    8.2595    8.5023   22.4558 H   0  0  0  0  0  0  0  0  0  0  0  0
    8.9823    9.6752   23.5640 H   0  0  0  0  0  0  0  0  0  0  0  0
    8.7572   10.0820   21.8372 H   0  0  0  0  0  0  0  0  0  0  0  0
    7.6796   12.1347   23.4031 H   0  0  0  0  0  0  0  0  0  0  0  0
    5.4554   13.0522   23.9232 H   0  0  0  0  0  0  0  0  0  0  0  0
  1  2  2  0  0  0  0
  1  8  1  0  0  0  0
  1 18  1  0  0  0  0
  2  3  1  0  0  0  0
  2  4  1  0  0  0  0
  4  5  2  0  0  0  0
  5  6  1  0  0  0  0
  5  7  1  0  0  0  0
  6 19  1  0  0  0  0
  6 20  1  0  0  0  0
  7  8  2  0  0  0  0
  8  9  1  0  0  0  0
  9 10  1  0  0  0  0
  9 21  1  0  0  0  0
 10 11  1  0  0  0  0
 10 22  1  0  0  0  0
 10 23  1  0  0  0  0
 11 12  2  0  0  0  0
 11 17  1  0  0  0  0
 12 13  1  0  0  0  0
 12 24  1  0  0  0  0
 13 14  2  0  0  0  0
 13 25  1  0  0  0  0
 14 15  1  0  0  0  0
 14 16  1  0  0  0  0
 15 26  1  0  0  0  0
 15 27  1  0  0  0  0
 15 28  1  0  0  0  0
 16 17  2  0  0  0  0
 16 29  1  0  0  0  0
 17 30  1  0  0  0  0
M  END
$$$$
