REMARK  4 active torsions:
REMARK  status: ('A' for Active; 'I' for Inactive)
REMARK    1  A    between atoms: C_5  and  N_6 
REMARK    2  A    between atoms: C_8  and  N_9 
REMARK    3  A    between atoms: N_9  and  C_10 
REMARK    4  A    between atoms: C_10  and  C_11 
ROOT
ATOM      1  C   LIG d   1       0.637  10.173  26.193  0.00  0.00     0.083 A 
ATOM      2  C   LIG d   1      -0.692  10.167  26.510  0.00  0.00     0.136 A 
ATOM      3 CL   LIG d   1      -1.217   9.520  28.010  0.00  0.00    -0.062 Cl
ATOM      4  N   LIG d   1      -1.661  10.618  25.712  0.00  0.00    -0.203 NA
ATOM      5  C   LIG d   1      -1.258  11.103  24.542  0.00  0.00     0.216 A 
ATOM      6  N   LIG d   1       0.028  11.233  24.165  0.00  0.00    -0.200 NA
ATOM      7  C   LIG d   1       0.962  10.724  24.982  0.00  0.00     0.126 A 
ENDROOT
BRANCH   7   8
ATOM      8  N   LIG d   1       2.298  10.708  24.654  0.00  0.00    -0.325 N 
ATOM      9  H   LIG d   1       2.812   9.879  24.923  0.00  0.00     0.148 HD
BRANCH   8  10
ATOM     10  C   LIG d   1       3.022  11.727  23.931  0.00  0.00     0.138 C 
BRANCH  10  11
ATOM     11  C   LIG d   1       4.403  11.187  23.579  0.00  0.00    -0.030 A 
ATOM     12  C   LIG d   1       4.571   9.850  23.178  0.00  0.00     0.005 A 
ATOM     13  C   LIG d   1       5.835   9.322  22.925  0.00  0.00     0.003 A 
ATOM     14  C   LIG d   1       6.965  10.134  23.004  0.00  0.00    -0.050 A 
ATOM     15  C   LIG d   1       8.321   9.569  22.699  0.00  0.00     0.044 C 
ATOM     16  C   LIG d   1       6.810  11.482  23.352  0.00  0.00     0.003 A 
ATOM     17  C   LIG d   1       5.542  12.005  23.642  0.00  0.00     0.005 A 
ENDBRANCH  10  11
ENDBRANCH   8  10
ENDBRANCH   7   8
BRANCH   5  18
ATOM     18  N   LIG d   1      -2.246  11.441  23.656  0.00  0.00    -0.327 N 
ATOM     19  H   LIG d   1      -1.952  12.047  22.901  0.00  0.00     0.145 HD
ATOM     20  H   LIG d   1      -3.146  11.569  24.086  0.00  0.00     0.145 HD
ENDBRANCH   5  18
TORSDOF 4
