@<TRIPOS>MOLECULE
5FNC_IEE_A_1225
 30 31 0 0 0
SMALL
USER_CHARGES

@<TRIPOS>ATOM
      1 C           0.6368   10.1730   26.1929 C.ar    1  LIG1        0.0151
      2 C          -0.6922   10.1667   26.5103 C.ar    1  LIG1        0.1361
      3 CL         -1.2167    9.5197   28.0103 Cl      1  LIG1       -0.0618
      4 N          -1.6609   10.6183   25.7119 N.ar    1  LIG1       -0.2029
      5 C          -1.2585   11.1029   24.5418 C.ar    1  LIG1        0.2156
      6 N          -2.2462   11.4411   23.6558 N.pl3   1  LIG1       -0.3274
      7 N           0.0283   11.2335   24.1653 N.ar    1  LIG1       -0.1998
      8 C           0.9621   10.7239   24.9815 C.ar    1  LIG1        0.1255
      9 N           2.2983   10.7082   24.6539 N.pl3   1  LIG1       -0.3248
     10 C           3.0223   11.7270   23.9312 C.3     1  LIG1        0.0357
     11 C           4.4026   11.1872   23.5790 C.ar    1  LIG1       -0.0303
     12 C           4.5706    9.8498   23.1785 C.ar    1  LIG1       -0.0568
     13 C           5.8348    9.3217   22.9246 C.ar    1  LIG1       -0.0585
     14 C           6.9654   10.1345   23.0040 C.ar    1  LIG1       -0.0504
     15 C           8.3211    9.5695   22.6992 C.3     1  LIG1       -0.0397
     16 C           6.8097   11.4822   23.3518 C.ar    1  LIG1       -0.0585
     17 C           5.5416   12.0050   23.6418 C.ar    1  LIG1       -0.0568
     18 H           1.3913    9.7745   26.8628 H       1  LIG1        0.0682
     19 H          -1.9523   12.0470   22.9014 H       1  LIG1        0.1452
     20 H          -3.1461   11.5690   24.0864 H       1  LIG1        0.1452
     21 H           2.8119    9.8791   24.9230 H       1  LIG1        0.1478
     22 H           3.1395   12.5867   24.6025 H       1  LIG1        0.0511
     23 H           2.5146   12.0637   23.0210 H       1  LIG1        0.0511
     24 H           3.7096    9.1918   23.0793 H       1  LIG1        0.0621
     25 H           5.9239    8.2705   22.6619 H       1  LIG1        0.0620
     26 H           8.2595    8.5023   22.4558 H       1  LIG1        0.0278
     27 H           8.9823    9.6752   23.5640 H       1  LIG1        0.0278
     28 H           8.7572   10.0820   21.8372 H       1  LIG1        0.0278
     29 H           7.6796   12.1347   23.4031 H       1  LIG1        0.0620
     30 H           5.4554   13.0522   23.9232 H       1  LIG1        0.0621
@<TRIPOS>BOND
     1     1     2   ar
     2     1     8   ar
     3     1    18    1
     4     2     3    1
     5     2     4   ar
     6     4     5   ar
     7     5     6    1
     8     5     7   ar
     9     6    19    1
    10     6    20    1
    11     7     8   ar
    12     8     9    1
    13     9    10    1
    14     9    21    1
    15    10    11    1
    16    10    22    1
    17    10    23    1
    18    11    12   ar
    19    11    17   ar
    20    12    13   ar
    21    12    24    1
    22    13    14   ar
    23    13    25    1
    24    14    15    1
    25    14    16   ar
    26    15    26    1
    27    15    27    1
    28    15    28    1
    29    16    17   ar
    30    16    29    1
    31    17    30    1
