REMARK  7 active torsions:
REMARK  status: ('A' for Active; 'I' for Inactive)
REMARK    1  A    between atoms: C_6  and  N_7 
REMARK    2  A    between atoms: N_7  and  C_8 
REMARK    3  A    between atoms: C_8  and  C_9 
REMARK    4  A    between atoms: C_9  and  O_10 
REMARK    5  A    between atoms: C_14  and  N_15 
REMARK    6  A    between atoms: C_18  and  C_20 
REMARK    7  A    between atoms: C_20  and  C_21 
ROOT
ATOM      1  F   LIG d   1       3.874  16.730  26.261  0.00  0.00    -0.205 F 
ATOM      2  C   LIG d   1       4.437  15.646  25.695  0.00  0.00     0.127 A 
ATOM      3  C   LIG d   1       3.643  14.639  25.209  0.00  0.00     0.067 A 
ATOM      4  C   LIG d   1       4.241  13.523  24.627  0.00  0.00     0.081 A 
ATOM      5  C   LIG d   1       5.656  13.431  24.545  0.00  0.00     0.066 A 
ATOM      6  C   LIG d   1       6.466  14.472  25.023  0.00  0.00     0.043 A 
ATOM      7  C   LIG d   1       5.822  15.584  25.588  0.00  0.00     0.062 A 
ATOM      8  C   LIG d   1       6.188  12.211  23.946  0.00  0.00     0.171 A 
ATOM      9  N   LIG d   1       7.419  11.779  23.740  0.00  0.00    -0.194 NA
ATOM     10  C   LIG d   1       7.217  10.567  23.148  0.00  0.00     0.233 A 
ATOM     11  N   LIG d   1       5.947  10.208  22.979  0.00  0.00    -0.128 NA
ATOM     12  N   LIG d   1       5.304  11.263  23.508  0.00  0.00    -0.196 N 
ATOM     13  C   LIG d   1       3.923  11.428  23.634  0.00  0.00     0.138 A 
ATOM     14  N   LIG d   1       3.391  12.499  24.154  0.00  0.00    -0.231 NA
ENDROOT
BRANCH  13  15
ATOM     15  C   LIG d   1       3.086  10.245  23.276  0.00  0.00     0.111 C 
BRANCH  15  16
ATOM     16  C   LIG d   1       3.126   9.238  24.405  0.00  0.00    -0.036 A 
ATOM     17  C   LIG d   1       3.639   7.950  24.160  0.00  0.00     0.008 A 
ATOM     18  C   LIG d   1       3.773   7.028  25.199  0.00  0.00     0.050 A 
ATOM     19  C   LIG d   1       3.388   7.415  26.465  0.00  0.00     0.166 A 
ATOM     20  C   LIG d   1       2.892   8.671  26.719  0.00  0.00     0.167 A 
ATOM     21  O   LIG d   1       3.447   6.646  27.586  0.00  0.00    -0.453 OA
ATOM     22  C   LIG d   1       2.748   9.604  25.713  0.00  0.00     0.053 A 
ATOM     23  O   LIG d   1       2.588   8.853  28.032  0.00  0.00    -0.453 OA
ATOM     24  C   LIG d   1       2.859   7.537  28.558  0.00  0.00     0.466 A 
ENDBRANCH  15  16
ENDBRANCH  13  15
BRANCH  10  25
ATOM     25  N   LIG d   1       8.271   9.852  22.779  0.00  0.00    -0.326 N 
ATOM     26  H   LIG d   1       8.161   8.945  22.349  0.00  0.00     0.145 HD
ATOM     27  H   LIG d   1       9.213  10.191  22.910  0.00  0.00     0.145 HD
ENDBRANCH  10  25
BRANCH   6  28
ATOM     28  N   LIG d   1       7.843  14.444  24.823  0.00  0.00    -0.341 N 
ATOM     29  H   LIG d   1       8.234  13.526  24.584  0.00  0.00     0.146 HD
BRANCH  28  30
ATOM     30  C   LIG d   1       8.726  15.404  25.455  0.00  0.00     0.129 C 
BRANCH  30  31
ATOM     31  C   LIG d   1       8.850  15.169  26.964  0.00  0.00     0.174 C 
BRANCH  31  32
ATOM     32  O   LIG d   1       9.866  15.993  27.524  0.00  0.00    -0.394 OA
ATOM     33  H   LIG d   1      10.709  15.729  27.118  0.00  0.00     0.209 HD
ENDBRANCH  31  32
ENDBRANCH  30  31
ENDBRANCH  28  30
ENDBRANCH   6  28
TORSDOF 7
