@<TRIPOS>MOLECULE
4CWT_IK9_A_1225
 46 50 0 0 0
SMALL
USER_CHARGES

@<TRIPOS>ATOM
      1 F           3.8742   16.7304   26.2609 F       1  LIG1       -0.2054
      2 C           4.4373   15.6456   25.6951 C.ar    1  LIG1        0.1272
      3 C           3.6426   14.6387   25.2090 C.ar    1  LIG1       -0.0002
      4 C           4.2413   13.5225   24.6266 C.ar    1  LIG1        0.0811
      5 C           5.6558   13.4311   24.5454 C.ar    1  LIG1        0.0657
      6 C           6.4660   14.4723   25.0231 C.ar    1  LIG1        0.0428
      7 N           7.8434   14.4438   24.8231 N.pl3   1  LIG1       -0.3410
      8 C           8.7255   15.4038   25.4551 C.3     1  LIG1        0.0323
      9 C           8.8501   15.1686   26.9641 C.3     1  LIG1        0.0596
     10 O           9.8660   15.9932   27.5244 O.3     1  LIG1       -0.3935
     11 C           5.8215   15.5839   25.5878 C.ar    1  LIG1       -0.0048
     12 C           6.1883   12.2109   23.9464 C.ar    1  LIG1        0.1706
     13 N           7.4186   11.7787   23.7401 N.ar    1  LIG1       -0.1935
     14 C           7.2174   10.5669   23.1475 C.ar    1  LIG1        0.2328
     15 N           8.2708    9.8516   22.7795 N.pl3   1  LIG1       -0.3262
     16 N           5.9468   10.2078   22.9786 N.ar    1  LIG1       -0.1276
     17 N           5.3045   11.2626   23.5079 N.ar    1  LIG1       -0.1962
     18 C           3.9232   11.4285   23.6338 C.ar    1  LIG1        0.1378
     19 N           3.3912   12.4991   24.1541 N.ar    1  LIG1       -0.2313
     20 C           3.0856   10.2447   23.2762 C.3     1  LIG1        0.0327
     21 C           3.1263    9.2383   24.4049 C.ar    1  LIG1       -0.0364
     22 C           3.6385    7.9505   24.1601 C.ar    1  LIG1       -0.0545
     23 C           3.7732    7.0282   25.1992 C.ar    1  LIG1       -0.0159
     24 C           3.3883    7.4149   26.4655 C.ar    1  LIG1        0.1662
     25 C           2.8924    8.6705   26.7186 C.ar    1  LIG1        0.1665
     26 C           2.7481    9.6037   25.7135 C.ar    1  LIG1       -0.0126
     27 O           3.4466    6.6457   27.5864 O.3     1  LIG1       -0.4526
     28 C           2.8593    7.5366   28.5582 C.3     1  LIG1        0.2332
     29 O           2.5879    8.8531   28.0322 O.3     1  LIG1       -0.4526
     30 H           2.5646   14.7115   25.2917 H       1  LIG1        0.0668
     31 H           8.2343   13.5260   24.5836 H       1  LIG1        0.1462
     32 H           8.3922   16.4281   25.2497 H       1  LIG1        0.0484
     33 H           9.7106   15.3366   24.9822 H       1  LIG1        0.0484
     34 H           9.0839   14.1214   27.1812 H       1  LIG1        0.0573
     35 H           7.9142   15.4055   27.4807 H       1  LIG1        0.0573
     36 H          10.7085   15.7292   27.1176 H       1  LIG1        0.2095
     37 H           6.3777   16.4359   25.9664 H       1  LIG1        0.0665
     38 H           8.1607    8.9448   22.3486 H       1  LIG1        0.1452
     39 H           9.2129   10.1911   22.9096 H       1  LIG1        0.1452
     40 H           3.4108    9.8156   22.3210 H       1  LIG1        0.0392
     41 H           2.0480   10.5776   23.1290 H       1  LIG1        0.0392
     42 H           3.9661    7.6788   23.1580 H       1  LIG1        0.0622
     43 H           4.1783    6.0424   25.0113 H       1  LIG1        0.0655
     44 H           2.3756   10.5982   25.9441 H       1  LIG1        0.0658
     45 H           3.5372    7.6246   29.4154 H       1  LIG1        0.1166
     46 H           1.9167    7.0996   28.9113 H       1  LIG1        0.1166
@<TRIPOS>BOND
     1     1     2    1
     2     2     3   ar
     3     2    11   ar
     4     3     4   ar
     5     3    30    1
     6     4     5   ar
     7     4    19   ar
     8     5     6   ar
     9     5    12   ar
    10     6     7    1
    11     6    11   ar
    12     7     8    1
    13     7    31    1
    14     8     9    1
    15     8    32    1
    16     8    33    1
    17     9    10    1
    18     9    34    1
    19     9    35    1
    20    10    36    1
    21    11    37    1
    22    12    13   ar
    23    12    17   ar
    24    13    14   ar
    25    14    15    1
    26    14    16   ar
    27    15    38    1
    28    15    39    1
    29    16    17   ar
    30    17    18   ar
    31    18    19   ar
    32    18    20    1
    33    20    21    1
    34    20    40    1
    35    20    41    1
    36    21    22   ar
    37    21    26   ar
    38    22    23   ar
    39    22    42    1
    40    23    24   ar
    41    23    43    1
    42    24    25   ar
    43    24    27    1
    44    25    26   ar
    45    25    29    1
    46    26    44    1
    47    27    28    1
    48    28    29    1
    49    28    45    1
    50    28    46    1
