@<TRIPOS>MOLECULE
5FND_IQ5_A_1225
 26 27 0 0 0
SMALL
USER_CHARGES

@<TRIPOS>ATOM
      1 C          34.1795    7.6109   28.0614 C.3     1  LIG1       -0.0379
      2 C          32.8877    8.1718   27.5436 C.ar    1  LIG1       -0.0281
      3 C          32.8916    8.8065   26.2824 C.ar    1  LIG1       -0.0412
      4 C          31.7075    9.3995   25.8210 C.ar    1  LIG1        0.0411
      5 S          31.4019   10.2270   24.3405 S.2     1  LIG1       -0.0526
      6 C          29.7717   10.4544   24.8139 C.ar    1  LIG1        0.1566
      7 N          28.8893   11.0806   24.0355 N.pl3   1  LIG1       -0.3375
      8 N          29.4512    9.9934   25.9943 N.ar    1  LIG1       -0.2251
      9 C          30.5404    9.3845   26.5801 C.ar    1  LIG1        0.0820
     10 C          30.5573    8.7718   27.8482 C.ar    1  LIG1       -0.0136
     11 C          31.7261    8.1579   28.3164 C.ar    1  LIG1        0.0384
     12 N          31.7407    7.6870   29.6448 N.am    1  LIG1       -0.2854
     13 C          31.8881    6.3491   29.9805 C.2     1  LIG1        0.2141
     14 O          32.0907    5.4397   29.1972 O.2     1  LIG1       -0.2758
     15 C          31.7618    6.1059   31.4673 C.3     1  LIG1        0.0125
     16 H          35.0010    7.7888   27.3607 H       1  LIG1        0.0278
     17 H          34.0966    6.5313   28.2005 H       1  LIG1        0.0278
     18 H          34.4417    8.0931   29.0086 H       1  LIG1        0.0278
     19 H          33.7986    8.8586   25.6897 H       1  LIG1        0.0632
     20 H          27.9249   11.1307   24.3501 H       1  LIG1        0.1442
     21 H          29.0845   11.3558   23.0858 H       1  LIG1        0.1442
     22 H          29.6372    8.7510   28.4229 H       1  LIG1        0.0658
     23 H          31.2843    8.2776   30.3278 H       1  LIG1        0.1548
     24 H          31.5915    7.0333   32.0209 H       1  LIG1        0.0323
     25 H          32.6865    5.6530   31.8350 H       1  LIG1        0.0323
     26 H          30.9198    5.4329   31.6544 H       1  LIG1        0.0323
@<TRIPOS>BOND
     1     1     2    1
     2     1    16    1
     3     1    17    1
     4     1    18    1
     5     2     3   ar
     6     2    11   ar
     7     3     4   ar
     8     3    19    1
     9     4     5   ar
    10     4     9   ar
    11     5     6   ar
    12     6     7    1
    13     6     8   ar
    14     7    20    1
    15     7    21    1
    16     8     9   ar
    17     9    10   ar
    18    10    11   ar
    19    10    22    1
    20    11    12    1
    21    12    13   am
    22    12    23    1
    23    13    14    2
    24    13    15    1
    25    15    24    1
    26    15    25    1
    27    15    26    1
