REMARK  2 active torsions:
REMARK  status: ('A' for Active; 'I' for Inactive)
REMARK    1  A    between atoms: C_6  and  N_7 
REMARK    2  A    between atoms: C_11  and  N_12 
REMARK       I    between atoms: N_12  and  C_13 
ROOT
ATOM      1  C   LIG d   1      34.179   7.611  28.061  0.00  0.00     0.045 C 
ATOM      2  C   LIG d   1      32.888   8.172  27.544  0.00  0.00    -0.028 A 
ATOM      3  C   LIG d   1      32.892   8.806  26.282  0.00  0.00     0.022 A 
ATOM      4  C   LIG d   1      31.707   9.399  25.821  0.00  0.00     0.041 A 
ATOM      5  S   LIG d   1      31.402  10.227  24.340  0.00  0.00    -0.053 SA
ATOM      6  C   LIG d   1      29.772  10.454  24.814  0.00  0.00     0.157 A 
ATOM      7  N   LIG d   1      29.451   9.993  25.994  0.00  0.00    -0.225 NA
ATOM      8  C   LIG d   1      30.540   9.384  26.580  0.00  0.00     0.082 A 
ATOM      9  C   LIG d   1      30.557   8.772  27.848  0.00  0.00     0.052 A 
ATOM     10  C   LIG d   1      31.726   8.158  28.316  0.00  0.00     0.038 A 
ENDROOT
BRANCH  10  11
ATOM     11  N   LIG d   1      31.741   7.687  29.645  0.00  0.00    -0.285 N 
ATOM     12  C   LIG d   1      31.888   6.349  29.980  0.00  0.00     0.214 C 
ATOM     13  O   LIG d   1      32.091   5.440  29.197  0.00  0.00    -0.276 OA
ATOM     14  C   LIG d   1      31.762   6.106  31.467  0.00  0.00     0.109 C 
ATOM     15  H   LIG d   1      31.284   8.278  30.328  0.00  0.00     0.155 HD
ENDBRANCH  10  11
BRANCH   6  16
ATOM     16  N   LIG d   1      28.889  11.081  24.035  0.00  0.00    -0.338 N 
ATOM     17  H   LIG d   1      27.925  11.131  24.350  0.00  0.00     0.144 HD
ATOM     18  H   LIG d   1      29.084  11.356  23.086  0.00  0.00     0.144 HD
ENDBRANCH   6  16
TORSDOF 2
