4R3M_JR9_A_301
 OpenBabel03301717343D

 48 52  0  0  0  0  0  0  0  0999 V2000
  -35.1293  -10.5156  -26.3630 N   0  0  0  0  0  0  0  0  0  0  0  0
  -34.2443   -9.8299  -27.1984 C   0  0  0  0  0  0  0  0  0  0  0  0
  -32.9267   -9.5824  -26.9792 C   0  0  0  0  0  0  0  0  0  0  0  0
  -32.2657  -10.2001  -25.8593 N   0  0  0  0  0  0  0  0  0  0  0  0
  -32.0344  -11.1010  -26.2658 H   0  0  0  0  0  0  0  0  0  0  0  0
  -33.1370  -10.6351  -24.9229 C   0  0  0  0  0  0  0  0  0  0  0  0
  -34.5823  -10.8881  -25.2259 C   0  0  0  0  0  0  0  0  0  0  0  0
  -31.1025   -9.8383  -25.3568 C   0  0  0  0  0  0  0  0  0  0  0  0
  -31.0950  -10.4828  -24.1020 C   0  0  0  0  0  0  0  0  0  0  0  0
  -32.3534  -10.9920  -23.8718 N   0  0  0  0  0  0  0  0  0  0  0  0
  -35.3049  -11.5701  -24.2902 N   0  0  0  0  0  0  0  0  0  0  0  0
  -30.1121   -9.3144  -26.1412 N   0  0  0  0  0  0  0  0  0  0  0  0
  -29.7010   -7.9293  -26.0461 C   0  0  0  0  0  0  0  0  0  0  0  0
  -28.4653   -7.6700  -26.8878 C   0  0  0  0  0  0  0  0  0  0  0  0
  -27.3331   -7.0172  -26.3832 C   0  0  0  0  0  0  0  0  0  0  0  0
  -26.2157   -6.7856  -27.1998 C   0  0  0  0  0  0  0  0  0  0  0  0
  -26.2217   -7.1941  -28.5344 C   0  0  0  0  0  0  0  0  0  0  0  0
  -27.3456   -7.8360  -29.0454 C   0  0  0  0  0  0  0  0  0  0  0  0
  -28.4486   -8.0709  -28.2370 C   0  0  0  0  0  0  0  0  0  0  0  0
  -29.9165  -10.6971  -23.2157 C   0  0  0  0  0  0  0  0  0  0  0  0
  -28.9983  -11.8506  -23.6234 C   0  0  0  0  0  0  0  0  0  0  0  0
  -27.6035  -11.8160  -23.3913 C   0  0  0  0  0  0  0  0  0  0  0  0
  -26.7811  -12.9047  -23.7358 C   0  0  0  0  0  0  0  0  0  0  0  0
  -27.3655  -14.0250  -24.2956 C   0  0  0  0  0  0  0  0  0  0  0  0
  -28.7078  -14.0840  -24.5105 C   0  0  0  0  0  0  0  0  0  0  0  0
  -29.5356  -13.0277  -24.1761 C   0  0  0  0  0  0  0  0  0  0  0  0
  -26.7231  -15.1644  -24.6833 O   0  0  0  0  0  0  0  0  0  0  0  0
  -27.8435  -15.9795  -25.0957 C   0  0  0  0  0  0  0  0  0  0  0  0
  -29.0956  -15.2675  -25.0744 O   0  0  0  0  0  0  0  0  0  0  0  0
  -26.7362  -10.3075  -22.6101 Br  0  0  0  0  0  0  0  0  0  0  0  0
  -34.6828   -9.4901  -28.1292 H   0  0  0  0  0  0  0  0  0  0  0  0
  -32.3517   -9.0371  -27.7274 H   0  0  0  0  0  0  0  0  0  0  0  0
  -34.8382  -11.8495  -23.4381 H   0  0  0  0  0  0  0  0  0  0  0  0
  -36.2790  -11.7337  -24.4691 H   0  0  0  0  0  0  0  0  0  0  0  0
  -29.4227   -9.9455  -26.5245 H   0  0  0  0  0  0  0  0  0  0  0  0
  -29.5109   -7.6206  -25.0111 H   0  0  0  0  0  0  0  0  0  0  0  0
  -30.5095   -7.3058  -26.4401 H   0  0  0  0  0  0  0  0  0  0  0  0
  -27.2986   -6.6972  -25.3468 H   0  0  0  0  0  0  0  0  0  0  0  0
  -25.3402   -6.2876  -26.7950 H   0  0  0  0  0  0  0  0  0  0  0  0
  -25.3527   -7.0248  -29.1617 H   0  0  0  0  0  0  0  0  0  0  0  0
  -27.3536   -8.1611  -30.0833 H   0  0  0  0  0  0  0  0  0  0  0  0
  -29.3302   -8.5617  -28.6450 H   0  0  0  0  0  0  0  0  0  0  0  0
  -30.2331  -10.8229  -22.1743 H   0  0  0  0  0  0  0  0  0  0  0  0
  -29.3590   -9.7544  -23.2688 H   0  0  0  0  0  0  0  0  0  0  0  0
  -25.7103  -12.8606  -23.5726 H   0  0  0  0  0  0  0  0  0  0  0  0
  -30.6123  -13.1027  -24.3643 H   0  0  0  0  0  0  0  0  0  0  0  0
  -27.9181  -16.8425  -24.4205 H   0  0  0  0  0  0  0  0  0  0  0  0
  -27.6592  -16.3674  -26.1063 H   0  0  0  0  0  0  0  0  0  0  0  0
  1  2  1  0  0  0  0
  1  7  2  0  0  0  0
  2  3  2  0  0  0  0
  2 31  1  0  0  0  0
  3  4  1  0  0  0  0
  3 32  1  0  0  0  0
  4  5  1  0  0  0  0
  4  6  1  0  0  0  0
  4  8  1  0  0  0  0
  6  7  1  0  0  0  0
  6 10  2  0  0  0  0
  7 11  1  0  0  0  0
  8  9  2  0  0  0  0
  8 12  1  0  0  0  0
  9 10  1  0  0  0  0
  9 20  1  0  0  0  0
 11 33  1  0  0  0  0
 11 34  1  0  0  0  0
 12 13  1  0  0  0  0
 12 35  1  0  0  0  0
 13 14  1  0  0  0  0
 13 36  1  0  0  0  0
 13 37  1  0  0  0  0
 14 15  2  0  0  0  0
 14 19  1  0  0  0  0
 15 16  1  0  0  0  0
 15 38  1  0  0  0  0
 16 17  2  0  0  0  0
 16 39  1  0  0  0  0
 17 18  1  0  0  0  0
 17 40  1  0  0  0  0
 18 19  2  0  0  0  0
 18 41  1  0  0  0  0
 19 42  1  0  0  0  0
 20 21  1  0  0  0  0
 20 43  1  0  0  0  0
 20 44  1  0  0  0  0
 21 22  2  0  0  0  0
 21 26  1  0  0  0  0
 22 23  1  0  0  0  0
 22 30  1  0  0  0  0
 23 24  2  0  0  0  0
 23 45  1  0  0  0  0
 24 25  1  0  0  0  0
 24 27  1  0  0  0  0
 25 26  2  0  0  0  0
 25 29  1  0  0  0  0
 26 46  1  0  0  0  0
 27 28  1  0  0  0  0
 28 29  1  0  0  0  0
 28 47  1  0  0  0  0
 28 48  1  0  0  0  0
M  END
$$$$
