REMARK  6 active torsions:
REMARK  status: ('A' for Active; 'I' for Inactive)
REMARK    1  A    between atoms: C_7  and  N_11 
REMARK    2  A    between atoms: C_8  and  N_12 
REMARK    3  A    between atoms: C_9  and  C_20 
REMARK    4  A    between atoms: N_12  and  C_13 
REMARK    5  A    between atoms: C_13  and  C_14 
REMARK    6  A    between atoms: C_20  and  C_21 
ROOT
ATOM      1  N   LIG d   1     -35.129 -10.516 -26.363  0.00  0.00     0.000 NA
ATOM      2  C   LIG d   1     -34.244  -9.830 -27.198  0.00  0.00     0.000 C 
ATOM      3  C   LIG d   1     -32.927  -9.582 -26.979  0.00  0.00     0.000 C 
ATOM      4  N   LIG d   1     -32.266 -10.200 -25.859  0.00  0.00     1.000 N 
ATOM      5  H   LIG d   1     -32.034 -11.101 -26.266  0.00  0.00     0.000 HD
ATOM      6  C   LIG d   1     -33.137 -10.635 -24.923  0.00  0.00     0.000 C 
ATOM      7  C   LIG d   1     -34.582 -10.888 -25.226  0.00  0.00     0.000 C 
ATOM      8  C   LIG d   1     -31.102  -9.838 -25.357  0.00  0.00     0.000 C 
ATOM      9  C   LIG d   1     -31.095 -10.483 -24.102  0.00  0.00     0.000 C 
ATOM     10  N   LIG d   1     -32.353 -10.992 -23.872  0.00  0.00     0.000 NA
ENDROOT
BRANCH   9  11
ATOM     11  C   LIG d   1     -29.916 -10.697 -23.216  0.00  0.00     0.000 C 
BRANCH  11  12
ATOM     12  C   LIG d   1     -28.998 -11.851 -23.623  0.00  0.00     0.000 A 
ATOM     13  C   LIG d   1     -27.604 -11.816 -23.391  0.00  0.00     0.000 A 
ATOM     14  C   LIG d   1     -26.781 -12.905 -23.736  0.00  0.00     0.000 A 
ATOM     15 BR   LIG d   1     -26.736 -10.307 -22.610  0.00  0.00     0.000 Br
ATOM     16  C   LIG d   1     -27.366 -14.025 -24.296  0.00  0.00     0.000 A 
ATOM     17  C   LIG d   1     -28.708 -14.084 -24.511  0.00  0.00     0.000 A 
ATOM     18  O   LIG d   1     -26.723 -15.164 -24.683  0.00  0.00     0.000 OA
ATOM     19  C   LIG d   1     -29.536 -13.028 -24.176  0.00  0.00     0.000 A 
ATOM     20  O   LIG d   1     -29.096 -15.268 -25.074  0.00  0.00     0.000 OA
ATOM     21  C   LIG d   1     -27.843 -15.979 -25.096  0.00  0.00     0.000 A 
ENDBRANCH  11  12
ENDBRANCH   9  11
BRANCH   8  22
ATOM     22  N   LIG d   1     -30.112  -9.314 -26.141  0.00  0.00     0.000 N 
ATOM     23  H   LIG d   1     -29.423  -9.945 -26.524  0.00  0.00     0.000 HD
BRANCH  22  24
ATOM     24  C   LIG d   1     -29.701  -7.929 -26.046  0.00  0.00     0.000 C 
BRANCH  24  25
ATOM     25  C   LIG d   1     -28.465  -7.670 -26.888  0.00  0.00     0.000 A 
ATOM     26  C   LIG d   1     -27.333  -7.017 -26.383  0.00  0.00     0.000 A 
ATOM     27  C   LIG d   1     -26.216  -6.786 -27.200  0.00  0.00     0.000 A 
ATOM     28  C   LIG d   1     -26.222  -7.194 -28.534  0.00  0.00     0.000 A 
ATOM     29  C   LIG d   1     -27.346  -7.836 -29.045  0.00  0.00     0.000 A 
ATOM     30  C   LIG d   1     -28.449  -8.071 -28.237  0.00  0.00     0.000 A 
ENDBRANCH  24  25
ENDBRANCH  22  24
ENDBRANCH   8  22
BRANCH   7  31
ATOM     31  N   LIG d   1     -35.305 -11.570 -24.290  0.00  0.00     0.000 N 
ATOM     32  H   LIG d   1     -34.838 -11.850 -23.438  0.00  0.00     0.000 HD
ATOM     33  H   LIG d   1     -36.279 -11.734 -24.469  0.00  0.00     0.000 HD
ENDBRANCH   7  31
TORSDOF 6
