@<TRIPOS>MOLECULE
4R3M_JR9_A_301
 48 52 0 0 0
SMALL
USER_CHARGES

@<TRIPOS>ATOM
      1 N         -35.1293  -10.5156  -26.3630 N.2     1  LIG1        0.0000
      2 C         -34.2443   -9.8299  -27.1984 C.2     1  LIG1        0.0000
      3 C         -32.9267   -9.5824  -26.9792 C.2     1  LIG1        0.0000
      4 N         -32.2657  -10.2001  -25.8593 N.pl3   1  LIG1        1.0000
      5 H         -32.0344  -11.1010  -26.2658 H       1  LIG1        0.0000
      6 C         -33.1370  -10.6351  -24.9229 C.2     1  LIG1        0.0000
      7 C         -34.5823  -10.8881  -25.2259 C.2     1  LIG1        0.0000
      8 C         -31.1025   -9.8383  -25.3568 C.2     1  LIG1        0.0000
      9 C         -31.0950  -10.4828  -24.1020 C.2     1  LIG1        0.0000
     10 N         -32.3534  -10.9920  -23.8718 N.2     1  LIG1        0.0000
     11 N         -35.3049  -11.5701  -24.2902 N.pl3   1  LIG1        0.0000
     12 N         -30.1121   -9.3144  -26.1412 N.pl3   1  LIG1        0.0000
     13 C         -29.7010   -7.9293  -26.0461 C.3     1  LIG1        0.0000
     14 C         -28.4653   -7.6700  -26.8878 C.ar    1  LIG1        0.0000
     15 C         -27.3331   -7.0172  -26.3832 C.ar    1  LIG1        0.0000
     16 C         -26.2157   -6.7856  -27.1998 C.ar    1  LIG1        0.0000
     17 C         -26.2217   -7.1941  -28.5344 C.ar    1  LIG1        0.0000
     18 C         -27.3456   -7.8360  -29.0454 C.ar    1  LIG1        0.0000
     19 C         -28.4486   -8.0709  -28.2370 C.ar    1  LIG1        0.0000
     20 C         -29.9165  -10.6971  -23.2157 C.3     1  LIG1        0.0000
     21 C         -28.9983  -11.8506  -23.6234 C.ar    1  LIG1        0.0000
     22 C         -27.6035  -11.8160  -23.3913 C.ar    1  LIG1        0.0000
     23 C         -26.7811  -12.9047  -23.7358 C.ar    1  LIG1        0.0000
     24 C         -27.3655  -14.0250  -24.2956 C.ar    1  LIG1        0.0000
     25 C         -28.7078  -14.0840  -24.5105 C.ar    1  LIG1        0.0000
     26 C         -29.5356  -13.0277  -24.1761 C.ar    1  LIG1        0.0000
     27 O         -26.7231  -15.1644  -24.6833 O.3     1  LIG1        0.0000
     28 C         -27.8435  -15.9795  -25.0957 C.3     1  LIG1        0.0000
     29 O         -29.0956  -15.2675  -25.0744 O.3     1  LIG1        0.0000
     30 BR        -26.7362  -10.3075  -22.6101 Br      1  LIG1        0.0000
     31 H         -34.6828   -9.4901  -28.1292 H       1  LIG1        0.0000
     32 H         -32.3517   -9.0371  -27.7274 H       1  LIG1        0.0000
     33 H         -34.8382  -11.8495  -23.4381 H       1  LIG1        0.0000
     34 H         -36.2790  -11.7337  -24.4691 H       1  LIG1        0.0000
     35 H         -29.4227   -9.9455  -26.5245 H       1  LIG1        0.0000
     36 H         -29.5109   -7.6206  -25.0111 H       1  LIG1        0.0000
     37 H         -30.5095   -7.3058  -26.4401 H       1  LIG1        0.0000
     38 H         -27.2986   -6.6972  -25.3468 H       1  LIG1        0.0000
     39 H         -25.3402   -6.2876  -26.7950 H       1  LIG1        0.0000
     40 H         -25.3527   -7.0248  -29.1617 H       1  LIG1        0.0000
     41 H         -27.3536   -8.1611  -30.0833 H       1  LIG1        0.0000
     42 H         -29.3302   -8.5617  -28.6450 H       1  LIG1        0.0000
     43 H         -30.2331  -10.8229  -22.1743 H       1  LIG1        0.0000
     44 H         -29.3590   -9.7544  -23.2688 H       1  LIG1        0.0000
     45 H         -25.7103  -12.8606  -23.5726 H       1  LIG1        0.0000
     46 H         -30.6123  -13.1027  -24.3643 H       1  LIG1        0.0000
     47 H         -27.9181  -16.8425  -24.4205 H       1  LIG1        0.0000
     48 H         -27.6592  -16.3674  -26.1063 H       1  LIG1        0.0000
@<TRIPOS>BOND
     1     1     2    1
     2     1     7    2
     3     2     3    2
     4     2    31    1
     5     3     4    1
     6     3    32    1
     7     4     5    1
     8     4     6    1
     9     4     8    1
    10     6     7    1
    11     6    10    2
    12     7    11    1
    13     8     9    2
    14     8    12    1
    15     9    10    1
    16     9    20    1
    17    11    33    1
    18    11    34    1
    19    12    13    1
    20    12    35    1
    21    13    14    1
    22    13    36    1
    23    13    37    1
    24    14    15   ar
    25    14    19   ar
    26    15    16   ar
    27    15    38    1
    28    16    17   ar
    29    16    39    1
    30    17    18   ar
    31    17    40    1
    32    18    19   ar
    33    18    41    1
    34    19    42    1
    35    20    21    1
    36    20    43    1
    37    20    44    1
    38    21    22   ar
    39    21    26   ar
    40    22    23   ar
    41    22    30    1
    42    23    24   ar
    43    23    45    1
    44    24    25   ar
    45    24    27    1
    46    25    26   ar
    47    25    29    1
    48    26    46    1
    49    27    28    1
    50    28    29    1
    51    28    47    1
    52    28    48    1
