@<TRIPOS>MOLECULE
3INW_JZB_A_2001
 62 64 0 0 0
SMALL
USER_CHARGES

@<TRIPOS>ATOM
      1 CL         70.3752   12.9090   22.2836 Cl      1  LIG1       -0.0794
      2 C          66.5937   12.1173   23.2826 C.ar    1  LIG1        0.0236
      3 N          72.4846   10.4629   23.6351 N.2     1  LIG1       -0.0888
      4 O          68.7285    9.5121   26.5140 O.3     1  LIG1       -0.4608
      5 C          67.7385   12.5246   22.6116 C.ar    1  LIG1        0.1389
      6 N          74.7011   14.1586   24.7208 N.am    1  LIG1       -0.2986
      7 O          67.4455   11.1734   27.4245 O.2     1  LIG1       -0.2448
      8 C          68.9992   12.3513   23.1856 C.ar    1  LIG1        0.0868
      9 O          67.6140   13.0947   21.3668 O.3     1  LIG1       -0.5052
     10 H          68.5251   13.2598   21.0399 H       1  LIG1        0.2922
     11 C          69.1418   11.7242   24.4427 C.ar    1  LIG1       -0.0021
     12 O          65.5390   11.1519   25.1487 O.3     1  LIG1       -0.5058
     13 C          67.9787   11.2922   25.1274 C.ar    1  LIG1        0.1054
     14 O          73.1122   11.6377   24.1375 O.2     1  LIG1       -0.3840
     15 C          66.7144   11.5179   24.5449 C.ar    1  LIG1        0.1346
     16 O          76.2321   12.4976   25.0085 O.2     1  LIG1       -0.2718
     17 C          70.5456   11.4229   24.9366 C.3     1  LIG1        0.0204
     18 C          68.0449   10.6786   26.4804 C.2     1  LIG1        0.3431
     19 C          71.2425   10.3657   24.0539 C.2     1  LIG1        0.0841
     20 C          70.3371    9.2197   23.6807 C.2     1  LIG1       -0.0409
     21 C          68.7991    8.8367   27.7954 C.3     1  LIG1        0.0962
     22 C          68.5886    7.3348   27.6151 C.3     1  LIG1       -0.0003
     23 C          69.5369    6.7684   26.5802 C.2     1  LIG1       -0.0847
     24 C          69.0374    6.3050   25.4253 C.2     1  LIG1       -0.0875
     25 C          69.8631    5.8313   24.2610 C.3     1  LIG1       -0.0313
     26 C          70.7327    7.9853   23.3424 C.2     1  LIG1       -0.0819
     27 C          69.7636    6.8504   23.1252 C.3     1  LIG1       -0.0310
     28 C          74.4022   11.8934   23.5623 C.3     1  LIG1        0.1934
     29 C          75.1651   12.8843   24.4815 C.2     1  LIG1        0.2559
     30 C          73.4692   14.6957   24.1548 C.3     1  LIG1        0.0148
     31 C          72.4511   14.9349   25.2629 C.3     1  LIG1       -0.0371
     32 C          73.0534   15.8715   26.3095 C.3     1  LIG1       -0.0502
     33 C          74.2446   15.1507   26.9367 C.3     1  LIG1       -0.0371
     34 C          75.2873   14.9643   25.8286 C.3     1  LIG1        0.0148
     35 H          65.6156   12.2709   22.8298 H       1  LIG1        0.0691
     36 H          65.7124   10.8120   26.0483 H       1  LIG1        0.2922
     37 H          70.5446   11.0790   25.9729 H       1  LIG1        0.0378
     38 H          71.0953   12.3621   24.9335 H       1  LIG1        0.0378
     39 H          69.2612    9.3659   23.7799 H       1  LIG1        0.0633
     40 H          69.7821    9.0305   28.2404 H       1  LIG1        0.0700
     41 H          68.0351    9.2037   28.4891 H       1  LIG1        0.0700
     42 H          68.7217    6.8004   28.5593 H       1  LIG1        0.0340
     43 H          67.5513    7.1697   27.2951 H       1  LIG1        0.0340
     44 H          70.5935    6.8082   26.7660 H       1  LIG1        0.0570
     45 H          67.9711    6.3247   25.2606 H       1  LIG1        0.0569
     46 H          70.9065    5.6643   24.5528 H       1  LIG1        0.0310
     47 H          69.4611    4.8629   23.9435 H       1  LIG1        0.0310
     48 H          71.7929    7.7713   23.2808 H       1  LIG1        0.0573
     49 H          68.7237    7.2108   23.0418 H       1  LIG1        0.0310
     50 H          69.9948    6.3730   22.1692 H       1  LIG1        0.0310
     51 H          75.0091   10.9787   23.5001 H       1  LIG1        0.0822
     52 H          74.3390   12.3217   22.5558 H       1  LIG1        0.0822
     53 H          73.7029   15.6453   23.6526 H       1  LIG1        0.0464
     54 H          73.0652   14.0230   23.3988 H       1  LIG1        0.0464
     55 H          71.5266   15.3463   24.8538 H       1  LIG1        0.0280
     56 H          72.2156   13.9805   25.7487 H       1  LIG1        0.0280
     57 H          72.3137   16.1557   27.0624 H       1  LIG1        0.0266
     58 H          73.4019   16.7948   25.8251 H       1  LIG1        0.0266
     59 H          73.9291   14.1726   27.3266 H       1  LIG1        0.0280
     60 H          74.6459   15.7227   27.7797 H       1  LIG1        0.0280
     61 H          76.1881   14.5066   26.2427 H       1  LIG1        0.0464
     62 H          75.5664   15.9540   25.4397 H       1  LIG1        0.0464
@<TRIPOS>BOND
     1     1     8    1
     2     2     5   ar
     3     2    15   ar
     4     2    35    1
     5     3    14    1
     6     3    19    2
     7     4    18    1
     8     4    21    1
     9     5     8   ar
    10     5     9    1
    11     6    29   am
    12     6    30    1
    13     6    34    1
    14     7    18    2
    15     8    11   ar
    16     9    10    1
    17    11    13   ar
    18    11    17    1
    19    12    15    1
    20    12    36    1
    21    13    15   ar
    22    13    18    1
    23    14    28    1
    24    16    29    2
    25    17    19    1
    26    17    37    1
    27    17    38    1
    28    19    20    1
    29    20    26    2
    30    20    39    1
    31    21    22    1
    32    21    40    1
    33    21    41    1
    34    22    23    1
    35    22    42    1
    36    22    43    1
    37    23    24    2
    38    23    44    1
    39    24    25    1
    40    24    45    1
    41    25    27    1
    42    25    46    1
    43    25    47    1
    44    26    27    1
    45    26    48    1
    46    27    49    1
    47    27    50    1
    48    28    29    1
    49    28    51    1
    50    28    52    1
    51    30    31    1
    52    30    53    1
    53    30    54    1
    54    31    32    1
    55    31    55    1
    56    31    56    1
    57    32    33    1
    58    32    57    1
    59    32    58    1
    60    33    34    1
    61    33    59    1
    62    33    60    1
    63    34    61    1
    64    34    62    1
