3INW_JZB_A_2001
 OpenBabel03301717183D

 62 64  0  0  0  0  0  0  0  0999 V2000
   70.3752   12.9090   22.2836 Cl  0  0  0  0  0  0  0  0  0  0  0  0
   66.5937   12.1173   23.2826 C   0  0  0  0  0  0  0  0  0  0  0  0
   72.4846   10.4629   23.6351 N   0  0  0  0  0  0  0  0  0  0  0  0
   68.7285    9.5121   26.5140 O   0  0  0  0  0  0  0  0  0  0  0  0
   67.7385   12.5246   22.6116 C   0  0  0  0  0  0  0  0  0  0  0  0
   74.7011   14.1586   24.7208 N   0  0  0  0  0  0  0  0  0  0  0  0
   67.4455   11.1734   27.4245 O   0  0  0  0  0  0  0  0  0  0  0  0
   68.9992   12.3513   23.1856 C   0  0  0  0  0  0  0  0  0  0  0  0
   67.6140   13.0947   21.3668 O   0  0  0  0  0  0  0  0  0  0  0  0
   68.5251   13.2598   21.0399 H   0  0  0  0  0  0  0  0  0  0  0  0
   69.1418   11.7242   24.4427 C   0  0  0  0  0  0  0  0  0  0  0  0
   65.5390   11.1519   25.1487 O   0  0  0  0  0  0  0  0  0  0  0  0
   67.9787   11.2922   25.1274 C   0  0  0  0  0  0  0  0  0  0  0  0
   73.1122   11.6377   24.1375 O   0  0  0  0  0  0  0  0  0  0  0  0
   66.7144   11.5179   24.5449 C   0  0  0  0  0  0  0  0  0  0  0  0
   76.2321   12.4976   25.0085 O   0  0  0  0  0  0  0  0  0  0  0  0
   70.5456   11.4229   24.9366 C   0  0  0  0  0  0  0  0  0  0  0  0
   68.0449   10.6786   26.4804 C   0  0  0  0  0  0  0  0  0  0  0  0
   71.2425   10.3657   24.0539 C   0  0  0  0  0  0  0  0  0  0  0  0
   70.3371    9.2197   23.6807 C   0  0  0  0  0  0  0  0  0  0  0  0
   68.7991    8.8367   27.7954 C   0  0  0  0  0  0  0  0  0  0  0  0
   68.5886    7.3348   27.6151 C   0  0  0  0  0  0  0  0  0  0  0  0
   69.5369    6.7684   26.5802 C   0  0  0  0  0  0  0  0  0  0  0  0
   69.0374    6.3050   25.4253 C   0  0  0  0  0  0  0  0  0  0  0  0
   69.8631    5.8313   24.2610 C   0  0  0  0  0  0  0  0  0  0  0  0
   70.7327    7.9853   23.3424 C   0  0  0  0  0  0  0  0  0  0  0  0
   69.7636    6.8504   23.1252 C   0  0  0  0  0  0  0  0  0  0  0  0
   74.4022   11.8934   23.5623 C   0  0  0  0  0  0  0  0  0  0  0  0
   75.1651   12.8843   24.4815 C   0  0  0  0  0  0  0  0  0  0  0  0
   73.4692   14.6957   24.1548 C   0  0  0  0  0  0  0  0  0  0  0  0
   72.4511   14.9349   25.2629 C   0  0  0  0  0  0  0  0  0  0  0  0
   73.0534   15.8715   26.3095 C   0  0  0  0  0  0  0  0  0  0  0  0
   74.2446   15.1507   26.9367 C   0  0  0  0  0  0  0  0  0  0  0  0
   75.2873   14.9643   25.8286 C   0  0  0  0  0  0  0  0  0  0  0  0
   65.6156   12.2709   22.8298 H   0  0  0  0  0  0  0  0  0  0  0  0
   65.7124   10.8120   26.0483 H   0  0  0  0  0  0  0  0  0  0  0  0
   70.5446   11.0790   25.9729 H   0  0  0  0  0  0  0  0  0  0  0  0
   71.0953   12.3621   24.9335 H   0  0  0  0  0  0  0  0  0  0  0  0
   69.2612    9.3659   23.7799 H   0  0  0  0  0  0  0  0  0  0  0  0
   69.7821    9.0305   28.2404 H   0  0  0  0  0  0  0  0  0  0  0  0
   68.0351    9.2037   28.4891 H   0  0  0  0  0  0  0  0  0  0  0  0
   68.7217    6.8004   28.5593 H   0  0  0  0  0  0  0  0  0  0  0  0
   67.5513    7.1697   27.2951 H   0  0  0  0  0  0  0  0  0  0  0  0
   70.5935    6.8082   26.7660 H   0  0  0  0  0  0  0  0  0  0  0  0
   67.9711    6.3247   25.2606 H   0  0  0  0  0  0  0  0  0  0  0  0
   70.9065    5.6643   24.5528 H   0  0  0  0  0  0  0  0  0  0  0  0
   69.4611    4.8629   23.9435 H   0  0  0  0  0  0  0  0  0  0  0  0
   71.7929    7.7713   23.2808 H   0  0  0  0  0  0  0  0  0  0  0  0
   68.7237    7.2108   23.0418 H   0  0  0  0  0  0  0  0  0  0  0  0
   69.9948    6.3730   22.1692 H   0  0  0  0  0  0  0  0  0  0  0  0
   75.0091   10.9787   23.5001 H   0  0  0  0  0  0  0  0  0  0  0  0
   74.3390   12.3217   22.5558 H   0  0  0  0  0  0  0  0  0  0  0  0
   73.7029   15.6453   23.6526 H   0  0  0  0  0  0  0  0  0  0  0  0
   73.0652   14.0230   23.3988 H   0  0  0  0  0  0  0  0  0  0  0  0
   71.5266   15.3463   24.8538 H   0  0  0  0  0  0  0  0  0  0  0  0
   72.2156   13.9805   25.7487 H   0  0  0  0  0  0  0  0  0  0  0  0
   72.3137   16.1557   27.0624 H   0  0  0  0  0  0  0  0  0  0  0  0
   73.4019   16.7948   25.8251 H   0  0  0  0  0  0  0  0  0  0  0  0
   73.9291   14.1726   27.3266 H   0  0  0  0  0  0  0  0  0  0  0  0
   74.6459   15.7227   27.7797 H   0  0  0  0  0  0  0  0  0  0  0  0
   76.1881   14.5066   26.2427 H   0  0  0  0  0  0  0  0  0  0  0  0
   75.5664   15.9540   25.4397 H   0  0  0  0  0  0  0  0  0  0  0  0
  1  8  1  0  0  0  0
  2  5  2  0  0  0  0
  2 15  1  0  0  0  0
  2 35  1  0  0  0  0
  3 14  1  0  0  0  0
  3 19  2  0  0  0  0
  4 18  1  0  0  0  0
  4 21  1  0  0  0  0
  5  8  1  0  0  0  0
  5  9  1  0  0  0  0
  6 29  1  0  0  0  0
  6 30  1  0  0  0  0
  6 34  1  0  0  0  0
  7 18  2  0  0  0  0
  8 11  2  0  0  0  0
  9 10  1  0  0  0  0
 11 13  1  0  0  0  0
 11 17  1  0  0  0  0
 12 15  1  0  0  0  0
 12 36  1  0  0  0  0
 13 15  2  0  0  0  0
 13 18  1  0  0  0  0
 14 28  1  0  0  0  0
 16 29  2  0  0  0  0
 17 19  1  0  0  0  0
 17 37  1  0  0  0  0
 17 38  1  0  0  0  0
 19 20  1  0  0  0  0
 20 26  2  0  0  0  0
 20 39  1  0  0  0  0
 21 22  1  0  0  0  0
 21 40  1  0  0  0  0
 21 41  1  0  0  0  0
 22 23  1  0  0  0  0
 22 42  1  0  0  0  0
 22 43  1  0  0  0  0
 23 24  2  0  0  0  0
 23 44  1  0  0  0  0
 24 25  1  0  0  0  0
 24 45  1  0  0  0  0
 25 27  1  0  0  0  0
 25 46  1  0  0  0  0
 25 47  1  0  0  0  0
 26 27  1  0  0  0  0
 26 48  1  0  0  0  0
 27 49  1  0  0  0  0
 27 50  1  0  0  0  0
 28 29  1  0  0  0  0
 28 51  1  0  0  0  0
 28 52  1  0  0  0  0
 30 31  1  0  0  0  0
 30 53  1  0  0  0  0
 30 54  1  0  0  0  0
 31 32  1  0  0  0  0
 31 55  1  0  0  0  0
 31 56  1  0  0  0  0
 32 33  1  0  0  0  0
 32 57  1  0  0  0  0
 32 58  1  0  0  0  0
 33 34  1  0  0  0  0
 33 59  1  0  0  0  0
 33 60  1  0  0  0  0
 34 61  1  0  0  0  0
 34 62  1  0  0  0  0
M  END
$$$$
