REMARK  5 active torsions:
REMARK  status: ('A' for Active; 'I' for Inactive)
REMARK    1  A    between atoms: N_3  and  O_14 
REMARK    2  A    between atoms: C_5  and  O_9 
REMARK       I    between atoms: N_6  and  C_29 
REMARK    3  A    between atoms: O_12  and  C_15 
REMARK    4  A    between atoms: O_14  and  C_28 
REMARK    5  A    between atoms: C_28  and  C_29 
ROOT
ATOM      1 CL   LIG d   1      70.375  12.909  22.284  0.00  0.00    -0.079 Cl
ATOM      2  C   LIG d   1      66.594  12.117  23.283  0.00  0.00     0.093 A 
ATOM      3  N   LIG d   1      72.485  10.463  23.635  0.00  0.00    -0.089 NA
ATOM      4  O   LIG d   1      68.728   9.512  26.514  0.00  0.00    -0.461 OA
ATOM      5  C   LIG d   1      67.739  12.525  22.612  0.00  0.00     0.139 A 
ATOM      6  O   LIG d   1      67.445  11.173  27.424  0.00  0.00    -0.245 OA
ATOM      7  C   LIG d   1      68.999  12.351  23.186  0.00  0.00     0.087 A 
ATOM      8  C   LIG d   1      69.142  11.724  24.443  0.00  0.00    -0.002 A 
ATOM      9  C   LIG d   1      67.979  11.292  25.127  0.00  0.00     0.105 A 
ATOM     10  C   LIG d   1      66.714  11.518  24.545  0.00  0.00     0.135 A 
ATOM     11  C   LIG d   1      70.546  11.423  24.937  0.00  0.00     0.096 C 
ATOM     12  C   LIG d   1      68.045  10.679  26.480  0.00  0.00     0.343 C 
ATOM     13  C   LIG d   1      71.243  10.366  24.054  0.00  0.00     0.084 C 
ATOM     14  C   LIG d   1      70.337   9.220  23.681  0.00  0.00     0.022 C 
ATOM     15  C   LIG d   1      68.799   8.837  27.795  0.00  0.00     0.236 C 
ATOM     16  C   LIG d   1      68.589   7.335  27.615  0.00  0.00     0.068 C 
ATOM     17  C   LIG d   1      69.537   6.768  26.580  0.00  0.00    -0.028 C 
ATOM     18  C   LIG d   1      69.037   6.305  25.425  0.00  0.00    -0.031 C 
ATOM     19  C   LIG d   1      69.863   5.831  24.261  0.00  0.00     0.031 C 
ATOM     20  C   LIG d   1      70.733   7.985  23.342  0.00  0.00    -0.025 C 
ATOM     21  C   LIG d   1      69.764   6.850  23.125  0.00  0.00     0.031 C 
ENDROOT
BRANCH   3  22
ATOM     22  O   LIG d   1      73.112  11.638  24.137  0.00  0.00    -0.384 OA
BRANCH  22  23
ATOM     23  C   LIG d   1      74.402  11.893  23.562  0.00  0.00     0.358 C 
BRANCH  23  24
ATOM     24  C   LIG d   1      75.165  12.884  24.482  0.00  0.00     0.256 C 
ATOM     25  N   LIG d   1      74.701  14.159  24.721  0.00  0.00    -0.299 N 
ATOM     26  C   LIG d   1      73.469  14.696  24.155  0.00  0.00     0.108 C 
ATOM     27  C   LIG d   1      75.287  14.964  25.829  0.00  0.00     0.108 C 
ATOM     28  C   LIG d   1      72.451  14.935  25.263  0.00  0.00     0.019 C 
ATOM     29  C   LIG d   1      73.053  15.871  26.309  0.00  0.00     0.003 C 
ATOM     30  C   LIG d   1      74.245  15.151  26.937  0.00  0.00     0.019 C 
ATOM     31  O   LIG d   1      76.232  12.498  25.009  0.00  0.00    -0.272 OA
ENDBRANCH  23  24
ENDBRANCH  22  23
ENDBRANCH   3  22
BRANCH   5  32
ATOM     32  O   LIG d   1      67.614  13.095  21.367  0.00  0.00    -0.505 OA
ATOM     33  H   LIG d   1      68.525  13.260  21.040  0.00  0.00     0.292 HD
ENDBRANCH   5  32
BRANCH  10  34
ATOM     34  O   LIG d   1      65.539  11.152  25.149  0.00  0.00    -0.506 OA
ATOM     35  H   LIG d   1      65.712  10.812  26.048  0.00  0.00     0.292 HD
ENDBRANCH  10  34
TORSDOF 5
