REMARK  5 active torsions:
REMARK  status: ('A' for Active; 'I' for Inactive)
REMARK    1  A    between atoms: N_2  and  O_12 
REMARK    2  A    between atoms: C_4  and  O_8 
REMARK       I    between atoms: N_5  and  C_27 
REMARK    3  A    between atoms: O_10  and  C_13 
REMARK    4  A    between atoms: O_12  and  C_26 
REMARK    5  A    between atoms: C_26  and  C_27 
ROOT
ATOM      1  C   LIG d   1      66.014  12.113  23.218  0.00  0.00     0.091 A 
ATOM      2  N   LIG d   1      71.843  10.692  23.148  0.00  0.00    -0.089 NA
ATOM      3  O   LIG d   1      67.943   9.374  26.545  0.00  0.00    -0.461 OA
ATOM      4  C   LIG d   1      67.200  12.334  22.521  0.00  0.00     0.121 A 
ATOM      5  O   LIG d   1      66.707  11.117  27.299  0.00  0.00    -0.245 OA
ATOM      6  C   LIG d   1      68.430  11.967  23.059  0.00  0.00     0.050 A 
ATOM      7  C   LIG d   1      68.514  11.335  24.313  0.00  0.00    -0.021 A 
ATOM      8  C   LIG d   1      67.316  11.110  25.035  0.00  0.00     0.104 A 
ATOM      9  C   LIG d   1      66.074  11.513  24.491  0.00  0.00     0.135 A 
ATOM     10  C   LIG d   1      69.907  10.940  24.776  0.00  0.00     0.095 C 
ATOM     11  C   LIG d   1      67.295  10.558  26.426  0.00  0.00     0.343 C 
ATOM     12  C   LIG d   1      70.736  10.229  23.667  0.00  0.00     0.084 C 
ATOM     13  C   LIG d   1      70.285   8.937  23.082  0.00  0.00     0.022 C 
ATOM     14  C   LIG d   1      67.949   8.741  27.857  0.00  0.00     0.236 C 
ATOM     15  C   LIG d   1      67.844   7.230  27.657  0.00  0.00     0.068 C 
ATOM     16  C   LIG d   1      68.763   6.722  26.579  0.00  0.00    -0.028 C 
ATOM     17  C   LIG d   1      68.212   6.303  25.427  0.00  0.00    -0.031 C 
ATOM     18  C   LIG d   1      69.012   5.876  24.230  0.00  0.00     0.031 C 
ATOM     19  C   LIG d   1      69.259   8.240  23.565  0.00  0.00    -0.025 C 
ATOM     20  C   LIG d   1      68.862   6.876  23.078  0.00  0.00     0.031 C 
ENDROOT
BRANCH   2  21
ATOM     21  O   LIG d   1      72.315  11.864  23.729  0.00  0.00    -0.384 OA
BRANCH  21  22
ATOM     22  C   LIG d   1      73.733  11.976  23.520  0.00  0.00     0.358 C 
BRANCH  22  23
ATOM     23  C   LIG d   1      74.362  12.938  24.555  0.00  0.00     0.256 C 
ATOM     24  N   LIG d   1      73.781  14.161  24.843  0.00  0.00    -0.299 N 
ATOM     25  C   LIG d   1      72.572  14.641  24.191  0.00  0.00     0.108 C 
ATOM     26  C   LIG d   1      74.283  14.908  26.014  0.00  0.00     0.108 C 
ATOM     27  C   LIG d   1      71.466  14.898  25.198  0.00  0.00     0.019 C 
ATOM     28  C   LIG d   1      71.977  15.890  26.232  0.00  0.00     0.003 C 
ATOM     29  C   LIG d   1      73.156  15.279  26.976  0.00  0.00     0.019 C 
ATOM     30  O   LIG d   1      75.404  12.614  25.149  0.00  0.00    -0.272 OA
ENDBRANCH  22  23
ENDBRANCH  21  22
ENDBRANCH   2  21
BRANCH   4  31
ATOM     31  O   LIG d   1      67.238  12.914  21.282  0.00  0.00    -0.507 OA
ATOM     32  H   LIG d   1      66.352  13.141  20.962  0.00  0.00     0.292 HD
ENDBRANCH   4  31
BRANCH   9  33
ATOM     33  O   LIG d   1      64.874  11.310  25.154  0.00  0.00    -0.506 OA
ATOM     34  H   LIG d   1      65.009  10.878  26.020  0.00  0.00     0.292 HD
ENDBRANCH   9  33
TORSDOF 5
