3INX_JZC_A_2001
 OpenBabel03301717183D

 62 64  0  0  0  0  0  0  0  0999 V2000
   66.0140   12.1133   23.2181 C   0  0  0  0  0  0  0  0  0  0  0  0
   71.8434   10.6922   23.1483 N   0  0  0  0  0  0  0  0  0  0  0  0
   67.9427    9.3740   26.5453 O   0  0  0  0  0  0  0  0  0  0  0  0
   67.1995   12.3337   22.5215 C   0  0  0  0  0  0  0  0  0  0  0  0
   73.7814   14.1614   24.8426 N   0  0  0  0  0  0  0  0  0  0  0  0
   66.7072   11.1166   27.2991 O   0  0  0  0  0  0  0  0  0  0  0  0
   68.4304   11.9669   23.0588 C   0  0  0  0  0  0  0  0  0  0  0  0
   67.2381   12.9144   21.2823 O   0  0  0  0  0  0  0  0  0  0  0  0
   68.5142   11.3349   24.3127 C   0  0  0  0  0  0  0  0  0  0  0  0
   64.8739   11.3098   25.1535 O   0  0  0  0  0  0  0  0  0  0  0  0
   67.3156   11.1101   25.0349 C   0  0  0  0  0  0  0  0  0  0  0  0
   72.3146   11.8636   23.7294 O   0  0  0  0  0  0  0  0  0  0  0  0
   66.0743   11.5131   24.4908 C   0  0  0  0  0  0  0  0  0  0  0  0
   75.4036   12.6145   25.1489 O   0  0  0  0  0  0  0  0  0  0  0  0
   69.9075   10.9397   24.7761 C   0  0  0  0  0  0  0  0  0  0  0  0
   67.2946   10.5576   26.4260 C   0  0  0  0  0  0  0  0  0  0  0  0
   70.7363   10.2287   23.6669 C   0  0  0  0  0  0  0  0  0  0  0  0
   70.2852    8.9369   23.0816 C   0  0  0  0  0  0  0  0  0  0  0  0
   67.9487    8.7411   27.8565 C   0  0  0  0  0  0  0  0  0  0  0  0
   67.8440    7.2296   27.6571 C   0  0  0  0  0  0  0  0  0  0  0  0
   68.7627    6.7220   26.5790 C   0  0  0  0  0  0  0  0  0  0  0  0
   68.2115    6.3033   25.4270 C   0  0  0  0  0  0  0  0  0  0  0  0
   69.0118    5.8757   24.2296 C   0  0  0  0  0  0  0  0  0  0  0  0
   69.2591    8.2396   23.5646 C   0  0  0  0  0  0  0  0  0  0  0  0
   68.8616    6.8757   23.0784 C   0  0  0  0  0  0  0  0  0  0  0  0
   73.7325   11.9764   23.5195 C   0  0  0  0  0  0  0  0  0  0  0  0
   74.3624   12.9375   24.5550 C   0  0  0  0  0  0  0  0  0  0  0  0
   72.5719   14.6414   24.1908 C   0  0  0  0  0  0  0  0  0  0  0  0
   71.4657   14.8979   25.1979 C   0  0  0  0  0  0  0  0  0  0  0  0
   71.9771   15.8900   26.2315 C   0  0  0  0  0  0  0  0  0  0  0  0
   73.1557   15.2788   26.9755 C   0  0  0  0  0  0  0  0  0  0  0  0
   74.2834   14.9082   26.0138 C   0  0  0  0  0  0  0  0  0  0  0  0
   65.0660   12.3928   22.7710 H   0  0  0  0  0  0  0  0  0  0  0  0
   69.3405   12.1504   22.4832 H   0  0  0  0  0  0  0  0  0  0  0  0
   66.3517   13.1408   20.9619 H   0  0  0  0  0  0  0  0  0  0  0  0
   65.0089   10.8784   26.0202 H   0  0  0  0  0  0  0  0  0  0  0  0
   69.8526   10.2683   25.6354 H   0  0  0  0  0  0  0  0  0  0  0  0
   70.4501   11.8320   25.0996 H   0  0  0  0  0  0  0  0  0  0  0  0
   70.8470    8.5466   22.2344 H   0  0  0  0  0  0  0  0  0  0  0  0
   68.8886    8.9734   28.3737 H   0  0  0  0  0  0  0  0  0  0  0  0
   67.1125    9.0898   28.4797 H   0  0  0  0  0  0  0  0  0  0  0  0
   68.0564    6.7025   28.5927 H   0  0  0  0  0  0  0  0  0  0  0  0
   66.8089    6.9866   27.3723 H   0  0  0  0  0  0  0  0  0  0  0  0
   69.8449    6.7282   26.7168 H   0  0  0  0  0  0  0  0  0  0  0  0
   67.1261    6.3314   25.3361 H   0  0  0  0  0  0  0  0  0  0  0  0
   70.0714    5.8038   24.5068 H   0  0  0  0  0  0  0  0  0  0  0  0
   68.6815    4.8798   23.9143 H   0  0  0  0  0  0  0  0  0  0  0  0
   68.7024    8.6462   24.3941 H   0  0  0  0  0  0  0  0  0  0  0  0
   67.8213    6.8936   22.7268 H   0  0  0  0  0  0  0  0  0  0  0  0
   69.4889    6.5699   22.2276 H   0  0  0  0  0  0  0  0  0  0  0  0
   74.1933   10.9791   23.6479 H   0  0  0  0  0  0  0  0  0  0  0  0
   73.9611   12.3274   22.5020 H   0  0  0  0  0  0  0  0  0  0  0  0
   72.8035   15.5619   23.6538 H   0  0  0  0  0  0  0  0  0  0  0  0
   72.2298   13.9262   23.4550 H   0  0  0  0  0  0  0  0  0  0  0  0
   70.5805   15.3001   24.6928 H   0  0  0  0  0  0  0  0  0  0  0  0
   71.1756   13.9639   25.6957 H   0  0  0  0  0  0  0  0  0  0  0  0
   71.1804   16.1479   26.9356 H   0  0  0  0  0  0  0  0  0  0  0  0
   72.2997   16.8088   25.7254 H   0  0  0  0  0  0  0  0  0  0  0  0
   72.8162   14.3753   27.4982 H   0  0  0  0  0  0  0  0  0  0  0  0
   73.5215   15.9888   27.7262 H   0  0  0  0  0  0  0  0  0  0  0  0
   75.0235   14.3121   26.5755 H   0  0  0  0  0  0  0  0  0  0  0  0
   74.7879   15.8238   25.6826 H   0  0  0  0  0  0  0  0  0  0  0  0
  1  4  2  0  0  0  0
  1 13  1  0  0  0  0
  1 33  1  0  0  0  0
  2 12  1  0  0  0  0
  2 17  2  0  0  0  0
  3 16  1  0  0  0  0
  3 19  1  0  0  0  0
  4  7  1  0  0  0  0
  4  8  1  0  0  0  0
  5 27  1  0  0  0  0
  5 28  1  0  0  0  0
  5 32  1  0  0  0  0
  6 16  2  0  0  0  0
  7  9  2  0  0  0  0
  7 34  1  0  0  0  0
  8 35  1  0  0  0  0
  9 11  1  0  0  0  0
  9 15  1  0  0  0  0
 10 13  1  0  0  0  0
 10 36  1  0  0  0  0
 11 13  2  0  0  0  0
 11 16  1  0  0  0  0
 12 26  1  0  0  0  0
 14 27  2  0  0  0  0
 15 17  1  0  0  0  0
 15 37  1  0  0  0  0
 15 38  1  0  0  0  0
 17 18  1  0  0  0  0
 18 24  2  0  0  0  0
 18 39  1  0  0  0  0
 19 20  1  0  0  0  0
 19 40  1  0  0  0  0
 19 41  1  0  0  0  0
 20 21  1  0  0  0  0
 20 42  1  0  0  0  0
 20 43  1  0  0  0  0
 21 22  2  0  0  0  0
 21 44  1  0  0  0  0
 22 23  1  0  0  0  0
 22 45  1  0  0  0  0
 23 25  1  0  0  0  0
 23 46  1  0  0  0  0
 23 47  1  0  0  0  0
 24 25  1  0  0  0  0
 24 48  1  0  0  0  0
 25 49  1  0  0  0  0
 25 50  1  0  0  0  0
 26 27  1  0  0  0  0
 26 51  1  0  0  0  0
 26 52  1  0  0  0  0
 28 29  1  0  0  0  0
 28 53  1  0  0  0  0
 28 54  1  0  0  0  0
 29 30  1  0  0  0  0
 29 55  1  0  0  0  0
 29 56  1  0  0  0  0
 30 31  1  0  0  0  0
 30 57  1  0  0  0  0
 30 58  1  0  0  0  0
 31 32  1  0  0  0  0
 31 59  1  0  0  0  0
 31 60  1  0  0  0  0
 32 61  1  0  0  0  0
 32 62  1  0  0  0  0
M  END
$$$$
