@<TRIPOS>MOLECULE
3INX_JZC_A_2001
 62 64 0 0 0
SMALL
USER_CHARGES

@<TRIPOS>ATOM
      1 C          66.0140   12.1133   23.2181 C.ar    1  LIG1        0.0221
      2 N          71.8434   10.6922   23.1483 N.2     1  LIG1       -0.0888
      3 O          67.9427    9.3740   26.5453 O.3     1  LIG1       -0.4608
      4 C          67.1995   12.3337   22.5215 C.ar    1  LIG1        0.1206
      5 N          73.7814   14.1614   24.8426 N.am    1  LIG1       -0.2986
      6 O          66.7072   11.1166   27.2991 O.2     1  LIG1       -0.2448
      7 C          68.4304   11.9669   23.0588 C.ar    1  LIG1       -0.0156
      8 O          67.2381   12.9144   21.2823 O.3     1  LIG1       -0.5066
      9 C          68.5142   11.3349   24.3127 C.ar    1  LIG1       -0.0205
     10 O          64.8739   11.3098   25.1535 O.3     1  LIG1       -0.5058
     11 C          67.3156   11.1101   25.0349 C.ar    1  LIG1        0.1040
     12 O          72.3146   11.8636   23.7294 O.2     1  LIG1       -0.3840
     13 C          66.0743   11.5131   24.4908 C.ar    1  LIG1        0.1346
     14 O          75.4036   12.6145   25.1489 O.2     1  LIG1       -0.2718
     15 C          69.9075   10.9397   24.7761 C.3     1  LIG1        0.0190
     16 C          67.2946   10.5576   26.4260 C.2     1  LIG1        0.3430
     17 C          70.7363   10.2287   23.6669 C.2     1  LIG1        0.0841
     18 C          70.2852    8.9369   23.0816 C.2     1  LIG1       -0.0409
     19 C          67.9487    8.7411   27.8565 C.3     1  LIG1        0.0962
     20 C          67.8440    7.2296   27.6571 C.3     1  LIG1       -0.0003
     21 C          68.7627    6.7220   26.5790 C.2     1  LIG1       -0.0847
     22 C          68.2115    6.3033   25.4270 C.2     1  LIG1       -0.0875
     23 C          69.0118    5.8757   24.2296 C.3     1  LIG1       -0.0313
     24 C          69.2591    8.2396   23.5646 C.2     1  LIG1       -0.0819
     25 C          68.8616    6.8757   23.0784 C.3     1  LIG1       -0.0310
     26 C          73.7325   11.9764   23.5195 C.3     1  LIG1        0.1934
     27 C          74.3624   12.9375   24.5550 C.2     1  LIG1        0.2559
     28 C          72.5719   14.6414   24.1908 C.3     1  LIG1        0.0148
     29 C          71.4657   14.8979   25.1979 C.3     1  LIG1       -0.0371
     30 C          71.9771   15.8900   26.2315 C.3     1  LIG1       -0.0502
     31 C          73.1557   15.2788   26.9755 C.3     1  LIG1       -0.0371
     32 C          74.2834   14.9082   26.0138 C.3     1  LIG1        0.0148
     33 H          65.0660   12.3928   22.7710 H       1  LIG1        0.0691
     34 H          69.3405   12.1504   22.4832 H       1  LIG1        0.0657
     35 H          66.3517   13.1408   20.9619 H       1  LIG1        0.2921
     36 H          65.0089   10.8784   26.0202 H       1  LIG1        0.2922
     37 H          69.8526   10.2683   25.6354 H       1  LIG1        0.0378
     38 H          70.4501   11.8320   25.0996 H       1  LIG1        0.0378
     39 H          70.8470    8.5466   22.2344 H       1  LIG1        0.0633
     40 H          68.8886    8.9734   28.3737 H       1  LIG1        0.0700
     41 H          67.1125    9.0898   28.4797 H       1  LIG1        0.0700
     42 H          68.0564    6.7025   28.5927 H       1  LIG1        0.0340
     43 H          66.8089    6.9866   27.3723 H       1  LIG1        0.0340
     44 H          69.8449    6.7282   26.7168 H       1  LIG1        0.0570
     45 H          67.1261    6.3314   25.3361 H       1  LIG1        0.0569
     46 H          70.0714    5.8038   24.5068 H       1  LIG1        0.0310
     47 H          68.6815    4.8798   23.9143 H       1  LIG1        0.0310
     48 H          68.7024    8.6462   24.3941 H       1  LIG1        0.0573
     49 H          67.8213    6.8936   22.7268 H       1  LIG1        0.0310
     50 H          69.4889    6.5699   22.2276 H       1  LIG1        0.0310
     51 H          74.1933   10.9791   23.6479 H       1  LIG1        0.0822
     52 H          73.9611   12.3274   22.5020 H       1  LIG1        0.0822
     53 H          72.8035   15.5619   23.6538 H       1  LIG1        0.0464
     54 H          72.2298   13.9262   23.4550 H       1  LIG1        0.0464
     55 H          70.5805   15.3001   24.6928 H       1  LIG1        0.0280
     56 H          71.1756   13.9639   25.6957 H       1  LIG1        0.0280
     57 H          71.1804   16.1479   26.9356 H       1  LIG1        0.0266
     58 H          72.2997   16.8088   25.7254 H       1  LIG1        0.0266
     59 H          72.8162   14.3753   27.4982 H       1  LIG1        0.0280
     60 H          73.5215   15.9888   27.7262 H       1  LIG1        0.0280
     61 H          75.0235   14.3121   26.5755 H       1  LIG1        0.0464
     62 H          74.7879   15.8238   25.6826 H       1  LIG1        0.0464
@<TRIPOS>BOND
     1     1     4   ar
     2     1    13   ar
     3     1    33    1
     4     2    12    1
     5     2    17    2
     6     3    16    1
     7     3    19    1
     8     4     7   ar
     9     4     8    1
    10     5    27   am
    11     5    28    1
    12     5    32    1
    13     6    16    2
    14     7     9   ar
    15     7    34    1
    16     8    35    1
    17     9    11   ar
    18     9    15    1
    19    10    13    1
    20    10    36    1
    21    11    13   ar
    22    11    16    1
    23    12    26    1
    24    14    27    2
    25    15    17    1
    26    15    37    1
    27    15    38    1
    28    17    18    1
    29    18    24    2
    30    18    39    1
    31    19    20    1
    32    19    40    1
    33    19    41    1
    34    20    21    1
    35    20    42    1
    36    20    43    1
    37    21    22    2
    38    21    44    1
    39    22    23    1
    40    22    45    1
    41    23    25    1
    42    23    46    1
    43    23    47    1
    44    24    25    1
    45    24    48    1
    46    25    49    1
    47    25    50    1
    48    26    27    1
    49    26    51    1
    50    26    52    1
    51    28    29    1
    52    28    53    1
    53    28    54    1
    54    29    30    1
    55    29    55    1
    56    29    56    1
    57    30    31    1
    58    30    57    1
    59    30    58    1
    60    31    32    1
    61    31    59    1
    62    31    60    1
    63    32    61    1
    64    32    62    1
