2XJJ_L81_A_1225
 OpenBabel03301717073D

 43 46  0  0  0  0  0  0  0  0999 V2000
    1.6870   -1.4110   -3.0079 C   0  0  0  0  0  0  0  0  0  0  0  0
    1.8289    0.6307   -4.4208 C   0  0  0  0  0  0  0  0  0  0  0  0
    0.9009   -0.2570   -3.6194 C   0  0  0  0  0  0  0  0  0  0  0  0
    0.1581    0.5346   -2.5135 C   0  0  0  0  0  0  0  0  0  0  0  0
   -0.2537   -0.8000   -4.4316 C   0  0  0  0  0  0  0  0  0  0  0  0
   -0.2520   -1.4273   -5.6728 C   0  0  0  0  0  0  0  0  0  0  0  0
   -1.4561   -1.9339   -6.1951 C   0  0  0  0  0  0  0  0  0  0  0  0
   -1.4658   -2.6081   -7.5442 C   0  0  0  0  0  0  0  0  0  0  0  0
   -1.7457   -3.7845   -7.6372 O   0  0  0  0  0  0  0  0  0  0  0  0
   -1.1173   -1.8283   -8.6442 N   0  0  0  0  0  0  0  0  0  0  0  0
   -1.1143   -2.3784  -10.0157 C   0  0  0  0  0  0  0  0  0  0  0  0
   -1.3672   -1.1623  -10.8564 C   0  0  0  0  0  0  0  0  0  0  0  0
   -1.6091   -1.0662  -12.2175 C   0  0  0  0  0  0  0  0  0  0  0  0
   -1.8385    0.1878  -12.7835 C   0  0  0  0  0  0  0  0  0  0  0  0
   -1.8089    1.3325  -11.9881 C   0  0  0  0  0  0  0  0  0  0  0  0
   -1.5440    1.2378  -10.6275 C   0  0  0  0  0  0  0  0  0  0  0  0
   -1.3272   -0.0151  -10.0652 C   0  0  0  0  0  0  0  0  0  0  0  0
   -1.0415   -0.3681   -8.6415 C   0  0  0  0  0  0  0  0  0  0  0  0
   -2.6411   -1.8144   -5.4438 C   0  0  0  0  0  0  0  0  0  0  0  0
   -3.8126   -2.3105   -5.9576 O   0  0  0  0  0  0  0  0  0  0  0  0
   -2.6269   -1.1773   -4.1873 C   0  0  0  0  0  0  0  0  0  0  0  0
   -1.4215   -0.6890   -3.6859 C   0  0  0  0  0  0  0  0  0  0  0  0
   -1.1920   -0.0217   -2.4935 N   0  0  0  0  0  0  0  0  0  0  0  0
    2.5271   -1.0379   -2.4098 H   0  0  0  0  0  0  0  0  0  0  0  0
    2.0838   -2.0557   -3.7973 H   0  0  0  0  0  0  0  0  0  0  0  0
    1.0467   -2.0185   -2.3575 H   0  0  0  0  0  0  0  0  0  0  0  0
    2.6457    1.0024   -3.7920 H   0  0  0  0  0  0  0  0  0  0  0  0
    1.2847    1.4871   -4.8310 H   0  0  0  0  0  0  0  0  0  0  0  0
    2.2610    0.0639   -5.2509 H   0  0  0  0  0  0  0  0  0  0  0  0
    0.1067    1.6070   -2.7571 H   0  0  0  0  0  0  0  0  0  0  0  0
    0.6571    0.4471   -1.5381 H   0  0  0  0  0  0  0  0  0  0  0  0
    0.6758   -1.5356   -6.2219 H   0  0  0  0  0  0  0  0  0  0  0  0
   -1.8806   -3.1479  -10.1606 H   0  0  0  0  0  0  0  0  0  0  0  0
   -0.1264   -2.8018  -10.2343 H   0  0  0  0  0  0  0  0  0  0  0  0
   -1.6567   -1.9537  -12.8411 H   0  0  0  0  0  0  0  0  0  0  0  0
   -2.0312    0.2774  -13.8508 H   0  0  0  0  0  0  0  0  0  0  0  0
   -1.9884    2.3067  -12.4372 H   0  0  0  0  0  0  0  0  0  0  0  0
   -1.5286    2.1277  -10.0110 H   0  0  0  0  0  0  0  0  0  0  0  0
   -0.0301   -0.0702   -8.3492 H   0  0  0  0  0  0  0  0  0  0  0  0
   -1.7712    0.0660   -7.9534 H   0  0  0  0  0  0  0  0  0  0  0  0
   -4.5610   -2.1989   -5.3485 H   0  0  0  0  0  0  0  0  0  0  0  0
   -3.5401   -1.0827   -3.6153 H   0  0  0  0  0  0  0  0  0  0  0  0
   -1.8081    0.0067   -1.7025 H   0  0  0  0  0  0  0  0  0  0  0  0
  1  3  1  0  0  0  0
  1 24  1  0  0  0  0
  1 25  1  0  0  0  0
  1 26  1  0  0  0  0
  2  3  1  0  0  0  0
  2 27  1  0  0  0  0
  2 28  1  0  0  0  0
  2 29  1  0  0  0  0
  3  4  1  0  0  0  0
  3  5  1  0  0  0  0
  4 23  1  0  0  0  0
  4 30  1  0  0  0  0
  4 31  1  0  0  0  0
  5  6  2  0  0  0  0
  5 22  1  0  0  0  0
  6  7  1  0  0  0  0
  6 32  1  0  0  0  0
  7  8  1  0  0  0  0
  7 19  2  0  0  0  0
  8  9  2  0  0  0  0
  8 10  1  0  0  0  0
 10 11  1  0  0  0  0
 10 18  1  0  0  0  0
 11 12  1  0  0  0  0
 11 33  1  0  0  0  0
 11 34  1  0  0  0  0
 12 13  2  0  0  0  0
 12 17  1  0  0  0  0
 13 14  1  0  0  0  0
 13 35  1  0  0  0  0
 14 15  2  0  0  0  0
 14 36  1  0  0  0  0
 15 16  1  0  0  0  0
 15 37  1  0  0  0  0
 16 17  2  0  0  0  0
 16 38  1  0  0  0  0
 17 18  1  0  0  0  0
 18 39  1  0  0  0  0
 18 40  1  0  0  0  0
 19 20  1  0  0  0  0
 19 21  1  0  0  0  0
 20 41  1  0  0  0  0
 21 22  2  0  0  0  0
 21 42  1  0  0  0  0
 22 23  1  0  0  0  0
 23 43  1  0  0  0  0
M  END
$$$$
