REMARK  2 active torsions:
REMARK  status: ('A' for Active; 'I' for Inactive)
REMARK    1  A    between atoms: C_7  and  C_8 
REMARK       I    between atoms: C_8  and  N_10 
REMARK    2  A    between atoms: C_19  and  O_20 
ROOT
ATOM      1  C   LIG d   1       1.687  -1.411  -3.008  0.00  0.00     0.017 C 
ATOM      2  C   LIG d   1       1.829   0.631  -4.421  0.00  0.00     0.017 C 
ATOM      3  C   LIG d   1       0.901  -0.257  -3.619  0.00  0.00     0.007 C 
ATOM      4  C   LIG d   1       0.158   0.535  -2.514  0.00  0.00     0.112 C 
ATOM      5  C   LIG d   1      -0.254  -0.800  -4.432  0.00  0.00    -0.018 A 
ATOM      6  C   LIG d   1      -0.252  -1.427  -5.673  0.00  0.00     0.022 A 
ATOM      7  C   LIG d   1      -1.456  -1.934  -6.195  0.00  0.00     0.079 A 
ATOM      8  C   LIG d   1      -2.641  -1.814  -5.444  0.00  0.00     0.131 A 
ATOM      9  C   LIG d   1      -2.627  -1.177  -4.187  0.00  0.00     0.069 A 
ATOM     10  C   LIG d   1      -1.421  -0.689  -3.686  0.00  0.00     0.034 A 
ATOM     11  N   LIG d   1      -1.192  -0.022  -2.494  0.00  0.00    -0.343 N 
ATOM     12  H   LIG d   1      -1.808   0.007  -1.702  0.00  0.00     0.146 HD
ENDROOT
BRANCH   7  13
ATOM     13  C   LIG d   1      -1.466  -2.608  -7.544  0.00  0.00     0.251 C 
ATOM     14  O   LIG d   1      -1.746  -3.784  -7.637  0.00  0.00    -0.270 OA
ATOM     15  N   LIG d   1      -1.117  -1.828  -8.644  0.00  0.00    -0.289 N 
ATOM     16  C   LIG d   1      -1.114  -2.378 -10.016  0.00  0.00     0.144 C 
ATOM     17  C   LIG d   1      -1.042  -0.368  -8.642  0.00  0.00     0.144 C 
ATOM     18  C   LIG d   1      -1.367  -1.162 -10.856  0.00  0.00    -0.025 A 
ATOM     19  C   LIG d   1      -1.609  -1.066 -12.217  0.00  0.00     0.005 A 
ATOM     20  C   LIG d   1      -1.327  -0.015 -10.065  0.00  0.00    -0.025 A 
ATOM     21  C   LIG d   1      -1.839   0.188 -12.784  0.00  0.00     0.000 A 
ATOM     22  C   LIG d   1      -1.809   1.333 -11.988  0.00  0.00     0.000 A 
ATOM     23  C   LIG d   1      -1.544   1.238 -10.627  0.00  0.00     0.005 A 
ENDBRANCH   7  13
BRANCH   8  24
ATOM     24  O   LIG d   1      -3.813  -2.311  -5.958  0.00  0.00    -0.506 OA
ATOM     25  H   LIG d   1      -4.561  -2.199  -5.348  0.00  0.00     0.292 HD
ENDBRANCH   8  24
TORSDOF 2
