@<TRIPOS>MOLECULE
2XJJ_L81_A_1225
 43 46 0 0 0
SMALL
USER_CHARGES

@<TRIPOS>ATOM
      1 C           1.6870   -1.4110   -3.0079 C.3     1  LIG1       -0.0543
      2 C           1.8289    0.6307   -4.4208 C.3     1  LIG1       -0.0543
      3 C           0.9009   -0.2570   -3.6194 C.3     1  LIG1        0.0073
      4 C           0.1581    0.5346   -2.5135 C.3     1  LIG1        0.0183
      5 C          -0.2537   -0.8000   -4.4316 C.ar    1  LIG1       -0.0185
      6 C          -0.2520   -1.4273   -5.6728 C.ar    1  LIG1       -0.0406
      7 C          -1.4561   -1.9339   -6.1951 C.ar    1  LIG1        0.0786
      8 C          -1.4658   -2.6081   -7.5442 C.2     1  LIG1        0.2507
      9 O          -1.7457   -3.7845   -7.6372 O.2     1  LIG1       -0.2698
     10 N          -1.1173   -1.8283   -8.6442 N.am    1  LIG1       -0.2888
     11 C          -1.1143   -2.3784  -10.0157 C.3     1  LIG1        0.0407
     12 C          -1.3672   -1.1623  -10.8564 C.ar    1  LIG1       -0.0254
     13 C          -1.6091   -1.0662  -12.2175 C.ar    1  LIG1       -0.0568
     14 C          -1.8385    0.1878  -12.7835 C.ar    1  LIG1       -0.0614
     15 C          -1.8089    1.3325  -11.9881 C.ar    1  LIG1       -0.0614
     16 C          -1.5440    1.2378  -10.6275 C.ar    1  LIG1       -0.0568
     17 C          -1.3272   -0.0151  -10.0652 C.ar    1  LIG1       -0.0254
     18 C          -1.0415   -0.3681   -8.6415 C.3     1  LIG1        0.0407
     19 C          -2.6411   -1.8144   -5.4438 C.ar    1  LIG1        0.1307
     20 O          -3.8126   -2.3105   -5.9576 O.3     1  LIG1       -0.5059
     21 C          -2.6269   -1.1773   -4.1873 C.ar    1  LIG1        0.0017
     22 C          -1.4215   -0.6890   -3.6859 C.ar    1  LIG1        0.0344
     23 N          -1.1920   -0.0217   -2.4935 N.pl3   1  LIG1       -0.3427
     24 H           2.5271   -1.0379   -2.4098 H       1  LIG1        0.0239
     25 H           2.0838   -2.0557   -3.7973 H       1  LIG1        0.0239
     26 H           1.0467   -2.0185   -2.3575 H       1  LIG1        0.0239
     27 H           2.6457    1.0024   -3.7920 H       1  LIG1        0.0239
     28 H           1.2847    1.4871   -4.8310 H       1  LIG1        0.0239
     29 H           2.2610    0.0639   -5.2509 H       1  LIG1        0.0239
     30 H           0.1067    1.6070   -2.7571 H       1  LIG1        0.0470
     31 H           0.6571    0.4471   -1.5381 H       1  LIG1        0.0470
     32 H           0.6758   -1.5356   -6.2219 H       1  LIG1        0.0630
     33 H          -1.8806   -3.1479  -10.1606 H       1  LIG1        0.0514
     34 H          -0.1264   -2.8018  -10.2343 H       1  LIG1        0.0514
     35 H          -1.6567   -1.9537  -12.8411 H       1  LIG1        0.0621
     36 H          -2.0312    0.2774  -13.8508 H       1  LIG1        0.0618
     37 H          -1.9884    2.3067  -12.4372 H       1  LIG1        0.0618
     38 H          -1.5286    2.1277  -10.0110 H       1  LIG1        0.0621
     39 H          -0.0301   -0.0702   -8.3492 H       1  LIG1        0.0514
     40 H          -1.7712    0.0660   -7.9534 H       1  LIG1        0.0514
     41 H          -4.5610   -2.1989   -5.3485 H       1  LIG1        0.2922
     42 H          -3.5401   -1.0827   -3.6153 H       1  LIG1        0.0673
     43 H          -1.8081    0.0067   -1.7025 H       1  LIG1        0.1461
@<TRIPOS>BOND
     1     1     3    1
     2     1    24    1
     3     1    25    1
     4     1    26    1
     5     2     3    1
     6     2    27    1
     7     2    28    1
     8     2    29    1
     9     3     4    1
    10     3     5    1
    11     4    23    1
    12     4    30    1
    13     4    31    1
    14     5     6   ar
    15     5    22   ar
    16     6     7   ar
    17     6    32    1
    18     7     8    1
    19     7    19   ar
    20     8     9    2
    21     8    10   am
    22    10    11    1
    23    10    18    1
    24    11    12    1
    25    11    33    1
    26    11    34    1
    27    12    13   ar
    28    12    17   ar
    29    13    14   ar
    30    13    35    1
    31    14    15   ar
    32    14    36    1
    33    15    16   ar
    34    15    37    1
    35    16    17   ar
    36    16    38    1
    37    17    18    1
    38    18    39    1
    39    18    40    1
    40    19    20    1
    41    19    21   ar
    42    20    41    1
    43    21    22   ar
    44    21    42    1
    45    22    23    1
    46    23    43    1
