@<TRIPOS>MOLECULE
2JJC_LGA_A_1225
 12 12 0 0 0
SMALL
USER_CHARGES

@<TRIPOS>ATOM
      1 N          61.8016   33.3722   26.1145 N.pl3   1  LIG1       -0.3275
      2 C          62.8298   33.8271   25.3455 C.ar    1  LIG1        0.2125
      3 N          64.0728   33.6742   25.8164 N.ar    1  LIG1       -0.2231
      4 C          65.0725   34.1209   25.0333 C.ar    1  LIG1        0.0326
      5 C          64.8723   34.7118   23.8098 C.ar    1  LIG1       -0.0253
      6 C          63.5589   34.8206   23.4244 C.ar    1  LIG1        0.0326
      7 N          62.5243   34.3894   24.1714 N.ar    1  LIG1       -0.2231
      8 H          60.8669   33.5193   25.7798 H       1  LIG1        0.1452
      9 H          62.0234   32.9905   27.0166 H       1  LIG1        0.1452
     10 H          66.0715   33.9815   25.4347 H       1  LIG1        0.0831
     11 H          65.6869   35.0634   23.1969 H       1  LIG1        0.0648
     12 H          63.2863   35.2729   22.4757 H       1  LIG1        0.0831
@<TRIPOS>BOND
     1     1     2    1
     2     1     8    1
     3     1     9    1
     4     2     3   ar
     5     2     7   ar
     6     3     4   ar
     7     4     5   ar
     8     4    10    1
     9     5     6   ar
    10     5    11    1
    11     6     7   ar
    12     6    12    1
