REMARK  1 active torsions:
REMARK  status: ('A' for Active; 'I' for Inactive)
REMARK    1  A    between atoms: N_1  and  C_2 
ROOT
ATOM      1  C   LIG d   1      62.830  33.827  25.346  0.00  0.00     0.212 A 
ATOM      2  N   LIG d   1      64.073  33.674  25.816  0.00  0.00    -0.223 NA
ATOM      3  C   LIG d   1      65.073  34.121  25.033  0.00  0.00     0.116 A 
ATOM      4  C   LIG d   1      64.872  34.712  23.810  0.00  0.00     0.039 A 
ATOM      5  C   LIG d   1      63.559  34.821  23.424  0.00  0.00     0.116 A 
ATOM      6  N   LIG d   1      62.524  34.389  24.171  0.00  0.00    -0.223 NA
ENDROOT
BRANCH   1   7
ATOM      7  N   LIG d   1      61.802  33.372  26.114  0.00  0.00    -0.328 N 
ATOM      8  H   LIG d   1      60.867  33.519  25.780  0.00  0.00     0.145 HD
ATOM      9  H   LIG d   1      62.023  32.990  27.017  0.00  0.00     0.145 HD
ENDBRANCH   1   7
TORSDOF 1
