3OW6_MEX_A_1
 OpenBabel03301717193D

 28 30  0  0  0  0  0  0  0  0999 V2000
   -0.3455  -11.5083   -2.8047 C   0  0  0  0  0  0  0  0  0  0  0  0
   -1.5168  -11.5168   -3.5738 C   0  0  0  0  0  0  0  0  0  0  0  0
   -2.6928  -12.0622   -3.0465 C   0  0  0  0  0  0  0  0  0  0  0  0
   -2.7085  -12.5754   -1.7513 C   0  0  0  0  0  0  0  0  0  0  0  0
   -1.5368  -12.5547   -0.9950 C   0  0  0  0  0  0  0  0  0  0  0  0
   -0.3508  -12.0399   -1.5155 C   0  0  0  0  0  0  0  0  0  0  0  0
   -1.5885  -13.0475    0.2753 O   0  0  0  0  0  0  0  0  0  0  0  0
   -3.8415  -12.0098   -3.7900 O   0  0  0  0  0  0  0  0  0  0  0  0
   -1.4881  -10.9840   -4.8616 N   0  3  0  0  0  0  0  0  0  0  0  0
   -1.3577   -9.6148   -5.1296 C   0  0  0  0  0  0  0  0  0  0  0  0
   -1.4320   -9.4568   -6.5111 C   0  0  0  0  0  0  0  0  0  0  0  0
   -1.6413  -10.7073   -7.0919 N   0  3  0  0  0  0  0  0  0  0  0  0
   -1.7157  -11.6788   -6.0701 C   0  0  0  0  0  0  0  0  0  0  0  0
   -1.2318   -8.5299   -4.2847 C   0  0  0  0  0  0  0  0  0  0  0  0
   -1.1389   -7.2657   -4.8764 C   0  0  0  0  0  0  0  0  0  0  0  0
   -1.1758   -7.1166   -6.2828 C   0  0  0  0  0  0  0  0  0  0  0  0
   -1.3375   -8.2247   -7.1195 C   0  0  0  0  0  0  0  0  0  0  0  0
   -1.8826  -12.8725   -6.2613 O   0  0  0  0  0  0  0  0  0  0  0  0
    0.5790  -11.1185   -3.2237 H   0  0  0  0  0  0  0  0  0  0  0  0
   -3.6159  -12.9755   -1.3125 H   0  0  0  0  0  0  0  0  0  0  0  0
    0.5696  -12.0458   -0.9399 H   0  0  0  0  0  0  0  0  0  0  0  0
   -0.7144  -12.9426    0.6857 H   0  0  0  0  0  0  0  0  0  0  0  0
   -4.5537  -12.4629   -3.3147 H   0  0  0  0  0  0  0  0  0  0  0  0
   -1.7419  -10.9220   -8.0691 H   0  0  0  0  0  0  0  0  0  0  0  0
   -1.2260   -8.6381   -3.2061 H   0  0  0  0  0  0  0  0  0  0  0  0
   -1.0398   -6.3833   -4.2486 H   0  0  0  0  0  0  0  0  0  0  0  0
   -1.1010   -6.1206   -6.7135 H   0  0  0  0  0  0  0  0  0  0  0  0
   -1.3878   -8.1104   -8.1949 H   0  0  0  0  0  0  0  0  0  0  0  0
  1  2  2  0  0  0  0
  1  6  1  0  0  0  0
  1 19  1  0  0  0  0
  2  3  1  0  0  0  0
  2  9  1  0  0  0  0
  3  4  2  0  0  0  0
  3  8  1  0  0  0  0
  4  5  1  0  0  0  0
  4 20  1  0  0  0  0
  5  6  2  0  0  0  0
  5  7  1  0  0  0  0
  6 21  1  0  0  0  0
  7 22  1  0  0  0  0
  8 23  1  0  0  0  0
  9 10  1  0  0  0  0
  9 13  1  0  0  0  0
 10 11  2  0  0  0  0
 10 14  1  0  0  0  0
 11 12  1  0  0  0  0
 11 17  1  0  0  0  0
 12 13  1  0  0  0  0
 12 24  1  0  0  0  0
 13 18  2  0  0  0  0
 14 15  2  0  0  0  0
 14 25  1  0  0  0  0
 15 16  1  0  0  0  0
 15 26  1  0  0  0  0
 16 17  2  0  0  0  0
 16 27  1  0  0  0  0
 17 28  1  0  0  0  0
M  CHG  2   9   1  12   1
M  END
$$$$
