@<TRIPOS>MOLECULE
3OW6_MEX_A_1
 28 30 0 0 0
SMALL
USER_CHARGES

@<TRIPOS>ATOM
      1 C          -0.3455  -11.5083   -2.8047 C.ar    1  LIG1       -0.0307
      2 C          -1.5168  -11.5168   -3.5738 C.ar    1  LIG1        0.0930
      3 C          -2.6928  -12.0622   -3.0465 C.ar    1  LIG1        0.1442
      4 C          -2.7085  -12.5754   -1.7513 C.ar    1  LIG1        0.0234
      5 C          -1.5368  -12.5547   -0.9950 C.ar    1  LIG1        0.1205
      6 C          -0.3508  -12.0399   -1.5155 C.ar    1  LIG1       -0.0180
      7 O          -1.5885  -13.0475    0.2753 O.3     1  LIG1       -0.5066
      8 O          -3.8415  -12.0098   -3.7900 O.3     1  LIG1       -0.5046
      9 N          -1.4881  -10.9840   -4.8616 N.ar    1  LIG1       -0.2574
     10 C          -1.3577   -9.6148   -5.1296 C.ar    1  LIG1        0.0749
     11 C          -1.4320   -9.4568   -6.5111 C.ar    1  LIG1        0.0674
     12 N          -1.6413  -10.7073   -7.0919 N.ar    1  LIG1       -0.3057
     13 C          -1.7157  -11.6788   -6.0701 C.ar    1  LIG1        0.3322
     14 C          -1.2318   -8.5299   -4.2847 C.ar    1  LIG1       -0.0357
     15 C          -1.1389   -7.2657   -4.8764 C.ar    1  LIG1       -0.0597
     16 C          -1.1758   -7.1166   -6.2828 C.ar    1  LIG1       -0.0597
     17 C          -1.3375   -8.2247   -7.1195 C.ar    1  LIG1       -0.0362
     18 O          -1.8826  -12.8725   -6.2613 O.2     1  LIG1       -0.2462
     19 H           0.5790  -11.1185   -3.2237 H       1  LIG1        0.0641
     20 H          -3.6159  -12.9755   -1.3125 H       1  LIG1        0.0691
     21 H           0.5696  -12.0458   -0.9399 H       1  LIG1        0.0655
     22 H          -0.7144  -12.9426    0.6857 H       1  LIG1        0.2921
     23 H          -4.5537  -12.4629   -3.3147 H       1  LIG1        0.2922
     24 H          -1.7419  -10.9220   -8.0691 H       1  LIG1        0.1705
     25 H          -1.2260   -8.6381   -3.2061 H       1  LIG1        0.0639
     26 H          -1.0398   -6.3833   -4.2486 H       1  LIG1        0.0618
     27 H          -1.1010   -6.1206   -6.7135 H       1  LIG1        0.0618
     28 H          -1.3878   -8.1104   -8.1949 H       1  LIG1        0.0639
@<TRIPOS>BOND
     1     1     2   ar
     2     1     6   ar
     3     1    19    1
     4     2     3   ar
     5     2     9    1
     6     3     4   ar
     7     3     8    1
     8     4     5   ar
     9     4    20    1
    10     5     6   ar
    11     5     7    1
    12     6    21    1
    13     7    22    1
    14     8    23    1
    15     9    10   ar
    16     9    13   ar
    17    10    11   ar
    18    10    14   ar
    19    11    12   ar
    20    11    17   ar
    21    12    13   ar
    22    12    24    1
    23    13    18    2
    24    14    15   ar
    25    14    25    1
    26    15    16   ar
    27    15    26    1
    28    16    17   ar
    29    16    27    1
    30    17    28    1
