REMARK  3 active torsions:
REMARK  status: ('A' for Active; 'I' for Inactive)
REMARK    1  A    between atoms: C_2  and  N_9 
REMARK    2  A    between atoms: C_3  and  O_8 
REMARK    3  A    between atoms: C_5  and  O_7 
ROOT
ATOM      1  N   LIG d   1      -1.488 -10.984  -4.862  0.00  0.00    -0.257 N 
ATOM      2  C   LIG d   1      -1.358  -9.615  -5.130  0.00  0.00     0.075 A 
ATOM      3  C   LIG d   1      -1.432  -9.457  -6.511  0.00  0.00     0.067 A 
ATOM      4  N   LIG d   1      -1.641 -10.707  -7.092  0.00  0.00    -0.306 N 
ATOM      5  C   LIG d   1      -1.716 -11.679  -6.070  0.00  0.00     0.332 A 
ATOM      6  C   LIG d   1      -1.232  -8.530  -4.285  0.00  0.00     0.028 A 
ATOM      7  C   LIG d   1      -1.139  -7.266  -4.876  0.00  0.00     0.002 A 
ATOM      8  C   LIG d   1      -1.176  -7.117  -6.283  0.00  0.00     0.002 A 
ATOM      9  C   LIG d   1      -1.337  -8.225  -7.120  0.00  0.00     0.028 A 
ATOM     10  O   LIG d   1      -1.883 -12.873  -6.261  0.00  0.00    -0.246 OA
ATOM     11  H   LIG d   1      -1.742 -10.922  -8.069  0.00  0.00     0.171 HD
ENDROOT
BRANCH   1  12
ATOM     12  C   LIG d   1      -1.517 -11.517  -3.574  0.00  0.00     0.093 A 
ATOM     13  C   LIG d   1      -0.345 -11.508  -2.805  0.00  0.00     0.033 A 
ATOM     14  C   LIG d   1      -0.351 -12.040  -1.516  0.00  0.00     0.048 A 
ATOM     15  C   LIG d   1      -1.537 -12.555  -0.995  0.00  0.00     0.120 A 
ATOM     16  C   LIG d   1      -2.708 -12.575  -1.751  0.00  0.00     0.092 A 
ATOM     17  C   LIG d   1      -2.693 -12.062  -3.046  0.00  0.00     0.144 A 
BRANCH  15  18
ATOM     18  O   LIG d   1      -1.589 -13.047   0.275  0.00  0.00    -0.507 OA
ATOM     19  H   LIG d   1      -0.714 -12.943   0.686  0.00  0.00     0.292 HD
ENDBRANCH  15  18
BRANCH  17  20
ATOM     20  O   LIG d   1      -3.841 -12.010  -3.790  0.00  0.00    -0.505 OA
ATOM     21  H   LIG d   1      -4.554 -12.463  -3.315  0.00  0.00     0.292 HD
ENDBRANCH  17  20
ENDBRANCH   1  12
TORSDOF 3
