REMARK  7 active torsions:
REMARK  status: ('A' for Active; 'I' for Inactive)
REMARK    1  A    between atoms: C_15  and  C_24 
REMARK    2  A    between atoms: C_18  and  N_26 
REMARK    3  A    between atoms: C_19  and  O_31 
REMARK    4  A    between atoms: C_20  and  O_32 
REMARK    5  A    between atoms: C_21  and  S_33 
REMARK    6  A    between atoms: C_24  and  N_27 
REMARK    7  A    between atoms: N_27  and  S_33 
ROOT
ATOM      1  C   LIG d   1      -0.484   5.644  22.570  0.00  0.00     0.007 A 
ATOM      2  C   LIG d   1      -0.184   6.975  22.866  0.00  0.00     0.028 A 
ATOM      3  C   LIG d   1       0.036   5.961  20.202  0.00  0.00     0.032 A 
ATOM      4  C   LIG d   1      -0.425   5.138  21.241  0.00  0.00    -0.030 A 
ATOM      5  C   LIG d   1       0.232   7.766  21.821  0.00  0.00     0.075 A 
ATOM      6  C   LIG d   1       0.363   7.257  20.528  0.00  0.00     0.068 A 
ATOM      7  C   LIG d   1       1.072   9.420  20.478  0.00  0.00     0.332 A 
ATOM      8  N   LIG d   1       0.870   8.261  19.709  0.00  0.00    -0.306 N 
ATOM      9  N   LIG d   1       0.657   9.100  21.788  0.00  0.00    -0.257 N 
ATOM     10  O   LIG d   1       1.536  10.467  20.072  0.00  0.00    -0.246 OA
ATOM     11  H   LIG d   1       1.075   8.202  18.725  0.00  0.00     0.171 HD
ENDROOT
BRANCH   4  12
ATOM     12  C   LIG d   1      -0.867   3.726  20.934  0.00  0.00     0.141 C 
BRANCH  12  13
ATOM     13  N   LIG d   1      -2.060   3.329  21.695  0.00  0.00    -0.186 N 
ATOM     14  H   LIG d   1      -2.065   3.578  22.675  0.00  0.00     0.148 HD
BRANCH  13  15
ATOM     15  S   LIG d   1      -3.571   3.535  20.990  0.00  0.00     0.059 S 
ATOM     16  O   LIG d   1      -4.561   3.184  21.984  0.00  0.00    -0.153 OA
ATOM     17  O   LIG d   1      -3.543   2.893  19.704  0.00  0.00    -0.153 OA
BRANCH  15  18
ATOM     18  C   LIG d   1      -3.633   5.297  20.735  0.00  0.00     0.113 A 
ATOM     19  C   LIG d   1      -3.517   5.745  19.412  0.00  0.00     0.029 A 
ATOM     20  C   LIG d   1      -3.494   7.105  19.130  0.00  0.00     0.003 A 
ATOM     21  C   LIG d   1      -3.587   8.023  20.170  0.00  0.00     0.008 A 
ATOM     22  C   LIG d   1      -3.711   7.598  21.499  0.00  0.00    -0.016 A 
ATOM     23  C   LIG d   1      -3.805   8.553  22.517  0.00  0.00     0.008 A 
ATOM     24  C   LIG d   1      -3.734   6.215  21.813  0.00  0.00     0.009 A 
ATOM     25  C   LIG d   1      -3.902   8.169  23.852  0.00  0.00     0.001 A 
ATOM     26  C   LIG d   1      -3.912   6.821  24.181  0.00  0.00     0.001 A 
ATOM     27  C   LIG d   1      -3.834   5.861  23.175  0.00  0.00     0.010 A 
ENDBRANCH  15  18
ENDBRANCH  13  15
ENDBRANCH  12  13
ENDBRANCH   4  12
BRANCH   9  28
ATOM     28  C   LIG d   1       0.619   9.950  22.896  0.00  0.00     0.094 A 
ATOM     29  C   LIG d   1      -0.620  10.363  23.399  0.00  0.00     0.053 A 
ATOM     30  C   LIG d   1      -0.681  11.132  24.559  0.00  0.00     0.085 A 
ATOM     31  C   LIG d   1       0.491  11.456  25.242  0.00  0.00     0.139 A 
ATOM     32 CL   LIG d   1      -2.214  11.669  25.138  0.00  0.00    -0.080 Cl
ATOM     33  C   LIG d   1       1.730  11.082  24.727  0.00  0.00     0.094 A 
ATOM     34  C   LIG d   1       1.792  10.360  23.535  0.00  0.00     0.144 A 
BRANCH  31  35
ATOM     35  O   LIG d   1       0.470  12.141  26.427  0.00  0.00    -0.505 OA
ATOM     36  H   LIG d   1      -0.460  12.356  26.632  0.00  0.00     0.292 HD
ENDBRANCH  31  35
BRANCH  34  37
ATOM     37  O   LIG d   1       3.031  10.030  23.061  0.00  0.00    -0.505 OA
ATOM     38  H   LIG d   1       2.919   9.625  22.182  0.00  0.00     0.292 HD
ENDBRANCH  34  37
ENDBRANCH   9  28
TORSDOF 7
