@<TRIPOS>MOLECULE
3OWD_MEY_A_1
 52 56 0 0 0
SMALL
USER_CHARGES

@<TRIPOS>ATOM
      1 C          -3.9018    8.1688   23.8525 C.ar    1  LIG1       -0.0612
      2 C          -3.9115    6.8210   24.1811 C.ar    1  LIG1       -0.0611
      3 C          -3.4945    7.1050   19.1300 C.ar    1  LIG1       -0.0593
      4 C          -3.8052    8.5534   22.5175 C.ar    1  LIG1       -0.0540
      5 C          -3.8345    5.8612   23.1754 C.ar    1  LIG1       -0.0522
      6 C          -3.5870    8.0233   20.1701 C.ar    1  LIG1       -0.0539
      7 C          -0.4836    5.6442   22.5697 C.ar    1  LIG1       -0.0552
      8 C          -0.1844    6.9748   22.8662 C.ar    1  LIG1       -0.0354
      9 C          -3.5170    5.7455   19.4119 C.ar    1  LIG1       -0.0347
     10 C           0.0365    5.9608   20.2020 C.ar    1  LIG1       -0.0318
     11 C          -0.6196   10.3625   23.3995 C.ar    1  LIG1       -0.0122
     12 C           1.7304   11.0822   24.7269 C.ar    1  LIG1        0.0248
     13 C          -3.7113    7.5983   21.4989 C.ar    1  LIG1       -0.0160
     14 C          -3.7344    6.2151   21.8131 C.ar    1  LIG1        0.0085
     15 C          -0.4250    5.1382   21.2411 C.ar    1  LIG1       -0.0299
     16 C           0.2318    7.7662   21.8207 C.ar    1  LIG1        0.0749
     17 C           0.3634    7.2572   20.5282 C.ar    1  LIG1        0.0677
     18 C           0.6186    9.9499   22.8957 C.ar    1  LIG1        0.0944
     19 C           1.7923   10.3600   23.5353 C.ar    1  LIG1        0.1443
     20 C           0.4908   11.4562   25.2422 C.ar    1  LIG1        0.1387
     21 C          -3.6326    5.2972   20.7345 C.ar    1  LIG1        0.1129
     22 C          -0.6815   11.1318   24.5591 C.ar    1  LIG1        0.0845
     23 C           1.0717    9.4204   20.4783 C.ar    1  LIG1        0.3322
     24 C          -0.8670    3.7256   20.9338 C.3     1  LIG1        0.0425
     25 N           0.8699    8.2612   19.7090 N.ar    1  LIG1       -0.3056
     26 N           0.6571    9.1003   21.7879 N.ar    1  LIG1       -0.2574
     27 N          -2.0601    3.3291   21.6955 N.3     1  LIG1       -0.1856
     28 O           1.5359   10.4673   20.0719 O.2     1  LIG1       -0.2462
     29 O          -4.5614    3.1840   21.9838 O.2     1  LIG1       -0.1530
     30 O          -3.5429    2.8928   19.7043 O.2     1  LIG1       -0.1530
     31 O           3.0311   10.0298   23.0615 O.3     1  LIG1       -0.5046
     32 O           0.4699   12.1412   26.4266 O.3     1  LIG1       -0.5052
     33 S          -3.5707    3.5355   20.9896 S.O2    1  LIG1        0.0593
     34 CL         -2.2140   11.6695   25.1377 Cl      1  LIG1       -0.0797
     35 H          -3.9739    8.9204   24.6327 H       1  LIG1        0.0618
     36 H          -3.9856    6.5107   25.2190 H       1  LIG1        0.0618
     37 H          -3.4039    7.4436   18.1044 H       1  LIG1        0.0618
     38 H          -3.8017    9.6142   22.2771 H       1  LIG1        0.0624
     39 H          -3.8471    4.8217   23.4962 H       1  LIG1        0.0624
     40 H          -3.5671    9.0853   19.9316 H       1  LIG1        0.0624
     41 H          -0.8057    5.0091   23.3924 H       1  LIG1        0.0621
     42 H          -0.2740    7.3460   23.8804 H       1  LIG1        0.0639
     43 H          -3.4282    5.0342   18.5944 H       1  LIG1        0.0637
     44 H           0.1180    5.5978   19.1832 H       1  LIG1        0.0642
     45 H          -1.5276   10.1033   22.8691 H       1  LIG1        0.0655
     46 H           2.6436   11.3457   25.2519 H       1  LIG1        0.0692
     47 H          -0.0425    3.0480   21.1855 H       1  LIG1        0.0490
     48 H          -1.0477    3.6014   19.8587 H       1  LIG1        0.0490
     49 H           1.0755    8.2020   18.7250 H       1  LIG1        0.1705
     50 H          -2.0653    3.5778   22.6752 H       1  LIG1        0.1484
     51 H           2.9193    9.6253   22.1824 H       1  LIG1        0.2922
     52 H          -0.4603   12.3558   26.6319 H       1  LIG1        0.2922
@<TRIPOS>BOND
     1     1     2   ar
     2     1     4   ar
     3     1    35    1
     4     2     5   ar
     5     2    36    1
     6     3     6   ar
     7     3     9   ar
     8     3    37    1
     9     4    13   ar
    10     4    38    1
    11     5    14   ar
    12     5    39    1
    13     6    13   ar
    14     6    40    1
    15     7     8   ar
    16     7    15   ar
    17     7    41    1
    18     8    16   ar
    19     8    42    1
    20     9    21   ar
    21     9    43    1
    22    10    15   ar
    23    10    17   ar
    24    10    44    1
    25    11    18   ar
    26    11    22   ar
    27    11    45    1
    28    12    19   ar
    29    12    20   ar
    30    12    46    1
    31    13    14   ar
    32    14    21   ar
    33    15    24    1
    34    16    17   ar
    35    16    26   ar
    36    17    25   ar
    37    18    19   ar
    38    18    26    1
    39    19    31    1
    40    20    22   ar
    41    20    32    1
    42    21    33    1
    43    22    34    1
    44    23    25   ar
    45    23    26   ar
    46    23    28    2
    47    24    27    1
    48    24    47    1
    49    24    48    1
    50    25    49    1
    51    27    33    1
    52    27    50    1
    53    29    33    2
    54    30    33    2
    55    31    51    1
    56    32    52    1
