@<TRIPOS>MOLECULE
3FT5_MO8_A_237
 23 24 0 0 0
SMALL
USER_CHARGES

@<TRIPOS>ATOM
      1 N          29.0642   11.4769   23.7276 N.pl3   1  LIG1       -0.3275
      2 C          30.1605   10.8611   24.3310 C.ar    1  LIG1        0.2130
      3 N          29.9014   10.1845   25.4560 N.ar    1  LIG1       -0.2196
      4 C          30.9406    9.5641   26.0809 C.ar    1  LIG1        0.0475
      5 C          30.5863    8.7869   27.3379 C.3     1  LIG1       -0.0219
      6 C          32.2283    9.6666   25.5659 C.ar    1  LIG1        0.0049
      7 N          31.3627   10.9985   23.7597 N.ar    1  LIG1       -0.2193
      8 C          32.4074   10.4035   24.3822 C.ar    1  LIG1        0.0513
      9 C          33.7758   10.5897   23.7485 C.3     1  LIG1       -0.0009
     10 C          34.5482    9.2902   23.5478 C.3     1  LIG1       -0.0006
     11 S          34.2706    8.0276   24.8505 S.3     1  LIG1       -0.1556
     12 C          33.4102    8.9812   26.1790 C.3     1  LIG1        0.0222
     13 H          29.1988   11.9870   22.8807 H       1  LIG1        0.1452
     14 H          28.1700   11.3756   24.1690 H       1  LIG1        0.1452
     15 H          29.5107    8.8410   27.5642 H       1  LIG1        0.0293
     16 H          31.1265    9.1889   28.2057 H       1  LIG1        0.0293
     17 H          30.8455    7.7243   27.2322 H       1  LIG1        0.0293
     18 H          34.3947   11.2432   24.3785 H       1  LIG1        0.0336
     19 H          33.6976   11.0794   22.7602 H       1  LIG1        0.0336
     20 H          35.6332    9.4881   23.5070 H       1  LIG1        0.0380
     21 H          34.2771    8.8407   22.5821 H       1  LIG1        0.0380
     22 H          33.1174    8.2417   26.9374 H       1  LIG1        0.0426
     23 H          34.0973    9.6853   26.6751 H       1  LIG1        0.0426
@<TRIPOS>BOND
     1     1     2    1
     2     1    13    1
     3     1    14    1
     4     2     3   ar
     5     2     7   ar
     6     3     4   ar
     7     4     5    1
     8     4     6   ar
     9     5    15    1
    10     5    16    1
    11     5    17    1
    12     6     8   ar
    13     6    12    1
    14     7     8   ar
    15     8     9    1
    16     9    10    1
    17     9    18    1
    18     9    19    1
    19    10    11    1
    20    10    20    1
    21    10    21    1
    22    11    12    1
    23    12    22    1
    24    12    23    1
