REMARK  1 active torsions:
REMARK  status: ('A' for Active; 'I' for Inactive)
REMARK    1  A    between atoms: N_1  and  C_2 
ROOT
ATOM      1  C   LIG d   1      30.160  10.861  24.331  0.00  0.00     0.213 A 
ATOM      2  N   LIG d   1      29.901  10.184  25.456  0.00  0.00    -0.220 NA
ATOM      3  C   LIG d   1      30.941   9.564  26.081  0.00  0.00     0.048 A 
ATOM      4  C   LIG d   1      30.586   8.787  27.338  0.00  0.00     0.066 C 
ATOM      5  C   LIG d   1      32.228   9.667  25.566  0.00  0.00     0.005 A 
ATOM      6  N   LIG d   1      31.363  10.998  23.760  0.00  0.00    -0.219 NA
ATOM      7  C   LIG d   1      32.407  10.403  24.382  0.00  0.00     0.051 A 
ATOM      8  C   LIG d   1      33.776  10.590  23.748  0.00  0.00     0.066 C 
ATOM      9  C   LIG d   1      34.548   9.290  23.548  0.00  0.00     0.075 C 
ATOM     10  S   LIG d   1      34.271   8.028  24.851  0.00  0.00    -0.156 SA
ATOM     11  C   LIG d   1      33.410   8.981  26.179  0.00  0.00     0.107 C 
ENDROOT
BRANCH   1  12
ATOM     12  N   LIG d   1      29.064  11.477  23.728  0.00  0.00    -0.328 N 
ATOM     13  H   LIG d   1      29.199  11.987  22.881  0.00  0.00     0.145 HD
ATOM     14  H   LIG d   1      28.170  11.376  24.169  0.00  0.00     0.145 HD
ENDBRANCH   1  12
TORSDOF 1
