REMARK  3 active torsions:
REMARK  status: ('A' for Active; 'I' for Inactive)
REMARK    1  A    between atoms: C_4  and  C_5 
REMARK    2  A    between atoms: C_13  and  C_14 
REMARK    3  A    between atoms: C_23  and  N_24 
ROOT
ATOM      1  C   LIG d   1       3.343  10.789  25.008  0.00  0.00     0.031 C 
ATOM      2  C   LIG d   1       3.274   9.644  26.023  0.00  0.00     0.065 C 
ATOM      3  C   LIG d   1       1.895   9.418  26.610  0.00  0.00     0.065 C 
ATOM      4  N   LIG d   1       1.846   8.513  27.559  0.00  0.00    -0.181 N 
ATOM      5  O   LIG d   1       2.873   8.004  27.980  0.00  0.00    -0.172 OA
ATOM      6  C   LIG d   1       0.694  10.089  26.046  0.00  0.00     0.040 A 
ATOM      7  C   LIG d   1       2.141  10.723  24.057  0.00  0.00     0.064 C 
ATOM      8  C   LIG d   1       0.831  10.715  24.803  0.00  0.00     0.056 A 
ATOM      9  N   LIG d   1      -0.196  11.326  24.160  0.00  0.00    -0.219 NA
ATOM     10  C   LIG d   1      -1.373  11.350  24.773  0.00  0.00     0.213 A 
ATOM     11  N   LIG d   1      -1.606  10.787  25.956  0.00  0.00    -0.219 NA
ATOM     12  C   LIG d   1      -0.575  10.186  26.608  0.00  0.00     0.052 A 
ATOM     13  C   LIG d   1      -0.996   9.695  27.958  0.00  0.00     0.066 C 
ATOM     14  H   LIG d   1       0.997   8.155  28.002  0.00  0.00     0.211 HD
ENDROOT
BRANCH   1  15
ATOM     15  C   LIG d   1       4.679  10.753  24.251  0.00  0.00    -0.036 A 
ATOM     16  C   LIG d   1       5.630  11.807  24.286  0.00  0.00    -0.010 A 
ATOM     17  C   LIG d   1       6.858  11.613  23.606  0.00  0.00     0.047 A 
ATOM     18  C   LIG d   1       7.145  10.428  22.939  0.00  0.00     0.124 A 
ATOM     19  F   LIG d   1       8.329  10.279  22.333  0.00  0.00    -0.205 F 
ATOM     20  C   LIG d   1       6.221   9.402  22.896  0.00  0.00     0.039 A 
ATOM     21  C   LIG d   1       4.995   9.573  23.531  0.00  0.00     0.007 A 
BRANCH  16  22
ATOM     22  C   LIG d   1       5.441  13.091  24.996  0.00  0.00     0.001 A 
ATOM     23  C   LIG d   1       6.401  13.579  25.890  0.00  0.00     0.119 A 
ATOM     24  N   LIG d   1       6.323  14.761  26.552  0.00  0.00    -0.263 NA
ATOM     25  C   LIG d   1       5.227  15.506  26.326  0.00  0.00     0.111 A 
ATOM     26  C   LIG d   1       4.210  15.129  25.467  0.00  0.00     0.020 A 
ATOM     27  C   LIG d   1       4.331  13.918  24.785  0.00  0.00     0.011 A 
ENDBRANCH  16  22
ENDBRANCH   1  15
BRANCH  10  28
ATOM     28  N   LIG d   1      -2.417  12.008  24.164  0.00  0.00    -0.328 NA
ATOM     29  H   LIG d   1      -2.283  12.107  23.169  0.00  0.00     0.145 HD
ATOM     30  H   LIG d   1      -3.314  11.694  24.503  0.00  0.00     0.145 HD
ENDBRANCH  10  28
TORSDOF 3
