@<TRIPOS>MOLECULE
3FT8_MOJ_A_237
 45 48 0 0 0
SMALL
USER_CHARGES

@<TRIPOS>ATOM
      1 F           8.3289   10.2787   22.3333 F       1  LIG1       -0.2055
      2 C           7.1446   10.4284   22.9385 C.ar    1  LIG1        0.1240
      3 C           6.8584   11.6131   23.6059 C.ar    1  LIG1       -0.0184
      4 C           5.6303   11.8071   24.2860 C.ar    1  LIG1       -0.0103
      5 C           5.4412   13.0905   24.9964 C.ar    1  LIG1        0.0006
      6 C           6.4013   13.5793   25.8899 C.ar    1  LIG1        0.0353
      7 N           6.3227   14.7611   26.5515 N.ar    1  LIG1       -0.2627
      8 C           5.2269   15.5056   26.3265 C.ar    1  LIG1        0.0276
      9 C           4.2099   15.1289   25.4667 C.ar    1  LIG1       -0.0430
     10 C           4.3308   13.9181   24.7849 C.ar    1  LIG1       -0.0511
     11 C           6.2215    9.4023   22.8960 C.ar    1  LIG1       -0.0261
     12 C           4.9947    9.5729   23.5314 C.ar    1  LIG1       -0.0550
     13 C           4.6792   10.7531   24.2506 C.ar    1  LIG1       -0.0356
     14 C           3.3429   10.7892   25.0079 C.3     1  LIG1       -0.0044
     15 C           3.2740    9.6443   26.0232 C.3     1  LIG1       -0.0017
     16 C           1.8948    9.4175   26.6098 C.2     1  LIG1        0.0649
     17 N           1.8461    8.5129   27.5587 N.2     1  LIG1       -0.1808
     18 O           2.8728    8.0037   27.9796 O.2     1  LIG1       -0.1717
     19 C           0.6942   10.0888   26.0458 C.ar    1  LIG1        0.0395
     20 C           2.1409   10.7235   24.0567 C.3     1  LIG1       -0.0024
     21 C           0.8310   10.7146   24.8028 C.ar    1  LIG1        0.0560
     22 N          -0.1956   11.3264   24.1602 N.ar    1  LIG1       -0.2190
     23 C          -1.3735   11.3498   24.7731 C.ar    1  LIG1        0.2130
     24 N          -2.4167   12.0079   24.1640 N.pl3   1  LIG1       -0.3275
     25 N          -1.6063   10.7866   25.9561 N.ar    1  LIG1       -0.2193
     26 C          -0.5750   10.1862   26.6077 C.ar    1  LIG1        0.0524
     27 C          -0.9958    9.6948   27.9581 C.3     1  LIG1       -0.0216
     28 H           7.6179   12.3915   23.5939 H       1  LIG1        0.0652
     29 H           7.3059   13.0140   26.1052 H       1  LIG1        0.0836
     30 H           5.1837   16.4474   26.8685 H       1  LIG1        0.0829
     31 H           3.3445   15.7659   25.3215 H       1  LIG1        0.0633
     32 H           3.5499   13.6273   24.0877 H       1  LIG1        0.0625
     33 H           6.4607    8.4774   22.3835 H       1  LIG1        0.0646
     34 H           4.2911    8.7418   23.4896 H       1  LIG1        0.0621
     35 H           3.2568   11.7082   25.5912 H       1  LIG1        0.0356
     36 H           3.9948    9.8453   26.8262 H       1  LIG1        0.0335
     37 H           3.5604    8.6894   25.5658 H       1  LIG1        0.0335
     38 H           0.9969    8.1549   28.0024 H       1  LIG1        0.2110
     39 H           2.1713    9.8324   23.4220 H       1  LIG1        0.0334
     40 H           2.1658   11.5930   23.3828 H       1  LIG1        0.0334
     41 H          -2.2826   12.1067   23.1689 H       1  LIG1        0.1452
     42 H          -3.3144   11.6937   24.5028 H       1  LIG1        0.1452
     43 H          -0.1756    9.4810   28.6412 H       1  LIG1        0.0293
     44 H          -1.6253    8.8059   27.8484 H       1  LIG1        0.0293
     45 H          -1.5871   10.4713   28.4572 H       1  LIG1        0.0293
@<TRIPOS>BOND
     1     1     2    1
     2     2     3   ar
     3     2    11   ar
     4     3     4   ar
     5     3    28    1
     6     4     5    1
     7     4    13   ar
     8     5     6   ar
     9     5    10   ar
    10     6     7   ar
    11     6    29    1
    12     7     8   ar
    13     8     9   ar
    14     8    30    1
    15     9    10   ar
    16     9    31    1
    17    10    32    1
    18    11    12   ar
    19    11    33    1
    20    12    13   ar
    21    12    34    1
    22    13    14    1
    23    14    15    1
    24    14    20    1
    25    14    35    1
    26    15    16    1
    27    15    36    1
    28    15    37    1
    29    16    17    2
    30    16    19    1
    31    17    18    2
    32    17    38    1
    33    19    21   ar
    34    19    26   ar
    35    20    21    1
    36    20    39    1
    37    20    40    1
    38    21    22   ar
    39    22    23   ar
    40    23    24    1
    41    23    25   ar
    42    24    41    1
    43    24    42    1
    44    25    26   ar
    45    26    27    1
    46    27    43    1
    47    27    44    1
    48    27    45    1
