@<TRIPOS>MOLECULE
2XDS_MT0_A_1225
 19 20 0 0 0
SMALL
USER_CHARGES

@<TRIPOS>ATOM
      1 C           6.3853   11.3016   23.3728 C.3     1  LIG1       -0.0200
      2 C           5.1714   12.1316   23.6723 C.ar    1  LIG1        0.0683
      3 N           3.9999   11.6304   23.2269 N.ar    1  LIG1       -0.1525
      4 N           2.8337   12.3212   23.4342 N.ar    1  LIG1       -0.1367
      5 C           2.8822   13.4946   24.0858 C.ar    1  LIG1        0.1591
      6 CL          1.3486   14.2678   24.2610 Cl      1  LIG1       -0.0595
      7 C           4.0518   14.0613   24.5678 C.ar    1  LIG1        0.0225
      8 C           4.0892   15.2868   25.2478 C.ar    1  LIG1       -0.0510
      9 C           5.2822   15.8052   25.7279 C.ar    1  LIG1       -0.0611
     10 C           6.4635   15.1160   25.5132 C.ar    1  LIG1       -0.0611
     11 C           6.4449   13.9021   24.8350 C.ar    1  LIG1       -0.0522
     12 C           5.2486   13.3490   24.3545 C.ar    1  LIG1        0.0078
     13 H           6.0982   10.3843   22.8502 H       1  LIG1        0.0293
     14 H           6.8980   11.0255   24.2999 H       1  LIG1        0.0293
     15 H           7.0729   11.8626   22.7322 H       1  LIG1        0.0293
     16 H           3.1711   15.8541   25.4086 H       1  LIG1        0.0625
     17 H           5.2881   16.7429   26.2686 H       1  LIG1        0.0618
     18 H           7.3999   15.5261   25.8744 H       1  LIG1        0.0618
     19 H           7.3876   13.3718   24.6928 H       1  LIG1        0.0624
@<TRIPOS>BOND
     1     1     2    1
     2     1    13    1
     3     1    14    1
     4     1    15    1
     5     2     3   ar
     6     2    12   ar
     7     3     4   ar
     8     4     5   ar
     9     5     6    1
    10     5     7   ar
    11     7     8   ar
    12     7    12   ar
    13     8     9   ar
    14     8    16    1
    15     9    10   ar
    16     9    17    1
    17    10    11   ar
    18    10    18    1
    19    11    12   ar
    20    11    19    1
