REMARK  0 active torsions:
REMARK  status: ('A' for Active; 'I' for Inactive)
ROOT
ATOM      1  C   LIG d   1       6.385  11.302  23.373  0.00  0.00     0.068 C 
ATOM      2  C   LIG d   1       5.171  12.132  23.672  0.00  0.00     0.068 A 
ATOM      3  N   LIG d   1       4.000  11.630  23.227  0.00  0.00    -0.152 NA
ATOM      4  N   LIG d   1       2.834  12.321  23.434  0.00  0.00    -0.137 NA
ATOM      5  C   LIG d   1       2.882  13.495  24.086  0.00  0.00     0.159 A 
ATOM      6 CL   LIG d   1       1.349  14.268  24.261  0.00  0.00    -0.059 Cl
ATOM      7  C   LIG d   1       4.052  14.061  24.568  0.00  0.00     0.022 A 
ATOM      8  C   LIG d   1       4.089  15.287  25.248  0.00  0.00     0.012 A 
ATOM      9  C   LIG d   1       5.282  15.805  25.728  0.00  0.00     0.001 A 
ATOM     10  C   LIG d   1       6.463  15.116  25.513  0.00  0.00     0.001 A 
ATOM     11  C   LIG d   1       6.445  13.902  24.835  0.00  0.00     0.010 A 
ATOM     12  C   LIG d   1       5.249  13.349  24.355  0.00  0.00     0.008 A 
ENDROOT
TORSDOF 0
