@<TRIPOS>MOLECULE
2XDU_MT0_A_1228
 19 20 0 0 0
SMALL
USER_CHARGES

@<TRIPOS>ATOM
      1 C           7.3856   11.0704   23.4152 C.3     1  LIG1       -0.0200
      2 C           6.1139   11.8317   23.6792 C.ar    1  LIG1        0.0683
      3 N           4.9858   11.2821   23.1777 N.ar    1  LIG1       -0.1525
      4 N           3.7793   11.8962   23.3635 N.ar    1  LIG1       -0.1367
      5 C           3.7378   13.0605   24.0505 C.ar    1  LIG1        0.1591
      6 CL          2.1638   13.7489   24.2158 Cl      1  LIG1       -0.0595
      7 C           4.8590   13.6708   24.5924 C.ar    1  LIG1        0.0225
      8 C           4.8079   14.8690   25.3075 C.ar    1  LIG1       -0.0510
      9 C           5.9615   15.4344   25.8301 C.ar    1  LIG1       -0.0611
     10 C           7.1779   14.8151   25.6467 C.ar    1  LIG1       -0.0611
     11 C           7.2489   13.6249   24.9398 C.ar    1  LIG1       -0.0522
     12 C           6.0990   13.0269   24.3974 C.ar    1  LIG1        0.0078
     13 H           7.1776   10.1669   22.8370 H       1  LIG1        0.0293
     14 H           7.8525   10.7741   24.3604 H       1  LIG1        0.0293
     15 H           8.0879   11.6889   22.8461 H       1  LIG1        0.0293
     16 H           3.8560   15.3835   25.4692 H       1  LIG1        0.0625
     17 H           5.8931   16.3698   26.3881 H       1  LIG1        0.0618
     18 H           8.0761   15.2652   26.0572 H       1  LIG1        0.0618
     19 H           8.2255   13.1526   24.8123 H       1  LIG1        0.0624
@<TRIPOS>BOND
     1     1     2    1
     2     1    13    1
     3     1    14    1
     4     1    15    1
     5     2     3   ar
     6     2    12   ar
     7     3     4   ar
     8     4     5   ar
     9     5     6    1
    10     5     7   ar
    11     7     8   ar
    12     7    12   ar
    13     8     9   ar
    14     8    16    1
    15     9    10   ar
    16     9    17    1
    17    10    11   ar
    18    10    18    1
    19    11    12   ar
    20    11    19    1
