REMARK  0 active torsions:
REMARK  status: ('A' for Active; 'I' for Inactive)
ROOT
ATOM      1  C   LIG d   1       7.386  11.070  23.415  0.00  0.00     0.068 C 
ATOM      2  C   LIG d   1       6.114  11.832  23.679  0.00  0.00     0.068 A 
ATOM      3  N   LIG d   1       4.986  11.282  23.178  0.00  0.00    -0.152 NA
ATOM      4  N   LIG d   1       3.779  11.896  23.363  0.00  0.00    -0.137 NA
ATOM      5  C   LIG d   1       3.738  13.060  24.050  0.00  0.00     0.159 A 
ATOM      6 CL   LIG d   1       2.164  13.749  24.216  0.00  0.00    -0.059 Cl
ATOM      7  C   LIG d   1       4.859  13.671  24.592  0.00  0.00     0.022 A 
ATOM      8  C   LIG d   1       4.808  14.869  25.308  0.00  0.00     0.012 A 
ATOM      9  C   LIG d   1       5.962  15.434  25.830  0.00  0.00     0.001 A 
ATOM     10  C   LIG d   1       7.178  14.815  25.647  0.00  0.00     0.001 A 
ATOM     11  C   LIG d   1       7.249  13.625  24.940  0.00  0.00     0.010 A 
ATOM     12  C   LIG d   1       6.099  13.027  24.397  0.00  0.00     0.008 A 
ENDROOT
TORSDOF 0
