REMARK  7 active torsions:
REMARK  status: ('A' for Active; 'I' for Inactive)
REMARK    1  A    between atoms: C_3  and  N_11 
REMARK    2  A    between atoms: N_4  and  C_12 
REMARK    3  A    between atoms: C_8  and  S_10 
REMARK    4  A    between atoms: S_10  and  C_17 
REMARK    5  A    between atoms: C_12  and  C_13 
REMARK    6  A    between atoms: C_13  and  C_14 
REMARK    7  A    between atoms: C_14  and  C_15 
ROOT
ATOM      1  C   LIG d   1      -0.015 -10.730 -24.447  0.00  0.00     0.000 A 
ATOM      2  C   LIG d   1      -0.886 -10.110 -23.573  0.00  0.00     0.000 A 
ATOM      3  C   LIG d   1       1.321 -10.856 -24.169  0.00  0.00     0.000 A 
ATOM      4  N   LIG d   1      -0.437  -9.586 -22.415  0.00  0.00     1.000 N 
ATOM      5  N   LIG d   1       1.758 -10.344 -23.004  0.00  0.00     0.000 NA
ATOM      6  C   LIG d   1       0.871  -9.748 -22.174  0.00  0.00     0.000 A 
ATOM      7  N   LIG d   1      -0.801 -11.127 -25.515  0.00  0.00     0.000 N 
ATOM      8  C   LIG d   1      -2.073 -10.745 -25.214  0.00  0.00     0.000 A 
ATOM      9  N   LIG d   1      -2.174 -10.115 -24.077  0.00  0.00     0.000 NA
ATOM     10  H   LIG d   1      -0.519 -11.618 -26.357  0.00  0.00     0.000 HD
ENDROOT
BRANCH   8  11
ATOM     11  S   LIG d   1      -3.327 -11.032 -26.346  0.00  0.00     0.000 SA
BRANCH  11  12
ATOM     12  C   LIG d   1      -4.350 -12.194 -25.437  0.00  0.00     0.000 A 
ATOM     13  C   LIG d   1      -3.791 -13.357 -24.889  0.00  0.00     0.000 A 
ATOM     14  C   LIG d   1      -4.596 -14.302 -24.250  0.00  0.00     0.000 A 
ATOM     15  C   LIG d   1      -5.976 -14.108 -24.149  0.00  0.00     0.000 A 
ATOM     16  C   LIG d   1      -6.541 -12.958 -24.704  0.00  0.00     0.000 A 
ATOM     17  C   LIG d   1      -6.844 -15.112 -23.464  0.00  0.00     0.000 C 
ATOM     18  C   LIG d   1      -5.741 -12.003 -25.352  0.00  0.00     0.000 A 
ATOM     19  C   LIG d   1      -6.428 -10.800 -25.927  0.00  0.00     0.000 C 
ENDBRANCH  11  12
ENDBRANCH   8  11
BRANCH   3  20
ATOM     20  N   LIG d   1       2.200 -11.458 -25.021  0.00  0.00     0.000 N 
ATOM     21  H   LIG d   1       3.172 -11.519 -24.744  0.00  0.00     0.000 HD
ATOM     22  H   LIG d   1       1.919 -11.858 -25.902  0.00  0.00     0.000 HD
ENDBRANCH   3  20
BRANCH   4  23
ATOM     23  C   LIG d   1      -1.319  -8.894 -21.472  0.00  0.00     0.000 C 
BRANCH  23  24
ATOM     24  C   LIG d   1      -1.625  -7.473 -21.920  0.00  0.00     0.000 C 
BRANCH  24  25
ATOM     25  C   LIG d   1      -0.388  -6.613 -22.119  0.00  0.00     0.000 C 
BRANCH  25  26
ATOM     26  C   LIG d   1      -0.086  -6.521 -23.521  0.00  0.00     0.000 C 
ATOM     27  C   LIG d   1       0.423  -6.935 -24.518  0.00  0.00     0.000 C 
ENDBRANCH  25  26
ENDBRANCH  24  25
ENDBRANCH  23  24
ENDBRANCH   4  23
TORSDOF 7
