@<TRIPOS>MOLECULE
3O0I_P54_A_237
 44 46 0 0 0
SMALL
USER_CHARGES

@<TRIPOS>ATOM
      1 C          -0.0154  -10.7301  -24.4469 C.ar    1  LIG1        0.0000
      2 C          -0.8864  -10.1095  -23.5726 C.ar    1  LIG1        0.0000
      3 C           1.3205  -10.8557  -24.1693 C.ar    1  LIG1        0.0000
      4 N          -0.4366   -9.5865  -22.4153 N.ar    1  LIG1        1.0000
      5 N           1.7579  -10.3439  -23.0042 N.ar    1  LIG1        0.0000
      6 C           0.8706   -9.7476  -22.1736 C.ar    1  LIG1        0.0000
      7 N          -0.8014  -11.1274  -25.5145 N.ar    1  LIG1        0.0000
      8 C          -2.0733  -10.7450  -25.2138 C.ar    1  LIG1        0.0000
      9 N          -2.1735  -10.1147  -24.0769 N.ar    1  LIG1        0.0000
     10 S          -3.3273  -11.0318  -26.3456 S.3     1  LIG1        0.0000
     11 N           2.1998  -11.4576  -25.0207 N.pl3   1  LIG1        0.0000
     12 C          -1.3193   -8.8937  -21.4720 C.3     1  LIG1        0.0000
     13 C          -1.6245   -7.4725  -21.9200 C.3     1  LIG1        0.0000
     14 C          -0.3883   -6.6133  -22.1193 C.3     1  LIG1        0.0000
     15 C          -0.0856   -6.5214  -23.5215 C.1     1  LIG1        0.0000
     16 C           0.4231   -6.9354  -24.5181 C.1     1  LIG1        0.0000
     17 C          -4.3499  -12.1939  -25.4369 C.ar    1  LIG1        0.0000
     18 C          -3.7911  -13.3565  -24.8888 C.ar    1  LIG1        0.0000
     19 C          -4.5957  -14.3019  -24.2495 C.ar    1  LIG1        0.0000
     20 C          -5.9760  -14.1076  -24.1494 C.ar    1  LIG1        0.0000
     21 C          -5.7408  -12.0032  -25.3522 C.ar    1  LIG1        0.0000
     22 C          -6.5407  -12.9579  -24.7045 C.ar    1  LIG1        0.0000
     23 C          -6.4280  -10.7999  -25.9267 C.3     1  LIG1        0.0000
     24 C          -6.8436  -15.1120  -23.4642 C.3     1  LIG1        0.0000
     25 H           1.2736   -9.3428  -21.2485 H       1  LIG1        0.0000
     26 H          -0.5188  -11.6183  -26.3568 H       1  LIG1        0.0000
     27 H           3.1723  -11.5194  -24.7442 H       1  LIG1        0.0000
     28 H           1.9194  -11.8581  -25.9018 H       1  LIG1        0.0000
     29 H          -0.8420   -8.9052  -20.4906 H       1  LIG1        0.0000
     30 H          -2.2426   -9.4802  -21.4123 H       1  LIG1        0.0000
     31 H          -2.2317   -7.0058  -21.1410 H       1  LIG1        0.0000
     32 H          -2.2296   -7.5043  -22.8354 H       1  LIG1        0.0000
     33 H           0.4996   -7.1267  -21.7519 H       1  LIG1        0.0000
     34 H          -0.4445   -5.6603  -21.5917 H       1  LIG1        0.0000
     35 H           0.9817   -7.5572  -25.1666 H       1  LIG1        0.0000
     36 H          -2.7256  -13.5481  -24.9576 H       1  LIG1        0.0000
     37 H          -4.1479  -15.2001  -23.8298 H       1  LIG1        0.0000
     38 H          -7.6173  -12.7995  -24.6363 H       1  LIG1        0.0000
     39 H          -5.7299  -10.1187  -26.4107 H       1  LIG1        0.0000
     40 H          -6.9222  -10.2411  -25.1282 H       1  LIG1        0.0000
     41 H          -7.1574  -11.1062  -26.6809 H       1  LIG1        0.0000
     42 H          -6.2437  -15.9448  -23.0881 H       1  LIG1        0.0000
     43 H          -7.5875  -15.5089  -24.1609 H       1  LIG1        0.0000
     44 H          -7.3512  -14.6464  -22.6145 H       1  LIG1        0.0000
@<TRIPOS>BOND
     1     1     2   ar
     2     1     3   ar
     3     1     7   ar
     4     2     4   ar
     5     2     9   ar
     6     3     5   ar
     7     3    11    1
     8     4     6   ar
     9     4    12    1
    10     5     6   ar
    11     6    25    1
    12     7     8   ar
    13     7    26    1
    14     8     9   ar
    15     8    10    1
    16    10    17    1
    17    11    27    1
    18    11    28    1
    19    12    13    1
    20    12    29    1
    21    12    30    1
    22    13    14    1
    23    13    31    1
    24    13    32    1
    25    14    15    1
    26    14    33    1
    27    14    34    1
    28    15    16    3
    29    16    35    1
    30    17    18   ar
    31    17    21   ar
    32    18    19   ar
    33    18    36    1
    34    19    20   ar
    35    19    37    1
    36    20    22   ar
    37    20    24    1
    38    21    22   ar
    39    21    23    1
    40    22    38    1
    41    23    39    1
    42    23    40    1
    43    23    41    1
    44    24    42    1
    45    24    43    1
    46    24    44    1
