@<TRIPOS>MOLECULE
3K99_PFT_A_901
 32 34 0 0 0
SMALL
USER_CHARGES

@<TRIPOS>ATOM
      1 N          47.3366   72.4022   63.8798 N.am    1  LIG1       -0.2888
      2 C          46.9016   72.3503   65.1944 C.2     1  LIG1        0.2507
      3 C          47.9291   73.6129   63.2935 C.3     1  LIG1        0.0407
      4 C          47.3706   71.2717   62.9607 C.3     1  LIG1        0.0407
      5 C          46.4970   71.0186   65.7279 C.ar    1  LIG1        0.0785
      6 O          46.8409   73.3289   65.9262 O.2     1  LIG1       -0.2698
      7 C          48.3087   73.1828   61.9013 C.ar    1  LIG1       -0.0254
      8 C          47.9786   71.8350   61.7204 C.ar    1  LIG1       -0.0254
      9 C          47.3898   70.2753   66.5061 C.ar    1  LIG1        0.1324
     10 C          45.2240   70.4844   65.4512 C.ar    1  LIG1       -0.0426
     11 C          48.9031   73.8966   60.8693 C.ar    1  LIG1       -0.0568
     12 C          48.2187   71.1743   60.5256 C.ar    1  LIG1       -0.0568
     13 C          47.0407   69.0093   66.9851 C.ar    1  LIG1        0.0221
     14 O          48.6361   70.7740   66.7821 O.3     1  LIG1       -0.5059
     15 C          44.8737   69.2123   65.9246 C.ar    1  LIG1       -0.0192
     16 C          49.1497   73.2361   59.6556 C.ar    1  LIG1       -0.0614
     17 C          48.8095   71.8859   59.4849 C.ar    1  LIG1       -0.0614
     18 C          45.7908   68.4839   66.6803 C.ar    1  LIG1        0.1204
     19 O          45.5055   67.2336   67.1461 O.3     1  LIG1       -0.5066
     20 H          48.8056   73.9051   63.8831 H       1  LIG1        0.0514
     21 H          47.1866   74.4166   63.2937 H       1  LIG1        0.0514
     22 H          46.3488   70.9323   62.7755 H       1  LIG1        0.0514
     23 H          47.9871   70.4726   63.3792 H       1  LIG1        0.0514
     24 H          44.5054   71.0601   64.8707 H       1  LIG1        0.0627
     25 H          49.1802   74.9401   60.9813 H       1  LIG1        0.0621
     26 H          47.9576   70.1281   60.4056 H       1  LIG1        0.0621
     27 H          47.7276   68.4209   67.5815 H       1  LIG1        0.0691
     28 H          49.0938   70.1671   67.3858 H       1  LIG1        0.2922
     29 H          43.8930   68.8047   65.6954 H       1  LIG1        0.0654
     30 H          49.6161   73.7706   58.8294 H       1  LIG1        0.0618
     31 H          49.0092   71.3890   58.5371 H       1  LIG1        0.0618
     32 H          44.6040   66.9871   66.8807 H       1  LIG1        0.2921
@<TRIPOS>BOND
     1     1     2   am
     2     1     3    1
     3     1     4    1
     4     2     5    1
     5     2     6    2
     6     3     7    1
     7     3    20    1
     8     3    21    1
     9     4     8    1
    10     4    22    1
    11     4    23    1
    12     5     9   ar
    13     5    10   ar
    14     7     8   ar
    15     7    11   ar
    16     8    12   ar
    17     9    13   ar
    18     9    14    1
    19    10    15   ar
    20    10    24    1
    21    11    16   ar
    22    11    25    1
    23    12    17   ar
    24    12    26    1
    25    13    18   ar
    26    13    27    1
    27    14    28    1
    28    15    18   ar
    29    15    29    1
    30    16    17   ar
    31    16    30    1
    32    17    31    1
    33    18    19    1
    34    19    32    1
