REMARK  3 active torsions:
REMARK  status: ('A' for Active; 'I' for Inactive)
REMARK       I    between atoms: N_1  and  C_2 
REMARK    1  A    between atoms: C_2  and  C_5 
REMARK    2  A    between atoms: C_9  and  O_14 
REMARK    3  A    between atoms: C_18  and  O_19 
ROOT
ATOM      1  N   LIG d   1      47.337  72.402  63.880  0.00  0.00    -0.289 N 
ATOM      2  C   LIG d   1      46.902  72.350  65.194  0.00  0.00     0.251 C 
ATOM      3  C   LIG d   1      47.929  73.613  63.294  0.00  0.00     0.144 A 
ATOM      4  C   LIG d   1      47.371  71.272  62.961  0.00  0.00     0.144 A 
ATOM      5  O   LIG d   1      46.841  73.329  65.926  0.00  0.00    -0.270 OA
ATOM      6  C   LIG d   1      48.309  73.183  61.901  0.00  0.00    -0.025 A 
ATOM      7  C   LIG d   1      47.979  71.835  61.720  0.00  0.00    -0.025 A 
ATOM      8  C   LIG d   1      48.903  73.897  60.869  0.00  0.00     0.005 A 
ATOM      9  C   LIG d   1      48.219  71.174  60.526  0.00  0.00     0.005 A 
ATOM     10  C   LIG d   1      49.150  73.236  59.656  0.00  0.00     0.000 A 
ATOM     11  C   LIG d   1      48.809  71.886  59.485  0.00  0.00     0.000 A 
ENDROOT
BRANCH   2  12
ATOM     12  C   LIG d   1      46.497  71.019  65.728  0.00  0.00     0.079 A 
ATOM     13  C   LIG d   1      47.390  70.275  66.506  0.00  0.00     0.132 A 
ATOM     14  C   LIG d   1      47.041  69.009  66.985  0.00  0.00     0.091 A 
ATOM     15  C   LIG d   1      45.791  68.484  66.680  0.00  0.00     0.120 A 
ATOM     16  C   LIG d   1      44.874  69.212  65.925  0.00  0.00     0.046 A 
ATOM     17  C   LIG d   1      45.224  70.484  65.451  0.00  0.00     0.020 A 
BRANCH  13  18
ATOM     18  O   LIG d   1      48.636  70.774  66.782  0.00  0.00    -0.506 OA
ATOM     19  H   LIG d   1      49.094  70.167  67.386  0.00  0.00     0.292 HD
ENDBRANCH  13  18
BRANCH  15  20
ATOM     20  O   LIG d   1      45.505  67.234  67.146  0.00  0.00    -0.507 OA
ATOM     21  H   LIG d   1      44.604  66.987  66.881  0.00  0.00     0.292 HD
ENDBRANCH  15  20
ENDBRANCH   2  12
TORSDOF 3
