1UYH_PU0_A_1224
 OpenBabel03301716583D

 48 50  0  0  0  0  0  0  0  0999 V2000
    7.6019   10.2082   22.8340 C   0  0  0  0  0  0  0  0  0  0  0  0
    6.5851   12.6170   23.9478 C   0  0  0  0  0  0  0  0  0  0  0  0
    6.2061   10.4851   22.8064 O   0  0  0  0  0  0  0  0  0  0  0  0
    5.7554   11.6035   23.4551 C   0  0  0  0  0  0  0  0  0  0  0  0
    6.0429   13.7520   24.5673 C   0  0  0  0  0  0  0  0  0  0  0  0
    4.6662   13.8870   24.7012 C   0  0  0  0  0  0  0  0  0  0  0  0
    4.0056   14.9326   25.2816 O   0  0  0  0  0  0  0  0  0  0  0  0
    4.7908   16.0141   25.7652 C   0  0  0  0  0  0  0  0  0  0  0  0
    3.8367   12.8781   24.2095 C   0  0  0  0  0  0  0  0  0  0  0  0
    4.3591   11.7204   23.5985 C   0  0  0  0  0  0  0  0  0  0  0  0
    3.4174   10.6498   23.0658 C   0  0  0  0  0  0  0  0  0  0  0  0
    2.1790   10.4474   23.8983 C   0  0  0  0  0  0  0  0  0  0  0  0
    0.9696   10.8850   23.5818 N   0  0  0  0  0  0  0  0  0  0  0  0
    0.1731   10.5827   24.6666 C   0  0  0  0  0  0  0  0  0  0  0  0
   -1.1825   10.8322   24.9481 C   0  0  0  0  0  0  0  0  0  0  0  0
   -2.0263   11.4850   24.0809 N   0  0  0  0  0  0  0  0  0  0  0  0
    0.8998    9.9282   25.6392 C   0  0  0  0  0  0  0  0  0  0  0  0
    0.4544    9.4982   26.8310 N   0  0  0  0  0  0  0  0  0  0  0  0
   -0.8548    9.7904   26.9955 C   0  0  0  0  0  0  0  0  0  0  0  0
   -1.6820   10.4189   26.1326 N   0  0  0  0  0  0  0  0  0  0  0  0
    2.1715    9.8212   25.1292 N   0  3  0  0  0  0  0  0  0  0  0  0
    3.3009    9.2548   25.8388 C   0  0  0  0  0  0  0  0  0  0  0  0
    3.3388    7.7231   25.8260 C   0  0  0  0  0  0  0  0  0  0  0  0
    3.8579    7.0911   24.5297 C   0  0  0  0  0  0  0  0  0  0  0  0
    5.3010    7.4460   24.2051 C   0  0  0  0  0  0  0  0  0  0  0  0
   -1.4025    9.4050   28.1576 F   0  0  0  0  0  0  0  0  0  0  0  0
    7.7620    9.2586   22.3127 H   0  0  0  0  0  0  0  0  0  0  0  0
    7.9643   10.0849   23.8607 H   0  0  0  0  0  0  0  0  0  0  0  0
    8.1707   10.9762   22.3019 H   0  0  0  0  0  0  0  0  0  0  0  0
    7.6647   12.5644   23.8525 H   0  0  0  0  0  0  0  0  0  0  0  0
    6.7263   14.5155   24.9244 H   0  0  0  0  0  0  0  0  0  0  0  0
    4.1083   16.7610   26.1828 H   0  0  0  0  0  0  0  0  0  0  0  0
    5.3490   16.4910   24.9531 H   0  0  0  0  0  0  0  0  0  0  0  0
    5.4599   15.6894   26.5692 H   0  0  0  0  0  0  0  0  0  0  0  0
    2.7593   13.0063   24.3094 H   0  0  0  0  0  0  0  0  0  0  0  0
    3.9231    9.6834   22.9946 H   0  0  0  0  0  0  0  0  0  0  0  0
    3.1316   10.9181   22.0419 H   0  0  0  0  0  0  0  0  0  0  0  0
   -2.9903   11.6002   24.3438 H   0  0  0  0  0  0  0  0  0  0  0  0
   -1.6711   11.7916   23.1820 H   0  0  0  0  0  0  0  0  0  0  0  0
    3.2352    9.6148   26.8719 H   0  0  0  0  0  0  0  0  0  0  0  0
    4.2241    9.6797   25.4391 H   0  0  0  0  0  0  0  0  0  0  0  0
    2.3372    7.3249   26.0271 H   0  0  0  0  0  0  0  0  0  0  0  0
    3.9799    7.3876   26.6516 H   0  0  0  0  0  0  0  0  0  0  0  0
    3.2098    7.3674   23.6907 H   0  0  0  0  0  0  0  0  0  0  0  0
    3.7950    6.0006   24.6290 H   0  0  0  0  0  0  0  0  0  0  0  0
    5.4312    8.5183   24.0768 H   0  0  0  0  0  0  0  0  0  0  0  0
    5.6105    6.9666   23.2710 H   0  0  0  0  0  0  0  0  0  0  0  0
    5.9812    7.1279   24.9996 H   0  0  0  0  0  0  0  0  0  0  0  0
  1  3  1  0  0  0  0
  1 27  1  0  0  0  0
  1 28  1  0  0  0  0
  1 29  1  0  0  0  0
  2  4  2  0  0  0  0
  2  5  1  0  0  0  0
  2 30  1  0  0  0  0
  3  4  1  0  0  0  0
  4 10  1  0  0  0  0
  5  6  2  0  0  0  0
  5 31  1  0  0  0  0
  6  7  1  0  0  0  0
  6  9  1  0  0  0  0
  7  8  1  0  0  0  0
  8 32  1  0  0  0  0
  8 33  1  0  0  0  0
  8 34  1  0  0  0  0
  9 10  2  0  0  0  0
  9 35  1  0  0  0  0
 10 11  1  0  0  0  0
 11 12  1  0  0  0  0
 11 36  1  0  0  0  0
 11 37  1  0  0  0  0
 12 13  1  0  0  0  0
 12 21  2  0  0  0  0
 13 14  1  0  0  0  0
 14 15  2  0  0  0  0
 14 17  1  0  0  0  0
 15 16  1  0  0  0  0
 15 20  1  0  0  0  0
 16 38  1  0  0  0  0
 16 39  1  0  0  0  0
 17 18  2  0  0  0  0
 17 21  1  0  0  0  0
 18 19  1  0  0  0  0
 19 20  2  0  0  0  0
 19 26  1  0  0  0  0
 21 22  1  0  0  0  0
 22 23  1  0  0  0  0
 22 40  1  0  0  0  0
 22 41  1  0  0  0  0
 23 24  1  0  0  0  0
 23 42  1  0  0  0  0
 23 43  1  0  0  0  0
 24 25  1  0  0  0  0
 24 44  1  0  0  0  0
 24 45  1  0  0  0  0
 25 46  1  0  0  0  0
 25 47  1  0  0  0  0
 25 48  1  0  0  0  0
M  CHG  1  21   1
M  END
$$$$
