@<TRIPOS>MOLECULE
1UYH_PU0_A_1224
 48 50 0 0 0
SMALL
USER_CHARGES

@<TRIPOS>ATOM
      1 C           7.6019   10.2082   22.8340 C.3     1  LIG1        0.0788
      2 C           6.5851   12.6170   23.9478 C.ar    1  LIG1       -0.0162
      3 O           6.2061   10.4851   22.8064 O.3     1  LIG1       -0.4948
      4 C           5.7554   11.6035   23.4551 C.ar    1  LIG1        0.1239
      5 C           6.0429   13.7520   24.5673 C.ar    1  LIG1       -0.0165
      6 C           4.6662   13.8870   24.7012 C.ar    1  LIG1        0.1206
      7 O           4.0056   14.9326   25.2816 O.3     1  LIG1       -0.4951
      8 C           4.7908   16.0141   25.7652 C.3     1  LIG1        0.0788
      9 C           3.8367   12.8781   24.2095 C.ar    1  LIG1       -0.0129
     10 C           4.3591   11.7204   23.5985 C.ar    1  LIG1        0.0050
     11 C           3.4174   10.6498   23.0658 C.3     1  LIG1        0.0344
     12 C           2.1790   10.4474   23.8983 C.ar    1  LIG1        0.1165
     13 N           0.9696   10.8850   23.5818 N.ar    1  LIG1       -0.2268
     14 C           0.1731   10.5827   24.6666 C.ar    1  LIG1        0.1477
     15 C          -1.1825   10.8322   24.9481 C.ar    1  LIG1        0.1500
     16 N          -2.0263   11.4850   24.0809 N.pl3   1  LIG1       -0.3412
     17 C           0.8998    9.9282   25.6392 C.ar    1  LIG1        0.1684
     18 N           0.4544    9.4982   26.8310 N.ar    1  LIG1       -0.1822
     19 C          -0.8548    9.7904   26.9955 C.ar    1  LIG1        0.3127
     20 N          -1.6820   10.4189   26.1326 N.ar    1  LIG1       -0.1852
     21 N           2.1715    9.8212   25.1292 N.ar    1  LIG1       -0.3120
     22 C           3.3009    9.2548   25.8388 C.3     1  LIG1        0.0263
     23 C           3.3388    7.7231   25.8260 C.3     1  LIG1       -0.0351
     24 C           3.8579    7.0911   24.5297 C.3     1  LIG1       -0.0543
     25 C           5.3010    7.4460   24.2051 C.3     1  LIG1       -0.0652
     26 F          -1.4025    9.4050   28.1576 F       1  LIG1       -0.1610
     27 H           7.7620    9.2586   22.3127 H       1  LIG1        0.0660
     28 H           7.9643   10.0849   23.8607 H       1  LIG1        0.0660
     29 H           8.1707   10.9762   22.3019 H       1  LIG1        0.0660
     30 H           7.6647   12.5644   23.8525 H       1  LIG1        0.0655
     31 H           6.7263   14.5155   24.9244 H       1  LIG1        0.0655
     32 H           4.1083   16.7610   26.1828 H       1  LIG1        0.0660
     33 H           5.3490   16.4910   24.9531 H       1  LIG1        0.0660
     34 H           5.4599   15.6894   26.5692 H       1  LIG1        0.0660
     35 H           2.7593   13.0063   24.3094 H       1  LIG1        0.0658
     36 H           3.9231    9.6834   22.9946 H       1  LIG1        0.0393
     37 H           3.1316   10.9181   22.0419 H       1  LIG1        0.0393
     38 H          -2.9903   11.6002   24.3438 H       1  LIG1        0.1438
     39 H          -1.6711   11.7916   23.1820 H       1  LIG1        0.1438
     40 H           3.2352    9.6148   26.8719 H       1  LIG1        0.0493
     41 H           4.2241    9.6797   25.4391 H       1  LIG1        0.0493
     42 H           2.3372    7.3249   26.0271 H       1  LIG1        0.0282
     43 H           3.9799    7.3876   26.6516 H       1  LIG1        0.0282
     44 H           3.2098    7.3674   23.6907 H       1  LIG1        0.0263
     45 H           3.7950    6.0006   24.6290 H       1  LIG1        0.0263
     46 H           5.4312    8.5183   24.0768 H       1  LIG1        0.0230
     47 H           5.6105    6.9666   23.2710 H       1  LIG1        0.0230
     48 H           5.9812    7.1279   24.9996 H       1  LIG1        0.0230
@<TRIPOS>BOND
     1     1     3    1
     2     1    27    1
     3     1    28    1
     4     1    29    1
     5     2     4   ar
     6     2     5   ar
     7     2    30    1
     8     3     4    1
     9     4    10   ar
    10     5     6   ar
    11     5    31    1
    12     6     7    1
    13     6     9   ar
    14     7     8    1
    15     8    32    1
    16     8    33    1
    17     8    34    1
    18     9    10   ar
    19     9    35    1
    20    10    11    1
    21    11    12    1
    22    11    36    1
    23    11    37    1
    24    12    13   ar
    25    12    21   ar
    26    13    14   ar
    27    14    15   ar
    28    14    17   ar
    29    15    16    1
    30    15    20   ar
    31    16    38    1
    32    16    39    1
    33    17    18   ar
    34    17    21   ar
    35    18    19   ar
    36    19    20   ar
    37    19    26    1
    38    21    22    1
    39    22    23    1
    40    22    40    1
    41    22    41    1
    42    23    24    1
    43    23    42    1
    44    23    43    1
    45    24    25    1
    46    24    44    1
    47    24    45    1
    48    25    46    1
    49    25    47    1
    50    25    48    1
