REMARK  8 active torsions:
REMARK  status: ('A' for Active; 'I' for Inactive)
REMARK    1  A    between atoms: O_3  and  C_4 
REMARK    2  A    between atoms: C_6  and  O_7 
REMARK    3  A    between atoms: C_10  and  C_11 
REMARK    4  A    between atoms: C_11  and  C_12 
REMARK    5  A    between atoms: C_15  and  N_16 
REMARK    6  A    between atoms: N_21  and  C_22 
REMARK    7  A    between atoms: C_22  and  C_23 
REMARK    8  A    between atoms: C_23  and  C_24 
ROOT
ATOM      1  C   LIG d   1       2.179  10.447  23.898  0.00  0.00     0.117 A 
ATOM      2  N   LIG d   1       0.970  10.885  23.582  0.00  0.00    -0.227 NA
ATOM      3  C   LIG d   1       0.173  10.583  24.667  0.00  0.00     0.148 A 
ATOM      4  C   LIG d   1      -1.183  10.832  24.948  0.00  0.00     0.150 A 
ATOM      5  C   LIG d   1       0.900   9.928  25.639  0.00  0.00     0.168 A 
ATOM      6  N   LIG d   1       0.454   9.498  26.831  0.00  0.00    -0.182 NA
ATOM      7  C   LIG d   1      -0.855   9.790  26.995  0.00  0.00     0.313 A 
ATOM      8  N   LIG d   1      -1.682  10.419  26.133  0.00  0.00    -0.185 NA
ATOM      9  N   LIG d   1       2.171   9.821  25.129  0.00  0.00    -0.312 N 
ATOM     10  F   LIG d   1      -1.403   9.405  28.158  0.00  0.00    -0.161 F 
ENDROOT
BRANCH   1  11
ATOM     11  C   LIG d   1       3.417  10.650  23.066  0.00  0.00     0.113 C 
BRANCH  11  12
ATOM     12  C   LIG d   1       4.359  11.720  23.599  0.00  0.00     0.005 A 
ATOM     13  C   LIG d   1       5.755  11.604  23.455  0.00  0.00     0.124 A 
ATOM     14  C   LIG d   1       6.585  12.617  23.948  0.00  0.00     0.049 A 
ATOM     15  C   LIG d   1       6.043  13.752  24.567  0.00  0.00     0.049 A 
ATOM     16  C   LIG d   1       4.666  13.887  24.701  0.00  0.00     0.121 A 
ATOM     17  C   LIG d   1       3.837  12.878  24.209  0.00  0.00     0.053 A 
BRANCH  13  18
ATOM     18  O   LIG d   1       6.206  10.485  22.806  0.00  0.00    -0.495 OA
ATOM     19  C   LIG d   1       7.602  10.208  22.834  0.00  0.00     0.277 C 
ENDBRANCH  13  18
BRANCH  16  20
ATOM     20  O   LIG d   1       4.006  14.933  25.282  0.00  0.00    -0.495 OA
ATOM     21  C   LIG d   1       4.791  16.014  25.765  0.00  0.00     0.277 C 
ENDBRANCH  16  20
ENDBRANCH  11  12
ENDBRANCH   1  11
BRANCH   9  22
ATOM     22  C   LIG d   1       3.301   9.255  25.839  0.00  0.00     0.125 C 
BRANCH  22  23
ATOM     23  C   LIG d   1       3.339   7.723  25.826  0.00  0.00     0.021 C 
BRANCH  23  24
ATOM     24  C   LIG d   1       3.858   7.091  24.530  0.00  0.00    -0.002 C 
ATOM     25  C   LIG d   1       5.301   7.446  24.205  0.00  0.00     0.004 C 
ENDBRANCH  23  24
ENDBRANCH  22  23
ENDBRANCH   9  22
BRANCH   4  26
ATOM     26  N   LIG d   1      -2.026  11.485  24.081  0.00  0.00    -0.341 N 
ATOM     27  H   LIG d   1      -2.990  11.600  24.344  0.00  0.00     0.144 HD
ATOM     28  H   LIG d   1      -1.671  11.792  23.182  0.00  0.00     0.144 HD
ENDBRANCH   4  26
TORSDOF 8
