@<TRIPOS>MOLECULE
1UYF_PU1_A_1224
 51 53 0 0 0
SMALL
USER_CHARGES

@<TRIPOS>ATOM
      1 CL          2.3284   14.0343   24.2914 Cl      1  LIG1       -0.0793
      2 C           3.9004   13.2980   24.2072 C.ar    1  LIG1        0.0900
      3 C           5.0104   13.9515   24.7419 C.ar    1  LIG1        0.1838
      4 O           5.1081   15.1588   25.3500 O.3     1  LIG1       -0.4900
      5 C           4.1067   15.7109   26.1371 C.3     1  LIG1        0.0790
      6 C           6.2930   13.4012   24.6258 C.ar    1  LIG1        0.2050
      7 O           7.3476   14.0627   25.2360 O.3     1  LIG1       -0.4885
      8 C           7.7558   15.2582   24.5656 C.3     1  LIG1        0.0791
      9 C           6.5302   12.1729   24.0438 C.ar    1  LIG1        0.1655
     10 O           7.8199   11.7246   24.0904 O.3     1  LIG1       -0.4913
     11 C           8.1728   10.7227   23.1604 C.3     1  LIG1        0.0790
     12 C           5.4395   11.5151   23.4959 C.ar    1  LIG1       -0.0111
     13 C           4.1216   12.0519   23.5771 C.ar    1  LIG1       -0.0146
     14 C           3.0287   11.2187   22.9573 C.3     1  LIG1        0.0325
     15 C           1.8442   10.9915   23.8487 C.ar    1  LIG1        0.1164
     16 N           0.6232   11.4185   23.5792 N.ar    1  LIG1       -0.2268
     17 C          -0.1533   10.9997   24.6322 C.ar    1  LIG1        0.1477
     18 C          -1.5168   11.1485   24.9331 C.ar    1  LIG1        0.1500
     19 N          -2.4421   11.7988   24.1334 N.pl3   1  LIG1       -0.3412
     20 C           0.6134   10.3258   25.5766 C.ar    1  LIG1        0.1684
     21 N           0.1873    9.8088   26.7477 N.ar    1  LIG1       -0.1822
     22 C          -1.1319   10.0093   26.9440 C.ar    1  LIG1        0.3127
     23 N          -1.9777   10.6243   26.1022 N.ar    1  LIG1       -0.1852
     24 N           1.9091   10.3323   25.0742 N.ar    1  LIG1       -0.3120
     25 C           3.0653    9.6672   25.6849 C.3     1  LIG1        0.0272
     26 C           2.9597    8.1518   25.6125 C.3     1  LIG1       -0.0240
     27 C           3.4022    7.4791   24.3099 C.3     1  LIG1        0.0105
     28 C           4.7442    7.7755   23.7797 C.1     1  LIG1       -0.1055
     29 C           5.8346    8.0243   23.2640 C.1     1  LIG1       -0.1192
     30 F          -1.6773    9.5503   28.0866 F       1  LIG1       -0.1610
     31 H           4.4744   16.6768   26.5135 H       1  LIG1        0.0660
     32 H           3.8826   15.0646   26.9810 H       1  LIG1        0.0660
     33 H           3.2303   15.9045   25.5388 H       1  LIG1        0.0660
     34 H           8.5743   15.7041   25.1494 H       1  LIG1        0.0660
     35 H           6.9554   15.9984   24.4951 H       1  LIG1        0.0660
     36 H           8.1278   15.0270   23.5655 H       1  LIG1        0.0660
     37 H           9.2221   10.4310   23.2944 H       1  LIG1        0.0660
     38 H           8.0381   11.0868   22.1392 H       1  LIG1        0.0660
     39 H           7.5658    9.8458   23.3223 H       1  LIG1        0.0660
     40 H           5.5823   10.5531   23.0185 H       1  LIG1        0.0659
     41 H           3.4402   10.2332   22.6956 H       1  LIG1        0.0392
     42 H           2.7237   11.7087   22.0228 H       1  LIG1        0.0392
     43 H          -3.4051   11.8595   24.4275 H       1  LIG1        0.1438
     44 H          -2.1630   12.2139   23.2582 H       1  LIG1        0.1438
     45 H           3.1430    9.9597   26.7487 H       1  LIG1        0.0493
     46 H           3.9880    9.9820   25.1940 H       1  LIG1        0.0493
     47 H           1.9020    7.8938   25.7661 H       1  LIG1        0.0291
     48 H           3.5392    7.7154   26.4300 H       1  LIG1        0.0291
     49 H           2.6602    7.7462   23.5587 H       1  LIG1        0.0398
     50 H           3.3364    6.4010   24.5033 H       1  LIG1        0.0398
     51 H           6.7619    8.2550   22.8250 H       1  LIG1        0.1228
@<TRIPOS>BOND
     1     1     2    1
     2     2     3   ar
     3     2    13   ar
     4     3     4    1
     5     3     6   ar
     6     4     5    1
     7     5    31    1
     8     5    32    1
     9     5    33    1
    10     6     7    1
    11     6     9   ar
    12     7     8    1
    13     8    34    1
    14     8    35    1
    15     8    36    1
    16     9    10    1
    17     9    12   ar
    18    10    11    1
    19    11    37    1
    20    11    38    1
    21    11    39    1
    22    12    13   ar
    23    12    40    1
    24    13    14    1
    25    14    15    1
    26    14    41    1
    27    14    42    1
    28    15    16   ar
    29    15    24   ar
    30    16    17   ar
    31    17    18   ar
    32    17    20   ar
    33    18    19    1
    34    18    23   ar
    35    19    43    1
    36    19    44    1
    37    20    21   ar
    38    20    24   ar
    39    21    22   ar
    40    22    23   ar
    41    22    30    1
    42    24    25    1
    43    25    26    1
    44    25    45    1
    45    25    46    1
    46    26    27    1
    47    26    47    1
    48    26    48    1
    49    27    28    1
    50    27    49    1
    51    27    50    1
    52    28    29    3
    53    29    51    1
