1UYF_PU1_A_1224
 OpenBabel03301716583D

 51 53  0  0  0  0  0  0  0  0999 V2000
    2.3284   14.0343   24.2914 Cl  0  0  0  0  0  0  0  0  0  0  0  0
    3.9004   13.2980   24.2072 C   0  0  0  0  0  0  0  0  0  0  0  0
    5.0104   13.9515   24.7419 C   0  0  0  0  0  0  0  0  0  0  0  0
    5.1081   15.1588   25.3500 O   0  0  0  0  0  0  0  0  0  0  0  0
    4.1067   15.7109   26.1371 C   0  0  0  0  0  0  0  0  0  0  0  0
    6.2930   13.4012   24.6258 C   0  0  0  0  0  0  0  0  0  0  0  0
    7.3476   14.0627   25.2360 O   0  0  0  0  0  0  0  0  0  0  0  0
    7.7558   15.2582   24.5656 C   0  0  0  0  0  0  0  0  0  0  0  0
    6.5302   12.1729   24.0438 C   0  0  0  0  0  0  0  0  0  0  0  0
    7.8199   11.7246   24.0904 O   0  0  0  0  0  0  0  0  0  0  0  0
    8.1728   10.7227   23.1604 C   0  0  0  0  0  0  0  0  0  0  0  0
    5.4395   11.5151   23.4959 C   0  0  0  0  0  0  0  0  0  0  0  0
    4.1216   12.0519   23.5771 C   0  0  0  0  0  0  0  0  0  0  0  0
    3.0287   11.2187   22.9573 C   0  0  0  0  0  0  0  0  0  0  0  0
    1.8442   10.9915   23.8487 C   0  0  0  0  0  0  0  0  0  0  0  0
    0.6232   11.4185   23.5792 N   0  0  0  0  0  0  0  0  0  0  0  0
   -0.1533   10.9997   24.6322 C   0  0  0  0  0  0  0  0  0  0  0  0
   -1.5168   11.1485   24.9331 C   0  0  0  0  0  0  0  0  0  0  0  0
   -2.4421   11.7988   24.1334 N   0  0  0  0  0  0  0  0  0  0  0  0
    0.6134   10.3258   25.5766 C   0  0  0  0  0  0  0  0  0  0  0  0
    0.1873    9.8088   26.7477 N   0  0  0  0  0  0  0  0  0  0  0  0
   -1.1319   10.0093   26.9440 C   0  0  0  0  0  0  0  0  0  0  0  0
   -1.9777   10.6243   26.1022 N   0  0  0  0  0  0  0  0  0  0  0  0
    1.9091   10.3323   25.0742 N   0  3  0  0  0  0  0  0  0  0  0  0
    3.0653    9.6672   25.6849 C   0  0  0  0  0  0  0  0  0  0  0  0
    2.9597    8.1518   25.6125 C   0  0  0  0  0  0  0  0  0  0  0  0
    3.4022    7.4791   24.3099 C   0  0  0  0  0  0  0  0  0  0  0  0
    4.7442    7.7755   23.7797 C   0  0  0  0  0  0  0  0  0  0  0  0
    5.8346    8.0243   23.2640 C   0  0  0  0  0  0  0  0  0  0  0  0
   -1.6773    9.5503   28.0866 F   0  0  0  0  0  0  0  0  0  0  0  0
    4.4744   16.6768   26.5135 H   0  0  0  0  0  0  0  0  0  0  0  0
    3.8826   15.0646   26.9810 H   0  0  0  0  0  0  0  0  0  0  0  0
    3.2303   15.9045   25.5388 H   0  0  0  0  0  0  0  0  0  0  0  0
    8.5743   15.7041   25.1494 H   0  0  0  0  0  0  0  0  0  0  0  0
    6.9554   15.9984   24.4951 H   0  0  0  0  0  0  0  0  0  0  0  0
    8.1278   15.0270   23.5655 H   0  0  0  0  0  0  0  0  0  0  0  0
    9.2221   10.4310   23.2944 H   0  0  0  0  0  0  0  0  0  0  0  0
    8.0381   11.0868   22.1392 H   0  0  0  0  0  0  0  0  0  0  0  0
    7.5658    9.8458   23.3223 H   0  0  0  0  0  0  0  0  0  0  0  0
    5.5823   10.5531   23.0185 H   0  0  0  0  0  0  0  0  0  0  0  0
    3.4402   10.2332   22.6956 H   0  0  0  0  0  0  0  0  0  0  0  0
    2.7237   11.7087   22.0228 H   0  0  0  0  0  0  0  0  0  0  0  0
   -3.4051   11.8595   24.4275 H   0  0  0  0  0  0  0  0  0  0  0  0
   -2.1630   12.2139   23.2582 H   0  0  0  0  0  0  0  0  0  0  0  0
    3.1430    9.9597   26.7487 H   0  0  0  0  0  0  0  0  0  0  0  0
    3.9880    9.9820   25.1940 H   0  0  0  0  0  0  0  0  0  0  0  0
    1.9020    7.8938   25.7661 H   0  0  0  0  0  0  0  0  0  0  0  0
    3.5392    7.7154   26.4300 H   0  0  0  0  0  0  0  0  0  0  0  0
    2.6602    7.7462   23.5587 H   0  0  0  0  0  0  0  0  0  0  0  0
    3.3364    6.4010   24.5033 H   0  0  0  0  0  0  0  0  0  0  0  0
    6.7619    8.2550   22.8250 H   0  0  0  0  0  0  0  0  0  0  0  0
  1  2  1  0  0  0  0
  2  3  2  0  0  0  0
  2 13  1  0  0  0  0
  3  4  1  0  0  0  0
  3  6  1  0  0  0  0
  4  5  1  0  0  0  0
  5 31  1  0  0  0  0
  5 32  1  0  0  0  0
  5 33  1  0  0  0  0
  6  7  1  0  0  0  0
  6  9  2  0  0  0  0
  7  8  1  0  0  0  0
  8 34  1  0  0  0  0
  8 35  1  0  0  0  0
  8 36  1  0  0  0  0
  9 10  1  0  0  0  0
  9 12  1  0  0  0  0
 10 11  1  0  0  0  0
 11 37  1  0  0  0  0
 11 38  1  0  0  0  0
 11 39  1  0  0  0  0
 12 13  2  0  0  0  0
 12 40  1  0  0  0  0
 13 14  1  0  0  0  0
 14 15  1  0  0  0  0
 14 41  1  0  0  0  0
 14 42  1  0  0  0  0
 15 16  1  0  0  0  0
 15 24  2  0  0  0  0
 16 17  1  0  0  0  0
 17 18  2  0  0  0  0
 17 20  1  0  0  0  0
 18 19  1  0  0  0  0
 18 23  1  0  0  0  0
 19 43  1  0  0  0  0
 19 44  1  0  0  0  0
 20 21  2  0  0  0  0
 20 24  1  0  0  0  0
 21 22  1  0  0  0  0
 22 23  2  0  0  0  0
 22 30  1  0  0  0  0
 24 25  1  0  0  0  0
 25 26  1  0  0  0  0
 25 45  1  0  0  0  0
 25 46  1  0  0  0  0
 26 27  1  0  0  0  0
 26 47  1  0  0  0  0
 26 48  1  0  0  0  0
 27 28  1  0  0  0  0
 27 49  1  0  0  0  0
 27 50  1  0  0  0  0
 28 29  3  0  0  0  0
 29 51  1  0  0  0  0
M  CHG  1  24   1
M  END
$$$$
