REMARK  9 active torsions:
REMARK  status: ('A' for Active; 'I' for Inactive)
REMARK    1  A    between atoms: C_3  and  O_4 
REMARK    2  A    between atoms: C_6  and  O_7 
REMARK    3  A    between atoms: C_9  and  O_10 
REMARK    4  A    between atoms: C_13  and  C_14 
REMARK    5  A    between atoms: C_14  and  C_15 
REMARK    6  A    between atoms: C_18  and  N_19 
REMARK    7  A    between atoms: N_24  and  C_25 
REMARK    8  A    between atoms: C_25  and  C_26 
REMARK    9  A    between atoms: C_26  and  C_27 
ROOT
ATOM      1  C   LIG d   1       3.402   7.479  24.310  0.00  0.00     0.090 C 
ATOM      2  C   LIG d   1       4.744   7.776  23.780  0.00  0.00    -0.105 C 
ATOM      3  C   LIG d   1       5.835   8.024  23.264  0.00  0.00     0.004 C 
ENDROOT
BRANCH   1   4
ATOM      4  C   LIG d   1       2.960   8.152  25.613  0.00  0.00     0.034 C 
BRANCH   4   5
ATOM      5  C   LIG d   1       3.065   9.667  25.685  0.00  0.00     0.126 C 
BRANCH   5   6
ATOM      6  N   LIG d   1       1.909  10.332  25.074  0.00  0.00    -0.312 N 
ATOM      7  C   LIG d   1       1.844  10.992  23.849  0.00  0.00     0.116 A 
ATOM      8  N   LIG d   1       0.623  11.418  23.579  0.00  0.00    -0.227 NA
ATOM      9  C   LIG d   1      -0.153  11.000  24.632  0.00  0.00     0.148 A 
ATOM     10  C   LIG d   1      -1.517  11.149  24.933  0.00  0.00     0.150 A 
ATOM     11  C   LIG d   1       0.613  10.326  25.577  0.00  0.00     0.168 A 
ATOM     12  N   LIG d   1      -1.978  10.624  26.102  0.00  0.00    -0.185 NA
ATOM     13  C   LIG d   1      -1.132  10.009  26.944  0.00  0.00     0.313 A 
ATOM     14  N   LIG d   1       0.187   9.809  26.748  0.00  0.00    -0.182 NA
ATOM     15  F   LIG d   1      -1.677   9.550  28.087  0.00  0.00    -0.161 F 
BRANCH   7  16
ATOM     16  C   LIG d   1       3.029  11.219  22.957  0.00  0.00     0.111 C 
BRANCH  16  17
ATOM     17  C   LIG d   1       4.122  12.052  23.577  0.00  0.00    -0.015 A 
ATOM     18  C   LIG d   1       3.900  13.298  24.207  0.00  0.00     0.090 A 
ATOM     19 CL   LIG d   1       2.328  14.034  24.291  0.00  0.00    -0.079 Cl
ATOM     20  C   LIG d   1       5.010  13.951  24.742  0.00  0.00     0.184 A 
ATOM     21  C   LIG d   1       6.293  13.401  24.626  0.00  0.00     0.205 A 
ATOM     22  C   LIG d   1       6.530  12.173  24.044  0.00  0.00     0.166 A 
ATOM     23  C   LIG d   1       5.439  11.515  23.496  0.00  0.00     0.055 A 
BRANCH  20  24
ATOM     24  O   LIG d   1       5.108  15.159  25.350  0.00  0.00    -0.490 OA
ATOM     25  C   LIG d   1       4.107  15.711  26.137  0.00  0.00     0.277 C 
ENDBRANCH  20  24
BRANCH  21  26
ATOM     26  O   LIG d   1       7.348  14.063  25.236  0.00  0.00    -0.488 OA
ATOM     27  C   LIG d   1       7.756  15.258  24.566  0.00  0.00     0.277 C 
ENDBRANCH  21  26
BRANCH  22  28
ATOM     28  O   LIG d   1       7.820  11.725  24.090  0.00  0.00    -0.491 OA
ATOM     29  C   LIG d   1       8.173  10.723  23.160  0.00  0.00     0.277 C 
ENDBRANCH  22  28
ENDBRANCH  16  17
ENDBRANCH   7  16
BRANCH  10  30
ATOM     30  N   LIG d   1      -2.442  11.799  24.133  0.00  0.00    -0.341 N 
ATOM     31  H   LIG d   1      -3.405  11.860  24.427  0.00  0.00     0.144 HD
ATOM     32  H   LIG d   1      -2.163  12.214  23.258  0.00  0.00     0.144 HD
ENDBRANCH  10  30
ENDBRANCH   5   6
ENDBRANCH   4   5
ENDBRANCH   1   4
TORSDOF 9
