REMARK  5 active torsions:
REMARK  status: ('A' for Active; 'I' for Inactive)
REMARK    1  A    between atoms: C_6  and  C_12 
REMARK    2  A    between atoms: C_6  and  C_14 
REMARK    3  A    between atoms: C_9  and  N_10 
REMARK    4  A    between atoms: C_13  and  O_21 
REMARK    5  A    between atoms: C_18  and  O_20 
ROOT
ATOM      1  N   LIG d   1       2.278   9.949  25.322  0.00  0.00    -0.326 N 
ATOM      2  C   LIG d   1       1.011  10.083  25.793  0.00  0.00     0.166 A 
ATOM      3  N   LIG d   1       0.576   9.665  26.986  0.00  0.00    -0.182 NA
ATOM      4  C   LIG d   1      -0.745   9.903  27.181  0.00  0.00     0.313 A 
ATOM      5  N   LIG d   1      -1.579  10.485  26.279  0.00  0.00    -0.185 NA
ATOM      6  C   LIG d   1       0.271  10.694  24.797  0.00  0.00     0.147 A 
ATOM      7  C   LIG d   1      -1.096  10.891  25.068  0.00  0.00     0.150 A 
ATOM      8  N   LIG d   1       1.073  10.946  23.713  0.00  0.00    -0.227 NA
ATOM      9  C   LIG d   1       2.255  10.466  24.046  0.00  0.00     0.114 A 
ATOM     10  F   LIG d   1      -1.249   9.532  28.364  0.00  0.00    -0.161 F 
ATOM     11  H   LIG d   1       3.050   9.556  25.813  0.00  0.00     0.169 HD
ENDROOT
BRANCH   9  12
ATOM     12  C   LIG d   1       3.512  10.505  23.261  0.00  0.00     0.113 C 
BRANCH  12  13
ATOM     13  C   LIG d   1       4.441  11.625  23.665  0.00  0.00     0.005 A 
ATOM     14  C   LIG d   1       5.820  11.521  23.398  0.00  0.00     0.124 A 
ATOM     15  C   LIG d   1       6.677  12.564  23.734  0.00  0.00     0.049 A 
ATOM     16  C   LIG d   1       6.166  13.710  24.346  0.00  0.00     0.049 A 
ATOM     17  C   LIG d   1       4.808  13.829  24.639  0.00  0.00     0.121 A 
ATOM     18  C   LIG d   1       3.944  12.783  24.290  0.00  0.00     0.053 A 
BRANCH  14  19
ATOM     19  O   LIG d   1       6.264  10.367  22.799  0.00  0.00    -0.495 OA
ATOM     20  C   LIG d   1       7.667  10.099  22.848  0.00  0.00     0.277 C 
ENDBRANCH  14  19
BRANCH  17  21
ATOM     21  O   LIG d   1       4.221  14.902  25.255  0.00  0.00    -0.495 OA
ATOM     22  C   LIG d   1       5.032  15.994  25.697  0.00  0.00     0.277 C 
ENDBRANCH  17  21
ENDBRANCH  12  13
ENDBRANCH   9  12
BRANCH   7  23
ATOM     23  N   LIG d   1      -1.960  11.469  24.159  0.00  0.00    -0.341 N 
ATOM     24  H   LIG d   1      -1.621  11.808  23.269  0.00  0.00     0.144 HD
ATOM     25  H   LIG d   1      -2.935  11.565  24.401  0.00  0.00     0.144 HD
ENDBRANCH   7  23
TORSDOF 5
