@<TRIPOS>MOLECULE
1UYG_PU2_A_1224
 36 38 0 0 0
SMALL
USER_CHARGES

@<TRIPOS>ATOM
      1 C           7.6666   10.0994   22.8483 C.3     1  LIG1        0.0788
      2 N           2.2784    9.9488   25.3224 N.ar    1  LIG1       -0.3262
      3 C           1.0107   10.0826   25.7931 C.ar    1  LIG1        0.1658
      4 N           0.5757    9.6647   26.9857 N.ar    1  LIG1       -0.1825
      5 C          -0.7448    9.9032   27.1808 C.ar    1  LIG1        0.3127
      6 C           3.5116   10.5055   23.2612 C.3     1  LIG1        0.0342
      7 N          -1.5786   10.4848   26.2785 N.ar    1  LIG1       -0.1852
      8 C           0.2714   10.6941   24.7974 C.ar    1  LIG1        0.1475
      9 C          -1.0959   10.8911   25.0676 C.ar    1  LIG1        0.1500
     10 N          -1.9605   11.4685   24.1588 N.pl3   1  LIG1       -0.3412
     11 N           1.0734   10.9462   23.7131 N.ar    1  LIG1       -0.2271
     12 C           2.2548   10.4657   24.0455 C.ar    1  LIG1        0.1139
     13 C           5.8196   11.5215   23.3985 C.ar    1  LIG1        0.1239
     14 C           4.4407   11.6246   23.6648 C.ar    1  LIG1        0.0050
     15 C           3.9436   12.7828   24.2904 C.ar    1  LIG1       -0.0129
     16 C           6.6769   12.5638   23.7339 C.ar    1  LIG1       -0.0162
     17 C           6.1660   13.7095   24.3462 C.ar    1  LIG1       -0.0165
     18 C           4.8080   13.8289   24.6389 C.ar    1  LIG1        0.1206
     19 F          -1.2486    9.5324   28.3639 F       1  LIG1       -0.1610
     20 O           4.2214   14.9020   25.2548 O.3     1  LIG1       -0.4951
     21 O           6.2637   10.3674   22.7990 O.3     1  LIG1       -0.4948
     22 C           5.0323   15.9942   25.6965 C.3     1  LIG1        0.0788
     23 H           7.8644    9.1551   22.3275 H       1  LIG1        0.0660
     24 H           8.0051    9.9977   23.8858 H       1  LIG1        0.0660
     25 H           8.2409   10.8835   22.3437 H       1  LIG1        0.0660
     26 H           3.0497    9.5556   25.8128 H       1  LIG1        0.1685
     27 H           3.2538   10.6199   22.2054 H       1  LIG1        0.0393
     28 H           4.0361    9.5558   23.4004 H       1  LIG1        0.0393
     29 H          -1.6213   11.8077   23.2691 H       1  LIG1        0.1438
     30 H          -2.9354   11.5647   24.4015 H       1  LIG1        0.1438
     31 H           2.8738   12.8483   24.5210 H       1  LIG1        0.0658
     32 H           7.7363   12.4894   23.5164 H       1  LIG1        0.0655
     33 H           6.8473   14.5094   24.6023 H       1  LIG1        0.0655
     34 H           4.3902   16.7545   26.1707 H       1  LIG1        0.0660
     35 H           5.5467   16.4725   24.8553 H       1  LIG1        0.0660
     36 H           5.7653   15.6669   26.4429 H       1  LIG1        0.0660
@<TRIPOS>BOND
     1     1    21    1
     2     1    23    1
     3     1    24    1
     4     1    25    1
     5     2     3   ar
     6     2    12   ar
     7     2    26    1
     8     3     4   ar
     9     3     8   ar
    10     4     5   ar
    11     5     7   ar
    12     5    19    1
    13     6    12    1
    14     6    14    1
    15     6    27    1
    16     6    28    1
    17     7     9   ar
    18     8     9   ar
    19     8    11   ar
    20     9    10    1
    21    10    29    1
    22    10    30    1
    23    11    12   ar
    24    13    14   ar
    25    13    16   ar
    26    13    21    1
    27    14    15   ar
    28    15    18   ar
    29    15    31    1
    30    16    17   ar
    31    16    32    1
    32    17    18   ar
    33    17    33    1
    34    18    20    1
    35    20    22    1
    36    22    34    1
    37    22    35    1
    38    22    36    1
