1UYG_PU2_A_1224
 OpenBabel03301716583D

 36 38  0  0  0  0  0  0  0  0999 V2000
    7.6666   10.0994   22.8483 C   0  0  0  0  0  0  0  0  0  0  0  0
    2.2784    9.9488   25.3224 N   0  3  0  0  0  0  0  0  0  0  0  0
    1.0107   10.0826   25.7931 C   0  0  0  0  0  0  0  0  0  0  0  0
    0.5757    9.6647   26.9857 N   0  0  0  0  0  0  0  0  0  0  0  0
   -0.7448    9.9032   27.1808 C   0  0  0  0  0  0  0  0  0  0  0  0
    3.5116   10.5055   23.2612 C   0  0  0  0  0  0  0  0  0  0  0  0
   -1.5786   10.4848   26.2785 N   0  0  0  0  0  0  0  0  0  0  0  0
    0.2714   10.6941   24.7974 C   0  0  0  0  0  0  0  0  0  0  0  0
   -1.0959   10.8911   25.0676 C   0  0  0  0  0  0  0  0  0  0  0  0
   -1.9605   11.4685   24.1588 N   0  0  0  0  0  0  0  0  0  0  0  0
    1.0734   10.9462   23.7131 N   0  0  0  0  0  0  0  0  0  0  0  0
    2.2548   10.4657   24.0455 C   0  0  0  0  0  0  0  0  0  0  0  0
    5.8196   11.5215   23.3985 C   0  0  0  0  0  0  0  0  0  0  0  0
    4.4407   11.6246   23.6648 C   0  0  0  0  0  0  0  0  0  0  0  0
    3.9436   12.7828   24.2904 C   0  0  0  0  0  0  0  0  0  0  0  0
    6.6769   12.5638   23.7339 C   0  0  0  0  0  0  0  0  0  0  0  0
    6.1660   13.7095   24.3462 C   0  0  0  0  0  0  0  0  0  0  0  0
    4.8080   13.8289   24.6389 C   0  0  0  0  0  0  0  0  0  0  0  0
   -1.2486    9.5324   28.3639 F   0  0  0  0  0  0  0  0  0  0  0  0
    4.2214   14.9020   25.2548 O   0  0  0  0  0  0  0  0  0  0  0  0
    6.2637   10.3674   22.7990 O   0  0  0  0  0  0  0  0  0  0  0  0
    5.0323   15.9942   25.6965 C   0  0  0  0  0  0  0  0  0  0  0  0
    7.8644    9.1551   22.3275 H   0  0  0  0  0  0  0  0  0  0  0  0
    8.0051    9.9977   23.8858 H   0  0  0  0  0  0  0  0  0  0  0  0
    8.2409   10.8835   22.3437 H   0  0  0  0  0  0  0  0  0  0  0  0
    3.0497    9.5556   25.8128 H   0  0  0  0  0  0  0  0  0  0  0  0
    3.2538   10.6199   22.2054 H   0  0  0  0  0  0  0  0  0  0  0  0
    4.0361    9.5558   23.4004 H   0  0  0  0  0  0  0  0  0  0  0  0
   -1.6213   11.8077   23.2691 H   0  0  0  0  0  0  0  0  0  0  0  0
   -2.9354   11.5647   24.4015 H   0  0  0  0  0  0  0  0  0  0  0  0
    2.8738   12.8483   24.5210 H   0  0  0  0  0  0  0  0  0  0  0  0
    7.7363   12.4894   23.5164 H   0  0  0  0  0  0  0  0  0  0  0  0
    6.8473   14.5094   24.6023 H   0  0  0  0  0  0  0  0  0  0  0  0
    4.3902   16.7545   26.1707 H   0  0  0  0  0  0  0  0  0  0  0  0
    5.5467   16.4725   24.8553 H   0  0  0  0  0  0  0  0  0  0  0  0
    5.7653   15.6669   26.4429 H   0  0  0  0  0  0  0  0  0  0  0  0
  1 21  1  0  0  0  0
  1 23  1  0  0  0  0
  1 24  1  0  0  0  0
  1 25  1  0  0  0  0
  2  3  1  0  0  0  0
  2 12  2  0  0  0  0
  2 26  1  0  0  0  0
  3  4  2  0  0  0  0
  3  8  1  0  0  0  0
  4  5  1  0  0  0  0
  5  7  2  0  0  0  0
  5 19  1  0  0  0  0
  6 12  1  0  0  0  0
  6 14  1  0  0  0  0
  6 27  1  0  0  0  0
  6 28  1  0  0  0  0
  7  9  1  0  0  0  0
  8  9  2  0  0  0  0
  8 11  1  0  0  0  0
  9 10  1  0  0  0  0
 10 29  1  0  0  0  0
 10 30  1  0  0  0  0
 11 12  1  0  0  0  0
 13 14  2  0  0  0  0
 13 16  1  0  0  0  0
 13 21  1  0  0  0  0
 14 15  1  0  0  0  0
 15 18  2  0  0  0  0
 15 31  1  0  0  0  0
 16 17  2  0  0  0  0
 16 32  1  0  0  0  0
 17 18  1  0  0  0  0
 17 33  1  0  0  0  0
 18 20  1  0  0  0  0
 20 22  1  0  0  0  0
 22 34  1  0  0  0  0
 22 35  1  0  0  0  0
 22 36  1  0  0  0  0
M  CHG  1   2   1
M  END
$$$$
