@<TRIPOS>MOLECULE
1UY6_PU3_A_1224
 52 54 0 0 0
SMALL
USER_CHARGES

@<TRIPOS>ATOM
      1 C           8.2412   10.2441   23.0878 C.3     1  LIG1        0.0790
      2 O           8.0901   11.4439   23.8442 O.3     1  LIG1       -0.4913
      3 C           6.8123   11.9133   24.0290 C.ar    1  LIG1        0.1654
      4 C           5.6805   11.2997   23.4888 C.ar    1  LIG1       -0.0125
      5 C           6.6451   13.0786   24.8013 C.ar    1  LIG1        0.2035
      6 O           7.7641   13.6618   25.3592 O.3     1  LIG1       -0.4885
      7 C           8.0329   14.9486   24.7994 C.3     1  LIG1        0.0791
      8 C           5.3562   13.5835   25.0791 C.ar    1  LIG1        0.1654
      9 O           5.2929   14.6609   25.9253 O.3     1  LIG1       -0.4913
     10 C           4.1294   15.4744   25.8890 C.3     1  LIG1        0.0790
     11 C           4.2353   12.9323   24.5503 C.ar    1  LIG1       -0.0125
     12 C           4.3889   11.7872   23.7485 C.ar    1  LIG1       -0.0330
     13 C           3.2168   11.0609   23.1213 C.3     1  LIG1        0.0311
     14 C           2.0356   10.8598   24.0109 C.ar    1  LIG1        0.1164
     15 N           0.8208   11.3281   23.7744 N.ar    1  LIG1       -0.2269
     16 C           0.0476   10.8984   24.8282 C.ar    1  LIG1        0.1475
     17 C          -1.3059   11.0786   25.1426 C.ar    1  LIG1        0.1472
     18 N          -2.1706   11.8167   24.3637 N.pl3   1  LIG1       -0.3413
     19 C           0.7980   10.1544   25.7193 C.ar    1  LIG1        0.1655
     20 N           0.3745    9.5650   26.8524 N.ar    1  LIG1       -0.2160
     21 C          -0.9316    9.8053   27.0467 C.ar    1  LIG1        0.1205
     22 N          -1.7891   10.4997   26.2688 N.ar    1  LIG1       -0.2188
     23 N           2.0538   10.1143   25.1712 N.ar    1  LIG1       -0.3121
     24 C           3.1346    9.2966   25.6830 C.3     1  LIG1        0.0263
     25 C           2.9027    7.8259   25.3581 C.3     1  LIG1       -0.0351
     26 C           4.0350    7.1868   24.5562 C.3     1  LIG1       -0.0543
     27 C           4.0839    5.7012   24.8746 C.3     1  LIG1       -0.0652
     28 H           9.3033    9.9811   23.0646 H       1  LIG1        0.0660
     29 H           7.9154   10.3909   22.0516 H       1  LIG1        0.0660
     30 H           7.7059    9.4050   23.5492 H       1  LIG1        0.0660
     31 H           5.7737   10.4184   22.8617 H       1  LIG1        0.0658
     32 H           8.9059   15.3622   25.3152 H       1  LIG1        0.0660
     33 H           7.2139   15.6611   24.9386 H       1  LIG1        0.0660
     34 H           8.2732   14.8638   23.7351 H       1  LIG1        0.0660
     35 H           4.3293   16.3545   26.5129 H       1  LIG1        0.0660
     36 H           3.2695   14.9565   26.3194 H       1  LIG1        0.0660
     37 H           3.9164   15.8340   24.8762 H       1  LIG1        0.0660
     38 H           3.2318   13.2832   24.7766 H       1  LIG1        0.0658
     39 H           3.5306   10.0774   22.7536 H       1  LIG1        0.0392
     40 H           2.9083   11.6348   22.2332 H       1  LIG1        0.0392
     41 H          -3.1490   11.7947   24.6046 H       1  LIG1        0.1438
     42 H          -1.8541   12.1069   23.4490 H       1  LIG1        0.1438
     43 H          -1.3613    9.3815   27.9564 H       1  LIG1        0.1048
     44 H           3.1654    9.4500   26.7705 H       1  LIG1        0.0493
     45 H           4.0857    9.6640   25.2957 H       1  LIG1        0.0493
     46 H           1.9722    7.6795   24.7941 H       1  LIG1        0.0282
     47 H           2.7701    7.2950   26.3075 H       1  LIG1        0.0282
     48 H           5.0062    7.6392   24.7865 H       1  LIG1        0.0263
     49 H           3.8566    7.3309   23.4829 H       1  LIG1        0.0263
     50 H           4.3013    5.5546   25.9391 H       1  LIG1        0.0230
     51 H           4.8601    5.1975   24.2952 H       1  LIG1        0.0230
     52 H           3.1204    5.2283   24.6596 H       1  LIG1        0.0230
@<TRIPOS>BOND
     1     1     2    1
     2     1    28    1
     3     1    29    1
     4     1    30    1
     5     2     3    1
     6     3     4   ar
     7     3     5   ar
     8     4    12   ar
     9     4    31    1
    10     5     6    1
    11     5     8   ar
    12     6     7    1
    13     7    32    1
    14     7    33    1
    15     7    34    1
    16     8     9    1
    17     8    11   ar
    18     9    10    1
    19    10    35    1
    20    10    36    1
    21    10    37    1
    22    11    12   ar
    23    11    38    1
    24    12    13    1
    25    13    14    1
    26    13    39    1
    27    13    40    1
    28    14    15   ar
    29    14    23   ar
    30    15    16   ar
    31    16    17   ar
    32    16    19   ar
    33    17    18    1
    34    17    22   ar
    35    18    41    1
    36    18    42    1
    37    19    20   ar
    38    19    23   ar
    39    20    21   ar
    40    21    22   ar
    41    21    43    1
    42    23    24    1
    43    24    25    1
    44    24    44    1
    45    24    45    1
    46    25    26    1
    47    25    46    1
    48    25    47    1
    49    26    27    1
    50    26    48    1
    51    26    49    1
    52    27    50    1
    53    27    51    1
    54    27    52    1
