@<TRIPOS>MOLECULE
1UY7_PU4_A_1224
 44 46 0 0 0
SMALL
USER_CHARGES

@<TRIPOS>ATOM
      1 C           5.1483    7.0077   24.3238 C.3     1  LIG1       -0.0652
      2 C           3.6290    6.9225   24.3834 C.3     1  LIG1       -0.0543
      3 C           3.0272    7.4756   25.6778 C.3     1  LIG1       -0.0351
      4 C           3.1052    8.9948   25.8227 C.3     1  LIG1        0.0263
      5 N           1.9969    9.6660   25.1717 N.ar    1  LIG1       -0.3121
      6 C           0.7374    9.7820   25.7070 C.ar    1  LIG1        0.1655
      7 N           0.2984    9.2937   26.8768 N.ar    1  LIG1       -0.2160
      8 C          -0.9998    9.5992   27.0675 C.ar    1  LIG1        0.1205
      9 N          -1.8215   10.3091   26.2650 N.ar    1  LIG1       -0.2188
     10 C           0.0168   10.5104   24.7778 C.ar    1  LIG1        0.1475
     11 C          -1.3252   10.7863   25.0975 C.ar    1  LIG1        0.1472
     12 N          -2.1641   11.5180   24.2896 N.pl3   1  LIG1       -0.3413
     13 N           0.8109   10.8319   23.6911 N.ar    1  LIG1       -0.2269
     14 C           2.0055   10.3243   23.9626 C.ar    1  LIG1        0.1164
     15 C           3.2568   10.5241   23.1518 C.3     1  LIG1        0.0309
     16 C           4.1217   11.6384   23.7031 C.ar    1  LIG1       -0.0399
     17 C           5.5135   11.5198   23.7941 C.ar    1  LIG1       -0.0547
     18 C           6.2786   12.5796   24.3014 C.ar    1  LIG1       -0.0197
     19 C           3.5194   12.8355   24.1192 C.ar    1  LIG1       -0.0547
     20 C           4.2817   13.8787   24.6387 C.ar    1  LIG1       -0.0197
     21 C           5.6621   13.7588   24.7325 C.ar    1  LIG1        0.1201
     22 O           6.5040   14.7319   25.2019 O.3     1  LIG1       -0.4951
     23 C           5.8813   15.7889   25.9255 C.3     1  LIG1        0.0788
     24 H           5.5100    6.5439   23.4001 H       1  LIG1        0.0230
     25 H           5.6040    6.4764   25.1653 H       1  LIG1        0.0230
     26 H           5.5035    8.0412   24.3358 H       1  LIG1        0.0230
     27 H           3.3506    5.8635   24.3047 H       1  LIG1        0.0263
     28 H           3.1945    7.4184   23.5105 H       1  LIG1        0.0263
     29 H           3.5348    7.0146   26.5326 H       1  LIG1        0.0282
     30 H           1.9786    7.1555   25.7265 H       1  LIG1        0.0282
     31 H           4.0465    9.3955   25.4333 H       1  LIG1        0.0493
     32 H           3.0687    9.2828   26.8765 H       1  LIG1        0.0493
     33 H          -1.4450    9.2219   27.9837 H       1  LIG1        0.1048
     34 H          -1.8111   11.8899   23.4204 H       1  LIG1        0.1438
     35 H          -3.1100   11.6747   24.6009 H       1  LIG1        0.1438
     36 H           2.9947   10.7601   22.1138 H       1  LIG1        0.0392
     37 H           3.8255    9.5907   23.1212 H       1  LIG1        0.0392
     38 H           6.0187   10.6096   23.4806 H       1  LIG1        0.0622
     39 H           7.3587   12.4837   24.3672 H       1  LIG1        0.0654
     40 H           2.4411   12.9632   24.0545 H       1  LIG1        0.0622
     41 H           3.7504   14.7719   24.9453 H       1  LIG1        0.0654
     42 H           6.6564   16.4975   26.2280 H       1  LIG1        0.0660
     43 H           5.3992   15.4034   26.8296 H       1  LIG1        0.0660
     44 H           5.1681   16.3435   25.3055 H       1  LIG1        0.0660
@<TRIPOS>BOND
     1     1     2    1
     2     1    24    1
     3     1    25    1
     4     1    26    1
     5     2     3    1
     6     2    27    1
     7     2    28    1
     8     3     4    1
     9     3    29    1
    10     3    30    1
    11     4     5    1
    12     4    31    1
    13     4    32    1
    14     5     6   ar
    15     5    14   ar
    16     6     7   ar
    17     6    10   ar
    18     7     8   ar
    19     8     9   ar
    20     8    33    1
    21     9    11   ar
    22    10    11   ar
    23    10    13   ar
    24    11    12    1
    25    12    34    1
    26    12    35    1
    27    13    14   ar
    28    14    15    1
    29    15    16    1
    30    15    36    1
    31    15    37    1
    32    16    17   ar
    33    16    19   ar
    34    17    18   ar
    35    17    38    1
    36    18    21   ar
    37    18    39    1
    38    19    20   ar
    39    19    40    1
    40    20    21   ar
    41    20    41    1
    42    21    22    1
    43    22    23    1
    44    23    42    1
    45    23    43    1
    46    23    44    1
