REMARK  7 active torsions:
REMARK  status: ('A' for Active; 'I' for Inactive)
REMARK    1  A    between atoms: C_2  and  C_3 
REMARK    2  A    between atoms: C_3  and  C_4 
REMARK    3  A    between atoms: C_4  and  N_5 
REMARK    4  A    between atoms: C_11  and  N_12 
REMARK    5  A    between atoms: C_14  and  C_15 
REMARK    6  A    between atoms: C_15  and  C_16 
REMARK    7  A    between atoms: C_21  and  O_22 
ROOT
ATOM      1  N   LIG d   1       1.997   9.666  25.172  0.00  0.00    -0.312 N 
ATOM      2  C   LIG d   1       0.737   9.782  25.707  0.00  0.00     0.166 A 
ATOM      3  N   LIG d   1       0.298   9.294  26.877  0.00  0.00    -0.216 NA
ATOM      4  C   LIG d   1      -1.000   9.599  27.067  0.00  0.00     0.225 A 
ATOM      5  N   LIG d   1      -1.821  10.309  26.265  0.00  0.00    -0.219 NA
ATOM      6  C   LIG d   1       0.017  10.510  24.778  0.00  0.00     0.147 A 
ATOM      7  C   LIG d   1      -1.325  10.786  25.098  0.00  0.00     0.147 A 
ATOM      8  N   LIG d   1       0.811  10.832  23.691  0.00  0.00    -0.227 NA
ATOM      9  C   LIG d   1       2.006  10.324  23.963  0.00  0.00     0.116 A 
ENDROOT
BRANCH   9  10
ATOM     10  C   LIG d   1       3.257  10.524  23.152  0.00  0.00     0.109 C 
BRANCH  10  11
ATOM     11  C   LIG d   1       4.122  11.638  23.703  0.00  0.00    -0.040 A 
ATOM     12  C   LIG d   1       5.513  11.520  23.794  0.00  0.00     0.007 A 
ATOM     13  C   LIG d   1       6.279  12.580  24.301  0.00  0.00     0.046 A 
ATOM     14  C   LIG d   1       5.662  13.759  24.733  0.00  0.00     0.120 A 
ATOM     15  C   LIG d   1       4.282  13.879  24.639  0.00  0.00     0.046 A 
ATOM     16  C   LIG d   1       3.519  12.835  24.119  0.00  0.00     0.007 A 
BRANCH  14  17
ATOM     17  O   LIG d   1       6.504  14.732  25.202  0.00  0.00    -0.495 OA
ATOM     18  C   LIG d   1       5.881  15.789  25.925  0.00  0.00     0.277 C 
ENDBRANCH  14  17
ENDBRANCH  10  11
ENDBRANCH   9  10
BRANCH   1  19
ATOM     19  C   LIG d   1       3.105   8.995  25.823  0.00  0.00     0.125 C 
BRANCH  19  20
ATOM     20  C   LIG d   1       3.027   7.476  25.678  0.00  0.00     0.021 C 
BRANCH  20  21
ATOM     21  C   LIG d   1       3.629   6.923  24.383  0.00  0.00    -0.002 C 
ATOM     22  C   LIG d   1       5.148   7.008  24.324  0.00  0.00     0.004 C 
ENDBRANCH  20  21
ENDBRANCH  19  20
ENDBRANCH   1  19
BRANCH   7  23
ATOM     23  N   LIG d   1      -2.164  11.518  24.290  0.00  0.00    -0.341 N 
ATOM     24  H   LIG d   1      -1.811  11.890  23.420  0.00  0.00     0.144 HD
ATOM     25  H   LIG d   1      -3.110  11.675  24.601  0.00  0.00     0.144 HD
ENDBRANCH   7  23
TORSDOF 7
