@<TRIPOS>MOLECULE
1UY8_PU5_A_1224
 44 46 0 0 0
SMALL
USER_CHARGES

@<TRIPOS>ATOM
      1 C           5.0406    7.3354   23.8313 C.3     1  LIG1       -0.0652
      2 C           3.5566    7.3176   24.1713 C.3     1  LIG1       -0.0543
      3 C           3.2604    7.7977   25.5958 C.3     1  LIG1       -0.0351
      4 C           3.2437    9.3178   25.7685 C.3     1  LIG1        0.0263
      5 N           2.0915    9.9373   25.1410 N.ar    1  LIG1       -0.3121
      6 C           0.8343    9.9726   25.6920 C.ar    1  LIG1        0.1655
      7 N           0.4322    9.4579   26.8648 N.ar    1  LIG1       -0.2160
      8 C          -0.8825    9.6879   27.0638 C.ar    1  LIG1        0.1205
      9 C           3.2263   10.8642   23.0520 C.3     1  LIG1        0.0310
     10 N          -1.7556   10.3379   26.2628 N.ar    1  LIG1       -0.2188
     11 C           0.0601   10.6554   24.7723 C.ar    1  LIG1        0.1475
     12 C          -1.2918   10.8551   25.1019 C.ar    1  LIG1        0.1472
     13 N          -2.1607   11.5718   24.2997 N.pl3   1  LIG1       -0.3413
     14 N           0.8083   11.0225   23.6755 N.ar    1  LIG1       -0.2269
     15 C           2.0376   10.6006   23.9304 C.ar    1  LIG1        0.1164
     16 C           5.5563   11.7383   23.5147 C.ar    1  LIG1       -0.0579
     17 C           4.1677   11.9031   23.6162 C.ar    1  LIG1       -0.0367
     18 C           3.6707   13.0576   24.2379 C.ar    1  LIG1       -0.0164
     19 C           6.4164   12.6951   24.0509 C.ar    1  LIG1       -0.0580
     20 C           5.9056   13.8283   24.6901 C.ar    1  LIG1       -0.0199
     21 C           4.5259   14.0151   24.7790 C.ar    1  LIG1        0.1204
     22 O           3.8917   15.0512   25.3947 O.3     1  LIG1       -0.4951
     23 C           4.6714   16.2117   25.6584 C.3     1  LIG1        0.0788
     24 H           5.1923    6.9897   22.8041 H       1  LIG1        0.0230
     25 H           5.5947    6.6629   24.4942 H       1  LIG1        0.0230
     26 H           5.4724    8.3358   23.9174 H       1  LIG1        0.0230
     27 H           3.1972    6.2899   24.0682 H       1  LIG1        0.0263
     28 H           3.0003    7.9052   23.4339 H       1  LIG1        0.0263
     29 H           3.9978    7.3688   26.2841 H       1  LIG1        0.0282
     30 H           2.2843    7.3954   25.8935 H       1  LIG1        0.0282
     31 H           4.1577    9.7735   25.3800 H       1  LIG1        0.0493
     32 H           3.1998    9.5711   26.8344 H       1  LIG1        0.0493
     33 H          -1.2969    9.3004   27.9922 H       1  LIG1        0.1048
     34 H           2.8827   11.2070   22.0683 H       1  LIG1        0.0392
     35 H           3.7645    9.9273   22.8783 H       1  LIG1        0.0392
     36 H          -1.8433   11.7677   23.3589 H       1  LIG1        0.1438
     37 H          -3.1428   11.4585   24.4981 H       1  LIG1        0.1438
     38 H           5.9751   10.8602   23.0290 H       1  LIG1        0.0620
     39 H           2.5954   13.2191   24.3152 H       1  LIG1        0.0657
     40 H           7.4934   12.5519   23.9856 H       1  LIG1        0.0619
     41 H           6.6044   14.5417   25.1068 H       1  LIG1        0.0654
     42 H           4.0099   16.9588   26.1043 H       1  LIG1        0.0660
     43 H           5.0720   16.6272   24.7305 H       1  LIG1        0.0660
     44 H           5.4660   16.0022   26.3808 H       1  LIG1        0.0660
@<TRIPOS>BOND
     1     1     2    1
     2     1    24    1
     3     1    25    1
     4     1    26    1
     5     2     3    1
     6     2    27    1
     7     2    28    1
     8     3     4    1
     9     3    29    1
    10     3    30    1
    11     4     5    1
    12     4    31    1
    13     4    32    1
    14     5     6   ar
    15     5    15   ar
    16     6     7   ar
    17     6    11   ar
    18     7     8   ar
    19     8    10   ar
    20     8    33    1
    21     9    15    1
    22     9    17    1
    23     9    34    1
    24     9    35    1
    25    10    12   ar
    26    11    12   ar
    27    11    14   ar
    28    12    13    1
    29    13    36    1
    30    13    37    1
    31    14    15   ar
    32    16    17   ar
    33    16    19   ar
    34    16    38    1
    35    17    18   ar
    36    18    21   ar
    37    18    39    1
    38    19    20   ar
    39    19    40    1
    40    20    21   ar
    41    20    41    1
    42    21    22    1
    43    22    23    1
    44    23    42    1
    45    23    43    1
    46    23    44    1
