REMARK  7 active torsions:
REMARK  status: ('A' for Active; 'I' for Inactive)
REMARK    1  A    between atoms: C_2  and  C_3 
REMARK    2  A    between atoms: C_3  and  C_4 
REMARK    3  A    between atoms: C_4  and  N_5 
REMARK    4  A    between atoms: C_9  and  C_15 
REMARK    5  A    between atoms: C_9  and  C_17 
REMARK    6  A    between atoms: C_12  and  N_13 
REMARK    7  A    between atoms: C_21  and  O_22 
ROOT
ATOM      1  N   LIG d   1       2.091   9.937  25.141  0.00  0.00    -0.312 N 
ATOM      2  C   LIG d   1       0.834   9.973  25.692  0.00  0.00     0.166 A 
ATOM      3  N   LIG d   1       0.432   9.458  26.865  0.00  0.00    -0.216 NA
ATOM      4  C   LIG d   1      -0.882   9.688  27.064  0.00  0.00     0.225 A 
ATOM      5  N   LIG d   1      -1.756  10.338  26.263  0.00  0.00    -0.219 NA
ATOM      6  C   LIG d   1       0.060  10.655  24.772  0.00  0.00     0.147 A 
ATOM      7  C   LIG d   1      -1.292  10.855  25.102  0.00  0.00     0.147 A 
ATOM      8  N   LIG d   1       0.808  11.023  23.675  0.00  0.00    -0.227 NA
ATOM      9  C   LIG d   1       2.038  10.601  23.930  0.00  0.00     0.116 A 
ENDROOT
BRANCH   9  10
ATOM     10  C   LIG d   1       3.226  10.864  23.052  0.00  0.00     0.109 C 
BRANCH  10  11
ATOM     11  C   LIG d   1       4.168  11.903  23.616  0.00  0.00    -0.037 A 
ATOM     12  C   LIG d   1       5.556  11.738  23.515  0.00  0.00     0.004 A 
ATOM     13  C   LIG d   1       6.416  12.695  24.051  0.00  0.00     0.004 A 
ATOM     14  C   LIG d   1       5.906  13.828  24.690  0.00  0.00     0.045 A 
ATOM     15  C   LIG d   1       4.526  14.015  24.779  0.00  0.00     0.120 A 
ATOM     16  C   LIG d   1       3.671  13.058  24.238  0.00  0.00     0.049 A 
BRANCH  15  17
ATOM     17  O   LIG d   1       3.892  15.051  25.395  0.00  0.00    -0.495 OA
ATOM     18  C   LIG d   1       4.671  16.212  25.658  0.00  0.00     0.277 C 
ENDBRANCH  15  17
ENDBRANCH  10  11
ENDBRANCH   9  10
BRANCH   1  19
ATOM     19  C   LIG d   1       3.244   9.318  25.768  0.00  0.00     0.125 C 
BRANCH  19  20
ATOM     20  C   LIG d   1       3.260   7.798  25.596  0.00  0.00     0.021 C 
BRANCH  20  21
ATOM     21  C   LIG d   1       3.557   7.318  24.171  0.00  0.00    -0.002 C 
ATOM     22  C   LIG d   1       5.041   7.335  23.831  0.00  0.00     0.004 C 
ENDBRANCH  20  21
ENDBRANCH  19  20
ENDBRANCH   1  19
BRANCH   7  23
ATOM     23  N   LIG d   1      -2.161  11.572  24.300  0.00  0.00    -0.341 N 
ATOM     24  H   LIG d   1      -1.843  11.768  23.359  0.00  0.00     0.144 HD
ATOM     25  H   LIG d   1      -3.143  11.459  24.498  0.00  0.00     0.144 HD
ENDBRANCH   7  23
TORSDOF 7
