@<TRIPOS>MOLECULE
1UY9_PU6_A_1224
 43 46 0 0 0
SMALL
USER_CHARGES

@<TRIPOS>ATOM
      1 C           4.9744    7.5673   23.7628 C.3     1  LIG1       -0.0652
      2 C           3.5010    7.4151   24.1142 C.3     1  LIG1       -0.0543
      3 C           3.1633    7.8604   25.5401 C.3     1  LIG1       -0.0351
      4 C           3.2149    9.3741   25.7495 C.3     1  LIG1        0.0263
      5 N           2.0641   10.0297   25.1626 N.ar    1  LIG1       -0.3121
      6 C           0.8005   10.0472   25.7080 C.ar    1  LIG1        0.1655
      7 N           0.4008    9.5174   26.8728 N.ar    1  LIG1       -0.2160
      8 C          -0.9234    9.7235   27.0645 C.ar    1  LIG1        0.1205
      9 N          -1.7970   10.3638   26.2558 N.ar    1  LIG1       -0.2188
     10 C           0.0239   10.7233   24.7832 C.ar    1  LIG1        0.1475
     11 C          -1.3357   10.8820   25.0943 C.ar    1  LIG1        0.1472
     12 N          -2.2211   11.5402   24.2717 N.pl3   1  LIG1       -0.3413
     13 N           0.7836   11.1177   23.7008 N.ar    1  LIG1       -0.2269
     14 C           2.0106   10.6998   23.9557 C.ar    1  LIG1        0.1164
     15 C           3.2147   10.9602   23.0993 C.3     1  LIG1        0.0310
     16 C           4.1043   12.0438   23.6705 C.ar    1  LIG1       -0.0364
     17 C           3.5486   13.2202   24.2139 C.ar    1  LIG1       -0.0126
     18 C           4.3983   14.1736   24.7365 C.ar    1  LIG1        0.1665
     19 C           5.5081   11.8852   23.6606 C.ar    1  LIG1       -0.0545
     20 O           4.0253   15.3482   25.3052 O.3     1  LIG1       -0.4526
     21 C           6.3426   12.8699   24.1960 C.ar    1  LIG1       -0.0159
     22 C           5.7599   14.0022   24.7255 C.ar    1  LIG1        0.1662
     23 O           6.4175   15.0578   25.2821 O.3     1  LIG1       -0.4526
     24 C           5.3104   15.9125   25.6457 C.3     1  LIG1        0.2332
     25 H           5.1509    7.2274   22.7372 H       1  LIG1        0.0230
     26 H           5.5995    6.9700   24.4331 H       1  LIG1        0.0230
     27 H           5.3094    8.6048   23.8274 H       1  LIG1        0.0230
     28 H           3.2275    6.3609   24.0048 H       1  LIG1        0.0263
     29 H           2.8928    7.9642   23.3864 H       1  LIG1        0.0263
     30 H           3.8474    7.3734   26.2456 H       1  LIG1        0.0282
     31 H           2.1554    7.5017   25.7771 H       1  LIG1        0.0282
     32 H           4.1272    9.8005   25.3295 H       1  LIG1        0.0493
     33 H           3.2258    9.6228   26.8171 H       1  LIG1        0.0493
     34 H          -1.3373    9.3200   27.9810 H       1  LIG1        0.1048
     35 H          -1.8857   11.9158   23.3943 H       1  LIG1        0.1438
     36 H          -3.1868   11.5972   24.5499 H       1  LIG1        0.1438
     37 H           2.9001   11.2422   22.0871 H       1  LIG1        0.0392
     38 H           3.7813   10.0341   22.9796 H       1  LIG1        0.0392
     39 H           2.4737   13.3724   24.2393 H       1  LIG1        0.0658
     40 H           5.9538   10.9819   23.2435 H       1  LIG1        0.0622
     41 H           7.4204   12.7420   24.1972 H       1  LIG1        0.0655
     42 H           5.3463   16.0965   26.7261 H       1  LIG1        0.1166
     43 H           5.4219   16.8771   25.1358 H       1  LIG1        0.1166
@<TRIPOS>BOND
     1     1     2    1
     2     1    25    1
     3     1    26    1
     4     1    27    1
     5     2     3    1
     6     2    28    1
     7     2    29    1
     8     3     4    1
     9     3    30    1
    10     3    31    1
    11     4     5    1
    12     4    32    1
    13     4    33    1
    14     5     6   ar
    15     5    14   ar
    16     6     7   ar
    17     6    10   ar
    18     7     8   ar
    19     8     9   ar
    20     8    34    1
    21     9    11   ar
    22    10    11   ar
    23    10    13   ar
    24    11    12    1
    25    12    35    1
    26    12    36    1
    27    13    14   ar
    28    14    15    1
    29    15    16    1
    30    15    37    1
    31    15    38    1
    32    16    17   ar
    33    16    19   ar
    34    17    18   ar
    35    17    39    1
    36    18    20    1
    37    18    22   ar
    38    19    21   ar
    39    19    40    1
    40    20    24    1
    41    21    22   ar
    42    21    41    1
    43    22    23    1
    44    23    24    1
    45    24    42    1
    46    24    43    1
