@<TRIPOS>MOLECULE
1UYC_PU7_A_1224
 48 50 0 0 0
SMALL
USER_CHARGES

@<TRIPOS>ATOM
      1 C           7.6517   10.0696   23.0788 C.3     1  LIG1        0.0788
      2 C           6.6884   12.6195   23.8705 C.ar    1  LIG1       -0.0162
      3 O           6.3124   10.4685   22.7838 O.3     1  LIG1       -0.4948
      4 C           5.8426   11.5771   23.4313 C.ar    1  LIG1        0.1239
      5 C           6.1690   13.7568   24.4976 C.ar    1  LIG1       -0.0165
      6 C           4.8051   13.8733   24.7015 C.ar    1  LIG1        0.1206
      7 O           4.1472   14.9029   25.3067 O.3     1  LIG1       -0.4951
      8 C           4.9058   16.0633   25.6401 C.3     1  LIG1        0.0788
      9 C           3.9576   12.8521   24.2610 C.ar    1  LIG1       -0.0129
     10 C           4.4513   11.6964   23.6267 C.ar    1  LIG1        0.0050
     11 C           3.4634   10.6534   23.1147 C.3     1  LIG1        0.0344
     12 C           2.2266   10.4743   23.9674 C.ar    1  LIG1        0.1165
     13 N           1.0285   10.9603   23.7035 N.ar    1  LIG1       -0.2268
     14 C           0.2297   10.6158   24.7865 C.ar    1  LIG1        0.1475
     15 C          -1.1206   10.8824   25.0983 C.ar    1  LIG1        0.1472
     16 N          -1.9577   11.6255   24.2859 N.pl3   1  LIG1       -0.3413
     17 C           0.9674    9.8863   25.7050 C.ar    1  LIG1        0.1655
     18 N           0.5166    9.4011   26.8807 N.ar    1  LIG1       -0.2160
     19 C          -0.7893    9.7045   27.0674 C.ar    1  LIG1        0.1205
     20 N          -1.6174   10.3961   26.2596 N.ar    1  LIG1       -0.2188
     21 N           2.2253    9.7778   25.1569 N.ar    1  LIG1       -0.3121
     22 C           3.3761    9.1617   25.7926 C.3     1  LIG1        0.0263
     23 C           3.4335    7.6334   25.6818 C.3     1  LIG1       -0.0351
     24 C           3.8335    7.0076   24.3364 C.3     1  LIG1       -0.0543
     25 C           5.2472    7.2686   23.8348 C.3     1  LIG1       -0.0652
     26 H           7.8547    9.1418   22.5344 H       1  LIG1        0.0660
     27 H           7.7714    9.8618   24.1488 H       1  LIG1        0.0660
     28 H           8.3873   10.8051   22.7367 H       1  LIG1        0.0660
     29 H           7.7578   12.5791   23.7072 H       1  LIG1        0.0655
     30 H           6.8624   14.5308   24.8060 H       1  LIG1        0.0655
     31 H           4.2186   16.7754   26.1003 H       1  LIG1        0.0660
     32 H           5.3222   16.5241   24.7412 H       1  LIG1        0.0660
     33 H           5.6843   15.8269   26.3686 H       1  LIG1        0.0660
     34 H           2.8909   12.9771   24.4135 H       1  LIG1        0.0658
     35 H           3.9466    9.6780   23.0325 H       1  LIG1        0.0393
     36 H           3.1616   10.9297   22.0978 H       1  LIG1        0.0393
     37 H          -2.9374   11.5991   24.5032 H       1  LIG1        0.1438
     38 H          -1.6357   11.8317   23.3512 H       1  LIG1        0.1438
     39 H          -1.2280    9.3527   27.9967 H       1  LIG1        0.1048
     40 H           3.3317    9.4450   26.8533 H       1  LIG1        0.0493
     41 H           4.2932    9.6128   25.4054 H       1  LIG1        0.0493
     42 H           2.4457    7.2325   25.9403 H       1  LIG1        0.0282
     43 H           4.1276    7.2668   26.4476 H       1  LIG1        0.0282
     44 H           3.1165    7.2938   23.5601 H       1  LIG1        0.0263
     45 H           3.7453    5.9200   24.4546 H       1  LIG1        0.0263
     46 H           5.4149    8.3178   23.6103 H       1  LIG1        0.0230
     47 H           5.4130    6.7120   22.9034 H       1  LIG1        0.0230
     48 H           6.0099    6.9502   24.5506 H       1  LIG1        0.0230
@<TRIPOS>BOND
     1     1     3    1
     2     1    26    1
     3     1    27    1
     4     1    28    1
     5     2     4   ar
     6     2     5   ar
     7     2    29    1
     8     3     4    1
     9     4    10   ar
    10     5     6   ar
    11     5    30    1
    12     6     7    1
    13     6     9   ar
    14     7     8    1
    15     8    31    1
    16     8    32    1
    17     8    33    1
    18     9    10   ar
    19     9    34    1
    20    10    11    1
    21    11    12    1
    22    11    35    1
    23    11    36    1
    24    12    13   ar
    25    12    21   ar
    26    13    14   ar
    27    14    15   ar
    28    14    17   ar
    29    15    16    1
    30    15    20   ar
    31    16    37    1
    32    16    38    1
    33    17    18   ar
    34    17    21   ar
    35    18    19   ar
    36    19    20   ar
    37    19    39    1
    38    21    22    1
    39    22    23    1
    40    22    40    1
    41    22    41    1
    42    23    24    1
    43    23    42    1
    44    23    43    1
    45    24    25    1
    46    24    44    1
    47    24    45    1
    48    25    46    1
    49    25    47    1
    50    25    48    1
