REMARK  8 active torsions:
REMARK  status: ('A' for Active; 'I' for Inactive)
REMARK    1  A    between atoms: O_3  and  C_4 
REMARK    2  A    between atoms: C_6  and  O_7 
REMARK    3  A    between atoms: C_10  and  C_11 
REMARK    4  A    between atoms: C_11  and  C_12 
REMARK    5  A    between atoms: C_15  and  N_16 
REMARK    6  A    between atoms: N_21  and  C_22 
REMARK    7  A    between atoms: C_22  and  C_23 
REMARK    8  A    between atoms: C_23  and  C_24 
ROOT
ATOM      1  C   LIG d   1       2.227  10.474  23.967  0.00  0.00     0.117 A 
ATOM      2  N   LIG d   1       1.028  10.960  23.703  0.00  0.00    -0.227 NA
ATOM      3  C   LIG d   1       0.230  10.616  24.787  0.00  0.00     0.147 A 
ATOM      4  C   LIG d   1      -1.121  10.882  25.098  0.00  0.00     0.147 A 
ATOM      5  C   LIG d   1       0.967   9.886  25.705  0.00  0.00     0.166 A 
ATOM      6  N   LIG d   1       0.517   9.401  26.881  0.00  0.00    -0.216 NA
ATOM      7  C   LIG d   1      -0.789   9.704  27.067  0.00  0.00     0.225 A 
ATOM      8  N   LIG d   1      -1.617  10.396  26.260  0.00  0.00    -0.219 NA
ATOM      9  N   LIG d   1       2.225   9.778  25.157  0.00  0.00    -0.312 N 
ENDROOT
BRANCH   1  10
ATOM     10  C   LIG d   1       3.463  10.653  23.115  0.00  0.00     0.113 C 
BRANCH  10  11
ATOM     11  C   LIG d   1       4.451  11.696  23.627  0.00  0.00     0.005 A 
ATOM     12  C   LIG d   1       5.843  11.577  23.431  0.00  0.00     0.124 A 
ATOM     13  C   LIG d   1       6.688  12.620  23.870  0.00  0.00     0.049 A 
ATOM     14  C   LIG d   1       6.169  13.757  24.498  0.00  0.00     0.049 A 
ATOM     15  C   LIG d   1       4.805  13.873  24.701  0.00  0.00     0.121 A 
ATOM     16  C   LIG d   1       3.958  12.852  24.261  0.00  0.00     0.053 A 
BRANCH  12  17
ATOM     17  O   LIG d   1       6.312  10.469  22.784  0.00  0.00    -0.495 OA
ATOM     18  C   LIG d   1       7.652  10.070  23.079  0.00  0.00     0.277 C 
ENDBRANCH  12  17
BRANCH  15  19
ATOM     19  O   LIG d   1       4.147  14.903  25.307  0.00  0.00    -0.495 OA
ATOM     20  C   LIG d   1       4.906  16.063  25.640  0.00  0.00     0.277 C 
ENDBRANCH  15  19
ENDBRANCH  10  11
ENDBRANCH   1  10
BRANCH   9  21
ATOM     21  C   LIG d   1       3.376   9.162  25.793  0.00  0.00     0.125 C 
BRANCH  21  22
ATOM     22  C   LIG d   1       3.433   7.633  25.682  0.00  0.00     0.021 C 
BRANCH  22  23
ATOM     23  C   LIG d   1       3.833   7.008  24.336  0.00  0.00    -0.002 C 
ATOM     24  C   LIG d   1       5.247   7.269  23.835  0.00  0.00     0.004 C 
ENDBRANCH  22  23
ENDBRANCH  21  22
ENDBRANCH   9  21
BRANCH   4  25
ATOM     25  N   LIG d   1      -1.958  11.626  24.286  0.00  0.00    -0.341 N 
ATOM     26  H   LIG d   1      -2.937  11.599  24.503  0.00  0.00     0.144 HD
ATOM     27  H   LIG d   1      -1.636  11.832  23.351  0.00  0.00     0.144 HD
ENDBRANCH   4  25
TORSDOF 8
