@<TRIPOS>MOLECULE
1UYD_PU8_A_1224
 52 54 0 0 0
SMALL
USER_CHARGES

@<TRIPOS>ATOM
      1 C           4.3982   15.4365   26.5385 C.3     1  LIG1        0.0790
      2 O           5.0959   15.1459   25.3320 O.3     1  LIG1       -0.4900
      3 C           5.1161   13.8450   24.8849 C.ar    1  LIG1        0.1838
      4 C           3.9958   13.2310   24.2930 C.ar    1  LIG1        0.0900
      5 C           6.3772   13.2123   24.7965 C.ar    1  LIG1        0.2050
      6 O           7.4812   13.7615   25.4103 O.3     1  LIG1       -0.4885
      7 C           7.9561   14.9233   24.7310 C.3     1  LIG1        0.0791
      8 C           6.5286   11.9668   24.1496 C.ar    1  LIG1        0.1655
      9 O           7.7641   11.3684   24.1695 O.3     1  LIG1       -0.4913
     10 C           8.0761   10.4432   23.1289 C.3     1  LIG1        0.0790
     11 C           5.4079   11.3858   23.5671 C.ar    1  LIG1       -0.0111
     12 C           4.1298   11.9827   23.6432 C.ar    1  LIG1       -0.0146
     13 C           2.9795   11.2388   22.9867 C.3     1  LIG1        0.0325
     14 C           1.8062   10.9501   23.8652 C.ar    1  LIG1        0.1164
     15 N           0.5720   11.3381   23.5737 N.ar    1  LIG1       -0.2268
     16 C          -0.1823   10.9575   24.6584 C.ar    1  LIG1        0.1475
     17 C          -1.5497   11.1255   24.9336 C.ar    1  LIG1        0.1472
     18 N          -2.4142   11.7407   24.0547 N.pl3   1  LIG1       -0.3413
     19 C           0.5884   10.3007   25.5930 C.ar    1  LIG1        0.1655
     20 N           0.1542    9.7871   26.7719 N.ar    1  LIG1       -0.2160
     21 C          -1.1635   10.0049   26.9309 C.ar    1  LIG1        0.1205
     22 N          -2.0318   10.6398   26.1018 N.ar    1  LIG1       -0.2188
     23 N           1.8541   10.2539   25.0564 N.ar    1  LIG1       -0.3121
     24 C           2.9956    9.5995   25.6493 C.3     1  LIG1        0.0263
     25 C           2.8895    8.0765   25.6723 C.3     1  LIG1       -0.0351
     26 C           3.6274    7.2292   24.6188 C.3     1  LIG1       -0.0543
     27 C           4.6668    7.8656   23.7208 C.3     1  LIG1       -0.0652
     28 CL          2.4656   14.0415   24.2852 Cl      1  LIG1       -0.0793
     29 H           4.6472   16.4731   26.7963 H       1  LIG1        0.0660
     30 H           4.7095   14.8060   27.3770 H       1  LIG1        0.0660
     31 H           3.3153   15.4088   26.4091 H       1  LIG1        0.0660
     32 H           8.8121   15.3066   25.2946 H       1  LIG1        0.0660
     33 H           7.2195   15.7323   24.6932 H       1  LIG1        0.0660
     34 H           8.2908   14.6794   23.7190 H       1  LIG1        0.0660
     35 H           9.0889   10.0639   23.3069 H       1  LIG1        0.0660
     36 H           8.0728   10.9375   22.1522 H       1  LIG1        0.0660
     37 H           7.4187    9.5651   23.1190 H       1  LIG1        0.0660
     38 H           5.4979   10.4246   23.0728 H       1  LIG1        0.0659
     39 H           3.3149   10.2764   22.5931 H       1  LIG1        0.0392
     40 H           2.6573   11.7921   22.0961 H       1  LIG1        0.0392
     41 H          -3.3589   11.9153   24.3502 H       1  LIG1        0.1438
     42 H          -2.0205   12.1739   23.2283 H       1  LIG1        0.1438
     43 H          -1.6027    9.6232   27.8487 H       1  LIG1        0.1048
     44 H           3.0865    9.9956   26.6720 H       1  LIG1        0.0493
     45 H           3.9125    9.9119   25.1474 H       1  LIG1        0.0493
     46 H           1.8325    7.7867   25.6307 H       1  LIG1        0.0282
     47 H           3.2424    7.7444   26.6569 H       1  LIG1        0.0282
     48 H           2.8717    6.7572   23.9760 H       1  LIG1        0.0263
     49 H           4.1183    6.4037   25.1502 H       1  LIG1        0.0263
     50 H           4.2089    8.6017   23.0667 H       1  LIG1        0.0230
     51 H           5.0972    7.1101   23.0513 H       1  LIG1        0.0230
     52 H           5.4812    8.3153   24.2851 H       1  LIG1        0.0230
@<TRIPOS>BOND
     1     1     2    1
     2     1    29    1
     3     1    30    1
     4     1    31    1
     5     2     3    1
     6     3     4   ar
     7     3     5   ar
     8     4    12   ar
     9     4    28    1
    10     5     6    1
    11     5     8   ar
    12     6     7    1
    13     7    32    1
    14     7    33    1
    15     7    34    1
    16     8     9    1
    17     8    11   ar
    18     9    10    1
    19    10    35    1
    20    10    36    1
    21    10    37    1
    22    11    12   ar
    23    11    38    1
    24    12    13    1
    25    13    14    1
    26    13    39    1
    27    13    40    1
    28    14    15   ar
    29    14    23   ar
    30    15    16   ar
    31    16    17   ar
    32    16    19   ar
    33    17    18    1
    34    17    22   ar
    35    18    41    1
    36    18    42    1
    37    19    20   ar
    38    19    23   ar
    39    20    21   ar
    40    21    22   ar
    41    21    43    1
    42    23    24    1
    43    24    25    1
    44    24    44    1
    45    24    45    1
    46    25    26    1
    47    25    46    1
    48    25    47    1
    49    26    27    1
    50    26    48    1
    51    26    49    1
    52    27    50    1
    53    27    51    1
    54    27    52    1
