1UYD_PU8_A_1224
 OpenBabel03301716573D

 52 54  0  0  0  0  0  0  0  0999 V2000
    4.3982   15.4365   26.5385 C   0  0  0  0  0  0  0  0  0  0  0  0
    5.0959   15.1459   25.3320 O   0  0  0  0  0  0  0  0  0  0  0  0
    5.1161   13.8450   24.8849 C   0  0  0  0  0  0  0  0  0  0  0  0
    3.9958   13.2310   24.2930 C   0  0  0  0  0  0  0  0  0  0  0  0
    6.3772   13.2123   24.7965 C   0  0  0  0  0  0  0  0  0  0  0  0
    7.4812   13.7615   25.4103 O   0  0  0  0  0  0  0  0  0  0  0  0
    7.9561   14.9233   24.7310 C   0  0  0  0  0  0  0  0  0  0  0  0
    6.5286   11.9668   24.1496 C   0  0  0  0  0  0  0  0  0  0  0  0
    7.7641   11.3684   24.1695 O   0  0  0  0  0  0  0  0  0  0  0  0
    8.0761   10.4432   23.1289 C   0  0  0  0  0  0  0  0  0  0  0  0
    5.4079   11.3858   23.5671 C   0  0  0  0  0  0  0  0  0  0  0  0
    4.1298   11.9827   23.6432 C   0  0  0  0  0  0  0  0  0  0  0  0
    2.9795   11.2388   22.9867 C   0  0  0  0  0  0  0  0  0  0  0  0
    1.8062   10.9501   23.8652 C   0  0  0  0  0  0  0  0  0  0  0  0
    0.5720   11.3381   23.5737 N   0  0  0  0  0  0  0  0  0  0  0  0
   -0.1823   10.9575   24.6584 C   0  0  0  0  0  0  0  0  0  0  0  0
   -1.5497   11.1255   24.9336 C   0  0  0  0  0  0  0  0  0  0  0  0
   -2.4142   11.7407   24.0547 N   0  0  0  0  0  0  0  0  0  0  0  0
    0.5884   10.3007   25.5930 C   0  0  0  0  0  0  0  0  0  0  0  0
    0.1542    9.7871   26.7719 N   0  0  0  0  0  0  0  0  0  0  0  0
   -1.1635   10.0049   26.9309 C   0  0  0  0  0  0  0  0  0  0  0  0
   -2.0318   10.6398   26.1018 N   0  0  0  0  0  0  0  0  0  0  0  0
    1.8541   10.2539   25.0564 N   0  3  0  0  0  0  0  0  0  0  0  0
    2.9956    9.5995   25.6493 C   0  0  0  0  0  0  0  0  0  0  0  0
    2.8895    8.0765   25.6723 C   0  0  0  0  0  0  0  0  0  0  0  0
    3.6274    7.2292   24.6188 C   0  0  0  0  0  0  0  0  0  0  0  0
    4.6668    7.8656   23.7208 C   0  0  0  0  0  0  0  0  0  0  0  0
    2.4656   14.0415   24.2852 Cl  0  0  0  0  0  0  0  0  0  0  0  0
    4.6472   16.4731   26.7963 H   0  0  0  0  0  0  0  0  0  0  0  0
    4.7095   14.8060   27.3770 H   0  0  0  0  0  0  0  0  0  0  0  0
    3.3153   15.4088   26.4091 H   0  0  0  0  0  0  0  0  0  0  0  0
    8.8121   15.3066   25.2946 H   0  0  0  0  0  0  0  0  0  0  0  0
    7.2195   15.7323   24.6932 H   0  0  0  0  0  0  0  0  0  0  0  0
    8.2908   14.6794   23.7190 H   0  0  0  0  0  0  0  0  0  0  0  0
    9.0889   10.0639   23.3069 H   0  0  0  0  0  0  0  0  0  0  0  0
    8.0728   10.9375   22.1522 H   0  0  0  0  0  0  0  0  0  0  0  0
    7.4187    9.5651   23.1190 H   0  0  0  0  0  0  0  0  0  0  0  0
    5.4979   10.4246   23.0728 H   0  0  0  0  0  0  0  0  0  0  0  0
    3.3149   10.2764   22.5931 H   0  0  0  0  0  0  0  0  0  0  0  0
    2.6573   11.7921   22.0961 H   0  0  0  0  0  0  0  0  0  0  0  0
   -3.3589   11.9153   24.3502 H   0  0  0  0  0  0  0  0  0  0  0  0
   -2.0205   12.1739   23.2283 H   0  0  0  0  0  0  0  0  0  0  0  0
   -1.6027    9.6232   27.8487 H   0  0  0  0  0  0  0  0  0  0  0  0
    3.0865    9.9956   26.6720 H   0  0  0  0  0  0  0  0  0  0  0  0
    3.9125    9.9119   25.1474 H   0  0  0  0  0  0  0  0  0  0  0  0
    1.8325    7.7867   25.6307 H   0  0  0  0  0  0  0  0  0  0  0  0
    3.2424    7.7444   26.6569 H   0  0  0  0  0  0  0  0  0  0  0  0
    2.8717    6.7572   23.9760 H   0  0  0  0  0  0  0  0  0  0  0  0
    4.1183    6.4037   25.1502 H   0  0  0  0  0  0  0  0  0  0  0  0
    4.2089    8.6017   23.0667 H   0  0  0  0  0  0  0  0  0  0  0  0
    5.0972    7.1101   23.0513 H   0  0  0  0  0  0  0  0  0  0  0  0
    5.4812    8.3153   24.2851 H   0  0  0  0  0  0  0  0  0  0  0  0
  1  2  1  0  0  0  0
  1 29  1  0  0  0  0
  1 30  1  0  0  0  0
  1 31  1  0  0  0  0
  2  3  1  0  0  0  0
  3  4  2  0  0  0  0
  3  5  1  0  0  0  0
  4 12  1  0  0  0  0
  4 28  1  0  0  0  0
  5  6  1  0  0  0  0
  5  8  2  0  0  0  0
  6  7  1  0  0  0  0
  7 32  1  0  0  0  0
  7 33  1  0  0  0  0
  7 34  1  0  0  0  0
  8  9  1  0  0  0  0
  8 11  1  0  0  0  0
  9 10  1  0  0  0  0
 10 35  1  0  0  0  0
 10 36  1  0  0  0  0
 10 37  1  0  0  0  0
 11 12  2  0  0  0  0
 11 38  1  0  0  0  0
 12 13  1  0  0  0  0
 13 14  1  0  0  0  0
 13 39  1  0  0  0  0
 13 40  1  0  0  0  0
 14 15  1  0  0  0  0
 14 23  2  0  0  0  0
 15 16  1  0  0  0  0
 16 17  2  0  0  0  0
 16 19  1  0  0  0  0
 17 18  1  0  0  0  0
 17 22  1  0  0  0  0
 18 41  1  0  0  0  0
 18 42  1  0  0  0  0
 19 20  2  0  0  0  0
 19 23  1  0  0  0  0
 20 21  1  0  0  0  0
 21 22  2  0  0  0  0
 21 43  1  0  0  0  0
 23 24  1  0  0  0  0
 24 25  1  0  0  0  0
 24 44  1  0  0  0  0
 24 45  1  0  0  0  0
 25 26  1  0  0  0  0
 25 46  1  0  0  0  0
 25 47  1  0  0  0  0
 26 27  1  0  0  0  0
 26 48  1  0  0  0  0
 26 49  1  0  0  0  0
 27 50  1  0  0  0  0
 27 51  1  0  0  0  0
 27 52  1  0  0  0  0
M  CHG  1  23   1
M  END
$$$$
