@<TRIPOS>MOLECULE
1UYE_PU9_A_1224
 51 53 0 0 0
SMALL
USER_CHARGES

@<TRIPOS>ATOM
      1 CL          2.3034   13.9988   24.2671 Cl      1  LIG1       -0.0793
      2 C           3.8971   13.2895   24.2925 C.ar    1  LIG1        0.0900
      3 C           5.0069   14.0225   24.8445 C.ar    1  LIG1        0.1838
      4 O           4.7748   15.1362   25.6218 O.3     1  LIG1       -0.4900
      5 C           5.1746   16.4998   25.6664 C.3     1  LIG1        0.0790
      6 C           6.2918   13.4755   24.8539 C.ar    1  LIG1        0.2050
      7 O           7.2337   14.1977   25.5455 O.3     1  LIG1       -0.4885
      8 C           8.2946   14.7714   24.7801 C.3     1  LIG1        0.0791
      9 C           6.5243   12.2129   24.2830 C.ar    1  LIG1        0.1655
     10 O           7.8195   11.7763   24.3522 O.3     1  LIG1       -0.4913
     11 C           8.2576   10.6708   23.5859 C.3     1  LIG1        0.0790
     12 C           5.4577   11.5162   23.6827 C.ar    1  LIG1       -0.0111
     13 C           4.1250   12.0330   23.6841 C.ar    1  LIG1       -0.0146
     14 C           3.0441   11.1911   23.0051 C.3     1  LIG1        0.0325
     15 C           1.8624   10.8994   23.8617 C.ar    1  LIG1        0.1164
     16 N           0.6301   11.3056   23.5909 N.ar    1  LIG1       -0.2268
     17 C          -0.1386   10.8815   24.6549 C.ar    1  LIG1        0.1475
     18 C          -1.5121   10.9975   24.9715 C.ar    1  LIG1        0.1472
     19 N          -2.4281   11.6389   24.1605 N.pl3   1  LIG1       -0.3413
     20 C           0.6515   10.2089   25.5667 C.ar    1  LIG1        0.1655
     21 N           0.2861    9.6317   26.7206 N.ar    1  LIG1       -0.2160
     22 C          -1.0272    9.8066   26.9355 C.ar    1  LIG1        0.1205
     23 N          -1.9247   10.4430   26.1419 N.ar    1  LIG1       -0.2188
     24 N           1.9219   10.2211   25.0610 N.ar    1  LIG1       -0.3120
     25 C           3.0562    9.5710   25.6927 C.3     1  LIG1        0.0272
     26 C           3.0493    8.0633   25.4776 C.3     1  LIG1       -0.0240
     27 C           3.1837    7.6908   23.9778 C.3     1  LIG1        0.0105
     28 C           4.5520    7.8418   23.4849 C.1     1  LIG1       -0.1055
     29 C           5.7171    7.9510   23.0547 C.1     1  LIG1       -0.1192
     30 H           4.9005   16.7881   26.7001 H       1  LIG1        0.0660
     31 H           4.5264   17.0839   24.9972 H       1  LIG1        0.0660
     32 H           6.2242   16.7702   25.5195 H       1  LIG1        0.0660
     33 H           8.9524   15.3521   25.4547 H       1  LIG1        0.0660
     34 H           7.9301   15.4689   24.0133 H       1  LIG1        0.0660
     35 H           8.9117   14.0006   24.3144 H       1  LIG1        0.0660
     36 H           9.3279   10.5083   23.7870 H       1  LIG1        0.0660
     37 H           8.1449   10.8577   22.5132 H       1  LIG1        0.0660
     38 H           7.7295    9.7590   23.8690 H       1  LIG1        0.0660
     39 H           5.6538   10.5556   23.2171 H       1  LIG1        0.0659
     40 H           3.4716   10.2399   22.6529 H       1  LIG1        0.0392
     41 H           2.7022   11.7182   22.1045 H       1  LIG1        0.0392
     42 H          -3.3858   11.7125   24.4556 H       1  LIG1        0.1438
     43 H          -2.1361   12.0508   23.2872 H       1  LIG1        0.1438
     44 H          -1.3986    9.3779   27.8556 H       1  LIG1        0.1048
     45 H           3.0372    9.7997   26.7680 H       1  LIG1        0.0493
     46 H           3.9713    9.9884   25.2851 H       1  LIG1        0.0493
     47 H           2.1064    7.6555   25.8756 H       1  LIG1        0.0291
     48 H           3.8719    7.6084   26.0400 H       1  LIG1        0.0291
     49 H           2.4850    8.3308   23.4292 H       1  LIG1        0.0398
     50 H           2.8404    6.6664   23.8758 H       1  LIG1        0.0398
     51 H           6.7005    8.0493   22.7427 H       1  LIG1        0.1228
@<TRIPOS>BOND
     1     1     2    1
     2     2     3   ar
     3     2    13   ar
     4     3     4    1
     5     3     6   ar
     6     4     5    1
     7     5    30    1
     8     5    31    1
     9     5    32    1
    10     6     7    1
    11     6     9   ar
    12     7     8    1
    13     8    33    1
    14     8    34    1
    15     8    35    1
    16     9    10    1
    17     9    12   ar
    18    10    11    1
    19    11    36    1
    20    11    37    1
    21    11    38    1
    22    12    13   ar
    23    12    39    1
    24    13    14    1
    25    14    15    1
    26    14    40    1
    27    14    41    1
    28    15    16   ar
    29    15    24   ar
    30    16    17   ar
    31    17    18   ar
    32    17    20   ar
    33    18    19    1
    34    18    23   ar
    35    19    42    1
    36    19    43    1
    37    20    21   ar
    38    20    24   ar
    39    21    22   ar
    40    22    23   ar
    41    22    44    1
    42    24    25    1
    43    25    26    1
    44    25    45    1
    45    25    46    1
    46    26    27    1
    47    26    47    1
    48    26    48    1
    49    27    28    1
    50    27    49    1
    51    27    50    1
    52    28    29    3
    53    29    51    1
