@<TRIPOS>MOLECULE
1UYK_PUX_A_1224
 43 46 0 0 0
SMALL
USER_CHARGES

@<TRIPOS>ATOM
      1 C           5.3767    7.6613   24.4935 C.3     1  LIG1       -0.0652
      2 C           3.9787    7.1626   24.8306 C.3     1  LIG1       -0.0543
      3 C           3.3649    7.7344   26.1150 C.3     1  LIG1       -0.0351
      4 C           3.2122    9.2600   26.2073 C.3     1  LIG1        0.0263
      5 N           2.0533    9.8266   25.5351 N.ar    1  LIG1       -0.3120
      6 C           0.7876    9.9354   26.1066 C.ar    1  LIG1        0.1684
      7 N           0.3537    9.4919   27.2992 N.ar    1  LIG1       -0.1822
      8 C          -0.9559    9.7879   27.5050 C.ar    1  LIG1        0.3127
      9 N          -1.7975   10.4291   26.6706 N.ar    1  LIG1       -0.1852
     10 C           0.0334   10.6199   25.1624 C.ar    1  LIG1        0.1477
     11 C          -1.3212   10.8589   25.4836 C.ar    1  LIG1        0.1500
     12 N          -2.1977   11.5090   24.6429 N.pl3   1  LIG1       -0.3412
     13 N           0.8007   10.9384   24.0617 N.ar    1  LIG1       -0.2268
     14 C           2.0271   10.4958   24.3123 C.ar    1  LIG1        0.1164
     15 C           3.2241   10.7495   23.4069 C.3     1  LIG1        0.0310
     16 C           4.1233   11.8921   23.8657 C.ar    1  LIG1       -0.0364
     17 C           3.5721   13.0878   24.3641 C.ar    1  LIG1       -0.0126
     18 C           4.4256   14.0744   24.8253 C.ar    1  LIG1        0.1665
     19 C           5.5324   11.7785   23.7796 C.ar    1  LIG1       -0.0545
     20 O           4.0531   15.2592   25.3851 O.3     1  LIG1       -0.4526
     21 C           6.3754   12.7986   24.2496 C.ar    1  LIG1       -0.0159
     22 C           5.7907   13.9295   24.7785 C.ar    1  LIG1        0.1662
     23 O           6.4469   14.9999   25.3051 O.3     1  LIG1       -0.4526
     24 C           5.3370   15.8046   25.7581 C.3     1  LIG1        0.2332
     25 F          -1.4830    9.4089   28.6805 F       1  LIG1       -0.1610
     26 H           5.7320    7.1812   23.5743 H       1  LIG1        0.0230
     27 H           6.0919    7.4340   25.2896 H       1  LIG1        0.0230
     28 H           5.3918    8.7370   24.3225 H       1  LIG1        0.0230
     29 H           4.0414    6.0718   24.9457 H       1  LIG1        0.0263
     30 H           3.3109    7.3510   23.9846 H       1  LIG1        0.0263
     31 H           3.9972    7.4108   26.9525 H       1  LIG1        0.0282
     32 H           2.3873    7.2596   26.2636 H       1  LIG1        0.0282
     33 H           4.1107    9.7735   25.8594 H       1  LIG1        0.0493
     34 H           3.1077    9.5259   27.2675 H       1  LIG1        0.0493
     35 H          -1.8492   11.9159   23.7874 H       1  LIG1        0.1438
     36 H          -3.1412   11.6693   24.9638 H       1  LIG1        0.1438
     37 H           2.8818   10.9800   22.3865 H       1  LIG1        0.0392
     38 H           3.8123    9.8330   23.3006 H       1  LIG1        0.0392
     39 H           2.4963   13.2269   24.4134 H       1  LIG1        0.0658
     40 H           5.9877   10.8835   23.3570 H       1  LIG1        0.0622
     41 H           7.4544   12.6973   24.2121 H       1  LIG1        0.0655
     42 H           5.3823   15.8837   26.8519 H       1  LIG1        0.1166
     43 H           5.4352   16.8165   25.3462 H       1  LIG1        0.1166
@<TRIPOS>BOND
     1     1     2    1
     2     1    26    1
     3     1    27    1
     4     1    28    1
     5     2     3    1
     6     2    29    1
     7     2    30    1
     8     3     4    1
     9     3    31    1
    10     3    32    1
    11     4     5    1
    12     4    33    1
    13     4    34    1
    14     5     6   ar
    15     5    14   ar
    16     6     7   ar
    17     6    10   ar
    18     7     8   ar
    19     8     9   ar
    20     8    25    1
    21     9    11   ar
    22    10    11   ar
    23    10    13   ar
    24    11    12    1
    25    12    35    1
    26    12    36    1
    27    13    14   ar
    28    14    15    1
    29    15    16    1
    30    15    37    1
    31    15    38    1
    32    16    17   ar
    33    16    19   ar
    34    17    18   ar
    35    17    39    1
    36    18    20    1
    37    18    22   ar
    38    19    21   ar
    39    19    40    1
    40    20    24    1
    41    21    22   ar
    42    21    41    1
    43    22    23    1
    44    23    24    1
    45    24    42    1
    46    24    43    1
