REMARK  6 active torsions:
REMARK  status: ('A' for Active; 'I' for Inactive)
REMARK    1  A    between atoms: C_2  and  C_3 
REMARK    2  A    between atoms: C_3  and  C_4 
REMARK    3  A    between atoms: C_4  and  N_5 
REMARK    4  A    between atoms: C_11  and  N_12 
REMARK    5  A    between atoms: C_14  and  C_15 
REMARK    6  A    between atoms: C_15  and  C_16 
ROOT
ATOM      1  N   LIG d   1       2.053   9.827  25.535  0.00  0.00    -0.312 N 
ATOM      2  C   LIG d   1       0.788   9.935  26.107  0.00  0.00     0.168 A 
ATOM      3  N   LIG d   1       0.354   9.492  27.299  0.00  0.00    -0.182 NA
ATOM      4  C   LIG d   1      -0.956   9.788  27.505  0.00  0.00     0.313 A 
ATOM      5  N   LIG d   1      -1.798  10.429  26.671  0.00  0.00    -0.185 NA
ATOM      6  C   LIG d   1       0.033  10.620  25.162  0.00  0.00     0.148 A 
ATOM      7  C   LIG d   1      -1.321  10.859  25.484  0.00  0.00     0.150 A 
ATOM      8  N   LIG d   1       0.801  10.938  24.062  0.00  0.00    -0.227 NA
ATOM      9  C   LIG d   1       2.027  10.496  24.312  0.00  0.00     0.116 A 
ATOM     10  F   LIG d   1      -1.483   9.409  28.680  0.00  0.00    -0.161 F 
ENDROOT
BRANCH   9  11
ATOM     11  C   LIG d   1       3.224  10.749  23.407  0.00  0.00     0.109 C 
BRANCH  11  12
ATOM     12  C   LIG d   1       4.123  11.892  23.866  0.00  0.00    -0.036 A 
ATOM     13  C   LIG d   1       3.572  13.088  24.364  0.00  0.00     0.053 A 
ATOM     14  C   LIG d   1       4.426  14.074  24.825  0.00  0.00     0.167 A 
ATOM     15  O   LIG d   1       4.053  15.259  25.385  0.00  0.00    -0.453 OA
ATOM     16  C   LIG d   1       5.791  13.930  24.779  0.00  0.00     0.166 A 
ATOM     17  C   LIG d   1       5.337  15.805  25.758  0.00  0.00     0.466 A 
ATOM     18  O   LIG d   1       6.447  15.000  25.305  0.00  0.00    -0.453 OA
ATOM     19  C   LIG d   1       6.375  12.799  24.250  0.00  0.00     0.050 A 
ATOM     20  C   LIG d   1       5.532  11.778  23.780  0.00  0.00     0.008 A 
ENDBRANCH  11  12
ENDBRANCH   9  11
BRANCH   1  21
ATOM     21  C   LIG d   1       3.212   9.260  26.207  0.00  0.00     0.125 C 
BRANCH  21  22
ATOM     22  C   LIG d   1       3.365   7.734  26.115  0.00  0.00     0.021 C 
BRANCH  22  23
ATOM     23  C   LIG d   1       3.979   7.163  24.831  0.00  0.00    -0.002 C 
ATOM     24  C   LIG d   1       5.377   7.661  24.494  0.00  0.00     0.004 C 
ENDBRANCH  22  23
ENDBRANCH  21  22
ENDBRANCH   1  21
BRANCH   7  25
ATOM     25  N   LIG d   1      -2.198  11.509  24.643  0.00  0.00    -0.341 N 
ATOM     26  H   LIG d   1      -1.849  11.916  23.787  0.00  0.00     0.144 HD
ATOM     27  H   LIG d   1      -3.141  11.669  24.964  0.00  0.00     0.144 HD
ENDBRANCH   7  25
TORSDOF 6
