REMARK  8 active torsions:
REMARK  status: ('A' for Active; 'I' for Inactive)
REMARK    1  A    between atoms: C_3  and  C_4 
REMARK    2  A    between atoms: C_4  and  C_5 
REMARK    3  A    between atoms: C_5  and  N_6 
REMARK    4  A    between atoms: C_10  and  N_11 
REMARK    5  A    between atoms: C_16  and  C_17 
REMARK    6  A    between atoms: C_17  and  C_18 
REMARK    7  A    between atoms: C_19  and  O_20 
REMARK    8  A    between atoms: C_24  and  O_26 
ROOT
ATOM      1  C   LIG d   1       5.208   7.918  28.960  0.00  0.00     0.004 C 
ATOM      2  C   LIG d   1       4.983   7.619  27.822  0.00  0.00    -0.105 C 
ATOM      3  C   LIG d   1       4.688   7.288  26.424  0.00  0.00     0.090 C 
ENDROOT
BRANCH   3   4
ATOM      4  C   LIG d   1       3.381   7.919  25.955  0.00  0.00     0.034 C 
BRANCH   4   5
ATOM      5  C   LIG d   1       3.407   9.443  26.048  0.00  0.00     0.126 C 
BRANCH   5   6
ATOM      6  N   LIG d   1       2.264  10.027  25.377  0.00  0.00    -0.312 N 
ATOM      7  C   LIG d   1       1.010  10.127  25.909  0.00  0.00     0.168 A 
ATOM      8  N   LIG d   1       0.604   9.731  27.121  0.00  0.00    -0.182 NA
ATOM      9  C   LIG d   1       0.245  10.713  24.918  0.00  0.00     0.148 A 
ATOM     10  C   LIG d   1      -0.709   9.980  27.299  0.00  0.00     0.313 A 
ATOM     11  N   LIG d   1      -1.572  10.549  26.430  0.00  0.00    -0.185 NA
ATOM     12  F   LIG d   1      -1.222   9.609  28.483  0.00  0.00    -0.161 F 
ATOM     13  C   LIG d   1      -1.109  10.931  25.220  0.00  0.00     0.150 A 
ATOM     14  N   LIG d   1       1.014  10.974  23.800  0.00  0.00    -0.227 NA
ATOM     15  C   LIG d   1       2.232  10.554  24.102  0.00  0.00     0.117 A 
BRANCH  13  16
ATOM     16  N   LIG d   1      -2.002  11.507  24.342  0.00  0.00    -0.341 N 
ATOM     17  H   LIG d   1      -2.956  11.620  24.643  0.00  0.00     0.144 HD
ATOM     18  H   LIG d   1      -1.681  11.812  23.434  0.00  0.00     0.144 HD
ENDBRANCH  13  16
BRANCH  15  19
ATOM     19  C   LIG d   1       3.453  10.665  23.237  0.00  0.00     0.113 C 
BRANCH  19  20
ATOM     20  C   LIG d   1       4.388  11.799  23.628  0.00  0.00     0.005 A 
ATOM     21  C   LIG d   1       5.759  11.713  23.336  0.00  0.00     0.124 A 
ATOM     22  C   LIG d   1       6.598  12.787  23.645  0.00  0.00     0.049 A 
ATOM     23  C   LIG d   1       6.091  13.941  24.262  0.00  0.00     0.049 A 
ATOM     24  C   LIG d   1       4.741  14.033  24.578  0.00  0.00     0.121 A 
ATOM     25  C   LIG d   1       3.900  12.968  24.249  0.00  0.00     0.053 A 
BRANCH  21  26
ATOM     26  O   LIG d   1       6.183  10.589  22.677  0.00  0.00    -0.495 OA
ATOM     27  C   LIG d   1       7.469  10.093  23.035  0.00  0.00     0.277 C 
ENDBRANCH  21  26
BRANCH  24  28
ATOM     28  O   LIG d   1       4.122  15.091  25.183  0.00  0.00    -0.495 OA
ATOM     29  C   LIG d   1       4.936  16.198  25.551  0.00  0.00     0.277 C 
ENDBRANCH  24  28
ENDBRANCH  19  20
ENDBRANCH  15  19
ENDBRANCH   5   6
ENDBRANCH   4   5
ENDBRANCH   3   4
TORSDOF 8
