@<TRIPOS>MOLECULE
1UYI_PUZ_A_1224
 47 49 0 0 0
SMALL
USER_CHARGES

@<TRIPOS>ATOM
      1 C           5.2085    7.9181   28.9600 C.1     1  LIG1       -0.1192
      2 C           4.9827    7.6190   27.8220 C.1     1  LIG1       -0.1055
      3 C           4.6875    7.2878   26.4235 C.3     1  LIG1        0.0105
      4 C           3.3807    7.9187   25.9554 C.3     1  LIG1       -0.0240
      5 C           3.4069    9.4425   26.0483 C.3     1  LIG1        0.0272
      6 N           2.2639   10.0274   25.3765 N.ar    1  LIG1       -0.3120
      7 C           1.0097   10.1273   25.9085 C.ar    1  LIG1        0.1684
      8 N           0.6038    9.7314   27.1211 N.ar    1  LIG1       -0.1822
      9 C           0.2447   10.7135   24.9178 C.ar    1  LIG1        0.1477
     10 C          -1.1095   10.9315   25.2199 C.ar    1  LIG1        0.1500
     11 N          -2.0021   11.5067   24.3418 N.pl3   1  LIG1       -0.3412
     12 N          -1.5717   10.5492   26.4295 N.ar    1  LIG1       -0.1852
     13 C          -0.7088    9.9804   27.2989 C.ar    1  LIG1        0.3127
     14 F          -1.2224    9.6089   28.4829 F       1  LIG1       -0.1610
     15 N           1.0137   10.9742   23.8000 N.ar    1  LIG1       -0.2268
     16 C           2.2317   10.5537   24.1020 C.ar    1  LIG1        0.1165
     17 C           3.4534   10.6646   23.2369 C.3     1  LIG1        0.0344
     18 C           4.3876   11.7988   23.6275 C.ar    1  LIG1        0.0050
     19 C           5.7593   11.7135   23.3362 C.ar    1  LIG1        0.1239
     20 O           6.1827   10.5890   22.6771 O.3     1  LIG1       -0.4948
     21 C           7.4693   10.0930   23.0353 C.3     1  LIG1        0.0788
     22 C           6.5985   12.7875   23.6452 C.ar    1  LIG1       -0.0162
     23 C           6.0915   13.9412   24.2619 C.ar    1  LIG1       -0.0165
     24 C           4.7407   14.0327   24.5783 C.ar    1  LIG1        0.1206
     25 C           3.8995   12.9684   24.2491 C.ar    1  LIG1       -0.0129
     26 O           4.1216   15.0914   25.1835 O.3     1  LIG1       -0.4951
     27 C           4.9365   16.1978   25.5514 C.3     1  LIG1        0.0788
     28 H           5.3968    8.1968   29.9728 H       1  LIG1        0.1228
     29 H           4.6182    6.2007   26.3117 H       1  LIG1        0.0398
     30 H           5.5100    7.6235   25.7815 H       1  LIG1        0.0398
     31 H           2.5392    7.5311   26.5432 H       1  LIG1        0.0291
     32 H           3.1998    7.6140   24.9163 H       1  LIG1        0.0291
     33 H           4.3218    9.8382   25.5958 H       1  LIG1        0.0493
     34 H           3.3938    9.7941   27.0856 H       1  LIG1        0.0493
     35 H          -2.9562   11.6200   24.6433 H       1  LIG1        0.1438
     36 H          -1.6812   11.8116   23.4342 H       1  LIG1        0.1438
     37 H           3.1573   10.7922   22.1900 H       1  LIG1        0.0393
     38 H           3.9842    9.7050   23.2966 H       1  LIG1        0.0393
     39 H           7.6439    9.1836   22.4500 H       1  LIG1        0.0660
     40 H           7.5004    9.8181   24.0950 H       1  LIG1        0.0660
     41 H           8.2714   10.7931   22.7865 H       1  LIG1        0.0660
     42 H           7.6499   12.7737   23.3808 H       1  LIG1        0.0655
     43 H           6.7773   14.7566   24.4633 H       1  LIG1        0.0655
     44 H           2.8391   13.0654   24.4834 H       1  LIG1        0.0658
     45 H           4.2917   16.9478   26.0203 H       1  LIG1        0.0660
     46 H           5.3963   16.6600   24.6717 H       1  LIG1        0.0660
     47 H           5.6938   15.9048   26.2855 H       1  LIG1        0.0660
@<TRIPOS>BOND
     1     1     2    3
     2     1    28    1
     3     2     3    1
     4     3     4    1
     5     3    29    1
     6     3    30    1
     7     4     5    1
     8     4    31    1
     9     4    32    1
    10     5     6    1
    11     5    33    1
    12     5    34    1
    13     6     7   ar
    14     6    16   ar
    15     7     8   ar
    16     7     9   ar
    17     8    13   ar
    18     9    10   ar
    19     9    15   ar
    20    10    11    1
    21    10    12   ar
    22    11    35    1
    23    11    36    1
    24    12    13   ar
    25    13    14    1
    26    15    16   ar
    27    16    17    1
    28    17    18    1
    29    17    37    1
    30    17    38    1
    31    18    19   ar
    32    18    25   ar
    33    19    20    1
    34    19    22   ar
    35    20    21    1
    36    21    39    1
    37    21    40    1
    38    21    41    1
    39    22    23   ar
    40    22    42    1
    41    23    24   ar
    42    23    43    1
    43    24    25   ar
    44    24    26    1
    45    25    44    1
    46    26    27    1
    47    27    45    1
    48    27    46    1
    49    27    47    1
