@<TRIPOS>MOLECULE
3EKR_PY9_A_901
 41 43 0 0 0
SMALL
USER_CHARGES

@<TRIPOS>ATOM
      1 N          17.0162   -3.7288   51.0862 N.am    1  LIG1       -0.2903
      2 C          15.2176    0.8617   49.7085 C.ar    1  LIG1        0.1204
      3 C          16.5578    0.6465   49.3923 C.ar    1  LIG1        0.0221
      4 C          17.0891   -0.6461   49.4449 C.ar    1  LIG1        0.1324
      5 C          16.8095   -3.1088   49.8599 C.2     1  LIG1        0.2506
      6 C          16.8888   -3.1490   52.4373 C.3     1  LIG1        0.0518
      7 C          17.8497   -5.3769   52.5871 C.3     1  LIG1       -0.0351
      8 C          14.4969   -4.0594   52.5767 C.ar    1  LIG1       -0.0565
      9 C          12.8154   -3.0859   54.0125 C.ar    1  LIG1       -0.0615
     10 C          15.0736   -2.1615   53.9741 C.ar    1  LIG1       -0.0455
     11 C          13.1872   -4.0405   53.0736 C.ar    1  LIG1       -0.0614
     12 C          14.9153   -1.5003   50.0936 C.ar    1  LIG1       -0.0426
     13 C          13.7504   -2.1607   54.4621 C.ar    1  LIG1       -0.0585
     14 C          14.3906   -0.2027   50.0505 C.ar    1  LIG1       -0.0192
     15 C          16.2761   -1.7242   49.8230 C.ar    1  LIG1        0.0785
     16 C          15.4626   -3.1208   52.9999 C.ar    1  LIG1       -0.0241
     17 C          17.8342   -4.0216   53.2862 C.3     1  LIG1       -0.0287
     18 C          17.6517   -5.0398   51.1192 C.3     1  LIG1        0.0157
     19 C          16.0184   -1.1238   54.5238 C.3     1  LIG1       -0.0394
     20 O          17.1137   -3.6290   48.7950 O.2     1  LIG1       -0.2698
     21 O          14.7391    2.1387   49.6696 O.3     1  LIG1       -0.5066
     22 O          18.4149   -0.7753   49.1272 O.3     1  LIG1       -0.5059
     23 H          17.1906    1.4831   49.1097 H       1  LIG1        0.0691
     24 H          17.2631   -2.1209   52.3957 H       1  LIG1        0.0550
     25 H          17.0261   -6.0014   52.9487 H       1  LIG1        0.0281
     26 H          18.7809   -5.9288   52.7610 H       1  LIG1        0.0281
     27 H          14.7525   -4.8208   51.8427 H       1  LIG1        0.0621
     28 H          11.8021   -3.0701   54.4061 H       1  LIG1        0.0618
     29 H          12.4536   -4.7750   52.7242 H       1  LIG1        0.0618
     30 H          14.2613   -2.3302   50.3304 H       1  LIG1        0.0627
     31 H          13.4421   -1.4226   55.2033 H       1  LIG1        0.0620
     32 H          13.3419   -0.0457   50.2851 H       1  LIG1        0.0654
     33 H          17.5408   -4.1128   54.3370 H       1  LIG1        0.0287
     34 H          18.8513   -3.6073   53.2604 H       1  LIG1        0.0287
     35 H          18.6094   -5.0136   50.5819 H       1  LIG1        0.0465
     36 H          17.0039   -5.7686   50.6218 H       1  LIG1        0.0465
     37 H          15.5200   -0.4800   55.2630 H       1  LIG1        0.0278
     38 H          16.3810   -0.4667   53.7294 H       1  LIG1        0.0278
     39 H          16.8626   -1.5960   55.0349 H       1  LIG1        0.0278
     40 H          13.7955    2.1335   49.9113 H       1  LIG1        0.2921
     41 H          18.6518   -1.7206   49.0874 H       1  LIG1        0.2922
@<TRIPOS>BOND
     1     1     5   am
     2     1     6    1
     3     1    18    1
     4     2     3   ar
     5     2    14   ar
     6     2    21    1
     7     3     4   ar
     8     3    23    1
     9     4    15   ar
    10     4    22    1
    11     5    15    1
    12     5    20    2
    13     6    16    1
    14     6    17    1
    15     6    24    1
    16     7    17    1
    17     7    18    1
    18     7    25    1
    19     7    26    1
    20     8    11   ar
    21     8    16   ar
    22     8    27    1
    23     9    11   ar
    24     9    13   ar
    25     9    28    1
    26    10    13   ar
    27    10    16   ar
    28    10    19    1
    29    11    29    1
    30    12    14   ar
    31    12    15   ar
    32    12    30    1
    33    13    31    1
    34    14    32    1
    35    17    33    1
    36    17    34    1
    37    18    35    1
    38    18    36    1
    39    19    37    1
    40    19    38    1
    41    19    39    1
    42    21    40    1
    43    22    41    1
