@<TRIPOS>MOLECULE
3EKO_PYU_A_901
 25 26 0 0 0
SMALL
USER_CHARGES

@<TRIPOS>ATOM
      1 N          17.3310   -3.7898   51.3113 N.ar    1  LIG1       -0.2902
      2 C          15.0909   -1.4898   50.6625 C.ar    1  LIG1        0.1362
      3 C          16.5720    0.5948   49.4881 C.ar    1  LIG1        0.0223
      4 C          14.5602   -0.1814   50.6431 C.ar    1  LIG1        0.0223
      5 C          17.8597   -5.0702   51.3947 C.ar    1  LIG1        0.0127
      6 C          17.2889   -3.2908   52.6096 C.ar    1  LIG1        0.0127
      7 C          18.1397   -5.3576   52.7109 C.ar    1  LIG1       -0.0437
      8 C          17.7814   -4.2401   53.4732 C.ar    1  LIG1       -0.0437
      9 C          16.3564   -1.7585   50.1025 C.ar    1  LIG1        0.1226
     10 C          15.3059    0.8533   50.0564 C.ar    1  LIG1        0.1238
     11 C          17.0919   -0.7157   49.5107 C.ar    1  LIG1        0.1362
     12 C          16.9157   -3.1251   50.1308 C.2     1  LIG1        0.2695
     13 O          17.0461   -3.7312   49.0539 O.2     1  LIG1       -0.2664
     14 O          14.8024    2.1350   50.0378 O.3     1  LIG1       -0.5065
     15 O          18.3361   -0.9114   48.9493 O.3     1  LIG1       -0.5058
     16 H          18.6369   -1.8370   48.9890 H       1  LIG1        0.2922
     17 O          14.3388   -2.4859   51.2491 O.3     1  LIG1       -0.5058
     18 H          17.1536    1.4021   49.0283 H       1  LIG1        0.0691
     19 H          13.5815    0.0335   51.0778 H       1  LIG1        0.0691
     20 H          18.0170   -5.7158   50.5373 H       1  LIG1        0.0814
     21 H          16.9229   -2.3064   52.8774 H       1  LIG1        0.0814
     22 H          18.5592   -6.2798   53.0769 H       1  LIG1        0.0633
     23 H          17.8728   -4.1344   54.5454 H       1  LIG1        0.0633
     24 H          13.9265    2.1995   50.4592 H       1  LIG1        0.2921
     25 H          14.7703   -3.3586   51.2227 H       1  LIG1        0.2922
@<TRIPOS>BOND
     1     1     5   ar
     2     1     6   ar
     3     1    12   am
     4     2     4   ar
     5     2     9   ar
     6     2    17    1
     7     3    10   ar
     8     3    11   ar
     9     3    18    1
    10     4    10   ar
    11     4    19    1
    12     5     7   ar
    13     5    20    1
    14     6     8   ar
    15     6    21    1
    16     7     8   ar
    17     7    22    1
    18     8    23    1
    19     9    11   ar
    20     9    12    1
    21    10    14    1
    22    11    15    1
    23    12    13    2
    24    14    24    1
    25    15    16    1
    26    17    25    1
