REMARK  4 active torsions:
REMARK  status: ('A' for Active; 'I' for Inactive)
REMARK       I    between atoms: N_1  and  C_12 
REMARK    1  A    between atoms: C_2  and  O_17 
REMARK    2  A    between atoms: C_9  and  C_12 
REMARK    3  A    between atoms: C_10  and  O_14 
REMARK    4  A    between atoms: C_11  and  O_15 
ROOT
ATOM      1  C   LIG d   1      15.091  -1.490  50.663  0.00  0.00     0.136 A 
ATOM      2  C   LIG d   1      16.572   0.595  49.488  0.00  0.00     0.091 A 
ATOM      3  C   LIG d   1      14.560  -0.181  50.643  0.00  0.00     0.091 A 
ATOM      4  C   LIG d   1      16.356  -1.758  50.102  0.00  0.00     0.123 A 
ATOM      5  C   LIG d   1      15.306   0.853  50.056  0.00  0.00     0.124 A 
ATOM      6  C   LIG d   1      17.092  -0.716  49.511  0.00  0.00     0.136 A 
ENDROOT
BRANCH   4   7
ATOM      7  C   LIG d   1      16.916  -3.125  50.131  0.00  0.00     0.270 C 
ATOM      8  N   LIG d   1      17.331  -3.790  51.311  0.00  0.00    -0.290 N 
ATOM      9  C   LIG d   1      17.860  -5.070  51.395  0.00  0.00     0.094 A 
ATOM     10  C   LIG d   1      17.289  -3.291  52.610  0.00  0.00     0.094 A 
ATOM     11  C   LIG d   1      18.140  -5.358  52.711  0.00  0.00     0.020 A 
ATOM     12  C   LIG d   1      17.781  -4.240  53.473  0.00  0.00     0.020 A 
ATOM     13  O   LIG d   1      17.046  -3.731  49.054  0.00  0.00    -0.266 OA
ENDBRANCH   4   7
BRANCH   1  14
ATOM     14  O   LIG d   1      14.339  -2.486  51.249  0.00  0.00    -0.506 OA
ATOM     15  H   LIG d   1      14.770  -3.359  51.223  0.00  0.00     0.292 HD
ENDBRANCH   1  14
BRANCH   6  16
ATOM     16  O   LIG d   1      18.336  -0.911  48.949  0.00  0.00    -0.506 OA
ATOM     17  H   LIG d   1      18.637  -1.837  48.989  0.00  0.00     0.292 HD
ENDBRANCH   6  16
BRANCH   5  18
ATOM     18  O   LIG d   1      14.802   2.135  50.038  0.00  0.00    -0.506 OA
ATOM     19  H   LIG d   1      13.927   2.200  50.459  0.00  0.00     0.292 HD
ENDBRANCH   5  18
TORSDOF 4
