3EKO_PYU_A_901
 OpenBabel03301717153D

 25 26  0  0  0  0  0  0  0  0999 V2000
   17.3310   -3.7898   51.3113 N   0  3  0  0  0  0  0  0  0  0  0  0
   15.0909   -1.4898   50.6625 C   0  0  0  0  0  0  0  0  0  0  0  0
   16.5720    0.5948   49.4881 C   0  0  0  0  0  0  0  0  0  0  0  0
   14.5602   -0.1814   50.6431 C   0  0  0  0  0  0  0  0  0  0  0  0
   17.8597   -5.0702   51.3947 C   0  0  0  0  0  0  0  0  0  0  0  0
   17.2889   -3.2908   52.6096 C   0  0  0  0  0  0  0  0  0  0  0  0
   18.1397   -5.3576   52.7109 C   0  0  0  0  0  0  0  0  0  0  0  0
   17.7814   -4.2401   53.4732 C   0  0  0  0  0  0  0  0  0  0  0  0
   16.3564   -1.7585   50.1025 C   0  0  0  0  0  0  0  0  0  0  0  0
   15.3059    0.8533   50.0564 C   0  0  0  0  0  0  0  0  0  0  0  0
   17.0919   -0.7157   49.5107 C   0  0  0  0  0  0  0  0  0  0  0  0
   16.9157   -3.1251   50.1308 C   0  0  0  0  0  0  0  0  0  0  0  0
   17.0461   -3.7312   49.0539 O   0  0  0  0  0  0  0  0  0  0  0  0
   14.8024    2.1350   50.0378 O   0  0  0  0  0  0  0  0  0  0  0  0
   18.3361   -0.9114   48.9493 O   0  0  0  0  0  0  0  0  0  0  0  0
   18.6369   -1.8370   48.9890 H   0  0  0  0  0  0  0  0  0  0  0  0
   14.3388   -2.4859   51.2491 O   0  0  0  0  0  0  0  0  0  0  0  0
   17.1536    1.4021   49.0283 H   0  0  0  0  0  0  0  0  0  0  0  0
   13.5815    0.0335   51.0778 H   0  0  0  0  0  0  0  0  0  0  0  0
   18.0170   -5.7158   50.5373 H   0  0  0  0  0  0  0  0  0  0  0  0
   16.9229   -2.3064   52.8774 H   0  0  0  0  0  0  0  0  0  0  0  0
   18.5592   -6.2798   53.0769 H   0  0  0  0  0  0  0  0  0  0  0  0
   17.8728   -4.1344   54.5454 H   0  0  0  0  0  0  0  0  0  0  0  0
   13.9265    2.1995   50.4592 H   0  0  0  0  0  0  0  0  0  0  0  0
   14.7703   -3.3586   51.2227 H   0  0  0  0  0  0  0  0  0  0  0  0
  1  5  1  0  0  0  0
  1  6  1  0  0  0  0
  1 12  1  0  0  0  0
  2  4  2  0  0  0  0
  2  9  1  0  0  0  0
  2 17  1  0  0  0  0
  3 10  2  0  0  0  0
  3 11  1  0  0  0  0
  3 18  1  0  0  0  0
  4 10  1  0  0  0  0
  4 19  1  0  0  0  0
  5  7  2  0  0  0  0
  5 20  1  0  0  0  0
  6  8  2  0  0  0  0
  6 21  1  0  0  0  0
  7  8  1  0  0  0  0
  7 22  1  0  0  0  0
  8 23  1  0  0  0  0
  9 11  2  0  0  0  0
  9 12  1  0  0  0  0
 10 14  1  0  0  0  0
 11 15  1  0  0  0  0
 12 13  2  0  0  0  0
 14 24  1  0  0  0  0
 15 16  1  0  0  0  0
 17 25  1  0  0  0  0
M  CHG  1   1   1
M  END
$$$$
