@<TRIPOS>MOLECULE
4EGK_RDC_A_301
 42 44 0 0 0
SMALL
USER_CHARGES

@<TRIPOS>ATOM
      1 C          10.9073   -4.7255   12.3209 C.2     1  LIG1        0.3433
      2 C           9.6022   -5.2933   12.7383 C.ar    1  LIG1        0.1054
      3 C           8.5277   -4.3945   12.8314 C.ar    1  LIG1        0.1346
      4 C           7.2644   -4.8425   13.2140 C.ar    1  LIG1        0.0236
      5 C           7.0626   -6.1923   13.4696 C.ar    1  LIG1        0.1389
      6 C           8.1235   -7.1069   13.3665 C.ar    1  LIG1        0.0869
      7 C           9.4266   -6.6748   13.0334 C.ar    1  LIG1       -0.0006
      8 C          10.5625   -7.6706   12.9253 C.3     1  LIG1        0.0374
      9 C          10.7981   -8.5926   14.1149 C.2     1  LIG1        0.1604
     10 C          11.0485   -8.1133   15.4921 C.2     1  LIG1       -0.0189
     11 C          11.0290   -6.8369   15.8753 C.2     1  LIG1       -0.0587
     12 C          11.4104   -6.4171   17.1983 C.2     1  LIG1       -0.0631
     13 C          11.8414   -5.1686   17.4278 C.2     1  LIG1       -0.0532
     14 C          12.0096   -4.1074   16.4227 C.3     1  LIG1        0.1038
     15 C          13.2983   -4.0916   15.6130 C.3     1  LIG1        0.0925
     16 C          13.4599   -3.4864   14.2514 C.3     1  LIG1        0.0132
     17 C          13.1434   -4.4588   13.1152 C.3     1  LIG1        0.1031
     18 C          14.0745   -5.6647   13.1028 C.3     1  LIG1       -0.0276
     19 O          11.8072   -4.9600   13.2951 O.3     1  LIG1       -0.4580
     20 O          11.0526   -4.0331   11.3300 O.2     1  LIG1       -0.2448
     21 O           8.6440   -3.0525   12.5856 O.3     1  LIG1       -0.5058
     22 O           5.8079   -6.6015   13.8144 O.3     1  LIG1       -0.5052
     23 H           5.8332   -7.5618   13.9467 H       1  LIG1        0.2922
     24 CL          7.7471   -8.7772   13.6373 Cl      1  LIG1       -0.0794
     25 O          10.8970   -9.8182   13.9367 O.2     1  LIG1       -0.2923
     26 O          13.0094   -3.1012   16.6050 O.3     1  LIG1       -0.3638
     27 H           6.4319   -4.1439   13.2912 H       1  LIG1        0.0691
     28 H          11.5246   -7.2119   12.6955 H       1  LIG1        0.0394
     29 H          10.3434   -8.3122   12.0599 H       1  LIG1        0.0394
     30 H          11.3107   -8.8944   16.2013 H       1  LIG1        0.0652
     31 H          10.7852   -6.0527   15.1796 H       1  LIG1        0.0619
     32 H          11.3905   -7.1439   18.0072 H       1  LIG1        0.0615
     33 H          12.1571   -4.9109   18.4370 H       1  LIG1        0.0598
     34 H          11.0923   -3.8387   15.9054 H       1  LIG1        0.0667
     35 H          14.0319   -4.8591   15.8214 H       1  LIG1        0.0626
     36 H          12.8248   -2.5959   14.1585 H       1  LIG1        0.0327
     37 H          14.5003   -3.1474   14.1557 H       1  LIG1        0.0327
     38 H          13.2550   -3.9254   12.1626 H       1  LIG1        0.0732
     39 H          13.9677   -6.2618   14.0145 H       1  LIG1        0.0265
     40 H          15.1194   -5.3597   12.9992 H       1  LIG1        0.0265
     41 H          13.8162   -6.3305   12.2733 H       1  LIG1        0.0265
     42 H           9.5151   -2.8469   12.1940 H       1  LIG1        0.2922
@<TRIPOS>BOND
     1     1     2    1
     2     1    19    1
     3     1    20    2
     4     2     3   ar
     5     2     7   ar
     6     3     4   ar
     7     3    21    1
     8     4     5   ar
     9     4    27    1
    10     5     6   ar
    11     5    22    1
    12     6     7   ar
    13     6    24    1
    14     7     8    1
    15     8     9    1
    16     8    28    1
    17     8    29    1
    18     9    10    1
    19     9    25    2
    20    10    11    2
    21    10    30    1
    22    11    12    1
    23    11    31    1
    24    12    13    2
    25    12    32    1
    26    13    14    1
    27    13    33    1
    28    14    15    1
    29    14    26    1
    30    14    34    1
    31    15    16    1
    32    15    26    1
    33    15    35    1
    34    16    17    1
    35    16    36    1
    36    16    37    1
    37    17    18    1
    38    17    19    1
    39    17    38    1
    40    18    39    1
    41    18    40    1
    42    18    41    1
    43    21    42    1
    44    22    23    1
