REMARK  2 active torsions:
REMARK  status: ('A' for Active; 'I' for Inactive)
REMARK    1  A    between atoms: C_3  and  O_21 
REMARK    2  A    between atoms: C_5  and  O_22 
ROOT
ATOM      1  C   LIG d   1      10.907  -4.726  12.321  0.00  0.00     0.343 C 
ATOM      2  C   LIG d   1       9.602  -5.293  12.738  0.00  0.00     0.105 A 
ATOM      3  C   LIG d   1       8.528  -4.394  12.831  0.00  0.00     0.135 A 
ATOM      4  C   LIG d   1       7.264  -4.843  13.214  0.00  0.00     0.093 A 
ATOM      5  C   LIG d   1       7.063  -6.192  13.470  0.00  0.00     0.139 A 
ATOM      6  C   LIG d   1       8.123  -7.107  13.367  0.00  0.00     0.087 A 
ATOM      7  C   LIG d   1       9.427  -6.675  13.033  0.00  0.00    -0.001 A 
ATOM      8  C   LIG d   1      10.562  -7.671  12.925  0.00  0.00     0.116 C 
ATOM      9  C   LIG d   1      10.798  -8.593  14.115  0.00  0.00     0.160 C 
ATOM     10  C   LIG d   1      11.049  -8.113  15.492  0.00  0.00     0.046 C 
ATOM     11  C   LIG d   1      11.029  -6.837  15.875  0.00  0.00     0.003 C 
ATOM     12  C   LIG d   1      11.410  -6.417  17.198  0.00  0.00    -0.002 C 
ATOM     13  C   LIG d   1      11.841  -5.169  17.428  0.00  0.00     0.007 C 
ATOM     14  C   LIG d   1      12.010  -4.107  16.423  0.00  0.00     0.170 A 
ATOM     15  C   LIG d   1      13.298  -4.092  15.613  0.00  0.00     0.155 A 
ATOM     16  C   LIG d   1      13.460  -3.486  14.251  0.00  0.00     0.079 C 
ATOM     17  C   LIG d   1      13.143  -4.459  13.115  0.00  0.00     0.176 C 
ATOM     18  C   LIG d   1      14.075  -5.665  13.103  0.00  0.00     0.052 C 
ATOM     19  O   LIG d   1      11.807  -4.960  13.295  0.00  0.00    -0.458 OA
ATOM     20  O   LIG d   1      11.053  -4.033  11.330  0.00  0.00    -0.245 OA
ATOM     21 CL   LIG d   1       7.747  -8.777  13.637  0.00  0.00    -0.079 Cl
ATOM     22  O   LIG d   1      10.897  -9.818  13.937  0.00  0.00    -0.292 OA
ATOM     23  O   LIG d   1      13.009  -3.101  16.605  0.00  0.00    -0.364 OA
ENDROOT
BRANCH   3  24
ATOM     24  O   LIG d   1       8.644  -3.053  12.586  0.00  0.00    -0.506 OA
ATOM     25  H   LIG d   1       9.515  -2.847  12.194  0.00  0.00     0.292 HD
ENDBRANCH   3  24
BRANCH   5  26
ATOM     26  O   LIG d   1       5.808  -6.601  13.814  0.00  0.00    -0.505 OA
ATOM     27  H   LIG d   1       5.833  -7.562  13.947  0.00  0.00     0.292 HD
ENDBRANCH   5  26
TORSDOF 2
