4L8Z_RL1_A_301
 OpenBabel03301717303D

 47 51  0  0  0  0  0  0  0  0999 V2000
   -0.8390  -32.6383  -24.0829 C   0  0  0  0  0  0  0  0  0  0  0  0
   -0.6500  -32.1058  -25.3650 C   0  0  0  0  0  0  0  0  0  0  0  0
    0.6477  -31.9609  -25.8953 C   0  0  0  0  0  0  0  0  0  0  0  0
    1.7696  -32.3051  -25.1376 C   0  0  0  0  0  0  0  0  0  0  0  0
    1.5509  -32.7420  -23.8350 C   0  0  0  0  0  0  0  0  0  0  0  0
    0.2700  -32.9889  -23.3236 C   0  0  0  0  0  0  0  0  0  0  0  0
    0.1671  -33.6444  -21.9894 C   0  0  0  0  0  0  0  0  0  0  0  0
   -0.5685  -33.1313  -21.1513 O   0  0  0  0  0  0  0  0  0  0  0  0
    0.7579  -31.4307  -27.1504 O   0  0  0  0  0  0  0  0  0  0  0  0
   -2.1209  -32.7977  -23.6295 O   0  0  0  0  0  0  0  0  0  0  0  0
    3.1477  -32.3529  -25.6283 C   0  0  0  0  0  0  0  0  0  0  0  0
    4.1863  -31.5487  -25.1667 N   0  3  0  0  0  0  0  0  0  0  0  0
    5.3263  -32.0395  -25.7957 C   0  0  0  0  0  0  0  0  0  0  0  0
    4.9984  -33.0679  -26.5633 N   0  0  0  0  0  0  0  0  0  0  0  0
    3.6446  -33.2493  -26.4557 N   0  0  0  0  0  0  0  0  0  0  0  0
    4.2210  -30.4941  -24.2760 C   0  0  0  0  0  0  0  0  0  0  0  0
    5.3894  -29.8742  -24.0151 C   0  0  0  0  0  0  0  0  0  0  0  0
    6.5952  -30.3555  -24.6764 C   0  0  0  0  0  0  0  0  0  0  0  0
    6.5530  -31.4040  -25.5292 C   0  0  0  0  0  0  0  0  0  0  0  0
    5.5331  -28.4349  -22.8408 Br  0  0  0  0  0  0  0  0  0  0  0  0
    0.9192  -34.8084  -21.7754 N   0  0  0  0  0  0  0  0  0  0  0  0
    0.9079  -35.4003  -20.4476 C   0  0  0  0  0  0  0  0  0  0  0  0
    1.7565  -36.6245  -20.2684 C   0  0  0  0  0  0  0  0  0  0  0  0
    2.4628  -37.2253  -21.3081 C   0  0  0  0  0  0  0  0  0  0  0  0
    2.4298  -36.6969  -22.6863 C   0  0  0  0  0  0  0  0  0  0  0  0
    1.5485  -35.5035  -22.8851 C   0  0  0  0  0  0  0  0  0  0  0  0
    1.8310  -37.2051  -18.9960 C   0  0  0  0  0  0  0  0  0  0  0  0
    2.6034  -38.3550  -18.8033 C   0  0  0  0  0  0  0  0  0  0  0  0
    3.3055  -38.9255  -19.8357 C   0  0  0  0  0  0  0  0  0  0  0  0
    3.2563  -38.3623  -21.1081 C   0  0  0  0  0  0  0  0  0  0  0  0
   -1.5126  -31.8153  -25.9607 H   0  0  0  0  0  0  0  0  0  0  0  0
    2.4194  -32.9656  -23.2208 H   0  0  0  0  0  0  0  0  0  0  0  0
    1.6929  -31.4528  -27.4304 H   0  0  0  0  0  0  0  0  0  0  0  0
   -2.0925  -33.0934  -22.6951 H   0  0  0  0  0  0  0  0  0  0  0  0
    3.2805  -30.1835  -23.8184 H   0  0  0  0  0  0  0  0  0  0  0  0
    7.5453  -29.8497  -24.4739 H   0  0  0  0  0  0  0  0  0  0  0  0
    7.4599  -31.7665  -26.0164 H   0  0  0  0  0  0  0  0  0  0  0  0
   -0.1309  -35.6375  -20.1837 H   0  0  0  0  0  0  0  0  0  0  0  0
    1.2583  -34.6187  -19.7589 H   0  0  0  0  0  0  0  0  0  0  0  0
    2.1117  -37.4704  -23.3897 H   0  0  0  0  0  0  0  0  0  0  0  0
    3.4565  -36.4128  -22.9667 H   0  0  0  0  0  0  0  0  0  0  0  0
    2.2734  -34.8151  -23.2916 H   0  0  0  0  0  0  0  0  0  0  0  0
    0.7949  -35.6896  -23.6559 H   0  0  0  0  0  0  0  0  0  0  0  0
    1.2810  -36.7680  -18.1676 H   0  0  0  0  0  0  0  0  0  0  0  0
    2.6397  -38.7991  -17.8090 H   0  0  0  0  0  0  0  0  0  0  0  0
    3.9082  -39.8263  -19.6866 H   0  0  0  0  0  0  0  0  0  0  0  0
    3.8078  -38.7957  -21.9306 H   0  0  0  0  0  0  0  0  0  0  0  0
  1  2  2  0  0  0  0
  1  6  1  0  0  0  0
  1 10  1  0  0  0  0
  2  3  1  0  0  0  0
  2 31  1  0  0  0  0
  3  4  2  0  0  0  0
  3  9  1  0  0  0  0
  4  5  1  0  0  0  0
  4 11  1  0  0  0  0
  5  6  2  0  0  0  0
  5 32  1  0  0  0  0
  6  7  1  0  0  0  0
  7  8  2  0  0  0  0
  7 21  1  0  0  0  0
  9 33  1  0  0  0  0
 10 34  1  0  0  0  0
 11 12  1  0  0  0  0
 11 15  2  0  0  0  0
 12 13  2  0  0  0  0
 12 16  1  0  0  0  0
 13 14  1  0  0  0  0
 13 19  1  0  0  0  0
 14 15  1  0  0  0  0
 16 17  2  0  0  0  0
 16 35  1  0  0  0  0
 17 18  1  0  0  0  0
 17 20  1  0  0  0  0
 18 19  2  0  0  0  0
 18 36  1  0  0  0  0
 19 37  1  0  0  0  0
 21 22  1  0  0  0  0
 21 26  1  0  0  0  0
 22 23  1  0  0  0  0
 22 38  1  0  0  0  0
 22 39  1  0  0  0  0
 23 24  2  0  0  0  0
 23 27  1  0  0  0  0
 24 25  1  0  0  0  0
 24 30  1  0  0  0  0
 25 26  1  0  0  0  0
 25 40  1  0  0  0  0
 25 41  1  0  0  0  0
 26 42  1  0  0  0  0
 26 43  1  0  0  0  0
 27 28  2  0  0  0  0
 27 44  1  0  0  0  0
 28 29  1  0  0  0  0
 28 45  1  0  0  0  0
 29 30  2  0  0  0  0
 29 46  1  0  0  0  0
 30 47  1  0  0  0  0
M  CHG  1  12   1
M  END
$$$$
