@<TRIPOS>MOLECULE
4L8Z_RL1_A_301
 47 51 0 0 0
SMALL
USER_CHARGES

@<TRIPOS>ATOM
      1 C          -0.8390  -32.6383  -24.0829 C.ar    1  LIG1        0.1325
      2 C          -0.6500  -32.1058  -25.3650 C.ar    1  LIG1        0.0228
      3 C           0.6477  -31.9609  -25.8953 C.ar    1  LIG1        0.1310
      4 C           1.7696  -32.3051  -25.1376 C.ar    1  LIG1        0.0619
      5 C           1.5509  -32.7420  -23.8350 C.ar    1  LIG1       -0.0319
      6 C           0.2700  -32.9889  -23.3236 C.ar    1  LIG1        0.0791
      7 C           0.1671  -33.6444  -21.9894 C.2     1  LIG1        0.2505
      8 O          -0.5685  -33.1313  -21.1513 O.2     1  LIG1       -0.2698
      9 O           0.7579  -31.4307  -27.1504 O.3     1  LIG1       -0.5059
     10 O          -2.1209  -32.7977  -23.6295 O.3     1  LIG1       -0.5059
     11 C           3.1477  -32.3529  -25.6283 C.ar    1  LIG1        0.1721
     12 N           4.1863  -31.5487  -25.1667 N.ar    1  LIG1       -0.2813
     13 C           5.3263  -32.0395  -25.7957 C.ar    1  LIG1        0.1614
     14 N           4.9984  -33.0679  -26.5633 N.ar    1  LIG1       -0.1291
     15 N           3.6446  -33.2493  -26.4557 N.ar    1  LIG1       -0.1284
     16 C           4.2210  -30.4941  -24.2760 C.ar    1  LIG1        0.0272
     17 C           5.3894  -29.8742  -24.0151 C.ar    1  LIG1        0.0345
     18 C           6.5952  -30.3555  -24.6764 C.ar    1  LIG1       -0.0428
     19 C           6.5530  -31.4040  -25.5292 C.ar    1  LIG1       -0.0159
     20 BR          5.5331  -28.4349  -22.8408 Br      1  LIG1       -0.0488
     21 N           0.9192  -34.8084  -21.7754 N.am    1  LIG1       -0.2928
     22 C           0.9079  -35.4003  -20.4476 C.3     1  LIG1        0.0403
     23 C           1.7565  -36.6245  -20.2684 C.ar    1  LIG1       -0.0269
     24 C           2.4628  -37.2253  -21.3081 C.ar    1  LIG1       -0.0412
     25 C           2.4298  -36.6969  -22.6863 C.3     1  LIG1       -0.0115
     26 C           1.5485  -35.5035  -22.8851 C.3     1  LIG1        0.0193
     27 C           1.8310  -37.2051  -18.9960 C.ar    1  LIG1       -0.0568
     28 C           2.6034  -38.3550  -18.8033 C.ar    1  LIG1       -0.0614
     29 C           3.3055  -38.9255  -19.8357 C.ar    1  LIG1       -0.0615
     30 C           3.2563  -38.3623  -21.1081 C.ar    1  LIG1       -0.0582
     31 H          -1.5126  -31.8153  -25.9607 H       1  LIG1        0.0691
     32 H           2.4194  -32.9656  -23.2208 H       1  LIG1        0.0634
     33 H           1.6929  -31.4528  -27.4304 H       1  LIG1        0.2922
     34 H          -2.0925  -33.0934  -22.6951 H       1  LIG1        0.2922
     35 H           3.2805  -30.1835  -23.8184 H       1  LIG1        0.0825
     36 H           7.5453  -29.8497  -24.4739 H       1  LIG1        0.0630
     37 H           7.4599  -31.7665  -26.0164 H       1  LIG1        0.0655
     38 H          -0.1309  -35.6375  -20.1837 H       1  LIG1        0.0514
     39 H           1.2583  -34.6187  -19.7589 H       1  LIG1        0.0514
     40 H           2.1117  -37.4704  -23.3897 H       1  LIG1        0.0328
     41 H           3.4565  -36.4128  -22.9667 H       1  LIG1        0.0328
     42 H           2.2734  -34.8151  -23.2916 H       1  LIG1        0.0468
     43 H           0.7949  -35.6896  -23.6559 H       1  LIG1        0.0468
     44 H           1.2810  -36.7680  -18.1676 H       1  LIG1        0.0621
     45 H           2.6397  -38.7991  -17.8090 H       1  LIG1        0.0618
     46 H           3.9082  -39.8263  -19.6866 H       1  LIG1        0.0618
     47 H           3.8078  -38.7957  -21.9306 H       1  LIG1        0.0620
@<TRIPOS>BOND
     1     1     2   ar
     2     1     6   ar
     3     1    10    1
     4     2     3   ar
     5     2    31    1
     6     3     4   ar
     7     3     9    1
     8     4     5   ar
     9     4    11    1
    10     5     6   ar
    11     5    32    1
    12     6     7    1
    13     7     8    2
    14     7    21   am
    15     9    33    1
    16    10    34    1
    17    11    12   ar
    18    11    15   ar
    19    12    13   ar
    20    12    16   ar
    21    13    14   ar
    22    13    19   ar
    23    14    15   ar
    24    16    17   ar
    25    16    35    1
    26    17    18   ar
    27    17    20    1
    28    18    19   ar
    29    18    36    1
    30    19    37    1
    31    21    22    1
    32    21    26    1
    33    22    23    1
    34    22    38    1
    35    22    39    1
    36    23    24   ar
    37    23    27   ar
    38    24    25    1
    39    24    30   ar
    40    25    26    1
    41    25    40    1
    42    25    41    1
    43    26    42    1
    44    26    43    1
    45    27    28   ar
    46    27    44    1
    47    28    29   ar
    48    28    45    1
    49    29    30   ar
    50    29    46    1
    51    30    47    1
