REMARK  4 active torsions:
REMARK  status: ('A' for Active; 'I' for Inactive)
REMARK    1  A    between atoms: C_1  and  O_10 
REMARK    2  A    between atoms: C_3  and  O_9 
REMARK    3  A    between atoms: C_4  and  C_11 
REMARK    4  A    between atoms: C_6  and  C_7 
REMARK       I    between atoms: C_7  and  N_21 
ROOT
ATOM      1  C   LIG d   1      -0.839 -32.638 -24.083  0.00  0.00     0.133 A 
ATOM      2  C   LIG d   1      -0.650 -32.106 -25.365  0.00  0.00     0.092 A 
ATOM      3  C   LIG d   1       0.648 -31.961 -25.895  0.00  0.00     0.131 A 
ATOM      4  C   LIG d   1       1.770 -32.305 -25.138  0.00  0.00     0.062 A 
ATOM      5  C   LIG d   1       1.551 -32.742 -23.835  0.00  0.00     0.032 A 
ATOM      6  C   LIG d   1       0.270 -32.989 -23.324  0.00  0.00     0.079 A 
ENDROOT
BRANCH   6   7
ATOM      7  C   LIG d   1       0.167 -33.644 -21.989  0.00  0.00     0.251 C 
ATOM      8  O   LIG d   1      -0.569 -33.131 -21.151  0.00  0.00    -0.270 OA
ATOM      9  N   LIG d   1       0.919 -34.808 -21.775  0.00  0.00    -0.293 N 
ATOM     10  C   LIG d   1       0.908 -35.400 -20.448  0.00  0.00     0.143 C 
ATOM     11  C   LIG d   1       1.548 -35.504 -22.885  0.00  0.00     0.113 C 
ATOM     12  C   LIG d   1       1.756 -36.624 -20.268  0.00  0.00    -0.027 A 
ATOM     13  C   LIG d   1       2.463 -37.225 -21.308  0.00  0.00    -0.041 A 
ATOM     14  C   LIG d   1       1.831 -37.205 -18.996  0.00  0.00     0.005 A 
ATOM     15  C   LIG d   1       2.430 -36.697 -22.686  0.00  0.00     0.054 C 
ATOM     16  C   LIG d   1       3.256 -38.362 -21.108  0.00  0.00     0.004 A 
ATOM     17  C   LIG d   1       3.305 -38.925 -19.836  0.00  0.00     0.000 A 
ATOM     18  C   LIG d   1       2.603 -38.355 -18.803  0.00  0.00     0.000 A 
ENDBRANCH   6   7
BRANCH   1  19
ATOM     19  O   LIG d   1      -2.121 -32.798 -23.630  0.00  0.00    -0.506 OA
ATOM     20  H   LIG d   1      -2.092 -33.093 -22.695  0.00  0.00     0.292 HD
ENDBRANCH   1  19
BRANCH   4  21
ATOM     21  C   LIG d   1       3.148 -32.353 -25.628  0.00  0.00     0.172 A 
ATOM     22  N   LIG d   1       4.186 -31.549 -25.167  0.00  0.00    -0.281 N 
ATOM     23  C   LIG d   1       5.326 -32.039 -25.796  0.00  0.00     0.161 A 
ATOM     24  C   LIG d   1       4.221 -30.494 -24.276  0.00  0.00     0.110 A 
ATOM     25  N   LIG d   1       4.998 -33.068 -26.563  0.00  0.00    -0.129 NA
ATOM     26  C   LIG d   1       6.553 -31.404 -25.529  0.00  0.00     0.050 A 
ATOM     27  N   LIG d   1       3.645 -33.249 -26.456  0.00  0.00    -0.128 NA
ATOM     28  C   LIG d   1       6.595 -30.355 -24.676  0.00  0.00     0.020 A 
ATOM     29  C   LIG d   1       5.389 -29.874 -24.015  0.00  0.00     0.035 A 
ATOM     30 BR   LIG d   1       5.533 -28.435 -22.841  0.00  0.00    -0.049 Br
ENDBRANCH   4  21
BRANCH   3  31
ATOM     31  O   LIG d   1       0.758 -31.431 -27.150  0.00  0.00    -0.506 OA
ATOM     32  H   LIG d   1       1.693 -31.453 -27.430  0.00  0.00     0.292 HD
ENDBRANCH   3  31
TORSDOF 4
