@<TRIPOS>MOLECULE
4L90_RL3_A_301
 46 49 0 0 0
SMALL
USER_CHARGES

@<TRIPOS>ATOM
      1 C          -0.7486   11.5453   24.9611 C.ar    1  LIG1        0.0000
      2 C          -0.5627   12.1304   23.7064 C.ar    1  LIG1        0.0000
      3 C           0.7343   12.3077   23.2081 C.ar    1  LIG1        0.0000
      4 C           1.8491   11.9236   23.9482 C.ar    1  LIG1        0.0000
      5 C           1.6532   11.3736   25.2318 C.ar    1  LIG1        0.0000
      6 C           0.3545   11.1420   25.7124 C.ar    1  LIG1        0.0000
      7 C           0.1812   10.4570   27.0121 C.2     1  LIG1        0.0000
      8 O          -0.4723   11.0332   27.8772 O.2     1  LIG1        0.0000
      9 O           0.8212   12.8581   21.9512 O.3     1  LIG1        0.0000
     10 O          -2.0389   11.3556   25.3711 O.3     1  LIG1        0.0000
     11 C           3.2189   11.9311   23.4330 C.ar    1  LIG1        0.0000
     12 N           4.2430   12.7647   23.8339 N.ar    1  LIG1        0.0000
     13 C           5.3743   12.2891   23.1812 C.ar    1  LIG1        0.0000
     14 N           5.0509   11.2528   22.4423 N.ar    1  LIG1        0.0000
     15 N           3.6984   11.0380   22.5891 N.ar    1  LIG1        0.0000
     16 C           4.2695   13.8445   24.7138 C.ar    1  LIG1        0.0000
     17 C           5.4363   14.4824   24.9435 C.ar    1  LIG1        0.0000
     18 C           6.6379   14.0077   24.2619 C.ar    1  LIG1        0.0000
     19 C           6.6062   12.9557   23.4207 C.ar    1  LIG1        0.0000
     20 N           0.7477    9.1941   27.2051 N.am    1  LIG1        0.0000
     21 N           2.4720    6.9968   27.9901 N.4     1  LIG1        1.0000
     22 C           3.8952    6.6097   28.2963 C.3     1  LIG1        0.0000
     23 BR          5.5783   15.9230   26.1028 Br      1  LIG1        0.0000
     24 C           1.2372    8.3425   26.1237 C.3     1  LIG1        0.0000
     25 C           2.3000    7.3054   26.5091 C.3     1  LIG1        0.0000
     26 C           1.8838    7.9899   28.9908 C.3     1  LIG1        0.0000
     27 C           0.5387    8.5094   28.4811 C.3     1  LIG1        0.0000
     28 H          -1.4186   12.4354   23.1140 H       1  LIG1        0.0000
     29 H           2.5067   11.0614   25.8178 H       1  LIG1        0.0000
     30 H           1.7414   12.8227   21.6254 H       1  LIG1        0.0000
     31 H          -2.0511   11.1520   26.3264 H       1  LIG1        0.0000
     32 H           3.3356   14.1377   25.1786 H       1  LIG1        0.0000
     33 H           7.5735   14.5322   24.4414 H       1  LIG1        0.0000
     34 H           7.5019   12.6079   22.9135 H       1  LIG1        0.0000
     35 H           1.9190    6.1445   28.1456 H       1  LIG1        0.0000
     36 H           4.5667    7.4135   27.9664 H       1  LIG1        0.0000
     37 H           4.1025    5.6901   27.7356 H       1  LIG1        0.0000
     38 H           3.9929    6.4328   29.3623 H       1  LIG1        0.0000
     39 H           1.6665    8.9454   25.3224 H       1  LIG1        0.0000
     40 H           0.3667    7.8509   25.6784 H       1  LIG1        0.0000
     41 H           2.0556    6.3462   26.0391 H       1  LIG1        0.0000
     42 H           3.2753    7.6248   26.1197 H       1  LIG1        0.0000
     43 H           2.6042    8.8008   29.1343 H       1  LIG1        0.0000
     44 H           1.7559    7.4366   29.9282 H       1  LIG1        0.0000
     45 H          -0.1548    7.6745   28.3116 H       1  LIG1        0.0000
     46 H           0.0798    9.1650   29.2278 H       1  LIG1        0.0000
@<TRIPOS>BOND
     1     1     2   ar
     2     1     6   ar
     3     1    10    1
     4     2     3   ar
     5     2    28    1
     6     3     4   ar
     7     3     9    1
     8     4     5   ar
     9     4    11    1
    10     5     6   ar
    11     5    29    1
    12     6     7    1
    13     7     8    2
    14     7    20   am
    15     9    30    1
    16    10    31    1
    17    11    12   ar
    18    11    15   ar
    19    12    13   ar
    20    12    16   ar
    21    13    14   ar
    22    13    19   ar
    23    14    15   ar
    24    16    17   ar
    25    16    32    1
    26    17    18   ar
    27    17    23    1
    28    18    19   ar
    29    18    33    1
    30    19    34    1
    31    20    24    1
    32    20    27    1
    33    21    22    1
    34    21    25    1
    35    21    26    1
    36    21    35    1
    37    22    36    1
    38    22    37    1
    39    22    38    1
    40    24    25    1
    41    24    39    1
    42    24    40    1
    43    25    41    1
    44    25    42    1
    45    26    27    1
    46    26    43    1
    47    26    44    1
    48    27    45    1
    49    27    46    1
