REMARK  4 active torsions:
REMARK  status: ('A' for Active; 'I' for Inactive)
REMARK    1  A    between atoms: C_2  and  O_11 
REMARK    2  A    between atoms: C_3  and  C_12 
REMARK    3  A    between atoms: C_5  and  C_7 
REMARK    4  A    between atoms: C_6  and  O_10 
REMARK       I    between atoms: C_7  and  N_8 
ROOT
ATOM      1  C   LIG d   1       4.717 -11.498  -1.258  0.00  0.00     0.091 A 
ATOM      2  C   LIG d   1       3.458 -11.928  -1.697  0.00  0.00     0.124 A 
ATOM      3  C   LIG d   1       2.326 -11.751  -0.891  0.00  0.00    -0.002 A 
ATOM      4  C   LIG d   1       2.481 -11.120   0.361  0.00  0.00     0.024 A 
ATOM      5  C   LIG d   1       3.726 -10.667   0.788  0.00  0.00     0.079 A 
ATOM      6  C   LIG d   1       4.851 -10.879  -0.010  0.00  0.00     0.132 A 
ENDROOT
BRANCH   5   7
ATOM      7  C   LIG d   1       3.853 -10.044   2.099  0.00  0.00     0.250 C 
ATOM      8  N   LIG d   1       3.254  -8.812   2.386  0.00  0.00    -0.293 N 
ATOM      9  C   LIG d   1       3.540  -8.287   3.716  0.00  0.00     0.113 C 
ATOM     10  C   LIG d   1       2.714  -7.914   1.359  0.00  0.00     0.143 C 
ATOM     11  C   LIG d   1       2.844  -6.999   4.098  0.00  0.00     0.054 C 
ATOM     12  C   LIG d   1       2.961  -5.997   2.997  0.00  0.00    -0.041 A 
ATOM     13  C   LIG d   1       2.897  -6.442   1.658  0.00  0.00    -0.027 A 
ATOM     14  C   LIG d   1       3.109  -4.636   3.294  0.00  0.00     0.004 A 
ATOM     15  C   LIG d   1       2.961  -5.498   0.629  0.00  0.00     0.005 A 
ATOM     16  C   LIG d   1       3.110  -4.139   0.930  0.00  0.00     0.000 A 
ATOM     17  C   LIG d   1       3.188  -3.711   2.259  0.00  0.00     0.000 A 
ATOM     18  O   LIG d   1       4.582 -10.613   2.926  0.00  0.00    -0.270 OA
ENDBRANCH   5   7
BRANCH   6  19
ATOM     19  O   LIG d   1       6.102 -10.474   0.373  0.00  0.00    -0.506 OA
ATOM     20  H   LIG d   1       6.063 -10.131   1.287  0.00  0.00     0.292 HD
ENDBRANCH   6  19
BRANCH   3  21
ATOM     21  C   LIG d   1       0.968 -12.284  -1.301  0.00  0.00     0.017 C 
ATOM     22  C   LIG d   1       0.807 -13.711  -0.795  0.00  0.00     0.012 C 
ATOM     23  C   LIG d   1      -0.194 -11.429  -0.820  0.00  0.00     0.012 C 
ENDBRANCH   3  21
BRANCH   2  24
ATOM     24  O   LIG d   1       3.398 -12.516  -2.922  0.00  0.00    -0.506 OA
ATOM     25  H   LIG d   1       2.484 -12.767  -3.168  0.00  0.00     0.292 HD
ENDBRANCH   2  24
TORSDOF 4
