4L93_S36_A_301
 OpenBabel03301717313D

 44 46  0  0  0  0  0  0  0  0999 V2000
    4.7168  -11.4979   -1.2577 C   0  0  0  0  0  0  0  0  0  0  0  0
    3.4575  -11.9278   -1.6967 C   0  0  0  0  0  0  0  0  0  0  0  0
    2.3258  -11.7513   -0.8907 C   0  0  0  0  0  0  0  0  0  0  0  0
    2.4808  -11.1204    0.3614 C   0  0  0  0  0  0  0  0  0  0  0  0
    3.7260  -10.6666    0.7884 C   0  0  0  0  0  0  0  0  0  0  0  0
    4.8511  -10.8787   -0.0099 C   0  0  0  0  0  0  0  0  0  0  0  0
    3.8529  -10.0442    2.0993 C   0  0  0  0  0  0  0  0  0  0  0  0
    3.2538   -8.8117    2.3857 N   0  0  0  0  0  0  0  0  0  0  0  0
    4.5819  -10.6134    2.9258 O   0  0  0  0  0  0  0  0  0  0  0  0
    6.1022  -10.4743    0.3731 O   0  0  0  0  0  0  0  0  0  0  0  0
    3.3985  -12.5160   -2.9222 O   0  0  0  0  0  0  0  0  0  0  0  0
    0.9677  -12.2844   -1.3013 C   0  0  0  0  0  0  0  0  0  0  0  0
    0.8075  -13.7106   -0.7955 C   0  0  0  0  0  0  0  0  0  0  0  0
   -0.1940  -11.4290   -0.8200 C   0  0  0  0  0  0  0  0  0  0  0  0
    3.5402   -8.2866    3.7156 C   0  0  0  0  0  0  0  0  0  0  0  0
    2.8444   -6.9989    4.0982 C   0  0  0  0  0  0  0  0  0  0  0  0
    2.9608   -5.9967    2.9973 C   0  0  0  0  0  0  0  0  0  0  0  0
    2.8966   -6.4416    1.6579 C   0  0  0  0  0  0  0  0  0  0  0  0
    2.7143   -7.9140    1.3586 C   0  0  0  0  0  0  0  0  0  0  0  0
    3.1094   -4.6356    3.2941 C   0  0  0  0  0  0  0  0  0  0  0  0
    3.1880   -3.7106    2.2586 C   0  0  0  0  0  0  0  0  0  0  0  0
    3.1102   -4.1387    0.9304 C   0  0  0  0  0  0  0  0  0  0  0  0
    2.9609   -5.4983    0.6287 C   0  0  0  0  0  0  0  0  0  0  0  0
    5.5848  -11.6483   -1.8916 H   0  0  0  0  0  0  0  0  0  0  0  0
    1.6325  -10.9972    1.0303 H   0  0  0  0  0  0  0  0  0  0  0  0
    6.0633  -10.1313    1.2869 H   0  0  0  0  0  0  0  0  0  0  0  0
    2.4836  -12.7671   -3.1676 H   0  0  0  0  0  0  0  0  0  0  0  0
    0.8868  -12.2808   -2.3907 H   0  0  0  0  0  0  0  0  0  0  0  0
    0.8454  -13.7466    0.2996 H   0  0  0  0  0  0  0  0  0  0  0  0
    1.6061  -14.3477   -1.1875 H   0  0  0  0  0  0  0  0  0  0  0  0
   -0.1537  -14.1203   -1.1201 H   0  0  0  0  0  0  0  0  0  0  0  0
   -0.2555  -11.4020    0.2715 H   0  0  0  0  0  0  0  0  0  0  0  0
   -1.1369  -11.8409   -1.1896 H   0  0  0  0  0  0  0  0  0  0  0  0
   -0.0806  -10.4082   -1.1961 H   0  0  0  0  0  0  0  0  0  0  0  0
    4.6270   -8.1344    3.7734 H   0  0  0  0  0  0  0  0  0  0  0  0
    3.2652   -9.0607    4.4416 H   0  0  0  0  0  0  0  0  0  0  0  0
    3.3167   -6.6221    5.0137 H   0  0  0  0  0  0  0  0  0  0  0  0
    1.7871   -7.1893    4.3121 H   0  0  0  0  0  0  0  0  0  0  0  0
    1.6452   -8.1363    1.2665 H   0  0  0  0  0  0  0  0  0  0  0  0
    3.1934   -8.1529    0.4010 H   0  0  0  0  0  0  0  0  0  0  0  0
    3.1716   -4.3080    4.3308 H   0  0  0  0  0  0  0  0  0  0  0  0
    3.3065   -2.6545    2.4937 H   0  0  0  0  0  0  0  0  0  0  0  0
    3.1679   -3.4111    0.1242 H   0  0  0  0  0  0  0  0  0  0  0  0
    2.9031   -5.8098   -0.4149 H   0  0  0  0  0  0  0  0  0  0  0  0
  1  2  2  0  0  0  0
  1  6  1  0  0  0  0
  1 24  1  0  0  0  0
  2  3  1  0  0  0  0
  2 11  1  0  0  0  0
  3  4  2  0  0  0  0
  3 12  1  0  0  0  0
  4  5  1  0  0  0  0
  4 25  1  0  0  0  0
  5  6  2  0  0  0  0
  5  7  1  0  0  0  0
  6 10  1  0  0  0  0
  7  8  1  0  0  0  0
  7  9  2  0  0  0  0
  8 15  1  0  0  0  0
  8 19  1  0  0  0  0
 10 26  1  0  0  0  0
 11 27  1  0  0  0  0
 12 13  1  0  0  0  0
 12 14  1  0  0  0  0
 12 28  1  0  0  0  0
 13 29  1  0  0  0  0
 13 30  1  0  0  0  0
 13 31  1  0  0  0  0
 14 32  1  0  0  0  0
 14 33  1  0  0  0  0
 14 34  1  0  0  0  0
 15 16  1  0  0  0  0
 15 35  1  0  0  0  0
 15 36  1  0  0  0  0
 16 17  1  0  0  0  0
 16 37  1  0  0  0  0
 16 38  1  0  0  0  0
 17 18  2  0  0  0  0
 17 20  1  0  0  0  0
 18 19  1  0  0  0  0
 18 23  1  0  0  0  0
 19 39  1  0  0  0  0
 19 40  1  0  0  0  0
 20 21  2  0  0  0  0
 20 41  1  0  0  0  0
 21 22  1  0  0  0  0
 21 42  1  0  0  0  0
 22 23  2  0  0  0  0
 22 43  1  0  0  0  0
 23 44  1  0  0  0  0
M  END
$$$$
