@<TRIPOS>MOLECULE
4L93_S36_A_301
 44 46 0 0 0
SMALL
USER_CHARGES

@<TRIPOS>ATOM
      1 C           4.7168  -11.4979   -1.2577 C.ar    1  LIG1        0.0223
      2 C           3.4575  -11.9278   -1.6967 C.ar    1  LIG1        0.1238
      3 C           2.3258  -11.7513   -0.8907 C.ar    1  LIG1       -0.0024
      4 C           2.4808  -11.1204    0.3614 C.ar    1  LIG1       -0.0392
      5 C           3.7260  -10.6666    0.7884 C.ar    1  LIG1        0.0787
      6 C           4.8511  -10.8787   -0.0099 C.ar    1  LIG1        0.1324
      7 C           3.8529  -10.0442    2.0993 C.2     1  LIG1        0.2504
      8 N           3.2538   -8.8117    2.3857 N.am    1  LIG1       -0.2928
      9 O           4.5819  -10.6134    2.9258 O.2     1  LIG1       -0.2698
     10 O           6.1022  -10.4743    0.3731 O.3     1  LIG1       -0.5059
     11 O           3.3985  -12.5160   -2.9222 O.3     1  LIG1       -0.5064
     12 C           0.9677  -12.2844   -1.3013 C.3     1  LIG1       -0.0180
     13 C           0.8075  -13.7106   -0.7955 C.3     1  LIG1       -0.0585
     14 C          -0.1940  -11.4290   -0.8200 C.3     1  LIG1       -0.0585
     15 C           3.5402   -8.2866    3.7156 C.3     1  LIG1        0.0193
     16 C           2.8444   -6.9989    4.0982 C.3     1  LIG1       -0.0115
     17 C           2.9608   -5.9967    2.9973 C.ar    1  LIG1       -0.0412
     18 C           2.8966   -6.4416    1.6579 C.ar    1  LIG1       -0.0269
     19 C           2.7143   -7.9140    1.3586 C.3     1  LIG1        0.0403
     20 C           3.1094   -4.6356    3.2941 C.ar    1  LIG1       -0.0582
     21 C           3.1880   -3.7106    2.2586 C.ar    1  LIG1       -0.0615
     22 C           3.1102   -4.1387    0.9304 C.ar    1  LIG1       -0.0614
     23 C           2.9609   -5.4983    0.6287 C.ar    1  LIG1       -0.0568
     24 H           5.5848  -11.6483   -1.8916 H       1  LIG1        0.0691
     25 H           1.6325  -10.9972    1.0303 H       1  LIG1        0.0630
     26 H           6.0633  -10.1313    1.2869 H       1  LIG1        0.2922
     27 H           2.4836  -12.7671   -3.1676 H       1  LIG1        0.2921
     28 H           0.8868  -12.2808   -2.3907 H       1  LIG1        0.0345
     29 H           0.8454  -13.7466    0.2996 H       1  LIG1        0.0235
     30 H           1.6061  -14.3477   -1.1875 H       1  LIG1        0.0235
     31 H          -0.1537  -14.1203   -1.1201 H       1  LIG1        0.0235
     32 H          -0.2555  -11.4020    0.2715 H       1  LIG1        0.0235
     33 H          -1.1369  -11.8409   -1.1896 H       1  LIG1        0.0235
     34 H          -0.0806  -10.4082   -1.1961 H       1  LIG1        0.0235
     35 H           4.6270   -8.1344    3.7734 H       1  LIG1        0.0468
     36 H           3.2652   -9.0607    4.4416 H       1  LIG1        0.0468
     37 H           3.3167   -6.6221    5.0137 H       1  LIG1        0.0328
     38 H           1.7871   -7.1893    4.3121 H       1  LIG1        0.0328
     39 H           1.6452   -8.1363    1.2665 H       1  LIG1        0.0514
     40 H           3.1934   -8.1529    0.4010 H       1  LIG1        0.0514
     41 H           3.1716   -4.3080    4.3308 H       1  LIG1        0.0620
     42 H           3.3065   -2.6545    2.4937 H       1  LIG1        0.0618
     43 H           3.1679   -3.4111    0.1242 H       1  LIG1        0.0618
     44 H           2.9031   -5.8098   -0.4149 H       1  LIG1        0.0621
@<TRIPOS>BOND
     1     1     2   ar
     2     1     6   ar
     3     1    24    1
     4     2     3   ar
     5     2    11    1
     6     3     4   ar
     7     3    12    1
     8     4     5   ar
     9     4    25    1
    10     5     6   ar
    11     5     7    1
    12     6    10    1
    13     7     8   am
    14     7     9    2
    15     8    15    1
    16     8    19    1
    17    10    26    1
    18    11    27    1
    19    12    13    1
    20    12    14    1
    21    12    28    1
    22    13    29    1
    23    13    30    1
    24    13    31    1
    25    14    32    1
    26    14    33    1
    27    14    34    1
    28    15    16    1
    29    15    35    1
    30    15    36    1
    31    16    17    1
    32    16    37    1
    33    16    38    1
    34    17    18   ar
    35    17    20   ar
    36    18    19    1
    37    18    23   ar
    38    19    39    1
    39    19    40    1
    40    20    21   ar
    41    20    41    1
    42    21    22   ar
    43    21    42    1
    44    22    23   ar
    45    22    43    1
    46    23    44    1
