REMARK  2 active torsions:
REMARK  status: ('A' for Active; 'I' for Inactive)
REMARK       I    between atoms: N_6  and  C_8 
REMARK    1  A    between atoms: C_8  and  C_10 
REMARK    2  A    between atoms: C_14  and  O_16 
ROOT
ATOM      1  C   LIG d   1      -1.276   8.163  27.760  0.00  0.00     0.000 C 
ATOM      2  C   LIG d   1      -1.014   6.655  27.757  0.00  0.00     0.000 C 
ATOM      3  N   LIG d   1      -1.266   6.075  26.383  0.00  0.00     1.000 N 
ATOM      4  C   LIG d   1      -0.366   6.683  25.336  0.00  0.00     0.000 C 
ATOM      5  C   LIG d   1      -0.311   8.207  25.433  0.00  0.00     0.000 C 
ATOM      6  N   LIG d   1      -1.217   8.785  26.430  0.00  0.00     0.000 N 
ATOM      7  C   LIG d   1      -1.132   4.590  26.387  0.00  0.00     0.000 C 
ATOM      8  C   LIG d   1      -1.866  10.013  26.278  0.00  0.00     0.000 C 
ATOM      9  O   LIG d   1      -2.591  10.486  27.147  0.00  0.00     0.000 OA
ATOM     10  H   LIG d   1      -2.233   6.336  26.132  0.00  0.00     0.000 HD
ENDROOT
BRANCH   8  11
ATOM     11  C   LIG d   1      -1.723  10.743  25.001  0.00  0.00     0.000 A 
ATOM     12  C   LIG d   1      -0.459  11.175  24.567  0.00  0.00     0.000 A 
ATOM     13  C   LIG d   1      -0.331  11.812  23.335  0.00  0.00     0.000 A 
ATOM     14  C   LIG d   1      -1.469  12.034  22.561  0.00  0.00     0.000 A 
ATOM     15  C   LIG d   1      -2.724  11.633  23.003  0.00  0.00     0.000 A 
ATOM     16  C   LIG d   1      -2.859  10.992  24.229  0.00  0.00     0.000 A 
BRANCH  14  17
ATOM     17  O   LIG d   1      -1.383  12.646  21.349  0.00  0.00     0.000 OA
ATOM     18  H   LIG d   1      -0.463  12.920  21.188  0.00  0.00     0.000 HD
ENDBRANCH  14  17
ENDBRANCH   8  11
TORSDOF 2
