@<TRIPOS>MOLECULE
4L94_S46_A_301
 33 34 0 0 0
SMALL
USER_CHARGES

@<TRIPOS>ATOM
      1 C          -1.2761    8.1631   27.7597 C.3     1  LIG1        0.0000
      2 C          -1.0136    6.6551   27.7573 C.3     1  LIG1        0.0000
      3 N          -1.2663    6.0753   26.3834 N.4     1  LIG1        1.0000
      4 C          -0.3658    6.6825   25.3356 C.3     1  LIG1        0.0000
      5 C          -0.3106    8.2073   25.4335 C.3     1  LIG1        0.0000
      6 N          -1.2168    8.7854   26.4295 N.am    1  LIG1        0.0000
      7 C          -1.1319    4.5902   26.3866 C.3     1  LIG1        0.0000
      8 C          -1.8659   10.0127   26.2779 C.2     1  LIG1        0.0000
      9 O          -2.5911   10.4863   27.1472 O.2     1  LIG1        0.0000
     10 C          -1.7227   10.7433   25.0007 C.ar    1  LIG1        0.0000
     11 C          -0.4589   11.1754   24.5672 C.ar    1  LIG1        0.0000
     12 C          -2.8592   10.9923   24.2287 C.ar    1  LIG1        0.0000
     13 C          -2.7245   11.6334   23.0030 C.ar    1  LIG1        0.0000
     14 C          -1.4690   12.0338   22.5612 C.ar    1  LIG1        0.0000
     15 C          -0.3312   11.8125   23.3354 C.ar    1  LIG1        0.0000
     16 O          -1.3827   12.6458   21.3487 O.3     1  LIG1        0.0000
     17 H          -0.5481    8.6590   28.4123 H       1  LIG1        0.0000
     18 H          -2.2658    8.3471   28.1945 H       1  LIG1        0.0000
     19 H          -1.6792    6.1434   28.4626 H       1  LIG1        0.0000
     20 H           0.0262    6.4259   28.0141 H       1  LIG1        0.0000
     21 H          -2.2327    6.3356   26.1319 H       1  LIG1        0.0000
     22 H          -0.7639    6.3735   24.3619 H       1  LIG1        0.0000
     23 H           0.6359    6.2553   25.4579 H       1  LIG1        0.0000
     24 H          -0.5291    8.5977   24.4371 H       1  LIG1        0.0000
     25 H           0.7068    8.5226   25.6908 H       1  LIG1        0.0000
     26 H          -0.1016    4.3543   26.6694 H       1  LIG1        0.0000
     27 H          -1.3516    4.2303   25.3796 H       1  LIG1        0.0000
     28 H          -1.8399    4.1867   27.1110 H       1  LIG1        0.0000
     29 H           0.4220   11.0076   25.1779 H       1  LIG1        0.0000
     30 H          -3.8487   10.6912   24.5844 H       1  LIG1        0.0000
     31 H          -3.6058   11.8399   22.3873 H       1  LIG1        0.0000
     32 H           0.6509   12.1352   22.9982 H       1  LIG1        0.0000
     33 H          -0.4634   12.9197   21.1882 H       1  LIG1        0.0000
@<TRIPOS>BOND
     1     1     2    1
     2     1     6    1
     3     1    17    1
     4     1    18    1
     5     2     3    1
     6     2    19    1
     7     2    20    1
     8     3     4    1
     9     3     7    1
    10     3    21    1
    11     4     5    1
    12     4    22    1
    13     4    23    1
    14     5     6    1
    15     5    24    1
    16     5    25    1
    17     6     8   am
    18     7    26    1
    19     7    27    1
    20     7    28    1
    21     8     9    2
    22     8    10    1
    23    10    11   ar
    24    10    12   ar
    25    11    15   ar
    26    11    29    1
    27    12    13   ar
    28    12    30    1
    29    13    14   ar
    30    13    31    1
    31    14    15   ar
    32    14    16    1
    33    15    32    1
    34    16    33    1
