@<TRIPOS>MOLECULE
3MNR_SD1_P_233
 66 69 0 0 0
SMALL
USER_CHARGES

@<TRIPOS>ATOM
      1 C           4.4208  -13.6713  -24.7436 C.3     1  LIG1       -0.0057
      2 C           4.8289  -12.3238  -24.2280 C.ar    1  LIG1        0.0350
      3 C           6.1329  -11.9131  -24.0222 C.ar    1  LIG1        0.0387
      4 C           7.2601  -12.8006  -24.2497 C.2     1  LIG1        0.1654
      5 C           6.9014  -14.2437  -24.5915 C.3     1  LIG1        0.0160
      6 C           5.6201  -14.3523  -25.4553 C.3     1  LIG1       -0.0225
      7 C           5.2829  -15.8309  -25.6831 C.3     1  LIG1       -0.0591
      8 C           5.8572  -13.7097  -26.8336 C.3     1  LIG1       -0.0591
      9 O           8.4222  -12.4283  -24.1391 O.2     1  LIG1       -0.2920
     10 C           6.0907  -10.5591  -23.6444 C.ar    1  LIG1       -0.0301
     11 C           4.7727  -10.1550  -23.6569 C.ar    1  LIG1        0.0216
     12 N           3.9895  -11.2536  -23.9914 N.ar    1  LIG1       -0.3167
     13 C           4.2804   -8.7974  -23.3022 C.3     1  LIG1       -0.0239
     14 C           2.6007  -11.2763  -24.2130 C.ar    1  LIG1        0.0484
     15 C           1.7852  -12.1859  -23.5437 C.ar    1  LIG1       -0.0370
     16 C           0.4180  -12.2262  -23.8429 C.ar    1  LIG1       -0.0459
     17 C          -0.1121  -11.4035  -24.8475 C.ar    1  LIG1        0.0577
     18 C           0.7465  -10.5129  -25.5669 C.ar    1  LIG1        0.0455
     19 C           2.0934  -10.4515  -25.2105 C.ar    1  LIG1       -0.0159
     20 C          -1.5715  -11.4616  -25.1794 C.2     1  LIG1        0.2433
     21 O          -1.9984  -11.1179  -26.2761 O.2     1  LIG1       -0.2704
     22 N          -2.4316  -11.9169  -24.2132 N.am    1  LIG1       -0.3253
     23 N           0.2667   -9.6696  -26.5802 N.pl3   1  LIG1       -0.3137
     24 C           0.6995   -8.3788  -26.9294 C.ar    1  LIG1        0.0385
     25 C           1.1039   -7.4454  -25.9558 C.ar    1  LIG1        0.0051
     26 C           1.5515   -6.1758  -26.3245 C.ar    1  LIG1        0.1669
     27 C           1.6270   -5.8558  -27.7036 C.ar    1  LIG1        0.2036
     28 C           1.2473   -6.7957  -28.6945 C.ar    1  LIG1        0.1669
     29 C           0.7893   -8.0509  -28.2897 C.ar    1  LIG1        0.0051
     30 O           1.3240   -6.4031  -30.0116 O.3     1  LIG1       -0.4913
     31 C           1.2797   -7.4140  -31.0207 C.3     1  LIG1        0.0790
     32 O           1.9601   -4.5765  -28.1026 O.3     1  LIG1       -0.4885
     33 C           3.3728   -4.3777  -28.1636 C.3     1  LIG1        0.0791
     34 O           1.8815   -5.1849  -25.4234 O.3     1  LIG1       -0.4913
     35 C           2.0052   -5.5139  -24.0388 C.3     1  LIG1        0.0790
     36 H           3.5775  -13.6098  -25.4426 H       1  LIG1        0.0333
     37 H           4.0990  -14.2838  -23.8925 H       1  LIG1        0.0333
     38 H           6.7656  -14.7801  -23.6440 H       1  LIG1        0.0350
     39 H           7.7501  -14.6922  -25.1173 H       1  LIG1        0.0350
     40 H           5.1075  -16.3476  -24.7340 H       1  LIG1        0.0235
     41 H           6.1004  -16.3421  -26.2030 H       1  LIG1        0.0235
     42 H           4.3795  -15.9302  -26.2952 H       1  LIG1        0.0235
     43 H           6.1093  -12.6483  -26.7551 H       1  LIG1        0.0235
     44 H           4.9599  -13.7900  -27.4562 H       1  LIG1        0.0235
     45 H           6.6801  -14.2082  -27.3570 H       1  LIG1        0.0235
     46 H           6.9259   -9.9107  -23.4024 H       1  LIG1        0.0642
     47 H           5.1430   -8.1600  -23.0678 H       1  LIG1        0.0292
     48 H           3.6467   -8.8196  -22.4118 H       1  LIG1        0.0292
     49 H           3.7501   -8.3213  -24.1284 H       1  LIG1        0.0292
     50 H           2.1919  -12.8472  -22.7815 H       1  LIG1        0.0638
     51 H          -0.2014  -12.9365  -23.3093 H       1  LIG1        0.0626
     52 H           2.7665   -9.8233  -25.7872 H       1  LIG1        0.0657
     53 H          -3.4188  -11.8991  -24.4298 H       1  LIG1        0.1453
     54 H          -2.1678  -12.1325  -23.2621 H       1  LIG1        0.1453
     55 H          -0.5531  -10.0287  -27.0781 H       1  LIG1        0.1522
     56 H           1.0094   -7.7204  -24.9087 H       1  LIG1        0.0674
     57 H           0.4980   -8.8079  -29.0116 H       1  LIG1        0.0674
     58 H           1.3679   -6.9227  -31.9968 H       1  LIG1        0.0660
     59 H           0.3301   -7.9608  -31.0280 H       1  LIG1        0.0660
     60 H           2.1253   -8.1039  -30.9247 H       1  LIG1        0.0660
     61 H           3.5549   -3.3512  -28.5056 H       1  LIG1        0.0660
     62 H           3.8473   -5.0506  -28.8862 H       1  LIG1        0.0660
     63 H           3.8414   -4.4803  -27.1798 H       1  LIG1        0.0660
     64 H           2.2869   -4.6010  -23.4997 H       1  LIG1        0.0660
     65 H           2.8062   -6.2393  -23.8715 H       1  LIG1        0.0660
     66 H           1.0644   -5.8653  -23.6005 H       1  LIG1        0.0660
@<TRIPOS>BOND
     1     1     2    1
     2     1     6    1
     3     1    36    1
     4     1    37    1
     5     2     3   ar
     6     2    12   ar
     7     3     4    1
     8     3    10   ar
     9     4     5    1
    10     4     9    2
    11     5     6    1
    12     5    38    1
    13     5    39    1
    14     6     7    1
    15     6     8    1
    16     7    40    1
    17     7    41    1
    18     7    42    1
    19     8    43    1
    20     8    44    1
    21     8    45    1
    22    10    11   ar
    23    10    46    1
    24    11    12   ar
    25    11    13    1
    26    12    14    1
    27    13    47    1
    28    13    48    1
    29    13    49    1
    30    14    15   ar
    31    14    19   ar
    32    15    16   ar
    33    15    50    1
    34    16    17   ar
    35    16    51    1
    36    17    18   ar
    37    17    20    1
    38    18    19   ar
    39    18    23    1
    40    19    52    1
    41    20    21    2
    42    20    22   am
    43    22    53    1
    44    22    54    1
    45    23    24    1
    46    23    55    1
    47    24    25   ar
    48    24    29   ar
    49    25    26   ar
    50    25    56    1
    51    26    27   ar
    52    26    34    1
    53    27    28   ar
    54    27    32    1
    55    28    29   ar
    56    28    30    1
    57    29    57    1
    58    30    31    1
    59    31    58    1
    60    31    59    1
    61    31    60    1
    62    32    33    1
    63    33    61    1
    64    33    62    1
    65    33    63    1
    66    34    35    1
    67    35    64    1
    68    35    65    1
    69    35    66    1
