REMARK  7 active torsions:
REMARK  status: ('A' for Active; 'I' for Inactive)
REMARK    1  A    between atoms: N_12  and  C_14 
REMARK    2  A    between atoms: C_17  and  C_20 
REMARK    3  A    between atoms: C_18  and  N_23 
REMARK       I    between atoms: C_20  and  N_22 
REMARK    4  A    between atoms: N_23  and  C_24 
REMARK    5  A    between atoms: C_26  and  O_34 
REMARK    6  A    between atoms: C_27  and  O_32 
REMARK    7  A    between atoms: C_28  and  O_30 
ROOT
ATOM      1  C   LIG d   1       2.601 -11.276 -24.213  0.00  0.00     0.048 A 
ATOM      2  C   LIG d   1       1.785 -12.186 -23.544  0.00  0.00     0.027 A 
ATOM      3  C   LIG d   1       0.418 -12.226 -23.843  0.00  0.00     0.017 A 
ATOM      4  C   LIG d   1      -0.112 -11.403 -24.848  0.00  0.00     0.058 A 
ATOM      5  C   LIG d   1       0.747 -10.513 -25.567  0.00  0.00     0.045 A 
ATOM      6  C   LIG d   1       2.093 -10.451 -25.210  0.00  0.00     0.050 A 
ENDROOT
BRANCH   5   7
ATOM      7  N   LIG d   1       0.267  -9.670 -26.580  0.00  0.00    -0.314 N 
ATOM      8  H   LIG d   1      -0.553 -10.029 -27.078  0.00  0.00     0.152 HD
BRANCH   7   9
ATOM      9  C   LIG d   1       0.700  -8.379 -26.929  0.00  0.00     0.038 A 
ATOM     10  C   LIG d   1       1.104  -7.445 -25.956  0.00  0.00     0.073 A 
ATOM     11  C   LIG d   1       1.552  -6.176 -26.325  0.00  0.00     0.167 A 
ATOM     12  C   LIG d   1       1.627  -5.856 -27.704  0.00  0.00     0.204 A 
ATOM     13  C   LIG d   1       1.247  -6.796 -28.695  0.00  0.00     0.167 A 
ATOM     14  C   LIG d   1       0.789  -8.051 -28.290  0.00  0.00     0.073 A 
BRANCH  11  15
ATOM     15  O   LIG d   1       1.881  -5.185 -25.423  0.00  0.00    -0.491 OA
ATOM     16  C   LIG d   1       2.005  -5.514 -24.039  0.00  0.00     0.277 C 
ENDBRANCH  11  15
BRANCH  12  17
ATOM     17  O   LIG d   1       1.960  -4.577 -28.103  0.00  0.00    -0.488 OA
ATOM     18  C   LIG d   1       3.373  -4.378 -28.164  0.00  0.00     0.277 C 
ENDBRANCH  12  17
BRANCH  13  19
ATOM     19  O   LIG d   1       1.324  -6.403 -30.012  0.00  0.00    -0.491 OA
ATOM     20  C   LIG d   1       1.280  -7.414 -31.021  0.00  0.00     0.277 C 
ENDBRANCH  13  19
ENDBRANCH   7   9
ENDBRANCH   5   7
BRANCH   4  21
ATOM     21  C   LIG d   1      -1.571 -11.462 -25.179  0.00  0.00     0.243 C 
ATOM     22  O   LIG d   1      -1.998 -11.118 -26.276  0.00  0.00    -0.270 OA
ATOM     23  N   LIG d   1      -2.432 -11.917 -24.213  0.00  0.00    -0.325 N 
ATOM     24  H   LIG d   1      -3.419 -11.899 -24.430  0.00  0.00     0.145 HD
ATOM     25  H   LIG d   1      -2.168 -12.133 -23.262  0.00  0.00     0.145 HD
ENDBRANCH   4  21
BRANCH   1  26
ATOM     26  N   LIG d   1       3.990 -11.254 -23.991  0.00  0.00    -0.317 N 
ATOM     27  C   LIG d   1       4.829 -12.324 -24.228  0.00  0.00     0.035 A 
ATOM     28  C   LIG d   1       4.421 -13.671 -24.744  0.00  0.00     0.061 C 
ATOM     29  C   LIG d   1       6.133 -11.913 -24.022  0.00  0.00     0.039 A 
ATOM     30  C   LIG d   1       5.620 -14.352 -25.455  0.00  0.00    -0.022 C 
ATOM     31  C   LIG d   1       6.901 -14.244 -24.591  0.00  0.00     0.086 C 
ATOM     32  C   LIG d   1       5.283 -15.831 -25.683  0.00  0.00     0.011 C 
ATOM     33  C   LIG d   1       5.857 -13.710 -26.834  0.00  0.00     0.011 C 
ATOM     34  C   LIG d   1       7.260 -12.801 -24.250  0.00  0.00     0.165 C 
ATOM     35  O   LIG d   1       8.422 -12.428 -24.139  0.00  0.00    -0.292 OA
ATOM     36  C   LIG d   1       6.091 -10.559 -23.644  0.00  0.00     0.034 A 
ATOM     37  C   LIG d   1       4.773 -10.155 -23.657  0.00  0.00     0.022 A 
ATOM     38  C   LIG d   1       4.280  -8.797 -23.302  0.00  0.00     0.064 C 
ENDBRANCH   1  26
TORSDOF 7
