@<TRIPOS>MOLECULE
3D0B_SNX_A_233
 51 54 0 0 0
SMALL
USER_CHARGES

@<TRIPOS>ATOM
      1 O          -1.9394  -10.7491  -25.7378 O.2     1  LIG1       -0.2704
      2 C          -1.5068  -11.3362  -24.7404 C.2     1  LIG1        0.2433
      3 N          -2.3862  -11.8455  -23.8294 N.am    1  LIG1       -0.3253
      4 C          -0.0413  -11.5200  -24.5058 C.ar    1  LIG1        0.0574
      5 C           0.3921  -12.5824  -23.6927 C.ar    1  LIG1       -0.0459
      6 C           1.7495  -12.8236  -23.5143 C.ar    1  LIG1       -0.0370
      7 C           0.9039  -10.6799  -25.1563 C.ar    1  LIG1        0.0414
      8 N           0.5324   -9.6473  -26.0000 N.pl3   1  LIG1       -0.3410
      9 C           1.4823   -8.7842  -26.6843 C.3     1  LIG1        0.0326
     10 C           0.7962   -7.7437  -27.5683 C.3     1  LIG1        0.0627
     11 O          -0.1920   -7.0452  -26.8081 O.3     1  LIG1       -0.3814
     12 C          -0.1238   -5.6393  -26.9719 C.3     1  LIG1        0.0365
     13 C           2.2626  -10.9356  -24.9451 C.ar    1  LIG1       -0.0162
     14 C           2.6702  -11.9856  -24.1367 C.ar    1  LIG1        0.0487
     15 N           4.0449  -12.2670  -24.0809 N.ar    1  LIG1       -0.3122
     16 C           5.0442  -11.4075  -23.6239 C.ar    1  LIG1        0.0547
     17 C           4.9811  -10.1479  -23.0006 C.ar    1  LIG1       -0.0372
     18 C           6.1854   -9.5529  -22.5984 C.ar    1  LIG1       -0.0598
     19 C           7.4087  -10.1838  -22.8067 C.ar    1  LIG1       -0.0611
     20 C           7.4657  -11.4342  -23.4274 C.ar    1  LIG1       -0.0519
     21 C           4.6136  -13.4070  -24.6103 C.ar    1  LIG1        0.0354
     22 C           3.8699  -14.5341  -25.2651 C.3     1  LIG1       -0.0109
     23 C           4.8520  -15.4597  -25.9987 C.3     1  LIG1       -0.0407
     24 C           6.1906  -15.6600  -25.2842 C.3     1  LIG1        0.0109
     25 C           6.8733  -14.3372  -24.9628 C.2     1  LIG1        0.1655
     26 O           8.0869  -14.2012  -25.0288 O.2     1  LIG1       -0.2920
     27 C           5.9836  -13.2900  -24.4887 C.ar    1  LIG1        0.0462
     28 C           6.2728  -12.0534  -23.8471 C.ar    1  LIG1        0.0110
     29 H          -3.3768  -11.7322  -24.0243 H       1  LIG1        0.1453
     30 H          -2.1232  -12.2778  -22.9608 H       1  LIG1        0.1453
     31 H          -0.3151  -13.2562  -23.2153 H       1  LIG1        0.0626
     32 H           2.0786  -13.6534  -22.8966 H       1  LIG1        0.0638
     33 H          -0.4678   -9.4529  -26.1035 H       1  LIG1        0.1462
     34 H           2.1410   -9.3937  -27.3135 H       1  LIG1        0.0484
     35 H           2.0923   -8.2571  -25.9414 H       1  LIG1        0.0484
     36 H           0.3067   -8.2353  -28.4157 H       1  LIG1        0.0575
     37 H           1.5576   -7.0599  -27.9651 H       1  LIG1        0.0575
     38 H          -0.9042   -5.1844  -26.3557 H       1  LIG1        0.0523
     39 H          -0.2930   -5.3663  -28.0168 H       1  LIG1        0.0523
     40 H           0.8469   -5.2629  -26.6341 H       1  LIG1        0.0523
     41 H           3.0248  -10.3537  -25.4592 H       1  LIG1        0.0657
     42 H           4.0345   -9.6417  -22.8103 H       1  LIG1        0.0638
     43 H           6.1708   -8.5803  -22.1088 H       1  LIG1        0.0618
     44 H           8.3278   -9.7028  -22.4848 H       1  LIG1        0.0618
     45 H           8.4258  -11.9221  -23.5833 H       1  LIG1        0.0624
     46 H           3.1254  -14.1771  -25.9906 H       1  LIG1        0.0328
     47 H           3.3269  -15.1090  -24.5080 H       1  LIG1        0.0328
     48 H           5.0541  -15.0354  -26.9898 H       1  LIG1        0.0273
     49 H           4.3804  -16.4385  -26.1481 H       1  LIG1        0.0273
     50 H           6.8520  -16.2467  -25.9274 H       1  LIG1        0.0345
     51 H           6.0435  -16.2114  -24.3511 H       1  LIG1        0.0345
@<TRIPOS>BOND
     1     1     2    2
     2     2     3   am
     3     2     4    1
     4     3    29    1
     5     3    30    1
     6     4     5   ar
     7     4     7   ar
     8     5     6   ar
     9     5    31    1
    10     6    14   ar
    11     6    32    1
    12     7     8    1
    13     7    13   ar
    14     8     9    1
    15     8    33    1
    16     9    10    1
    17     9    34    1
    18     9    35    1
    19    10    11    1
    20    10    36    1
    21    10    37    1
    22    11    12    1
    23    12    38    1
    24    12    39    1
    25    12    40    1
    26    13    14   ar
    27    13    41    1
    28    14    15    1
    29    15    16   ar
    30    15    21   ar
    31    16    17   ar
    32    16    28   ar
    33    17    18   ar
    34    17    42    1
    35    18    19   ar
    36    18    43    1
    37    19    20   ar
    38    19    44    1
    39    20    28   ar
    40    20    45    1
    41    21    22    1
    42    21    27   ar
    43    22    23    1
    44    22    46    1
    45    22    47    1
    46    23    24    1
    47    23    48    1
    48    23    49    1
    49    24    25    1
    50    24    50    1
    51    24    51    1
    52    25    26    2
    53    25    27    1
    54    27    28   ar
