REMARK  6 active torsions:
REMARK  status: ('A' for Active; 'I' for Inactive)
REMARK       I    between atoms: C_2  and  N_3 
REMARK    1  A    between atoms: C_2  and  C_4 
REMARK    2  A    between atoms: C_7  and  N_8 
REMARK    3  A    between atoms: N_8  and  C_9 
REMARK    4  A    between atoms: C_9  and  C_10 
REMARK    5  A    between atoms: C_10  and  O_11 
REMARK    6  A    between atoms: C_14  and  N_15 
ROOT
ATOM      1  C   LIG d   1      -0.041 -11.520 -24.506  0.00  0.00     0.057 A 
ATOM      2  C   LIG d   1       0.392 -12.582 -23.693  0.00  0.00     0.017 A 
ATOM      3  C   LIG d   1       1.750 -12.824 -23.514  0.00  0.00     0.027 A 
ATOM      4  C   LIG d   1       0.904 -10.680 -25.156  0.00  0.00     0.041 A 
ATOM      5  C   LIG d   1       2.263 -10.936 -24.945  0.00  0.00     0.049 A 
ATOM      6  C   LIG d   1       2.670 -11.986 -24.137  0.00  0.00     0.049 A 
ENDROOT
BRANCH   6   7
ATOM      7  N   LIG d   1       4.045 -12.267 -24.081  0.00  0.00    -0.312 N 
ATOM      8  C   LIG d   1       5.044 -11.408 -23.624  0.00  0.00     0.055 A 
ATOM      9  C   LIG d   1       4.981 -10.148 -23.001  0.00  0.00     0.027 A 
ATOM     10  C   LIG d   1       6.273 -12.053 -23.847  0.00  0.00     0.011 A 
ATOM     11  C   LIG d   1       6.185  -9.553 -22.598  0.00  0.00     0.002 A 
ATOM     12  C   LIG d   1       7.409 -10.184 -22.807  0.00  0.00     0.001 A 
ATOM     13  C   LIG d   1       7.466 -11.434 -23.427  0.00  0.00     0.010 A 
ATOM     14  C   LIG d   1       5.984 -13.290 -24.489  0.00  0.00     0.046 A 
ATOM     15  C   LIG d   1       4.614 -13.407 -24.610  0.00  0.00     0.035 A 
ATOM     16  C   LIG d   1       6.873 -14.337 -24.963  0.00  0.00     0.166 C 
ATOM     17  C   LIG d   1       3.870 -14.534 -25.265  0.00  0.00     0.055 C 
ATOM     18  C   LIG d   1       4.852 -15.460 -25.999  0.00  0.00     0.014 C 
ATOM     19  C   LIG d   1       6.191 -15.660 -25.284  0.00  0.00     0.080 C 
ATOM     20  O   LIG d   1       8.087 -14.201 -25.029  0.00  0.00    -0.292 OA
ENDBRANCH   6   7
BRANCH   4  21
ATOM     21  N   LIG d   1       0.532  -9.647 -26.000  0.00  0.00    -0.341 N 
ATOM     22  H   LIG d   1      -0.468  -9.453 -26.104  0.00  0.00     0.146 HD
BRANCH  21  23
ATOM     23  C   LIG d   1       1.482  -8.784 -26.684  0.00  0.00     0.129 C 
BRANCH  23  24
ATOM     24  C   LIG d   1       0.796  -7.744 -27.568  0.00  0.00     0.178 C 
BRANCH  24  25
ATOM     25  O   LIG d   1      -0.192  -7.045 -26.808  0.00  0.00    -0.381 OA
ATOM     26  C   LIG d   1      -0.124  -5.639 -26.972  0.00  0.00     0.193 C 
ENDBRANCH  24  25
ENDBRANCH  23  24
ENDBRANCH  21  23
ENDBRANCH   4  21
BRANCH   1  27
ATOM     27  C   LIG d   1      -1.507 -11.336 -24.740  0.00  0.00     0.243 C 
ATOM     28  O   LIG d   1      -1.939 -10.749 -25.738  0.00  0.00    -0.270 OA
ATOM     29  N   LIG d   1      -2.386 -11.845 -23.829  0.00  0.00    -0.325 N 
ATOM     30  H   LIG d   1      -3.377 -11.732 -24.024  0.00  0.00     0.145 HD
ATOM     31  H   LIG d   1      -2.123 -12.278 -22.961  0.00  0.00     0.145 HD
ENDBRANCH   1  27
TORSDOF 6
