@<TRIPOS>MOLECULE
2XHX_T5M_A_1224
 43 45 0 0 0
SMALL
USER_CHARGES

@<TRIPOS>ATOM
      1 C          14.5000    0.2847   10.7123 C.3     1  LIG1       -0.0559
      2 C          14.2233   -0.4881    9.4088 C.3     1  LIG1       -0.0092
      3 C          12.8138   -0.1156    8.8944 C.3     1  LIG1       -0.0559
      4 C          14.3373   -2.0032    9.6514 C.ar    1  LIG1        0.0001
      5 C          15.3659   -2.7450    9.0392 C.ar    1  LIG1       -0.0425
      6 C          15.4987   -4.1258    9.2298 C.ar    1  LIG1        0.0374
      7 C          16.6267   -4.8351    8.5728 C.2     1  LIG1        0.2472
      8 O          17.3806   -5.5159    9.2593 O.2     1  LIG1       -0.2700
      9 N          16.7899   -4.6119    7.2177 N.am    1  LIG1       -0.2889
     10 C          18.0311   -4.9618    6.5238 C.3     1  LIG1        0.0407
     11 C          17.5676   -5.3893    5.1664 C.ar    1  LIG1       -0.0254
     12 C          18.2900   -5.9517    4.1294 C.ar    1  LIG1       -0.0568
     13 C          17.6156   -6.2963    2.9572 C.ar    1  LIG1       -0.0614
     14 C          16.2351   -6.0673    2.8313 C.ar    1  LIG1       -0.0614
     15 C          15.5179   -5.4811    3.8795 C.ar    1  LIG1       -0.0568
     16 C          16.1921   -5.1420    5.0335 C.ar    1  LIG1       -0.0254
     17 C          15.6573   -4.5225    6.2888 C.3     1  LIG1        0.0407
     18 C          14.6254   -4.7978   10.0755 C.ar    1  LIG1       -0.0462
     19 C          13.5932   -4.0937   10.6953 C.ar    1  LIG1       -0.0192
     20 C          15.2268    0.0216    8.3523 C.3     1  LIG1       -0.0559
     21 C          13.4573   -2.7161   10.4893 C.ar    1  LIG1        0.1206
     22 O          12.4483   -2.0572   11.1349 O.3     1  LIG1       -0.5065
     23 H          13.8090    0.0120   11.5110 H       1  LIG1        0.0238
     24 H          14.3960    1.3635   10.5477 H       1  LIG1        0.0238
     25 H          15.5188    0.0981   11.0699 H       1  LIG1        0.0238
     26 H          12.0239   -0.3883    9.5947 H       1  LIG1        0.0238
     27 H          12.6025   -0.6118    7.9429 H       1  LIG1        0.0238
     28 H          12.7330    0.9659    8.7458 H       1  LIG1        0.0238
     29 H          16.1082   -2.2666    8.4058 H       1  LIG1        0.0629
     30 H          18.5925   -5.7385    7.0477 H       1  LIG1        0.0514
     31 H          18.6295   -4.0454    6.4464 H       1  LIG1        0.0514
     32 H          19.3581   -6.1356    4.2293 H       1  LIG1        0.0621
     33 H          18.1601   -6.7575    2.1337 H       1  LIG1        0.0618
     34 H          15.7250   -6.3530    1.9150 H       1  LIG1        0.0618
     35 H          14.4469   -5.3116    3.7811 H       1  LIG1        0.0621
     36 H          15.4185   -3.4670    6.1295 H       1  LIG1        0.0514
     37 H          14.7921   -5.0674    6.6804 H       1  LIG1        0.0514
     38 H          14.7456   -5.8640   10.2498 H       1  LIG1        0.0626
     39 H          12.9068   -4.6285   11.3452 H       1  LIG1        0.0654
     40 H          15.1281    1.0968    8.1810 H       1  LIG1        0.0238
     41 H          15.0768   -0.4815    7.3867 H       1  LIG1        0.0238
     42 H          16.2651   -0.1533    8.6682 H       1  LIG1        0.0238
     43 H          11.9153   -2.6861   11.6424 H       1  LIG1        0.2921
@<TRIPOS>BOND
     1     1     2    1
     2     1    23    1
     3     1    24    1
     4     1    25    1
     5     2     3    1
     6     2     4    1
     7     2    20    1
     8     3    26    1
     9     3    27    1
    10     3    28    1
    11     4     5   ar
    12     4    21   ar
    13     5     6   ar
    14     5    29    1
    15     6     7    1
    16     6    18   ar
    17     7     8    2
    18     7     9   am
    19     9    10    1
    20     9    17    1
    21    10    11    1
    22    10    30    1
    23    10    31    1
    24    11    12   ar
    25    11    16   ar
    26    12    13   ar
    27    12    32    1
    28    13    14   ar
    29    13    33    1
    30    14    15   ar
    31    14    34    1
    32    15    16   ar
    33    15    35    1
    34    16    17    1
    35    17    36    1
    36    17    37    1
    37    18    19   ar
    38    18    38    1
    39    19    21   ar
    40    19    39    1
    41    20    40    1
    42    20    41    1
    43    20    42    1
    44    21    22    1
    45    22    43    1
