2XHX_T5M_A_1224
 OpenBabel03301717063D

 43 45  0  0  0  0  0  0  0  0999 V2000
   14.5000    0.2847   10.7123 C   0  0  0  0  0  0  0  0  0  0  0  0
   14.2233   -0.4881    9.4088 C   0  0  0  0  0  0  0  0  0  0  0  0
   12.8138   -0.1156    8.8944 C   0  0  0  0  0  0  0  0  0  0  0  0
   14.3373   -2.0032    9.6514 C   0  0  0  0  0  0  0  0  0  0  0  0
   15.3659   -2.7450    9.0392 C   0  0  0  0  0  0  0  0  0  0  0  0
   15.4987   -4.1258    9.2298 C   0  0  0  0  0  0  0  0  0  0  0  0
   16.6267   -4.8351    8.5728 C   0  0  0  0  0  0  0  0  0  0  0  0
   17.3806   -5.5159    9.2593 O   0  0  0  0  0  0  0  0  0  0  0  0
   16.7899   -4.6119    7.2177 N   0  0  0  0  0  0  0  0  0  0  0  0
   18.0311   -4.9618    6.5238 C   0  0  0  0  0  0  0  0  0  0  0  0
   17.5676   -5.3893    5.1664 C   0  0  0  0  0  0  0  0  0  0  0  0
   18.2900   -5.9517    4.1294 C   0  0  0  0  0  0  0  0  0  0  0  0
   17.6156   -6.2963    2.9572 C   0  0  0  0  0  0  0  0  0  0  0  0
   16.2351   -6.0673    2.8313 C   0  0  0  0  0  0  0  0  0  0  0  0
   15.5179   -5.4811    3.8795 C   0  0  0  0  0  0  0  0  0  0  0  0
   16.1921   -5.1420    5.0335 C   0  0  0  0  0  0  0  0  0  0  0  0
   15.6573   -4.5225    6.2888 C   0  0  0  0  0  0  0  0  0  0  0  0
   14.6254   -4.7978   10.0755 C   0  0  0  0  0  0  0  0  0  0  0  0
   13.5932   -4.0937   10.6953 C   0  0  0  0  0  0  0  0  0  0  0  0
   15.2268    0.0216    8.3523 C   0  0  0  0  0  0  0  0  0  0  0  0
   13.4573   -2.7161   10.4893 C   0  0  0  0  0  0  0  0  0  0  0  0
   12.4483   -2.0572   11.1349 O   0  0  0  0  0  0  0  0  0  0  0  0
   13.8090    0.0120   11.5110 H   0  0  0  0  0  0  0  0  0  0  0  0
   14.3960    1.3635   10.5477 H   0  0  0  0  0  0  0  0  0  0  0  0
   15.5188    0.0981   11.0699 H   0  0  0  0  0  0  0  0  0  0  0  0
   12.0239   -0.3883    9.5947 H   0  0  0  0  0  0  0  0  0  0  0  0
   12.6025   -0.6118    7.9429 H   0  0  0  0  0  0  0  0  0  0  0  0
   12.7330    0.9659    8.7458 H   0  0  0  0  0  0  0  0  0  0  0  0
   16.1082   -2.2666    8.4058 H   0  0  0  0  0  0  0  0  0  0  0  0
   18.5925   -5.7385    7.0477 H   0  0  0  0  0  0  0  0  0  0  0  0
   18.6295   -4.0454    6.4464 H   0  0  0  0  0  0  0  0  0  0  0  0
   19.3581   -6.1356    4.2293 H   0  0  0  0  0  0  0  0  0  0  0  0
   18.1601   -6.7575    2.1337 H   0  0  0  0  0  0  0  0  0  0  0  0
   15.7250   -6.3530    1.9150 H   0  0  0  0  0  0  0  0  0  0  0  0
   14.4469   -5.3116    3.7811 H   0  0  0  0  0  0  0  0  0  0  0  0
   15.4185   -3.4670    6.1295 H   0  0  0  0  0  0  0  0  0  0  0  0
   14.7921   -5.0674    6.6804 H   0  0  0  0  0  0  0  0  0  0  0  0
   14.7456   -5.8640   10.2498 H   0  0  0  0  0  0  0  0  0  0  0  0
   12.9068   -4.6285   11.3452 H   0  0  0  0  0  0  0  0  0  0  0  0
   15.1281    1.0968    8.1810 H   0  0  0  0  0  0  0  0  0  0  0  0
   15.0768   -0.4815    7.3867 H   0  0  0  0  0  0  0  0  0  0  0  0
   16.2651   -0.1533    8.6682 H   0  0  0  0  0  0  0  0  0  0  0  0
   11.9153   -2.6861   11.6424 H   0  0  0  0  0  0  0  0  0  0  0  0
  1  2  1  0  0  0  0
  1 23  1  0  0  0  0
  1 24  1  0  0  0  0
  1 25  1  0  0  0  0
  2  3  1  0  0  0  0
  2  4  1  0  0  0  0
  2 20  1  0  0  0  0
  3 26  1  0  0  0  0
  3 27  1  0  0  0  0
  3 28  1  0  0  0  0
  4  5  2  0  0  0  0
  4 21  1  0  0  0  0
  5  6  1  0  0  0  0
  5 29  1  0  0  0  0
  6  7  1  0  0  0  0
  6 18  2  0  0  0  0
  7  8  2  0  0  0  0
  7  9  1  0  0  0  0
  9 10  1  0  0  0  0
  9 17  1  0  0  0  0
 10 11  1  0  0  0  0
 10 30  1  0  0  0  0
 10 31  1  0  0  0  0
 11 12  2  0  0  0  0
 11 16  1  0  0  0  0
 12 13  1  0  0  0  0
 12 32  1  0  0  0  0
 13 14  2  0  0  0  0
 13 33  1  0  0  0  0
 14 15  1  0  0  0  0
 14 34  1  0  0  0  0
 15 16  2  0  0  0  0
 15 35  1  0  0  0  0
 16 17  1  0  0  0  0
 17 36  1  0  0  0  0
 17 37  1  0  0  0  0
 18 19  1  0  0  0  0
 18 38  1  0  0  0  0
 19 21  2  0  0  0  0
 19 39  1  0  0  0  0
 20 40  1  0  0  0  0
 20 41  1  0  0  0  0
 20 42  1  0  0  0  0
 21 22  1  0  0  0  0
 22 43  1  0  0  0  0
M  END
$$$$
