REMARK  3 active torsions:
REMARK  status: ('A' for Active; 'I' for Inactive)
REMARK    1  A    between atoms: C_2  and  C_4 
REMARK    2  A    between atoms: C_6  and  C_7 
REMARK       I    between atoms: C_7  and  N_9 
REMARK    3  A    between atoms: C_21  and  O_22 
ROOT
ATOM      1  C   LIG d   1      14.337  -2.003   9.651  0.00  0.00     0.000 A 
ATOM      2  C   LIG d   1      15.366  -2.745   9.039  0.00  0.00     0.020 A 
ATOM      3  C   LIG d   1      15.499  -4.126   9.230  0.00  0.00     0.037 A 
ATOM      4  C   LIG d   1      14.625  -4.798  10.075  0.00  0.00     0.016 A 
ATOM      5  C   LIG d   1      13.593  -4.094  10.695  0.00  0.00     0.046 A 
ATOM      6  C   LIG d   1      13.457  -2.716  10.489  0.00  0.00     0.121 A 
ENDROOT
BRANCH   3   7
ATOM      7  C   LIG d   1      16.627  -4.835   8.573  0.00  0.00     0.247 C 
ATOM      8  O   LIG d   1      17.381  -5.516   9.259  0.00  0.00    -0.270 OA
ATOM      9  N   LIG d   1      16.790  -4.612   7.218  0.00  0.00    -0.289 N 
ATOM     10  C   LIG d   1      18.031  -4.962   6.524  0.00  0.00     0.144 C 
ATOM     11  C   LIG d   1      15.657  -4.522   6.289  0.00  0.00     0.144 C 
ATOM     12  C   LIG d   1      17.568  -5.389   5.166  0.00  0.00    -0.025 A 
ATOM     13  C   LIG d   1      18.290  -5.952   4.129  0.00  0.00     0.005 A 
ATOM     14  C   LIG d   1      16.192  -5.142   5.034  0.00  0.00    -0.025 A 
ATOM     15  C   LIG d   1      17.616  -6.296   2.957  0.00  0.00     0.000 A 
ATOM     16  C   LIG d   1      16.235  -6.067   2.831  0.00  0.00     0.000 A 
ATOM     17  C   LIG d   1      15.518  -5.481   3.880  0.00  0.00     0.005 A 
ENDBRANCH   3   7
BRANCH   1  18
ATOM     18  C   LIG d   1      14.223  -0.488   9.409  0.00  0.00    -0.009 C 
ATOM     19  C   LIG d   1      14.500   0.285  10.712  0.00  0.00     0.016 C 
ATOM     20  C   LIG d   1      12.814  -0.116   8.894  0.00  0.00     0.016 C 
ATOM     21  C   LIG d   1      15.227   0.022   8.352  0.00  0.00     0.016 C 
ENDBRANCH   1  18
BRANCH   6  22
ATOM     22  O   LIG d   1      12.448  -2.057  11.135  0.00  0.00    -0.506 OA
ATOM     23  H   LIG d   1      11.915  -2.686  11.642  0.00  0.00     0.292 HD
ENDBRANCH   6  22
TORSDOF 3
