REMARK  5 active torsions:
REMARK  status: ('A' for Active; 'I' for Inactive)
REMARK    1  A    between atoms: N_1  and  C_2 
REMARK    2  A    between atoms: C_14  and  C_15 
REMARK    3  A    between atoms: C_15  and  C_16 
REMARK    4  A    between atoms: C_19  and  O_20 
REMARK    5  A    between atoms: C_22  and  O_23 
ROOT
ATOM      1  C   LIG d   1       5.837   9.915  23.562  0.00  0.00     0.233 A 
ATOM      2  N   LIG d   1       4.549   9.955  23.891  0.00  0.00    -0.128 NA
ATOM      3  N   LIG d   1       6.572  11.017  23.880  0.00  0.00    -0.194 NA
ATOM      4  C   LIG d   1       5.682  11.798  24.456  0.00  0.00     0.169 A 
ATOM      5  C   LIG d   1       5.782  13.105  25.061  0.00  0.00     0.045 A 
ATOM      6  C   LIG d   1       6.982  13.817  25.119  0.00  0.00     0.013 A 
ATOM      7  C   LIG d   1       7.007  15.072  25.726  0.00  0.00     0.001 A 
ATOM      8  C   LIG d   1       5.840  15.607  26.274  0.00  0.00     0.002 A 
ATOM      9  C   LIG d   1       4.639  14.889  26.219  0.00  0.00     0.028 A 
ATOM     10  C   LIG d   1       4.592  13.633  25.615  0.00  0.00     0.077 A 
ATOM     11  N   LIG d   1       3.360  12.915  25.602  0.00  0.00    -0.232 NA
ATOM     12  N   LIG d   1       4.465  11.171  24.465  0.00  0.00    -0.196 N 
ATOM     13  C   LIG d   1       3.323  11.736  25.037  0.00  0.00     0.138 A 
ENDROOT
BRANCH  13  14
ATOM     14  C   LIG d   1       2.111  10.835  25.046  0.00  0.00     0.111 C 
BRANCH  14  15
ATOM     15  C   LIG d   1       0.810  11.445  24.574  0.00  0.00    -0.033 A 
ATOM     16  C   LIG d   1       0.711  12.152  23.369  0.00  0.00     0.049 A 
ATOM     17  C   LIG d   1      -0.535  12.586  22.913  0.00  0.00     0.121 A 
ATOM     18  C   LIG d   1      -1.700  12.326  23.631  0.00  0.00     0.090 A 
ATOM     19  C   LIG d   1      -1.601  11.615  24.821  0.00  0.00     0.121 A 
ATOM     20  C   LIG d   1      -0.367  11.174  25.291  0.00  0.00     0.049 A 
BRANCH  17  21
ATOM     21  O   LIG d   1      -0.574  13.259  21.725  0.00  0.00    -0.507 OA
ATOM     22  H   LIG d   1      -1.495  13.492  21.526  0.00  0.00     0.292 HD
ENDBRANCH  17  21
BRANCH  19  23
ATOM     23  O   LIG d   1      -2.704  11.306  25.563  0.00  0.00    -0.507 OA
ATOM     24  H   LIG d   1      -3.488  11.685  25.136  0.00  0.00     0.292 HD
ENDBRANCH  19  23
ENDBRANCH  14  15
ENDBRANCH  13  14
BRANCH   1  25
ATOM     25  N   LIG d   1       6.438   8.895  22.970  0.00  0.00    -0.326 N 
ATOM     26  H   LIG d   1       7.402   8.959  22.680  0.00  0.00     0.145 HD
ATOM     27  H   LIG d   1       5.905   8.099  22.648  0.00  0.00     0.145 HD
ENDBRANCH   1  25
TORSDOF 5
