4CWO_T62_A_1226
 OpenBabel03301717263D

 36 39  0  0  0  0  0  0  0  0999 V2000
    6.4376    8.8946   22.9699 N   0  0  0  0  0  0  0  0  0  0  0  0
    5.8370    9.9149   23.5616 C   0  0  0  0  0  0  0  0  0  0  0  0
    4.5492    9.9554   23.8911 N   0  0  0  0  0  0  0  0  0  0  0  0
    6.5717   11.0167   23.8796 N   0  0  0  0  0  0  0  0  0  0  0  0
    5.6823   11.7982   24.4555 C   0  0  0  0  0  0  0  0  0  0  0  0
    5.7816   13.1054   25.0614 C   0  0  0  0  0  0  0  0  0  0  0  0
    6.9821   13.8173   25.1185 C   0  0  0  0  0  0  0  0  0  0  0  0
    7.0071   15.0717   25.7261 C   0  0  0  0  0  0  0  0  0  0  0  0
    5.8395   15.6065   26.2739 C   0  0  0  0  0  0  0  0  0  0  0  0
    4.6386   14.8888   26.2186 C   0  0  0  0  0  0  0  0  0  0  0  0
    4.5922   13.6329   25.6152 C   0  0  0  0  0  0  0  0  0  0  0  0
    3.3596   12.9154   25.6016 N   0  0  0  0  0  0  0  0  0  0  0  0
    4.4650   11.1707   24.4651 N   0  3  0  0  0  0  0  0  0  0  0  0
    3.3231   11.7357   25.0370 C   0  0  0  0  0  0  0  0  0  0  0  0
    2.1110   10.8352   25.0457 C   0  0  0  0  0  0  0  0  0  0  0  0
    0.8104   11.4451   24.5744 C   0  0  0  0  0  0  0  0  0  0  0  0
    0.7112   12.1517   23.3687 C   0  0  0  0  0  0  0  0  0  0  0  0
   -0.3670   11.1739   25.2906 C   0  0  0  0  0  0  0  0  0  0  0  0
   -1.6010   11.6152   24.8208 C   0  0  0  0  0  0  0  0  0  0  0  0
   -2.7035   11.3060   25.5631 O   0  0  0  0  0  0  0  0  0  0  0  0
   -1.6996   12.3257   23.6306 C   0  0  0  0  0  0  0  0  0  0  0  0
   -0.5349   12.5862   22.9132 C   0  0  0  0  0  0  0  0  0  0  0  0
   -0.5737   13.2590   21.7253 O   0  0  0  0  0  0  0  0  0  0  0  0
    7.4025    8.9594   22.6803 H   0  0  0  0  0  0  0  0  0  0  0  0
    5.9050    8.0988   22.6483 H   0  0  0  0  0  0  0  0  0  0  0  0
    7.8919   13.3960   24.6965 H   0  0  0  0  0  0  0  0  0  0  0  0
    7.9382   15.6324   25.7751 H   0  0  0  0  0  0  0  0  0  0  0  0
    5.8634   16.5844   26.7493 H   0  0  0  0  0  0  0  0  0  0  0  0
    3.7362   15.3104   26.6547 H   0  0  0  0  0  0  0  0  0  0  0  0
    2.0004   10.5103   26.0891 H   0  0  0  0  0  0  0  0  0  0  0  0
    2.2546    9.9243   24.4567 H   0  0  0  0  0  0  0  0  0  0  0  0
    1.5903   12.3539   22.7629 H   0  0  0  0  0  0  0  0  0  0  0  0
   -0.3334   10.5966   26.2123 H   0  0  0  0  0  0  0  0  0  0  0  0
   -3.4883   11.6853   25.1361 H   0  0  0  0  0  0  0  0  0  0  0  0
   -2.6634   12.6573   23.2637 H   0  0  0  0  0  0  0  0  0  0  0  0
   -1.4947   13.4919   21.5256 H   0  0  0  0  0  0  0  0  0  0  0  0
  1  2  1  0  0  0  0
  1 24  1  0  0  0  0
  1 25  1  0  0  0  0
  2  3  1  0  0  0  0
  2  4  2  0  0  0  0
  3 13  1  0  0  0  0
  4  5  1  0  0  0  0
  5  6  2  0  0  0  0
  5 13  1  0  0  0  0
  6  7  1  0  0  0  0
  6 11  1  0  0  0  0
  7  8  2  0  0  0  0
  7 26  1  0  0  0  0
  8  9  1  0  0  0  0
  8 27  1  0  0  0  0
  9 10  2  0  0  0  0
  9 28  1  0  0  0  0
 10 11  1  0  0  0  0
 10 29  1  0  0  0  0
 11 12  2  0  0  0  0
 12 14  1  0  0  0  0
 13 14  2  0  0  0  0
 14 15  1  0  0  0  0
 15 16  1  0  0  0  0
 15 30  1  0  0  0  0
 15 31  1  0  0  0  0
 16 17  2  0  0  0  0
 16 18  1  0  0  0  0
 17 22  1  0  0  0  0
 17 32  1  0  0  0  0
 18 19  2  0  0  0  0
 18 33  1  0  0  0  0
 19 20  1  0  0  0  0
 19 21  1  0  0  0  0
 20 34  1  0  0  0  0
 21 22  2  0  0  0  0
 21 35  1  0  0  0  0
 22 23  1  0  0  0  0
 23 36  1  0  0  0  0
M  CHG  1  13   1
M  END
$$$$
