@<TRIPOS>MOLECULE
4CWO_T62_A_1226
 36 39 0 0 0
SMALL
USER_CHARGES

@<TRIPOS>ATOM
      1 N           6.4376    8.8946   22.9699 N.pl3   1  LIG1       -0.3262
      2 C           5.8370    9.9149   23.5616 C.ar    1  LIG1        0.2328
      3 N           4.5492    9.9554   23.8911 N.ar    1  LIG1       -0.1276
      4 N           6.5717   11.0167   23.8796 N.ar    1  LIG1       -0.1936
      5 C           5.6823   11.7982   24.4555 C.ar    1  LIG1        0.1688
      6 C           5.7816   13.1054   25.0614 C.ar    1  LIG1        0.0447
      7 C           6.9821   13.8173   25.1185 C.ar    1  LIG1       -0.0490
      8 C           7.0071   15.0717   25.7261 C.ar    1  LIG1       -0.0610
      9 C           5.8395   15.6065   26.2739 C.ar    1  LIG1       -0.0597
     10 C           4.6386   14.8888   26.2186 C.ar    1  LIG1       -0.0356
     11 C           4.5922   13.6329   25.6152 C.ar    1  LIG1        0.0766
     12 N           3.3596   12.9154   25.6016 N.ar    1  LIG1       -0.2315
     13 N           4.4650   11.1707   24.4651 N.ar    1  LIG1       -0.1963
     14 C           3.3231   11.7357   25.0370 C.ar    1  LIG1        0.1378
     15 C           2.1110   10.8352   25.0457 C.3     1  LIG1        0.0328
     16 C           0.8104   11.4451   24.5744 C.ar    1  LIG1       -0.0332
     17 C           0.7112   12.1517   23.3687 C.ar    1  LIG1       -0.0164
     18 C          -0.3670   11.1739   25.2906 C.ar    1  LIG1       -0.0164
     19 C          -1.6010   11.6152   24.8208 C.ar    1  LIG1        0.1206
     20 O          -2.7035   11.3060   25.5631 O.3     1  LIG1       -0.5066
     21 C          -1.6996   12.3257   23.6306 C.ar    1  LIG1        0.0213
     22 C          -0.5349   12.5862   22.9132 C.ar    1  LIG1        0.1206
     23 O          -0.5737   13.2590   21.7253 O.3     1  LIG1       -0.5066
     24 H           7.4025    8.9594   22.6803 H       1  LIG1        0.1452
     25 H           5.9050    8.0988   22.6483 H       1  LIG1        0.1452
     26 H           7.8919   13.3960   24.6965 H       1  LIG1        0.0625
     27 H           7.9382   15.6324   25.7751 H       1  LIG1        0.0618
     28 H           5.8634   16.5844   26.7493 H       1  LIG1        0.0618
     29 H           3.7362   15.3104   26.6547 H       1  LIG1        0.0639
     30 H           2.0004   10.5103   26.0891 H       1  LIG1        0.0392
     31 H           2.2546    9.9243   24.4567 H       1  LIG1        0.0392
     32 H           1.5903   12.3539   22.7629 H       1  LIG1        0.0657
     33 H          -0.3334   10.5966   26.2123 H       1  LIG1        0.0657
     34 H          -3.4883   11.6853   25.1361 H       1  LIG1        0.2921
     35 H          -2.6634   12.6573   23.2637 H       1  LIG1        0.0691
     36 H          -1.4947   13.4919   21.5256 H       1  LIG1        0.2921
@<TRIPOS>BOND
     1     1     2    1
     2     1    24    1
     3     1    25    1
     4     2     3   ar
     5     2     4   ar
     6     3    13   ar
     7     4     5   ar
     8     5     6   ar
     9     5    13   ar
    10     6     7   ar
    11     6    11   ar
    12     7     8   ar
    13     7    26    1
    14     8     9   ar
    15     8    27    1
    16     9    10   ar
    17     9    28    1
    18    10    11   ar
    19    10    29    1
    20    11    12   ar
    21    12    14   ar
    22    13    14   ar
    23    14    15    1
    24    15    16    1
    25    15    30    1
    26    15    31    1
    27    16    17   ar
    28    16    18   ar
    29    17    22   ar
    30    17    32    1
    31    18    19   ar
    32    18    33    1
    33    19    20    1
    34    19    21   ar
    35    20    34    1
    36    21    22   ar
    37    21    35    1
    38    22    23    1
    39    23    36    1
