REMARK  5 active torsions:
REMARK  status: ('A' for Active; 'I' for Inactive)
REMARK    1  A    between atoms: C_6  and  C_7 
REMARK    2  A    between atoms: C_7  and  N_8 
REMARK    3  A    between atoms: C_7  and  C_10 
REMARK    4  A    between atoms: C_13  and  O_14 
REMARK    5  A    between atoms: C_16  and  O_17 
ROOT
ATOM      1  C   LIG d   1      -0.046  10.932  24.870  0.00  0.00     0.026 A 
ATOM      2  C   LIG d   1       1.163  11.238  24.232  0.00  0.00     0.013 A 
ATOM      3  C   LIG d   1       1.181  12.027  23.086  0.00  0.00     0.046 A 
ATOM      4  C   LIG d   1       0.000  12.512  22.587  0.00  0.00     0.120 A 
ATOM      5  C   LIG d   1      -1.220  12.249  23.208  0.00  0.00     0.091 A 
ATOM      6  C   LIG d   1      -1.242  11.453  24.361  0.00  0.00     0.126 A 
ENDROOT
BRANCH   1   7
ATOM      7  C   LIG d   1       0.125  10.034  26.089  0.00  0.00     0.215 C 
BRANCH   7   8
ATOM      8  C   LIG d   1       0.845   8.728  25.774  0.00  0.00     0.003 A 
ATOM      9  C   LIG d   1       1.898   8.354  26.605  0.00  0.00     0.009 A 
ATOM     10  C   LIG d   1       2.647   7.226  26.330  0.00  0.00     0.020 A 
ATOM     11  C   LIG d   1       2.308   6.482  25.214  0.00  0.00     0.111 A 
ATOM     12  N   LIG d   1       1.298   6.799  24.376  0.00  0.00    -0.263 NA
ATOM     13  C   LIG d   1       0.578   7.915  24.672  0.00  0.00     0.116 A 
ENDBRANCH   7   8
BRANCH   7  14
ATOM     14  N   LIG d   1      -1.008   9.882  27.059  0.00  0.00    -0.056 NA
ATOM     15  O   LIG d   1      -0.681   9.227  28.063  0.00  0.00    -0.148 OA
ENDBRANCH   7  14
ENDBRANCH   1   7
BRANCH   6  16
ATOM     16  O   LIG d   1      -2.432  11.209  24.975  0.00  0.00    -0.506 OA
ATOM     17  H   LIG d   1      -3.135  11.726  24.549  0.00  0.00     0.292 HD
ENDBRANCH   6  16
BRANCH   4  18
ATOM     18  O   LIG d   1       0.073  13.269  21.456  0.00  0.00    -0.507 OA
ATOM     19  H   LIG d   1      -0.824  13.543  21.211  0.00  0.00     0.292 HD
ENDBRANCH   4  18
TORSDOF 5
