@<TRIPOS>MOLECULE
5FNF_TQL_A_1226
 27 28 0 0 0
SMALL
USER_CHARGES

@<TRIPOS>ATOM
      1 C           1.8984    8.3540   26.6046 C.ar    1  LIG1       -0.0532
      2 C           2.6465    7.2258   26.3297 C.ar    1  LIG1       -0.0433
      3 C           2.3075    6.4823   25.2141 C.ar    1  LIG1        0.0276
      4 N           1.2985    6.7988   24.3762 N.ar    1  LIG1       -0.2629
      5 C           0.5780    7.9147   24.6723 C.ar    1  LIG1        0.0332
      6 C           0.8451    8.7283   25.7739 C.ar    1  LIG1        0.0027
      7 C           0.1254   10.0339   26.0894 C.3     1  LIG1        0.1467
      8 N          -1.0081    9.8824   27.0592 N.2     1  LIG1       -0.0560
      9 O          -0.6806    9.2273   28.0628 O.2     1  LIG1       -0.1481
     10 C          -0.0458   10.9322   24.8697 C.ar    1  LIG1        0.0262
     11 C           1.1634   11.2379   24.2318 C.ar    1  LIG1       -0.0492
     12 C           1.1809   12.0268   23.0864 C.ar    1  LIG1       -0.0196
     13 C           0.0001   12.5122   22.5870 C.ar    1  LIG1        0.1203
     14 O           0.0727   13.2692   21.4561 O.3     1  LIG1       -0.5066
     15 C          -1.2205   12.2494   23.2079 C.ar    1  LIG1        0.0217
     16 C          -1.2415   11.4531   24.3606 C.ar    1  LIG1        0.1259
     17 O          -2.4323   11.2091   24.9752 O.3     1  LIG1       -0.5063
     18 H           2.1444    8.9649   27.4754 H       1  LIG1        0.0622
     19 H           3.4583    6.9385   26.9801 H       1  LIG1        0.0633
     20 H           2.8648    5.5795   24.9747 H       1  LIG1        0.0829
     21 H          -0.1926    8.1513   23.9452 H       1  LIG1        0.0833
     22 H           0.8345   10.6331   26.6856 H       1  LIG1        0.0681
     23 H           2.1083   10.8556   24.6109 H       1  LIG1        0.0623
     24 H           2.1421   12.2370   22.6004 H       1  LIG1        0.0654
     25 H          -0.8235   13.5435   21.2106 H       1  LIG1        0.2921
     26 H          -2.1382   12.6457   22.8077 H       1  LIG1        0.0691
     27 H          -3.1345   11.7256   24.5488 H       1  LIG1        0.2921
@<TRIPOS>BOND
     1     1     2   ar
     2     1     6   ar
     3     1    18    1
     4     2     3   ar
     5     2    19    1
     6     3     4   ar
     7     3    20    1
     8     4     5   ar
     9     5     6   ar
    10     5    21    1
    11     6     7    1
    12     7     8    1
    13     7    10    1
    14     7    22    1
    15     8     9    2
    16    10    11   ar
    17    10    16   ar
    18    11    12   ar
    19    11    23    1
    20    12    13   ar
    21    12    24    1
    22    13    14    1
    23    13    15   ar
    24    14    25    1
    25    15    16   ar
    26    15    26    1
    27    16    17    1
    28    17    27    1
