@<TRIPOS>MOLECULE
3TUH_TUH_A_1
 47 50 0 0 0
SMALL
USER_CHARGES

@<TRIPOS>ATOM
      1 C          20.1185   -5.7823    8.0482 C.ar    1  LIG1        0.0615
      2 C          19.1327   -5.2520    7.2226 C.ar    1  LIG1        0.1310
      3 C          18.7718   -3.9097    7.3455 C.ar    1  LIG1        0.0223
      4 C          20.5867   -7.1755    7.8889 C.ar    1  LIG1        0.1727
      5 C          23.1091   -5.7018    6.6186 C.ar    1  LIG1       -0.0357
      6 C          24.1526   -4.7789    6.5553 C.ar    1  LIG1       -0.0357
      7 C          24.9720   -5.6301    8.7031 C.ar    1  LIG1        0.0018
      8 C          26.7533   -4.2926    9.0514 C.ar    1  LIG1        0.0054
      9 C          26.6727   -2.9296    6.9688 C.3     1  LIG1        0.0119
     10 C          21.0468   -2.7445   10.2189 C.3     1  LIG1       -0.0180
     11 C          22.4923   -3.1229   10.5650 C.3     1  LIG1       -0.0585
     12 C          19.4020   -3.0938    8.2926 C.ar    1  LIG1        0.1238
     13 C          20.3932   -3.5966    9.1427 C.ar    1  LIG1       -0.0025
     14 C          20.7143   -4.9618    9.0203 C.ar    1  LIG1       -0.0406
     15 N          21.9178   -7.4705    7.7848 N.ar    1  LIG1       -0.2436
     16 C          22.0054   -8.8394    7.6927 C.ar    1  LIG1        0.3489
     17 N          20.6865   -9.2870    7.7748 N.ar    1  LIG1       -0.2260
     18 N          19.8126   -8.2306    7.8879 N.ar    1  LIG1       -0.1507
     19 C          23.0037   -6.5970    7.6874 C.ar    1  LIG1        0.0536
     20 C          23.9376   -6.5794    8.7284 C.ar    1  LIG1       -0.0285
     21 C          25.0711   -4.7536    7.6185 C.ar    1  LIG1        0.0489
     22 C          26.0252   -5.3189    9.6023 C.ar    1  LIG1       -0.0364
     23 N          26.1789   -3.9624    7.8521 N.ar    1  LIG1       -0.3497
     24 C          20.1660   -2.7988   11.4683 C.3     1  LIG1       -0.0585
     25 O          18.9658   -1.7963    8.3251 O.3     1  LIG1       -0.5064
     26 O          18.5493   -6.0305    6.2665 O.3     1  LIG1       -0.5059
     27 O          22.9847   -9.5453    7.5260 O.2     1  LIG1       -0.2446
     28 H          18.0063   -3.4771    6.7082 H       1  LIG1        0.0691
     29 H          22.3776   -5.7372    5.8101 H       1  LIG1        0.0639
     30 H          24.2408   -4.1058    5.7088 H       1  LIG1        0.0639
     31 H          27.6358   -3.7819    9.4155 H       1  LIG1        0.0809
     32 H          27.5632   -2.4714    7.4074 H       1  LIG1        0.0456
     33 H          25.8937   -2.1733    6.8464 H       1  LIG1        0.0456
     34 H          26.9293   -3.3851    6.0094 H       1  LIG1        0.0456
     35 H          21.1068   -1.7081    9.8657 H       1  LIG1        0.0345
     36 H          22.5678   -4.1144   11.0219 H       1  LIG1        0.0235
     37 H          22.9107   -2.4077   11.2819 H       1  LIG1        0.0235
     38 H          23.1243   -3.1067    9.6709 H       1  LIG1        0.0235
     39 H          21.4459   -5.4021    9.6922 H       1  LIG1        0.0630
     40 H          20.3846  -10.2469    7.6806 H       1  LIG1        0.1937
     41 H          23.8301   -7.2439    9.5812 H       1  LIG1        0.0645
     42 H          26.2270   -5.8050   10.5470 H       1  LIG1        0.0639
     43 H          20.0844   -3.8244   11.8467 H       1  LIG1        0.0235
     44 H          19.1497   -2.4501   11.2503 H       1  LIG1        0.0235
     45 H          20.5728   -2.1712   12.2658 H       1  LIG1        0.0235
     46 H          19.3854   -1.3165    9.0546 H       1  LIG1        0.2921
     47 H          17.8364   -5.5332    5.8362 H       1  LIG1        0.2922
@<TRIPOS>BOND
     1     1     2   ar
     2     1     4    1
     3     1    14   ar
     4     2     3   ar
     5     2    26    1
     6     3    12   ar
     7     3    28    1
     8     4    15   ar
     9     4    18   ar
    10     5     6   ar
    11     5    19   ar
    12     5    29    1
    13     6    21   ar
    14     6    30    1
    15     7    20   ar
    16     7    21   ar
    17     7    22   ar
    18     8    22   ar
    19     8    23   ar
    20     8    31    1
    21     9    23    1
    22     9    32    1
    23     9    33    1
    24     9    34    1
    25    10    11    1
    26    10    13    1
    27    10    24    1
    28    10    35    1
    29    11    36    1
    30    11    37    1
    31    11    38    1
    32    12    13   ar
    33    12    25    1
    34    13    14   ar
    35    14    39    1
    36    15    16   ar
    37    15    19    1
    38    16    17   ar
    39    16    27    2
    40    17    18   ar
    41    17    40    1
    42    19    20   ar
    43    20    41    1
    44    21    23   ar
    45    22    42    1
    46    24    43    1
    47    24    44    1
    48    24    45    1
    49    25    46    1
    50    26    47    1
