REMARK  5 active torsions:
REMARK  status: ('A' for Active; 'I' for Inactive)
REMARK    1  A    between atoms: C_1  and  C_4 
REMARK    2  A    between atoms: C_2  and  O_26 
REMARK    3  A    between atoms: C_10  and  C_13 
REMARK    4  A    between atoms: C_12  and  O_25 
REMARK    5  A    between atoms: N_15  and  C_19 
ROOT
ATOM      1  C   LIG d   1      20.587  -7.176   7.889  0.00  0.00     0.173 A 
ATOM      2  N   LIG d   1      21.918  -7.471   7.785  0.00  0.00    -0.244 N 
ATOM      3  C   LIG d   1      22.005  -8.839   7.693  0.00  0.00     0.349 A 
ATOM      4  N   LIG d   1      20.686  -9.287   7.775  0.00  0.00    -0.226 N 
ATOM      5  N   LIG d   1      19.813  -8.231   7.888  0.00  0.00    -0.151 NA
ATOM      6  O   LIG d   1      22.985  -9.545   7.526  0.00  0.00    -0.245 OA
ATOM      7  H   LIG d   1      20.385 -10.247   7.681  0.00  0.00     0.194 HD
ENDROOT
BRANCH   1   8
ATOM      8  C   LIG d   1      20.119  -5.782   8.048  0.00  0.00     0.061 A 
ATOM      9  C   LIG d   1      19.133  -5.252   7.223  0.00  0.00     0.131 A 
ATOM     10  C   LIG d   1      18.772  -3.910   7.346  0.00  0.00     0.091 A 
ATOM     11  C   LIG d   1      19.402  -3.094   8.293  0.00  0.00     0.124 A 
ATOM     12  C   LIG d   1      20.393  -3.597   9.143  0.00  0.00    -0.003 A 
ATOM     13  C   LIG d   1      20.714  -4.962   9.020  0.00  0.00     0.022 A 
BRANCH   9  14
ATOM     14  O   LIG d   1      18.549  -6.030   6.266  0.00  0.00    -0.506 OA
ATOM     15  H   LIG d   1      17.836  -5.533   5.836  0.00  0.00     0.292 HD
ENDBRANCH   9  14
BRANCH  11  16
ATOM     16  O   LIG d   1      18.966  -1.796   8.325  0.00  0.00    -0.506 OA
ATOM     17  H   LIG d   1      19.385  -1.317   9.055  0.00  0.00     0.292 HD
ENDBRANCH  11  16
BRANCH  12  18
ATOM     18  C   LIG d   1      21.047  -2.744  10.219  0.00  0.00     0.017 C 
ATOM     19  C   LIG d   1      22.492  -3.123  10.565  0.00  0.00     0.012 C 
ATOM     20  C   LIG d   1      20.166  -2.799  11.468  0.00  0.00     0.012 C 
ENDBRANCH  12  18
ENDBRANCH   1   8
BRANCH   2  21
ATOM     21  C   LIG d   1      23.004  -6.597   7.687  0.00  0.00     0.054 A 
ATOM     22  C   LIG d   1      23.109  -5.702   6.619  0.00  0.00     0.028 A 
ATOM     23  C   LIG d   1      24.153  -4.779   6.555  0.00  0.00     0.028 A 
ATOM     24  C   LIG d   1      25.071  -4.754   7.619  0.00  0.00     0.049 A 
ATOM     25  C   LIG d   1      24.972  -5.630   8.703  0.00  0.00     0.002 A 
ATOM     26  N   LIG d   1      26.179  -3.962   7.852  0.00  0.00    -0.350 N 
ATOM     27  C   LIG d   1      23.938  -6.579   8.728  0.00  0.00     0.036 A 
ATOM     28  C   LIG d   1      26.025  -5.319   9.602  0.00  0.00     0.027 A 
ATOM     29  C   LIG d   1      26.753  -4.293   9.051  0.00  0.00     0.086 A 
ATOM     30  C   LIG d   1      26.673  -2.930   6.969  0.00  0.00     0.149 C 
ENDBRANCH   2  21
TORSDOF 5
