3TUH_TUH_A_1
 OpenBabel03301717233D

 47 50  0  0  1  0  0  0  0  0999 V2000
   20.1185   -5.7823    8.0482 C   0  0  0  0  0  0  0  0  0  0  0  0
   19.1327   -5.2520    7.2226 C   0  0  0  0  0  0  0  0  0  0  0  0
   18.7718   -3.9097    7.3455 C   0  0  0  0  0  0  0  0  0  0  0  0
   20.5867   -7.1755    7.8889 C   0  0  0  0  0  0  0  0  0  0  0  0
   23.1091   -5.7018    6.6186 C   0  0  0  0  0  0  0  0  0  0  0  0
   24.1526   -4.7789    6.5553 C   0  0  0  0  0  0  0  0  0  0  0  0
   24.9720   -5.6301    8.7031 C   0  0  1  0  0  0  0  0  0  0  0  0
   26.7533   -4.2926    9.0514 C   0  0  0  0  0  0  0  0  0  0  0  0
   26.6727   -2.9296    6.9688 C   0  0  0  0  0  0  0  0  0  0  0  0
   21.0468   -2.7445   10.2189 C   0  0  0  0  0  0  0  0  0  0  0  0
   22.4923   -3.1229   10.5650 C   0  0  0  0  0  0  0  0  0  0  0  0
   19.4020   -3.0938    8.2926 C   0  0  0  0  0  0  0  0  0  0  0  0
   20.3932   -3.5966    9.1427 C   0  0  0  0  0  0  0  0  0  0  0  0
   20.7143   -4.9618    9.0203 C   0  0  0  0  0  0  0  0  0  0  0  0
   21.9178   -7.4705    7.7848 N   0  3  0  0  0  0  0  0  0  0  0  0
   22.0054   -8.8394    7.6927 C   0  0  0  0  0  0  0  0  0  0  0  0
   20.6865   -9.2870    7.7748 N   0  3  0  0  0  0  0  0  0  0  0  0
   19.8126   -8.2306    7.8879 N   0  0  0  0  0  0  0  0  0  0  0  0
   23.0037   -6.5970    7.6874 C   0  0  2  0  0  0  0  0  0  0  0  0
   23.9376   -6.5794    8.7284 C   0  0  0  0  0  0  0  0  0  0  0  0
   25.0711   -4.7536    7.6185 C   0  0  1  0  0  0  0  0  0  0  0  0
   26.0252   -5.3189    9.6023 C   0  0  0  0  0  0  0  0  0  0  0  0
   26.1789   -3.9624    7.8521 N   0  3  2  0  0  0  0  0  0  0  0  0
   20.1660   -2.7988   11.4683 C   0  0  0  0  0  0  0  0  0  0  0  0
   18.9658   -1.7963    8.3251 O   0  0  0  0  0  0  0  0  0  0  0  0
   18.5493   -6.0305    6.2665 O   0  0  0  0  0  0  0  0  0  0  0  0
   22.9847   -9.5453    7.5260 O   0  0  0  0  0  0  0  0  0  0  0  0
   18.0063   -3.4771    6.7082 H   0  0  0  0  0  0  0  0  0  0  0  0
   22.3776   -5.7372    5.8101 H   0  0  0  0  0  0  0  0  0  0  0  0
   24.2408   -4.1058    5.7088 H   0  0  0  0  0  0  0  0  0  0  0  0
   27.6358   -3.7819    9.4155 H   0  0  0  0  0  0  0  0  0  0  0  0
   27.5632   -2.4714    7.4074 H   0  0  0  0  0  0  0  0  0  0  0  0
   25.8937   -2.1733    6.8464 H   0  0  0  0  0  0  0  0  0  0  0  0
   26.9293   -3.3851    6.0094 H   0  0  0  0  0  0  0  0  0  0  0  0
   21.1068   -1.7081    9.8657 H   0  0  0  0  0  0  0  0  0  0  0  0
   22.5678   -4.1144   11.0219 H   0  0  0  0  0  0  0  0  0  0  0  0
   22.9107   -2.4077   11.2819 H   0  0  0  0  0  0  0  0  0  0  0  0
   23.1243   -3.1067    9.6709 H   0  0  0  0  0  0  0  0  0  0  0  0
   21.4459   -5.4021    9.6922 H   0  0  0  0  0  0  0  0  0  0  0  0
   20.3846  -10.2469    7.6806 H   0  0  0  0  0  0  0  0  0  0  0  0
   23.8301   -7.2439    9.5812 H   0  0  0  0  0  0  0  0  0  0  0  0
   26.2270   -5.8050   10.5470 H   0  0  0  0  0  0  0  0  0  0  0  0
   20.0844   -3.8244   11.8467 H   0  0  0  0  0  0  0  0  0  0  0  0
   19.1497   -2.4501   11.2503 H   0  0  0  0  0  0  0  0  0  0  0  0
   20.5728   -2.1712   12.2658 H   0  0  0  0  0  0  0  0  0  0  0  0
   19.3854   -1.3165    9.0546 H   0  0  0  0  0  0  0  0  0  0  0  0
   17.8364   -5.5332    5.8362 H   0  0  0  0  0  0  0  0  0  0  0  0
  1  2  2  0  0  0  0
  1  4  1  0  0  0  0
  1 14  1  0  0  0  0
  2  3  1  0  0  0  0
  2 26  1  0  0  0  0
  3 12  2  0  0  0  0
  3 28  1  0  0  0  0
  4 15  1  0  0  0  0
  4 18  2  0  0  0  0
  5  6  1  0  0  0  0
  5 19  1  0  0  0  0
  5 29  1  0  0  0  0
  6 30  1  0  0  0  0
  7 20  1  1  0  0  0
  7 21  1  0  0  0  0
  7 22  1  0  0  0  0
  8 22  1  0  0  0  0
  8 23  1  0  0  0  0
  8 31  1  0  0  0  0
  9 32  1  0  0  0  0
  9 33  1  0  0  0  0
  9 34  1  0  0  0  0
 10 11  1  0  0  0  0
 10 13  1  0  0  0  0
 10 24  1  0  0  0  0
 10 35  1  0  0  0  0
 11 36  1  0  0  0  0
 11 37  1  0  0  0  0
 11 38  1  0  0  0  0
 12 13  1  0  0  0  0
 12 25  1  0  0  0  0
 13 14  2  0  0  0  0
 14 39  1  0  0  0  0
 15 16  1  0  0  0  0
 16 17  1  0  0  0  0
 16 27  2  0  0  0  0
 17 18  1  0  0  0  0
 17 40  1  0  0  0  0
 19 15  1  1  0  0  0
 19 20  1  0  0  0  0
 20 41  1  0  0  0  0
 21  6  1  6  0  0  0
 21 23  1  0  0  0  0
 22 42  1  0  0  0  0
 23  9  1  1  0  0  0
 24 43  1  0  0  0  0
 24 44  1  0  0  0  0
 24 45  1  0  0  0  0
 25 46  1  0  0  0  0
 26 47  1  0  0  0  0
M  CHG  3  15   1  17   1  23   1
M  END
$$$$
