@<TRIPOS>MOLECULE
4CWP_TV2_A_1224
 37 41 0 0 0
SMALL
USER_CHARGES

@<TRIPOS>ATOM
      1 N          -2.1766   11.9955   24.1026 N.pl3   1  LIG1       -0.3262
      2 C          -1.1059   11.3372   24.5207 C.ar    1  LIG1        0.2328
      3 N           0.0765   11.2927   23.9085 N.ar    1  LIG1       -0.1276
      4 N           0.7833   10.5244   24.7591 N.ar    1  LIG1       -0.1963
      5 C           0.0064   10.1359   25.8165 C.ar    1  LIG1        0.1688
      6 N          -1.2005   10.6370   25.6843 N.ar    1  LIG1       -0.1936
      7 C           2.1219   10.1475   24.6333 C.ar    1  LIG1        0.1378
      8 N           2.7056    9.3855   25.5212 N.ar    1  LIG1       -0.2315
      9 C           1.9594    8.9524   26.6488 C.ar    1  LIG1        0.0766
     10 C           2.5880    8.1626   27.6096 C.ar    1  LIG1       -0.0356
     11 C           1.8819    7.7220   28.7321 C.ar    1  LIG1       -0.0597
     12 C           0.5413    8.0726   28.9059 C.ar    1  LIG1       -0.0610
     13 C          -0.1016    8.8689   27.9596 C.ar    1  LIG1       -0.0490
     14 C           0.6045    9.3049   26.8378 C.ar    1  LIG1        0.0447
     15 C           2.8575   10.7061   23.4430 C.3     1  LIG1        0.0327
     16 C           3.7555   11.8592   23.8395 C.ar    1  LIG1       -0.0364
     17 C           5.1627   11.7390   23.7536 C.ar    1  LIG1       -0.0545
     18 C           6.0004   12.7900   24.1437 C.ar    1  LIG1       -0.0159
     19 C           5.4091   13.9388   24.6208 C.ar    1  LIG1        0.1662
     20 C           4.0443   14.0648   24.7069 C.ar    1  LIG1        0.1665
     21 C           3.1928   13.0544   24.3182 C.ar    1  LIG1       -0.0126
     22 O           6.0592   15.0515   25.0551 O.3     1  LIG1       -0.4526
     23 C           4.9447   15.8870   25.4316 C.3     1  LIG1        0.2332
     24 O           3.6614   15.2671   25.2137 O.3     1  LIG1       -0.4526
     25 H          -3.0565   11.8943   24.5881 H       1  LIG1        0.1452
     26 H          -2.1911   12.4540   23.2031 H       1  LIG1        0.1452
     27 H           3.6332    7.8930   27.4826 H       1  LIG1        0.0639
     28 H           2.3813    7.1045   29.4752 H       1  LIG1        0.0618
     29 H          -0.0022    7.7262   29.7816 H       1  LIG1        0.0618
     30 H          -1.1436    9.1494   28.0962 H       1  LIG1        0.0625
     31 H           2.1902   11.0232   22.6361 H       1  LIG1        0.0392
     32 H           3.4656    9.8918   23.0283 H       1  LIG1        0.0392
     33 H           5.6127   10.8167   23.3900 H       1  LIG1        0.0622
     34 H           7.0797   12.7014   24.0822 H       1  LIG1        0.0655
     35 H           2.1197   13.1952   24.3951 H       1  LIG1        0.0658
     36 H           4.9859   16.8134   24.8476 H       1  LIG1        0.1166
     37 H           5.0365   16.1372   26.4951 H       1  LIG1        0.1166
@<TRIPOS>BOND
     1     1     2    1
     2     1    25    1
     3     1    26    1
     4     2     3   ar
     5     2     6   ar
     6     3     4   ar
     7     4     5   ar
     8     4     7   ar
     9     5     6   ar
    10     5    14   ar
    11     7     8   ar
    12     7    15    1
    13     8     9   ar
    14     9    10   ar
    15     9    14   ar
    16    10    11   ar
    17    10    27    1
    18    11    12   ar
    19    11    28    1
    20    12    13   ar
    21    12    29    1
    22    13    14   ar
    23    13    30    1
    24    15    16    1
    25    15    31    1
    26    15    32    1
    27    16    17   ar
    28    16    21   ar
    29    17    18   ar
    30    17    33    1
    31    18    19   ar
    32    18    34    1
    33    19    20   ar
    34    19    22    1
    35    20    21   ar
    36    20    24    1
    37    21    35    1
    38    22    23    1
    39    23    24    1
    40    23    36    1
    41    23    37    1
