REMARK  3 active torsions:
REMARK  status: ('A' for Active; 'I' for Inactive)
REMARK    1  A    between atoms: N_1  and  C_2 
REMARK    2  A    between atoms: C_7  and  C_15 
REMARK    3  A    between atoms: C_15  and  C_16 
ROOT
ATOM      1  C   LIG d   1      -1.106  11.337  24.521  0.00  0.00     0.233 A 
ATOM      2  N   LIG d   1       0.076  11.293  23.909  0.00  0.00    -0.128 NA
ATOM      3  N   LIG d   1       0.783  10.524  24.759  0.00  0.00    -0.196 N 
ATOM      4  C   LIG d   1       0.006  10.136  25.817  0.00  0.00     0.169 A 
ATOM      5  N   LIG d   1      -1.200  10.637  25.684  0.00  0.00    -0.194 NA
ATOM      6  C   LIG d   1       2.122  10.148  24.633  0.00  0.00     0.138 A 
ATOM      7  N   LIG d   1       2.706   9.386  25.521  0.00  0.00    -0.232 NA
ATOM      8  C   LIG d   1       1.959   8.952  26.649  0.00  0.00     0.077 A 
ATOM      9  C   LIG d   1       2.588   8.163  27.610  0.00  0.00     0.028 A 
ATOM     10  C   LIG d   1       1.882   7.722  28.732  0.00  0.00     0.002 A 
ATOM     11  C   LIG d   1       0.541   8.073  28.906  0.00  0.00     0.001 A 
ATOM     12  C   LIG d   1      -0.102   8.869  27.960  0.00  0.00     0.013 A 
ATOM     13  C   LIG d   1       0.605   9.305  26.838  0.00  0.00     0.045 A 
ENDROOT
BRANCH   6  14
ATOM     14  C   LIG d   1       2.857  10.706  23.443  0.00  0.00     0.111 C 
BRANCH  14  15
ATOM     15  C   LIG d   1       3.756  11.859  23.840  0.00  0.00    -0.036 A 
ATOM     16  C   LIG d   1       5.163  11.739  23.754  0.00  0.00     0.008 A 
ATOM     17  C   LIG d   1       6.000  12.790  24.144  0.00  0.00     0.050 A 
ATOM     18  C   LIG d   1       5.409  13.939  24.621  0.00  0.00     0.166 A 
ATOM     19  C   LIG d   1       4.044  14.065  24.707  0.00  0.00     0.167 A 
ATOM     20  O   LIG d   1       6.059  15.052  25.055  0.00  0.00    -0.453 OA
ATOM     21  C   LIG d   1       3.193  13.054  24.318  0.00  0.00     0.053 A 
ATOM     22  O   LIG d   1       3.661  15.267  25.214  0.00  0.00    -0.453 OA
ATOM     23  C   LIG d   1       4.945  15.887  25.432  0.00  0.00     0.466 A 
ENDBRANCH  14  15
ENDBRANCH   6  14
BRANCH   1  24
ATOM     24  N   LIG d   1      -2.177  11.995  24.103  0.00  0.00    -0.326 N 
ATOM     25  H   LIG d   1      -3.057  11.894  24.588  0.00  0.00     0.145 HD
ATOM     26  H   LIG d   1      -2.191  12.454  23.203  0.00  0.00     0.145 HD
ENDBRANCH   1  24
TORSDOF 3
