@<TRIPOS>MOLECULE
3VHC_VHC_A_1
 51 54 0 0 0
SMALL
USER_CHARGES

@<TRIPOS>ATOM
      1 C          10.5545   -3.0562   15.3558 C.3     1  LIG1       -0.0390
      2 C          10.3484   -1.6365   14.9012 C.ar    1  LIG1       -0.0381
      3 C           9.4412   -1.3940   13.8497 C.ar    1  LIG1       -0.0546
      4 C           9.2270   -0.1054   13.3300 C.ar    1  LIG1       -0.0410
      5 C           8.2479    0.0739   12.1960 C.3     1  LIG1       -0.0391
      6 C           9.9397    0.9797   13.8631 C.ar    1  LIG1        0.0042
      7 C          10.8246    0.7352   14.9455 C.ar    1  LIG1       -0.0399
      8 C          11.0387   -0.5511   15.4644 C.ar    1  LIG1        0.0402
      9 C          11.9779   -0.7133   16.6250 C.2     1  LIG1        0.2444
     10 O          11.7669   -1.5459   17.4967 O.2     1  LIG1       -0.2702
     11 N          13.0691    0.1340   16.6437 N.am    1  LIG1       -0.3112
     12 C          14.0829    0.0877   17.6822 C.3     1  LIG1        0.0150
     13 C          14.6886    1.4652   17.9767 C.3     1  LIG1       -0.0030
     14 C          15.4114    2.0584   16.7629 C.3     1  LIG1        0.0910
     15 O          14.3800    2.5266   15.8992 O.3     1  LIG1       -0.4919
     16 C          14.7066    3.1732   14.7502 C.ar    1  LIG1        0.1216
     17 C          13.6377    3.8944   14.2109 C.ar    1  LIG1       -0.0062
     18 C          15.9124    3.1018   14.0665 C.ar    1  LIG1       -0.0199
     19 C          16.0286    3.7377   12.8260 C.ar    1  LIG1       -0.0573
     20 C          14.9371    4.4159   12.2681 C.ar    1  LIG1       -0.0477
     21 C          13.7190    4.4840   12.9570 C.ar    1  LIG1        0.0176
     22 S          12.3287    5.3005   12.1727 S.3     1  LIG1       -0.0696
     23 C          10.8969    4.3090   12.5882 C.ar    1  LIG1        0.1072
     24 N           9.7249    4.9666   12.6619 N.ar    1  LIG1       -0.2080
     25 C          10.9933    2.9667   12.8488 C.ar    1  LIG1       -0.0033
     26 C           9.8577    2.3459   13.3245 C.ar    1  LIG1        0.0774
     27 N           8.6736    2.9820   13.4082 N.ar    1  LIG1       -0.2146
     28 C           8.6580    4.2710   13.0640 C.ar    1  LIG1        0.2141
     29 N           7.4630    4.9433   13.1627 N.pl3   1  LIG1       -0.3274
     30 H           9.9404   -3.7556   14.7753 H       1  LIG1        0.0278
     31 H          10.2686   -3.1806   16.4041 H       1  LIG1        0.0278
     32 H          11.5990   -3.3493   15.2128 H       1  LIG1        0.0278
     33 H           8.8936   -2.2353   13.4180 H       1  LIG1        0.0623
     34 H           7.7969   -0.8799   11.9010 H       1  LIG1        0.0278
     35 H           8.7555    0.4833   11.3169 H       1  LIG1        0.0278
     36 H           7.4320    0.7382   12.4951 H       1  LIG1        0.0278
     37 H          11.3294    1.5861   15.4028 H       1  LIG1        0.0632
     38 H          13.2789    0.6904   15.8230 H       1  LIG1        0.1490
     39 H          14.8622   -0.6053   17.3473 H       1  LIG1        0.0463
     40 H          13.6457   -0.3215   18.5988 H       1  LIG1        0.0463
     41 H          15.3878    1.3771   18.8142 H       1  LIG1        0.0313
     42 H          13.8814    2.1443   18.2823 H       1  LIG1        0.0313
     43 H          16.0286    1.2967   16.2735 H       1  LIG1        0.0697
     44 H          16.0395    2.8994   17.0783 H       1  LIG1        0.0697
     45 H          12.7195    3.9528   14.7934 H       1  LIG1        0.0665
     46 H          16.7617    2.5499   14.4541 H       1  LIG1        0.0654
     47 H          16.9655    3.6859   12.2747 H       1  LIG1        0.0619
     48 H          15.0472    4.8822   11.2911 H       1  LIG1        0.0629
     49 H          11.9212    2.4169   12.7708 H       1  LIG1        0.0666
     50 H           6.6587    4.3349   13.1705 H       1  LIG1        0.1452
     51 H           7.4389    5.7954   12.6231 H       1  LIG1        0.1452
@<TRIPOS>BOND
     1     1     2    1
     2     1    30    1
     3     1    31    1
     4     1    32    1
     5     2     3   ar
     6     2     8   ar
     7     3     4   ar
     8     3    33    1
     9     4     5    1
    10     4     6   ar
    11     5    34    1
    12     5    35    1
    13     5    36    1
    14     6     7   ar
    15     6    26    1
    16     7     8   ar
    17     7    37    1
    18     8     9    1
    19     9    10    2
    20     9    11   am
    21    11    12    1
    22    11    38    1
    23    12    13    1
    24    12    39    1
    25    12    40    1
    26    13    14    1
    27    13    41    1
    28    13    42    1
    29    14    15    1
    30    14    43    1
    31    14    44    1
    32    15    16    1
    33    16    17   ar
    34    16    18   ar
    35    17    21   ar
    36    17    45    1
    37    18    19   ar
    38    18    46    1
    39    19    20   ar
    40    19    47    1
    41    20    21   ar
    42    20    48    1
    43    21    22    1
    44    22    23    1
    45    23    24   ar
    46    23    25   ar
    47    24    28   ar
    48    25    26   ar
    49    25    49    1
    50    26    27   ar
    51    27    28   ar
    52    28    29    1
    53    29    50    1
    54    29    51    1
