REMARK  1 active torsions:
REMARK  status: ('A' for Active; 'I' for Inactive)
REMARK    1  A    between atoms: C_28  and  N_29 
ROOT
ATOM      1  C   LIG d   1      10.555  -3.056  15.356  0.00  0.00     0.044 C 
ATOM      2  C   LIG d   1      10.348  -1.637  14.901  0.00  0.00    -0.038 A 
ATOM      3  C   LIG d   1       9.441  -1.394  13.850  0.00  0.00     0.008 A 
ATOM      4  C   LIG d   1       9.227  -0.105  13.330  0.00  0.00    -0.041 A 
ATOM      5  C   LIG d   1       8.248   0.074  12.196  0.00  0.00     0.044 C 
ATOM      6  C   LIG d   1       9.940   0.980  13.863  0.00  0.00     0.004 A 
ATOM      7  C   LIG d   1      10.825   0.735  14.945  0.00  0.00     0.023 A 
ATOM      8  C   LIG d   1      11.039  -0.551  15.464  0.00  0.00     0.040 A 
ATOM      9  C   LIG d   1      11.978  -0.713  16.625  0.00  0.00     0.244 C 
ATOM     10  O   LIG d   1      11.767  -1.546  17.497  0.00  0.00    -0.270 OA
ATOM     11  N   LIG d   1      13.069   0.134  16.644  0.00  0.00    -0.311 N 
ATOM     12  C   LIG d   1      14.083   0.088  17.682  0.00  0.00     0.108 C 
ATOM     13  C   LIG d   1      14.689   1.465  17.977  0.00  0.00     0.060 C 
ATOM     14  C   LIG d   1      15.411   2.058  16.763  0.00  0.00     0.230 C 
ATOM     15  O   LIG d   1      14.380   2.527  15.899  0.00  0.00    -0.492 OA
ATOM     16  C   LIG d   1      14.707   3.173  14.750  0.00  0.00     0.122 A 
ATOM     17  C   LIG d   1      13.638   3.894  14.211  0.00  0.00     0.060 A 
ATOM     18  C   LIG d   1      15.912   3.102  14.066  0.00  0.00     0.045 A 
ATOM     19  C   LIG d   1      16.029   3.738  12.826  0.00  0.00     0.005 A 
ATOM     20  C   LIG d   1      14.937   4.416  12.268  0.00  0.00     0.015 A 
ATOM     21  C   LIG d   1      13.719   4.484  12.957  0.00  0.00     0.018 A 
ATOM     22  S   LIG d   1      12.329   5.301  12.173  0.00  0.00    -0.070 SA
ATOM     23  C   LIG d   1      10.897   4.309  12.588  0.00  0.00     0.107 A 
ATOM     24  N   LIG d   1       9.725   4.967  12.662  0.00  0.00    -0.208 NA
ATOM     25  C   LIG d   1      10.993   2.967  12.849  0.00  0.00     0.063 A 
ATOM     26  C   LIG d   1       9.858   2.346  13.325  0.00  0.00     0.077 A 
ATOM     27  N   LIG d   1       8.674   2.982  13.408  0.00  0.00    -0.215 NA
ATOM     28  C   LIG d   1       8.658   4.271  13.064  0.00  0.00     0.214 A 
ATOM     29  H   LIG d   1      13.279   0.690  15.823  0.00  0.00     0.149 HD
ENDROOT
BRANCH  28  30
ATOM     30  N   LIG d   1       7.463   4.943  13.163  0.00  0.00    -0.327 N 
ATOM     31  H   LIG d   1       6.659   4.335  13.171  0.00  0.00     0.145 HD
ATOM     32  H   LIG d   1       7.439   5.795  12.623  0.00  0.00     0.145 HD
ENDBRANCH  28  30
TORSDOF 1
