@<TRIPOS>MOLECULE
2XAB_VHD_A_1224
 41 43 0 0 0
SMALL
USER_CHARGES

@<TRIPOS>ATOM
      1 C           1.5627   31.0812    0.7228 C.3     1  LIG1       -0.0585
      2 C           1.2863   32.4821    1.2723 C.3     1  LIG1       -0.0180
      3 C           2.3838   33.4523    0.8166 C.3     1  LIG1       -0.0585
      4 C          -0.1159   32.9247    0.8753 C.ar    1  LIG1       -0.0024
      5 C          -0.3566   33.5180   -0.3754 C.ar    1  LIG1       -0.0392
      6 C          -1.6454   33.9130   -0.7532 C.ar    1  LIG1        0.0787
      7 C          -1.8188   34.5914   -2.0650 C.2     1  LIG1        0.2507
      8 O          -2.3497   33.9850   -2.9862 O.2     1  LIG1       -0.2698
      9 N          -1.3135   35.8750   -2.1776 N.am    1  LIG1       -0.2888
     10 C          -1.4840   36.6554   -3.4067 C.3     1  LIG1        0.0407
     11 C          -1.2475   38.0658   -2.9530 C.ar    1  LIG1       -0.0254
     12 C          -1.3775   39.2475   -3.6623 C.ar    1  LIG1       -0.0568
     13 C          -1.1221   40.4503   -2.9973 C.ar    1  LIG1       -0.0614
     14 C          -0.7383   40.4565   -1.6456 C.ar    1  LIG1       -0.0614
     15 C          -0.5998   39.2605   -0.9404 C.ar    1  LIG1       -0.0568
     16 C          -0.8581   38.0756   -1.6072 C.ar    1  LIG1       -0.0254
     17 C          -0.7949   36.6822   -1.0773 C.3     1  LIG1        0.0407
     18 C          -2.7227   33.6782    0.0987 C.ar    1  LIG1        0.1324
     19 O          -3.9768   34.0808   -0.2620 O.3     1  LIG1       -0.5059
     20 C          -2.5135   33.0697    1.3397 C.ar    1  LIG1        0.0223
     21 C          -1.2174   32.7046    1.7192 C.ar    1  LIG1        0.1238
     22 O          -1.0027   32.1201    2.9387 O.3     1  LIG1       -0.5064
     23 H           2.5674   30.7457    1.0006 H       1  LIG1        0.0235
     24 H           1.4901   31.0595   -0.3703 H       1  LIG1        0.0235
     25 H           0.8451   30.3542    1.1187 H       1  LIG1        0.0235
     26 H           1.3548   32.4416    2.3667 H       1  LIG1        0.0345
     27 H           2.4482   33.5235   -0.2742 H       1  LIG1        0.0235
     28 H           3.3650   33.1187    1.1708 H       1  LIG1        0.0235
     29 H           2.2047   34.4583    1.2114 H       1  LIG1        0.0235
     30 H           0.4549   33.6798   -1.0804 H       1  LIG1        0.0630
     31 H          -2.4902   36.5136   -3.8117 H       1  LIG1        0.0514
     32 H          -0.7279   36.3436   -4.1337 H       1  LIG1        0.0514
     33 H          -1.6796   39.2477   -4.7055 H       1  LIG1        0.0621
     34 H          -1.2308   41.3939   -3.5263 H       1  LIG1        0.0618
     35 H          -0.5510   41.4029   -1.1431 H       1  LIG1        0.0618
     36 H          -0.3107   39.2643    0.1055 H       1  LIG1        0.0621
     37 H           0.2403   36.3861   -0.8824 H       1  LIG1        0.0514
     38 H          -1.4166   36.5543   -0.1876 H       1  LIG1        0.0514
     39 H          -4.6262   33.7746    0.3909 H       1  LIG1        0.2922
     40 H          -3.3494   32.8867    2.0066 H       1  LIG1        0.0691
     41 H          -1.8427   32.0460    3.4202 H       1  LIG1        0.2921
@<TRIPOS>BOND
     1     1     2    1
     2     1    23    1
     3     1    24    1
     4     1    25    1
     5     2     3    1
     6     2     4    1
     7     2    26    1
     8     3    27    1
     9     3    28    1
    10     3    29    1
    11     4     5   ar
    12     4    21   ar
    13     5     6   ar
    14     5    30    1
    15     6     7    1
    16     6    18   ar
    17     7     8    2
    18     7     9   am
    19     9    10    1
    20     9    17    1
    21    10    11    1
    22    10    31    1
    23    10    32    1
    24    11    12   ar
    25    11    16   ar
    26    12    13   ar
    27    12    33    1
    28    13    14   ar
    29    13    34    1
    30    14    15   ar
    31    14    35    1
    32    15    16   ar
    33    15    36    1
    34    16    17    1
    35    17    37    1
    36    17    38    1
    37    18    19    1
    38    18    20   ar
    39    19    39    1
    40    20    21   ar
    41    20    40    1
    42    21    22    1
    43    22    41    1
