REMARK  4 active torsions:
REMARK  status: ('A' for Active; 'I' for Inactive)
REMARK    1  A    between atoms: C_2  and  C_4 
REMARK    2  A    between atoms: C_6  and  C_7 
REMARK       I    between atoms: C_7  and  N_9 
REMARK    3  A    between atoms: C_18  and  O_19 
REMARK    4  A    between atoms: C_21  and  O_22 
ROOT
ATOM      1  C   LIG d   1      -0.116  32.925   0.875  0.00  0.00    -0.002 A 
ATOM      2  C   LIG d   1      -0.357  33.518  -0.375  0.00  0.00     0.024 A 
ATOM      3  C   LIG d   1      -1.645  33.913  -0.753  0.00  0.00     0.079 A 
ATOM      4  C   LIG d   1      -2.723  33.678   0.099  0.00  0.00     0.132 A 
ATOM      5  C   LIG d   1      -2.514  33.070   1.340  0.00  0.00     0.091 A 
ATOM      6  C   LIG d   1      -1.217  32.705   1.719  0.00  0.00     0.124 A 
ENDROOT
BRANCH   3   7
ATOM      7  C   LIG d   1      -1.819  34.591  -2.065  0.00  0.00     0.251 C 
ATOM      8  O   LIG d   1      -2.350  33.985  -2.986  0.00  0.00    -0.270 OA
ATOM      9  N   LIG d   1      -1.313  35.875  -2.178  0.00  0.00    -0.289 N 
ATOM     10  C   LIG d   1      -1.484  36.655  -3.407  0.00  0.00     0.144 C 
ATOM     11  C   LIG d   1      -0.795  36.682  -1.077  0.00  0.00     0.144 C 
ATOM     12  C   LIG d   1      -1.248  38.066  -2.953  0.00  0.00    -0.025 A 
ATOM     13  C   LIG d   1      -1.377  39.248  -3.662  0.00  0.00     0.005 A 
ATOM     14  C   LIG d   1      -0.858  38.076  -1.607  0.00  0.00    -0.025 A 
ATOM     15  C   LIG d   1      -1.122  40.450  -2.997  0.00  0.00     0.000 A 
ATOM     16  C   LIG d   1      -0.738  40.456  -1.646  0.00  0.00     0.000 A 
ATOM     17  C   LIG d   1      -0.600  39.261  -0.940  0.00  0.00     0.005 A 
ENDBRANCH   3   7
BRANCH   4  18
ATOM     18  O   LIG d   1      -3.977  34.081  -0.262  0.00  0.00    -0.506 OA
ATOM     19  H   LIG d   1      -4.626  33.775   0.391  0.00  0.00     0.292 HD
ENDBRANCH   4  18
BRANCH   1  20
ATOM     20  C   LIG d   1       1.286  32.482   1.272  0.00  0.00     0.017 C 
ATOM     21  C   LIG d   1       1.563  31.081   0.723  0.00  0.00     0.012 C 
ATOM     22  C   LIG d   1       2.384  33.452   0.817  0.00  0.00     0.012 C 
ENDBRANCH   1  20
BRANCH   6  23
ATOM     23  O   LIG d   1      -1.003  32.120   2.939  0.00  0.00    -0.506 OA
ATOM     24  H   LIG d   1      -1.843  32.046   3.420  0.00  0.00     0.292 HD
ENDBRANCH   6  23
TORSDOF 4
