REMARK  1 active torsions:
REMARK  status: ('A' for Active; 'I' for Inactive)
REMARK    1  A    between atoms: C_16  and  N_18 
ROOT
ATOM      1  C   LIG d   1     -11.741  -5.305 -10.666  0.00  0.00     0.004 A 
ATOM      2  C   LIG d   1     -10.646  -6.002 -11.213  0.00  0.00    -0.041 A 
ATOM      3  C   LIG d   1      -9.349  -5.747 -10.706  0.00  0.00     0.008 A 
ATOM      4  C   LIG d   1      -9.107  -4.815  -9.676  0.00  0.00    -0.038 A 
ATOM      5  C   LIG d   1     -10.201  -4.122  -9.143  0.00  0.00     0.040 A 
ATOM      6  C   LIG d   1     -11.491  -4.388  -9.626  0.00  0.00     0.023 A 
ATOM      7  C   LIG d   1     -10.098  -3.117  -8.049  0.00  0.00     0.244 C 
ATOM      8  C   LIG d   1      -7.700  -4.579  -9.199  0.00  0.00     0.044 C 
ATOM      9  O   LIG d   1      -9.501  -3.370  -7.012  0.00  0.00    -0.270 OA
ATOM     10  N   LIG d   1     -10.787  -1.946  -8.284  0.00  0.00    -0.311 N 
ATOM     11  C   LIG d   1     -10.787  -6.986 -12.354  0.00  0.00     0.044 C 
ATOM     12  C   LIG d   1     -13.124  -5.402 -11.167  0.00  0.00     0.077 A 
ATOM     13  C   LIG d   1     -13.799  -4.257 -11.527  0.00  0.00     0.063 A 
ATOM     14  C   LIG d   1     -15.090  -4.408 -11.967  0.00  0.00     0.103 A 
ATOM     15  N   LIG d   1     -15.680  -5.615 -12.050  0.00  0.00    -0.208 NA
ATOM     16  C   LIG d   1     -14.957  -6.676 -11.683  0.00  0.00     0.214 A 
ATOM     17  N   LIG d   1     -13.699  -6.616 -11.232  0.00  0.00    -0.215 NA
ATOM     18  C   LIG d   1     -10.865  -0.881  -7.305  0.00  0.00     0.106 C 
ATOM     19  C   LIG d   1     -11.987   0.086  -7.671  0.00  0.00     0.037 C 
ATOM     20  C   LIG d   1     -13.361  -0.421  -7.225  0.00  0.00     0.105 C 
ATOM     21  N   LIG d   1     -14.007  -1.314  -8.185  0.00  0.00    -0.315 N 
ATOM     22  C   LIG d   1     -14.862  -0.838  -9.163  0.00  0.00     0.214 C 
ATOM     23  C   LIG d   1     -15.557  -1.881  -9.995  0.00  0.00     0.107 C 
ATOM     24  O   LIG d   1     -15.055   0.370  -9.349  0.00  0.00    -0.276 OA
ATOM     25  C   LIG d   1     -15.363  -1.630 -11.492  0.00  0.00     0.085 C 
ATOM     26  S   LIG d   1     -16.087  -3.007 -12.469  0.00  0.00    -0.105 SA
ATOM     27  H   LIG d   1     -11.170  -1.774  -9.204  0.00  0.00     0.149 HD
ATOM     28  H   LIG d   1     -13.902  -2.309  -8.051  0.00  0.00     0.149 HD
ENDROOT
BRANCH  16  29
ATOM     29  N   LIG d   1     -15.530  -7.913 -11.764  0.00  0.00    -0.327 N 
ATOM     30  H   LIG d   1     -14.987  -8.707 -11.472  0.00  0.00     0.145 HD
ATOM     31  H   LIG d   1     -16.481  -7.997 -12.080  0.00  0.00     0.145 HD
ENDBRANCH  16  29
TORSDOF 1
