@<TRIPOS>MOLECULE
3VHD_VHE_A_1
 50 52 0 0 0
SMALL
USER_CHARGES

@<TRIPOS>ATOM
      1 C         -11.7414   -5.3052  -10.6664 C.ar    1  LIG1        0.0042
      2 C         -10.6460   -6.0023  -11.2133 C.ar    1  LIG1       -0.0410
      3 C          -9.3494   -5.7475  -10.7056 C.ar    1  LIG1       -0.0546
      4 C          -9.1075   -4.8147   -9.6757 C.ar    1  LIG1       -0.0381
      5 C         -10.2007   -4.1215   -9.1430 C.ar    1  LIG1        0.0402
      6 C         -11.4910   -4.3880   -9.6260 C.ar    1  LIG1       -0.0399
      7 C         -10.0976   -3.1169   -8.0494 C.2     1  LIG1        0.2443
      8 C          -7.7005   -4.5788   -9.1991 C.3     1  LIG1       -0.0390
      9 O          -9.5006   -3.3698   -7.0119 O.2     1  LIG1       -0.2702
     10 N         -10.7866   -1.9457   -8.2842 N.am    1  LIG1       -0.3113
     11 C         -10.7872   -6.9857  -12.3543 C.3     1  LIG1       -0.0391
     12 C         -13.1244   -5.4015  -11.1668 C.ar    1  LIG1        0.0774
     13 C         -13.7990   -4.2569  -11.5266 C.ar    1  LIG1       -0.0036
     14 C         -15.0898   -4.4080  -11.9672 C.ar    1  LIG1        0.1026
     15 N         -15.6799   -5.6149  -12.0501 N.ar    1  LIG1       -0.2083
     16 C         -14.9568   -6.6760  -11.6830 C.ar    1  LIG1        0.2141
     17 N         -13.6989   -6.6162  -11.2323 N.ar    1  LIG1       -0.2146
     18 N         -15.5302   -7.9131  -11.7635 N.pl3   1  LIG1       -0.3274
     19 C         -10.8651   -0.8811   -7.3046 C.3     1  LIG1        0.0133
     20 C         -11.9873    0.0861   -7.6707 C.3     1  LIG1       -0.0217
     21 C         -13.3613   -0.4209   -7.2253 C.3     1  LIG1        0.0130
     22 N         -14.0068   -1.3138   -8.1855 N.am    1  LIG1       -0.3152
     23 C         -14.8623   -0.8384   -9.1633 C.2     1  LIG1        0.2138
     24 C         -15.5575   -1.8814   -9.9948 C.3     1  LIG1        0.0333
     25 O         -15.0545    0.3702   -9.3494 O.2     1  LIG1       -0.2758
     26 C         -15.3631   -1.6298  -11.4925 C.3     1  LIG1        0.0080
     27 S         -16.0869   -3.0075  -12.4689 S.3     1  LIG1       -0.1053
     28 H          -8.5037   -6.2822  -11.1358 H       1  LIG1        0.0623
     29 H         -12.3277   -3.8695   -9.1632 H       1  LIG1        0.0632
     30 H          -6.9942   -5.2257   -9.7296 H       1  LIG1        0.0278
     31 H          -7.6021   -4.8015   -8.1319 H       1  LIG1        0.0278
     32 H          -7.3993   -3.5436   -9.3857 H       1  LIG1        0.0278
     33 H         -11.1696   -1.7741   -9.2041 H       1  LIG1        0.1490
     34 H         -11.8183   -7.1145  -12.6876 H       1  LIG1        0.0278
     35 H         -10.4225   -7.9752  -12.0578 H       1  LIG1        0.0278
     36 H         -10.2216   -6.6484  -13.2300 H       1  LIG1        0.0278
     37 H         -13.3103   -3.2965  -11.4441 H       1  LIG1        0.0665
     38 H         -14.9873   -8.7071  -11.4724 H       1  LIG1        0.1452
     39 H         -16.4812   -7.9967  -12.0796 H       1  LIG1        0.1452
     40 H          -9.9015   -0.3649   -7.2860 H       1  LIG1        0.0462
     41 H         -11.0116   -1.3170   -6.3101 H       1  LIG1        0.0462
     42 H         -11.9821    0.2856   -8.7503 H       1  LIG1        0.0295
     43 H         -11.7932    1.0385   -7.1623 H       1  LIG1        0.0295
     44 H         -14.0160    0.4436   -7.0669 H       1  LIG1        0.0462
     45 H         -13.2835   -0.9519   -6.2715 H       1  LIG1        0.0462
     46 H         -13.9017   -2.3086   -8.0510 H       1  LIG1        0.1487
     47 H         -16.6317   -1.8572   -9.7609 H       1  LIG1        0.0366
     48 H         -15.1885   -2.8672   -9.7117 H       1  LIG1        0.0366
     49 H         -14.3067   -1.5026  -11.7528 H       1  LIG1        0.0385
     50 H         -15.8538   -0.6990  -11.8038 H       1  LIG1        0.0385
@<TRIPOS>BOND
     1     1     2   ar
     2     1     6   ar
     3     1    12    1
     4     2     3   ar
     5     2    11    1
     6     3     4   ar
     7     3    28    1
     8     4     5   ar
     9     4     8    1
    10     5     6   ar
    11     5     7    1
    12     6    29    1
    13     7     9    2
    14     7    10   am
    15     8    30    1
    16     8    31    1
    17     8    32    1
    18    10    19    1
    19    10    33    1
    20    11    34    1
    21    11    35    1
    22    11    36    1
    23    12    13   ar
    24    12    17   ar
    25    13    14   ar
    26    13    37    1
    27    14    15   ar
    28    14    27    1
    29    15    16   ar
    30    16    17   ar
    31    16    18    1
    32    18    38    1
    33    18    39    1
    34    19    20    1
    35    19    40    1
    36    19    41    1
    37    20    21    1
    38    20    42    1
    39    20    43    1
    40    21    22    1
    41    21    44    1
    42    21    45    1
    43    22    23   am
    44    22    46    1
    45    23    24    1
    46    23    25    2
    47    24    26    1
    48    24    47    1
    49    24    48    1
    50    26    27    1
    51    26    49    1
    52    26    50    1
