3VHD_VHE_A_1
 OpenBabel03301717243D

 50 52  0  0  0  0  0  0  0  0999 V2000
  -11.7414   -5.3052  -10.6664 C   0  0  0  0  0  0  0  0  0  0  0  0
  -10.6460   -6.0023  -11.2133 C   0  0  0  0  0  0  0  0  0  0  0  0
   -9.3494   -5.7475  -10.7056 C   0  0  0  0  0  0  0  0  0  0  0  0
   -9.1075   -4.8147   -9.6757 C   0  0  0  0  0  0  0  0  0  0  0  0
  -10.2007   -4.1215   -9.1430 C   0  0  0  0  0  0  0  0  0  0  0  0
  -11.4910   -4.3880   -9.6260 C   0  0  0  0  0  0  0  0  0  0  0  0
  -10.0976   -3.1169   -8.0494 C   0  0  0  0  0  0  0  0  0  0  0  0
   -7.7005   -4.5788   -9.1991 C   0  0  0  0  0  0  0  0  0  0  0  0
   -9.5006   -3.3698   -7.0119 O   0  0  0  0  0  0  0  0  0  0  0  0
  -10.7866   -1.9457   -8.2842 N   0  0  0  0  0  0  0  0  0  0  0  0
  -10.7872   -6.9857  -12.3543 C   0  0  0  0  0  0  0  0  0  0  0  0
  -13.1244   -5.4015  -11.1668 C   0  0  0  0  0  0  0  0  0  0  0  0
  -13.7990   -4.2569  -11.5266 C   0  0  0  0  0  0  0  0  0  0  0  0
  -15.0898   -4.4080  -11.9672 C   0  0  0  0  0  0  0  0  0  0  0  0
  -15.6799   -5.6149  -12.0501 N   0  0  0  0  0  0  0  0  0  0  0  0
  -14.9568   -6.6760  -11.6830 C   0  0  0  0  0  0  0  0  0  0  0  0
  -13.6989   -6.6162  -11.2323 N   0  0  0  0  0  0  0  0  0  0  0  0
  -15.5302   -7.9131  -11.7635 N   0  0  0  0  0  0  0  0  0  0  0  0
  -10.8651   -0.8811   -7.3046 C   0  0  0  0  0  0  0  0  0  0  0  0
  -11.9873    0.0861   -7.6707 C   0  0  0  0  0  0  0  0  0  0  0  0
  -13.3613   -0.4209   -7.2253 C   0  0  0  0  0  0  0  0  0  0  0  0
  -14.0068   -1.3138   -8.1855 N   0  0  0  0  0  0  0  0  0  0  0  0
  -14.8623   -0.8384   -9.1633 C   0  0  0  0  0  0  0  0  0  0  0  0
  -15.5575   -1.8814   -9.9948 C   0  0  0  0  0  0  0  0  0  0  0  0
  -15.0545    0.3702   -9.3494 O   0  0  0  0  0  0  0  0  0  0  0  0
  -15.3631   -1.6298  -11.4925 C   0  0  0  0  0  0  0  0  0  0  0  0
  -16.0869   -3.0075  -12.4689 S   0  0  0  0  0  0  0  0  0  0  0  0
   -8.5037   -6.2822  -11.1358 H   0  0  0  0  0  0  0  0  0  0  0  0
  -12.3277   -3.8695   -9.1632 H   0  0  0  0  0  0  0  0  0  0  0  0
   -6.9942   -5.2257   -9.7296 H   0  0  0  0  0  0  0  0  0  0  0  0
   -7.6021   -4.8015   -8.1319 H   0  0  0  0  0  0  0  0  0  0  0  0
   -7.3993   -3.5436   -9.3857 H   0  0  0  0  0  0  0  0  0  0  0  0
  -11.1696   -1.7741   -9.2041 H   0  0  0  0  0  0  0  0  0  0  0  0
  -11.8183   -7.1145  -12.6876 H   0  0  0  0  0  0  0  0  0  0  0  0
  -10.4225   -7.9752  -12.0578 H   0  0  0  0  0  0  0  0  0  0  0  0
  -10.2216   -6.6484  -13.2300 H   0  0  0  0  0  0  0  0  0  0  0  0
  -13.3103   -3.2965  -11.4441 H   0  0  0  0  0  0  0  0  0  0  0  0
  -14.9873   -8.7071  -11.4724 H   0  0  0  0  0  0  0  0  0  0  0  0
  -16.4812   -7.9967  -12.0796 H   0  0  0  0  0  0  0  0  0  0  0  0
   -9.9015   -0.3649   -7.2860 H   0  0  0  0  0  0  0  0  0  0  0  0
  -11.0116   -1.3170   -6.3101 H   0  0  0  0  0  0  0  0  0  0  0  0
  -11.9821    0.2856   -8.7503 H   0  0  0  0  0  0  0  0  0  0  0  0
  -11.7932    1.0385   -7.1623 H   0  0  0  0  0  0  0  0  0  0  0  0
  -14.0160    0.4436   -7.0669 H   0  0  0  0  0  0  0  0  0  0  0  0
  -13.2835   -0.9519   -6.2715 H   0  0  0  0  0  0  0  0  0  0  0  0
  -13.9017   -2.3086   -8.0510 H   0  0  0  0  0  0  0  0  0  0  0  0
  -16.6317   -1.8572   -9.7609 H   0  0  0  0  0  0  0  0  0  0  0  0
  -15.1885   -2.8672   -9.7117 H   0  0  0  0  0  0  0  0  0  0  0  0
  -14.3067   -1.5026  -11.7528 H   0  0  0  0  0  0  0  0  0  0  0  0
  -15.8538   -0.6990  -11.8038 H   0  0  0  0  0  0  0  0  0  0  0  0
  1  2  2  0  0  0  0
  1  6  1  0  0  0  0
  1 12  1  0  0  0  0
  2  3  1  0  0  0  0
  2 11  1  0  0  0  0
  3  4  2  0  0  0  0
  3 28  1  0  0  0  0
  4  5  1  0  0  0  0
  4  8  1  0  0  0  0
  5  6  2  0  0  0  0
  5  7  1  0  0  0  0
  6 29  1  0  0  0  0
  7  9  2  0  0  0  0
  7 10  1  0  0  0  0
  8 30  1  0  0  0  0
  8 31  1  0  0  0  0
  8 32  1  0  0  0  0
 10 19  1  0  0  0  0
 10 33  1  0  0  0  0
 11 34  1  0  0  0  0
 11 35  1  0  0  0  0
 11 36  1  0  0  0  0
 12 13  2  0  0  0  0
 12 17  1  0  0  0  0
 13 14  1  0  0  0  0
 13 37  1  0  0  0  0
 14 15  2  0  0  0  0
 14 27  1  0  0  0  0
 15 16  1  0  0  0  0
 16 17  2  0  0  0  0
 16 18  1  0  0  0  0
 18 38  1  0  0  0  0
 18 39  1  0  0  0  0
 19 20  1  0  0  0  0
 19 40  1  0  0  0  0
 19 41  1  0  0  0  0
 20 21  1  0  0  0  0
 20 42  1  0  0  0  0
 20 43  1  0  0  0  0
 21 22  1  0  0  0  0
 21 44  1  0  0  0  0
 21 45  1  0  0  0  0
 22 23  1  0  0  0  0
 22 46  1  0  0  0  0
 23 24  1  0  0  0  0
 23 25  2  0  0  0  0
 24 26  1  0  0  0  0
 24 47  1  0  0  0  0
 24 48  1  0  0  0  0
 26 27  1  0  0  0  0
 26 49  1  0  0  0  0
 26 50  1  0  0  0  0
M  END
$$$$
