@<TRIPOS>MOLECULE
4JQL_VJ6_A_301
 81 82 0 0 0
SMALL
USER_CHARGES

@<TRIPOS>ATOM
      1 C          36.0010    2.6650   54.9721 C.2     1  LIG1        0.2437
      2 N          35.5740    3.6076   54.0755 N.am    1  LIG1       -0.2817
      3 O          36.8330    1.8277   54.6284 O.2     1  LIG1       -0.2702
      4 C          35.4957    2.6739   56.3761 C.2     1  LIG1        0.0076
      5 N          38.4667    9.8114   60.2045 N.am    1  LIG1       -0.2950
      6 O          37.1486    5.5710   60.0784 O.3     1  LIG1       -0.4432
      7 C          35.6393    3.7469   57.1787 C.2     1  LIG1       -0.0760
      8 N          39.2895    5.9497   60.6703 N.am    1  LIG1       -0.2950
      9 O          37.1007    8.2679   59.3622 O.3     1  LIG1       -0.4390
     10 C          35.2029    3.7742   58.6312 C.3     1  LIG1       -0.0306
     11 O          36.3458    9.6936   60.9832 O.2     1  LIG1       -0.2267
     12 C          34.9099    5.1842   59.1229 C.3     1  LIG1       -0.0083
     13 O          30.2140    9.4171   58.0198 O.3     1  LIG1       -0.3766
     14 C          36.1804    6.0471   59.1040 C.3     1  LIG1        0.1455
     15 O          29.8458    6.6907   59.2445 O.3     1  LIG1       -0.3749
     16 C          35.8753    7.5099   59.4631 C.3     1  LIG1        0.1622
     17 O          38.8091    5.6808   58.4913 O.2     1  LIG1       -0.2267
     18 C          34.8305    8.1321   58.5605 C.2     1  LIG1       -0.0326
     19 O          34.1920    8.1267   53.2064 O.3     1  LIG1       -0.4950
     20 C          33.6761    8.5364   59.1195 C.2     1  LIG1       -0.0761
     21 O          31.2191    5.5027   56.9902 O.3     1  LIG1       -0.3725
     22 C          32.5619    9.2659   58.4325 C.3     1  LIG1        0.0034
     23 C          31.1730    8.7475   58.8593 C.3     1  LIG1        0.0925
     24 C          31.0594    7.2177   58.6824 C.3     1  LIG1        0.1081
     25 C          31.0250    6.9011   57.1905 C.3     1  LIG1        0.0767
     26 C          28.9995    9.7457   58.6713 C.3     1  LIG1        0.0369
     27 C          31.1227    5.1569   55.6149 C.3     1  LIG1        0.0730
     28 C          32.4277    5.4172   54.9100 C.ar    1  LIG1       -0.0167
     29 C          32.7165    6.6700   54.3442 C.ar    1  LIG1       -0.0145
     30 C          33.9388    6.8776   53.7094 C.ar    1  LIG1        0.1222
     31 C          34.8676    5.8368   53.6415 C.ar    1  LIG1        0.0013
     32 C          34.5998    4.6011   54.2129 C.ar    1  LIG1        0.0375
     33 C          33.3819    4.3917   54.8470 C.ar    1  LIG1       -0.0349
     34 C          34.9389    1.3929   56.8828 C.3     1  LIG1       -0.0351
     35 C          38.4354    5.6884   59.6511 C.2     1  LIG1        0.3981
     36 C          37.1989    9.2831   60.2245 C.2     1  LIG1        0.3984
     37 C          35.1561    8.2820   57.1011 C.3     1  LIG1       -0.0402
     38 C          32.6724   10.7381   58.8065 C.3     1  LIG1       -0.0565
     39 C          29.7560    6.8256   60.6503 C.3     1  LIG1        0.0370
     40 C          34.8936    8.0634   51.9642 C.3     1  LIG1        0.0788
     41 H          36.1211    3.6072   53.2198 H       1  LIG1        0.1551
     42 H          38.6578   10.5538   60.8433 H       1  LIG1        0.1482
     43 H          39.1679    9.4139   59.6092 H       1  LIG1        0.1482
     44 H          36.1088    4.6324   56.7599 H       1  LIG1        0.0576
     45 H          40.1885    6.3262   60.4029 H       1  LIG1        0.1482
     46 H          38.9890    6.0113   61.6292 H       1  LIG1        0.1482
     47 H          34.2907    3.1839   58.7709 H       1  LIG1        0.0309
     48 H          35.9788    3.3300   59.2646 H       1  LIG1        0.0309
     49 H          34.5008    5.1421   60.1405 H       1  LIG1        0.0305
     50 H          34.1280    5.6085   58.4813 H       1  LIG1        0.0305
     51 H          36.6103    6.0313   58.1005 H       1  LIG1        0.0775
     52 H          35.5299    7.4957   60.5058 H       1  LIG1        0.0820
     53 H          33.5218    8.3521   60.1842 H       1  LIG1        0.0576
     54 H          32.6610    9.2027   57.3438 H       1  LIG1        0.0366
     55 H          31.0172    9.0306   59.9062 H       1  LIG1        0.0628
     56 H          31.8979    6.6920   59.1568 H       1  LIG1        0.0645
     57 H          31.8212    7.4379   56.6766 H       1  LIG1        0.0587
     58 H          30.0591    7.2024   56.7679 H       1  LIG1        0.0587
     59 H          28.3426   10.2003   57.9261 H       1  LIG1        0.0524
     60 H          29.1893   10.4762   59.4623 H       1  LIG1        0.0524
     61 H          28.4957    8.8660   59.0771 H       1  LIG1        0.0524
     62 H          30.8959    4.0868   55.5815 H       1  LIG1        0.0610
     63 H          30.2902    5.6702   55.1195 H       1  LIG1        0.0610
     64 H          31.9920    7.4816   54.4018 H       1  LIG1        0.0657
     65 H          35.8444    5.9887   53.1987 H       1  LIG1        0.0673
     66 H          33.1400    3.4179   55.2563 H       1  LIG1        0.0640
     67 H          34.9319    0.6161   56.1135 H       1  LIG1        0.0279
     68 H          33.9057    1.5478   57.2116 H       1  LIG1        0.0279
     69 H          35.5270    1.0324   57.7304 H       1  LIG1        0.0279
     70 H          36.1359    7.8623   56.8530 H       1  LIG1        0.0276
     71 H          35.1696    9.3369   56.8141 H       1  LIG1        0.0276
     72 H          34.4226    7.7503   56.4900 H       1  LIG1        0.0276
     73 H          32.5636   10.8669   59.8893 H       1  LIG1        0.0236
     74 H          31.8915   11.3207   58.3111 H       1  LIG1        0.0236
     75 H          33.6447   11.1374   58.5054 H       1  LIG1        0.0236
     76 H          28.8196    6.3596   60.9584 H       1  LIG1        0.0524
     77 H          29.7049    7.8767   60.9415 H       1  LIG1        0.0524
     78 H          30.5951    6.3367   61.1520 H       1  LIG1        0.0524
     79 H          35.0817    9.0755   51.6014 H       1  LIG1        0.0660
     80 H          34.2852    7.5240   51.2305 H       1  LIG1        0.0660
     81 H          35.8758    7.5933   52.0654 H       1  LIG1        0.0660
@<TRIPOS>BOND
     1     1     2   am
     2     1     3    2
     3     1     4    1
     4     2    32    1
     5     2    41    1
     6     4     7    2
     7     4    34    1
     8     5    36   am
     9     5    42    1
    10     5    43    1
    11     6    14    1
    12     6    35    1
    13     7    10    1
    14     7    44    1
    15     8    35   am
    16     8    45    1
    17     8    46    1
    18     9    16    1
    19     9    36    1
    20    10    12    1
    21    10    47    1
    22    10    48    1
    23    11    36    2
    24    12    14    1
    25    12    49    1
    26    12    50    1
    27    13    23    1
    28    13    26    1
    29    14    16    1
    30    14    51    1
    31    15    24    1
    32    15    39    1
    33    16    18    1
    34    16    52    1
    35    17    35    2
    36    18    20    2
    37    18    37    1
    38    19    30    1
    39    19    40    1
    40    20    22    1
    41    20    53    1
    42    21    25    1
    43    21    27    1
    44    22    23    1
    45    22    38    1
    46    22    54    1
    47    23    24    1
    48    23    55    1
    49    24    25    1
    50    24    56    1
    51    25    57    1
    52    25    58    1
    53    26    59    1
    54    26    60    1
    55    26    61    1
    56    27    28    1
    57    27    62    1
    58    27    63    1
    59    28    29   ar
    60    28    33   ar
    61    29    30   ar
    62    29    64    1
    63    30    31   ar
    64    31    32   ar
    65    31    65    1
    66    32    33   ar
    67    33    66    1
    68    34    67    1
    69    34    68    1
    70    34    69    1
    71    37    70    1
    72    37    71    1
    73    37    72    1
    74    38    73    1
    75    38    74    1
    76    38    75    1
    77    39    76    1
    78    39    77    1
    79    39    78    1
    80    40    79    1
    81    40    80    1
    82    40    81    1
