REMARK  7 active torsions:
REMARK  status: ('A' for Active; 'I' for Inactive)
REMARK       I    between atoms: N_5  and  C_36 
REMARK    1  A    between atoms: O_6  and  C_14 
REMARK    2  A    between atoms: O_6  and  C_35 
REMARK       I    between atoms: N_8  and  C_35 
REMARK    3  A    between atoms: O_9  and  C_16 
REMARK    4  A    between atoms: O_9  and  C_36 
REMARK    5  A    between atoms: O_13  and  C_23 
REMARK    6  A    between atoms: O_15  and  C_24 
REMARK    7  A    between atoms: O_19  and  C_30 
ROOT
ATOM      1  C   LIG d   1      36.001   2.665  54.972  0.00  0.00     0.244 C 
ATOM      2  N   LIG d   1      35.574   3.608  54.075  0.00  0.00    -0.282 N 
ATOM      3  O   LIG d   1      36.833   1.828  54.628  0.00  0.00    -0.270 OA
ATOM      4  C   LIG d   1      35.496   2.674  56.376  0.00  0.00     0.008 C 
ATOM      5  C   LIG d   1      35.639   3.747  57.179  0.00  0.00    -0.018 C 
ATOM      6  C   LIG d   1      35.203   3.774  58.631  0.00  0.00     0.031 C 
ATOM      7  C   LIG d   1      34.910   5.184  59.123  0.00  0.00     0.053 C 
ATOM      8  C   LIG d   1      36.180   6.047  59.104  0.00  0.00     0.223 C 
ATOM      9  C   LIG d   1      35.875   7.510  59.463  0.00  0.00     0.244 C 
ATOM     10  C   LIG d   1      34.831   8.132  58.560  0.00  0.00    -0.033 C 
ATOM     11  C   LIG d   1      33.676   8.536  59.120  0.00  0.00    -0.019 C 
ATOM     12  O   LIG d   1      31.219   5.503  56.990  0.00  0.00    -0.372 OA
ATOM     13  C   LIG d   1      32.562   9.266  58.432  0.00  0.00     0.040 C 
ATOM     14  C   LIG d   1      31.173   8.748  58.859  0.00  0.00     0.155 C 
ATOM     15  C   LIG d   1      31.059   7.218  58.682  0.00  0.00     0.173 C 
ATOM     16  C   LIG d   1      31.025   6.901  57.191  0.00  0.00     0.194 C 
ATOM     17  C   LIG d   1      31.123   5.157  55.615  0.00  0.00     0.195 C 
ATOM     18  C   LIG d   1      32.428   5.417  54.910  0.00  0.00    -0.017 A 
ATOM     19  C   LIG d   1      32.717   6.670  54.344  0.00  0.00     0.051 A 
ATOM     20  C   LIG d   1      33.939   6.878  53.709  0.00  0.00     0.122 A 
ATOM     21  C   LIG d   1      34.868   5.837  53.642  0.00  0.00     0.069 A 
ATOM     22  C   LIG d   1      34.600   4.601  54.213  0.00  0.00     0.037 A 
ATOM     23  C   LIG d   1      33.382   4.392  54.847  0.00  0.00     0.029 A 
ATOM     24  C   LIG d   1      34.939   1.393  56.883  0.00  0.00     0.049 C 
ATOM     25  C   LIG d   1      35.156   8.282  57.101  0.00  0.00     0.043 C 
ATOM     26  C   LIG d   1      32.672  10.738  58.806  0.00  0.00     0.014 C 
ATOM     27  H   LIG d   1      36.121   3.607  53.220  0.00  0.00     0.155 HD
ENDROOT
BRANCH   8  28
ATOM     28  O   LIG d   1      37.149   5.571  60.078  0.00  0.00    -0.443 OA
BRANCH  28  29
ATOM     29  C   LIG d   1      38.435   5.688  59.651  0.00  0.00     0.398 C 
ATOM     30  N   LIG d   1      39.289   5.950  60.670  0.00  0.00    -0.295 N 
ATOM     31  H   LIG d   1      40.188   6.326  60.403  0.00  0.00     0.148 HD
ATOM     32  H   LIG d   1      38.989   6.011  61.629  0.00  0.00     0.148 HD
ATOM     33  O   LIG d   1      38.809   5.681  58.491  0.00  0.00    -0.227 OA
ENDBRANCH  28  29
ENDBRANCH   8  28
BRANCH   9  34
ATOM     34  O   LIG d   1      37.101   8.268  59.362  0.00  0.00    -0.439 OA
BRANCH  34  35
ATOM     35  C   LIG d   1      37.199   9.283  60.224  0.00  0.00     0.398 C 
ATOM     36  N   LIG d   1      38.467   9.811  60.205  0.00  0.00    -0.295 N 
ATOM     37  H   LIG d   1      38.658  10.554  60.843  0.00  0.00     0.148 HD
ATOM     38  H   LIG d   1      39.168   9.414  59.609  0.00  0.00     0.148 HD
ATOM     39  O   LIG d   1      36.346   9.694  60.983  0.00  0.00    -0.227 OA
ENDBRANCH  34  35
ENDBRANCH   9  34
BRANCH  14  40
ATOM     40  O   LIG d   1      30.214   9.417  58.020  0.00  0.00    -0.377 OA
ATOM     41  C   LIG d   1      29.000   9.746  58.671  0.00  0.00     0.194 C 
ENDBRANCH  14  40
BRANCH  15  42
ATOM     42  O   LIG d   1      29.846   6.691  59.245  0.00  0.00    -0.375 OA
ATOM     43  C   LIG d   1      29.756   6.826  60.650  0.00  0.00     0.194 C 
ENDBRANCH  15  42
BRANCH  20  44
ATOM     44  O   LIG d   1      34.192   8.127  53.206  0.00  0.00    -0.495 OA
ATOM     45  C   LIG d   1      34.894   8.063  51.964  0.00  0.00     0.277 C 
ENDBRANCH  20  44
TORSDOF 7
