4JQL_VJ6_A_301
 OpenBabel03301717303D

 81 82  0  0  1  0  0  0  0  0999 V2000
   36.0010    2.6650   54.9721 C   0  0  0  0  0  0  0  0  0  0  0  0
   35.5740    3.6076   54.0755 N   0  0  0  0  0  0  0  0  0  0  0  0
   36.8330    1.8277   54.6284 O   0  0  0  0  0  0  0  0  0  0  0  0
   35.4957    2.6739   56.3761 C   0  0  0  0  0  0  0  0  0  0  0  0
   38.4667    9.8114   60.2045 N   0  0  0  0  0  0  0  0  0  0  0  0
   37.1486    5.5710   60.0784 O   0  0  0  0  0  0  0  0  0  0  0  0
   35.6393    3.7469   57.1787 C   0  0  0  0  0  0  0  0  0  0  0  0
   39.2895    5.9497   60.6703 N   0  0  0  0  0  0  0  0  0  0  0  0
   37.1007    8.2679   59.3622 O   0  0  0  0  0  0  0  0  0  0  0  0
   35.2029    3.7742   58.6312 C   0  0  0  0  0  0  0  0  0  0  0  0
   36.3458    9.6936   60.9832 O   0  0  0  0  0  0  0  0  0  0  0  0
   34.9099    5.1842   59.1229 C   0  0  0  0  0  0  0  0  0  0  0  0
   30.2140    9.4171   58.0198 O   0  0  0  0  0  0  0  0  0  0  0  0
   36.1804    6.0471   59.1040 C   0  0  1  0  0  0  0  0  0  0  0  0
   29.8458    6.6907   59.2445 O   0  0  0  0  0  0  0  0  0  0  0  0
   35.8753    7.5099   59.4631 C   0  0  2  0  0  0  0  0  0  0  0  0
   38.8091    5.6808   58.4913 O   0  0  0  0  0  0  0  0  0  0  0  0
   34.8305    8.1321   58.5605 C   0  0  0  0  0  0  0  0  0  0  0  0
   34.1920    8.1267   53.2064 O   0  0  0  0  0  0  0  0  0  0  0  0
   33.6761    8.5364   59.1195 C   0  0  0  0  0  0  0  0  0  0  0  0
   31.2191    5.5027   56.9902 O   0  0  0  0  0  0  0  0  0  0  0  0
   32.5619    9.2659   58.4325 C   0  0  1  0  0  0  0  0  0  0  0  0
   31.1730    8.7475   58.8593 C   0  0  2  0  0  0  0  0  0  0  0  0
   31.0594    7.2177   58.6824 C   0  0  2  0  0  0  0  0  0  0  0  0
   31.0250    6.9011   57.1905 C   0  0  0  0  0  0  0  0  0  0  0  0
   28.9995    9.7457   58.6713 C   0  0  0  0  0  0  0  0  0  0  0  0
   31.1227    5.1569   55.6149 C   0  0  0  0  0  0  0  0  0  0  0  0
   32.4277    5.4172   54.9100 C   0  0  0  0  0  0  0  0  0  0  0  0
   32.7165    6.6700   54.3442 C   0  0  0  0  0  0  0  0  0  0  0  0
   33.9388    6.8776   53.7094 C   0  0  0  0  0  0  0  0  0  0  0  0
   34.8676    5.8368   53.6415 C   0  0  0  0  0  0  0  0  0  0  0  0
   34.5998    4.6011   54.2129 C   0  0  0  0  0  0  0  0  0  0  0  0
   33.3819    4.3917   54.8470 C   0  0  0  0  0  0  0  0  0  0  0  0
   34.9389    1.3929   56.8828 C   0  0  0  0  0  0  0  0  0  0  0  0
   38.4354    5.6884   59.6511 C   0  0  0  0  0  0  0  0  0  0  0  0
   37.1989    9.2831   60.2245 C   0  0  0  0  0  0  0  0  0  0  0  0
   35.1561    8.2820   57.1011 C   0  0  0  0  0  0  0  0  0  0  0  0
   32.6724   10.7381   58.8065 C   0  0  0  0  0  0  0  0  0  0  0  0
   29.7560    6.8256   60.6503 C   0  0  0  0  0  0  0  0  0  0  0  0
   34.8936    8.0634   51.9642 C   0  0  0  0  0  0  0  0  0  0  0  0
   36.1211    3.6072   53.2198 H   0  0  0  0  0  0  0  0  0  0  0  0
   38.6578   10.5538   60.8433 H   0  0  0  0  0  0  0  0  0  0  0  0
   39.1679    9.4139   59.6092 H   0  0  0  0  0  0  0  0  0  0  0  0
   36.1088    4.6324   56.7599 H   0  0  0  0  0  0  0  0  0  0  0  0
   40.1885    6.3262   60.4029 H   0  0  0  0  0  0  0  0  0  0  0  0
   38.9890    6.0113   61.6292 H   0  0  0  0  0  0  0  0  0  0  0  0
   34.2907    3.1839   58.7709 H   0  0  0  0  0  0  0  0  0  0  0  0
   35.9788    3.3300   59.2646 H   0  0  0  0  0  0  0  0  0  0  0  0
   34.5008    5.1421   60.1405 H   0  0  0  0  0  0  0  0  0  0  0  0
   34.1280    5.6085   58.4813 H   0  0  0  0  0  0  0  0  0  0  0  0
   36.6103    6.0313   58.1005 H   0  0  0  0  0  0  0  0  0  0  0  0
   35.5299    7.4957   60.5058 H   0  0  0  0  0  0  0  0  0  0  0  0
   33.5218    8.3521   60.1842 H   0  0  0  0  0  0  0  0  0  0  0  0
   32.6610    9.2027   57.3438 H   0  0  0  0  0  0  0  0  0  0  0  0
   31.0172    9.0306   59.9062 H   0  0  0  0  0  0  0  0  0  0  0  0
   31.8979    6.6920   59.1568 H   0  0  0  0  0  0  0  0  0  0  0  0
   31.8212    7.4379   56.6766 H   0  0  0  0  0  0  0  0  0  0  0  0
   30.0591    7.2024   56.7679 H   0  0  0  0  0  0  0  0  0  0  0  0
   28.3426   10.2003   57.9261 H   0  0  0  0  0  0  0  0  0  0  0  0
   29.1893   10.4762   59.4623 H   0  0  0  0  0  0  0  0  0  0  0  0
   28.4957    8.8660   59.0771 H   0  0  0  0  0  0  0  0  0  0  0  0
   30.8959    4.0868   55.5815 H   0  0  0  0  0  0  0  0  0  0  0  0
   30.2902    5.6702   55.1195 H   0  0  0  0  0  0  0  0  0  0  0  0
   31.9920    7.4816   54.4018 H   0  0  0  0  0  0  0  0  0  0  0  0
   35.8444    5.9887   53.1987 H   0  0  0  0  0  0  0  0  0  0  0  0
   33.1400    3.4179   55.2563 H   0  0  0  0  0  0  0  0  0  0  0  0
   34.9319    0.6161   56.1135 H   0  0  0  0  0  0  0  0  0  0  0  0
   33.9057    1.5478   57.2116 H   0  0  0  0  0  0  0  0  0  0  0  0
   35.5270    1.0324   57.7304 H   0  0  0  0  0  0  0  0  0  0  0  0
   36.1359    7.8623   56.8530 H   0  0  0  0  0  0  0  0  0  0  0  0
   35.1696    9.3369   56.8141 H   0  0  0  0  0  0  0  0  0  0  0  0
   34.4226    7.7503   56.4900 H   0  0  0  0  0  0  0  0  0  0  0  0
   32.5636   10.8669   59.8893 H   0  0  0  0  0  0  0  0  0  0  0  0
   31.8915   11.3207   58.3111 H   0  0  0  0  0  0  0  0  0  0  0  0
   33.6447   11.1374   58.5054 H   0  0  0  0  0  0  0  0  0  0  0  0
   28.8196    6.3596   60.9584 H   0  0  0  0  0  0  0  0  0  0  0  0
   29.7049    7.8767   60.9415 H   0  0  0  0  0  0  0  0  0  0  0  0
   30.5951    6.3367   61.1520 H   0  0  0  0  0  0  0  0  0  0  0  0
   35.0817    9.0755   51.6014 H   0  0  0  0  0  0  0  0  0  0  0  0
   34.2852    7.5240   51.2305 H   0  0  0  0  0  0  0  0  0  0  0  0
   35.8758    7.5933   52.0654 H   0  0  0  0  0  0  0  0  0  0  0  0
  1  2  1  0  0  0  0
  1  3  2  0  0  0  0
  1  4  1  0  0  0  0
  2 32  1  0  0  0  0
  2 41  1  0  0  0  0
  4  7  2  0  0  0  0
  4 34  1  0  0  0  0
  5 36  1  0  0  0  0
  5 42  1  0  0  0  0
  5 43  1  0  0  0  0
  6 14  1  0  0  0  0
  6 35  1  0  0  0  0
  7 10  1  0  0  0  0
  7 44  1  0  0  0  0
  8 35  1  0  0  0  0
  8 45  1  0  0  0  0
  8 46  1  0  0  0  0
  9 16  1  0  0  0  0
  9 36  1  0  0  0  0
 10 12  1  0  0  0  0
 10 47  1  0  0  0  0
 10 48  1  0  0  0  0
 11 36  2  0  0  0  0
 12 14  1  0  0  0  0
 12 49  1  0  0  0  0
 12 50  1  0  0  0  0
 13 23  1  0  0  0  0
 13 26  1  0  0  0  0
 14 16  1  0  0  0  0
 14 51  1  6  0  0  0
 15 24  1  0  0  0  0
 15 39  1  0  0  0  0
 16 18  1  0  0  0  0
 16 52  1  1  0  0  0
 17 35  2  0  0  0  0
 18 20  2  0  0  0  0
 18 37  1  0  0  0  0
 19 30  1  0  0  0  0
 19 40  1  0  0  0  0
 20 22  1  0  0  0  0
 20 53  1  0  0  0  0
 21 25  1  0  0  0  0
 21 27  1  0  0  0  0
 22 23  1  0  0  0  0
 22 38  1  0  0  0  0
 22 54  1  6  0  0  0
 23 24  1  0  0  0  0
 23 55  1  1  0  0  0
 24 25  1  0  0  0  0
 24 56  1  1  0  0  0
 25 57  1  0  0  0  0
 25 58  1  0  0  0  0
 26 59  1  0  0  0  0
 26 60  1  0  0  0  0
 26 61  1  0  0  0  0
 27 28  1  0  0  0  0
 27 62  1  0  0  0  0
 27 63  1  0  0  0  0
 28 29  2  0  0  0  0
 28 33  1  0  0  0  0
 29 30  1  0  0  0  0
 29 64  1  0  0  0  0
 30 31  2  0  0  0  0
 31 32  1  0  0  0  0
 31 65  1  0  0  0  0
 32 33  2  0  0  0  0
 33 66  1  0  0  0  0
 34 67  1  0  0  0  0
 34 68  1  0  0  0  0
 34 69  1  0  0  0  0
 37 70  1  0  0  0  0
 37 71  1  0  0  0  0
 37 72  1  0  0  0  0
 38 73  1  0  0  0  0
 38 74  1  0  0  0  0
 38 75  1  0  0  0  0
 39 76  1  0  0  0  0
 39 77  1  0  0  0  0
 39 78  1  0  0  0  0
 40 79  1  0  0  0  0
 40 80  1  0  0  0  0
 40 81  1  0  0  0  0
M  END
$$$$
