@<TRIPOS>MOLECULE
2YE3_VXX_A_1224
 23 23 0 0 0
SMALL
USER_CHARGES

@<TRIPOS>ATOM
      1 C          64.0062   34.1455   24.7538 C.ar    1  LIG1        0.0627
      2 C          62.8670   33.7169   25.4450 C.ar    1  LIG1       -0.0441
      3 C          65.2605   33.8342   25.2617 C.ar    1  LIG1       -0.0023
      4 C          62.9854   32.9825   26.6280 C.ar    1  LIG1       -0.0157
      5 C          65.3942   33.1082   26.4561 C.ar    1  LIG1        0.1620
      6 O          66.6125   32.7854   27.0059 O.3     1  LIG1       -0.4914
      7 C          64.2439   32.6752   27.1273 C.ar    1  LIG1        0.1585
      8 C          63.8311   34.9376   23.5148 C.2     1  LIG1        0.3390
      9 C          67.6911   33.5374   26.4394 C.3     1  LIG1        0.0790
     10 O          62.7443   34.9896   22.9488 O.2     1  LIG1       -0.2450
     11 O          64.9340   35.6534   23.1546 O.3     1  LIG1       -0.4644
     12 O          64.3036   31.9546   28.2833 O.3     1  LIG1       -0.5033
     13 C          64.6163   36.6352   22.1571 C.3     1  LIG1        0.0820
     14 H          61.8830   33.9604   25.0633 H       1  LIG1        0.0627
     15 H          66.1135   34.1917   24.7041 H       1  LIG1        0.0663
     16 H          62.0947   32.6613   27.1595 H       1  LIG1        0.0655
     17 H          68.6330   33.2546   26.9108 H       1  LIG1        0.0660
     18 H          67.5226   34.6083   26.6083 H       1  LIG1        0.0660
     19 H          67.8026   33.3191   25.3708 H       1  LIG1        0.0660
     20 H          65.2473   31.8107   28.4858 H       1  LIG1        0.2923
     21 H          65.5284   37.1390   21.8233 H       1  LIG1        0.0661
     22 H          63.9561   37.3844   22.6053 H       1  LIG1        0.0661
     23 H          64.1360   36.1826   21.2819 H       1  LIG1        0.0661
@<TRIPOS>BOND
     1     1     2   ar
     2     1     3   ar
     3     1     8    1
     4     2     4   ar
     5     2    14    1
     6     3     5   ar
     7     3    15    1
     8     4     7   ar
     9     4    16    1
    10     5     6    1
    11     5     7   ar
    12     6     9    1
    13     7    12    1
    14     8    10    2
    15     8    11    1
    16     9    17    1
    17     9    18    1
    18     9    19    1
    19    11    13    1
    20    12    20    1
    21    13    21    1
    22    13    22    1
    23    13    23    1
