REMARK  4 active torsions:
REMARK  status: ('A' for Active; 'I' for Inactive)
REMARK    1  A    between atoms: C_1  and  C_8 
REMARK    2  A    between atoms: C_5  and  O_6 
REMARK    3  A    between atoms: C_7  and  O_12 
REMARK    4  A    between atoms: C_8  and  O_11 
ROOT
ATOM      1  C   LIG d   1      64.006  34.145  24.754  0.00  0.00     0.063 A 
ATOM      2  C   LIG d   1      62.867  33.717  25.445  0.00  0.00     0.019 A 
ATOM      3  C   LIG d   1      65.260  33.834  25.262  0.00  0.00     0.064 A 
ATOM      4  C   LIG d   1      62.985  32.983  26.628  0.00  0.00     0.050 A 
ATOM      5  C   LIG d   1      65.394  33.108  26.456  0.00  0.00     0.162 A 
ATOM      6  C   LIG d   1      64.244  32.675  27.127  0.00  0.00     0.159 A 
ENDROOT
BRANCH   1   7
ATOM      7  C   LIG d   1      63.831  34.938  23.515  0.00  0.00     0.339 C 
ATOM      8  O   LIG d   1      62.744  34.990  22.949  0.00  0.00    -0.245 OA
BRANCH   7   9
ATOM      9  O   LIG d   1      64.934  35.653  23.155  0.00  0.00    -0.464 OA
ATOM     10  C   LIG d   1      64.616  36.635  22.157  0.00  0.00     0.280 C 
ENDBRANCH   7   9
ENDBRANCH   1   7
BRANCH   5  11
ATOM     11  O   LIG d   1      66.612  32.785  27.006  0.00  0.00    -0.491 OA
ATOM     12  C   LIG d   1      67.691  33.537  26.439  0.00  0.00     0.277 C 
ENDBRANCH   5  11
BRANCH   6  13
ATOM     13  O   LIG d   1      64.304  31.955  28.283  0.00  0.00    -0.503 OA
ATOM     14  H   LIG d   1      65.247  31.811  28.486  0.00  0.00     0.292 HD
ENDBRANCH   6  13
TORSDOF 4
