@<TRIPOS>MOLECULE
4CWQ_W2D_A_1224
 42 46 0 0 0
SMALL
USER_CHARGES

@<TRIPOS>ATOM
      1 C           3.1779   12.8518   24.3920 C.ar    1  LIG1       -0.0126
      2 C           4.0304   13.8561   24.7786 C.ar    1  LIG1        0.1665
      3 O           3.6537   15.0880   25.2060 O.3     1  LIG1       -0.4526
      4 C           4.9399   15.7109   25.3902 C.3     1  LIG1        0.2332
      5 O           6.0499   14.8127   25.1638 O.3     1  LIG1       -0.4526
      6 C           5.3921   13.6880   24.7531 C.ar    1  LIG1        0.1662
      7 C           5.9702   12.5022   24.3532 C.ar    1  LIG1       -0.0159
      8 C           5.1267   11.4539   23.9613 C.ar    1  LIG1       -0.0545
      9 C           3.7267   11.6311   23.9686 C.ar    1  LIG1       -0.0364
     10 C           2.7943   10.5271   23.5379 C.3     1  LIG1        0.0327
     11 C           1.9815   10.0405   24.6971 C.ar    1  LIG1        0.1378
     12 N           2.5041    9.2752   25.6182 N.ar    1  LIG1       -0.2314
     13 C           1.7011    8.8775   26.7106 C.ar    1  LIG1        0.0784
     14 C           2.2702    8.0641   27.6911 C.ar    1  LIG1       -0.0092
     15 C           1.4735    7.6285   28.7602 C.ar    1  LIG1        0.1071
     16 S           2.1452    6.5139   29.9624 S.O2    1  LIG1        0.0560
     17 O           3.5854    6.4827   29.8257 O.2     1  LIG1       -0.1533
     18 O           1.3469    5.3096   29.9468 O.2     1  LIG1       -0.1533
     19 N           1.8386    7.2818   31.4351 N.3     1  LIG1       -0.2035
     20 C           0.1308    8.0099   28.8546 C.ar    1  LIG1       -0.0346
     21 C          -0.4353    8.8302   27.8784 C.ar    1  LIG1       -0.0471
     22 C           0.3470    9.2669   26.8176 C.ar    1  LIG1        0.0448
     23 C          -0.1797   10.1116   25.7733 C.ar    1  LIG1        0.1688
     24 N          -1.3705   10.6419   25.5803 N.ar    1  LIG1       -0.1936
     25 N           0.6546   10.4760   24.7596 N.ar    1  LIG1       -0.1963
     26 N           0.0213   11.2815   23.8835 N.ar    1  LIG1       -0.1276
     27 C          -1.1980   11.3459   24.4269 C.ar    1  LIG1        0.2328
     28 N          -2.2140   12.0217   23.9241 N.pl3   1  LIG1       -0.3262
     29 H           2.1051   13.0129   24.4117 H       1  LIG1        0.0658
     30 H           4.9992   16.1041   26.4113 H       1  LIG1        0.1166
     31 H           5.0186   16.5539   24.6934 H       1  LIG1        0.1166
     32 H           7.0489   12.3802   24.3403 H       1  LIG1        0.0655
     33 H           5.5617   10.5041   23.6556 H       1  LIG1        0.0622
     34 H           3.3737    9.6678   23.1764 H       1  LIG1        0.0392
     35 H           2.1839   10.8767   22.7012 H       1  LIG1        0.0392
     36 H           3.3066    7.7646   27.5960 H       1  LIG1        0.0658
     37 H           2.3097    8.1807   31.5345 H       1  LIG1        0.1442
     38 H           2.0775    6.6496   32.2069 H       1  LIG1        0.1442
     39 H          -0.4851    7.6508   29.6709 H       1  LIG1        0.0637
     40 H          -1.4798    9.1321   27.9368 H       1  LIG1        0.0626
     41 H          -2.1123   12.5217   23.0543 H       1  LIG1        0.1452
     42 H          -3.1419   11.9987   24.3380 H       1  LIG1        0.1452
@<TRIPOS>BOND
     1     1     2   ar
     2     1     9   ar
     3     1    29    1
     4     2     3    1
     5     2     6   ar
     6     3     4    1
     7     4     5    1
     8     4    30    1
     9     4    31    1
    10     5     6    1
    11     6     7   ar
    12     7     8   ar
    13     7    32    1
    14     8     9   ar
    15     8    33    1
    16     9    10    1
    17    10    11    1
    18    10    34    1
    19    10    35    1
    20    11    12   ar
    21    11    25   ar
    22    12    13   ar
    23    13    14   ar
    24    13    22   ar
    25    14    15   ar
    26    14    36    1
    27    15    16    1
    28    15    20   ar
    29    16    17    2
    30    16    18    2
    31    16    19    1
    32    19    37    1
    33    19    38    1
    34    20    21   ar
    35    20    39    1
    36    21    22   ar
    37    21    40    1
    38    22    23   ar
    39    23    24   ar
    40    23    25   ar
    41    24    27   ar
    42    25    26   ar
    43    26    27   ar
    44    27    28    1
    45    28    41    1
    46    28    42    1
