REMARK  5 active torsions:
REMARK  status: ('A' for Active; 'I' for Inactive)
REMARK    1  A    between atoms: C_9  and  C_10 
REMARK    2  A    between atoms: C_10  and  C_11 
REMARK    3  A    between atoms: C_15  and  S_16 
REMARK    4  A    between atoms: S_16  and  N_19 
REMARK    5  A    between atoms: C_27  and  N_28 
ROOT
ATOM      1  C   LIG d   1       1.982  10.040  24.697  0.00  0.00     0.138 A 
ATOM      2  N   LIG d   1       2.504   9.275  25.618  0.00  0.00    -0.231 NA
ATOM      3  C   LIG d   1       1.701   8.877  26.711  0.00  0.00     0.078 A 
ATOM      4  C   LIG d   1       2.270   8.064  27.691  0.00  0.00     0.057 A 
ATOM      5  C   LIG d   1       1.474   7.628  28.760  0.00  0.00     0.107 A 
ATOM      6  C   LIG d   1       0.131   8.010  28.855  0.00  0.00     0.029 A 
ATOM      7  C   LIG d   1      -0.435   8.830  27.878  0.00  0.00     0.015 A 
ATOM      8  C   LIG d   1       0.347   9.267  26.818  0.00  0.00     0.045 A 
ATOM      9  C   LIG d   1      -0.180  10.112  25.773  0.00  0.00     0.169 A 
ATOM     10  N   LIG d   1      -1.371  10.642  25.580  0.00  0.00    -0.194 NA
ATOM     11  N   LIG d   1       0.655  10.476  24.760  0.00  0.00    -0.196 N 
ATOM     12  N   LIG d   1       0.021  11.281  23.884  0.00  0.00    -0.128 NA
ATOM     13  C   LIG d   1      -1.198  11.346  24.427  0.00  0.00     0.233 A 
ENDROOT
BRANCH   1  14
ATOM     14  C   LIG d   1       2.794  10.527  23.538  0.00  0.00     0.111 C 
BRANCH  14  15
ATOM     15  C   LIG d   1       3.727  11.631  23.969  0.00  0.00    -0.036 A 
ATOM     16  C   LIG d   1       3.178  12.852  24.392  0.00  0.00     0.053 A 
ATOM     17  C   LIG d   1       4.030  13.856  24.779  0.00  0.00     0.167 A 
ATOM     18  O   LIG d   1       3.654  15.088  25.206  0.00  0.00    -0.453 OA
ATOM     19  C   LIG d   1       5.392  13.688  24.753  0.00  0.00     0.166 A 
ATOM     20  C   LIG d   1       4.940  15.711  25.390  0.00  0.00     0.466 A 
ATOM     21  O   LIG d   1       6.050  14.813  25.164  0.00  0.00    -0.453 OA
ATOM     22  C   LIG d   1       5.970  12.502  24.353  0.00  0.00     0.050 A 
ATOM     23  C   LIG d   1       5.127  11.454  23.961  0.00  0.00     0.008 A 
ENDBRANCH  14  15
ENDBRANCH   1  14
BRANCH  13  24
ATOM     24  N   LIG d   1      -2.214  12.022  23.924  0.00  0.00    -0.326 N 
ATOM     25  H   LIG d   1      -2.112  12.522  23.054  0.00  0.00     0.145 HD
ATOM     26  H   LIG d   1      -3.142  11.999  24.338  0.00  0.00     0.145 HD
ENDBRANCH  13  24
BRANCH   5  27
ATOM     27  S   LIG d   1       2.145   6.514  29.962  0.00  0.00     0.056 S 
ATOM     28  O   LIG d   1       3.585   6.483  29.826  0.00  0.00    -0.153 OA
ATOM     29  O   LIG d   1       1.347   5.310  29.947  0.00  0.00    -0.153 OA
BRANCH  27  30
ATOM     30  N   LIG d   1       1.839   7.282  31.435  0.00  0.00    -0.203 NA
ATOM     31  H   LIG d   1       2.310   8.181  31.535  0.00  0.00     0.144 HD
ATOM     32  H   LIG d   1       2.078   6.650  32.207  0.00  0.00     0.144 HD
ENDBRANCH  27  30
ENDBRANCH   5  27
TORSDOF 5
