@<TRIPOS>MOLECULE
3WHA_WHA_A_302
 46 49 0 0 0
SMALL
USER_CHARGES

@<TRIPOS>ATOM
      1 C         -26.5888   22.9153  -23.6395 C.ar    1  LIG1       -0.0139
      2 C         -26.7127   22.3173  -19.9302 C.ar    1  LIG1        0.0453
      3 C         -27.9011   22.6434  -24.0243 C.ar    1  LIG1       -0.0558
      4 C         -28.8518   22.3150  -23.0687 C.ar    1  LIG1       -0.0608
      5 C         -24.4665   23.0032  -20.6107 C.ar    1  LIG1       -0.0367
      6 C         -28.4747   22.2209  -21.7292 C.ar    1  LIG1       -0.0533
      7 C         -27.1461   22.4381  -21.2934 C.ar    1  LIG1       -0.0051
      8 C         -26.2061   22.8097  -22.2880 C.ar    1  LIG1       -0.0064
      9 C         -24.8804   23.1022  -21.9430 C.ar    1  LIG1       -0.0125
     10 C         -25.3639   22.6043  -19.6250 C.ar    1  LIG1        0.0526
     11 C         -25.5556   23.2889  -24.6742 C.3     1  LIG1        0.0737
     12 C         -23.8912   23.4681  -23.0185 C.3     1  LIG1        0.0737
     13 O         -24.5487   24.1234  -24.1021 O.3     1  LIG1       -0.3706
     14 CL        -24.7128   22.4294  -18.0247 Cl      1  LIG1       -0.0828
     15 C         -27.6383   21.8932  -18.8715 C.ar    1  LIG1        0.1680
     16 N         -28.2026   20.6952  -18.9961 N.ar    1  LIG1       -0.2020
     17 N         -27.8597   22.7441  -17.8732 N.ar    1  LIG1       -0.1948
     18 C         -28.6821   22.3077  -16.9345 C.ar    1  LIG1        0.2168
     19 N         -28.9485   23.1538  -15.8923 N.pl3   1  LIG1       -0.3274
     20 N         -29.2873   21.1324  -16.9488 N.ar    1  LIG1       -0.1889
     21 C         -29.0181   20.3670  -18.0017 C.ar    1  LIG1        0.1932
     22 S         -29.8310   18.7833  -18.0498 S.3     1  LIG1       -0.0859
     23 C         -29.6158   18.3101  -19.8035 C.3     1  LIG1        0.0016
     24 C         -30.5863   19.0282  -20.7408 C.3     1  LIG1       -0.0353
     25 C         -32.0285   18.5571  -20.5607 C.3     1  LIG1        0.0245
     26 C         -32.9688   19.2901  -21.4857 C.2     1  LIG1        0.2105
     27 O         -33.5017   18.7759  -22.4569 O.2     1  LIG1       -0.2760
     28 N         -33.1817   20.5990  -21.1588 N.am    1  LIG1       -0.3293
     29 H         -28.1993   22.7128  -25.0718 H       1  LIG1        0.0621
     30 H         -29.8822   22.1363  -23.3595 H       1  LIG1        0.0618
     31 H         -23.4361   23.2391  -20.3472 H       1  LIG1        0.0636
     32 H         -29.2572   21.9730  -21.0116 H       1  LIG1        0.0624
     33 H         -26.0235   23.8594  -25.4835 H       1  LIG1        0.0610
     34 H         -25.0962   22.3915  -25.1036 H       1  LIG1        0.0610
     35 H         -23.3766   22.5718  -23.3834 H       1  LIG1        0.0610
     36 H         -23.1413   24.1630  -22.6269 H       1  LIG1        0.0610
     37 H         -29.4093   22.7572  -15.0893 H       1  LIG1        0.1452
     38 H         -28.3585   23.9666  -15.8124 H       1  LIG1        0.1452
     39 H         -29.7874   17.2300  -19.8683 H       1  LIG1        0.0381
     40 H         -28.5802   18.4760  -20.1156 H       1  LIG1        0.0381
     41 H         -30.2810   18.8339  -21.7778 H       1  LIG1        0.0278
     42 H         -30.5198   20.1130  -20.6102 H       1  LIG1        0.0278
     43 H         -32.3744   18.7193  -19.5344 H       1  LIG1        0.0358
     44 H         -32.1096   17.4831  -20.7636 H       1  LIG1        0.0358
     45 H         -33.8510   21.1184  -21.7093 H       1  LIG1        0.1449
     46 H         -32.7990   21.0244  -20.3260 H       1  LIG1        0.1449
@<TRIPOS>BOND
     1     1     3   ar
     2     1     8   ar
     3     1    11    1
     4     2     7   ar
     5     2    10   ar
     6     2    15    1
     7     3     4   ar
     8     3    29    1
     9     4     6   ar
    10     4    30    1
    11     5     9   ar
    12     5    10   ar
    13     5    31    1
    14     6     7   ar
    15     6    32    1
    16     7     8   ar
    17     8     9   ar
    18     9    12    1
    19    10    14    1
    20    11    13    1
    21    11    33    1
    22    11    34    1
    23    12    13    1
    24    12    35    1
    25    12    36    1
    26    15    16   ar
    27    15    17   ar
    28    16    21   ar
    29    17    18   ar
    30    18    19    1
    31    18    20   ar
    32    19    37    1
    33    19    38    1
    34    20    21   ar
    35    21    22    1
    36    22    23    1
    37    23    24    1
    38    23    39    1
    39    23    40    1
    40    24    25    1
    41    24    41    1
    42    24    42    1
    43    25    26    1
    44    25    43    1
    45    25    44    1
    46    26    27    2
    47    26    28   am
    48    28    45    1
    49    28    46    1
