3WHA_WHA_A_302
 OpenBabel03301717243D

 46 49  0  0  0  0  0  0  0  0999 V2000
  -26.5888   22.9153  -23.6395 C   0  0  0  0  0  0  0  0  0  0  0  0
  -26.7127   22.3173  -19.9302 C   0  0  0  0  0  0  0  0  0  0  0  0
  -27.9011   22.6434  -24.0243 C   0  0  0  0  0  0  0  0  0  0  0  0
  -28.8518   22.3150  -23.0687 C   0  0  0  0  0  0  0  0  0  0  0  0
  -24.4665   23.0032  -20.6107 C   0  0  0  0  0  0  0  0  0  0  0  0
  -28.4747   22.2209  -21.7292 C   0  0  0  0  0  0  0  0  0  0  0  0
  -27.1461   22.4381  -21.2934 C   0  0  0  0  0  0  0  0  0  0  0  0
  -26.2061   22.8097  -22.2880 C   0  0  0  0  0  0  0  0  0  0  0  0
  -24.8804   23.1022  -21.9430 C   0  0  0  0  0  0  0  0  0  0  0  0
  -25.3639   22.6043  -19.6250 C   0  0  0  0  0  0  0  0  0  0  0  0
  -25.5556   23.2889  -24.6742 C   0  0  0  0  0  0  0  0  0  0  0  0
  -23.8912   23.4681  -23.0185 C   0  0  0  0  0  0  0  0  0  0  0  0
  -24.5487   24.1234  -24.1021 O   0  0  0  0  0  0  0  0  0  0  0  0
  -24.7128   22.4294  -18.0247 Cl  0  0  0  0  0  0  0  0  0  0  0  0
  -27.6383   21.8932  -18.8715 C   0  0  0  0  0  0  0  0  0  0  0  0
  -28.2026   20.6952  -18.9961 N   0  0  0  0  0  0  0  0  0  0  0  0
  -27.8597   22.7441  -17.8732 N   0  0  0  0  0  0  0  0  0  0  0  0
  -28.6821   22.3077  -16.9345 C   0  0  0  0  0  0  0  0  0  0  0  0
  -28.9485   23.1538  -15.8923 N   0  0  0  0  0  0  0  0  0  0  0  0
  -29.2873   21.1324  -16.9488 N   0  0  0  0  0  0  0  0  0  0  0  0
  -29.0181   20.3670  -18.0017 C   0  0  0  0  0  0  0  0  0  0  0  0
  -29.8310   18.7833  -18.0498 S   0  0  0  0  0  0  0  0  0  0  0  0
  -29.6158   18.3101  -19.8035 C   0  0  0  0  0  0  0  0  0  0  0  0
  -30.5863   19.0282  -20.7408 C   0  0  0  0  0  0  0  0  0  0  0  0
  -32.0285   18.5571  -20.5607 C   0  0  0  0  0  0  0  0  0  0  0  0
  -32.9688   19.2901  -21.4857 C   0  0  0  0  0  0  0  0  0  0  0  0
  -33.5017   18.7759  -22.4569 O   0  0  0  0  0  0  0  0  0  0  0  0
  -33.1817   20.5990  -21.1588 N   0  0  0  0  0  0  0  0  0  0  0  0
  -28.1993   22.7128  -25.0718 H   0  0  0  0  0  0  0  0  0  0  0  0
  -29.8822   22.1363  -23.3595 H   0  0  0  0  0  0  0  0  0  0  0  0
  -23.4361   23.2391  -20.3472 H   0  0  0  0  0  0  0  0  0  0  0  0
  -29.2572   21.9730  -21.0116 H   0  0  0  0  0  0  0  0  0  0  0  0
  -26.0235   23.8594  -25.4835 H   0  0  0  0  0  0  0  0  0  0  0  0
  -25.0962   22.3915  -25.1036 H   0  0  0  0  0  0  0  0  0  0  0  0
  -23.3766   22.5718  -23.3834 H   0  0  0  0  0  0  0  0  0  0  0  0
  -23.1413   24.1630  -22.6269 H   0  0  0  0  0  0  0  0  0  0  0  0
  -29.4093   22.7572  -15.0893 H   0  0  0  0  0  0  0  0  0  0  0  0
  -28.3585   23.9666  -15.8124 H   0  0  0  0  0  0  0  0  0  0  0  0
  -29.7874   17.2300  -19.8683 H   0  0  0  0  0  0  0  0  0  0  0  0
  -28.5802   18.4760  -20.1156 H   0  0  0  0  0  0  0  0  0  0  0  0
  -30.2810   18.8339  -21.7778 H   0  0  0  0  0  0  0  0  0  0  0  0
  -30.5198   20.1130  -20.6102 H   0  0  0  0  0  0  0  0  0  0  0  0
  -32.3744   18.7193  -19.5344 H   0  0  0  0  0  0  0  0  0  0  0  0
  -32.1096   17.4831  -20.7636 H   0  0  0  0  0  0  0  0  0  0  0  0
  -33.8510   21.1184  -21.7093 H   0  0  0  0  0  0  0  0  0  0  0  0
  -32.7990   21.0244  -20.3260 H   0  0  0  0  0  0  0  0  0  0  0  0
  1  3  2  0  0  0  0
  1  8  1  0  0  0  0
  1 11  1  0  0  0  0
  2  7  2  0  0  0  0
  2 10  1  0  0  0  0
  2 15  1  0  0  0  0
  3  4  1  0  0  0  0
  3 29  1  0  0  0  0
  4  6  2  0  0  0  0
  4 30  1  0  0  0  0
  5  9  1  0  0  0  0
  5 10  2  0  0  0  0
  5 31  1  0  0  0  0
  6  7  1  0  0  0  0
  6 32  1  0  0  0  0
  7  8  1  0  0  0  0
  8  9  2  0  0  0  0
  9 12  1  0  0  0  0
 10 14  1  0  0  0  0
 11 13  1  0  0  0  0
 11 33  1  0  0  0  0
 11 34  1  0  0  0  0
 12 13  1  0  0  0  0
 12 35  1  0  0  0  0
 12 36  1  0  0  0  0
 15 16  2  0  0  0  0
 15 17  1  0  0  0  0
 16 21  1  0  0  0  0
 17 18  2  0  0  0  0
 18 19  1  0  0  0  0
 18 20  1  0  0  0  0
 19 37  1  0  0  0  0
 19 38  1  0  0  0  0
 20 21  2  0  0  0  0
 21 22  1  0  0  0  0
 22 23  1  0  0  0  0
 23 24  1  0  0  0  0
 23 39  1  0  0  0  0
 23 40  1  0  0  0  0
 24 25  1  0  0  0  0
 24 41  1  0  0  0  0
 24 42  1  0  0  0  0
 25 26  1  0  0  0  0
 25 43  1  0  0  0  0
 25 44  1  0  0  0  0
 26 27  2  0  0  0  0
 26 28  1  0  0  0  0
 28 45  1  0  0  0  0
 28 46  1  0  0  0  0
M  END
$$$$
