REMARK  7 active torsions:
REMARK  status: ('A' for Active; 'I' for Inactive)
REMARK    1  A    between atoms: C_2  and  C_15 
REMARK    2  A    between atoms: C_18  and  N_19 
REMARK    3  A    between atoms: C_21  and  S_22 
REMARK    4  A    between atoms: S_22  and  C_23 
REMARK    5  A    between atoms: C_23  and  C_24 
REMARK    6  A    between atoms: C_24  and  C_25 
REMARK    7  A    between atoms: C_25  and  C_26 
REMARK       I    between atoms: C_26  and  N_28 
ROOT
ATOM      1  C   LIG d   1     -27.638  21.893 -18.872  0.00  0.00     0.168 A 
ATOM      2  N   LIG d   1     -28.203  20.695 -18.996  0.00  0.00    -0.202 NA
ATOM      3  N   LIG d   1     -27.860  22.744 -17.873  0.00  0.00    -0.195 NA
ATOM      4  C   LIG d   1     -28.682  22.308 -16.934  0.00  0.00     0.217 A 
ATOM      5  N   LIG d   1     -29.287  21.132 -16.949  0.00  0.00    -0.189 NA
ATOM      6  C   LIG d   1     -29.018  20.367 -18.002  0.00  0.00     0.193 A 
ENDROOT
BRANCH   1   7
ATOM      7  C   LIG d   1     -26.713  22.317 -19.930  0.00  0.00     0.045 A 
ATOM      8  C   LIG d   1     -27.146  22.438 -21.293  0.00  0.00    -0.005 A 
ATOM      9  C   LIG d   1     -28.475  22.221 -21.729  0.00  0.00     0.009 A 
ATOM     10  C   LIG d   1     -26.206  22.810 -22.288  0.00  0.00    -0.006 A 
ATOM     11  C   LIG d   1     -28.852  22.315 -23.069  0.00  0.00     0.001 A 
ATOM     12  C   LIG d   1     -27.901  22.643 -24.024  0.00  0.00     0.006 A 
ATOM     13  C   LIG d   1     -26.589  22.915 -23.640  0.00  0.00    -0.014 A 
ATOM     14  C   LIG d   1     -25.556  23.289 -24.674  0.00  0.00     0.196 C 
ATOM     15  O   LIG d   1     -24.549  24.123 -24.102  0.00  0.00    -0.371 OA
ATOM     16  C   LIG d   1     -23.891  23.468 -23.018  0.00  0.00     0.196 C 
ATOM     17  C   LIG d   1     -24.880  23.102 -21.943  0.00  0.00    -0.013 A 
ATOM     18  C   LIG d   1     -24.466  23.003 -20.611  0.00  0.00     0.027 A 
ATOM     19  C   LIG d   1     -25.364  22.604 -19.625  0.00  0.00     0.053 A 
ATOM     20 CL   LIG d   1     -24.713  22.429 -18.025  0.00  0.00    -0.083 Cl
ENDBRANCH   1   7
BRANCH   6  21
ATOM     21  S   LIG d   1     -29.831  18.783 -18.050  0.00  0.00    -0.086 SA
BRANCH  21  22
ATOM     22  C   LIG d   1     -29.616  18.310 -19.803  0.00  0.00     0.078 C 
BRANCH  22  23
ATOM     23  C   LIG d   1     -30.586  19.028 -20.741  0.00  0.00     0.020 C 
BRANCH  23  24
ATOM     24  C   LIG d   1     -32.029  18.557 -20.561  0.00  0.00     0.096 C 
BRANCH  24  25
ATOM     25  C   LIG d   1     -32.969  19.290 -21.486  0.00  0.00     0.210 C 
ATOM     26  O   LIG d   1     -33.502  18.776 -22.457  0.00  0.00    -0.276 OA
ATOM     27  N   LIG d   1     -33.182  20.599 -21.159  0.00  0.00    -0.329 N 
ATOM     28  H   LIG d   1     -33.851  21.118 -21.709  0.00  0.00     0.145 HD
ATOM     29  H   LIG d   1     -32.799  21.024 -20.326  0.00  0.00     0.145 HD
ENDBRANCH  24  25
ENDBRANCH  23  24
ENDBRANCH  22  23
ENDBRANCH  21  22
ENDBRANCH   6  21
BRANCH   4  30
ATOM     30  N   LIG d   1     -28.948  23.154 -15.892  0.00  0.00    -0.327 N 
ATOM     31  H   LIG d   1     -29.409  22.757 -15.089  0.00  0.00     0.145 HD
ATOM     32  H   LIG d   1     -28.358  23.967 -15.812  0.00  0.00     0.145 HD
ENDBRANCH   4  30
TORSDOF 7
