@<TRIPOS>MOLECULE
2XDX_WOE_A_1224
 26 27 0 0 0
SMALL
USER_CHARGES

@<TRIPOS>ATOM
      1 C           7.8358    1.2017   11.3761 C.3     1  LIG1        0.0788
      2 O           7.1507    0.0729   10.8616 O.3     1  LIG1       -0.4945
      3 C           6.6358    0.1877    9.5959 C.ar    1  LIG1        0.1292
      4 C           6.0924    1.3711    9.0902 C.ar    1  LIG1       -0.0193
      5 C           5.5577    1.3999    7.8007 C.ar    1  LIG1       -0.0583
      6 C           5.5864    0.2560    7.0162 C.ar    1  LIG1       -0.0609
      7 C           6.1221   -0.9241    7.5156 C.ar    1  LIG1       -0.0491
      8 C           6.6396   -0.9885    8.8192 C.ar    1  LIG1        0.0422
      9 C           7.2180   -2.2489    9.3197 C.ar    1  LIG1        0.0809
     10 C           8.1196   -2.9904    8.5838 C.ar    1  LIG1        0.0015
     11 C           8.5418   -4.1570    9.1540 C.ar    1  LIG1        0.1349
     12 CL          9.6538   -5.1654    8.2937 Cl      1  LIG1       -0.0618
     13 N           8.1489   -4.6091   10.3559 N.ar    1  LIG1       -0.2030
     14 C           7.2824   -3.8224   11.0038 C.ar    1  LIG1        0.2144
     15 N           6.8437   -4.2262   12.2446 N.pl3   1  LIG1       -0.3274
     16 N           6.7946   -2.6795   10.5234 N.ar    1  LIG1       -0.2145
     17 H           8.2121    0.9480   12.3733 H       1  LIG1        0.0660
     18 H           7.1611    2.0537   11.4750 H       1  LIG1        0.0660
     19 H           8.6872    1.4582   10.7389 H       1  LIG1        0.0660
     20 H           6.0739    2.2802    9.6775 H       1  LIG1        0.0654
     21 H           5.1216    2.3138    7.4139 H       1  LIG1        0.0619
     22 H           5.1849    0.2819    6.0019 H       1  LIG1        0.0618
     23 H           6.1157   -1.8173    6.8964 H       1  LIG1        0.0625
     24 H           8.4735   -2.6575    7.6185 H       1  LIG1        0.0669
     25 H           6.2086   -3.6374   12.7522 H       1  LIG1        0.1452
     26 H           7.1752   -5.0905   12.6242 H       1  LIG1        0.1452
@<TRIPOS>BOND
     1     1     2    1
     2     1    17    1
     3     1    18    1
     4     1    19    1
     5     2     3    1
     6     3     4   ar
     7     3     8   ar
     8     4     5   ar
     9     4    20    1
    10     5     6   ar
    11     5    21    1
    12     6     7   ar
    13     6    22    1
    14     7     8   ar
    15     7    23    1
    16     8     9    1
    17     9    10   ar
    18     9    16   ar
    19    10    11   ar
    20    10    24    1
    21    11    12    1
    22    11    13   ar
    23    13    14   ar
    24    14    15    1
    25    14    16   ar
    26    15    25    1
    27    15    26    1
