@<TRIPOS>MOLECULE
3R4M_WOE_A_501
 26 27 0 0 0
SMALL
USER_CHARGES

@<TRIPOS>ATOM
      1 C          56.2593   36.2498   90.6611 C.3     1  LIG1        0.0788
      2 O          55.9698   35.9564   89.2983 O.3     1  LIG1       -0.4945
      3 C          55.9747   37.0334   88.4428 C.ar    1  LIG1        0.1292
      4 C          56.4814   38.2891   88.8208 C.ar    1  LIG1       -0.0193
      5 C          56.4806   39.3543   87.9335 C.ar    1  LIG1       -0.0583
      6 C          55.9772   39.1785   86.6502 C.ar    1  LIG1       -0.0609
      7 C          55.4820   37.9325   86.2546 C.ar    1  LIG1       -0.0491
      8 C          55.4649   36.8326   87.1433 C.ar    1  LIG1        0.0422
      9 C          54.8914   35.5436   86.6990 C.ar    1  LIG1        0.0809
     10 C          53.9721   34.8560   87.4585 C.ar    1  LIG1        0.0015
     11 C          53.5505   33.6651   86.9319 C.ar    1  LIG1        0.1349
     12 CL         52.4138   32.6957   87.7792 Cl      1  LIG1       -0.0618
     13 N          53.9519   33.1541   85.7618 N.ar    1  LIG1       -0.2030
     14 C          54.8229   33.8963   85.0859 C.ar    1  LIG1        0.2144
     15 N          55.2420   33.4294   83.8753 N.pl3   1  LIG1       -0.3274
     16 N          55.3069   35.0781   85.4912 N.ar    1  LIG1       -0.2145
     17 H          56.1814   35.3256   91.2403 H       1  LIG1        0.0660
     18 H          55.5308   36.9629   91.0628 H       1  LIG1        0.0660
     19 H          57.2839   36.6190   90.7735 H       1  LIG1        0.0660
     20 H          56.8944   38.4774   89.8038 H       1  LIG1        0.0654
     21 H          56.8753   40.3191   88.2439 H       1  LIG1        0.0619
     22 H          55.9655   40.0134   85.9489 H       1  LIG1        0.0618
     23 H          55.0838   37.8211   85.2461 H       1  LIG1        0.0625
     24 H          53.6121   35.2214   88.4095 H       1  LIG1        0.0669
     25 H          55.9546   33.9472   83.3913 H       1  LIG1        0.1452
     26 H          54.9297   32.5172   83.5881 H       1  LIG1        0.1452
@<TRIPOS>BOND
     1     1     2    1
     2     1    17    1
     3     1    18    1
     4     1    19    1
     5     2     3    1
     6     3     4   ar
     7     3     8   ar
     8     4     5   ar
     9     4    20    1
    10     5     6   ar
    11     5    21    1
    12     6     7   ar
    13     6    22    1
    14     7     8   ar
    15     7    23    1
    16     8     9    1
    17     9    10   ar
    18     9    16   ar
    19    10    11   ar
    20    10    24    1
    21    11    12    1
    22    11    13   ar
    23    13    14   ar
    24    14    15    1
    25    14    16   ar
    26    15    25    1
    27    15    26    1
