REMARK  3 active torsions:
REMARK  status: ('A' for Active; 'I' for Inactive)
REMARK    1  A    between atoms: O_2  and  C_3 
REMARK    2  A    between atoms: C_8  and  C_9 
REMARK    3  A    between atoms: C_14  and  N_15 
ROOT
ATOM      1  C   LIG d   1      54.891  35.544  86.699  0.00  0.00     0.081 A 
ATOM      2  C   LIG d   1      53.972  34.856  87.459  0.00  0.00     0.068 A 
ATOM      3  C   LIG d   1      53.550  33.665  86.932  0.00  0.00     0.135 A 
ATOM      4 CL   LIG d   1      52.414  32.696  87.779  0.00  0.00    -0.062 Cl
ATOM      5  N   LIG d   1      53.952  33.154  85.762  0.00  0.00    -0.203 NA
ATOM      6  C   LIG d   1      54.823  33.896  85.086  0.00  0.00     0.214 A 
ATOM      7  N   LIG d   1      55.307  35.078  85.491  0.00  0.00    -0.214 NA
ENDROOT
BRANCH   1   8
ATOM      8  C   LIG d   1      55.465  36.833  87.143  0.00  0.00     0.042 A 
ATOM      9  C   LIG d   1      55.975  37.033  88.443  0.00  0.00     0.129 A 
ATOM     10  C   LIG d   1      56.481  38.289  88.821  0.00  0.00     0.046 A 
ATOM     11  C   LIG d   1      56.481  39.354  87.933  0.00  0.00     0.004 A 
ATOM     12  C   LIG d   1      55.977  39.178  86.650  0.00  0.00     0.001 A 
ATOM     13  C   LIG d   1      55.482  37.932  86.255  0.00  0.00     0.013 A 
BRANCH   9  14
ATOM     14  O   LIG d   1      55.970  35.956  89.298  0.00  0.00    -0.494 OA
ATOM     15  C   LIG d   1      56.259  36.250  90.661  0.00  0.00     0.277 C 
ENDBRANCH   9  14
ENDBRANCH   1   8
BRANCH   6  16
ATOM     16  N   LIG d   1      55.242  33.429  83.875  0.00  0.00    -0.327 N 
ATOM     17  H   LIG d   1      55.955  33.947  83.391  0.00  0.00     0.145 HD
ATOM     18  H   LIG d   1      54.930  32.517  83.588  0.00  0.00     0.145 HD
ENDBRANCH   6  16
TORSDOF 3
