2XDX_WOE_A_1224
 OpenBabel03301717063D

 26 27  0  0  0  0  0  0  0  0999 V2000
    7.8358    1.2017   11.3761 C   0  0  0  0  0  0  0  0  0  0  0  0
    7.1507    0.0729   10.8616 O   0  0  0  0  0  0  0  0  0  0  0  0
    6.6358    0.1877    9.5959 C   0  0  0  0  0  0  0  0  0  0  0  0
    6.0924    1.3711    9.0902 C   0  0  0  0  0  0  0  0  0  0  0  0
    5.5577    1.3999    7.8007 C   0  0  0  0  0  0  0  0  0  0  0  0
    5.5864    0.2560    7.0162 C   0  0  0  0  0  0  0  0  0  0  0  0
    6.1221   -0.9241    7.5156 C   0  0  0  0  0  0  0  0  0  0  0  0
    6.6396   -0.9885    8.8192 C   0  0  0  0  0  0  0  0  0  0  0  0
    7.2180   -2.2489    9.3197 C   0  0  0  0  0  0  0  0  0  0  0  0
    8.1196   -2.9904    8.5838 C   0  0  0  0  0  0  0  0  0  0  0  0
    8.5418   -4.1570    9.1540 C   0  0  0  0  0  0  0  0  0  0  0  0
    9.6538   -5.1654    8.2937 Cl  0  0  0  0  0  0  0  0  0  0  0  0
    8.1489   -4.6091   10.3559 N   0  0  0  0  0  0  0  0  0  0  0  0
    7.2824   -3.8224   11.0038 C   0  0  0  0  0  0  0  0  0  0  0  0
    6.8437   -4.2262   12.2446 N   0  0  0  0  0  0  0  0  0  0  0  0
    6.7946   -2.6795   10.5234 N   0  0  0  0  0  0  0  0  0  0  0  0
    8.2121    0.9480   12.3733 H   0  0  0  0  0  0  0  0  0  0  0  0
    7.1611    2.0537   11.4750 H   0  0  0  0  0  0  0  0  0  0  0  0
    8.6872    1.4582   10.7389 H   0  0  0  0  0  0  0  0  0  0  0  0
    6.0739    2.2802    9.6775 H   0  0  0  0  0  0  0  0  0  0  0  0
    5.1216    2.3138    7.4139 H   0  0  0  0  0  0  0  0  0  0  0  0
    5.1849    0.2819    6.0019 H   0  0  0  0  0  0  0  0  0  0  0  0
    6.1157   -1.8173    6.8964 H   0  0  0  0  0  0  0  0  0  0  0  0
    8.4735   -2.6575    7.6185 H   0  0  0  0  0  0  0  0  0  0  0  0
    6.2086   -3.6374   12.7522 H   0  0  0  0  0  0  0  0  0  0  0  0
    7.1752   -5.0905   12.6242 H   0  0  0  0  0  0  0  0  0  0  0  0
  1  2  1  0  0  0  0
  1 17  1  0  0  0  0
  1 18  1  0  0  0  0
  1 19  1  0  0  0  0
  2  3  1  0  0  0  0
  3  4  2  0  0  0  0
  3  8  1  0  0  0  0
  4  5  1  0  0  0  0
  4 20  1  0  0  0  0
  5  6  2  0  0  0  0
  5 21  1  0  0  0  0
  6  7  1  0  0  0  0
  6 22  1  0  0  0  0
  7  8  2  0  0  0  0
  7 23  1  0  0  0  0
  8  9  1  0  0  0  0
  9 10  2  0  0  0  0
  9 16  1  0  0  0  0
 10 11  1  0  0  0  0
 10 24  1  0  0  0  0
 11 12  1  0  0  0  0
 11 13  2  0  0  0  0
 13 14  1  0  0  0  0
 14 15  1  0  0  0  0
 14 16  2  0  0  0  0
 15 25  1  0  0  0  0
 15 26  1  0  0  0  0
M  END
$$$$
