@<TRIPOS>MOLECULE
4L91_X29_A_301
 26 28 0 0 0
SMALL
USER_CHARGES

@<TRIPOS>ATOM
      1 C         -29.0766   14.5276   25.1610 C.ar    1  LIG1        0.0345
      2 C         -27.7933   14.0780   24.6318 C.ar    1  LIG1       -0.0428
      3 C         -27.6942   12.9647   23.8796 C.ar    1  LIG1       -0.0159
      4 C         -30.1806   13.8036   24.8969 C.ar    1  LIG1        0.0272
      5 N         -30.0673   12.6497   24.1209 N.ar    1  LIG1       -0.2813
      6 C         -28.8612   12.2062   23.5936 C.ar    1  LIG1        0.1614
      7 N         -29.0523   11.1002   22.9148 N.ar    1  LIG1       -0.1291
      8 N         -30.3885   10.7854   22.9990 N.ar    1  LIG1       -0.1284
      9 C         -30.9974   11.7022   23.7307 C.ar    1  LIG1        0.1721
     10 BR        -29.1118   16.0805   26.1852 Br      1  LIG1       -0.0488
     11 C         -32.3867   11.6341   24.1700 C.ar    1  LIG1        0.0626
     12 C         -33.4576   12.0070   23.3429 C.ar    1  LIG1        0.1311
     13 C         -34.7800   11.8175   23.7523 C.ar    1  LIG1        0.0235
     14 C         -35.0319   11.2678   25.0061 C.ar    1  LIG1        0.1386
     15 C         -33.9792   10.9105   25.8491 C.ar    1  LIG1        0.0832
     16 C         -32.6611   11.0851   25.4323 C.ar    1  LIG1       -0.0256
     17 O         -36.3400   11.0927   25.3661 O.3     1  LIG1       -0.5052
     18 O         -33.2048   12.5713   22.1225 O.3     1  LIG1       -0.5059
     19 CL        -34.2933   10.2397   27.4047 Cl      1  LIG1       -0.0797
     20 H         -26.9034   14.6596   24.8574 H       1  LIG1        0.0630
     21 H         -26.7427   12.6219   23.4884 H       1  LIG1        0.0655
     22 H         -31.1651   14.0692   25.2588 H       1  LIG1        0.0825
     23 H         -35.6176   12.0825   23.1144 H       1  LIG1        0.0691
     24 H         -31.8432   10.7689   26.0763 H       1  LIG1        0.0641
     25 H         -36.3461   10.6679   26.2450 H       1  LIG1        0.2922
     26 H         -34.0336   12.6401   21.6216 H       1  LIG1        0.2922
@<TRIPOS>BOND
     1     1     2   ar
     2     1     4   ar
     3     1    10    1
     4     2     3   ar
     5     2    20    1
     6     3     6   ar
     7     3    21    1
     8     4     5   ar
     9     4    22    1
    10     5     6   ar
    11     5     9   ar
    12     6     7   ar
    13     7     8   ar
    14     8     9   ar
    15     9    11    1
    16    11    12   ar
    17    11    16   ar
    18    12    13   ar
    19    12    18    1
    20    13    14   ar
    21    13    23    1
    22    14    15   ar
    23    14    17    1
    24    15    16   ar
    25    15    19    1
    26    16    24    1
    27    17    25    1
    28    18    26    1
