REMARK  3 active torsions:
REMARK  status: ('A' for Active; 'I' for Inactive)
REMARK    1  A    between atoms: C_9  and  C_11 
REMARK    2  A    between atoms: C_12  and  O_18 
REMARK    3  A    between atoms: C_14  and  O_17 
ROOT
ATOM      1  C   LIG d   1     -32.387  11.634  24.170  0.00  0.00     0.063 A 
ATOM      2  C   LIG d   1     -33.458  12.007  23.343  0.00  0.00     0.131 A 
ATOM      3  C   LIG d   1     -34.780  11.818  23.752  0.00  0.00     0.093 A 
ATOM      4  C   LIG d   1     -35.032  11.268  25.006  0.00  0.00     0.139 A 
ATOM      5  C   LIG d   1     -33.979  10.911  25.849  0.00  0.00     0.083 A 
ATOM      6  C   LIG d   1     -32.661  11.085  25.432  0.00  0.00     0.039 A 
ATOM      7 CL   LIG d   1     -34.293  10.240  27.405  0.00  0.00    -0.080 Cl
ENDROOT
BRANCH   1   8
ATOM      8  C   LIG d   1     -30.997  11.702  23.731  0.00  0.00     0.172 A 
ATOM      9  N   LIG d   1     -30.067  12.650  24.121  0.00  0.00    -0.281 N 
ATOM     10  C   LIG d   1     -30.181  13.804  24.897  0.00  0.00     0.110 A 
ATOM     11  C   LIG d   1     -28.861  12.206  23.594  0.00  0.00     0.161 A 
ATOM     12  C   LIG d   1     -29.077  14.528  25.161  0.00  0.00     0.035 A 
ATOM     13  C   LIG d   1     -27.793  14.078  24.632  0.00  0.00     0.020 A 
ATOM     14 BR   LIG d   1     -29.112  16.081  26.185  0.00  0.00    -0.049 Br
ATOM     15  C   LIG d   1     -27.694  12.965  23.880  0.00  0.00     0.050 A 
ATOM     16  N   LIG d   1     -29.052  11.100  22.915  0.00  0.00    -0.129 NA
ATOM     17  N   LIG d   1     -30.389  10.785  22.999  0.00  0.00    -0.128 NA
ENDBRANCH   1   8
BRANCH   2  18
ATOM     18  O   LIG d   1     -33.205  12.571  22.122  0.00  0.00    -0.506 OA
ATOM     19  H   LIG d   1     -34.034  12.640  21.622  0.00  0.00     0.292 HD
ENDBRANCH   2  18
BRANCH   4  20
ATOM     20  O   LIG d   1     -36.340  11.093  25.366  0.00  0.00    -0.505 OA
ATOM     21  H   LIG d   1     -36.346  10.668  26.245  0.00  0.00     0.292 HD
ENDBRANCH   4  20
TORSDOF 3
