REMARK  2 active torsions:
REMARK  status: ('A' for Active; 'I' for Inactive)
REMARK    1  A    between atoms: C_5  and  C_6 
REMARK    2  A    between atoms: C_11  and  N_12 
ROOT
ATOM      1  C   LIG d   1       7.211   0.553   9.469  0.00  0.00     0.077 A 
ATOM      2  N   LIG d   1       6.739   0.137  10.655  0.00  0.00    -0.215 NA
ATOM      3  C   LIG d   1       8.104  -0.215   8.742  0.00  0.00     0.048 A 
ATOM      4  C   LIG d   1       8.478  -1.422   9.283  0.00  0.00     0.116 A 
ATOM      5  N   LIG d   1       8.013  -1.865  10.454  0.00  0.00    -0.223 NA
ATOM      6  C   LIG d   1       7.147  -1.065  11.099  0.00  0.00     0.213 A 
ENDROOT
BRANCH   1   7
ATOM      7  C   LIG d   1       6.732   1.848   8.985  0.00  0.00     0.019 A 
ATOM      8  C   LIG d   1       6.311   2.034   7.667  0.00  0.00     0.120 A 
ATOM      9  N   LIG d   1       5.854   3.203   7.146  0.00  0.00    -0.263 NA
ATOM     10  C   LIG d   1       5.810   4.254   7.994  0.00  0.00     0.111 A 
ATOM     11  C   LIG d   1       6.211   4.188   9.309  0.00  0.00     0.020 A 
ATOM     12  C   LIG d   1       6.670   2.971   9.812  0.00  0.00     0.013 A 
ENDBRANCH   1   7
BRANCH   6  13
ATOM     13  N   LIG d   1       6.646  -1.508  12.297  0.00  0.00    -0.328 N 
ATOM     14  H   LIG d   1       6.937  -2.401  12.647  0.00  0.00     0.145 HD
ATOM     15  H   LIG d   1       5.994  -0.930  12.794  0.00  0.00     0.145 HD
ENDBRANCH   6  13
TORSDOF 2
