@<TRIPOS>MOLECULE
2XDK_XDK_A_1226
 21 22 0 0 0
SMALL
USER_CHARGES

@<TRIPOS>ATOM
      1 C           6.2111    4.1882    9.3095 C.ar    1  LIG1       -0.0430
      2 C           5.8097    4.2540    7.9943 C.ar    1  LIG1        0.0276
      3 N           5.8536    3.2026    7.1459 N.ar    1  LIG1       -0.2626
      4 C           6.3115    2.0345    7.6672 C.ar    1  LIG1        0.0367
      5 C           6.7316    1.8477    8.9847 C.ar    1  LIG1        0.0186
      6 C           7.2111    0.5527    9.4693 C.ar    1  LIG1        0.0775
      7 N           6.7395    0.1371   10.6547 N.ar    1  LIG1       -0.2146
      8 C           8.1045   -0.2147    8.7416 C.ar    1  LIG1       -0.0174
      9 C           8.4781   -1.4217    9.2828 C.ar    1  LIG1        0.0332
     10 N           8.0126   -1.8652   10.4543 N.ar    1  LIG1       -0.2231
     11 C           7.1472   -1.0645   11.0989 C.ar    1  LIG1        0.2130
     12 N           6.6464   -1.5083   12.2972 N.pl3   1  LIG1       -0.3275
     13 C           6.6698    2.9714    9.8117 C.ar    1  LIG1       -0.0497
     14 H           6.1683    5.0688    9.9466 H       1  LIG1        0.0633
     15 H           5.4313    5.1894    7.5901 H       1  LIG1        0.0829
     16 H           6.3288    1.1948    6.9759 H       1  LIG1        0.0836
     17 H           8.5004    0.1206    7.7920 H       1  LIG1        0.0654
     18 H           9.1799   -2.0585    8.7379 H       1  LIG1        0.0831
     19 H           6.9367   -2.4011   12.6468 H       1  LIG1        0.1452
     20 H           5.9940   -0.9300   12.7943 H       1  LIG1        0.1452
     21 H           6.9813    2.9038   10.8467 H       1  LIG1        0.0625
@<TRIPOS>BOND
     1     1     2   ar
     2     1    13   ar
     3     1    14    1
     4     2     3   ar
     5     2    15    1
     6     3     4   ar
     7     4     5   ar
     8     4    16    1
     9     5     6    1
    10     5    13   ar
    11     6     7   ar
    12     6     8   ar
    13     7    11   ar
    14     8     9   ar
    15     8    17    1
    16     9    10   ar
    17     9    18    1
    18    10    11   ar
    19    11    12    1
    20    12    19    1
    21    12    20    1
    22    13    21    1
