@<TRIPOS>MOLECULE
2XJG_XJG_A_1224
 44 46 0 0 0
SMALL
USER_CHARGES

@<TRIPOS>ATOM
      1 C          14.0886   -1.2087    8.9288 C.3     1  LIG1       -0.0585
      2 C          13.8242   -1.8043   10.3117 C.3     1  LIG1       -0.0180
      3 C          14.7055   -1.0931   11.3289 C.3     1  LIG1       -0.0585
      4 C          14.0390   -3.3068   10.3382 C.ar    1  LIG1       -0.0022
      5 C          15.1124   -3.8554    9.6141 C.ar    1  LIG1       -0.0392
      6 C          15.3388   -5.2372    9.5921 C.ar    1  LIG1        0.0787
      7 C          16.4949   -5.7516    8.8457 C.2     1  LIG1        0.2507
      8 O          17.5159   -6.0420    9.4876 O.2     1  LIG1       -0.2698
      9 N          16.4310   -5.8463    7.4783 N.am    1  LIG1       -0.2888
     10 C          17.5228   -6.4207    6.6722 C.3     1  LIG1        0.0407
     11 C          16.8645   -6.6397    5.3436 C.ar    1  LIG1       -0.0254
     12 C          17.3247   -7.3396    4.2429 C.ar    1  LIG1       -0.0568
     13 C          16.5122   -7.4374    3.1067 C.ar    1  LIG1       -0.0614
     14 C          15.2565   -6.8305    3.0910 C.ar    1  LIG1       -0.0614
     15 C          14.8086   -6.1033    4.1968 C.ar    1  LIG1       -0.0568
     16 C          15.6137   -6.0196    5.3218 C.ar    1  LIG1       -0.0254
     17 C          15.3408   -5.3477    6.6304 C.3     1  LIG1        0.0407
     18 C          14.5051   -6.0824   10.3369 C.ar    1  LIG1        0.1324
     19 O          14.7022   -7.4328   10.3406 O.3     1  LIG1       -0.5059
     20 C          13.4419   -5.5523   11.0648 C.ar    1  LIG1        0.0226
     21 C          13.2013   -4.1736   11.0693 C.ar    1  LIG1        0.1270
     22 O          12.1515   -3.6248   11.7653 O.3     1  LIG1       -0.4947
     23 C          11.3373   -4.5358   12.5124 C.3     1  LIG1        0.0788
     24 H          13.9364   -0.1239    8.9313 H       1  LIG1        0.0235
     25 H          13.4183   -1.6570    8.1894 H       1  LIG1        0.0235
     26 H          15.1212   -1.3863    8.6075 H       1  LIG1        0.0235
     27 H          12.7792   -1.5998   10.5619 H       1  LIG1        0.0345
     28 H          15.7673   -1.2428   11.0979 H       1  LIG1        0.0235
     29 H          14.5100   -1.4765   12.3346 H       1  LIG1        0.0235
     30 H          14.5035   -0.0132   11.3248 H       1  LIG1        0.0235
     31 H          15.7834   -3.2141    9.0546 H       1  LIG1        0.0630
     32 H          17.9069   -7.3515    7.1072 H       1  LIG1        0.0514
     33 H          18.3384   -5.6926    6.5891 H       1  LIG1        0.0514
     34 H          18.2953   -7.8203    4.2442 H       1  LIG1        0.0621
     35 H          16.8580   -7.9849    2.2312 H       1  LIG1        0.0618
     36 H          14.6273   -6.9184    2.2081 H       1  LIG1        0.0618
     37 H          13.8270   -5.6493    4.1779 H       1  LIG1        0.0621
     38 H          15.4291   -4.2577    6.5568 H       1  LIG1        0.0514
     39 H          14.3678   -5.6126    7.0450 H       1  LIG1        0.0514
     40 H          14.0425   -7.8925   10.8875 H       1  LIG1        0.2922
     41 H          12.8076   -6.2248   11.6253 H       1  LIG1        0.0691
     42 H          10.5490   -3.9782   13.0116 H       1  LIG1        0.0660
     43 H          11.9348   -5.0545   13.2741 H       1  LIG1        0.0660
     44 H          10.8673   -5.2740   11.8443 H       1  LIG1        0.0660
@<TRIPOS>BOND
     1     1     2    1
     2     1    24    1
     3     1    25    1
     4     1    26    1
     5     2     3    1
     6     2     4    1
     7     2    27    1
     8     3    28    1
     9     3    29    1
    10     3    30    1
    11     4     5   ar
    12     4    21   ar
    13     5     6   ar
    14     5    31    1
    15     6     7    1
    16     6    18   ar
    17     7     8    2
    18     7     9   am
    19     9    10    1
    20     9    17    1
    21    10    11    1
    22    10    32    1
    23    10    33    1
    24    11    12   ar
    25    11    16   ar
    26    12    13   ar
    27    12    34    1
    28    13    14   ar
    29    13    35    1
    30    14    15   ar
    31    14    36    1
    32    15    16   ar
    33    15    37    1
    34    16    17    1
    35    17    38    1
    36    17    39    1
    37    18    19    1
    38    18    20   ar
    39    19    40    1
    40    20    21   ar
    41    20    41    1
    42    21    22    1
    43    22    23    1
    44    23    42    1
    45    23    43    1
    46    23    44    1
