REMARK  4 active torsions:
REMARK  status: ('A' for Active; 'I' for Inactive)
REMARK    1  A    between atoms: C_2  and  C_4 
REMARK    2  A    between atoms: C_6  and  C_7 
REMARK       I    between atoms: C_7  and  N_9 
REMARK    3  A    between atoms: C_18  and  O_19 
REMARK    4  A    between atoms: C_21  and  O_22 
ROOT
ATOM      1  C   LIG d   1      14.039  -3.307  10.338  0.00  0.00    -0.002 A 
ATOM      2  C   LIG d   1      15.112  -3.855   9.614  0.00  0.00     0.024 A 
ATOM      3  C   LIG d   1      15.339  -5.237   9.592  0.00  0.00     0.079 A 
ATOM      4  C   LIG d   1      14.505  -6.082  10.337  0.00  0.00     0.132 A 
ATOM      5  C   LIG d   1      13.442  -5.552  11.065  0.00  0.00     0.092 A 
ATOM      6  C   LIG d   1      13.201  -4.174  11.069  0.00  0.00     0.127 A 
ENDROOT
BRANCH   3   7
ATOM      7  C   LIG d   1      16.495  -5.752   8.846  0.00  0.00     0.251 C 
ATOM      8  O   LIG d   1      17.516  -6.042   9.488  0.00  0.00    -0.270 OA
ATOM      9  N   LIG d   1      16.431  -5.846   7.478  0.00  0.00    -0.289 N 
ATOM     10  C   LIG d   1      17.523  -6.421   6.672  0.00  0.00     0.144 C 
ATOM     11  C   LIG d   1      15.341  -5.348   6.630  0.00  0.00     0.144 C 
ATOM     12  C   LIG d   1      16.864  -6.640   5.344  0.00  0.00    -0.025 A 
ATOM     13  C   LIG d   1      17.325  -7.340   4.243  0.00  0.00     0.005 A 
ATOM     14  C   LIG d   1      15.614  -6.020   5.322  0.00  0.00    -0.025 A 
ATOM     15  C   LIG d   1      16.512  -7.437   3.107  0.00  0.00     0.000 A 
ATOM     16  C   LIG d   1      15.257  -6.830   3.091  0.00  0.00     0.000 A 
ATOM     17  C   LIG d   1      14.809  -6.103   4.197  0.00  0.00     0.005 A 
ENDBRANCH   3   7
BRANCH   4  18
ATOM     18  O   LIG d   1      14.702  -7.433  10.341  0.00  0.00    -0.506 OA
ATOM     19  H   LIG d   1      14.043  -7.893  10.887  0.00  0.00     0.292 HD
ENDBRANCH   4  18
BRANCH   1  20
ATOM     20  C   LIG d   1      13.824  -1.804  10.312  0.00  0.00     0.017 C 
ATOM     21  C   LIG d   1      14.089  -1.209   8.929  0.00  0.00     0.012 C 
ATOM     22  C   LIG d   1      14.706  -1.093  11.329  0.00  0.00     0.012 C 
ENDBRANCH   1  20
BRANCH   6  23
ATOM     23  O   LIG d   1      12.152  -3.625  11.765  0.00  0.00    -0.495 OA
ATOM     24  C   LIG d   1      11.337  -4.536  12.512  0.00  0.00     0.277 C 
ENDBRANCH   6  23
TORSDOF 4
