@<TRIPOS>MOLECULE
2XJX_XJX_A_1232
 60 63 0 0 0
SMALL
USER_CHARGES

@<TRIPOS>ATOM
      1 C          13.7795    0.2911   10.8038 C.3     1  LIG1        0.0000
      2 C          13.0821   -0.4171    9.6418 C.3     1  LIG1        0.0000
      3 C          13.5447    0.1830    8.3047 C.3     1  LIG1        0.0000
      4 C          13.3000   -1.9204    9.7592 C.ar    1  LIG1        0.0000
      5 C          14.4141   -2.5408    9.1790 C.ar    1  LIG1        0.0000
      6 C          14.6133   -3.9188    9.3106 C.ar    1  LIG1        0.0000
      7 C          15.7543   -4.5241    8.5916 C.2     1  LIG1        0.0000
      8 O          16.7484   -4.8909    9.2103 O.2     1  LIG1        0.0000
      9 N          15.7536   -4.6722    7.1873 N.ar    1  LIG1        0.0000
     10 C          16.7744   -5.2388    6.4190 C.ar    1  LIG1        0.0000
     11 C          16.2985   -5.3982    5.1436 C.ar    1  LIG1        0.0000
     12 C          16.9367   -6.0327    4.0880 C.ar    1  LIG1        0.0000
     13 C          16.0985   -6.0408    2.9438 C.ar    1  LIG1        0.0000
     14 C          14.7768   -5.4454    2.8795 C.ar    1  LIG1        0.0000
     15 C          14.0287   -5.4204    1.5558 C.3     1  LIG1        0.0000
     16 N          14.3432   -4.2683    0.6800 N.3     1  LIG1        0.0000
     17 C          14.3006   -2.9804    1.3980 C.3     1  LIG1        0.0000
     18 C          14.6099   -1.7690    0.5030 C.3     1  LIG1        0.0000
     19 N          15.9507   -1.9820   -0.1796 N.4     1  LIG1        1.0000
     20 C          16.3718   -0.7952   -0.9828 C.3     1  LIG1        0.0000
     21 C          15.9178   -3.2638   -0.9941 C.3     1  LIG1        0.0000
     22 C          15.5964   -4.4548   -0.0674 C.3     1  LIG1        0.0000
     23 C          14.1627   -4.8125    3.9982 C.ar    1  LIG1        0.0000
     24 C          15.0039   -4.8299    5.0951 C.ar    1  LIG1        0.0000
     25 C          14.7172   -4.3100    6.3261 C.ar    1  LIG1        0.0000
     26 C          13.7230   -4.6949   10.0444 C.ar    1  LIG1        0.0000
     27 O          13.9068   -6.0468   10.1236 O.3     1  LIG1        0.0000
     28 C          12.6201   -4.1024   10.6605 C.ar    1  LIG1        0.0000
     29 C          12.4162   -2.7233   10.5067 C.ar    1  LIG1        0.0000
     30 O          11.3373   -2.1337   11.0950 O.3     1  LIG1        0.0000
     31 H          13.6351    1.3757   10.7429 H       1  LIG1        0.0000
     32 H          14.8574    0.0929   10.8044 H       1  LIG1        0.0000
     33 H          13.3805   -0.0446   11.7673 H       1  LIG1        0.0000
     34 H          12.0063   -0.2107    9.7036 H       1  LIG1        0.0000
     35 H          14.6290    0.1016    8.1672 H       1  LIG1        0.0000
     36 H          13.2973    1.2478    8.2587 H       1  LIG1        0.0000
     37 H          13.0570   -0.3144    7.4608 H       1  LIG1        0.0000
     38 H          15.1374   -1.9611    8.6133 H       1  LIG1        0.0000
     39 H          17.7025   -5.5292    6.8951 H       1  LIG1        0.0000
     40 H          17.9175   -6.4868    4.1217 H       1  LIG1        0.0000
     41 H          16.4866   -6.5345    2.0502 H       1  LIG1        0.0000
     42 H          12.9481   -5.4078    1.7614 H       1  LIG1        0.0000
     43 H          14.1907   -6.3662    1.0204 H       1  LIG1        0.0000
     44 H          15.0398   -2.9625    2.2074 H       1  LIG1        0.0000
     45 H          13.3091   -2.8349    1.8419 H       1  LIG1        0.0000
     46 H          14.6949   -0.8610    1.1093 H       1  LIG1        0.0000
     47 H          13.8545   -1.6320   -0.2757 H       1  LIG1        0.0000
     48 H          16.6474   -2.1188    0.5643 H       1  LIG1        0.0000
     49 H          15.6357   -0.6285   -1.7730 H       1  LIG1        0.0000
     50 H          17.3595   -1.0029   -1.4008 H       1  LIG1        0.0000
     51 H          16.4261    0.0643   -0.3092 H       1  LIG1        0.0000
     52 H          16.9047   -3.3871   -1.4507 H       1  LIG1        0.0000
     53 H          15.1594   -3.1397   -1.7755 H       1  LIG1        0.0000
     54 H          15.5254   -5.3568   -0.6870 H       1  LIG1        0.0000
     55 H          16.4426   -4.5882    0.6147 H       1  LIG1        0.0000
     56 H          13.1751   -4.3716    3.9795 H       1  LIG1        0.0000
     57 H          13.8465   -3.7837    6.6912 H       1  LIG1        0.0000
     58 H          13.2914   -6.4309   10.7727 H       1  LIG1        0.0000
     59 H          11.9272   -4.6962   11.2405 H       1  LIG1        0.0000
     60 H          10.8358   -2.7940   11.6075 H       1  LIG1        0.0000
@<TRIPOS>BOND
     1     1     2    1
     2     1    31    1
     3     1    32    1
     4     1    33    1
     5     2     3    1
     6     2     4    1
     7     2    34    1
     8     3    35    1
     9     3    36    1
    10     3    37    1
    11     4     5   ar
    12     4    29   ar
    13     5     6   ar
    14     5    38    1
    15     6     7    1
    16     6    26   ar
    17     7     8    2
    18     7     9   am
    19     9    10   ar
    20     9    25   ar
    21    10    11   ar
    22    10    39    1
    23    11    12   ar
    24    11    24   ar
    25    12    13   ar
    26    12    40    1
    27    13    14   ar
    28    13    41    1
    29    14    15    1
    30    14    23   ar
    31    15    16    1
    32    15    42    1
    33    15    43    1
    34    16    17    1
    35    16    22    1
    36    17    18    1
    37    17    44    1
    38    17    45    1
    39    18    19    1
    40    18    46    1
    41    18    47    1
    42    19    20    1
    43    19    21    1
    44    19    48    1
    45    20    49    1
    46    20    50    1
    47    20    51    1
    48    21    22    1
    49    21    52    1
    50    21    53    1
    51    22    54    1
    52    22    55    1
    53    23    24   ar
    54    23    56    1
    55    24    25   ar
    56    25    57    1
    57    26    27    1
    58    26    28   ar
    59    27    58    1
    60    28    29   ar
    61    28    59    1
    62    29    30    1
    63    30    60    1
