REMARK  6 active torsions:
REMARK  status: ('A' for Active; 'I' for Inactive)
REMARK    1  A    between atoms: C_2  and  C_4 
REMARK    2  A    between atoms: C_6  and  C_7 
REMARK       I    between atoms: C_7  and  N_9 
REMARK    3  A    between atoms: C_14  and  C_15 
REMARK    4  A    between atoms: C_15  and  N_16 
REMARK    5  A    between atoms: C_26  and  O_27 
REMARK    6  A    between atoms: C_29  and  O_30 
ROOT
ATOM      1  C   LIG d   1      15.754  -4.524   8.592  0.00  0.00     0.000 C 
ATOM      2  O   LIG d   1      16.748  -4.891   9.210  0.00  0.00     0.000 OA
ATOM      3  N   LIG d   1      15.754  -4.672   7.187  0.00  0.00     0.000 N 
ATOM      4  C   LIG d   1      16.774  -5.239   6.419  0.00  0.00     0.000 C 
ATOM      5  C   LIG d   1      16.299  -5.398   5.144  0.00  0.00     0.000 A 
ATOM      6  C   LIG d   1      16.937  -6.033   4.088  0.00  0.00     0.000 A 
ATOM      7  C   LIG d   1      16.099  -6.041   2.944  0.00  0.00     0.000 A 
ATOM      8  C   LIG d   1      14.777  -5.445   2.880  0.00  0.00     0.000 A 
ATOM      9  C   LIG d   1      14.163  -4.812   3.998  0.00  0.00     0.000 A 
ATOM     10  C   LIG d   1      15.004  -4.830   5.095  0.00  0.00     0.000 A 
ATOM     11  C   LIG d   1      14.717  -4.310   6.326  0.00  0.00     0.000 C 
ENDROOT
BRANCH   1  12
ATOM     12  C   LIG d   1      14.613  -3.919   9.311  0.00  0.00     0.000 A 
ATOM     13  C   LIG d   1      14.414  -2.541   9.179  0.00  0.00     0.000 A 
ATOM     14  C   LIG d   1      13.300  -1.920   9.759  0.00  0.00     0.000 A 
ATOM     15  C   LIG d   1      12.416  -2.723  10.507  0.00  0.00     0.000 A 
ATOM     16  C   LIG d   1      12.620  -4.102  10.661  0.00  0.00     0.000 A 
ATOM     17  C   LIG d   1      13.723  -4.695  10.044  0.00  0.00     0.000 A 
BRANCH  14  18
ATOM     18  C   LIG d   1      13.082  -0.417   9.642  0.00  0.00     0.000 C 
ATOM     19  C   LIG d   1      13.780   0.291  10.804  0.00  0.00     0.000 C 
ATOM     20  C   LIG d   1      13.545   0.183   8.305  0.00  0.00     0.000 C 
ENDBRANCH  14  18
BRANCH  15  21
ATOM     21  O   LIG d   1      11.337  -2.134  11.095  0.00  0.00     0.000 OA
ATOM     22  H   LIG d   1      10.836  -2.794  11.607  0.00  0.00     0.000 HD
ENDBRANCH  15  21
BRANCH  17  23
ATOM     23  O   LIG d   1      13.907  -6.047  10.124  0.00  0.00     0.000 OA
ATOM     24  H   LIG d   1      13.291  -6.431  10.773  0.00  0.00     0.000 HD
ENDBRANCH  17  23
ENDBRANCH   1  12
BRANCH   8  25
ATOM     25  C   LIG d   1      14.029  -5.420   1.556  0.00  0.00     0.000 C 
BRANCH  25  26
ATOM     26  N   LIG d   1      14.343  -4.268   0.680  0.00  0.00     0.000 N 
ATOM     27  C   LIG d   1      14.301  -2.980   1.398  0.00  0.00     0.000 C 
ATOM     28  C   LIG d   1      14.610  -1.769   0.503  0.00  0.00     0.000 C 
ATOM     29  N   LIG d   1      15.951  -1.982  -0.180  0.00  0.00     1.000 N 
ATOM     30  C   LIG d   1      16.372  -0.795  -0.983  0.00  0.00     0.000 C 
ATOM     31  C   LIG d   1      15.918  -3.264  -0.994  0.00  0.00     0.000 C 
ATOM     32  H   LIG d   1      16.647  -2.119   0.564  0.00  0.00     0.000 HD
ATOM     33  C   LIG d   1      15.596  -4.455  -0.067  0.00  0.00     0.000 C 
ENDBRANCH  25  26
ENDBRANCH   8  25
TORSDOF 6
