@<TRIPOS>MOLECULE
4BQJ_XKL_A_1225
 43 45 0 0 0
SMALL
USER_CHARGES

@<TRIPOS>ATOM
      1 O           0.4329    4.3304    9.8958 O.2     1  LIG1       -0.2684
      2 C           0.7418    4.4858   11.0759 C.2     1  LIG1        0.2657
      3 N          -0.1935    4.7301   12.0684 N.am    1  LIG1       -0.3103
      4 C          -1.6215    4.8908   11.8657 C.3     1  LIG1        0.0091
      5 C          -2.3626    3.5719   11.7203 C.3     1  LIG1       -0.0495
      6 C           2.1491    4.3643   11.5262 C.ar    1  LIG1        0.1682
      7 N           2.6533    4.8840   12.6673 N.ar    1  LIG1       -0.0730
      8 O           4.0163    4.5354   12.6688 O.2     1  LIG1       -0.3537
      9 C           3.1476    3.6649   10.8153 C.ar    1  LIG1        0.0178
     10 C           4.3038    3.7884   11.5633 C.ar    1  LIG1        0.1750
     11 C           5.6492    3.2487   11.3722 C.ar    1  LIG1        0.1036
     12 C           6.7989    4.0405   11.5175 C.ar    1  LIG1        0.1346
     13 O           6.6258    5.3471   11.8897 O.3     1  LIG1       -0.5058
     14 C           8.0757    3.5281   11.2493 C.ar    1  LIG1        0.0223
     15 C           8.2156    2.2020   10.8295 C.ar    1  LIG1        0.1239
     16 O           9.4771    1.7355   10.5750 O.3     1  LIG1       -0.5065
     17 C           5.8184    1.9206   10.9252 C.ar    1  LIG1        0.1461
     18 C           7.0999    1.3912   10.6757 C.ar    1  LIG1        0.0231
     19 O           4.6674    1.1529   10.8133 O.3     1  LIG1       -0.4551
     20 C           4.6493    0.1550    9.8744 C.ar    1  LIG1        0.1286
     21 C           5.0574    0.3877    8.5593 C.ar    1  LIG1       -0.0172
     22 C           5.1043   -0.6667    7.6602 C.ar    1  LIG1       -0.0280
     23 C           4.6973   -1.9391    8.0724 C.ar    1  LIG1        0.1264
     24 N           4.8054   -3.0400    7.1151 N.pl3   1  LIG1        0.0564
     25 O           5.6018   -2.8953    6.1767 O.2     1  LIG1       -0.1261
     26 O           4.1069   -4.0464    7.3053 O.2     1  LIG1       -0.1261
     27 C           4.2335   -2.1679    9.3752 C.ar    1  LIG1       -0.0280
     28 C           4.2044   -1.1077   10.2782 C.ar    1  LIG1       -0.0172
     29 H           0.1715    4.7674   13.0153 H       1  LIG1        0.1490
     30 H          -1.8119    5.5138   10.9847 H       1  LIG1        0.0459
     31 H          -2.0085    5.4126   12.7477 H       1  LIG1        0.0459
     32 H          -2.0158    3.0288   10.8400 H       1  LIG1        0.0245
     33 H          -3.4412    3.7489   11.6147 H       1  LIG1        0.0245
     34 H          -2.2090    2.9426   12.6029 H       1  LIG1        0.0245
     35 H           3.0490    3.1246    9.9009 H       1  LIG1        0.0679
     36 H           7.4696    5.8179   11.9590 H       1  LIG1        0.2922
     37 H           8.9646    4.1438   11.3574 H       1  LIG1        0.0691
     38 H           9.4489    0.8031   10.2942 H       1  LIG1        0.2921
     39 H           7.2145    0.3587   10.3605 H       1  LIG1        0.0691
     40 H           5.3814    1.3774    8.2492 H       1  LIG1        0.0655
     41 H           5.4705   -0.4899    6.6520 H       1  LIG1        0.0641
     42 H           3.9202   -3.1601    9.6939 H       1  LIG1        0.0641
     43 H           3.8675   -1.2611   11.3037 H       1  LIG1        0.0655
@<TRIPOS>BOND
     1     1     2    2
     2     2     3   am
     3     2     6    1
     4     3     4    1
     5     3    29    1
     6     4     5    1
     7     4    30    1
     8     4    31    1
     9     5    32    1
    10     5    33    1
    11     5    34    1
    12     6     7   ar
    13     6     9   ar
    14     7     8   ar
    15     8    10   ar
    16     9    10   ar
    17     9    35    1
    18    10    11    1
    19    11    12   ar
    20    11    17   ar
    21    12    13    1
    22    12    14   ar
    23    13    36    1
    24    14    15   ar
    25    14    37    1
    26    15    16    1
    27    15    18   ar
    28    16    38    1
    29    17    18   ar
    30    17    19    1
    31    18    39    1
    32    19    20    1
    33    20    21   ar
    34    20    28   ar
    35    21    22   ar
    36    21    40    1
    37    22    23   ar
    38    22    41    1
    39    23    24    1
    40    23    27   ar
    41    24    25    2
    42    24    26    2
    43    27    28   ar
    44    27    42    1
    45    28    43    1
