REMARK  8 active torsions:
REMARK  status: ('A' for Active; 'I' for Inactive)
REMARK       I    between atoms: C_2  and  N_3 
REMARK    1  A    between atoms: C_2  and  C_6 
REMARK    2  A    between atoms: N_3  and  C_4 
REMARK    3  A    between atoms: C_10  and  C_11 
REMARK    4  A    between atoms: C_12  and  O_13 
REMARK    5  A    between atoms: C_15  and  O_16 
REMARK    6  A    between atoms: C_17  and  O_19 
REMARK    7  A    between atoms: O_19  and  C_20 
REMARK    8  A    between atoms: C_23  and  N_24 
ROOT
ATOM      1  C   LIG d   1       5.649   3.249  11.372  0.00  0.00     0.104 A 
ATOM      2  C   LIG d   1       6.799   4.040  11.518  0.00  0.00     0.135 A 
ATOM      3  C   LIG d   1       8.076   3.528  11.249  0.00  0.00     0.091 A 
ATOM      4  C   LIG d   1       8.216   2.202  10.829  0.00  0.00     0.124 A 
ATOM      5  C   LIG d   1       5.818   1.921  10.925  0.00  0.00     0.146 A 
ATOM      6  C   LIG d   1       7.100   1.391  10.676  0.00  0.00     0.092 A 
ENDROOT
BRANCH   1   7
ATOM      7  C   LIG d   1       4.304   3.788  11.563  0.00  0.00     0.175 A 
ATOM      8  O   LIG d   1       4.016   4.535  12.669  0.00  0.00    -0.354 OA
ATOM      9  N   LIG d   1       2.653   4.884  12.667  0.00  0.00    -0.073 NA
ATOM     10  C   LIG d   1       2.149   4.364  11.526  0.00  0.00     0.168 A 
ATOM     11  C   LIG d   1       3.148   3.665  10.815  0.00  0.00     0.086 A 
BRANCH  10  12
ATOM     12  C   LIG d   1       0.742   4.486  11.076  0.00  0.00     0.266 C 
ATOM     13  O   LIG d   1       0.433   4.330   9.896  0.00  0.00    -0.268 OA
ATOM     14  N   LIG d   1      -0.194   4.730  12.068  0.00  0.00    -0.310 N 
ATOM     15  H   LIG d   1       0.172   4.767  13.015  0.00  0.00     0.149 HD
BRANCH  14  16
ATOM     16  C   LIG d   1      -1.621   4.891  11.866  0.00  0.00     0.101 C 
ATOM     17  C   LIG d   1      -2.363   3.572  11.720  0.00  0.00     0.024 C 
ENDBRANCH  14  16
ENDBRANCH  10  12
ENDBRANCH   1   7
BRANCH   2  18
ATOM     18  O   LIG d   1       6.626   5.347  11.890  0.00  0.00    -0.506 OA
ATOM     19  H   LIG d   1       7.470   5.818  11.959  0.00  0.00     0.292 HD
ENDBRANCH   2  18
BRANCH   5  20
ATOM     20  O   LIG d   1       4.667   1.153  10.813  0.00  0.00    -0.455 OA
BRANCH  20  21
ATOM     21  C   LIG d   1       4.649   0.155   9.874  0.00  0.00     0.129 A 
ATOM     22  C   LIG d   1       5.057   0.388   8.559  0.00  0.00     0.048 A 
ATOM     23  C   LIG d   1       5.104  -0.667   7.660  0.00  0.00     0.036 A 
ATOM     24  C   LIG d   1       4.697  -1.939   8.072  0.00  0.00     0.126 A 
ATOM     25  C   LIG d   1       4.234  -2.168   9.375  0.00  0.00     0.036 A 
ATOM     26  C   LIG d   1       4.204  -1.108  10.278  0.00  0.00     0.048 A 
BRANCH  24  27
ATOM     27  N   LIG d   1       4.805  -3.040   7.115  0.00  0.00     0.056 N 
ATOM     28  O   LIG d   1       5.602  -2.895   6.177  0.00  0.00    -0.126 OA
ATOM     29  O   LIG d   1       4.107  -4.046   7.305  0.00  0.00    -0.126 OA
ENDBRANCH  24  27
ENDBRANCH  20  21
ENDBRANCH   5  20
BRANCH   4  30
ATOM     30  O   LIG d   1       9.477   1.736  10.575  0.00  0.00    -0.506 OA
ATOM     31  H   LIG d   1       9.449   0.803  10.294  0.00  0.00     0.292 HD
ENDBRANCH   4  30
TORSDOF 8
