REMARK  1 active torsions:
REMARK  status: ('A' for Active; 'I' for Inactive)
REMARK    1  A    between atoms: O_1  and  C_2 
ROOT
ATOM      1  C   LIG d   1      29.763  10.938  24.782  0.00  0.00     0.119 A 
ATOM      2  C   LIG d   1      30.838  10.444  25.516  0.00  0.00     0.046 A 
ATOM      3  C   LIG d   1      29.932  11.584  23.556  0.00  0.00     0.073 A 
ATOM      4  C   LIG d   1      31.251  11.704  23.109  0.00  0.00     0.069 A 
ATOM      5  C   LIG d   1      32.339  11.223  23.815  0.00  0.00     0.023 A 
ATOM      6  C   LIG d   1      32.145  10.579  25.043  0.00  0.00     0.015 A 
ATOM      7  N   LIG d   1      31.776  12.264  21.979  0.00  0.00    -0.277 N 
ATOM      8  N   LIG d   1      33.133  12.180  21.905  0.00  0.00    -0.178 NA
ATOM      9  C   LIG d   1      33.468  11.542  23.030  0.00  0.00     0.067 A 
ATOM     10  C   LIG d   1      34.877  11.216  23.392  0.00  0.00     0.068 C 
ATOM     11  H   LIG d   1      31.262  12.717  21.228  0.00  0.00     0.189 HD
ENDROOT
BRANCH   1  12
ATOM     12  O   LIG d   1      28.512  10.770  25.309  0.00  0.00    -0.507 OA
ATOM     13  H   LIG d   1      27.857  11.156  24.704  0.00  0.00     0.292 HD
ENDBRANCH   1  12
TORSDOF 1
