@<TRIPOS>MOLECULE
2YEC_XQ0_A_1226
 19 20 0 0 0
SMALL
USER_CHARGES

@<TRIPOS>ATOM
      1 O          28.5115   10.7701   25.3090 O.3     1  LIG1       -0.5067
      2 C          29.7627   10.9385   24.7824 C.ar    1  LIG1        0.1189
      3 C          30.8382   10.4436   25.5158 C.ar    1  LIG1       -0.0194
      4 C          29.9320   11.5839   23.5562 C.ar    1  LIG1        0.0052
      5 C          31.2510   11.7040   23.1088 C.ar    1  LIG1        0.0694
      6 C          32.3389   11.2229   23.8148 C.ar    1  LIG1        0.0226
      7 C          32.1445   10.5788   25.0425 C.ar    1  LIG1       -0.0474
      8 N          31.7759   12.2644   21.9789 N.ar    1  LIG1       -0.2766
      9 N          33.1330   12.1797   21.9055 N.ar    1  LIG1       -0.1780
     10 C          33.4685   11.5418   23.0301 C.ar    1  LIG1        0.0674
     11 C          34.8765   11.2160   23.3915 C.3     1  LIG1       -0.0200
     12 H          27.8565   11.1563   24.7043 H       1  LIG1        0.2921
     13 H          30.6771    9.9459   26.4653 H       1  LIG1        0.0654
     14 H          29.1045   11.9707   22.9810 H       1  LIG1        0.0675
     15 H          32.9924   10.1996   25.6014 H       1  LIG1        0.0626
     16 H          31.2622   12.7168   21.2278 H       1  LIG1        0.1889
     17 H          34.9263   10.6906   24.3559 H       1  LIG1        0.0293
     18 H          35.4785   12.1222   23.4954 H       1  LIG1        0.0293
     19 H          35.3336   10.5562   22.6498 H       1  LIG1        0.0293
@<TRIPOS>BOND
     1     1     2    1
     2     1    12    1
     3     2     3   ar
     4     2     4   ar
     5     3     7   ar
     6     3    13    1
     7     4     5   ar
     8     4    14    1
     9     5     6   ar
    10     5     8   ar
    11     6     7   ar
    12     6    10   ar
    13     7    15    1
    14     8     9   ar
    15     8    16    1
    16     9    10   ar
    17    10    11    1
    18    11    17    1
    19    11    18    1
    20    11    19    1
