REMARK  1 active torsions:
REMARK  status: ('A' for Active; 'I' for Inactive)
REMARK    1  A    between atoms: C_1  and  S_11 
ROOT
ATOM      1  C   LIG d   1      29.672  55.017  99.521  0.00  0.00     0.127 A 
ATOM      2  C   LIG d   1      28.504  55.380  98.838  0.00  0.00     0.139 A 
ATOM      3  C   LIG d   1      27.314  55.169  99.519  0.00  0.00     0.162 A 
ATOM      4  C   LIG d   1      28.340  54.351 101.302  0.00  0.00     0.224 A 
ATOM      5  C   LIG d   1      26.939  56.035  97.527  0.00  0.00     0.198 A 
ATOM      6  N   LIG d   1      29.575  54.495 100.772  0.00  0.00    -0.227 NA
ATOM      7  N   LIG d   1      27.150  54.662 100.748  0.00  0.00    -0.216 NA
ATOM      8  N   LIG d   1      26.333  55.591  98.670  0.00  0.00    -0.329 N 
ATOM      9  N   LIG d   1      28.248  55.923  97.594  0.00  0.00    -0.232 NA
ATOM     10  H   LIG d   1      25.344  55.572  98.865  0.00  0.00     0.168 HD
ENDROOT
BRANCH   1  11
ATOM     11  S   LIG d   1      31.233  55.262  98.728  0.00  0.00    -0.107 SA
ATOM     12  C   LIG d   1      32.370  54.578  99.956  0.00  0.00     0.091 C 
ENDBRANCH   1  11
TORSDOF 1
