@<TRIPOS>MOLECULE
2YEG_XQG_B_1224
 17 18 0 0 0
SMALL
USER_CHARGES

@<TRIPOS>ATOM
      1 C          29.6723   55.0175   99.5212 C.ar    1  LIG1        0.1274
      2 C          28.5044   55.3801   98.8382 C.ar    1  LIG1        0.1394
      3 C          27.3140   55.1693   99.5193 C.ar    1  LIG1        0.1619
      4 C          28.3405   54.3511  101.3019 C.ar    1  LIG1        0.1196
      5 C          26.9393   56.0349   97.5271 C.ar    1  LIG1        0.0957
      6 C          32.3696   54.5778   99.9555 C.3     1  LIG1       -0.0120
      7 N          29.5752   54.4946  100.7719 N.ar    1  LIG1       -0.2269
      8 N          27.1502   54.6616  100.7478 N.ar    1  LIG1       -0.2163
      9 N          26.3329   55.5908   98.6696 N.ar    1  LIG1       -0.3292
     10 N          28.2477   55.9235   97.5937 N.ar    1  LIG1       -0.2316
     11 S          31.2333   55.2616   98.7277 S.3     1  LIG1       -0.1071
     12 H          28.2993   53.9313  102.3037 H       1  LIG1        0.1048
     13 H          26.3805   56.4258   96.6867 H       1  LIG1        0.1027
     14 H          33.3894   54.6695   99.5697 H       1  LIG1        0.0344
     15 H          32.1662   53.5183  100.1322 H       1  LIG1        0.0344
     16 H          32.3110   55.1306  100.8968 H       1  LIG1        0.0344
     17 H          25.3438   55.5724   98.8651 H       1  LIG1        0.1682
@<TRIPOS>BOND
     1     1     2   ar
     2     1     7   ar
     3     1    11    1
     4     2     3   ar
     5     2    10   ar
     6     3     8   ar
     7     3     9   ar
     8     4     7   ar
     9     4     8   ar
    10     4    12    1
    11     5     9   ar
    12     5    10   ar
    13     5    13    1
    14     6    11    1
    15     6    14    1
    16     6    15    1
    17     6    16    1
    18     9    17    1
