2YEI_XQI_A_1225
 OpenBabel03301717103D

 23 23  0  0  0  0  0  0  0  0999 V2000
    0.8440   10.4511   24.7113 C   0  0  0  0  0  0  0  0  0  0  0  0
   -0.4652   10.3988   25.2024 C   0  0  0  0  0  0  0  0  0  0  0  0
    1.0860   11.1462   23.5162 C   0  0  0  0  0  0  0  0  0  0  0  0
   -1.5050   11.0043   24.4917 C   0  0  0  0  0  0  0  0  0  0  0  0
    0.0501   11.7354   22.8073 C   0  0  0  0  0  0  0  0  0  0  0  0
   -1.2470   11.6704   23.2963 C   0  0  0  0  0  0  0  0  0  0  0  0
   -2.7689   10.9225   25.0010 O   0  0  0  0  0  0  0  0  0  0  0  0
    0.3451   12.3797   21.6393 O   0  0  0  0  0  0  0  0  0  0  0  0
    2.8680    8.9753   24.5031 C   0  0  0  0  0  0  0  0  0  0  0  0
    3.3190    9.4546   23.4376 O   0  0  0  0  0  0  0  0  0  0  0  0
    1.9857    9.7709   25.4557 C   0  0  0  0  0  0  0  0  0  0  0  0
    3.1071    7.6798   24.8520 O   0  0  0  0  0  0  0  0  0  0  0  0
    3.1265    6.6898   23.7858 C   0  0  0  0  0  0  0  0  0  0  0  0
   -0.6733    9.8777   26.1299 H   0  0  0  0  0  0  0  0  0  0  0  0
    2.0952   11.2087   23.1138 H   0  0  0  0  0  0  0  0  0  0  0  0
   -2.0548   12.1398   22.7496 H   0  0  0  0  0  0  0  0  0  0  0  0
   -3.4115   11.3806   24.4236 H   0  0  0  0  0  0  0  0  0  0  0  0
   -0.4579   12.7621   21.2365 H   0  0  0  0  0  0  0  0  0  0  0  0
    1.5642    9.1152   26.2284 H   0  0  0  0  0  0  0  0  0  0  0  0
    2.5753   10.5532   25.9573 H   0  0  0  0  0  0  0  0  0  0  0  0
    3.4166    5.7051   24.1891 H   0  0  0  0  0  0  0  0  0  0  0  0
    3.8103    6.9366   22.9658 H   0  0  0  0  0  0  0  0  0  0  0  0
    2.1026    6.5920   23.3939 H   0  0  0  0  0  0  0  0  0  0  0  0
  1  2  2  0  0  0  0
  1  3  1  0  0  0  0
  1 11  1  0  0  0  0
  2  4  1  0  0  0  0
  2 14  1  0  0  0  0
  3  5  2  0  0  0  0
  3 15  1  0  0  0  0
  4  6  2  0  0  0  0
  4  7  1  0  0  0  0
  5  6  1  0  0  0  0
  5  8  1  0  0  0  0
  6 16  1  0  0  0  0
  7 17  1  0  0  0  0
  8 18  1  0  0  0  0
  9 10  2  0  0  0  0
  9 11  1  0  0  0  0
  9 12  1  0  0  0  0
 11 19  1  0  0  0  0
 11 20  1  0  0  0  0
 12 13  1  0  0  0  0
 13 21  1  0  0  0  0
 13 22  1  0  0  0  0
 13 23  1  0  0  0  0
M  END
$$$$
