@<TRIPOS>MOLECULE
2YE2_XQI_A_1225
 23 23 0 0 0
SMALL
USER_CHARGES

@<TRIPOS>ATOM
      1 C          65.1051   33.5690   26.2431 C.ar    1  LIG1       -0.0299
      2 C          63.9191   33.9479   25.5960 C.ar    1  LIG1       -0.0162
      3 C          65.0255   32.8969   27.4725 C.ar    1  LIG1       -0.0162
      4 C          62.6823   33.6605   26.1700 C.ar    1  LIG1        0.1206
      5 C          63.7826   32.6128   28.0362 C.ar    1  LIG1        0.1206
      6 C          62.6060   32.9905   27.3909 C.ar    1  LIG1        0.0213
      7 O          61.5602   34.0490   25.5045 O.3     1  LIG1       -0.5066
      8 O          63.7593   31.9548   29.2335 O.3     1  LIG1       -0.5066
      9 C          67.2404   34.8846   26.4309 C.2     1  LIG1        0.3112
     10 O          68.1146   34.5951   27.2370 O.2     1  LIG1       -0.2505
     11 C          66.4463   33.8841   25.6257 C.3     1  LIG1        0.0703
     12 O          66.7982   36.1478   26.1641 O.3     1  LIG1       -0.4677
     13 C          67.3267   37.1408   27.0392 C.3     1  LIG1        0.0817
     14 H          63.9539   34.4718   24.6447 H       1  LIG1        0.0657
     15 H          65.9347   32.5935   27.9887 H       1  LIG1        0.0657
     16 H          61.6427   32.7664   27.8377 H       1  LIG1        0.0691
     17 H          60.7706   33.7904   26.0048 H       1  LIG1        0.2921
     18 H          62.8376   31.8238   29.5125 H       1  LIG1        0.2921
     19 H          66.3246   34.2822   24.6103 H       1  LIG1        0.0426
     20 H          67.0363   32.9651   25.5209 H       1  LIG1        0.0426
     21 H          66.9240   38.1112   26.7336 H       1  LIG1        0.0661
     22 H          68.4172   37.1766   26.9766 H       1  LIG1        0.0661
     23 H          67.0015   36.9380   28.0635 H       1  LIG1        0.0661
@<TRIPOS>BOND
     1     1     2   ar
     2     1     3   ar
     3     1    11    1
     4     2     4   ar
     5     2    14    1
     6     3     5   ar
     7     3    15    1
     8     4     6   ar
     9     4     7    1
    10     5     6   ar
    11     5     8    1
    12     6    16    1
    13     7    17    1
    14     8    18    1
    15     9    10    2
    16     9    11    1
    17     9    12    1
    18    11    19    1
    19    11    20    1
    20    12    13    1
    21    13    21    1
    22    13    22    1
    23    13    23    1
