REMARK  5 active torsions:
REMARK  status: ('A' for Active; 'I' for Inactive)
REMARK    1  A    between atoms: C_1  and  C_11 
REMARK    2  A    between atoms: C_4  and  O_7 
REMARK    3  A    between atoms: C_5  and  O_8 
REMARK    4  A    between atoms: C_9  and  C_11 
REMARK    5  A    between atoms: C_9  and  O_12 
ROOT
ATOM      1  C   LIG d   1      65.105  33.569  26.243  0.00  0.00    -0.030 A 
ATOM      2  C   LIG d   1      63.919  33.948  25.596  0.00  0.00     0.049 A 
ATOM      3  C   LIG d   1      65.025  32.897  27.473  0.00  0.00     0.049 A 
ATOM      4  C   LIG d   1      62.682  33.660  26.170  0.00  0.00     0.121 A 
ATOM      5  C   LIG d   1      63.783  32.613  28.036  0.00  0.00     0.121 A 
ATOM      6  C   LIG d   1      62.606  32.990  27.391  0.00  0.00     0.090 A 
ENDROOT
BRANCH   1   7
ATOM      7  C   LIG d   1      66.446  33.884  25.626  0.00  0.00     0.155 C 
BRANCH   7   8
ATOM      8  C   LIG d   1      67.240  34.885  26.431  0.00  0.00     0.311 C 
ATOM      9  O   LIG d   1      68.115  34.595  27.237  0.00  0.00    -0.251 OA
BRANCH   8  10
ATOM     10  O   LIG d   1      66.798  36.148  26.164  0.00  0.00    -0.468 OA
ATOM     11  C   LIG d   1      67.327  37.141  27.039  0.00  0.00     0.280 C 
ENDBRANCH   8  10
ENDBRANCH   7   8
ENDBRANCH   1   7
BRANCH   4  12
ATOM     12  O   LIG d   1      61.560  34.049  25.505  0.00  0.00    -0.507 OA
ATOM     13  H   LIG d   1      60.771  33.790  26.005  0.00  0.00     0.292 HD
ENDBRANCH   4  12
BRANCH   5  14
ATOM     14  O   LIG d   1      63.759  31.955  29.233  0.00  0.00    -0.507 OA
ATOM     15  H   LIG d   1      62.838  31.824  29.512  0.00  0.00     0.292 HD
ENDBRANCH   5  14
TORSDOF 5
