@<TRIPOS>MOLECULE
2YEI_XQI_A_1225
 23 23 0 0 0
SMALL
USER_CHARGES

@<TRIPOS>ATOM
      1 C           0.8440   10.4511   24.7113 C.ar    1  LIG1       -0.0299
      2 C          -0.4652   10.3988   25.2024 C.ar    1  LIG1       -0.0162
      3 C           1.0860   11.1462   23.5162 C.ar    1  LIG1       -0.0162
      4 C          -1.5050   11.0043   24.4917 C.ar    1  LIG1        0.1206
      5 C           0.0501   11.7354   22.8073 C.ar    1  LIG1        0.1206
      6 C          -1.2470   11.6704   23.2963 C.ar    1  LIG1        0.0213
      7 O          -2.7689   10.9225   25.0010 O.3     1  LIG1       -0.5066
      8 O           0.3451   12.3797   21.6393 O.3     1  LIG1       -0.5066
      9 C           2.8680    8.9753   24.5031 C.2     1  LIG1        0.3112
     10 O           3.3190    9.4546   23.4376 O.2     1  LIG1       -0.2505
     11 C           1.9857    9.7709   25.4557 C.3     1  LIG1        0.0703
     12 O           3.1071    7.6798   24.8520 O.3     1  LIG1       -0.4677
     13 C           3.1265    6.6898   23.7858 C.3     1  LIG1        0.0817
     14 H          -0.6733    9.8777   26.1299 H       1  LIG1        0.0657
     15 H           2.0952   11.2087   23.1138 H       1  LIG1        0.0657
     16 H          -2.0548   12.1398   22.7496 H       1  LIG1        0.0691
     17 H          -3.4115   11.3806   24.4236 H       1  LIG1        0.2921
     18 H          -0.4579   12.7621   21.2365 H       1  LIG1        0.2921
     19 H           1.5642    9.1152   26.2284 H       1  LIG1        0.0426
     20 H           2.5753   10.5532   25.9573 H       1  LIG1        0.0426
     21 H           3.4166    5.7051   24.1891 H       1  LIG1        0.0661
     22 H           3.8103    6.9366   22.9658 H       1  LIG1        0.0661
     23 H           2.1026    6.5920   23.3939 H       1  LIG1        0.0661
@<TRIPOS>BOND
     1     1     2   ar
     2     1     3   ar
     3     1    11    1
     4     2     4   ar
     5     2    14    1
     6     3     5   ar
     7     3    15    1
     8     4     6   ar
     9     4     7    1
    10     5     6   ar
    11     5     8    1
    12     6    16    1
    13     7    17    1
    14     8    18    1
    15     9    10    2
    16     9    11    1
    17     9    12    1
    18    11    19    1
    19    11    20    1
    20    12    13    1
    21    13    21    1
    22    13    22    1
    23    13    23    1
