@<TRIPOS>MOLECULE
2YI0_YI0_A_1225
 33 35 0 0 0
SMALL
USER_CHARGES

@<TRIPOS>ATOM
      1 N          30.0956    9.0278   28.0641 N.ar    1  LIG1       -0.1094
      2 N          29.9968    9.9193   27.0953 N.ar    1  LIG1       -0.1404
      3 C          30.8370    9.6150   26.0357 C.ar    1  LIG1        0.1131
      4 C          31.6140    8.4771   26.2121 C.ar    1  LIG1        0.0673
      5 C          30.8933   10.4737   24.8635 C.ar    1  LIG1        0.0463
      6 C          32.5569    7.8197   25.3346 C.ar    1  LIG1       -0.0075
      7 C          32.1540    7.4100   24.0585 C.ar    1  LIG1       -0.0500
      8 C          33.0476    6.8007   23.1752 C.ar    1  LIG1       -0.0194
      9 C          34.3891    6.6558   23.5292 C.ar    1  LIG1        0.1201
     10 C          34.8092    7.0846   24.7782 C.ar    1  LIG1       -0.0194
     11 C          33.9043    7.6494   25.6883 C.ar    1  LIG1       -0.0500
     12 C          29.7190   10.8305   24.1576 C.ar    1  LIG1        0.1296
     13 C          29.7777   11.5867   22.9839 C.ar    1  LIG1        0.0234
     14 C          31.0214   12.0424   22.5587 C.ar    1  LIG1        0.1386
     15 C          32.1855   11.7433   23.2848 C.ar    1  LIG1        0.0831
     16 C          32.1326   10.9355   24.4132 C.ar    1  LIG1       -0.0271
     17 O          31.0896   12.7487   21.3861 O.3     1  LIG1       -0.5052
     18 O          28.5092   10.3893   24.6148 O.3     1  LIG1       -0.5060
     19 O          35.3541    6.1015   22.7326 O.3     1  LIG1       -0.4951
     20 S          31.1881    7.8121   27.7316 S.2     1  LIG1        0.0372
     21 C          34.9559    5.7512   21.4121 C.3     1  LIG1        0.0788
     22 CL         33.7117   12.3548   22.7813 Cl      1  LIG1       -0.0797
     23 H          31.1238    7.5646   23.7454 H       1  LIG1        0.0625
     24 H          32.6537    6.4574   22.2250 H       1  LIG1        0.0654
     25 H          35.8509    6.9655   25.0620 H       1  LIG1        0.0654
     26 H          34.2638    7.9714   26.6572 H       1  LIG1        0.0625
     27 H          28.8853   11.7936   22.3957 H       1  LIG1        0.0691
     28 H          33.0487   10.6726   24.9400 H       1  LIG1        0.0641
     29 H          32.0372   12.8729   21.1696 H       1  LIG1        0.2922
     30 H          27.8000   10.7164   24.0397 H       1  LIG1        0.2922
     31 H          35.8118    5.2932   20.9068 H       1  LIG1        0.0660
     32 H          34.6634    6.6438   20.8476 H       1  LIG1        0.0660
     33 H          34.1431    5.0161   21.4245 H       1  LIG1        0.0660
@<TRIPOS>BOND
     1     1     2   ar
     2     1    20   ar
     3     2     3   ar
     4     3     4   ar
     5     3     5    1
     6     4     6    1
     7     4    20   ar
     8     5    12   ar
     9     5    16   ar
    10     6     7   ar
    11     6    11   ar
    12     7     8   ar
    13     7    23    1
    14     8     9   ar
    15     8    24    1
    16     9    10   ar
    17     9    19    1
    18    10    11   ar
    19    10    25    1
    20    11    26    1
    21    12    13   ar
    22    12    18    1
    23    13    14   ar
    24    13    27    1
    25    14    15   ar
    26    14    17    1
    27    15    16   ar
    28    15    22    1
    29    16    28    1
    30    17    29    1
    31    18    30    1
    32    19    21    1
    33    21    31    1
    34    21    32    1
    35    21    33    1
