REMARK  6 active torsions:
REMARK  status: ('A' for Active; 'I' for Inactive)
REMARK    1  A    between atoms: C_3  and  C_5 
REMARK    2  A    between atoms: C_4  and  C_6 
REMARK    3  A    between atoms: C_8  and  O_24 
REMARK    4  A    between atoms: C_9  and  O_19 
REMARK    5  A    between atoms: C_12  and  O_18 
REMARK    6  A    between atoms: C_14  and  O_17 
ROOT
ATOM      1  N   LIG d   1       2.051  33.236   7.189  0.00  0.00    -0.109 NA
ATOM      2  N   LIG d   1       2.310  32.806   5.968  0.00  0.00    -0.140 NA
ATOM      3  C   LIG d   1       1.701  33.586   5.000  0.00  0.00     0.113 A 
ATOM      4  C   LIG d   1       0.999  34.673   5.510  0.00  0.00     0.067 A 
ATOM      5  S   LIG d   1       1.101  34.596   7.218  0.00  0.00     0.037 SA
ENDROOT
BRANCH   3   6
ATOM      6  C   LIG d   1       1.764  33.215   3.592  0.00  0.00     0.046 A 
ATOM      7  C   LIG d   1       2.970  32.945   2.929  0.00  0.00     0.130 A 
ATOM      8  C   LIG d   1       2.987  32.499   1.609  0.00  0.00     0.092 A 
ATOM      9  C   LIG d   1       1.770  32.358   0.928  0.00  0.00     0.139 A 
ATOM     10  C   LIG d   1       0.554  32.643   1.573  0.00  0.00     0.083 A 
ATOM     11  C   LIG d   1       0.534  33.069   2.891  0.00  0.00     0.037 A 
ATOM     12 CL   LIG d   1      -0.942  32.447   0.743  0.00  0.00    -0.080 Cl
BRANCH   7  13
ATOM     13  O   LIG d   1       4.157  33.100   3.610  0.00  0.00    -0.506 OA
ATOM     14  H   LIG d   1       4.906  32.889   3.040  0.00  0.00     0.292 HD
ENDBRANCH   7  13
BRANCH   9  15
ATOM     15  O   LIG d   1       1.813  31.908  -0.362  0.00  0.00    -0.505 OA
ATOM     16  H   LIG d   1       0.885  31.851  -0.678  0.00  0.00     0.292 HD
ENDBRANCH   9  15
ENDBRANCH   3   6
BRANCH   4  17
ATOM     17  C   LIG d   1       0.366  35.793   4.835  0.00  0.00    -0.004 A 
ATOM     18  C   LIG d   1      -0.785  36.387   5.343  0.00  0.00     0.058 A 
ATOM     19  C   LIG d   1      -1.330  37.508   4.724  0.00  0.00     0.162 A 
ATOM     20  C   LIG d   1      -0.703  38.032   3.580  0.00  0.00     0.162 A 
ATOM     21  C   LIG d   1       0.430  37.434   3.057  0.00  0.00     0.050 A 
ATOM     22  C   LIG d   1       0.960  36.309   3.693  0.00  0.00     0.013 A 
BRANCH  19  23
ATOM     23  O   LIG d   1      -2.484  38.051   5.218  0.00  0.00    -0.491 OA
ATOM     24  C   LIG d   1      -2.693  37.884   6.622  0.00  0.00     0.277 C 
ENDBRANCH  19  23
BRANCH  20  25
ATOM     25  O   LIG d   1      -1.105  39.167   2.909  0.00  0.00    -0.491 OA
ATOM     26  C   LIG d   1      -1.645  40.156   3.772  0.00  0.00     0.277 C 
ENDBRANCH  20  25
ENDBRANCH   4  17
TORSDOF 6
