@<TRIPOS>MOLECULE
2YI5_YI5_A_1226
 37 39 0 0 0
SMALL
USER_CHARGES

@<TRIPOS>ATOM
      1 N           2.0511   33.2359    7.1890 N.ar    1  LIG1       -0.1094
      2 N           2.3098   32.8058    5.9675 N.ar    1  LIG1       -0.1404
      3 C           1.7011   33.5859    5.0002 C.ar    1  LIG1        0.1131
      4 C           0.9987   34.6733    5.5095 C.ar    1  LIG1        0.0674
      5 C           1.7639   33.2146    3.5917 C.ar    1  LIG1        0.0463
      6 C           0.3658   35.7931    4.8348 C.ar    1  LIG1       -0.0040
      7 C          -0.7855   36.3869    5.3427 C.ar    1  LIG1       -0.0080
      8 C          -1.3301   37.5082    4.7243 C.ar    1  LIG1        0.1621
      9 C          -0.7027   38.0325    3.5797 C.ar    1  LIG1        0.1615
     10 C           0.4297   37.4339    3.0565 C.ar    1  LIG1       -0.0157
     11 C           0.9595   36.3091    3.6930 C.ar    1  LIG1       -0.0497
     12 C           2.9699   32.9451    2.9289 C.ar    1  LIG1        0.1296
     13 C           2.9871   32.4993    1.6094 C.ar    1  LIG1        0.0234
     14 C           1.7699   32.3584    0.9278 C.ar    1  LIG1        0.1386
     15 C           0.5541   32.6434    1.5733 C.ar    1  LIG1        0.0831
     16 C           0.5336   33.0690    2.8913 C.ar    1  LIG1       -0.0271
     17 O           1.8134   31.9084   -0.3618 O.3     1  LIG1       -0.5052
     18 O           4.1573   33.0999    3.6098 O.3     1  LIG1       -0.5060
     19 O          -1.1048   39.1674    2.9085 O.3     1  LIG1       -0.4915
     20 S           1.1009   34.5961    7.2178 S.2     1  LIG1        0.0372
     21 C          -1.6447   40.1561    3.7719 C.3     1  LIG1        0.0790
     22 CL         -0.9424   32.4469    0.7426 Cl      1  LIG1       -0.0797
     23 C          -2.6928   37.8841    6.6219 C.3     1  LIG1        0.0790
     24 O          -2.4844   38.0508    5.2176 O.3     1  LIG1       -0.4914
     25 H          -1.2253   35.9791    6.2371 H       1  LIG1        0.0661
     26 H           0.9569   37.8152    2.1907 H       1  LIG1        0.0655
     27 H           1.8834   35.8732    3.3291 H       1  LIG1        0.0625
     28 H           3.9099   32.2664    1.0840 H       1  LIG1        0.0691
     29 H          -0.3924   33.2865    3.3879 H       1  LIG1        0.0641
     30 H           0.8853   31.8513   -0.6784 H       1  LIG1        0.2922
     31 H           4.9060   32.8885    3.0397 H       1  LIG1        0.2922
     32 H          -1.9234   41.0313    3.1894 H       1  LIG1        0.0660
     33 H          -0.9116   40.4336    4.5414 H       1  LIG1        0.0660
     34 H          -2.5832   39.8373    4.2171 H       1  LIG1        0.0660
     35 H          -3.5789   38.4425    6.9087 H       1  LIG1        0.0660
     36 H          -1.8291   38.2632    7.1883 H       1  LIG1        0.0660
     37 H          -2.8909   36.8360    6.8416 H       1  LIG1        0.0660
@<TRIPOS>BOND
     1     1     2   ar
     2     1    20   ar
     3     2     3   ar
     4     3     4   ar
     5     3     5    1
     6     4     6    1
     7     4    20   ar
     8     5    12   ar
     9     5    16   ar
    10     6     7   ar
    11     6    11   ar
    12     7     8   ar
    13     7    25    1
    14     8     9   ar
    15     8    24    1
    16     9    10   ar
    17     9    19    1
    18    10    11   ar
    19    10    26    1
    20    11    27    1
    21    12    13   ar
    22    12    18    1
    23    13    14   ar
    24    13    28    1
    25    14    15   ar
    26    14    17    1
    27    15    16   ar
    28    15    22    1
    29    16    29    1
    30    17    30    1
    31    18    31    1
    32    19    21    1
    33    21    32    1
    34    21    33    1
    35    21    34    1
    36    23    24    1
    37    23    35    1
    38    23    36    1
    39    23    37    1
