@<TRIPOS>MOLECULE
2YK2_YJW_A_1224
 33 35 0 0 0
SMALL
USER_CHARGES

@<TRIPOS>ATOM
      1 N           1.1586  -27.3618  -10.6224 N.ar    1  LIG1       -0.0773
      2 C           0.4523  -26.2433  -10.3933 C.ar    1  LIG1        0.1247
      3 C          -0.3354  -26.3885   -9.2082 C.ar    1  LIG1        0.0517
      4 C          -0.0079  -27.6363   -8.7283 C.ar    1  LIG1        0.1425
      5 C           0.5263  -25.0757  -11.2710 C.ar    1  LIG1        0.0459
      6 C          -1.2243  -25.4577   -8.5504 C.ar    1  LIG1       -0.0125
      7 C          -0.3798  -28.4375   -7.5473 C.3     1  LIG1       -0.0031
      8 C          -0.6968  -24.3919   -7.8153 C.ar    1  LIG1       -0.0539
      9 C          -1.5510  -23.4740   -7.1954 C.ar    1  LIG1       -0.0612
     10 C          -2.9330  -23.6111   -7.3237 C.ar    1  LIG1       -0.0617
     11 C          -3.4638  -24.6611   -8.0685 C.ar    1  LIG1       -0.0612
     12 C          -2.6124  -25.5872   -8.6812 C.ar    1  LIG1       -0.0539
     13 C           1.7506  -24.4786  -11.6067 C.ar    1  LIG1        0.1296
     14 C           1.7879  -23.2989  -12.3527 C.ar    1  LIG1        0.0220
     15 C           0.5964  -22.7080  -12.7625 C.ar    1  LIG1        0.1204
     16 C          -0.6287  -23.2973  -12.4768 C.ar    1  LIG1       -0.0193
     17 C          -0.6604  -24.4814  -11.7351 C.ar    1  LIG1       -0.0455
     18 O           0.6747  -21.5231  -13.4340 O.3     1  LIG1       -0.5066
     19 O           0.8863  -28.2153   -9.5732 O.2     1  LIG1       -0.3587
     20 O           2.9254  -25.0224  -11.1612 O.3     1  LIG1       -0.5060
     21 H          -1.1248  -27.9253   -6.9302 H       1  LIG1        0.0309
     22 H           0.4978  -28.6334   -6.9242 H       1  LIG1        0.0309
     23 H          -0.8021  -29.3989   -7.8574 H       1  LIG1        0.0309
     24 H           0.3800  -24.2648   -7.7234 H       1  LIG1        0.0624
     25 H          -1.1343  -22.6509   -6.6214 H       1  LIG1        0.0618
     26 H          -3.5949  -22.8950   -6.8411 H       1  LIG1        0.0618
     27 H          -4.5399  -24.7593   -8.1789 H       1  LIG1        0.0618
     28 H          -3.0392  -26.3939   -9.2737 H       1  LIG1        0.0624
     29 H           2.7276  -22.8149  -12.5952 H       1  LIG1        0.0691
     30 H          -1.5610  -22.8511  -12.8050 H       1  LIG1        0.0654
     31 H          -1.6257  -24.9302  -11.5093 H       1  LIG1        0.0626
     32 H          -0.2269  -21.1880  -13.5800 H       1  LIG1        0.2921
     33 H           3.6732  -24.5392  -11.5468 H       1  LIG1        0.2922
@<TRIPOS>BOND
     1     1     2   ar
     2     1    19   ar
     3     2     3   ar
     4     2     5    1
     5     3     4   ar
     6     3     6    1
     7     4     7    1
     8     4    19   ar
     9     5    13   ar
    10     5    17   ar
    11     6     8   ar
    12     6    12   ar
    13     7    21    1
    14     7    22    1
    15     7    23    1
    16     8     9   ar
    17     8    24    1
    18     9    10   ar
    19     9    25    1
    20    10    11   ar
    21    10    26    1
    22    11    12   ar
    23    11    27    1
    24    12    28    1
    25    13    14   ar
    26    13    20    1
    27    14    15   ar
    28    14    29    1
    29    15    16   ar
    30    15    18    1
    31    16    17   ar
    32    16    30    1
    33    17    31    1
    34    18    32    1
    35    20    33    1
