REMARK  4 active torsions:
REMARK  status: ('A' for Active; 'I' for Inactive)
REMARK    1  A    between atoms: C_2  and  C_5 
REMARK    2  A    between atoms: C_3  and  C_6 
REMARK    3  A    between atoms: C_13  and  O_20 
REMARK    4  A    between atoms: C_15  and  O_18 
ROOT
ATOM      1  N   LIG d   1       1.159 -27.362 -10.622  0.00  0.00    -0.077 NA
ATOM      2  C   LIG d   1       0.452 -26.243 -10.393  0.00  0.00     0.125 A 
ATOM      3  C   LIG d   1      -0.335 -26.389  -9.208  0.00  0.00     0.052 A 
ATOM      4  C   LIG d   1      -0.008 -27.636  -8.728  0.00  0.00     0.142 A 
ATOM      5  C   LIG d   1      -0.380 -28.438  -7.547  0.00  0.00     0.090 C 
ATOM      6  O   LIG d   1       0.886 -28.215  -9.573  0.00  0.00    -0.359 OA
ENDROOT
BRANCH   2   7
ATOM      7  C   LIG d   1       0.526 -25.076 -11.271  0.00  0.00     0.046 A 
ATOM      8  C   LIG d   1       1.751 -24.479 -11.607  0.00  0.00     0.130 A 
ATOM      9  C   LIG d   1       1.788 -23.299 -12.353  0.00  0.00     0.091 A 
ATOM     10  C   LIG d   1       0.596 -22.708 -12.762  0.00  0.00     0.120 A 
ATOM     11  C   LIG d   1      -0.629 -23.297 -12.477  0.00  0.00     0.046 A 
ATOM     12  C   LIG d   1      -0.660 -24.481 -11.735  0.00  0.00     0.017 A 
BRANCH   8  13
ATOM     13  O   LIG d   1       2.925 -25.022 -11.161  0.00  0.00    -0.506 OA
ATOM     14  H   LIG d   1       3.673 -24.539 -11.547  0.00  0.00     0.292 HD
ENDBRANCH   8  13
BRANCH  10  15
ATOM     15  O   LIG d   1       0.675 -21.523 -13.434  0.00  0.00    -0.507 OA
ATOM     16  H   LIG d   1      -0.227 -21.188 -13.580  0.00  0.00     0.292 HD
ENDBRANCH  10  15
ENDBRANCH   2   7
BRANCH   3  17
ATOM     17  C   LIG d   1      -1.224 -25.458  -8.550  0.00  0.00    -0.013 A 
ATOM     18  C   LIG d   1      -0.697 -24.392  -7.815  0.00  0.00     0.008 A 
ATOM     19  C   LIG d   1      -1.551 -23.474  -7.195  0.00  0.00     0.001 A 
ATOM     20  C   LIG d   1      -2.933 -23.611  -7.324  0.00  0.00     0.000 A 
ATOM     21  C   LIG d   1      -3.464 -24.661  -8.069  0.00  0.00     0.001 A 
ATOM     22  C   LIG d   1      -2.612 -25.587  -8.681  0.00  0.00     0.008 A 
ENDBRANCH   3  17
TORSDOF 4
