2YK2_YJW_A_1224
 OpenBabel03301717123D

 33 35  0  0  0  0  0  0  0  0999 V2000
    1.1586  -27.3618  -10.6224 N   0  0  0  0  0  0  0  0  0  0  0  0
    0.4523  -26.2433  -10.3933 C   0  0  0  0  0  0  0  0  0  0  0  0
   -0.3354  -26.3885   -9.2082 C   0  0  0  0  0  0  0  0  0  0  0  0
   -0.0079  -27.6363   -8.7283 C   0  0  0  0  0  0  0  0  0  0  0  0
    0.5263  -25.0757  -11.2710 C   0  0  0  0  0  0  0  0  0  0  0  0
   -1.2243  -25.4577   -8.5504 C   0  0  0  0  0  0  0  0  0  0  0  0
   -0.3798  -28.4375   -7.5473 C   0  0  0  0  0  0  0  0  0  0  0  0
   -0.6968  -24.3919   -7.8153 C   0  0  0  0  0  0  0  0  0  0  0  0
   -1.5510  -23.4740   -7.1954 C   0  0  0  0  0  0  0  0  0  0  0  0
   -2.9330  -23.6111   -7.3237 C   0  0  0  0  0  0  0  0  0  0  0  0
   -3.4638  -24.6611   -8.0685 C   0  0  0  0  0  0  0  0  0  0  0  0
   -2.6124  -25.5872   -8.6812 C   0  0  0  0  0  0  0  0  0  0  0  0
    1.7506  -24.4786  -11.6067 C   0  0  0  0  0  0  0  0  0  0  0  0
    1.7879  -23.2989  -12.3527 C   0  0  0  0  0  0  0  0  0  0  0  0
    0.5964  -22.7080  -12.7625 C   0  0  0  0  0  0  0  0  0  0  0  0
   -0.6287  -23.2973  -12.4768 C   0  0  0  0  0  0  0  0  0  0  0  0
   -0.6604  -24.4814  -11.7351 C   0  0  0  0  0  0  0  0  0  0  0  0
    0.6747  -21.5231  -13.4340 O   0  0  0  0  0  0  0  0  0  0  0  0
    0.8863  -28.2153   -9.5732 O   0  0  0  0  0  0  0  0  0  0  0  0
    2.9254  -25.0224  -11.1612 O   0  0  0  0  0  0  0  0  0  0  0  0
   -1.1248  -27.9253   -6.9302 H   0  0  0  0  0  0  0  0  0  0  0  0
    0.4978  -28.6334   -6.9242 H   0  0  0  0  0  0  0  0  0  0  0  0
   -0.8021  -29.3989   -7.8574 H   0  0  0  0  0  0  0  0  0  0  0  0
    0.3800  -24.2648   -7.7234 H   0  0  0  0  0  0  0  0  0  0  0  0
   -1.1343  -22.6509   -6.6214 H   0  0  0  0  0  0  0  0  0  0  0  0
   -3.5949  -22.8950   -6.8411 H   0  0  0  0  0  0  0  0  0  0  0  0
   -4.5399  -24.7593   -8.1789 H   0  0  0  0  0  0  0  0  0  0  0  0
   -3.0392  -26.3939   -9.2737 H   0  0  0  0  0  0  0  0  0  0  0  0
    2.7276  -22.8149  -12.5952 H   0  0  0  0  0  0  0  0  0  0  0  0
   -1.5610  -22.8511  -12.8050 H   0  0  0  0  0  0  0  0  0  0  0  0
   -1.6257  -24.9302  -11.5093 H   0  0  0  0  0  0  0  0  0  0  0  0
   -0.2269  -21.1880  -13.5800 H   0  0  0  0  0  0  0  0  0  0  0  0
    3.6732  -24.5392  -11.5468 H   0  0  0  0  0  0  0  0  0  0  0  0
  1  2  2  0  0  0  0
  1 19  1  0  0  0  0
  2  3  1  0  0  0  0
  2  5  1  0  0  0  0
  3  4  2  0  0  0  0
  3  6  1  0  0  0  0
  4  7  1  0  0  0  0
  4 19  1  0  0  0  0
  5 13  2  0  0  0  0
  5 17  1  0  0  0  0
  6  8  2  0  0  0  0
  6 12  1  0  0  0  0
  7 21  1  0  0  0  0
  7 22  1  0  0  0  0
  7 23  1  0  0  0  0
  8  9  1  0  0  0  0
  8 24  1  0  0  0  0
  9 10  2  0  0  0  0
  9 25  1  0  0  0  0
 10 11  1  0  0  0  0
 10 26  1  0  0  0  0
 11 12  2  0  0  0  0
 11 27  1  0  0  0  0
 12 28  1  0  0  0  0
 13 14  1  0  0  0  0
 13 20  1  0  0  0  0
 14 15  2  0  0  0  0
 14 29  1  0  0  0  0
 15 16  1  0  0  0  0
 15 18  1  0  0  0  0
 16 17  2  0  0  0  0
 16 30  1  0  0  0  0
 17 31  1  0  0  0  0
 18 32  1  0  0  0  0
 20 33  1  0  0  0  0
M  END
$$$$
