@<TRIPOS>MOLECULE
2YJW_YJW_A_1224
 33 35 0 0 0
SMALL
USER_CHARGES

@<TRIPOS>ATOM
      1 N           2.4279   34.5690   27.0828 N.ar    1  LIG1       -0.0773
      2 C           1.6737   34.7680   25.9851 C.ar    1  LIG1        0.1247
      3 C           0.9177   35.9579   26.1274 C.ar    1  LIG1        0.0517
      4 C           1.2948   36.4914   27.3182 C.ar    1  LIG1        0.1425
      5 C           1.6471   33.8807   24.8230 C.ar    1  LIG1        0.0459
      6 C           0.0389   36.6454   25.2032 C.ar    1  LIG1       -0.0125
      7 C           0.8970   37.7487   27.9643 C.3     1  LIG1       -0.0031
      8 C           0.5685   37.1507   24.0070 C.ar    1  LIG1       -0.0539
      9 C          -0.2528   37.8515   23.1190 C.ar    1  LIG1       -0.0612
     10 C          -1.5951   38.0112   23.4044 C.ar    1  LIG1       -0.0617
     11 C          -2.1346   37.5259   24.6038 C.ar    1  LIG1       -0.0612
     12 C          -1.3143   36.8475   25.5064 C.ar    1  LIG1       -0.0539
     13 C           2.8227   33.4664   24.1802 C.ar    1  LIG1        0.1296
     14 C           2.7372   32.7107   23.0076 C.ar    1  LIG1        0.0220
     15 C           1.4855   32.3668   22.4868 C.ar    1  LIG1        0.1204
     16 C           0.3063   32.7547   23.1149 C.ar    1  LIG1       -0.0193
     17 C           0.3925   33.5311   24.2672 C.ar    1  LIG1       -0.0455
     18 O           1.4608   31.6481   21.3222 O.3     1  LIG1       -0.5066
     19 O           2.1915   35.6637   27.9177 O.2     1  LIG1       -0.3587
     20 O           4.0292   33.8684   24.6873 O.3     1  LIG1       -0.5060
     21 H           0.1923   38.2775   27.3154 H       1  LIG1        0.0309
     22 H           1.7437   38.4221   28.1085 H       1  LIG1        0.0309
     23 H           0.3760   37.5586   28.9046 H       1  LIG1        0.0309
     24 H           1.6325   37.0329   23.7961 H       1  LIG1        0.0624
     25 H           0.1765   38.2402   22.1953 H       1  LIG1        0.0618
     26 H          -2.2325   38.5416   22.7030 H       1  LIG1        0.0618
     27 H          -3.1836   37.6756   24.8341 H       1  LIG1        0.0618
     28 H          -1.7309   36.4905   26.4463 H       1  LIG1        0.0624
     29 H           3.6335   32.3976   22.4857 H       1  LIG1        0.0691
     30 H          -0.6724   32.4769   22.7324 H       1  LIG1        0.0654
     31 H          -0.5283   33.8917   24.7248 H       1  LIG1        0.0626
     32 H           0.5371   31.5125   21.0468 H       1  LIG1        0.2921
     33 H           4.7809   33.5069   24.1952 H       1  LIG1        0.2922
@<TRIPOS>BOND
     1     1     2   ar
     2     1    19   ar
     3     2     3   ar
     4     2     5    1
     5     3     4   ar
     6     3     6    1
     7     4     7    1
     8     4    19   ar
     9     5    13   ar
    10     5    17   ar
    11     6     8   ar
    12     6    12   ar
    13     7    21    1
    14     7    22    1
    15     7    23    1
    16     8     9   ar
    17     8    24    1
    18     9    10   ar
    19     9    25    1
    20    10    11   ar
    21    10    26    1
    22    11    12   ar
    23    11    27    1
    24    12    28    1
    25    13    14   ar
    26    13    20    1
    27    14    15   ar
    28    14    29    1
    29    15    16   ar
    30    15    18    1
    31    16    17   ar
    32    16    30    1
    33    17    31    1
    34    18    32    1
    35    20    33    1
