REMARK  4 active torsions:
REMARK  status: ('A' for Active; 'I' for Inactive)
REMARK    1  A    between atoms: C_2  and  C_5 
REMARK    2  A    between atoms: C_3  and  C_6 
REMARK    3  A    between atoms: C_13  and  O_20 
REMARK    4  A    between atoms: C_15  and  O_18 
ROOT
ATOM      1  N   LIG d   1       2.428  34.569  27.083  0.00  0.00    -0.077 NA
ATOM      2  C   LIG d   1       1.674  34.768  25.985  0.00  0.00     0.125 A 
ATOM      3  C   LIG d   1       0.918  35.958  26.127  0.00  0.00     0.052 A 
ATOM      4  C   LIG d   1       1.295  36.491  27.318  0.00  0.00     0.142 A 
ATOM      5  C   LIG d   1       0.897  37.749  27.964  0.00  0.00     0.090 C 
ATOM      6  O   LIG d   1       2.192  35.664  27.918  0.00  0.00    -0.359 OA
ENDROOT
BRANCH   2   7
ATOM      7  C   LIG d   1       1.647  33.881  24.823  0.00  0.00     0.046 A 
ATOM      8  C   LIG d   1       2.823  33.466  24.180  0.00  0.00     0.130 A 
ATOM      9  C   LIG d   1       2.737  32.711  23.008  0.00  0.00     0.091 A 
ATOM     10  C   LIG d   1       1.486  32.367  22.487  0.00  0.00     0.120 A 
ATOM     11  C   LIG d   1       0.306  32.755  23.115  0.00  0.00     0.046 A 
ATOM     12  C   LIG d   1       0.393  33.531  24.267  0.00  0.00     0.017 A 
BRANCH   8  13
ATOM     13  O   LIG d   1       4.029  33.868  24.687  0.00  0.00    -0.506 OA
ATOM     14  H   LIG d   1       4.781  33.507  24.195  0.00  0.00     0.292 HD
ENDBRANCH   8  13
BRANCH  10  15
ATOM     15  O   LIG d   1       1.461  31.648  21.322  0.00  0.00    -0.507 OA
ATOM     16  H   LIG d   1       0.537  31.512  21.047  0.00  0.00     0.292 HD
ENDBRANCH  10  15
ENDBRANCH   2   7
BRANCH   3  17
ATOM     17  C   LIG d   1       0.039  36.645  25.203  0.00  0.00    -0.013 A 
ATOM     18  C   LIG d   1       0.569  37.151  24.007  0.00  0.00     0.008 A 
ATOM     19  C   LIG d   1      -0.253  37.852  23.119  0.00  0.00     0.001 A 
ATOM     20  C   LIG d   1      -1.595  38.011  23.404  0.00  0.00     0.000 A 
ATOM     21  C   LIG d   1      -2.135  37.526  24.604  0.00  0.00     0.001 A 
ATOM     22  C   LIG d   1      -1.314  36.847  25.506  0.00  0.00     0.008 A 
ENDBRANCH   3  17
TORSDOF 4
