@<TRIPOS>MOLECULE
2YJX_YJX_A_1224
 37 41 0 0 0
SMALL
USER_CHARGES

@<TRIPOS>ATOM
      1 C           8.5978   10.3566  -26.0985 C.ar    1  LIG1       -0.0611
      2 C           7.4567    9.7472  -26.6701 C.ar    1  LIG1       -0.0610
      3 C           8.5454   11.5533  -25.3234 C.ar    1  LIG1       -0.0521
      4 C           6.2159   10.3749  -26.4869 C.ar    1  LIG1       -0.0490
      5 C          12.3039   14.3447  -23.9110 C.ar    1  LIG1       -0.0181
      6 C          13.2581   14.5512  -22.9092 C.ar    1  LIG1        0.0296
      7 C          11.6459   14.7473  -21.1706 C.ar    1  LIG1        0.0550
      8 C           7.2992   12.1654  -25.1347 C.ar    1  LIG1        0.0089
      9 C           6.1623   11.5581  -25.7301 C.ar    1  LIG1        0.0461
     10 C          10.9858   14.3639  -23.4730 C.ar    1  LIG1        0.0694
     11 C          10.6403   14.5624  -22.1357 C.ar    1  LIG1        0.1075
     12 C           8.7868   14.2913  -23.2013 C.ar    1  LIG1        0.1371
     13 C           6.8146   13.3541  -24.3520 C.2     1  LIG1        0.0510
     14 C           4.9080   12.3645  -25.3687 C.2     1  LIG1        0.2515
     15 C           7.4018   14.2610  -23.5260 C.2     1  LIG1        0.0169
     16 C           6.5117   15.2489  -22.7700 C.3     1  LIG1       -0.0210
     17 C           5.2317   15.6241  -23.4944 C.3     1  LIG1       -0.0326
     18 C           4.5096   14.3976  -24.0064 C.3     1  LIG1        0.0204
     19 N          12.9662   14.7364  -21.5837 N.ar    1  LIG1       -0.2610
     20 N           9.7853   14.2233  -24.1551 N.ar    1  LIG1       -0.3380
     21 N           9.2740   14.5305  -21.9984 N.ar    1  LIG1       -0.2265
     22 N           5.4181   13.4036  -24.5591 N.am    1  LIG1       -0.2665
     23 O           3.7673   12.1883  -25.6823 O.2     1  LIG1       -0.2696
     24 H           9.5655    9.8809  -26.2644 H       1  LIG1        0.0618
     25 H           7.5464    8.8036  -27.2418 H       1  LIG1        0.0618
     26 H           9.4861   11.9165  -24.8898 H       1  LIG1        0.0624
     27 H           5.3247    9.9343  -26.9307 H       1  LIG1        0.0625
     28 H          12.5697   14.1859  -24.9523 H       1  LIG1        0.0654
     29 H          14.3214   14.5701  -23.2044 H       1  LIG1        0.0830
     30 H          11.3890   14.8945  -20.1097 H       1  LIG1        0.0852
     31 H           7.0770   16.1746  -22.5777 H       1  LIG1        0.0315
     32 H           6.2489   14.8186  -21.7908 H       1  LIG1        0.0315
     33 H           5.4713   16.2736  -24.3443 H       1  LIG1        0.0284
     34 H           4.5674   16.1861  -22.8198 H       1  LIG1        0.0284
     35 H           3.7854   14.7059  -24.7802 H       1  LIG1        0.0469
     36 H           3.9265   13.9522  -23.1859 H       1  LIG1        0.0469
     37 H           9.6693   14.0687  -25.1584 H       1  LIG1        0.1674
@<TRIPOS>BOND
     1     1     2   ar
     2     1     3   ar
     3     1    24    1
     4     2     4   ar
     5     2    25    1
     6     3     8   ar
     7     3    26    1
     8     4     9   ar
     9     4    27    1
    10     5     6   ar
    11     5    10   ar
    12     5    28    1
    13     6    19   ar
    14     6    29    1
    15     7    11   ar
    16     7    19   ar
    17     7    30    1
    18     8     9   ar
    19     8    13    1
    20     9    14    1
    21    10    11   ar
    22    10    20   ar
    23    11    21   ar
    24    12    15    1
    25    12    20   ar
    26    12    21   ar
    27    13    15    2
    28    13    22    1
    29    14    22   am
    30    14    23    2
    31    15    16    1
    32    16    17    1
    33    16    31    1
    34    16    32    1
    35    17    18    1
    36    17    33    1
    37    17    34    1
    38    18    22    1
    39    18    35    1
    40    18    36    1
    41    20    37    1
