REMARK  1 active torsions:
REMARK  status: ('A' for Active; 'I' for Inactive)
REMARK    1  A    between atoms: C_12  and  C_15 
ROOT
ATOM      1  C   LIG d   1       8.598  10.357 -26.099  0.00  0.00     0.001 A 
ATOM      2  C   LIG d   1       7.457   9.747 -26.670  0.00  0.00     0.001 A 
ATOM      3  C   LIG d   1       8.545  11.553 -25.323  0.00  0.00     0.010 A 
ATOM      4  C   LIG d   1       6.216  10.375 -26.487  0.00  0.00     0.013 A 
ATOM      5  C   LIG d   1       7.299  12.165 -25.135  0.00  0.00     0.009 A 
ATOM      6  C   LIG d   1       6.162  11.558 -25.730  0.00  0.00     0.046 A 
ATOM      7  C   LIG d   1       6.815  13.354 -24.352  0.00  0.00     0.051 A 
ATOM      8  C   LIG d   1       4.908  12.364 -25.369  0.00  0.00     0.252 A 
ATOM      9  C   LIG d   1       7.402  14.261 -23.526  0.00  0.00     0.017 C 
ATOM     10  C   LIG d   1       6.512  15.249 -22.770  0.00  0.00     0.042 C 
ATOM     11  C   LIG d   1       5.232  15.624 -23.494  0.00  0.00     0.024 C 
ATOM     12  C   LIG d   1       4.510  14.398 -24.006  0.00  0.00     0.114 C 
ATOM     13  N   LIG d   1       5.418  13.404 -24.559  0.00  0.00    -0.267 N 
ATOM     14  O   LIG d   1       3.767  12.188 -25.682  0.00  0.00    -0.270 OA
ENDROOT
BRANCH   9  15
ATOM     15  C   LIG d   1       8.787  14.291 -23.201  0.00  0.00     0.137 A 
ATOM     16  N   LIG d   1       9.785  14.223 -24.155  0.00  0.00    -0.338 N 
ATOM     17  C   LIG d   1      10.986  14.364 -23.473  0.00  0.00     0.069 A 
ATOM     18  H   LIG d   1       9.669  14.069 -25.158  0.00  0.00     0.167 HD
ATOM     19  C   LIG d   1      12.304  14.345 -23.911  0.00  0.00     0.047 A 
ATOM     20  C   LIG d   1      10.640  14.562 -22.136  0.00  0.00     0.107 A 
ATOM     21  C   LIG d   1      13.258  14.551 -22.909  0.00  0.00     0.113 A 
ATOM     22  N   LIG d   1      12.966  14.736 -21.584  0.00  0.00    -0.261 NA
ATOM     23  C   LIG d   1      11.646  14.747 -21.171  0.00  0.00     0.140 A 
ATOM     24  N   LIG d   1       9.274  14.530 -21.998  0.00  0.00    -0.227 NA
ENDBRANCH   9  15
TORSDOF 1
