2YK9_YK9_A_1224
 OpenBabel03301717123D

 34 38  0  0  0  0  0  0  0  0999 V2000
    8.5674   10.3438   23.4454 C   0  0  0  0  0  0  0  0  0  0  0  0
    7.4844    9.7416   22.7947 C   0  0  0  0  0  0  0  0  0  0  0  0
    8.3879   11.5405   24.1547 C   0  0  0  0  0  0  0  0  0  0  0  0
    6.2084   10.3093   22.8655 C   0  0  0  0  0  0  0  0  0  0  0  0
   11.5510   14.6829   28.1593 C   0  0  0  0  0  0  0  0  0  0  0  0
   12.8452   14.7074   27.6582 C   0  0  0  0  0  0  0  0  0  0  0  0
   12.1308   14.4392   25.4558 C   0  0  0  0  0  0  0  0  0  0  0  0
    7.1231   12.1210   24.2380 C   0  0  0  0  0  0  0  0  0  0  0  0
    6.0531   11.4791   23.5958 C   0  0  0  0  0  0  0  0  0  0  0  0
   10.5402   14.5303   27.2243 C   0  0  0  0  0  0  0  0  0  0  0  0
   10.7983   14.3967   25.8754 C   0  0  0  0  0  0  0  0  0  0  0  0
    8.6527   14.3098   26.0608 C   0  0  0  0  0  0  0  0  0  0  0  0
    6.6266   13.3031   24.9484 C   0  0  0  0  0  0  0  0  0  0  0  0
    4.7918   12.2413   23.8758 C   0  0  0  0  0  0  0  0  0  0  0  0
    7.2239   14.2543   25.7845 C   0  0  0  0  0  0  0  0  0  0  0  0
    6.4064   15.2384   26.3933 C   0  0  0  0  0  0  0  0  0  0  0  0
    5.0265   15.2847   26.1695 C   0  0  0  0  0  0  0  0  0  0  0  0
    4.4310   14.3522   25.3173 C   0  0  0  0  0  0  0  0  0  0  0  0
   13.1529   14.5968   26.3498 N   0  0  0  0  0  0  0  0  0  0  0  0
    9.1759   14.4884   27.3263 N   0  3  0  0  0  0  0  0  0  0  0  0
    5.2353   13.3827   24.7431 C   0  0  0  0  0  0  0  0  0  0  0  0
    9.6256   14.2523   25.1726 N   0  0  0  0  0  0  0  0  0  0  0  0
    3.6647   11.9934   23.5120 O   0  0  0  0  0  0  0  0  0  0  0  0
    9.5485    9.8710   23.3936 H   0  0  0  0  0  0  0  0  0  0  0  0
    7.6393    8.8240   22.2305 H   0  0  0  0  0  0  0  0  0  0  0  0
    9.2520   11.9832   24.6356 H   0  0  0  0  0  0  0  0  0  0  0  0
    5.3775    9.8340   22.3633 H   0  0  0  0  0  0  0  0  0  0  0  0
   11.3639   14.7812   29.2134 H   0  0  0  0  0  0  0  0  0  0  0  0
   13.6842   14.8236   28.3429 H   0  0  0  0  0  0  0  0  0  0  0  0
   12.4031   14.3601   24.4160 H   0  0  0  0  0  0  0  0  0  0  0  0
    6.8492   15.9954   27.0442 H   0  0  0  0  0  0  0  0  0  0  0  0
    4.4173   16.0441   26.6578 H   0  0  0  0  0  0  0  0  0  0  0  0
    3.3676   14.3933   25.1280 H   0  0  0  0  0  0  0  0  0  0  0  0
    8.6422   14.5790   28.1807 H   0  0  0  0  0  0  0  0  0  0  0  0
  1  2  2  0  0  0  0
  1  3  1  0  0  0  0
  1 24  1  0  0  0  0
  2  4  1  0  0  0  0
  2 25  1  0  0  0  0
  3  8  2  0  0  0  0
  3 26  1  0  0  0  0
  4  9  2  0  0  0  0
  4 27  1  0  0  0  0
  5  6  2  0  0  0  0
  5 10  1  0  0  0  0
  5 28  1  0  0  0  0
  6 19  1  0  0  0  0
  6 29  1  0  0  0  0
  7 11  1  0  0  0  0
  7 19  2  0  0  0  0
  7 30  1  0  0  0  0
  8  9  1  0  0  0  0
  8 13  1  0  0  0  0
  9 14  1  0  0  0  0
 10 11  2  0  0  0  0
 10 20  1  0  0  0  0
 11 22  1  0  0  0  0
 12 15  1  0  0  0  0
 12 20  2  0  0  0  0
 12 22  1  0  0  0  0
 13 15  2  0  0  0  0
 13 21  1  0  0  0  0
 14 21  1  0  0  0  0
 14 23  2  0  0  0  0
 15 16  1  0  0  0  0
 16 17  2  0  0  0  0
 16 31  1  0  0  0  0
 17 18  1  0  0  0  0
 17 32  1  0  0  0  0
 18 21  2  0  0  0  0
 18 33  1  0  0  0  0
 20 34  1  0  0  0  0
M  CHG  1  20   1
M  END
$$$$
