REMARK  1 active torsions:
REMARK  status: ('A' for Active; 'I' for Inactive)
REMARK    1  A    between atoms: C_12  and  C_15 
ROOT
ATOM      1  C   LIG d   1       8.567  10.344  23.445  0.00  0.00     0.001 A 
ATOM      2  C   LIG d   1       7.484   9.742  22.795  0.00  0.00     0.001 A 
ATOM      3  C   LIG d   1       8.388  11.540  24.155  0.00  0.00     0.009 A 
ATOM      4  C   LIG d   1       6.208  10.309  22.866  0.00  0.00     0.012 A 
ATOM      5  C   LIG d   1       7.123  12.121  24.238  0.00  0.00    -0.006 A 
ATOM      6  C   LIG d   1       6.053  11.479  23.596  0.00  0.00     0.030 A 
ATOM      7  C   LIG d   1       6.627  13.303  24.948  0.00  0.00     0.004 A 
ATOM      8  C   LIG d   1       4.792  12.241  23.876  0.00  0.00     0.194 A 
ATOM      9  C   LIG d   1       7.224  14.254  25.785  0.00  0.00     0.026 A 
ATOM     10  C   LIG d   1       6.406  15.238  26.393  0.00  0.00     0.012 A 
ATOM     11  C   LIG d   1       5.027  15.285  26.169  0.00  0.00     0.001 A 
ATOM     12  C   LIG d   1       4.431  14.352  25.317  0.00  0.00     0.012 A 
ATOM     13  C   LIG d   1       5.235  13.383  24.743  0.00  0.00     0.031 A 
ATOM     14  O   LIG d   1       3.665  11.993  23.512  0.00  0.00    -0.287 OA
ENDROOT
BRANCH   9  15
ATOM     15  C   LIG d   1       8.653  14.310  26.061  0.00  0.00     0.140 A 
ATOM     16  N   LIG d   1       9.176  14.488  27.326  0.00  0.00    -0.338 N 
ATOM     17  C   LIG d   1      10.540  14.530  27.224  0.00  0.00     0.069 A 
ATOM     18  H   LIG d   1       8.642  14.579  28.181  0.00  0.00     0.167 HD
ATOM     19  C   LIG d   1      11.551  14.683  28.159  0.00  0.00     0.047 A 
ATOM     20  C   LIG d   1      10.798  14.397  25.875  0.00  0.00     0.107 A 
ATOM     21  C   LIG d   1      12.845  14.707  27.658  0.00  0.00     0.113 A 
ATOM     22  N   LIG d   1      13.153  14.597  26.350  0.00  0.00    -0.261 NA
ATOM     23  C   LIG d   1      12.131  14.439  25.456  0.00  0.00     0.140 A 
ATOM     24  N   LIG d   1       9.626  14.252  25.173  0.00  0.00    -0.226 NA
ENDBRANCH   9  15
TORSDOF 1
