@<TRIPOS>MOLECULE
2YK9_YK9_A_1224
 34 38 0 0 0
SMALL
USER_CHARGES

@<TRIPOS>ATOM
      1 C           8.5674   10.3438   23.4454 C.ar    1  LIG1       -0.0611
      2 C           7.4844    9.7416   22.7947 C.ar    1  LIG1       -0.0611
      3 C           8.3879   11.5405   24.1547 C.ar    1  LIG1       -0.0533
      4 C           6.2084   10.3093   22.8655 C.ar    1  LIG1       -0.0503
      5 C          11.5510   14.6829   28.1593 C.ar    1  LIG1       -0.0181
      6 C          12.8452   14.7074   27.6582 C.ar    1  LIG1        0.0296
      7 C          12.1308   14.4392   25.4558 C.ar    1  LIG1        0.0550
      8 C           7.1231   12.1210   24.2380 C.ar    1  LIG1       -0.0057
      9 C           6.0531   11.4791   23.5958 C.ar    1  LIG1        0.0300
     10 C          10.5402   14.5303   27.2243 C.ar    1  LIG1        0.0694
     11 C          10.7983   14.3967   25.8754 C.ar    1  LIG1        0.1075
     12 C           8.6527   14.3098   26.0608 C.ar    1  LIG1        0.1399
     13 C           6.6266   13.3031   24.9484 C.ar    1  LIG1        0.0042
     14 C           4.7918   12.2413   23.8758 C.2     1  LIG1        0.1943
     15 C           7.2239   14.2543   25.7845 C.ar    1  LIG1        0.0257
     16 C           6.4064   15.2384   26.3933 C.ar    1  LIG1       -0.0505
     17 C           5.0265   15.2847   26.1695 C.ar    1  LIG1       -0.0604
     18 C           4.4310   14.3522   25.3173 C.ar    1  LIG1       -0.0503
     19 N          13.1529   14.5968   26.3498 N.ar    1  LIG1       -0.2610
     20 N           9.1759   14.4884   27.3263 N.ar    1  LIG1       -0.3378
     21 C           5.2353   13.3827   24.7431 C.ar    1  LIG1        0.0307
     22 N           9.6256   14.2523   25.1726 N.ar    1  LIG1       -0.2262
     23 O           3.6647   11.9934   23.5120 O.2     1  LIG1       -0.2866
     24 H           9.5485    9.8710   23.3936 H       1  LIG1        0.0618
     25 H           7.6393    8.8240   22.2305 H       1  LIG1        0.0618
     26 H           9.2520   11.9832   24.6356 H       1  LIG1        0.0624
     27 H           5.3775    9.8340   22.3633 H       1  LIG1        0.0625
     28 H          11.3639   14.7812   29.2134 H       1  LIG1        0.0654
     29 H          13.6842   14.8236   28.3429 H       1  LIG1        0.0830
     30 H          12.4031   14.3601   24.4160 H       1  LIG1        0.0852
     31 H           6.8492   15.9954   27.0442 H       1  LIG1        0.0625
     32 H           4.4173   16.0441   26.6578 H       1  LIG1        0.0618
     33 H           3.3676   14.3933   25.1280 H       1  LIG1        0.0625
     34 H           8.6422   14.5790   28.1807 H       1  LIG1        0.1674
@<TRIPOS>BOND
     1     1     2   ar
     2     1     3   ar
     3     1    24    1
     4     2     4   ar
     5     2    25    1
     6     3     8   ar
     7     3    26    1
     8     4     9   ar
     9     4    27    1
    10     5     6   ar
    11     5    10   ar
    12     5    28    1
    13     6    19   ar
    14     6    29    1
    15     7    11   ar
    16     7    19   ar
    17     7    30    1
    18     8     9   ar
    19     8    13    1
    20     9    14    1
    21    10    11   ar
    22    10    20   ar
    23    11    22   ar
    24    12    15    1
    25    12    20   ar
    26    12    22   ar
    27    13    15   ar
    28    13    21   ar
    29    14    21    1
    30    14    23    2
    31    15    16   ar
    32    16    17   ar
    33    16    31    1
    34    17    18   ar
    35    17    32    1
    36    18    21   ar
    37    18    33    1
    38    20    34    1
