2YKB_YKB_A_1224
 OpenBabel03301717133D

 49 53  0  0  1  0  0  0  0  0999 V2000
    8.2070   35.1000  -23.4573 C   0  0  0  0  0  0  0  0  0  0  0  0
    7.0280   35.6518  -22.9356 C   0  0  0  0  0  0  0  0  0  0  0  0
    5.8207   34.9970  -23.1469 C   0  0  0  0  0  0  0  0  0  0  0  0
    8.1868   33.9075  -24.2263 C   0  0  0  0  0  0  0  0  0  0  0  0
    6.9807   33.2379  -24.4504 C   0  0  0  0  0  0  0  0  0  0  0  0
    5.8088   33.8264  -23.9047 C   0  0  0  0  0  0  0  0  0  0  0  0
    4.5991   32.9372  -24.1064 C   0  0  2  0  0  0  0  0  0  0  0  0
    6.5939   31.9762  -25.1352 C   0  0  0  0  0  0  0  0  0  0  0  0
    5.1851   31.8095  -24.9408 C   0  0  0  0  0  0  0  0  0  0  0  0
    4.4475   30.7540  -25.4856 C   0  0  0  0  0  0  0  0  0  0  0  0
    5.1086   29.8037  -26.2495 C   0  0  0  0  0  0  0  0  0  0  0  0
    6.4881   29.9374  -26.4630 C   0  0  0  0  0  0  0  0  0  0  0  0
    7.2523   31.0129  -25.9203 C   0  0  0  0  0  0  0  0  0  0  0  0
    8.6723   31.0161  -26.2778 C   0  0  0  0  0  0  0  0  0  0  0  0
    9.6891   31.0771  -25.3589 N   0  3  0  0  0  0  0  0  0  0  0  0
    9.1716   30.8267  -27.4922 N   0  0  0  0  0  0  0  0  0  0  0  0
   10.5414   30.8273  -27.3574 C   0  0  0  0  0  0  0  0  0  0  0  0
   10.8859   30.9724  -26.0203 C   0  0  0  0  0  0  0  0  0  0  0  0
   12.1940   30.9900  -25.5644 C   0  0  0  0  0  0  0  0  0  0  0  0
   13.1508   30.8339  -26.5510 C   0  0  0  0  0  0  0  0  0  0  0  0
   12.8837   30.7007  -27.8671 N   0  0  0  0  0  0  0  0  0  0  0  0
   11.5824   30.7011  -28.2893 C   0  0  0  0  0  0  0  0  0  0  0  0
    3.4632   33.5485  -24.7714 N   0  0  0  0  0  0  0  0  0  0  0  0
    2.2693   33.7193  -24.0953 C   0  0  0  0  0  0  0  0  0  0  0  0
    1.1111   34.1805  -24.9690 C   0  0  0  0  0  0  0  0  0  0  0  0
    2.1460   33.4890  -22.9078 O   0  0  0  0  0  0  0  0  0  0  0  0
   -0.0722   34.6226  -24.1218 C   0  0  0  0  0  0  0  0  0  0  0  0
   -1.3533   34.4812  -24.8883 C   0  0  0  0  0  0  0  0  0  0  0  0
   -1.4874   34.7744  -26.0690 O   0  0  0  0  0  0  0  0  0  0  0  0
   -2.3906   34.0169  -24.1105 N   0  0  0  0  0  0  0  0  0  0  0  0
    9.1517   35.6118  -23.2603 H   0  0  0  0  0  0  0  0  0  0  0  0
    7.0457   36.5781  -22.3591 H   0  0  0  0  0  0  0  0  0  0  0  0
    4.9008   35.3646  -22.7075 H   0  0  0  0  0  0  0  0  0  0  0  0
    9.1341   33.5574  -24.6176 H   0  0  0  0  0  0  0  0  0  0  0  0
    4.3117   32.5923  -23.1084 H   0  0  0  0  0  0  0  0  0  0  0  0
    3.3735   30.6927  -25.3278 H   0  0  0  0  0  0  0  0  0  0  0  0
    4.5622   28.9668  -26.6865 H   0  0  0  0  0  0  0  0  0  0  0  0
    6.9891   29.1876  -27.0815 H   0  0  0  0  0  0  0  0  0  0  0  0
    9.5771   31.1665  -24.3583 H   0  0  0  0  0  0  0  0  0  0  0  0
   12.4494   31.1095  -24.5237 H   0  0  0  0  0  0  0  0  0  0  0  0
   14.2069   30.8088  -26.2788 H   0  0  0  0  0  0  0  0  0  0  0  0
   11.4301   30.6066  -29.3604 H   0  0  0  0  0  0  0  0  0  0  0  0
    3.5020   33.6512  -25.7777 H   0  0  0  0  0  0  0  0  0  0  0  0
    0.8136   33.3471  -25.6213 H   0  0  0  0  0  0  0  0  0  0  0  0
    1.4319   35.0159  -25.5953 H   0  0  0  0  0  0  0  0  0  0  0  0
    0.0240   35.6738  -23.8334 H   0  0  0  0  0  0  0  0  0  0  0  0
   -0.1554   34.0265  -23.2055 H   0  0  0  0  0  0  0  0  0  0  0  0
   -3.2773   33.8513  -24.5312 H   0  0  0  0  0  0  0  0  0  0  0  0
   -2.2635   33.8601  -23.1248 H   0  0  0  0  0  0  0  0  0  0  0  0
  1  2  2  0  0  0  0
  1  4  1  0  0  0  0
  1 31  1  0  0  0  0
  2  3  1  0  0  0  0
  2 32  1  0  0  0  0
  3  6  2  0  0  0  0
  3 33  1  0  0  0  0
  4  5  2  0  0  0  0
  4 34  1  0  0  0  0
  5  6  1  0  0  0  0
  5  8  1  0  0  0  0
  6  7  1  0  0  0  0
  7  9  1  0  0  0  0
  7 23  1  0  0  0  0
  7 35  1  1  0  0  0
  8  9  2  0  0  0  0
  8 13  1  0  0  0  0
  9 10  1  0  0  0  0
 10 11  2  0  0  0  0
 10 36  1  0  0  0  0
 11 12  1  0  0  0  0
 11 37  1  0  0  0  0
 12 13  2  0  0  0  0
 12 38  1  0  0  0  0
 13 14  1  0  0  0  0
 14 15  2  0  0  0  0
 14 16  1  0  0  0  0
 15 18  1  0  0  0  0
 15 39  1  0  0  0  0
 16 17  1  0  0  0  0
 17 18  2  0  0  0  0
 17 22  1  0  0  0  0
 18 19  1  0  0  0  0
 19 20  2  0  0  0  0
 19 40  1  0  0  0  0
 20 21  1  0  0  0  0
 20 41  1  0  0  0  0
 21 22  2  0  0  0  0
 22 42  1  0  0  0  0
 23 24  1  0  0  0  0
 23 43  1  0  0  0  0
 24 25  1  0  0  0  0
 24 26  2  0  0  0  0
 25 27  1  0  0  0  0
 25 44  1  0  0  0  0
 25 45  1  0  0  0  0
 27 28  1  0  0  0  0
 27 46  1  0  0  0  0
 27 47  1  0  0  0  0
 28 29  2  0  0  0  0
 28 30  1  0  0  0  0
 30 48  1  0  0  0  0
 30 49  1  0  0  0  0
M  CHG  1  15   1
M  END
$$$$
