@<TRIPOS>MOLECULE
2YKB_YKB_A_1224
 49 53 0 0 0
SMALL
USER_CHARGES

@<TRIPOS>ATOM
      1 C           8.2070   35.1000  -23.4573 C.ar    1  LIG1       -0.0612
      2 C           7.0280   35.6518  -22.9356 C.ar    1  LIG1       -0.0614
      3 C           5.8207   34.9970  -23.1469 C.ar    1  LIG1       -0.0559
      4 C           8.1868   33.9075  -24.2263 C.ar    1  LIG1       -0.0537
      5 C           6.9807   33.2379  -24.4504 C.ar    1  LIG1       -0.0116
      6 C           5.8088   33.8264  -23.9047 C.ar    1  LIG1       -0.0151
      7 C           4.5991   32.9372  -24.1064 C.3     1  LIG1        0.0748
      8 C           6.5939   31.9762  -25.1352 C.ar    1  LIG1       -0.0017
      9 C           5.1851   31.8095  -24.9408 C.ar    1  LIG1       -0.0144
     10 C           4.4475   30.7540  -25.4856 C.ar    1  LIG1       -0.0559
     11 C           5.1086   29.8037  -26.2495 C.ar    1  LIG1       -0.0607
     12 C           6.4881   29.9374  -26.4630 C.ar    1  LIG1       -0.0505
     13 C           7.2523   31.0129  -25.9203 C.ar    1  LIG1        0.0253
     14 C           8.6723   31.0161  -26.2778 C.ar    1  LIG1        0.1399
     15 N           9.6891   31.0771  -25.3589 N.ar    1  LIG1       -0.3378
     16 N           9.1716   30.8267  -27.4922 N.ar    1  LIG1       -0.2262
     17 C          10.5414   30.8273  -27.3574 C.ar    1  LIG1        0.1075
     18 C          10.8859   30.9724  -26.0203 C.ar    1  LIG1        0.0694
     19 C          12.1940   30.9900  -25.5644 C.ar    1  LIG1       -0.0181
     20 C          13.1508   30.8339  -26.5510 C.ar    1  LIG1        0.0296
     21 N          12.8837   30.7007  -27.8671 N.ar    1  LIG1       -0.2610
     22 C          11.5824   30.7011  -28.2893 C.ar    1  LIG1        0.0550
     23 N           3.4632   33.5485  -24.7714 N.am    1  LIG1       -0.3044
     24 C           2.2693   33.7193  -24.0953 C.2     1  LIG1        0.2142
     25 C           1.1111   34.1805  -24.9690 C.3     1  LIG1        0.0322
     26 O           2.1460   33.4890  -22.9078 O.2     1  LIG1       -0.2758
     27 C          -0.0722   34.6226  -24.1218 C.3     1  LIG1        0.0320
     28 C          -1.3533   34.4812  -24.8883 C.2     1  LIG1        0.2109
     29 O          -1.4874   34.7744  -26.0690 O.2     1  LIG1       -0.2760
     30 N          -2.3906   34.0169  -24.1105 N.am    1  LIG1       -0.3293
     31 H           9.1517   35.6118  -23.2603 H       1  LIG1        0.0618
     32 H           7.0457   36.5781  -22.3591 H       1  LIG1        0.0618
     33 H           4.9008   35.3646  -22.7075 H       1  LIG1        0.0621
     34 H           9.1341   33.5574  -24.6176 H       1  LIG1        0.0624
     35 H           4.3117   32.5923  -23.1084 H       1  LIG1        0.0599
     36 H           3.3735   30.6927  -25.3278 H       1  LIG1        0.0621
     37 H           4.5622   28.9668  -26.6865 H       1  LIG1        0.0618
     38 H           6.9891   29.1876  -27.0815 H       1  LIG1        0.0625
     39 H           9.5771   31.1665  -24.3583 H       1  LIG1        0.1674
     40 H          12.4494   31.1095  -24.5237 H       1  LIG1        0.0654
     41 H          14.2069   30.8088  -26.2788 H       1  LIG1        0.0830
     42 H          11.4301   30.6066  -29.3604 H       1  LIG1        0.0852
     43 H           3.5020   33.6512  -25.7777 H       1  LIG1        0.1496
     44 H           0.8136   33.3471  -25.6213 H       1  LIG1        0.0363
     45 H           1.4319   35.0159  -25.5953 H       1  LIG1        0.0363
     46 H           0.0240   35.6738  -23.8334 H       1  LIG1        0.0363
     47 H          -0.1554   34.0265  -23.2055 H       1  LIG1        0.0363
     48 H          -3.2773   33.8513  -24.5312 H       1  LIG1        0.1449
     49 H          -2.2635   33.8601  -23.1248 H       1  LIG1        0.1449
@<TRIPOS>BOND
     1     1     2   ar
     2     1     4   ar
     3     1    31    1
     4     2     3   ar
     5     2    32    1
     6     3     6   ar
     7     3    33    1
     8     4     5   ar
     9     4    34    1
    10     5     6   ar
    11     5     8    1
    12     6     7    1
    13     7     9    1
    14     7    23    1
    15     7    35    1
    16     8     9   ar
    17     8    13   ar
    18     9    10   ar
    19    10    11   ar
    20    10    36    1
    21    11    12   ar
    22    11    37    1
    23    12    13   ar
    24    12    38    1
    25    13    14    1
    26    14    15   ar
    27    14    16   ar
    28    15    18   ar
    29    15    39    1
    30    16    17   ar
    31    17    18   ar
    32    17    22   ar
    33    18    19   ar
    34    19    20   ar
    35    19    40    1
    36    20    21   ar
    37    20    41    1
    38    21    22   ar
    39    22    42    1
    40    23    24   am
    41    23    43    1
    42    24    25    1
    43    24    26    2
    44    25    27    1
    45    25    44    1
    46    25    45    1
    47    27    28    1
    48    27    46    1
    49    27    47    1
    50    28    29    2
    51    28    30   am
    52    30    48    1
    53    30    49    1
