REMARK  5 active torsions:
REMARK  status: ('A' for Active; 'I' for Inactive)
REMARK    1  A    between atoms: C_7  and  N_23 
REMARK    2  A    between atoms: C_13  and  C_14 
REMARK       I    between atoms: N_23  and  C_24 
REMARK    3  A    between atoms: C_24  and  C_25 
REMARK    4  A    between atoms: C_25  and  C_27 
REMARK    5  A    between atoms: C_27  and  C_28 
REMARK       I    between atoms: C_28  and  N_30 
ROOT
ATOM      1  C   LIG d   1       8.207  35.100 -23.457  0.00  0.00     0.001 A 
ATOM      2  C   LIG d   1       7.028  35.652 -22.936  0.00  0.00     0.000 A 
ATOM      3  C   LIG d   1       5.821  34.997 -23.147  0.00  0.00     0.006 A 
ATOM      4  C   LIG d   1       8.187  33.907 -24.226  0.00  0.00     0.009 A 
ATOM      5  C   LIG d   1       6.981  33.238 -24.450  0.00  0.00    -0.012 A 
ATOM      6  C   LIG d   1       5.809  33.826 -23.905  0.00  0.00    -0.015 A 
ATOM      7  C   LIG d   1       4.599  32.937 -24.106  0.00  0.00     0.135 A 
ATOM      8  C   LIG d   1       6.594  31.976 -25.135  0.00  0.00    -0.002 A 
ATOM      9  C   LIG d   1       5.185  31.809 -24.941  0.00  0.00    -0.014 A 
ATOM     10  C   LIG d   1       4.447  30.754 -25.486  0.00  0.00     0.006 A 
ATOM     11  C   LIG d   1       5.109  29.804 -26.250  0.00  0.00     0.001 A 
ATOM     12  C   LIG d   1       6.488  29.937 -26.463  0.00  0.00     0.012 A 
ATOM     13  C   LIG d   1       7.252  31.013 -25.920  0.00  0.00     0.025 A 
ENDROOT
BRANCH   7  14
ATOM     14  N   LIG d   1       3.463  33.548 -24.771  0.00  0.00    -0.304 N 
ATOM     15  C   LIG d   1       2.269  33.719 -24.095  0.00  0.00     0.214 C 
ATOM     16  O   LIG d   1       2.146  33.489 -22.908  0.00  0.00    -0.276 OA
ATOM     17  H   LIG d   1       3.502  33.651 -25.778  0.00  0.00     0.150 HD
BRANCH  15  18
ATOM     18  C   LIG d   1       1.111  34.181 -24.969  0.00  0.00     0.105 C 
BRANCH  18  19
ATOM     19  C   LIG d   1      -0.072  34.623 -24.122  0.00  0.00     0.105 C 
BRANCH  19  20
ATOM     20  C   LIG d   1      -1.353  34.481 -24.888  0.00  0.00     0.211 C 
ATOM     21  O   LIG d   1      -1.487  34.774 -26.069  0.00  0.00    -0.276 OA
ATOM     22  N   LIG d   1      -2.391  34.017 -24.110  0.00  0.00    -0.329 N 
ATOM     23  H   LIG d   1      -3.277  33.851 -24.531  0.00  0.00     0.145 HD
ATOM     24  H   LIG d   1      -2.264  33.860 -23.125  0.00  0.00     0.145 HD
ENDBRANCH  19  20
ENDBRANCH  18  19
ENDBRANCH  15  18
ENDBRANCH   7  14
BRANCH  13  25
ATOM     25  C   LIG d   1       8.672  31.016 -26.278  0.00  0.00     0.140 A 
ATOM     26  N   LIG d   1       9.689  31.077 -25.359  0.00  0.00    -0.338 N 
ATOM     27  C   LIG d   1      10.886  30.972 -26.020  0.00  0.00     0.069 A 
ATOM     28  H   LIG d   1       9.577  31.166 -24.358  0.00  0.00     0.167 HD
ATOM     29  C   LIG d   1      10.541  30.827 -27.357  0.00  0.00     0.107 A 
ATOM     30  C   LIG d   1      12.194  30.990 -25.564  0.00  0.00     0.047 A 
ATOM     31  N   LIG d   1       9.172  30.827 -27.492  0.00  0.00    -0.226 NA
ATOM     32  C   LIG d   1      11.582  30.701 -28.289  0.00  0.00     0.140 A 
ATOM     33  N   LIG d   1      12.884  30.701 -27.867  0.00  0.00    -0.261 NA
ATOM     34  C   LIG d   1      13.151  30.834 -26.551  0.00  0.00     0.113 A 
ENDBRANCH  13  25
TORSDOF 5
