@<TRIPOS>MOLECULE
2YKC_YKC_A_1224
 48 53 0 0 0
SMALL
USER_CHARGES

@<TRIPOS>ATOM
      1 C           8.0120   10.2694   23.4807 C.ar    1  LIG1       -0.0612
      2 C           6.8426    9.7009   22.9617 C.ar    1  LIG1       -0.0614
      3 C           5.6177   10.3314   23.1499 C.ar    1  LIG1       -0.0559
      4 C           7.9702   11.4694   24.2083 C.ar    1  LIG1       -0.0537
      5 C           6.7573   12.1243   24.3919 C.ar    1  LIG1       -0.0116
      6 C           5.5871   11.5331   23.8541 C.ar    1  LIG1       -0.0151
      7 C           4.3929   12.4401   24.0634 C.3     1  LIG1        0.0751
      8 C           6.3884   13.3781   25.0640 C.ar    1  LIG1       -0.0017
      9 C           4.9863   13.5568   24.9058 C.ar    1  LIG1       -0.0144
     10 C           4.2910   14.6280   25.4642 C.ar    1  LIG1       -0.0559
     11 C           4.9958   15.5551   26.2204 C.ar    1  LIG1       -0.0607
     12 C           6.3739   15.4004   26.3924 C.ar    1  LIG1       -0.0505
     13 C           7.0919   14.3250   25.8127 C.ar    1  LIG1        0.0253
     14 C           8.5181   14.2943   26.0967 C.ar    1  LIG1        0.1399
     15 N           9.4979   14.1961   25.1388 N.ar    1  LIG1       -0.3378
     16 N           9.0538   14.5002   27.2854 N.ar    1  LIG1       -0.2262
     17 C          10.4121   14.4892   27.0973 C.ar    1  LIG1        0.1075
     18 C          10.7174   14.2819   25.7581 C.ar    1  LIG1        0.0694
     19 C          12.0233   14.2214   25.2879 C.ar    1  LIG1       -0.0181
     20 C          12.9883   14.4210   26.2670 C.ar    1  LIG1        0.0296
     21 N          12.7436   14.6279   27.5843 N.ar    1  LIG1       -0.2610
     22 C          11.4531   14.6536   28.0109 C.ar    1  LIG1        0.0550
     23 N           3.2752   11.8086   24.7277 N.am    1  LIG1       -0.3005
     24 C           2.0998   11.6257   24.0334 C.2     1  LIG1        0.2449
     25 C           0.8911   11.2600   24.8071 C.ar    1  LIG1        0.0396
     26 O           2.0018   11.8039   22.8230 O.2     1  LIG1       -0.2702
     27 C          -0.3534   11.6241   24.2834 C.ar    1  LIG1       -0.0315
     28 C          -1.4870   11.2880   24.9925 C.ar    1  LIG1        0.0283
     29 C           0.9521   10.5638   26.0047 C.ar    1  LIG1       -0.0315
     30 N          -1.4569   10.6140   26.1631 N.ar    1  LIG1       -0.2632
     31 C          -0.2439   10.2587   26.6383 C.ar    1  LIG1        0.0283
     32 H           8.9646    9.7679   23.3202 H       1  LIG1        0.0618
     33 H           6.8954    8.7685   22.4028 H       1  LIG1        0.0618
     34 H           4.7063    9.9056   22.7352 H       1  LIG1        0.0621
     35 H           8.9030   11.8385   24.6094 H       1  LIG1        0.0624
     36 H           4.1034   12.8518   23.0896 H       1  LIG1        0.0599
     37 H           3.2180   14.7369   25.3273 H       1  LIG1        0.0621
     38 H           4.4839   16.3928   26.6879 H       1  LIG1        0.0618
     39 H           6.9064   16.1306   27.0026 H       1  LIG1        0.0625
     40 H           9.3355   14.0787   24.1491 H       1  LIG1        0.1674
     41 H          12.2755   14.0510   24.2507 H       1  LIG1        0.0654
     42 H          14.0429   14.4281   25.9993 H       1  LIG1        0.0830
     43 H          11.2808   14.8169   29.0678 H       1  LIG1        0.0852
     44 H           3.3000   11.7668   25.7356 H       1  LIG1        0.1499
     45 H          -0.4293   12.1640   23.3435 H       1  LIG1        0.0640
     46 H          -2.4752   11.5596   24.6353 H       1  LIG1        0.0830
     47 H           1.8859   10.2213   26.4395 H       1  LIG1        0.0640
     48 H          -0.2616    9.7045   27.5734 H       1  LIG1        0.0830
@<TRIPOS>BOND
     1     1     2   ar
     2     1     4   ar
     3     1    32    1
     4     2     3   ar
     5     2    33    1
     6     3     6   ar
     7     3    34    1
     8     4     5   ar
     9     4    35    1
    10     5     6   ar
    11     5     8    1
    12     6     7    1
    13     7     9    1
    14     7    23    1
    15     7    36    1
    16     8     9   ar
    17     8    13   ar
    18     9    10   ar
    19    10    11   ar
    20    10    37    1
    21    11    12   ar
    22    11    38    1
    23    12    13   ar
    24    12    39    1
    25    13    14    1
    26    14    15   ar
    27    14    16   ar
    28    15    18   ar
    29    15    40    1
    30    16    17   ar
    31    17    18   ar
    32    17    22   ar
    33    18    19   ar
    34    19    20   ar
    35    19    41    1
    36    20    21   ar
    37    20    42    1
    38    21    22   ar
    39    22    43    1
    40    23    24   am
    41    23    44    1
    42    24    25    1
    43    24    26    2
    44    25    27   ar
    45    25    29   ar
    46    27    28   ar
    47    27    45    1
    48    28    30   ar
    49    28    46    1
    50    29    31   ar
    51    29    47    1
    52    30    31   ar
    53    31    48    1
