REMARK  3 active torsions:
REMARK  status: ('A' for Active; 'I' for Inactive)
REMARK    1  A    between atoms: C_7  and  N_23 
REMARK    2  A    between atoms: C_13  and  C_14 
REMARK       I    between atoms: N_23  and  C_24 
REMARK    3  A    between atoms: C_24  and  C_25 
ROOT
ATOM      1  C   LIG d   1       8.012  10.269  23.481  0.00  0.00     0.001 A 
ATOM      2  C   LIG d   1       6.843   9.701  22.962  0.00  0.00     0.000 A 
ATOM      3  C   LIG d   1       5.618  10.331  23.150  0.00  0.00     0.006 A 
ATOM      4  C   LIG d   1       7.970  11.469  24.208  0.00  0.00     0.009 A 
ATOM      5  C   LIG d   1       6.757  12.124  24.392  0.00  0.00    -0.012 A 
ATOM      6  C   LIG d   1       5.587  11.533  23.854  0.00  0.00    -0.015 A 
ATOM      7  C   LIG d   1       4.393  12.440  24.063  0.00  0.00     0.135 A 
ATOM      8  C   LIG d   1       6.388  13.378  25.064  0.00  0.00    -0.002 A 
ATOM      9  C   LIG d   1       4.986  13.557  24.906  0.00  0.00    -0.014 A 
ATOM     10  C   LIG d   1       4.291  14.628  25.464  0.00  0.00     0.006 A 
ATOM     11  C   LIG d   1       4.996  15.555  26.220  0.00  0.00     0.001 A 
ATOM     12  C   LIG d   1       6.374  15.400  26.392  0.00  0.00     0.012 A 
ATOM     13  C   LIG d   1       7.092  14.325  25.813  0.00  0.00     0.025 A 
ENDROOT
BRANCH   7  14
ATOM     14  N   LIG d   1       3.275  11.809  24.728  0.00  0.00    -0.300 N 
ATOM     15  C   LIG d   1       2.100  11.626  24.033  0.00  0.00     0.245 C 
ATOM     16  O   LIG d   1       2.002  11.804  22.823  0.00  0.00    -0.270 OA
ATOM     17  H   LIG d   1       3.300  11.767  25.736  0.00  0.00     0.150 HD
BRANCH  15  18
ATOM     18  C   LIG d   1       0.891  11.260  24.807  0.00  0.00     0.040 A 
ATOM     19  C   LIG d   1      -0.353  11.624  24.283  0.00  0.00     0.033 A 
ATOM     20  C   LIG d   1      -1.487  11.288  24.992  0.00  0.00     0.111 A 
ATOM     21  N   LIG d   1      -1.457  10.614  26.163  0.00  0.00    -0.263 NA
ATOM     22  C   LIG d   1      -0.244  10.259  26.638  0.00  0.00     0.111 A 
ATOM     23  C   LIG d   1       0.952  10.564  26.005  0.00  0.00     0.033 A 
ENDBRANCH  15  18
ENDBRANCH   7  14
BRANCH  13  24
ATOM     24  C   LIG d   1       8.518  14.294  26.097  0.00  0.00     0.140 A 
ATOM     25  N   LIG d   1       9.498  14.196  25.139  0.00  0.00    -0.338 N 
ATOM     26  C   LIG d   1      10.717  14.282  25.758  0.00  0.00     0.069 A 
ATOM     27  H   LIG d   1       9.335  14.079  24.149  0.00  0.00     0.167 HD
ATOM     28  C   LIG d   1      10.412  14.489  27.097  0.00  0.00     0.107 A 
ATOM     29  C   LIG d   1      12.023  14.221  25.288  0.00  0.00     0.047 A 
ATOM     30  N   LIG d   1       9.054  14.500  27.285  0.00  0.00    -0.226 NA
ATOM     31  C   LIG d   1      11.453  14.654  28.011  0.00  0.00     0.140 A 
ATOM     32  N   LIG d   1      12.744  14.628  27.584  0.00  0.00    -0.261 NA
ATOM     33  C   LIG d   1      12.988  14.421  26.267  0.00  0.00     0.113 A 
ENDBRANCH  13  24
TORSDOF 3
