2YKE_YKE_A_1224
 OpenBabel03301717133D

 54 60  0  0  1  0  0  0  0  0999 V2000
    8.4653   10.4093   23.5515 C   0  0  0  0  0  0  0  0  0  0  0  0
    7.3500    9.7581   23.0158 C   0  0  0  0  0  0  0  0  0  0  0  0
    6.0722   10.2944   23.1829 C   0  0  0  0  0  0  0  0  0  0  0  0
    8.3181   11.5993   24.2750 C   0  0  0  0  0  0  0  0  0  0  0  0
    7.0518   12.1517   24.4435 C   0  0  0  0  0  0  0  0  0  0  0  0
    5.9282   11.4862   23.8879 C   0  0  0  0  0  0  0  0  0  0  0  0
    4.6685   12.3181   24.0757 C   0  0  2  0  0  0  0  0  0  0  0  0
    6.6067   13.3757   25.1074 C   0  0  0  0  0  0  0  0  0  0  0  0
    5.2018   13.4824   24.9152 C   0  0  0  0  0  0  0  0  0  0  0  0
    4.4520   14.5220   25.4615 C   0  0  0  0  0  0  0  0  0  0  0  0
    5.1018   15.4746   26.2333 C   0  0  0  0  0  0  0  0  0  0  0  0
    6.4847   15.3929   26.4301 C   0  0  0  0  0  0  0  0  0  0  0  0
    7.2612   14.3511   25.8658 C   0  0  0  0  0  0  0  0  0  0  0  0
    8.6998   14.3746   26.1097 C   0  0  0  0  0  0  0  0  0  0  0  0
    9.2287   14.5306   27.3773 N   0  3  0  0  0  0  0  0  0  0  0  0
    9.6660   14.3296   25.2151 N   0  0  0  0  0  0  0  0  0  0  0  0
   10.8469   14.4453   25.9146 C   0  0  0  0  0  0  0  0  0  0  0  0
   10.5894   14.5919   27.2724 C   0  0  0  0  0  0  0  0  0  0  0  0
   11.6041   14.7598   28.2206 C   0  0  0  0  0  0  0  0  0  0  0  0
   12.8818   14.7552   27.6845 C   0  0  0  0  0  0  0  0  0  0  0  0
   13.1858   14.5996   26.3733 N   0  0  0  0  0  0  0  0  0  0  0  0
   12.1725   14.4395   25.4803 C   0  0  0  0  0  0  0  0  0  0  0  0
    3.5794   11.6839   24.7851 N   0  0  0  0  0  0  0  0  0  0  0  0
    2.7612   10.7035   24.2731 C   0  0  0  0  0  0  0  0  0  0  0  0
    1.6754   10.3199   25.2084 C   0  0  0  0  0  0  0  0  0  0  0  0
    2.8529   10.1895   23.1697 O   0  0  0  0  0  0  0  0  0  0  0  0
    2.0434    9.6193   26.3659 C   0  0  0  0  0  0  0  0  0  0  0  0
   -0.2575    9.6366   27.0665 C   0  0  0  0  0  0  0  0  0  0  0  0
    1.0722    9.2826   27.2970 C   0  0  0  0  0  0  0  0  0  0  0  0
    0.3286   10.6902   24.9733 C   0  0  0  0  0  0  0  0  0  0  0  0
   -0.6512   10.3219   25.9221 C   0  0  0  0  0  0  0  0  0  0  0  0
   -1.9542   10.6136   25.7686 N   0  0  0  0  0  0  0  0  0  0  0  0
   -2.3357   11.2737   24.6554 C   0  0  0  0  0  0  0  0  0  0  0  0
   -1.4582   11.7055   23.6816 C   0  0  0  0  0  0  0  0  0  0  0  0
   -0.1094   11.4200   23.8502 C   0  0  0  0  0  0  0  0  0  0  0  0
    9.4589    9.9940   23.3945 H   0  0  0  0  0  0  0  0  0  0  0  0
    7.4817    8.8381   22.4511 H   0  0  0  0  0  0  0  0  0  0  0  0
    5.2171    9.7933   22.7421 H   0  0  0  0  0  0  0  0  0  0  0  0
    9.2106   12.0723   24.6652 H   0  0  0  0  0  0  0  0  0  0  0  0
    4.3243   12.6919   23.1049 H   0  0  0  0  0  0  0  0  0  0  0  0
    3.3809   14.5894   25.2996 H   0  0  0  0  0  0  0  0  0  0  0  0
    4.5398   16.2960   26.6757 H   0  0  0  0  0  0  0  0  0  0  0  0
    6.9634   16.1774   27.0153 H   0  0  0  0  0  0  0  0  0  0  0  0
    8.6891   14.5941   28.2275 H   0  0  0  0  0  0  0  0  0  0  0  0
   11.4112   14.8834   29.2746 H   0  0  0  0  0  0  0  0  0  0  0  0
   13.7460   14.8811   28.3357 H   0  0  0  0  0  0  0  0  0  0  0  0
   12.4429   14.3090   24.4380 H   0  0  0  0  0  0  0  0  0  0  0  0
    3.1281   12.2554   25.4884 H   0  0  0  0  0  0  0  0  0  0  0  0
    3.0817    9.3425   26.5343 H   0  0  0  0  0  0  0  0  0  0  0  0
   -1.0179    9.3677   27.7986 H   0  0  0  0  0  0  0  0  0  0  0  0
    1.3396    8.7399   28.2022 H   0  0  0  0  0  0  0  0  0  0  0  0
   -3.4044   11.4479   24.5634 H   0  0  0  0  0  0  0  0  0  0  0  0
   -1.8139   12.2363   22.8066 H   0  0  0  0  0  0  0  0  0  0  0  0
    0.5952   11.7528   23.0909 H   0  0  0  0  0  0  0  0  0  0  0  0
  1  2  2  0  0  0  0
  1  4  1  0  0  0  0
  1 36  1  0  0  0  0
  2  3  1  0  0  0  0
  2 37  1  0  0  0  0
  3  6  2  0  0  0  0
  3 38  1  0  0  0  0
  4  5  2  0  0  0  0
  4 39  1  0  0  0  0
  5  6  1  0  0  0  0
  5  8  1  0  0  0  0
  6  7  1  0  0  0  0
  7  9  1  0  0  0  0
  7 23  1  0  0  0  0
  7 40  1  6  0  0  0
  8  9  2  0  0  0  0
  8 13  1  0  0  0  0
  9 10  1  0  0  0  0
 10 11  2  0  0  0  0
 10 41  1  0  0  0  0
 11 12  1  0  0  0  0
 11 42  1  0  0  0  0
 12 13  2  0  0  0  0
 12 43  1  0  0  0  0
 13 14  1  0  0  0  0
 14 15  2  0  0  0  0
 14 16  1  0  0  0  0
 15 18  1  0  0  0  0
 15 44  1  0  0  0  0
 16 17  1  0  0  0  0
 17 18  2  0  0  0  0
 17 22  1  0  0  0  0
 18 19  1  0  0  0  0
 19 20  2  0  0  0  0
 19 45  1  0  0  0  0
 20 21  1  0  0  0  0
 20 46  1  0  0  0  0
 21 22  2  0  0  0  0
 22 47  1  0  0  0  0
 23 24  1  0  0  0  0
 23 48  1  0  0  0  0
 24 25  1  0  0  0  0
 24 26  2  0  0  0  0
 25 27  2  0  0  0  0
 25 30  1  0  0  0  0
 27 29  1  0  0  0  0
 27 49  1  0  0  0  0
 28 29  2  0  0  0  0
 28 31  1  0  0  0  0
 28 50  1  0  0  0  0
 29 51  1  0  0  0  0
 30 31  2  0  0  0  0
 30 35  1  0  0  0  0
 31 32  1  0  0  0  0
 32 33  2  0  0  0  0
 33 34  1  0  0  0  0
 33 52  1  0  0  0  0
 34 35  2  0  0  0  0
 34 53  1  0  0  0  0
 35 54  1  0  0  0  0
M  CHG  1  15   1
M  END
$$$$
