REMARK  3 active torsions:
REMARK  status: ('A' for Active; 'I' for Inactive)
REMARK    1  A    between atoms: C_7  and  N_23 
REMARK    2  A    between atoms: C_13  and  C_14 
REMARK       I    between atoms: N_23  and  C_24 
REMARK    3  A    between atoms: C_24  and  C_25 
ROOT
ATOM      1  C   LIG d   1       8.465  10.409  23.552  0.00  0.00     0.001 A 
ATOM      2  C   LIG d   1       7.350   9.758  23.016  0.00  0.00     0.000 A 
ATOM      3  C   LIG d   1       6.072  10.294  23.183  0.00  0.00     0.006 A 
ATOM      4  C   LIG d   1       8.318  11.599  24.275  0.00  0.00     0.009 A 
ATOM      5  C   LIG d   1       7.052  12.152  24.444  0.00  0.00    -0.012 A 
ATOM      6  C   LIG d   1       5.928  11.486  23.888  0.00  0.00    -0.015 A 
ATOM      7  C   LIG d   1       4.668  12.318  24.076  0.00  0.00     0.135 A 
ATOM      8  C   LIG d   1       6.607  13.376  25.107  0.00  0.00    -0.002 A 
ATOM      9  C   LIG d   1       5.202  13.482  24.915  0.00  0.00    -0.014 A 
ATOM     10  C   LIG d   1       4.452  14.522  25.462  0.00  0.00     0.006 A 
ATOM     11  C   LIG d   1       5.102  15.475  26.233  0.00  0.00     0.001 A 
ATOM     12  C   LIG d   1       6.485  15.393  26.430  0.00  0.00     0.012 A 
ATOM     13  C   LIG d   1       7.261  14.351  25.866  0.00  0.00     0.025 A 
ENDROOT
BRANCH   7  14
ATOM     14  N   LIG d   1       3.579  11.684  24.785  0.00  0.00    -0.300 N 
ATOM     15  C   LIG d   1       2.761  10.704  24.273  0.00  0.00     0.245 C 
ATOM     16  O   LIG d   1       2.853  10.190  23.170  0.00  0.00    -0.270 OA
ATOM     17  H   LIG d   1       3.128  12.255  25.488  0.00  0.00     0.150 HD
BRANCH  15  18
ATOM     18  C   LIG d   1       1.675  10.320  25.208  0.00  0.00     0.046 A 
ATOM     19  C   LIG d   1       2.043   9.619  26.366  0.00  0.00     0.014 A 
ATOM     20  C   LIG d   1       1.072   9.283  27.297  0.00  0.00     0.003 A 
ATOM     21  C   LIG d   1      -0.258   9.637  27.067  0.00  0.00     0.028 A 
ATOM     22  C   LIG d   1      -0.651  10.322  25.922  0.00  0.00     0.072 A 
ATOM     23  C   LIG d   1       0.329  10.690  24.973  0.00  0.00     0.013 A 
ATOM     24  N   LIG d   1      -1.954  10.614  25.769  0.00  0.00    -0.255 NA
ATOM     25  C   LIG d   1      -0.109  11.420  23.850  0.00  0.00     0.012 A 
ATOM     26  C   LIG d   1      -1.458  11.706  23.682  0.00  0.00     0.020 A 
ATOM     27  C   LIG d   1      -2.336  11.274  24.655  0.00  0.00     0.111 A 
ENDBRANCH  15  18
ENDBRANCH   7  14
BRANCH  13  28
ATOM     28  C   LIG d   1       8.700  14.375  26.110  0.00  0.00     0.140 A 
ATOM     29  N   LIG d   1       9.229  14.531  27.377  0.00  0.00    -0.338 N 
ATOM     30  C   LIG d   1      10.589  14.592  27.272  0.00  0.00     0.069 A 
ATOM     31  H   LIG d   1       8.689  14.594  28.227  0.00  0.00     0.167 HD
ATOM     32  C   LIG d   1      10.847  14.445  25.915  0.00  0.00     0.107 A 
ATOM     33  C   LIG d   1      11.604  14.760  28.221  0.00  0.00     0.047 A 
ATOM     34  N   LIG d   1       9.666  14.330  25.215  0.00  0.00    -0.226 NA
ATOM     35  C   LIG d   1      12.172  14.440  25.480  0.00  0.00     0.140 A 
ATOM     36  N   LIG d   1      13.186  14.600  26.373  0.00  0.00    -0.261 NA
ATOM     37  C   LIG d   1      12.882  14.755  27.684  0.00  0.00     0.113 A 
ENDBRANCH  13  28
TORSDOF 3
