@<TRIPOS>MOLECULE
2YKE_YKE_A_1224
 54 60 0 0 0
SMALL
USER_CHARGES

@<TRIPOS>ATOM
      1 C           8.4653   10.4093   23.5515 C.ar    1  LIG1       -0.0612
      2 C           7.3500    9.7581   23.0158 C.ar    1  LIG1       -0.0614
      3 C           6.0722   10.2944   23.1829 C.ar    1  LIG1       -0.0559
      4 C           8.3181   11.5993   24.2750 C.ar    1  LIG1       -0.0537
      5 C           7.0518   12.1517   24.4435 C.ar    1  LIG1       -0.0116
      6 C           5.9282   11.4862   23.8879 C.ar    1  LIG1       -0.0151
      7 C           4.6685   12.3181   24.0757 C.3     1  LIG1        0.0751
      8 C           6.6067   13.3757   25.1074 C.ar    1  LIG1       -0.0017
      9 C           5.2018   13.4824   24.9152 C.ar    1  LIG1       -0.0144
     10 C           4.4520   14.5220   25.4615 C.ar    1  LIG1       -0.0559
     11 C           5.1018   15.4746   26.2333 C.ar    1  LIG1       -0.0607
     12 C           6.4847   15.3929   26.4301 C.ar    1  LIG1       -0.0505
     13 C           7.2612   14.3511   25.8658 C.ar    1  LIG1        0.0253
     14 C           8.6998   14.3746   26.1097 C.ar    1  LIG1        0.1399
     15 N           9.2287   14.5306   27.3773 N.ar    1  LIG1       -0.3378
     16 N           9.6660   14.3296   25.2151 N.ar    1  LIG1       -0.2262
     17 C          10.8469   14.4453   25.9146 C.ar    1  LIG1        0.1075
     18 C          10.5894   14.5919   27.2724 C.ar    1  LIG1        0.0694
     19 C          11.6041   14.7598   28.2206 C.ar    1  LIG1       -0.0181
     20 C          12.8818   14.7552   27.6845 C.ar    1  LIG1        0.0296
     21 N          13.1858   14.5996   26.3733 N.ar    1  LIG1       -0.2610
     22 C          12.1725   14.4395   25.4803 C.ar    1  LIG1        0.0550
     23 N           3.5794   11.6839   24.7851 N.am    1  LIG1       -0.3005
     24 C           2.7612   10.7035   24.2731 C.2     1  LIG1        0.2454
     25 C           1.6754   10.3199   25.2084 C.ar    1  LIG1        0.0459
     26 O           2.8529   10.1895   23.1697 O.2     1  LIG1       -0.2702
     27 C           2.0434    9.6193   26.3659 C.ar    1  LIG1       -0.0489
     28 C          -0.2575    9.6366   27.0665 C.ar    1  LIG1       -0.0357
     29 C           1.0722    9.2826   27.2970 C.ar    1  LIG1       -0.0590
     30 C           0.3286   10.6902   24.9733 C.ar    1  LIG1        0.0125
     31 C          -0.6512   10.3219   25.9221 C.ar    1  LIG1        0.0717
     32 N          -1.9542   10.6136   25.7686 N.ar    1  LIG1       -0.2550
     33 C          -2.3357   11.2737   24.6554 C.ar    1  LIG1        0.0283
     34 C          -1.4582   11.7055   23.6816 C.ar    1  LIG1       -0.0430
     35 C          -0.1094   11.4200   23.8502 C.ar    1  LIG1       -0.0504
     36 H           9.4589    9.9940   23.3945 H       1  LIG1        0.0618
     37 H           7.4817    8.8381   22.4511 H       1  LIG1        0.0618
     38 H           5.2171    9.7933   22.7421 H       1  LIG1        0.0621
     39 H           9.2106   12.0723   24.6652 H       1  LIG1        0.0624
     40 H           4.3243   12.6919   23.1049 H       1  LIG1        0.0599
     41 H           3.3809   14.5894   25.2996 H       1  LIG1        0.0621
     42 H           4.5398   16.2960   26.6757 H       1  LIG1        0.0618
     43 H           6.9634   16.1774   27.0153 H       1  LIG1        0.0625
     44 H           8.6891   14.5941   28.2275 H       1  LIG1        0.1674
     45 H          11.4112   14.8834   29.2746 H       1  LIG1        0.0654
     46 H          13.7460   14.8811   28.3357 H       1  LIG1        0.0830
     47 H          12.4429   14.3090   24.4380 H       1  LIG1        0.0852
     48 H           3.1281   12.2554   25.4884 H       1  LIG1        0.1499
     49 H           3.0817    9.3425   26.5343 H       1  LIG1        0.0625
     50 H          -1.0179    9.3677   27.7986 H       1  LIG1        0.0639
     51 H           1.3396    8.7399   28.2022 H       1  LIG1        0.0618
     52 H          -3.4044   11.4479   24.5634 H       1  LIG1        0.0830
     53 H          -1.8139   12.2363   22.8066 H       1  LIG1        0.0633
     54 H           0.5952   11.7528   23.0909 H       1  LIG1        0.0625
@<TRIPOS>BOND
     1     1     2   ar
     2     1     4   ar
     3     1    36    1
     4     2     3   ar
     5     2    37    1
     6     3     6   ar
     7     3    38    1
     8     4     5   ar
     9     4    39    1
    10     5     6   ar
    11     5     8    1
    12     6     7    1
    13     7     9    1
    14     7    23    1
    15     7    40    1
    16     8     9   ar
    17     8    13   ar
    18     9    10   ar
    19    10    11   ar
    20    10    41    1
    21    11    12   ar
    22    11    42    1
    23    12    13   ar
    24    12    43    1
    25    13    14    1
    26    14    15   ar
    27    14    16   ar
    28    15    18   ar
    29    15    44    1
    30    16    17   ar
    31    17    18   ar
    32    17    22   ar
    33    18    19   ar
    34    19    20   ar
    35    19    45    1
    36    20    21   ar
    37    20    46    1
    38    21    22   ar
    39    22    47    1
    40    23    24   am
    41    23    48    1
    42    24    25    1
    43    24    26    2
    44    25    27   ar
    45    25    30   ar
    46    27    29   ar
    47    27    49    1
    48    28    29   ar
    49    28    31   ar
    50    28    50    1
    51    29    51    1
    52    30    31   ar
    53    30    35   ar
    54    31    32   ar
    55    32    33   ar
    56    33    34   ar
    57    33    52    1
    58    34    35   ar
    59    34    53    1
    60    35    54    1
