@<TRIPOS>MOLECULE
2YKI_YKI_A_1224
 52 58 0 0 0
SMALL
USER_CHARGES

@<TRIPOS>ATOM
      1 C          13.2459   14.4069   26.4983 C.ar    1  LIG1        0.0296
      2 N          13.0007   14.6132   27.8137 N.ar    1  LIG1       -0.2610
      3 C          11.7077   14.6892   28.2332 C.ar    1  LIG1        0.0550
      4 N           9.2928   14.6000   27.4942 N.ar    1  LIG1       -0.2262
      5 C          12.2725   14.2604   25.5227 C.ar    1  LIG1       -0.0181
      6 N           9.7436   14.2692   25.3537 N.ar    1  LIG1       -0.3378
      7 C           8.7499   14.3480   26.3050 C.ar    1  LIG1        0.1399
      8 N           3.5233   11.7487   24.8169 N.am    1  LIG1       -0.3005
      9 C          10.9587   14.3536   25.9826 C.ar    1  LIG1        0.0694
     10 N          -1.2104   10.2734   26.1505 N.ar    1  LIG1       -0.2375
     11 C          10.6587   14.5630   27.3164 C.ar    1  LIG1        0.1075
     12 N          -2.2859   11.5557   24.3983 N.ar    1  LIG1       -0.3458
     13 C           7.3154   14.3335   25.9987 C.ar    1  LIG1        0.0253
     14 C           4.4989   14.5774   25.6149 C.ar    1  LIG1       -0.0559
     15 C           5.1764   15.5286   26.3641 C.ar    1  LIG1       -0.0607
     16 C           6.5599   15.4148   26.5510 C.ar    1  LIG1       -0.0505
     17 C           2.4167   11.3944   24.0704 C.2     1  LIG1        0.2455
     18 C           1.1961   11.0179   24.8220 C.ar    1  LIG1        0.0488
     19 O           2.3918   11.4375   22.8455 O.2     1  LIG1       -0.2702
     20 C           1.2338   10.2349   25.9796 C.ar    1  LIG1       -0.0308
     21 C           0.0239    9.8984   26.5765 C.ar    1  LIG1        0.0306
     22 C           4.6407   12.4098   24.1766 C.3     1  LIG1        0.0751
     23 C           5.2213   13.5219   25.0508 C.ar    1  LIG1       -0.0144
     24 C           6.6330   13.3695   25.2273 C.ar    1  LIG1       -0.0017
     25 C           5.8577   11.5270   23.9506 C.ar    1  LIG1       -0.0151
     26 C           7.0177   12.1184   24.5288 C.ar    1  LIG1       -0.0116
     27 C           8.2377   11.4647   24.3516 C.ar    1  LIG1       -0.0537
     28 C           8.3007   10.2680   23.6063 C.ar    1  LIG1       -0.0612
     29 C           7.1480    9.7014   23.0499 C.ar    1  LIG1       -0.0614
     30 C           5.9112   10.3347   23.2224 C.ar    1  LIG1       -0.0559
     31 C          -0.0576   11.4478   24.3368 C.ar    1  LIG1        0.0307
     32 C          -1.1813   11.0437   25.0429 C.ar    1  LIG1        0.1388
     33 C          -1.8991   12.2947   23.3098 C.ar    1  LIG1        0.0041
     34 C          -0.5223   12.2485   23.2516 C.ar    1  LIG1       -0.0344
     35 H          14.3020   14.3567   26.2378 H       1  LIG1        0.0830
     36 H          11.5438   14.8561   29.2907 H       1  LIG1        0.0852
     37 H          12.5300   14.0972   24.4755 H       1  LIG1        0.0654
     38 H           9.5880   14.1324   24.3676 H       1  LIG1        0.1674
     39 H           3.4502   11.8527   25.8184 H       1  LIG1        0.1499
     40 H          -3.2374   11.3940   24.6977 H       1  LIG1        0.1668
     41 H           3.4243   14.6583   25.4776 H       1  LIG1        0.0621
     42 H           4.6357   16.3657   26.8112 H       1  LIG1        0.0618
     43 H           7.0603   16.1829   27.1423 H       1  LIG1        0.0625
     44 H           2.1686    9.8660   26.3930 H       1  LIG1        0.0640
     45 H           0.0144    9.2680   27.4658 H       1  LIG1        0.0830
     46 H           4.3129   12.8398   23.2182 H       1  LIG1        0.0599
     47 H           9.1624   11.8339   24.7718 H       1  LIG1        0.0624
     48 H           9.2609    9.7665   23.4574 H       1  LIG1        0.0618
     49 H           7.2164    8.7767   22.4805 H       1  LIG1        0.0618
     50 H           5.0187    9.9009   22.7770 H       1  LIG1        0.0621
     51 H          -2.6194   12.7819   22.6631 H       1  LIG1        0.0807
     52 H           0.0899   12.7291   22.4989 H       1  LIG1        0.0639
@<TRIPOS>BOND
     1     1     2   ar
     2     1     5   ar
     3     1    35    1
     4     2     3   ar
     5     3    11   ar
     6     3    36    1
     7     4     7   ar
     8     4    11   ar
     9     5     9   ar
    10     5    37    1
    11     6     7   ar
    12     6     9   ar
    13     6    38    1
    14     7    13    1
    15     8    17   am
    16     8    22    1
    17     8    39    1
    18     9    11   ar
    19    10    21   ar
    20    10    32   ar
    21    12    32   ar
    22    12    33   ar
    23    12    40    1
    24    13    16   ar
    25    13    24   ar
    26    14    15   ar
    27    14    23   ar
    28    14    41    1
    29    15    16   ar
    30    15    42    1
    31    16    43    1
    32    17    18    1
    33    17    19    2
    34    18    20   ar
    35    18    31   ar
    36    20    21   ar
    37    20    44    1
    38    21    45    1
    39    22    23    1
    40    22    25    1
    41    22    46    1
    42    23    24   ar
    43    24    26    1
    44    25    26   ar
    45    25    30   ar
    46    26    27   ar
    47    27    28   ar
    48    27    47    1
    49    28    29   ar
    50    28    48    1
    51    29    30   ar
    52    29    49    1
    53    30    50    1
    54    31    32   ar
    55    31    34   ar
    56    33    34   ar
    57    33    51    1
    58    34    52    1
