REMARK  3 active torsions:
REMARK  status: ('A' for Active; 'I' for Inactive)
REMARK    1  A    between atoms: C_7  and  C_13 
REMARK       I    between atoms: N_8  and  C_17 
REMARK    2  A    between atoms: N_8  and  C_22 
REMARK    3  A    between atoms: C_17  and  C_18 
ROOT
ATOM      1  C   LIG d   1       7.315  14.334  25.999  0.00  0.00     0.025 A 
ATOM      2  C   LIG d   1       4.499  14.577  25.615  0.00  0.00     0.006 A 
ATOM      3  C   LIG d   1       5.176  15.529  26.364  0.00  0.00     0.001 A 
ATOM      4  C   LIG d   1       6.560  15.415  26.551  0.00  0.00     0.012 A 
ATOM      5  C   LIG d   1       4.641  12.410  24.177  0.00  0.00     0.135 A 
ATOM      6  C   LIG d   1       5.221  13.522  25.051  0.00  0.00    -0.014 A 
ATOM      7  C   LIG d   1       6.633  13.370  25.227  0.00  0.00    -0.002 A 
ATOM      8  C   LIG d   1       5.858  11.527  23.951  0.00  0.00    -0.015 A 
ATOM      9  C   LIG d   1       7.018  12.118  24.529  0.00  0.00    -0.012 A 
ATOM     10  C   LIG d   1       8.238  11.465  24.352  0.00  0.00     0.009 A 
ATOM     11  C   LIG d   1       8.301  10.268  23.606  0.00  0.00     0.001 A 
ATOM     12  C   LIG d   1       7.148   9.701  23.050  0.00  0.00     0.000 A 
ATOM     13  C   LIG d   1       5.911  10.335  23.222  0.00  0.00     0.006 A 
ENDROOT
BRANCH   5  14
ATOM     14  N   LIG d   1       3.523  11.749  24.817  0.00  0.00    -0.300 N 
ATOM     15  C   LIG d   1       2.417  11.394  24.070  0.00  0.00     0.245 C 
ATOM     16  O   LIG d   1       2.392  11.438  22.846  0.00  0.00    -0.270 OA
ATOM     17  H   LIG d   1       3.450  11.853  25.818  0.00  0.00     0.150 HD
BRANCH  15  18
ATOM     18  C   LIG d   1       1.196  11.018  24.822  0.00  0.00     0.049 A 
ATOM     19  C   LIG d   1       1.234  10.235  25.980  0.00  0.00     0.033 A 
ATOM     20  C   LIG d   1       0.024   9.898  26.576  0.00  0.00     0.114 A 
ATOM     21  N   LIG d   1      -1.210  10.273  26.151  0.00  0.00    -0.237 NA
ATOM     22  C   LIG d   1      -1.181  11.044  25.043  0.00  0.00     0.139 A 
ATOM     23  N   LIG d   1      -2.286  11.556  24.398  0.00  0.00    -0.346 N 
ATOM     24  C   LIG d   1      -0.058  11.448  24.337  0.00  0.00     0.031 A 
ATOM     25  C   LIG d   1      -1.899  12.295  23.310  0.00  0.00     0.085 A 
ATOM     26  H   LIG d   1      -3.237  11.394  24.698  0.00  0.00     0.167 HD
ATOM     27  C   LIG d   1      -0.522  12.248  23.252  0.00  0.00     0.029 A 
ENDBRANCH  15  18
ENDBRANCH   5  14
BRANCH   1  28
ATOM     28  C   LIG d   1       8.750  14.348  26.305  0.00  0.00     0.140 A 
ATOM     29  N   LIG d   1       9.293  14.600  27.494  0.00  0.00    -0.226 NA
ATOM     30  C   LIG d   1      10.659  14.563  27.316  0.00  0.00     0.107 A 
ATOM     31  C   LIG d   1      11.708  14.689  28.233  0.00  0.00     0.140 A 
ATOM     32  C   LIG d   1      10.959  14.354  25.983  0.00  0.00     0.069 A 
ATOM     33  N   LIG d   1      13.001  14.613  27.814  0.00  0.00    -0.261 NA
ATOM     34  C   LIG d   1      13.246  14.407  26.498  0.00  0.00     0.113 A 
ATOM     35  C   LIG d   1      12.273  14.260  25.523  0.00  0.00     0.047 A 
ATOM     36  N   LIG d   1       9.744  14.269  25.354  0.00  0.00    -0.338 N 
ATOM     37  H   LIG d   1       9.588  14.132  24.368  0.00  0.00     0.167 HD
ENDBRANCH   1  28
TORSDOF 3
