REMARK  4 active torsions:
REMARK  status: ('A' for Active; 'I' for Inactive)
REMARK    1  A    between atoms: C_7  and  C_13 
REMARK       I    between atoms: N_8  and  C_17 
REMARK    2  A    between atoms: N_8  and  C_22 
REMARK    3  A    between atoms: N_12  and  C_32 
REMARK    4  A    between atoms: C_17  and  C_18 
ROOT
ATOM      1  C   LIG d   1       7.197  14.402  25.873  0.00  0.00     0.025 A 
ATOM      2  C   LIG d   1       4.380  14.721  25.529  0.00  0.00     0.006 A 
ATOM      3  C   LIG d   1       5.101  15.646  26.271  0.00  0.00     0.001 A 
ATOM      4  C   LIG d   1       6.483  15.485  26.442  0.00  0.00     0.012 A 
ATOM      5  C   LIG d   1       4.464  12.576  24.075  0.00  0.00     0.135 A 
ATOM      6  C   LIG d   1       5.069  13.649  24.969  0.00  0.00    -0.014 A 
ATOM      7  C   LIG d   1       6.476  13.464  25.130  0.00  0.00    -0.002 A 
ATOM      8  C   LIG d   1       5.662  11.682  23.830  0.00  0.00    -0.015 A 
ATOM      9  C   LIG d   1       6.832  12.229  24.420  0.00  0.00    -0.012 A 
ATOM     10  C   LIG d   1       8.037  11.563  24.243  0.00  0.00     0.009 A 
ATOM     11  C   LIG d   1       8.069  10.394  23.468  0.00  0.00     0.001 A 
ATOM     12  C   LIG d   1       6.905   9.873  22.888  0.00  0.00     0.000 A 
ATOM     13  C   LIG d   1       5.685  10.520  23.070  0.00  0.00     0.006 A 
ENDROOT
BRANCH   5  14
ATOM     14  N   LIG d   1       3.345  11.900  24.696  0.00  0.00    -0.300 N 
ATOM     15  C   LIG d   1       2.155  11.745  24.031  0.00  0.00     0.245 C 
ATOM     16  O   LIG d   1       2.030  12.004  22.825  0.00  0.00    -0.270 OA
ATOM     17  H   LIG d   1       3.431  11.689  25.682  0.00  0.00     0.150 HD
BRANCH  15  18
ATOM     18  C   LIG d   1       0.957  11.307  24.789  0.00  0.00     0.041 A 
ATOM     19  C   LIG d   1      -0.307  11.643  24.297  0.00  0.00     0.033 A 
ATOM     20  C   LIG d   1      -1.411  11.256  25.026  0.00  0.00     0.113 A 
ATOM     21  N   LIG d   1      -1.334  10.567  26.192  0.00  0.00    -0.241 NA
ATOM     22  C   LIG d   1      -0.112  10.247  26.652  0.00  0.00     0.117 A 
ATOM     23  C   LIG d   1       1.050  10.597  25.982  0.00  0.00     0.056 A 
BRANCH  22  24
ATOM     24  N   LIG d   1      -0.042   9.699  27.923  0.00  0.00    -0.343 N 
ATOM     25  H   LIG d   1       0.749   9.110  28.142  0.00  0.00     0.144 HD
ATOM     26  H   LIG d   1      -0.948   9.357  28.227  0.00  0.00     0.144 HD
ENDBRANCH  22  24
ENDBRANCH  15  18
ENDBRANCH   5  14
BRANCH   1  27
ATOM     27  C   LIG d   1       8.635  14.379  26.157  0.00  0.00     0.140 A 
ATOM     28  N   LIG d   1       9.177  14.563  27.350  0.00  0.00    -0.226 NA
ATOM     29  C   LIG d   1      10.537  14.576  27.162  0.00  0.00     0.107 A 
ATOM     30  C   LIG d   1      11.586  14.723  28.079  0.00  0.00     0.140 A 
ATOM     31  C   LIG d   1      10.845  14.416  25.816  0.00  0.00     0.069 A 
ATOM     32  N   LIG d   1      12.877  14.687  27.651  0.00  0.00    -0.261 NA
ATOM     33  C   LIG d   1      13.125  14.515  26.332  0.00  0.00     0.113 A 
ATOM     34  C   LIG d   1      12.154  14.381  25.345  0.00  0.00     0.047 A 
ATOM     35  N   LIG d   1       9.623  14.331  25.196  0.00  0.00    -0.338 N 
ATOM     36  H   LIG d   1       9.463  14.248  24.204  0.00  0.00     0.167 HD
ENDBRANCH   1  27
TORSDOF 4
