@<TRIPOS>MOLECULE
2YKJ_YKJ_A_1224
 50 55 0 0 0
SMALL
USER_CHARGES

@<TRIPOS>ATOM
      1 C          13.1249   14.5152   26.3324 C.ar    1  LIG1        0.0296
      2 N          12.8769   14.6870   27.6511 N.ar    1  LIG1       -0.2610
      3 C          11.5857   14.7234   28.0788 C.ar    1  LIG1        0.0550
      4 N           9.1767   14.5629   27.3502 N.ar    1  LIG1       -0.2262
      5 C          12.1538   14.3808   25.3448 C.ar    1  LIG1       -0.0181
      6 N           9.6235   14.3305   25.1964 N.ar    1  LIG1       -0.3378
      7 C           8.6352   14.3788   26.1573 C.ar    1  LIG1        0.1399
      8 N           3.3447   11.9002   24.6963 N.am    1  LIG1       -0.3005
      9 C          10.8445   14.4161   25.8162 C.ar    1  LIG1        0.0694
     10 N          -1.3341   10.5674   26.1918 N.ar    1  LIG1       -0.2407
     11 C          10.5371   14.5761   27.1616 C.ar    1  LIG1        0.1075
     12 N          -0.0421    9.6994   27.9227 N.pl3   1  LIG1       -0.3431
     13 C           7.1974   14.4024   25.8731 C.ar    1  LIG1        0.0253
     14 C           4.3799   14.7207   25.5286 C.ar    1  LIG1       -0.0559
     15 C           5.1009   15.6457   26.2706 C.ar    1  LIG1       -0.0607
     16 C           6.4829   15.4853   26.4420 C.ar    1  LIG1       -0.0505
     17 C           2.1552   11.7450   24.0307 C.2     1  LIG1        0.2449
     18 C           0.9567   11.3073   24.7886 C.ar    1  LIG1        0.0414
     19 O           2.0304   12.0036   22.8250 O.2     1  LIG1       -0.2702
     20 C          -0.3071   11.6434   24.2966 C.ar    1  LIG1       -0.0313
     21 C          -1.4114   11.2558   25.0260 C.ar    1  LIG1        0.0304
     22 C           4.4643   12.5764   24.0745 C.3     1  LIG1        0.0751
     23 C           5.0688   13.6488   24.9693 C.ar    1  LIG1       -0.0144
     24 C           6.4764   13.4640   25.1299 C.ar    1  LIG1       -0.0017
     25 C           5.6617   11.6816   23.8301 C.ar    1  LIG1       -0.0151
     26 C           6.8322   12.2294   24.4202 C.ar    1  LIG1       -0.0116
     27 C           8.0373   11.5628   24.2428 C.ar    1  LIG1       -0.0537
     28 C           8.0694   10.3943   23.4680 C.ar    1  LIG1       -0.0612
     29 C           6.9047    9.8733   22.8881 C.ar    1  LIG1       -0.0614
     30 C           5.6848   10.5200   23.0703 C.ar    1  LIG1       -0.0559
     31 C           1.0496   10.5968   25.9823 C.ar    1  LIG1       -0.0100
     32 C          -0.1123   10.2472   26.6517 C.ar    1  LIG1        0.1168
     33 H          14.1825   14.4889   26.0719 H       1  LIG1        0.0830
     34 H          11.4176   14.8659   29.1353 H       1  LIG1        0.0852
     35 H          12.4086   14.2516   24.3018 H       1  LIG1        0.0654
     36 H           9.4628   14.2476   24.2038 H       1  LIG1        0.1674
     37 H           3.4310   11.6887   25.6823 H       1  LIG1        0.1499
     38 H           0.7487    9.1103   28.1417 H       1  LIG1        0.1437
     39 H          -0.9476    9.3568   28.2273 H       1  LIG1        0.1437
     40 H           3.3128   14.8380   25.3801 H       1  LIG1        0.0621
     41 H           4.5969   16.4993   26.7176 H       1  LIG1        0.0618
     42 H           7.0187   16.2309   27.0312 H       1  LIG1        0.0625
     43 H          -0.4276   12.2035   23.3749 H       1  LIG1        0.0640
     44 H          -2.4178   11.5112   24.7063 H       1  LIG1        0.0830
     45 H           4.1738   13.0447   23.1273 H       1  LIG1        0.0599
     46 H           8.9618   11.9055   24.6877 H       1  LIG1        0.0624
     47 H           9.0148    9.8763   23.3135 H       1  LIG1        0.0618
     48 H           6.9519    8.9629   22.2900 H       1  LIG1        0.0618
     49 H           4.7760   10.1358   22.6130 H       1  LIG1        0.0621
     50 H           2.0069   10.2992   26.3939 H       1  LIG1        0.0659
@<TRIPOS>BOND
     1     1     2   ar
     2     1     5   ar
     3     1    33    1
     4     2     3   ar
     5     3    11   ar
     6     3    34    1
     7     4     7   ar
     8     4    11   ar
     9     5     9   ar
    10     5    35    1
    11     6     7   ar
    12     6     9   ar
    13     6    36    1
    14     7    13    1
    15     8    17   am
    16     8    22    1
    17     8    37    1
    18     9    11   ar
    19    10    21   ar
    20    10    32   ar
    21    12    32    1
    22    12    38    1
    23    12    39    1
    24    13    16   ar
    25    13    24   ar
    26    14    15   ar
    27    14    23   ar
    28    14    40    1
    29    15    16   ar
    30    15    41    1
    31    16    42    1
    32    17    18    1
    33    17    19    2
    34    18    20   ar
    35    18    31   ar
    36    20    21   ar
    37    20    43    1
    38    21    44    1
    39    22    23    1
    40    22    25    1
    41    22    45    1
    42    23    24   ar
    43    24    26    1
    44    25    26   ar
    45    25    30   ar
    46    26    27   ar
    47    27    28   ar
    48    27    46    1
    49    28    29   ar
    50    28    47    1
    51    29    30   ar
    52    29    48    1
    53    30    49    1
    54    31    32   ar
    55    31    50    1
