REMARK  7 active torsions:
REMARK  status: ('A' for Active; 'I' for Inactive)
REMARK       I    between atoms: C_2  and  N_3 
REMARK    1  A    between atoms: C_2  and  C_4 
REMARK    2  A    between atoms: C_5  and  N_6 
REMARK    3  A    between atoms: N_6  and  C_7 
REMARK    4  A    between atoms: C_10  and  O_11 
REMARK    5  A    between atoms: C_15  and  C_18 
REMARK    6  A    between atoms: C_24  and  N_28 
REMARK    7  A    between atoms: C_31  and  C_33 
ROOT
ATOM      1  C   LIG d   1      -3.624 -33.691   3.292  0.00  0.00     0.057 A 
ATOM      2  C   LIG d   1      -2.807 -34.666   3.907  0.00  0.00     0.040 A 
ATOM      3  C   LIG d   1      -1.423 -34.615   3.683  0.00  0.00     0.033 A 
ATOM      4  C   LIG d   1      -0.830 -33.633   2.878  0.00  0.00     0.003 A 
ATOM      5  C   LIG d   1      -1.679 -32.724   2.229  0.00  0.00     0.011 A 
ATOM      6  C   LIG d   1      -3.059 -32.736   2.441  0.00  0.00     0.015 A 
ENDROOT
BRANCH   4   7
ATOM      7  C   LIG d   1       0.645 -33.567   2.792  0.00  0.00     0.079 A 
ATOM      8  N   LIG d   1       1.222 -34.764   2.489  0.00  0.00    -0.254 NA
ATOM      9  C   LIG d   1       2.562 -34.827   2.472  0.00  0.00     0.112 A 
ATOM     10  C   LIG d   1       3.374 -33.742   2.736  0.00  0.00     0.030 A 
ATOM     11  C   LIG d   1       2.803 -32.485   3.038  0.00  0.00     0.009 A 
ATOM     12  C   LIG d   1       1.394 -32.399   3.094  0.00  0.00     0.010 A 
ATOM     13  C   LIG d   1       3.553 -31.321   3.367  0.00  0.00     0.055 A 
ATOM     14  C   LIG d   1       0.814 -31.166   3.501  0.00  0.00     0.010 A 
ATOM     15  C   LIG d   1       1.577 -30.037   3.799  0.00  0.00     0.003 A 
ATOM     16  C   LIG d   1       2.954 -30.117   3.747  0.00  0.00     0.027 A 
BRANCH  13  17
ATOM     17  N   LIG d   1       4.963 -31.348   3.333  0.00  0.00    -0.305 N 
ATOM     18  C   LIG d   1       5.744 -31.654   2.250  0.00  0.00     0.204 A 
ATOM     19  N   LIG d   1       7.016 -31.712   2.571  0.00  0.00    -0.235 NA
ATOM     20  C   LIG d   1       7.068 -31.406   3.913  0.00  0.00     0.089 A 
ATOM     21  C   LIG d   1       5.806 -31.132   4.394  0.00  0.00     0.121 A 
BRANCH  20  22
ATOM     22  C   LIG d   1       8.304 -31.445   4.678  0.00  0.00     0.002 A 
ATOM     23  C   LIG d   1       8.388 -30.925   5.977  0.00  0.00     0.010 A 
ATOM     24  C   LIG d   1       9.588 -30.988   6.688  0.00  0.00     0.001 A 
ATOM     25  C   LIG d   1      10.718 -31.559   6.105  0.00  0.00     0.000 A 
ATOM     26  C   LIG d   1      10.647 -32.078   4.814  0.00  0.00     0.001 A 
ATOM     27  C   LIG d   1       9.444 -32.022   4.108  0.00  0.00     0.010 A 
ENDBRANCH  20  22
ENDBRANCH  13  17
ENDBRANCH   4   7
BRANCH   2  28
ATOM     28  N   LIG d   1      -3.391 -35.725   4.591  0.00  0.00    -0.340 N 
ATOM     29  H   LIG d   1      -4.342 -35.489   4.903  0.00  0.00     0.146 HD
BRANCH  28  30
ATOM     30  C   LIG d   1      -2.691 -36.575   5.538  0.00  0.00     0.071 C 
ATOM     31  C   LIG d   1      -3.638 -37.769   5.758  0.00  0.00     0.025 C 
ATOM     32  C   LIG d   1      -4.265 -37.701   7.142  0.00  0.00     0.033 C 
ATOM     33  C   LIG d   1      -3.159 -37.784   8.192  0.00  0.00     0.115 C 
ATOM     34  C   LIG d   1      -2.143 -36.645   8.052  0.00  0.00     0.033 C 
ATOM     35  C   LIG d   1      -2.393 -35.770   6.823  0.00  0.00     0.025 C 
BRANCH  33  36
ATOM     36  O   LIG d   1      -2.478 -39.036   8.072  0.00  0.00    -0.392 OA
ATOM     37  H   LIG d   1      -1.956 -39.030   7.248  0.00  0.00     0.210 HD
ENDBRANCH  33  36
ENDBRANCH  28  30
ENDBRANCH   2  28
BRANCH   1  38
ATOM     38  C   LIG d   1      -5.080 -33.630   3.627  0.00  0.00     0.243 C 
ATOM     39  O   LIG d   1      -5.508 -33.990   4.713  0.00  0.00    -0.270 OA
ATOM     40  N   LIG d   1      -5.941 -33.176   2.666  0.00  0.00    -0.325 N 
ATOM     41  H   LIG d   1      -6.926 -33.219   2.897  0.00  0.00     0.145 HD
ATOM     42  H   LIG d   1      -5.684 -33.121   1.691  0.00  0.00     0.145 HD
ENDBRANCH   1  38
TORSDOF 7
