@<TRIPOS>MOLECULE
3WQ9_YUK_A_301
 67 72 0 0 0
SMALL
USER_CHARGES

@<TRIPOS>ATOM
      1 O          -5.5084  -33.9901    4.7129 O.2     1  LIG1       -0.2704
      2 C          -5.0799  -33.6305    3.6271 C.2     1  LIG1        0.2433
      3 N          -5.9407  -33.1765    2.6656 N.am    1  LIG1       -0.3253
      4 C          -3.6243  -33.6907    3.2917 C.ar    1  LIG1        0.0573
      5 C          -2.8072  -34.6663    3.9071 C.ar    1  LIG1        0.0402
      6 N          -3.3914  -35.7255    4.5909 N.pl3   1  LIG1       -0.3404
      7 C          -2.6910  -36.5747    5.5382 C.3     1  LIG1        0.0208
      8 C          -3.6379  -37.7685    5.7576 C.3     1  LIG1       -0.0323
      9 C          -4.2652  -37.7007    7.1423 C.3     1  LIG1       -0.0252
     10 C          -3.1585  -37.7839    8.1919 C.3     1  LIG1        0.0554
     11 O          -2.4775  -39.0356    8.0716 O.3     1  LIG1       -0.3918
     12 C          -2.1433  -36.6455    8.0523 C.3     1  LIG1       -0.0252
     13 C          -2.3932  -35.7704    6.8227 C.3     1  LIG1       -0.0323
     14 C          -1.4229  -34.6151    3.6825 C.ar    1  LIG1       -0.0309
     15 C          -0.8299  -33.6327    2.8785 C.ar    1  LIG1        0.0027
     16 C          -1.6786  -32.7245    2.2287 C.ar    1  LIG1       -0.0517
     17 C          -3.0586  -32.7362    2.4414 C.ar    1  LIG1       -0.0472
     18 C           0.6449  -33.5671    2.7920 C.ar    1  LIG1        0.0788
     19 N           1.2216  -34.7637    2.4891 N.ar    1  LIG1       -0.2543
     20 C           2.5619  -34.8265    2.4723 C.ar    1  LIG1        0.0289
     21 C           3.3739  -33.7417    2.7365 C.ar    1  LIG1       -0.0339
     22 C           2.8026  -32.4850    3.0385 C.ar    1  LIG1        0.0095
     23 C           1.3940  -32.3991    3.0941 C.ar    1  LIG1        0.0101
     24 C           3.5527  -31.3206    3.3672 C.ar    1  LIG1        0.0553
     25 C           2.9541  -30.1169    3.7466 C.ar    1  LIG1       -0.0372
     26 C           1.5775  -30.0373    3.7989 C.ar    1  LIG1       -0.0591
     27 C           0.8139  -31.1661    3.5008 C.ar    1  LIG1       -0.0519
     28 N           4.9634  -31.3476    3.3327 N.ar    1  LIG1       -0.3046
     29 C           5.7437  -31.6541    2.2497 C.ar    1  LIG1        0.1011
     30 N           7.0165  -31.7123    2.5705 N.ar    1  LIG1       -0.2354
     31 C           7.0683  -31.4063    3.9129 C.ar    1  LIG1        0.0891
     32 C           5.8063  -31.1319    4.3936 C.ar    1  LIG1        0.0372
     33 C           8.3036  -31.4450    4.6779 C.ar    1  LIG1        0.0018
     34 C           8.3876  -30.9250    5.9769 C.ar    1  LIG1       -0.0525
     35 C           9.5883  -30.9880    6.6884 C.ar    1  LIG1       -0.0611
     36 C          10.7182  -31.5587    6.1052 C.ar    1  LIG1       -0.0617
     37 C          10.6466  -32.0781    4.8141 C.ar    1  LIG1       -0.0611
     38 C           9.4438  -32.0219    4.1078 C.ar    1  LIG1       -0.0525
     39 H          -6.9263  -33.2192    2.8971 H       1  LIG1        0.1453
     40 H          -5.6838  -33.1206    1.6914 H       1  LIG1        0.1453
     41 H          -4.3424  -35.4894    4.9030 H       1  LIG1        0.1464
     42 H          -1.7575  -36.9674    5.1161 H       1  LIG1        0.0497
     43 H          -3.0823  -38.7040    5.6225 H       1  LIG1        0.0284
     44 H          -4.4263  -37.8088    4.9939 H       1  LIG1        0.0284
     45 H          -4.9822  -38.5160    7.2575 H       1  LIG1        0.0291
     46 H          -4.8268  -36.7615    7.2515 H       1  LIG1        0.0291
     47 H          -3.6010  -37.7721    9.1928 H       1  LIG1        0.0593
     48 H          -1.9556  -39.0296    7.2482 H       1  LIG1        0.2098
     49 H          -1.1180  -37.0299    8.0293 H       1  LIG1        0.0291
     50 H          -2.2103  -35.9999    8.9392 H       1  LIG1        0.0291
     51 H          -3.2372  -35.1015    7.0422 H       1  LIG1        0.0284
     52 H          -1.5366  -35.1017    6.6699 H       1  LIG1        0.0284
     53 H          -0.7673  -35.3444    4.1541 H       1  LIG1        0.0643
     54 H          -1.2565  -31.9653    1.5698 H       1  LIG1        0.0624
     55 H          -3.6739  -31.9654    1.9841 H       1  LIG1        0.0626
     56 H           2.9873  -35.8017    2.2520 H       1  LIG1        0.0830
     57 H           4.4481  -33.9066    2.7321 H       1  LIG1        0.0639
     58 H           3.5473  -29.2310    3.9649 H       1  LIG1        0.0638
     59 H           1.0818  -29.1081    4.0655 H       1  LIG1        0.0618
     60 H          -0.2617  -31.0637    3.6074 H       1  LIG1        0.0624
     61 H           5.3283  -31.8161    1.2642 H       1  LIG1        0.1032
     62 H           5.4335  -30.9089    5.3828 H       1  LIG1        0.0835
     63 H           7.5289  -30.4633    6.4554 H       1  LIG1        0.0624
     64 H           9.6455  -30.5756    7.6932 H       1  LIG1        0.0618
     65 H          11.6529  -31.6009    6.6558 H       1  LIG1        0.0618
     66 H          11.5233  -32.5265    4.3550 H       1  LIG1        0.0618
     67 H           9.3997  -32.4397    3.1022 H       1  LIG1        0.0624
@<TRIPOS>BOND
     1     1     2    2
     2     2     3   am
     3     2     4    1
     4     3    39    1
     5     3    40    1
     6     4     5   ar
     7     4    17   ar
     8     5     6    1
     9     5    14   ar
    10     6     7    1
    11     6    41    1
    12     7     8    1
    13     7    13    1
    14     7    42    1
    15     8     9    1
    16     8    43    1
    17     8    44    1
    18     9    10    1
    19     9    45    1
    20     9    46    1
    21    10    11    1
    22    10    12    1
    23    10    47    1
    24    11    48    1
    25    12    13    1
    26    12    49    1
    27    12    50    1
    28    13    51    1
    29    13    52    1
    30    14    15   ar
    31    14    53    1
    32    15    16   ar
    33    15    18    1
    34    16    17   ar
    35    16    54    1
    36    17    55    1
    37    18    19   ar
    38    18    23   ar
    39    19    20   ar
    40    20    21   ar
    41    20    56    1
    42    21    22   ar
    43    21    57    1
    44    22    23   ar
    45    22    24   ar
    46    23    27   ar
    47    24    25   ar
    48    24    28    1
    49    25    26   ar
    50    25    58    1
    51    26    27   ar
    52    26    59    1
    53    27    60    1
    54    28    29   ar
    55    28    32   ar
    56    29    30   ar
    57    29    61    1
    58    30    31   ar
    59    31    32   ar
    60    31    33    1
    61    32    62    1
    62    33    34   ar
    63    33    38   ar
    64    34    35   ar
    65    34    63    1
    66    35    36   ar
    67    35    64    1
    68    36    37   ar
    69    36    65    1
    70    37    38   ar
    71    37    66    1
    72    38    67    1
