REMARK  7 active torsions:
REMARK  status: ('A' for Active; 'I' for Inactive)
REMARK    1  A    between atoms: C_1  and  N_12 
REMARK    2  A    between atoms: C_8  and  C_9 
REMARK    3  A    between atoms: C_8  and  N_12 
REMARK    4  A    between atoms: C_9  and  C_10 
REMARK    5  A    between atoms: C_10  and  C_11 
REMARK    6  A    between atoms: C_11  and  C_16 
REMARK    7  A    between atoms: C_19  and  C_22 
ROOT
ATOM      1  C   LIG d   1       2.562  11.651  23.746  0.00  0.00     0.019 C 
ENDROOT
BRANCH   1   2
ATOM      2  C   LIG d   1       2.113  10.187  23.803  0.00  0.00     0.106 C 
BRANCH   2   3
ATOM      3  N   LIG d   1       1.778   9.790  25.164  0.00  0.00    -0.316 N 
ATOM      4  C   LIG d   1       2.787   9.131  25.962  0.00  0.00     0.130 C 
BRANCH   3   5
ATOM      5  C   LIG d   1       0.530  10.054  25.706  0.00  0.00     0.152 A 
ATOM      6  C   LIG d   1      -0.518  10.719  25.027  0.00  0.00     0.147 A 
ATOM      7  C   LIG d   1      -1.723  10.873  25.704  0.00  0.00     0.163 A 
ATOM      8  N   LIG d   1      -0.619  11.278  23.754  0.00  0.00    -0.231 NA
ATOM      9  N   LIG d   1      -2.017  10.473  26.945  0.00  0.00    -0.216 NA
ATOM     10  N   LIG d   1      -2.533  11.527  24.813  0.00  0.00    -0.329 N 
ATOM     11  C   LIG d   1      -0.957   9.872  27.517  0.00  0.00     0.225 A 
ATOM     12  N   LIG d   1       0.261   9.650  26.984  0.00  0.00    -0.218 NA
ATOM     13  C   LIG d   1      -1.838  11.746  23.674  0.00  0.00     0.198 A 
ATOM     14  H   LIG d   1      -3.499  11.784  24.989  0.00  0.00     0.168 HD
ENDBRANCH   3   5
ENDBRANCH   2   3
ENDBRANCH   1   2
BRANCH   1  15
ATOM     15  C   LIG d   1       3.842  11.928  24.543  0.00  0.00     0.006 C 
BRANCH  15  16
ATOM     16  C   LIG d   1       4.487  13.247  24.119  0.00  0.00     0.039 C 
BRANCH  16  17
ATOM     17  C   LIG d   1       5.834  13.492  24.735  0.00  0.00     0.004 A 
ATOM     18  C   LIG d   1       6.159  14.454  25.678  0.00  0.00     0.037 A 
ATOM     19  C   LIG d   1       5.341  15.501  26.328  0.00  0.00     0.065 C 
ATOM     20  N   LIG d   1       7.481  14.287  25.962  0.00  0.00    -0.281 N 
ATOM     21  N   LIG d   1       8.048  13.274  25.295  0.00  0.00    -0.170 NA
ATOM     22  H   LIG d   1       8.063  14.815  26.610  0.00  0.00     0.189 HD
ATOM     23  C   LIG d   1       7.062  12.799  24.519  0.00  0.00     0.131 A 
BRANCH  23  24
ATOM     24  C   LIG d   1       7.309  11.656  23.586  0.00  0.00     0.155 A 
ATOM     25  O   LIG d   1       6.525  11.273  22.524  0.00  0.00    -0.461 OA
ATOM     26  C   LIG d   1       7.127  10.200  21.948  0.00  0.00     0.196 A 
ATOM     27  C   LIG d   1       8.264   9.859  22.637  0.00  0.00     0.042 A 
ATOM     28  C   LIG d   1       8.389  10.795  23.682  0.00  0.00     0.051 A 
ENDBRANCH  23  24
ENDBRANCH  16  17
ENDBRANCH  15  16
ENDBRANCH   1  15
TORSDOF 7
