@<TRIPOS>MOLECULE
3HZ5_Z64_A_237
 47 50 0 0 0
SMALL
USER_CHARGES

@<TRIPOS>ATOM
      1 C           0.5301   10.0543   25.7057 C.ar    1  LIG1        0.1520
      2 C          -0.9569    9.8717   27.5168 C.ar    1  LIG1        0.1205
      3 C          -1.7227   10.8729   25.7037 C.ar    1  LIG1        0.1627
      4 C          -0.5178   10.7191   25.0266 C.ar    1  LIG1        0.1474
      5 N           0.2614    9.6505   26.9840 N.ar    1  LIG1       -0.2184
      6 C          -1.8382   11.7457   23.6744 C.ar    1  LIG1        0.0957
      7 C           2.7869    9.1312   25.9623 C.3     1  LIG1        0.0020
      8 C           2.1131   10.1874   23.8033 C.3     1  LIG1        0.0133
      9 C           2.5615   11.6511   23.7458 C.3     1  LIG1       -0.0369
     10 C           3.8423   11.9282   24.5432 C.3     1  LIG1       -0.0475
     11 C           4.4872   13.2471   24.1187 C.3     1  LIG1       -0.0238
     12 N           1.7781    9.7898   25.1638 N.pl3   1  LIG1       -0.3164
     13 N          -2.0169   10.4725   26.9449 N.ar    1  LIG1       -0.2162
     14 N          -2.5327   11.5269   24.8133 N.ar    1  LIG1       -0.3292
     15 N          -0.6185   11.2784   23.7543 N.ar    1  LIG1       -0.2308
     16 C           5.8341   13.4919   24.7348 C.ar    1  LIG1        0.0036
     17 C           6.1590   14.4538   25.6782 C.ar    1  LIG1        0.0368
     18 C           5.3410   15.5005   26.3284 C.3     1  LIG1       -0.0226
     19 C           7.0617   12.7994   24.5188 C.ar    1  LIG1        0.1308
     20 N           8.0483   13.2745   25.2949 N.ar    1  LIG1       -0.1703
     21 N           7.4806   14.2871   25.9615 N.ar    1  LIG1       -0.2809
     22 C           7.3086   11.6558   23.5863 C.ar    1  LIG1        0.1549
     23 O           6.5250   11.2733   22.5241 O.2     1  LIG1       -0.4613
     24 C           7.1271   10.1999   21.9477 C.ar    1  LIG1        0.0926
     25 C           8.2635    9.8594   22.6368 C.ar    1  LIG1       -0.0232
     26 C           8.3885   10.7952   23.6818 C.ar    1  LIG1       -0.0143
     27 H          -1.0831    9.5264   28.5386 H       1  LIG1        0.1048
     28 H          -2.2528   12.2431   22.8024 H       1  LIG1        0.1027
     29 H           2.4698    8.9166   26.9857 H       1  LIG1        0.0428
     30 H           3.6877    9.7453   26.0426 H       1  LIG1        0.0428
     31 H           3.0712    8.1853   25.4922 H       1  LIG1        0.0428
     32 H           2.9064    9.5387   23.4115 H       1  LIG1        0.0464
     33 H           1.2709   10.0148   23.1230 H       1  LIG1        0.0464
     34 H           1.7665   12.2995   24.1288 H       1  LIG1        0.0280
     35 H           2.7162   11.9194   22.6948 H       1  LIG1        0.0280
     36 H           4.5480   11.1054   24.3968 H       1  LIG1        0.0269
     37 H           3.6035   11.9691   25.6147 H       1  LIG1        0.0269
     38 H           3.8006   14.0579   24.3874 H       1  LIG1        0.0314
     39 H           4.5770   13.2775   23.0284 H       1  LIG1        0.0314
     40 H          -3.4987   11.7838   24.9890 H       1  LIG1        0.1682
     41 H           4.3102   15.4531   25.9695 H       1  LIG1        0.0292
     42 H           5.7258   16.4994   26.0991 H       1  LIG1        0.0292
     43 H           5.3183   15.3707   27.4130 H       1  LIG1        0.0292
     44 H           8.0626   14.8152   26.6098 H       1  LIG1        0.1885
     45 H           6.6490    9.7786   21.0761 H       1  LIG1        0.1029
     46 H           8.9259    9.0364   22.4098 H       1  LIG1        0.0649
     47 H           9.1570   10.8345   24.4418 H       1  LIG1        0.0656
@<TRIPOS>BOND
     1     1     4   ar
     2     1     5   ar
     3     1    12    1
     4     2     5   ar
     5     2    13   ar
     6     2    27    1
     7     3     4   ar
     8     3    13   ar
     9     3    14   ar
    10     4    15   ar
    11     6    14   ar
    12     6    15   ar
    13     6    28    1
    14     7    12    1
    15     7    29    1
    16     7    30    1
    17     7    31    1
    18     8     9    1
    19     8    12    1
    20     8    32    1
    21     8    33    1
    22     9    10    1
    23     9    34    1
    24     9    35    1
    25    10    11    1
    26    10    36    1
    27    10    37    1
    28    11    16    1
    29    11    38    1
    30    11    39    1
    31    14    40    1
    32    16    17   ar
    33    16    19   ar
    34    17    18    1
    35    17    21   ar
    36    18    41    1
    37    18    42    1
    38    18    43    1
    39    19    20   ar
    40    19    22    1
    41    20    21   ar
    42    21    44    1
    43    22    23   ar
    44    22    26   ar
    45    23    24   ar
    46    24    25   ar
    47    24    45    1
    48    25    26   ar
    49    25    46    1
    50    26    47    1
