@<TRIPOS>MOLECULE
2WI1_ZZ2_A_1225
 26 26 0 0 0
SMALL
USER_CHARGES

@<TRIPOS>ATOM
      1 N          28.8544   11.2400   23.5234 N.pl3   1  LIG1       -0.3274
      2 C          29.9634   10.7954   24.2626 C.ar    1  LIG1        0.2159
      3 N          29.7271   10.2440   25.4597 N.ar    1  LIG1       -0.1796
      4 C          30.8282    9.8747   26.1639 C.ar    1  LIG1        0.2194
      5 C          32.0994   10.1043   25.6613 C.ar    1  LIG1        0.0211
      6 C          32.2442   10.5492   24.4108 C.ar    1  LIG1        0.0469
      7 C          33.6120   10.6819   23.7939 C.3     1  LIG1       -0.0221
      8 N          31.1738   10.9445   23.6681 N.ar    1  LIG1       -0.2197
      9 O          30.5884    9.2680   27.3708 O.3     1  LIG1       -0.4739
     10 C          31.4375    8.1597   27.7803 C.3     1  LIG1        0.1144
     11 C          32.1539    7.4792   26.6227 C.3     1  LIG1        0.0814
     12 O          31.3591    6.4369   26.0510 O.3     1  LIG1       -0.3796
     13 C          31.2934    6.6004   24.6255 C.3     1  LIG1        0.0366
     14 H          29.0057   11.6542   22.6249 H       1  LIG1        0.1452
     15 H          27.9455   11.1329   23.9288 H       1  LIG1        0.1452
     16 H          32.9756    9.7487   26.2071 H       1  LIG1        0.0689
     17 H          34.3789   10.2856   24.4827 H       1  LIG1        0.0293
     18 H          33.8356   11.7349   23.6178 H       1  LIG1        0.0293
     19 H          33.6884   10.1297   22.8578 H       1  LIG1        0.0293
     20 H          30.8107    7.4058   28.2668 H       1  LIG1        0.0720
     21 H          32.1635    8.5119   28.5284 H       1  LIG1        0.0720
     22 H          33.1606    7.1297   26.9182 H       1  LIG1        0.0593
     23 H          32.3539    8.1123   25.7895 H       1  LIG1        0.0593
     24 H          30.6912    5.7755   24.2444 H       1  LIG1        0.0524
     25 H          32.2948    6.5522   24.1842 H       1  LIG1        0.0524
     26 H          30.8122    7.5435   24.3443 H       1  LIG1        0.0524
@<TRIPOS>BOND
     1     1     2    1
     2     1    14    1
     3     1    15    1
     4     2     3   ar
     5     2     8   ar
     6     3     4   ar
     7     4     5   ar
     8     4     9    1
     9     5     6   ar
    10     5    16    1
    11     6     7    1
    12     6     8   ar
    13     7    17    1
    14     7    18    1
    15     7    19    1
    16     9    10    1
    17    10    11    1
    18    10    20    1
    19    10    21    1
    20    11    12    1
    21    11    22    1
    22    11    23    1
    23    12    13    1
    24    13    24    1
    25    13    25    1
    26    13    26    1
