2WI1_ZZ2_A_1225
 OpenBabel03301717043D

 26 26  0  0  0  0  0  0  0  0999 V2000
   28.8544   11.2400   23.5234 N   0  0  0  0  0  0  0  0  0  0  0  0
   29.9634   10.7954   24.2626 C   0  0  0  0  0  0  0  0  0  0  0  0
   29.7271   10.2440   25.4597 N   0  0  0  0  0  0  0  0  0  0  0  0
   30.8282    9.8747   26.1639 C   0  0  0  0  0  0  0  0  0  0  0  0
   32.0994   10.1043   25.6613 C   0  0  0  0  0  0  0  0  0  0  0  0
   32.2442   10.5492   24.4108 C   0  0  0  0  0  0  0  0  0  0  0  0
   33.6120   10.6819   23.7939 C   0  0  0  0  0  0  0  0  0  0  0  0
   31.1738   10.9445   23.6681 N   0  0  0  0  0  0  0  0  0  0  0  0
   30.5884    9.2680   27.3708 O   0  0  0  0  0  0  0  0  0  0  0  0
   31.4375    8.1597   27.7803 C   0  0  0  0  0  0  0  0  0  0  0  0
   32.1539    7.4792   26.6227 C   0  0  0  0  0  0  0  0  0  0  0  0
   31.3591    6.4369   26.0510 O   0  0  0  0  0  0  0  0  0  0  0  0
   31.2934    6.6004   24.6255 C   0  0  0  0  0  0  0  0  0  0  0  0
   29.0057   11.6542   22.6249 H   0  0  0  0  0  0  0  0  0  0  0  0
   27.9455   11.1329   23.9288 H   0  0  0  0  0  0  0  0  0  0  0  0
   32.9756    9.7487   26.2071 H   0  0  0  0  0  0  0  0  0  0  0  0
   34.3789   10.2856   24.4827 H   0  0  0  0  0  0  0  0  0  0  0  0
   33.8356   11.7349   23.6178 H   0  0  0  0  0  0  0  0  0  0  0  0
   33.6884   10.1297   22.8578 H   0  0  0  0  0  0  0  0  0  0  0  0
   30.8107    7.4058   28.2668 H   0  0  0  0  0  0  0  0  0  0  0  0
   32.1635    8.5119   28.5284 H   0  0  0  0  0  0  0  0  0  0  0  0
   33.1606    7.1297   26.9182 H   0  0  0  0  0  0  0  0  0  0  0  0
   32.3539    8.1123   25.7895 H   0  0  0  0  0  0  0  0  0  0  0  0
   30.6912    5.7755   24.2444 H   0  0  0  0  0  0  0  0  0  0  0  0
   32.2948    6.5522   24.1842 H   0  0  0  0  0  0  0  0  0  0  0  0
   30.8122    7.5435   24.3443 H   0  0  0  0  0  0  0  0  0  0  0  0
  1  2  1  0  0  0  0
  1 14  1  0  0  0  0
  1 15  1  0  0  0  0
  2  3  2  0  0  0  0
  2  8  1  0  0  0  0
  3  4  1  0  0  0  0
  4  5  2  0  0  0  0
  4  9  1  0  0  0  0
  5  6  1  0  0  0  0
  5 16  1  0  0  0  0
  6  7  1  0  0  0  0
  6  8  2  0  0  0  0
  7 17  1  0  0  0  0
  7 18  1  0  0  0  0
  7 19  1  0  0  0  0
  9 10  1  0  0  0  0
 10 11  1  0  0  0  0
 10 20  1  0  0  0  0
 10 21  1  0  0  0  0
 11 12  1  0  0  0  0
 11 22  1  0  0  0  0
 11 23  1  0  0  0  0
 12 13  1  0  0  0  0
 13 24  1  0  0  0  0
 13 25  1  0  0  0  0
 13 26  1  0  0  0  0
M  END
$$$$
