REMARK  5 active torsions:
REMARK  status: ('A' for Active; 'I' for Inactive)
REMARK    1  A    between atoms: N_1  and  C_2 
REMARK    2  A    between atoms: C_4  and  O_9 
REMARK    3  A    between atoms: O_9  and  C_10 
REMARK    4  A    between atoms: C_10  and  C_11 
REMARK    5  A    between atoms: C_11  and  O_12 
ROOT
ATOM      1  C   LIG d   1      29.963  10.795  24.263  0.00  0.00     0.216 C 
ATOM      2  N   LIG d   1      29.727  10.244  25.460  0.00  0.00    -0.180 NA
ATOM      3  C   LIG d   1      30.828   9.875  26.164  0.00  0.00     0.219 C 
ATOM      4  C   LIG d   1      32.099  10.104  25.661  0.00  0.00     0.090 C 
ATOM      5  C   LIG d   1      32.244  10.549  24.411  0.00  0.00     0.047 C 
ATOM      6  C   LIG d   1      33.612  10.682  23.794  0.00  0.00     0.066 C 
ATOM      7  N   LIG d   1      31.174  10.944  23.668  0.00  0.00    -0.220 NA
ENDROOT
BRANCH   3   8
ATOM      8  O   LIG d   1      30.588   9.268  27.371  0.00  0.00    -0.474 OA
BRANCH   8   9
ATOM      9  C   LIG d   1      31.438   8.160  27.780  0.00  0.00     0.258 C 
BRANCH   9  10
ATOM     10  C   LIG d   1      32.154   7.479  26.623  0.00  0.00     0.200 C 
BRANCH  10  11
ATOM     11  O   LIG d   1      31.359   6.437  26.051  0.00  0.00    -0.380 OA
ATOM     12  C   LIG d   1      31.293   6.600  24.625  0.00  0.00     0.194 C 
ENDBRANCH  10  11
ENDBRANCH   9  10
ENDBRANCH   8   9
ENDBRANCH   3   8
BRANCH   1  13
ATOM     13  N   LIG d   1      28.854  11.240  23.523  0.00  0.00    -0.327 N 
ATOM     14  H   LIG d   1      29.006  11.654  22.625  0.00  0.00     0.145 HD
ATOM     15  H   LIG d   1      27.945  11.133  23.929  0.00  0.00     0.145 HD
ENDBRANCH   1  13
TORSDOF 5
