@<TRIPOS>MOLECULE
2WI3_ZZ3_A_1225
 18 18 0 0 0
SMALL
USER_CHARGES

@<TRIPOS>ATOM
      1 N          29.0777   10.7649   24.5086 N.pl3   1  LIG1       -0.3274
      2 C          30.2485   11.1131   23.9082 C.ar    1  LIG1        0.2165
      3 N          31.3738   10.7280   24.4896 N.ar    1  LIG1       -0.1889
      4 N          30.1901   11.8097   22.7836 N.ar    1  LIG1       -0.2000
      5 C          31.3653   12.1198   22.2343 C.ar    1  LIG1        0.1324
      6 C          31.3463   12.9144   20.9606 C.3     1  LIG1       -0.0044
      7 N          32.5585   11.7757   22.7343 N.ar    1  LIG1       -0.2071
      8 C          32.4949   11.0787   23.8652 C.ar    1  LIG1        0.1926
      9 S          34.0020   10.6519   24.7185 S.3     1  LIG1       -0.0893
     10 C          35.1527   10.3684   23.3468 C.3     1  LIG1       -0.0106
     11 H          28.2102   11.0547   24.0878 H       1  LIG1        0.1452
     12 H          29.1247   10.2517   25.3768 H       1  LIG1        0.1452
     13 H          30.3209   13.1235   20.6422 H       1  LIG1        0.0308
     14 H          31.8440   12.3521   20.1659 H       1  LIG1        0.0308
     15 H          31.8638   13.8680   21.0998 H       1  LIG1        0.0308
     16 H          36.1191   10.0712   23.7693 H       1  LIG1        0.0345
     17 H          35.3132   11.2758   22.7586 H       1  LIG1        0.0345
     18 H          34.8110    9.5578   22.6969 H       1  LIG1        0.0345
@<TRIPOS>BOND
     1     1     2    1
     2     1    11    1
     3     1    12    1
     4     2     3   ar
     5     2     4   ar
     6     3     8   ar
     7     4     5   ar
     8     5     6    1
     9     5     7   ar
    10     6    13    1
    11     6    14    1
    12     6    15    1
    13     7     8   ar
    14     8     9    1
    15     9    10    1
    16    10    16    1
    17    10    17    1
    18    10    18    1
