2WI2_ZZ3_A_1226
 OpenBabel03301717043D

 18 18  0  0  0  0  0  0  0  0999 V2000
   61.5048   11.3233   48.3783 N   0  0  0  0  0  0  0  0  0  0  0  0
   62.5469   10.7750   49.0679 C   0  0  0  0  0  0  0  0  0  0  0  0
   62.2598   10.0934   50.1653 N   0  0  0  0  0  0  0  0  0  0  0  0
   63.7698   10.9605   48.5963 N   0  0  0  0  0  0  0  0  0  0  0  0
   64.7537   10.4013   49.3105 C   0  0  0  0  0  0  0  0  0  0  0  0
   66.1563   10.5895   48.8134 C   0  0  0  0  0  0  0  0  0  0  0  0
   64.5808    9.6924   50.4267 N   0  0  0  0  0  0  0  0  0  0  0  0
   63.3090    9.5727   50.8043 C   0  0  0  0  0  0  0  0  0  0  0  0
   62.9059    8.7132   52.3188 S   0  0  0  0  0  0  0  0  0  0  0  0
   64.4109    7.7622   52.6531 C   0  0  0  0  0  0  0  0  0  0  0  0
   61.7002   11.8463   47.5411 H   0  0  0  0  0  0  0  0  0  0  0  0
   60.5748   11.1935   48.7347 H   0  0  0  0  0  0  0  0  0  0  0  0
   66.1771   11.1777   47.8903 H   0  0  0  0  0  0  0  0  0  0  0  0
   66.6123    9.6169   48.6094 H   0  0  0  0  0  0  0  0  0  0  0  0
   66.7562   11.1106   49.5646 H   0  0  0  0  0  0  0  0  0  0  0  0
   64.2468    7.1819   53.5679 H   0  0  0  0  0  0  0  0  0  0  0  0
   65.2715    8.4139   52.8235 H   0  0  0  0  0  0  0  0  0  0  0  0
   64.6278    7.0571   51.8463 H   0  0  0  0  0  0  0  0  0  0  0  0
  1  2  1  0  0  0  0
  1 11  1  0  0  0  0
  1 12  1  0  0  0  0
  2  3  2  0  0  0  0
  2  4  1  0  0  0  0
  3  8  1  0  0  0  0
  4  5  2  0  0  0  0
  5  6  1  0  0  0  0
  5  7  1  0  0  0  0
  6 13  1  0  0  0  0
  6 14  1  0  0  0  0
  6 15  1  0  0  0  0
  7  8  2  0  0  0  0
  8  9  1  0  0  0  0
  9 10  1  0  0  0  0
 10 16  1  0  0  0  0
 10 17  1  0  0  0  0
 10 18  1  0  0  0  0
M  END
$$$$
