2YEJ_ZZ3_A_1226
 OpenBabel03301717113D

 18 18  0  0  0  0  0  0  0  0999 V2000
   -2.2124   11.7223   23.6252 N   0  0  0  0  0  0  0  0  0  0  0  0
   -1.2170   11.0824   24.2490 C   0  0  0  0  0  0  0  0  0  0  0  0
   -1.3907   10.7512   25.5112 N   0  0  0  0  0  0  0  0  0  0  0  0
   -0.1360   10.8321   23.5459 N   0  0  0  0  0  0  0  0  0  0  0  0
    0.8135   10.1986   24.2132 C   0  0  0  0  0  0  0  0  0  0  0  0
    2.0492    9.8883   23.4872 C   0  0  0  0  0  0  0  0  0  0  0  0
    0.7659    9.8087   25.4767 N   0  0  0  0  0  0  0  0  0  0  0  0
   -0.3690   10.0866   26.0773 C   0  0  0  0  0  0  0  0  0  0  0  0
   -0.5948    9.6913   27.7578 S   0  0  0  0  0  0  0  0  0  0  0  0
    0.6767    8.4894   28.2337 C   0  0  0  0  0  0  0  0  0  0  0  0
   -2.1051   11.9880   22.6591 H   0  0  0  0  0  0  0  0  0  0  0  0
   -3.0568   11.9319   24.1313 H   0  0  0  0  0  0  0  0  0  0  0  0
    1.9605   10.2552   22.4717 H   0  0  0  0  0  0  0  0  0  0  0  0
    2.1867    8.8113   23.4876 H   0  0  0  0  0  0  0  0  0  0  0  0
    2.8766   10.3759   23.9933 H   0  0  0  0  0  0  0  0  0  0  0  0
    0.4946    8.2539   29.2958 H   0  0  0  0  0  0  0  0  0  0  0  0
    1.6840    8.8998   28.1493 H   0  0  0  0  0  0  0  0  0  0  0  0
    0.5965    7.5604   27.6661 H   0  0  0  0  0  0  0  0  0  0  0  0
  1  2  1  0  0  0  0
  1 11  1  0  0  0  0
  1 12  1  0  0  0  0
  2  3  2  0  0  0  0
  2  4  1  0  0  0  0
  3  8  1  0  0  0  0
  4  5  2  0  0  0  0
  5  6  1  0  0  0  0
  5  7  1  0  0  0  0
  6 13  1  0  0  0  0
  6 14  1  0  0  0  0
  6 15  1  0  0  0  0
  7  8  2  0  0  0  0
  8  9  1  0  0  0  0
  9 10  1  0  0  0  0
 10 16  1  0  0  0  0
 10 17  1  0  0  0  0
 10 18  1  0  0  0  0
M  END
$$$$
