@<TRIPOS>MOLECULE
2WI2_ZZ3_A_1226
 18 18 0 0 0
SMALL
USER_CHARGES

@<TRIPOS>ATOM
      1 N          61.5048   11.3233   48.3783 N.pl3   1  LIG1       -0.3274
      2 C          62.5469   10.7750   49.0679 C.ar    1  LIG1        0.2165
      3 N          62.2598   10.0934   50.1653 N.ar    1  LIG1       -0.1889
      4 N          63.7698   10.9605   48.5963 N.ar    1  LIG1       -0.2000
      5 C          64.7537   10.4013   49.3105 C.ar    1  LIG1        0.1324
      6 C          66.1563   10.5895   48.8134 C.3     1  LIG1       -0.0044
      7 N          64.5808    9.6924   50.4267 N.ar    1  LIG1       -0.2071
      8 C          63.3090    9.5727   50.8043 C.ar    1  LIG1        0.1926
      9 S          62.9059    8.7132   52.3188 S.3     1  LIG1       -0.0893
     10 C          64.4109    7.7622   52.6531 C.3     1  LIG1       -0.0106
     11 H          61.7002   11.8463   47.5411 H       1  LIG1        0.1452
     12 H          60.5748   11.1935   48.7347 H       1  LIG1        0.1452
     13 H          66.1771   11.1777   47.8903 H       1  LIG1        0.0308
     14 H          66.6123    9.6169   48.6094 H       1  LIG1        0.0308
     15 H          66.7562   11.1106   49.5646 H       1  LIG1        0.0308
     16 H          64.2468    7.1819   53.5679 H       1  LIG1        0.0345
     17 H          65.2715    8.4139   52.8235 H       1  LIG1        0.0345
     18 H          64.6278    7.0571   51.8463 H       1  LIG1        0.0345
@<TRIPOS>BOND
     1     1     2    1
     2     1    11    1
     3     1    12    1
     4     2     3   ar
     5     2     4   ar
     6     3     8   ar
     7     4     5   ar
     8     5     6    1
     9     5     7   ar
    10     6    13    1
    11     6    14    1
    12     6    15    1
    13     7     8   ar
    14     8     9    1
    15     9    10    1
    16    10    16    1
    17    10    17    1
    18    10    18    1
