@<TRIPOS>MOLECULE
2YEJ_ZZ3_A_1226
 18 18 0 0 0
SMALL
USER_CHARGES

@<TRIPOS>ATOM
      1 N          -2.2124   11.7223   23.6252 N.pl3   1  LIG1       -0.3274
      2 C          -1.2170   11.0824   24.2490 C.ar    1  LIG1        0.2165
      3 N          -1.3907   10.7512   25.5112 N.ar    1  LIG1       -0.1889
      4 N          -0.1360   10.8321   23.5459 N.ar    1  LIG1       -0.2000
      5 C           0.8135   10.1986   24.2132 C.ar    1  LIG1        0.1324
      6 C           2.0492    9.8883   23.4872 C.3     1  LIG1       -0.0044
      7 N           0.7659    9.8087   25.4767 N.ar    1  LIG1       -0.2071
      8 C          -0.3690   10.0866   26.0773 C.ar    1  LIG1        0.1926
      9 S          -0.5948    9.6913   27.7578 S.3     1  LIG1       -0.0893
     10 C           0.6767    8.4894   28.2337 C.3     1  LIG1       -0.0106
     11 H          -2.1051   11.9880   22.6591 H       1  LIG1        0.1452
     12 H          -3.0568   11.9319   24.1313 H       1  LIG1        0.1452
     13 H           1.9605   10.2552   22.4717 H       1  LIG1        0.0308
     14 H           2.1867    8.8113   23.4876 H       1  LIG1        0.0308
     15 H           2.8766   10.3759   23.9933 H       1  LIG1        0.0308
     16 H           0.4946    8.2539   29.2958 H       1  LIG1        0.0345
     17 H           1.6840    8.8998   28.1493 H       1  LIG1        0.0345
     18 H           0.5965    7.5604   27.6661 H       1  LIG1        0.0345
@<TRIPOS>BOND
     1     1     2    1
     2     1    11    1
     3     1    12    1
     4     2     3   ar
     5     2     4   ar
     6     3     8   ar
     7     4     5   ar
     8     5     6    1
     9     5     7   ar
    10     6    13    1
    11     6    14    1
    12     6    15    1
    13     7     8   ar
    14     8     9    1
    15     9    10    1
    16    10    16    1
    17    10    17    1
    18    10    18    1
