REMARK  2 active torsions:
REMARK  status: ('A' for Active; 'I' for Inactive)
REMARK    1  A    between atoms: N_1  and  C_2 
REMARK    2  A    between atoms: C_8  and  S_9 
ROOT
ATOM      1  C   LIG d   1      30.248  11.113  23.908  0.00  0.00     0.216 A 
ATOM      2  N   LIG d   1      31.374  10.728  24.490  0.00  0.00    -0.189 NA
ATOM      3  N   LIG d   1      30.190  11.810  22.784  0.00  0.00    -0.200 NA
ATOM      4  C   LIG d   1      31.365  12.120  22.234  0.00  0.00     0.132 A 
ATOM      5  C   LIG d   1      31.346  12.914  20.961  0.00  0.00     0.088 C 
ATOM      6  N   LIG d   1      32.559  11.776  22.734  0.00  0.00    -0.207 NA
ATOM      7  C   LIG d   1      32.495  11.079  23.865  0.00  0.00     0.193 A 
ENDROOT
BRANCH   1   8
ATOM      8  N   LIG d   1      29.078  10.765  24.509  0.00  0.00    -0.327 N 
ATOM      9  H   LIG d   1      28.210  11.055  24.088  0.00  0.00     0.145 HD
ATOM     10  H   LIG d   1      29.125  10.252  25.377  0.00  0.00     0.145 HD
ENDBRANCH   1   8
BRANCH   7  11
ATOM     11  S   LIG d   1      34.002  10.652  24.718  0.00  0.00    -0.089 SA
ATOM     12  C   LIG d   1      35.153  10.368  23.347  0.00  0.00     0.093 C 
ENDBRANCH   7  11
TORSDOF 2
