REMARK  2 active torsions:
REMARK  status: ('A' for Active; 'I' for Inactive)
REMARK    1  A    between atoms: N_1  and  C_2 
REMARK    2  A    between atoms: C_8  and  S_9 
ROOT
ATOM      1  C   LIG d   1      -1.217  11.082  24.249  0.00  0.00     0.216 A 
ATOM      2  N   LIG d   1      -1.391  10.751  25.511  0.00  0.00    -0.189 NA
ATOM      3  N   LIG d   1      -0.136  10.832  23.546  0.00  0.00    -0.200 NA
ATOM      4  C   LIG d   1       0.814  10.199  24.213  0.00  0.00     0.132 A 
ATOM      5  C   LIG d   1       2.049   9.888  23.487  0.00  0.00     0.088 C 
ATOM      6  N   LIG d   1       0.766   9.809  25.477  0.00  0.00    -0.207 NA
ATOM      7  C   LIG d   1      -0.369  10.087  26.077  0.00  0.00     0.193 A 
ENDROOT
BRANCH   1   8
ATOM      8  N   LIG d   1      -2.212  11.722  23.625  0.00  0.00    -0.327 N 
ATOM      9  H   LIG d   1      -2.105  11.988  22.659  0.00  0.00     0.145 HD
ATOM     10  H   LIG d   1      -3.057  11.932  24.131  0.00  0.00     0.145 HD
ENDBRANCH   1   8
BRANCH   7  11
ATOM     11  S   LIG d   1      -0.595   9.691  27.758  0.00  0.00    -0.089 SA
ATOM     12  C   LIG d   1       0.677   8.489  28.234  0.00  0.00     0.093 C 
ENDBRANCH   7  11
TORSDOF 2
