REMARK  4 active torsions:
REMARK  status: ('A' for Active; 'I' for Inactive)
REMARK    1  A    between atoms: C_8  and  C_9 
REMARK    2  A    between atoms: C_11  and  N_16 
REMARK    3  A    between atoms: C_14  and  N_15 
REMARK    4  A    between atoms: N_17  and  C_18 
ROOT
ATOM      1  C   LIG d   1       0.630  10.786  24.910  0.00  0.00     0.104 A 
ATOM      2  N   LIG d   1      -0.377  11.291  24.143  0.00  0.00    -0.212 NA
ATOM      3  C   LIG d   1       0.405  10.166  26.140  0.00  0.00     0.130 A 
ATOM      4  C   LIG d   1      -0.921  10.162  26.532  0.00  0.00     0.146 A 
ATOM      5  N   LIG d   1      -1.942  10.667  25.805  0.00  0.00    -0.221 NA
ATOM      6  C   LIG d   1      -1.623  11.206  24.624  0.00  0.00     0.213 A 
ENDROOT
BRANCH   1   7
ATOM      7  C   LIG d   1       1.993  10.909  24.329  0.00  0.00     0.021 A 
ATOM      8  C   LIG d   1       2.706   9.749  23.977  0.00  0.00     0.013 A 
ATOM      9  C   LIG d   1       4.009   9.805  23.474  0.00  0.00     0.021 A 
ATOM     10  C   LIG d   1       4.630  11.036  23.302  0.00  0.00     0.042 A 
ATOM     11 CL   LIG d   1       6.239  11.107  22.700  0.00  0.00    -0.084 Cl
ATOM     12  C   LIG d   1       3.957  12.210  23.626  0.00  0.00     0.040 A 
ATOM     13  C   LIG d   1       2.643  12.145  24.132  0.00  0.00     0.052 A 
ATOM     14 CL   LIG d   1       1.893  13.653  24.539  0.00  0.00    -0.083 Cl
ENDBRANCH   1   7
BRANCH   3  15
ATOM     15  N   LIG d   1       1.457   9.672  26.939  0.00  0.00    -0.146 NA
ATOM     16  N   LIG d   1       1.187   8.581  27.490  0.00  0.00    -0.149 NA
BRANCH  16  17
ATOM     17  C   LIG d   1       2.263   8.084  28.270  0.00  0.00     0.086 A 
ATOM     18  C   LIG d   1       3.576   8.576  28.188  0.00  0.00     0.029 A 
ATOM     19  C   LIG d   1       4.606   8.039  28.969  0.00  0.00     0.002 A 
ATOM     20  C   LIG d   1       4.340   6.993  29.847  0.00  0.00     0.000 A 
ATOM     21  C   LIG d   1       3.046   6.483  29.942  0.00  0.00     0.002 A 
ATOM     22  C   LIG d   1       2.019   7.024  29.157  0.00  0.00     0.029 A 
ENDBRANCH  16  17
ENDBRANCH   3  15
BRANCH   6  23
ATOM     23  N   LIG d   1      -2.652  11.675  23.862  0.00  0.00    -0.328 N 
ATOM     24  H   LIG d   1      -3.570  11.685  24.273  0.00  0.00     0.145 HD
ATOM     25  H   LIG d   1      -2.432  12.162  23.012  0.00  0.00     0.145 HD
ENDBRANCH   6  23
TORSDOF 4
