@<TRIPOS>MOLECULE
2WI4_ZZ4_A_1224
 34 36 0 0 0
SMALL
USER_CHARGES

@<TRIPOS>ATOM
      1 CL          6.2391   11.1067   22.6999 Cl      1  LIG1       -0.0835
      2 C           4.6301   11.0360   23.3024 C.ar    1  LIG1        0.0424
      3 C           4.0092    9.8052   23.4735 C.ar    1  LIG1       -0.0427
      4 C           2.7062    9.7487   23.9770 C.ar    1  LIG1       -0.0497
      5 C           3.9571   12.2103   23.6259 C.ar    1  LIG1       -0.0244
      6 C           2.6430   12.1450   24.1323 C.ar    1  LIG1        0.0516
      7 CL          1.8934   13.6534   24.5388 Cl      1  LIG1       -0.0828
      8 C           1.9926   10.9090   24.3294 C.ar    1  LIG1        0.0210
      9 C           0.6305   10.7858   24.9100 C.ar    1  LIG1        0.1045
     10 N          -0.3772   11.2910   24.1433 N.ar    1  LIG1       -0.2124
     11 C           0.4045   10.1658   26.1397 C.ar    1  LIG1        0.1302
     12 C          -0.9208   10.1625   26.5315 C.ar    1  LIG1        0.0604
     13 N          -1.9419   10.6667   25.8046 N.ar    1  LIG1       -0.2209
     14 C          -1.6225   11.2055   24.6241 C.ar    1  LIG1        0.2132
     15 N          -2.6520   11.6748   23.8622 N.pl3   1  LIG1       -0.3275
     16 N           1.4567    9.6721   26.9385 N.2     1  LIG1       -0.1456
     17 N           1.1872    8.5811   27.4897 N.2     1  LIG1       -0.1492
     18 C           2.2631    8.0838   28.2705 C.ar    1  LIG1        0.0862
     19 C           3.5757    8.5764   28.1882 C.ar    1  LIG1       -0.0345
     20 C           4.6061    8.0388   28.9686 C.ar    1  LIG1       -0.0597
     21 C           4.3397    6.9930   29.8470 C.ar    1  LIG1       -0.0616
     22 C           3.0464    6.4834   29.9424 C.ar    1  LIG1       -0.0597
     23 C           2.0189    7.0239   29.1572 C.ar    1  LIG1       -0.0345
     24 H           4.5356    8.8848   23.2209 H       1  LIG1        0.0632
     25 H           2.2458    8.7640   24.1027 H       1  LIG1        0.0625
     26 H           4.4491   13.1687   23.4964 H       1  LIG1        0.0647
     27 H          -1.2146    9.7415   27.4900 H       1  LIG1        0.0854
     28 H          -3.5702   11.6853   24.2734 H       1  LIG1        0.1452
     29 H          -2.4317   12.1619   23.0115 H       1  LIG1        0.1452
     30 H           3.8153    9.3894   27.5096 H       1  LIG1        0.0639
     31 H           5.6124    8.4404   28.8808 H       1  LIG1        0.0618
     32 H           5.1393    6.5755   30.4558 H       1  LIG1        0.0618
     33 H           2.8389    5.6629   30.6250 H       1  LIG1        0.0618
     34 H           1.0175    6.6095   29.2420 H       1  LIG1        0.0639
@<TRIPOS>BOND
     1     1     2    1
     2     2     3   ar
     3     2     5   ar
     4     3     4   ar
     5     3    24    1
     6     4     8   ar
     7     4    25    1
     8     5     6   ar
     9     5    26    1
    10     6     7    1
    11     6     8   ar
    12     8     9    1
    13     9    10   ar
    14     9    11   ar
    15    10    14   ar
    16    11    12   ar
    17    11    16    1
    18    12    13   ar
    19    12    27    1
    20    13    14   ar
    21    14    15    1
    22    15    28    1
    23    15    29    1
    24    16    17    2
    25    17    18    1
    26    18    19   ar
    27    18    23   ar
    28    19    20   ar
    29    19    30    1
    30    20    21   ar
    31    20    31    1
    32    21    22   ar
    33    21    32    1
    34    22    23   ar
    35    22    33    1
    36    23    34    1
