REMARK  5 active torsions:
REMARK  status: ('A' for Active; 'I' for Inactive)
REMARK    1  A    between atoms: C_4  and  N_5 
REMARK    2  A    between atoms: C_9  and  C_10 
REMARK       I    between atoms: C_10  and  N_11 
REMARK    3  A    between atoms: C_16  and  C_17 
REMARK    4  A    between atoms: C_22  and  O_23 
REMARK    5  A    between atoms: O_23  and  C_24 
ROOT
ATOM      1  N   LIG d   1      31.908  11.890  21.609  0.00  0.00    -0.191 NA
ATOM      2  C   LIG d   1      31.668  11.389  22.611  0.00  0.00     0.103 C 
ATOM      3  C   LIG d   1      31.338  10.791  23.871  0.00  0.00     0.100 A 
ATOM      4  C   LIG d   1      30.039  10.965  24.403  0.00  0.00     0.136 A 
ATOM      5  N   LIG d   1      29.662  10.427  25.569  0.00  0.00    -0.224 NA
ATOM      6  C   LIG d   1      30.591   9.695  26.233  0.00  0.00     0.114 A 
ATOM      7  S   LIG d   1      30.179   8.971  27.741  0.00  0.00    -0.062 SA
ATOM      8  C   LIG d   1      31.728   8.260  27.960  0.00  0.00     0.097 A 
ATOM      9  C   LIG d   1      32.550   8.594  26.872  0.00  0.00     0.054 A 
ATOM     10  N   LIG d   1      33.835   8.170  26.766  0.00  0.00    -0.356 N 
ATOM     11  C   LIG d   1      31.911   9.430  25.837  0.00  0.00     0.038 A 
ATOM     12  C   LIG d   1      32.323  10.009  24.578  0.00  0.00     0.014 A 
ATOM     13  H   LIG d   1      34.443   8.410  25.983  0.00  0.00     0.142 HD
ATOM     14  H   LIG d   1      34.282   7.593  27.485  0.00  0.00     0.142 HD
ENDROOT
BRANCH   4  15
ATOM     15  N   LIG d   1      29.087  11.719  23.718  0.00  0.00    -0.342 N 
ATOM     16  H   LIG d   1      28.158  11.838  24.110  0.00  0.00     0.144 HD
ATOM     17  H   LIG d   1      29.290  12.160  22.826  0.00  0.00     0.144 HD
ENDBRANCH   4  15
BRANCH  12  18
ATOM     18  C   LIG d   1      33.693   9.823  24.012  0.00  0.00    -0.016 A 
ATOM     19  C   LIG d   1      34.608  10.890  23.933  0.00  0.00     0.012 A 
ATOM     20  C   LIG d   1      35.900  10.707  23.431  0.00  0.00     0.046 A 
ATOM     21  C   LIG d   1      36.313   9.463  22.968  0.00  0.00     0.120 A 
ATOM     22  C   LIG d   1      35.427   8.385  23.040  0.00  0.00     0.046 A 
ATOM     23  C   LIG d   1      34.126   8.573  23.538  0.00  0.00     0.012 A 
BRANCH  21  24
ATOM     24  O   LIG d   1      37.570   9.224  22.482  0.00  0.00    -0.492 OA
BRANCH  24  25
ATOM     25  C   LIG d   1      38.230  10.322  21.834  0.00  0.00     0.226 C 
ATOM     26  C   LIG d   1      39.670  10.386  22.295  0.00  0.00     0.048 C 
ENDBRANCH  24  25
ENDBRANCH  21  24
ENDBRANCH  12  18
BRANCH   8  27
ATOM     27  C   LIG d   1      32.033   7.460  29.173  0.00  0.00     0.250 C 
ATOM     28  N   LIG d   1      30.988   7.064  29.988  0.00  0.00    -0.325 N 
ATOM     29  H   LIG d   1      31.172   6.507  30.823  0.00  0.00     0.145 HD
ATOM     30  H   LIG d   1      30.033   7.315  29.771  0.00  0.00     0.145 HD
ATOM     31  O   LIG d   1      33.168   7.111  29.496  0.00  0.00    -0.270 OA
ENDBRANCH   8  27
TORSDOF 5
