@<TRIPOS>MOLECULE
2WI5_ZZ5_A_1225
 40 42 0 0 0
SMALL
USER_CHARGES

@<TRIPOS>ATOM
      1 N          31.9082   11.8898   21.6091 N.1     1  LIG1       -0.1907
      2 C          31.6684   11.3893   22.6107 C.1     1  LIG1        0.1032
      3 C          31.3381   10.7909   23.8711 C.ar    1  LIG1        0.0995
      4 C          30.0390   10.9649   24.4032 C.ar    1  LIG1        0.1356
      5 N          29.0867   11.7187   23.7183 N.pl3   1  LIG1       -0.3421
      6 N          29.6615   10.4274   25.5694 N.ar    1  LIG1       -0.2239
      7 C          30.5910    9.6949   26.2333 C.ar    1  LIG1        0.1135
      8 S          30.1791    8.9711   27.7410 S.2     1  LIG1       -0.0621
      9 C          31.7281    8.2599   27.9603 C.ar    1  LIG1        0.0968
     10 C          32.0333    7.4602   29.1727 C.2     1  LIG1        0.2500
     11 N          30.9879    7.0644   29.9885 N.am    1  LIG1       -0.3249
     12 O          33.1676    7.1114   29.4956 O.2     1  LIG1       -0.2698
     13 C          32.5504    8.5941   26.8717 C.ar    1  LIG1        0.0540
     14 N          33.8346    8.1696   26.7663 N.pl3   1  LIG1       -0.3564
     15 C          31.9108    9.4295   25.8374 C.ar    1  LIG1        0.0381
     16 C          32.3232   10.0093   24.5784 C.ar    1  LIG1        0.0143
     17 C          33.6926    9.8233   24.0117 C.ar    1  LIG1       -0.0156
     18 C          34.6079   10.8896   23.9334 C.ar    1  LIG1       -0.0505
     19 C          35.8995   10.7065   23.4315 C.ar    1  LIG1       -0.0194
     20 C          34.1258    8.5729   23.5380 C.ar    1  LIG1       -0.0505
     21 C          35.4274    8.3851   23.0397 C.ar    1  LIG1       -0.0194
     22 C          36.3130    9.4627   22.9681 C.ar    1  LIG1        0.1205
     23 O          37.5701    9.2237   22.4820 O.3     1  LIG1       -0.4922
     24 C          38.2296   10.3220   21.8343 C.3     1  LIG1        0.0868
     25 C          39.6697   10.3862   22.2952 C.3     1  LIG1       -0.0307
     26 H          28.1583   11.8382   24.1097 H       1  LIG1        0.1437
     27 H          29.2896   12.1602   22.8256 H       1  LIG1        0.1437
     28 H          31.1716    6.5067   30.8225 H       1  LIG1        0.1453
     29 H          30.0329    7.3148   29.7710 H       1  LIG1        0.1453
     30 H          34.4425    8.4099   25.9832 H       1  LIG1        0.1424
     31 H          34.2820    7.5930   27.4846 H       1  LIG1        0.1424
     32 H          34.3222   11.8807   24.2727 H       1  LIG1        0.0625
     33 H          36.5755   11.5520   23.4138 H       1  LIG1        0.0654
     34 H          33.4424    7.7264   23.5827 H       1  LIG1        0.0625
     35 H          35.7285    7.3978   22.6934 H       1  LIG1        0.0654
     36 H          37.7699   11.2907   22.0276 H       1  LIG1        0.0694
     37 H          38.2061   10.1626   20.7521 H       1  LIG1        0.0694
     38 H          39.7109   10.5468   23.3774 H       1  LIG1        0.0262
     39 H          40.1984   11.2051   21.7955 H       1  LIG1        0.0262
     40 H          40.1794    9.4445   22.0695 H       1  LIG1        0.0262
@<TRIPOS>BOND
     1     1     2    3
     2     2     3    1
     3     3     4   ar
     4     3    16   ar
     5     4     5    1
     6     4     6   ar
     7     5    26    1
     8     5    27    1
     9     6     7   ar
    10     7     8   ar
    11     7    15   ar
    12     8     9   ar
    13     9    10    1
    14     9    13   ar
    15    10    11   am
    16    10    12    2
    17    11    28    1
    18    11    29    1
    19    13    14    1
    20    13    15   ar
    21    14    30    1
    22    14    31    1
    23    15    16   ar
    24    16    17    1
    25    17    18   ar
    26    17    20   ar
    27    18    19   ar
    28    18    32    1
    29    19    22   ar
    30    19    33    1
    31    20    21   ar
    32    20    34    1
    33    21    22   ar
    34    21    35    1
    35    22    23    1
    36    23    24    1
    37    24    25    1
    38    24    36    1
    39    24    37    1
    40    25    38    1
    41    25    39    1
    42    25    40    1
