REMARK  4 active torsions:
REMARK  status: ('A' for Active; 'I' for Inactive)
REMARK    1  A    between atoms: C_8  and  C_9 
REMARK    2  A    between atoms: C_11  and  N_12 
REMARK    3  A    between atoms: C_18  and  C_19 
REMARK       I    between atoms: C_19  and  N_21 
REMARK    4  A    between atoms: N_21  and  C_22 
ROOT
ATOM      1  C   LIG d   1      32.002  10.329  24.938  0.00  0.00     0.086 A 
ATOM      2  N   LIG d   1      30.939  10.873  24.254  0.00  0.00    -0.214 NA
ATOM      3  C   LIG d   1      29.688  10.681  24.696  0.00  0.00     0.214 A 
ATOM      4  N   LIG d   1      29.352   9.969  25.769  0.00  0.00    -0.207 NA
ATOM      5  C   LIG d   1      30.418   9.427  26.427  0.00  0.00     0.115 A 
ATOM      6  S   LIG d   1      30.188   8.481  27.829  0.00  0.00    -0.064 SA
ATOM      7  C   LIG d   1      31.751   9.546  26.087  0.00  0.00     0.035 A 
ATOM      8  C   LIG d   1      32.614   8.823  27.038  0.00  0.00     0.033 A 
ATOM      9  C   LIG d   1      31.867   8.202  28.048  0.00  0.00     0.076 A 
ENDROOT
BRANCH   1  10
ATOM     10  C   LIG d   1      33.362  10.601  24.427  0.00  0.00     0.019 A 
ATOM     11  C   LIG d   1      33.880  11.912  24.228  0.00  0.00     0.051 A 
ATOM     12 CL   LIG d   1      32.922  13.329  24.581  0.00  0.00    -0.083 Cl
ATOM     13  C   LIG d   1      35.205  12.119  23.760  0.00  0.00     0.040 A 
ATOM     14  C   LIG d   1      36.018  11.015  23.472  0.00  0.00     0.042 A 
ATOM     15 CL   LIG d   1      37.631  11.243  22.896  0.00  0.00    -0.084 Cl
ATOM     16  C   LIG d   1      35.528   9.722  23.648  0.00  0.00     0.021 A 
ATOM     17  C   LIG d   1      34.218   9.507  24.116  0.00  0.00     0.013 A 
ENDBRANCH   1  10
BRANCH   3  18
ATOM     18  N   LIG d   1      28.663  11.273  23.957  0.00  0.00    -0.327 N 
ATOM     19  H   LIG d   1      27.718  11.144  24.265  0.00  0.00     0.145 HD
ATOM     20  H   LIG d   1      28.898  11.815  23.146  0.00  0.00     0.145 HD
ENDBRANCH   3  18
BRANCH   9  21
ATOM     21  C   LIG d   1      32.303   7.378  29.181  0.00  0.00     0.251 C 
ATOM     22  O   LIG d   1      33.474   7.002  29.308  0.00  0.00    -0.270 OA
ATOM     23  N   LIG d   1      31.351   7.021  30.100  0.00  0.00    -0.311 N 
ATOM     24  H   LIG d   1      30.434   7.429  30.017  0.00  0.00     0.149 HD
BRANCH  23  25
ATOM     25  C   LIG d   1      31.637   6.082  31.162  0.00  0.00     0.101 C 
ATOM     26  C   LIG d   1      31.612   6.747  32.514  0.00  0.00     0.024 C 
ENDBRANCH  23  25
ENDBRANCH   9  21
TORSDOF 4
