@<TRIPOS>MOLECULE
2WI6_ZZ6_A_1224
 35 37 0 0 0
SMALL
USER_CHARGES

@<TRIPOS>ATOM
      1 CL         32.9220   13.3289   24.5808 Cl      1  LIG1       -0.0828
      2 C          33.8796   11.9123   24.2279 C.ar    1  LIG1        0.0515
      3 C          35.2048   12.1189   23.7603 C.ar    1  LIG1       -0.0244
      4 C          36.0176   11.0146   23.4716 C.ar    1  LIG1        0.0424
      5 CL         37.6313   11.2426   22.8958 Cl      1  LIG1       -0.0835
      6 C          35.5281    9.7222   23.6476 C.ar    1  LIG1       -0.0427
      7 C          34.2175    9.5069   24.1156 C.ar    1  LIG1       -0.0498
      8 C          33.3616   10.6011   24.4273 C.ar    1  LIG1        0.0195
      9 C          32.0018   10.3286   24.9383 C.ar    1  LIG1        0.0857
     10 N          30.9395   10.8730   24.2544 N.ar    1  LIG1       -0.2140
     11 C          29.6881   10.6811   24.6961 C.ar    1  LIG1        0.2141
     12 N          28.6634   11.2726   23.9574 N.pl3   1  LIG1       -0.3274
     13 N          29.3518    9.9694   25.7694 N.ar    1  LIG1       -0.2074
     14 C          30.4180    9.4268   26.4269 C.ar    1  LIG1        0.1145
     15 S          30.1882    8.4814   27.8293 S.2     1  LIG1       -0.0639
     16 C          31.7513    9.5465   26.0874 C.ar    1  LIG1        0.0345
     17 C          32.6143    8.8231   27.0379 C.ar    1  LIG1       -0.0312
     18 C          31.8673    8.2023   28.0479 C.ar    1  LIG1        0.0765
     19 C          32.3034    7.3775   29.1812 C.2     1  LIG1        0.2508
     20 O          33.4741    7.0018   29.3079 O.2     1  LIG1       -0.2696
     21 N          31.3511    7.0208   30.0996 N.am    1  LIG1       -0.3112
     22 C          31.6370    6.0815   31.1624 C.3     1  LIG1        0.0091
     23 C          31.6119    6.7475   32.5142 C.3     1  LIG1       -0.0495
     24 H          35.6024   13.1221   23.6175 H       1  LIG1        0.0647
     25 H          36.1568    8.8618   23.4231 H       1  LIG1        0.0632
     26 H          33.8627    8.4764   24.2396 H       1  LIG1        0.0625
     27 H          27.7180   11.1436   24.2646 H       1  LIG1        0.1452
     28 H          28.8977   11.8154   23.1456 H       1  LIG1        0.1452
     29 H          33.7005    8.7912   26.9554 H       1  LIG1        0.0638
     30 H          30.4344    7.4295   30.0166 H       1  LIG1        0.1490
     31 H          32.6169    5.6270   31.0043 H       1  LIG1        0.0459
     32 H          30.8766    5.2946   31.1290 H       1  LIG1        0.0459
     33 H          32.3647    7.5403   32.5594 H       1  LIG1        0.0245
     34 H          31.8266    6.0106   33.2948 H       1  LIG1        0.0245
     35 H          30.6269    7.1851   32.7040 H       1  LIG1        0.0245
@<TRIPOS>BOND
     1     1     2    1
     2     2     3   ar
     3     2     8   ar
     4     3     4   ar
     5     3    24    1
     6     4     5    1
     7     4     6   ar
     8     6     7   ar
     9     6    25    1
    10     7     8   ar
    11     7    26    1
    12     8     9    1
    13     9    10   ar
    14     9    16   ar
    15    10    11   ar
    16    11    12    1
    17    11    13   ar
    18    12    27    1
    19    12    28    1
    20    13    14   ar
    21    14    15   ar
    22    14    16   ar
    23    15    18   ar
    24    16    17   ar
    25    17    18   ar
    26    17    29    1
    27    18    19    1
    28    19    20    2
    29    19    21   am
    30    21    22    1
    31    21    30    1
    32    22    23    1
    33    22    31    1
    34    22    32    1
    35    23    33    1
    36    23    34    1
    37    23    35    1
