2XDK_XDK_A_1226
 OpenBabel03301717053D

 21 22  0  0  0  0  0  0  0  0999 V2000
    6.2111    4.1882    9.3095 C   0  0  0  0  0  0  0  0  0  0  0  0
    5.8097    4.2540    7.9943 C   0  0  0  0  0  0  0  0  0  0  0  0
    5.8536    3.2026    7.1459 N   0  0  0  0  0  0  0  0  0  0  0  0
    6.3115    2.0345    7.6672 C   0  0  0  0  0  0  0  0  0  0  0  0
    6.7316    1.8477    8.9847 C   0  0  0  0  0  0  0  0  0  0  0  0
    7.2111    0.5527    9.4693 C   0  0  0  0  0  0  0  0  0  0  0  0
    6.7395    0.1371   10.6547 N   0  0  0  0  0  0  0  0  0  0  0  0
    8.1045   -0.2147    8.7416 C   0  0  0  0  0  0  0  0  0  0  0  0
    8.4781   -1.4217    9.2828 C   0  0  0  0  0  0  0  0  0  0  0  0
    8.0126   -1.8652   10.4543 N   0  0  0  0  0  0  0  0  0  0  0  0
    7.1472   -1.0645   11.0989 C   0  0  0  0  0  0  0  0  0  0  0  0
    6.6464   -1.5083   12.2972 N   0  0  0  0  0  0  0  0  0  0  0  0
    6.6698    2.9714    9.8117 C   0  0  0  0  0  0  0  0  0  0  0  0
    6.1683    5.0688    9.9466 H   0  0  0  0  0  0  0  0  0  0  0  0
    5.4313    5.1894    7.5901 H   0  0  0  0  0  0  0  0  0  0  0  0
    6.3288    1.1948    6.9759 H   0  0  0  0  0  0  0  0  0  0  0  0
    8.5004    0.1206    7.7920 H   0  0  0  0  0  0  0  0  0  0  0  0
    9.1799   -2.0585    8.7379 H   0  0  0  0  0  0  0  0  0  0  0  0
    6.9367   -2.4011   12.6468 H   0  0  0  0  0  0  0  0  0  0  0  0
    5.9940   -0.9300   12.7943 H   0  0  0  0  0  0  0  0  0  0  0  0
    6.9813    2.9038   10.8467 H   0  0  0  0  0  0  0  0  0  0  0  0
  1  2  2  0  0  0  0
  1 13  1  0  0  0  0
  1 14  1  0  0  0  0
  2  3  1  0  0  0  0
  2 15  1  0  0  0  0
  3  4  2  0  0  0  0
  4  5  1  0  0  0  0
  4 16  1  0  0  0  0
  5  6  1  0  0  0  0
  5 13  2  0  0  0  0
  6  7  2  0  0  0  0
  6  8  1  0  0  0  0
  7 11  1  0  0  0  0
  8  9  2  0  0  0  0
  8 17  1  0  0  0  0
  9 10  1  0  0  0  0
  9 18  1  0  0  0  0
 10 11  2  0  0  0  0
 11 12  1  0  0  0  0
 12 19  1  0  0  0  0
 12 20  1  0  0  0  0
 13 21  1  0  0  0  0
M  END
$$$$
