2YI5_YI5_A_1226
 OpenBabel03301717113D

 37 39  0  0  0  0  0  0  0  0999 V2000
    2.0511   33.2359    7.1890 N   0  0  0  0  0  0  0  0  0  0  0  0
    2.3098   32.8058    5.9675 N   0  0  0  0  0  0  0  0  0  0  0  0
    1.7011   33.5859    5.0002 C   0  0  0  0  0  0  0  0  0  0  0  0
    0.9987   34.6733    5.5095 C   0  0  0  0  0  0  0  0  0  0  0  0
    1.7639   33.2146    3.5917 C   0  0  0  0  0  0  0  0  0  0  0  0
    0.3658   35.7931    4.8348 C   0  0  0  0  0  0  0  0  0  0  0  0
   -0.7855   36.3869    5.3427 C   0  0  0  0  0  0  0  0  0  0  0  0
   -1.3301   37.5082    4.7243 C   0  0  0  0  0  0  0  0  0  0  0  0
   -0.7027   38.0325    3.5797 C   0  0  0  0  0  0  0  0  0  0  0  0
    0.4297   37.4339    3.0565 C   0  0  0  0  0  0  0  0  0  0  0  0
    0.9595   36.3091    3.6930 C   0  0  0  0  0  0  0  0  0  0  0  0
    2.9699   32.9451    2.9289 C   0  0  0  0  0  0  0  0  0  0  0  0
    2.9871   32.4993    1.6094 C   0  0  0  0  0  0  0  0  0  0  0  0
    1.7699   32.3584    0.9278 C   0  0  0  0  0  0  0  0  0  0  0  0
    0.5541   32.6434    1.5733 C   0  0  0  0  0  0  0  0  0  0  0  0
    0.5336   33.0690    2.8913 C   0  0  0  0  0  0  0  0  0  0  0  0
    1.8134   31.9084   -0.3618 O   0  0  0  0  0  0  0  0  0  0  0  0
    4.1573   33.0999    3.6098 O   0  0  0  0  0  0  0  0  0  0  0  0
   -1.1048   39.1674    2.9085 O   0  0  0  0  0  0  0  0  0  0  0  0
    1.1009   34.5961    7.2178 S   0  0  0  0  0  0  0  0  0  0  0  0
   -1.6447   40.1561    3.7719 C   0  0  0  0  0  0  0  0  0  0  0  0
   -0.9424   32.4469    0.7426 Cl  0  0  0  0  0  0  0  0  0  0  0  0
   -2.6928   37.8841    6.6219 C   0  0  0  0  0  0  0  0  0  0  0  0
   -2.4844   38.0508    5.2176 O   0  0  0  0  0  0  0  0  0  0  0  0
   -1.2253   35.9791    6.2371 H   0  0  0  0  0  0  0  0  0  0  0  0
    0.9569   37.8152    2.1907 H   0  0  0  0  0  0  0  0  0  0  0  0
    1.8834   35.8732    3.3291 H   0  0  0  0  0  0  0  0  0  0  0  0
    3.9099   32.2664    1.0840 H   0  0  0  0  0  0  0  0  0  0  0  0
   -0.3924   33.2865    3.3879 H   0  0  0  0  0  0  0  0  0  0  0  0
    0.8853   31.8513   -0.6784 H   0  0  0  0  0  0  0  0  0  0  0  0
    4.9060   32.8885    3.0397 H   0  0  0  0  0  0  0  0  0  0  0  0
   -1.9234   41.0313    3.1894 H   0  0  0  0  0  0  0  0  0  0  0  0
   -0.9116   40.4336    4.5414 H   0  0  0  0  0  0  0  0  0  0  0  0
   -2.5832   39.8373    4.2171 H   0  0  0  0  0  0  0  0  0  0  0  0
   -3.5789   38.4425    6.9087 H   0  0  0  0  0  0  0  0  0  0  0  0
   -1.8291   38.2632    7.1883 H   0  0  0  0  0  0  0  0  0  0  0  0
   -2.8909   36.8360    6.8416 H   0  0  0  0  0  0  0  0  0  0  0  0
  1  2  2  0  0  0  0
  1 20  1  0  0  0  0
  2  3  1  0  0  0  0
  3  4  2  0  0  0  0
  3  5  1  0  0  0  0
  4  6  1  0  0  0  0
  4 20  1  0  0  0  0
  5 12  2  0  0  0  0
  5 16  1  0  0  0  0
  6  7  2  0  0  0  0
  6 11  1  0  0  0  0
  7  8  1  0  0  0  0
  7 25  1  0  0  0  0
  8  9  2  0  0  0  0
  8 24  1  0  0  0  0
  9 10  1  0  0  0  0
  9 19  1  0  0  0  0
 10 11  2  0  0  0  0
 10 26  1  0  0  0  0
 11 27  1  0  0  0  0
 12 13  1  0  0  0  0
 12 18  1  0  0  0  0
 13 14  2  0  0  0  0
 13 28  1  0  0  0  0
 14 15  1  0  0  0  0
 14 17  1  0  0  0  0
 15 16  2  0  0  0  0
 15 22  1  0  0  0  0
 16 29  1  0  0  0  0
 17 30  1  0  0  0  0
 18 31  1  0  0  0  0
 19 21  1  0  0  0  0
 21 32  1  0  0  0  0
 21 33  1  0  0  0  0
 21 34  1  0  0  0  0
 23 24  1  0  0  0  0
 23 35  1  0  0  0  0
 23 36  1  0  0  0  0
 23 37  1  0  0  0  0
M  END
$$$$
