2BT0_CT5_A_1224
 OpenBabel03301717003D

 46 49  0  0  0  0  0  0  0  0999 V2000
   -0.0003  -37.0853   -0.0944 C   0  0  0  0  0  0  0  0  0  0  0  0
    1.0312  -37.6711   -0.8027 C   0  0  0  0  0  0  0  0  0  0  0  0
    0.7510  -38.3218   -1.9721 O   0  0  0  0  0  0  0  0  0  0  0  0
    3.3434  -38.2467   -1.0131 O   0  0  0  0  0  0  0  0  0  0  0  0
    2.3384  -37.6362   -0.3183 C   0  0  0  0  0  0  0  0  0  0  0  0
    2.6412  -36.9923    0.8757 C   0  0  0  0  0  0  0  0  0  0  0  0
    1.6040  -36.4284    1.6103 C   0  0  0  0  0  0  0  0  0  0  0  0
    0.2908  -36.4958    1.1337 C   0  0  0  0  0  0  0  0  0  0  0  0
   -0.7616  -35.8668    1.8785 C   0  0  0  0  0  0  0  0  0  0  0  0
   -1.2251  -36.3045    3.0898 C   0  0  0  0  0  0  0  0  0  0  0  0
   -0.8293  -37.4693    3.9056 C   0  0  0  0  0  0  0  0  0  0  0  0
   -2.1997  -35.4056    3.4357 N   0  3  0  0  0  0  0  0  0  0  0  0
   -1.5061  -34.7031    1.5725 C   0  0  0  0  0  0  0  0  0  0  0  0
   -2.3668  -34.4163    2.5541 N   0  0  0  0  0  0  0  0  0  0  0  0
   -1.3146  -33.8885    0.3928 C   0  0  0  0  0  0  0  0  0  0  0  0
   -0.0056  -33.5210    0.0502 C   0  0  0  0  0  0  0  0  0  0  0  0
    0.2551  -32.8024   -1.1138 C   0  0  0  0  0  0  0  0  0  0  0  0
    1.6652  -32.3661   -1.3999 C   0  0  0  0  0  0  0  0  0  0  0  0
    1.9662  -31.1127   -0.5969 C   0  0  0  0  0  0  0  0  0  0  0  0
   -0.8200  -32.4297   -1.9256 C   0  0  0  0  0  0  0  0  0  0  0  0
    1.4043  -39.5888   -1.9032 C   0  0  0  0  0  0  0  0  0  0  0  0
   -0.5484  -31.6803   -3.0362 O   0  0  0  0  0  0  0  0  0  0  0  0
   -2.1280  -32.7969   -1.6043 C   0  0  0  0  0  0  0  0  0  0  0  0
    2.8911  -39.5090   -1.5198 C   0  0  0  0  0  0  0  0  0  0  0  0
   -2.3713  -33.5370   -0.4471 C   0  0  0  0  0  0  0  0  0  0  0  0
   -3.6362  -33.9621   -0.1483 O   0  0  0  0  0  0  0  0  0  0  0  0
   -1.0169  -37.1104   -0.4772 H   0  0  0  0  0  0  0  0  0  0  0  0
    3.6592  -36.9496    1.2421 H   0  0  0  0  0  0  0  0  0  0  0  0
    1.8207  -35.9201    2.5546 H   0  0  0  0  0  0  0  0  0  0  0  0
   -0.0235  -38.0191    3.4071 H   0  0  0  0  0  0  0  0  0  0  0  0
   -1.6647  -38.1588    4.0302 H   0  0  0  0  0  0  0  0  0  0  0  0
   -0.4549  -37.1500    4.8795 H   0  0  0  0  0  0  0  0  0  0  0  0
   -2.7907  -35.4132    4.2594 H   0  0  0  0  0  0  0  0  0  0  0  0
    0.8263  -33.7972    0.6958 H   0  0  0  0  0  0  0  0  0  0  0  0
    1.7976  -32.1763   -2.4697 H   0  0  0  0  0  0  0  0  0  0  0  0
    2.3698  -33.1660   -1.1393 H   0  0  0  0  0  0  0  0  0  0  0  0
    1.2623  -30.3119   -0.8498 H   0  0  0  0  0  0  0  0  0  0  0  0
    2.9809  -30.7628   -0.8007 H   0  0  0  0  0  0  0  0  0  0  0  0
    1.8765  -31.3030    0.4783 H   0  0  0  0  0  0  0  0  0  0  0  0
    1.2846  -40.0902   -2.8691 H   0  0  0  0  0  0  0  0  0  0  0  0
    0.8615  -40.2097   -1.1762 H   0  0  0  0  0  0  0  0  0  0  0  0
   -1.3718  -31.5014   -3.5046 H   0  0  0  0  0  0  0  0  0  0  0  0
   -2.9498  -32.5117   -2.2484 H   0  0  0  0  0  0  0  0  0  0  0  0
    3.1107  -40.2620   -0.7520 H   0  0  0  0  0  0  0  0  0  0  0  0
    3.5127  -39.7724   -2.3818 H   0  0  0  0  0  0  0  0  0  0  0  0
   -4.2756  -33.5858   -0.7679 H   0  0  0  0  0  0  0  0  0  0  0  0
  1  2  2  0  0  0  0
  1  8  1  0  0  0  0
  1 27  1  0  0  0  0
  2  3  1  0  0  0  0
  2  5  1  0  0  0  0
  3 21  1  0  0  0  0
  4  5  1  0  0  0  0
  4 24  1  0  0  0  0
  5  6  2  0  0  0  0
  6  7  1  0  0  0  0
  6 28  1  0  0  0  0
  7  8  2  0  0  0  0
  7 29  1  0  0  0  0
  8  9  1  0  0  0  0
  9 10  1  0  0  0  0
  9 13  2  0  0  0  0
 10 11  1  0  0  0  0
 10 12  2  0  0  0  0
 11 30  1  0  0  0  0
 11 31  1  0  0  0  0
 11 32  1  0  0  0  0
 12 14  1  0  0  0  0
 12 33  1  0  0  0  0
 13 14  1  0  0  0  0
 13 15  1  0  0  0  0
 15 16  2  0  0  0  0
 15 25  1  0  0  0  0
 16 17  1  0  0  0  0
 16 34  1  0  0  0  0
 17 18  1  0  0  0  0
 17 20  2  0  0  0  0
 18 19  1  0  0  0  0
 18 35  1  0  0  0  0
 18 36  1  0  0  0  0
 19 37  1  0  0  0  0
 19 38  1  0  0  0  0
 19 39  1  0  0  0  0
 20 22  1  0  0  0  0
 20 23  1  0  0  0  0
 21 24  1  0  0  0  0
 21 40  1  0  0  0  0
 21 41  1  0  0  0  0
 22 42  1  0  0  0  0
 23 25  2  0  0  0  0
 23 43  1  0  0  0  0
 24 44  1  0  0  0  0
 24 45  1  0  0  0  0
 25 26  1  0  0  0  0
 26 46  1  0  0  0  0
M  CHG  1  12   1
M  END
$$$$
