3HZ5_Z64_A_237
 OpenBabel03301717173D

 47 50  0  0  0  0  0  0  0  0999 V2000
    0.5301   10.0543   25.7057 C   0  0  0  0  0  0  0  0  0  0  0  0
   -0.9569    9.8717   27.5168 C   0  0  0  0  0  0  0  0  0  0  0  0
   -1.7227   10.8729   25.7037 C   0  0  0  0  0  0  0  0  0  0  0  0
   -0.5178   10.7191   25.0266 C   0  0  0  0  0  0  0  0  0  0  0  0
    0.2614    9.6505   26.9840 N   0  0  0  0  0  0  0  0  0  0  0  0
   -1.8382   11.7457   23.6744 C   0  0  0  0  0  0  0  0  0  0  0  0
    2.7869    9.1312   25.9623 C   0  0  0  0  0  0  0  0  0  0  0  0
    2.1131   10.1874   23.8033 C   0  0  0  0  0  0  0  0  0  0  0  0
    2.5615   11.6511   23.7458 C   0  0  0  0  0  0  0  0  0  0  0  0
    3.8423   11.9282   24.5432 C   0  0  0  0  0  0  0  0  0  0  0  0
    4.4872   13.2471   24.1187 C   0  0  0  0  0  0  0  0  0  0  0  0
    1.7781    9.7898   25.1638 N   0  0  0  0  0  0  0  0  0  0  0  0
   -2.0169   10.4725   26.9449 N   0  0  0  0  0  0  0  0  0  0  0  0
   -2.5327   11.5269   24.8133 N   0  3  0  0  0  0  0  0  0  0  0  0
   -0.6185   11.2784   23.7543 N   0  0  0  0  0  0  0  0  0  0  0  0
    5.8341   13.4919   24.7348 C   0  0  0  0  0  0  0  0  0  0  0  0
    6.1590   14.4538   25.6782 C   0  0  0  0  0  0  0  0  0  0  0  0
    5.3410   15.5005   26.3284 C   0  0  0  0  0  0  0  0  0  0  0  0
    7.0617   12.7994   24.5188 C   0  0  0  0  0  0  0  0  0  0  0  0
    8.0483   13.2745   25.2949 N   0  0  0  0  0  0  0  0  0  0  0  0
    7.4806   14.2871   25.9615 N   0  3  0  0  0  0  0  0  0  0  0  0
    7.3086   11.6558   23.5863 C   0  0  0  0  0  0  0  0  0  0  0  0
    6.5250   11.2733   22.5241 O   0  0  0  0  0  0  0  0  0  0  0  0
    7.1271   10.1999   21.9477 C   0  0  0  0  0  0  0  0  0  0  0  0
    8.2635    9.8594   22.6368 C   0  0  0  0  0  0  0  0  0  0  0  0
    8.3885   10.7952   23.6818 C   0  0  0  0  0  0  0  0  0  0  0  0
   -1.0831    9.5264   28.5386 H   0  0  0  0  0  0  0  0  0  0  0  0
   -2.2528   12.2431   22.8024 H   0  0  0  0  0  0  0  0  0  0  0  0
    2.4698    8.9166   26.9857 H   0  0  0  0  0  0  0  0  0  0  0  0
    3.6877    9.7453   26.0426 H   0  0  0  0  0  0  0  0  0  0  0  0
    3.0712    8.1853   25.4922 H   0  0  0  0  0  0  0  0  0  0  0  0
    2.9064    9.5387   23.4115 H   0  0  0  0  0  0  0  0  0  0  0  0
    1.2709   10.0148   23.1230 H   0  0  0  0  0  0  0  0  0  0  0  0
    1.7665   12.2995   24.1288 H   0  0  0  0  0  0  0  0  0  0  0  0
    2.7162   11.9194   22.6948 H   0  0  0  0  0  0  0  0  0  0  0  0
    4.5480   11.1054   24.3968 H   0  0  0  0  0  0  0  0  0  0  0  0
    3.6035   11.9691   25.6147 H   0  0  0  0  0  0  0  0  0  0  0  0
    3.8006   14.0579   24.3874 H   0  0  0  0  0  0  0  0  0  0  0  0
    4.5770   13.2775   23.0284 H   0  0  0  0  0  0  0  0  0  0  0  0
   -3.4987   11.7838   24.9890 H   0  0  0  0  0  0  0  0  0  0  0  0
    4.3102   15.4531   25.9695 H   0  0  0  0  0  0  0  0  0  0  0  0
    5.7258   16.4994   26.0991 H   0  0  0  0  0  0  0  0  0  0  0  0
    5.3183   15.3707   27.4130 H   0  0  0  0  0  0  0  0  0  0  0  0
    8.0626   14.8152   26.6098 H   0  0  0  0  0  0  0  0  0  0  0  0
    6.6490    9.7786   21.0761 H   0  0  0  0  0  0  0  0  0  0  0  0
    8.9259    9.0364   22.4098 H   0  0  0  0  0  0  0  0  0  0  0  0
    9.1570   10.8345   24.4418 H   0  0  0  0  0  0  0  0  0  0  0  0
  1  4  2  0  0  0  0
  1  5  1  0  0  0  0
  1 12  1  0  0  0  0
  2  5  2  0  0  0  0
  2 13  1  0  0  0  0
  2 27  1  0  0  0  0
  3  4  1  0  0  0  0
  3 13  2  0  0  0  0
  3 14  1  0  0  0  0
  4 15  1  0  0  0  0
  6 14  2  0  0  0  0
  6 15  1  0  0  0  0
  6 28  1  0  0  0  0
  7 12  1  0  0  0  0
  7 29  1  0  0  0  0
  7 30  1  0  0  0  0
  7 31  1  0  0  0  0
  8  9  1  0  0  0  0
  8 12  1  0  0  0  0
  8 32  1  0  0  0  0
  8 33  1  0  0  0  0
  9 10  1  0  0  0  0
  9 34  1  0  0  0  0
  9 35  1  0  0  0  0
 10 11  1  0  0  0  0
 10 36  1  0  0  0  0
 10 37  1  0  0  0  0
 11 16  1  0  0  0  0
 11 38  1  0  0  0  0
 11 39  1  0  0  0  0
 14 40  1  0  0  0  0
 16 17  1  0  0  0  0
 16 19  2  0  0  0  0
 17 18  1  0  0  0  0
 17 21  2  0  0  0  0
 18 41  1  0  0  0  0
 18 42  1  0  0  0  0
 18 43  1  0  0  0  0
 19 20  1  0  0  0  0
 19 22  1  0  0  0  0
 20 21  1  0  0  0  0
 21 44  1  0  0  0  0
 22 23  1  0  0  0  0
 22 26  2  0  0  0  0
 23 24  1  0  0  0  0
 24 25  2  0  0  0  0
 24 45  1  0  0  0  0
 25 26  1  0  0  0  0
 25 46  1  0  0  0  0
 26 47  1  0  0  0  0
M  CHG  2  14   1  21   1
M  END
$$$$
