017
 OpenBabel04091913413D

 75 78  0  0  1  0  0  0  0  0999 V2000
   -8.1192   16.4965   -8.1647 N   0  0  0  0  0  0  0  0  0  0  0  0
   -8.2571   16.1068   -6.8423 C   0  0  0  0  0  0  0  0  0  0  0  0
   -7.1164   15.8375   -6.0822 C   0  0  0  0  0  0  0  0  0  0  0  0
   -7.2205   15.5449   -4.7335 C   0  0  0  0  0  0  0  0  0  0  0  0
   -8.4747   15.5582   -4.1290 C   0  0  0  0  0  0  0  0  0  0  0  0
   -9.6281   15.8545   -4.8560 C   0  0  0  0  0  0  0  0  0  0  0  0
   -9.5085   16.1407   -6.2152 C   0  0  0  0  0  0  0  0  0  0  0  0
   -8.5737   15.0884   -2.4299 S   0  0  0  0  0  0  0  0  0  0  0  0
   -9.8944   14.5466   -2.2317 O   0  0  0  0  0  0  0  0  0  0  0  0
   -7.3997   14.3097   -2.1143 O   0  0  0  0  0  0  0  0  0  0  0  0
   -8.4527   16.5862   -1.6377 N   0  0  0  0  0  0  0  0  0  0  0  0
   -7.2174   17.3861   -1.8711 C   0  0  0  0  0  0  0  0  0  0  0  0
   -6.7273   18.0724   -0.5870 C   0  0  0  0  0  0  0  0  0  0  0  0
   -6.0895   17.0696    0.3741 C   0  0  0  0  0  0  0  0  0  0  0  0
   -5.7220   19.1736   -0.9184 C   0  0  0  0  0  0  0  0  0  0  0  0
   -9.6945   17.3868   -1.5483 C   0  0  0  0  0  0  0  0  0  0  0  0
  -10.1680   17.4426   -0.0887 C   0  0  1  0  0  0  0  0  0  0  0  0
  -11.2269   18.4013    0.0430 O   0  0  0  0  0  0  0  0  0  0  0  0
  -10.5761   16.0646    0.4780 C   0  0  1  0  0  0  0  0  0  0  0  0
  -10.6912   16.1764    1.9225 N   0  0  0  0  0  0  0  0  0  0  0  0
   -9.9142   15.4671    2.7756 C   0  0  0  0  0  0  0  0  0  0  0  0
   -9.0092   14.7051    2.4628 O   0  0  0  0  0  0  0  0  0  0  0  0
  -10.3060   15.7305    4.0399 O   0  0  0  0  0  0  0  0  0  0  0  0
   -9.6421   14.9964    5.0849 C   0  0  1  0  0  0  0  0  0  0  0  0
   -9.2755   15.9814    6.1723 C   0  0  0  0  0  0  0  0  0  0  0  0
  -10.4939   16.2163    6.8979 O   0  0  0  0  0  0  0  0  0  0  0  0
  -11.2931   15.0312    6.7895 C   0  0  1  0  0  0  0  0  0  0  0  0
  -12.6055   15.3021    6.3031 O   0  0  0  0  0  0  0  0  0  0  0  0
  -12.8915   14.4428    5.1964 C   0  0  0  0  0  0  0  0  0  0  0  0
  -11.7275   13.4951    4.9989 C   0  0  0  0  0  0  0  0  0  0  0  0
  -10.6124   14.0889    5.8171 C   0  0  1  0  0  0  0  0  0  0  0  0
  -11.8963   15.5341   -0.1273 C   0  0  0  0  0  0  0  0  0  0  0  0
  -13.4506   14.1564    1.2633 C   0  0  0  0  0  0  0  0  0  0  0  0
  -13.8421   12.9598    1.8505 C   0  0  0  0  0  0  0  0  0  0  0  0
  -13.1012   11.8029    1.6320 C   0  0  0  0  0  0  0  0  0  0  0  0
  -11.9589   11.8468    0.8173 C   0  0  0  0  0  0  0  0  0  0  0  0
  -11.5806   13.0412    0.2348 C   0  0  0  0  0  0  0  0  0  0  0  0
  -12.3146   14.2171    0.4514 C   0  0  0  0  0  0  0  0  0  0  0  0
   -7.2362   16.3093   -8.6263 H   0  0  0  0  0  0  0  0  0  0  0  0
   -8.9428   16.5269   -8.7529 H   0  0  0  0  0  0  0  0  0  0  0  0
   -6.1319   15.8243   -6.5437 H   0  0  0  0  0  0  0  0  0  0  0  0
   -6.3292   15.2982   -4.1572 H   0  0  0  0  0  0  0  0  0  0  0  0
  -10.6120   15.8484   -4.3911 H   0  0  0  0  0  0  0  0  0  0  0  0
  -10.4031   16.3632   -6.7925 H   0  0  0  0  0  0  0  0  0  0  0  0
   -7.4287   18.1334   -2.6456 H   0  0  0  0  0  0  0  0  0  0  0  0
   -6.4102   16.7543   -2.2555 H   0  0  0  0  0  0  0  0  0  0  0  0
   -7.5604   18.5617   -0.0779 H   0  0  0  0  0  0  0  0  0  0  0  0
   -5.7370   17.5773    1.2784 H   0  0  0  0  0  0  0  0  0  0  0  0
   -5.2268   16.5768   -0.0885 H   0  0  0  0  0  0  0  0  0  0  0  0
   -6.8021   16.2973    0.6781 H   0  0  0  0  0  0  0  0  0  0  0  0
   -6.1597   19.9061   -1.6046 H   0  0  0  0  0  0  0  0  0  0  0  0
   -4.8187   18.7629   -1.3805 H   0  0  0  0  0  0  0  0  0  0  0  0
   -5.4289   19.7062   -0.0071 H   0  0  0  0  0  0  0  0  0  0  0  0
  -10.4908   16.9821   -2.1802 H   0  0  0  0  0  0  0  0  0  0  0  0
   -9.5403   18.4016   -1.9351 H   0  0  0  0  0  0  0  0  0  0  0  0
   -9.3554   17.8228    0.5374 H   0  0  0  0  0  0  0  0  0  0  0  0
  -11.9561   18.1368   -0.5421 H   0  0  0  0  0  0  0  0  0  0  0  0
   -9.7700   15.3468    0.2748 H   0  0  0  0  0  0  0  0  0  0  0  0
  -11.3739   16.8015    2.3318 H   0  0  0  0  0  0  0  0  0  0  0  0
   -8.7630   14.4545    4.7205 H   0  0  0  0  0  0  0  0  0  0  0  0
   -8.8901   16.9298    5.7851 H   0  0  0  0  0  0  0  0  0  0  0  0
   -8.5479   15.5535    6.8711 H   0  0  0  0  0  0  0  0  0  0  0  0
  -11.3872   14.5953    7.7892 H   0  0  0  0  0  0  0  0  0  0  0  0
  -13.0617   15.0659    4.3140 H   0  0  0  0  0  0  0  0  0  0  0  0
  -13.8169   13.8937    5.4009 H   0  0  0  0  0  0  0  0  0  0  0  0
  -11.4738   13.3662    3.9428 H   0  0  0  0  0  0  0  0  0  0  0  0
  -11.9904   12.5009    5.3781 H   0  0  0  0  0  0  0  0  0  0  0  0
  -10.0503   13.3222    6.3623 H   0  0  0  0  0  0  0  0  0  0  0  0
  -11.8259   15.4273   -1.2165 H   0  0  0  0  0  0  0  0  0  0  0  0
  -12.6907   16.2677    0.0293 H   0  0  0  0  0  0  0  0  0  0  0  0
  -14.0309   15.0616    1.4632 H   0  0  0  0  0  0  0  0  0  0  0  0
  -14.7179   12.9312    2.4880 H   0  0  0  0  0  0  0  0  0  0  0  0
  -13.3917   10.8674    2.0979 H   0  0  0  0  0  0  0  0  0  0  0  0
  -11.3742   10.9512    0.6482 H   0  0  0  0  0  0  0  0  0  0  0  0
  -10.6805   13.0680   -0.3856 H   0  0  0  0  0  0  0  0  0  0  0  0
  1  2  1  0  0  0  0
  1 39  1  0  0  0  0
  1 40  1  0  0  0  0
  2  3  2  0  0  0  0
  2  7  1  0  0  0  0
  3  4  1  0  0  0  0
  3 41  1  0  0  0  0
  4  5  2  0  0  0  0
  4 42  1  0  0  0  0
  5  6  1  0  0  0  0
  5  8  1  0  0  0  0
  6  7  2  0  0  0  0
  6 43  1  0  0  0  0
  7 44  1  0  0  0  0
  8  9  2  0  0  0  0
  8 10  2  0  0  0  0
  8 11  1  0  0  0  0
 11 12  1  0  0  0  0
 11 16  1  0  0  0  0
 12 13  1  0  0  0  0
 12 45  1  0  0  0  0
 12 46  1  0  0  0  0
 13 14  1  0  0  0  0
 13 15  1  0  0  0  0
 13 47  1  0  0  0  0
 14 48  1  0  0  0  0
 14 49  1  0  0  0  0
 14 50  1  0  0  0  0
 15 51  1  0  0  0  0
 15 52  1  0  0  0  0
 15 53  1  0  0  0  0
 16 17  1  0  0  0  0
 16 54  1  0  0  0  0
 16 55  1  0  0  0  0
 17 18  1  0  0  0  0
 17 19  1  0  0  0  0
 17 56  1  1  0  0  0
 18 57  1  0  0  0  0
 19 20  1  0  0  0  0
 19 32  1  0  0  0  0
 19 58  1  6  0  0  0
 20 21  1  0  0  0  0
 20 59  1  0  0  0  0
 21 22  2  0  0  0  0
 21 23  1  0  0  0  0
 23 24  1  0  0  0  0
 24 25  1  0  0  0  0
 24 31  1  0  0  0  0
 24 60  1  6  0  0  0
 25 26  1  0  0  0  0
 25 61  1  0  0  0  0
 25 62  1  0  0  0  0
 26 27  1  0  0  0  0
 27 28  1  0  0  0  0
 27 31  1  0  0  0  0
 27 63  1  1  0  0  0
 28 29  1  0  0  0  0
 29 30  1  0  0  0  0
 29 64  1  0  0  0  0
 29 65  1  0  0  0  0
 30 31  1  0  0  0  0
 30 66  1  0  0  0  0
 30 67  1  0  0  0  0
 31 68  1  1  0  0  0
 32 38  1  0  0  0  0
 32 69  1  0  0  0  0
 32 70  1  0  0  0  0
 33 34  2  0  0  0  0
 33 38  1  0  0  0  0
 33 71  1  0  0  0  0
 34 35  1  0  0  0  0
 34 72  1  0  0  0  0
 35 36  2  0  0  0  0
 35 73  1  0  0  0  0
 36 37  1  0  0  0  0
 36 74  1  0  0  0  0
 37 38  2  0  0  0  0
 37 75  1  0  0  0  0
M  END
$$$$
