017
 OpenBabel04091915483D

 75 78  0  0  1  0  0  0  0  0999 V2000
  -10.1531   15.7390   35.0792 N   0  0  0  0  0  0  0  0  0  0  0  0
   -9.8771   15.5328   33.7449 C   0  0  0  0  0  0  0  0  0  0  0  0
   -9.2876   16.5648   33.0191 C   0  0  0  0  0  0  0  0  0  0  0  0
   -9.0116   16.3913   31.6786 C   0  0  0  0  0  0  0  0  0  0  0  0
   -9.3541   15.1809   31.0841 C   0  0  0  0  0  0  0  0  0  0  0  0
   -9.9443   14.1378   31.7908 C   0  0  0  0  0  0  0  0  0  0  0  0
  -10.2079   14.3223   33.1320 C   0  0  0  0  0  0  0  0  0  0  0  0
   -8.8921   14.9256   29.4123 S   0  0  0  0  0  0  0  0  0  0  0  0
   -7.7354   15.7425   29.1821 O   0  0  0  0  0  0  0  0  0  0  0  0
   -8.8490   13.4953   29.1805 O   0  0  0  0  0  0  0  0  0  0  0  0
  -10.2170   15.5615   28.5624 N   0  0  0  0  0  0  0  0  0  0  0  0
  -11.5492   14.9723   28.8339 C   0  0  0  0  0  0  0  0  0  0  0  0
  -12.3792   14.7504   27.5624 C   0  0  0  0  0  0  0  0  0  0  0  0
  -11.5829   14.1336   26.4170 C   0  0  0  0  0  0  0  0  0  0  0  0
  -13.5556   13.8302   27.8919 C   0  0  0  0  0  0  0  0  0  0  0  0
  -10.2368   17.0292   28.4198 C   0  0  0  0  0  0  0  0  0  0  0  0
   -9.9744   17.4142   26.9668 C   0  0  1  0  0  0  0  0  0  0  0  0
  -10.3046   18.7982   26.7734 O   0  0  0  0  0  0  0  0  0  0  0  0
   -8.5351   17.1622   26.4875 C   0  0  1  0  0  0  0  0  0  0  0  0
   -8.5236   17.3818   25.0374 N   0  0  0  0  0  0  0  0  0  0  0  0
   -8.3912   16.4089   24.1205 C   0  0  0  0  0  0  0  0  0  0  0  0
   -8.2999   15.2018   24.3638 O   0  0  0  0  0  0  0  0  0  0  0  0
   -8.3604   16.9550   22.8885 O   0  0  0  0  0  0  0  0  0  0  0  0
   -7.9623   16.0925   21.8004 C   0  0  1  0  0  0  0  0  0  0  0  0
   -8.9537   16.3200   20.6780 C   0  0  0  0  0  0  0  0  0  0  0  0
   -8.4465   17.4115   19.8924 O   0  0  0  0  0  0  0  0  0  0  0  0
   -7.1058   17.6991   20.3066 C   0  0  1  0  0  0  0  0  0  0  0  0
   -7.0092   18.9222   21.0450 O   0  0  0  0  0  0  0  0  0  0  0  0
   -6.1345   18.7273   22.1642 C   0  0  0  0  0  0  0  0  0  0  0  0
   -5.7282   17.2664   22.2007 C   0  0  0  0  0  0  0  0  0  0  0  0
   -6.6506   16.5882   21.2197 C   0  0  1  0  0  0  0  0  0  0  0  0
   -7.5131   18.1218   27.1200 C   0  0  0  0  0  0  0  0  0  0  0  0
   -5.4852   18.6915   25.7301 C   0  0  0  0  0  0  0  0  0  0  0  0
   -4.2200   18.3846   25.2335 C   0  0  0  0  0  0  0  0  0  0  0  0
   -3.5929   17.1995   25.6107 C   0  0  0  0  0  0  0  0  0  0  0  0
   -4.2238   16.3226   26.4891 C   0  0  0  0  0  0  0  0  0  0  0  0
   -5.4810   16.6333   26.9904 C   0  0  0  0  0  0  0  0  0  0  0  0
   -6.1207   17.8211   26.6198 C   0  0  0  0  0  0  0  0  0  0  0  0
   -9.8837   16.6150   35.5114 H   0  0  0  0  0  0  0  0  0  0  0  0
  -10.5518   15.0105   35.6358 H   0  0  0  0  0  0  0  0  0  0  0  0
   -9.0287   17.5009   33.5162 H   0  0  0  0  0  0  0  0  0  0  0  0
   -8.5134   17.1811   31.1148 H   0  0  0  0  0  0  0  0  0  0  0  0
  -10.1828   13.1888   31.3002 H   0  0  0  0  0  0  0  0  0  0  0  0
  -10.6558   13.5078   33.6992 H   0  0  0  0  0  0  0  0  0  0  0  0
  -12.1028   15.6472   29.5001 H   0  0  0  0  0  0  0  0  0  0  0  0
  -11.4458   14.0240   29.3668 H   0  0  0  0  0  0  0  0  0  0  0  0
  -12.7822   15.7142   27.2247 H   0  0  0  0  0  0  0  0  0  0  0  0
  -12.2266   13.9778   25.5450 H   0  0  0  0  0  0  0  0  0  0  0  0
  -11.1489   13.1732   26.7084 H   0  0  0  0  0  0  0  0  0  0  0  0
  -10.7677   14.7840   26.1011 H   0  0  0  0  0  0  0  0  0  0  0  0
  -14.1483   14.2345   28.7178 H   0  0  0  0  0  0  0  0  0  0  0  0
  -13.1998   12.8340   28.1825 H   0  0  0  0  0  0  0  0  0  0  0  0
  -14.2103   13.7129   27.0226 H   0  0  0  0  0  0  0  0  0  0  0  0
   -9.5190   17.5061   29.0838 H   0  0  0  0  0  0  0  0  0  0  0  0
  -11.2094   17.4240   28.7325 H   0  0  0  0  0  0  0  0  0  0  0  0
  -10.6460   16.8453   26.3184 H   0  0  0  0  0  0  0  0  0  0  0  0
  -11.2586   18.8912   26.9339 H   0  0  0  0  0  0  0  0  0  0  0  0
   -8.2534   16.1198   26.6950 H   0  0  0  0  0  0  0  0  0  0  0  0
   -8.5950   18.3356   24.7245 H   0  0  0  0  0  0  0  0  0  0  0  0
   -7.9174   15.0395   22.0919 H   0  0  0  0  0  0  0  0  0  0  0  0
   -9.9474   16.5806   21.0566 H   0  0  0  0  0  0  0  0  0  0  0  0
   -9.0532   15.4405   20.0288 H   0  0  0  0  0  0  0  0  0  0  0  0
   -6.4733   17.7926   19.4174 H   0  0  0  0  0  0  0  0  0  0  0  0
   -6.6585   19.0286   23.0769 H   0  0  0  0  0  0  0  0  0  0  0  0
   -5.2638   19.3852   22.0656 H   0  0  0  0  0  0  0  0  0  0  0  0
   -5.8060   16.8422   23.2056 H   0  0  0  0  0  0  0  0  0  0  0  0
   -4.6834   17.1641   21.8914 H   0  0  0  0  0  0  0  0  0  0  0  0
   -6.1535   15.7889   20.6603 H   0  0  0  0  0  0  0  0  0  0  0  0
   -7.5134   18.0754   28.2136 H   0  0  0  0  0  0  0  0  0  0  0  0
   -7.7744   19.1557   26.8582 H   0  0  0  0  0  0  0  0  0  0  0  0
   -5.9839   19.6021   25.4068 H   0  0  0  0  0  0  0  0  0  0  0  0
   -3.7284   19.0653   24.5457 H   0  0  0  0  0  0  0  0  0  0  0  0
   -2.6067   16.9584   25.2244 H   0  0  0  0  0  0  0  0  0  0  0  0
   -3.7431   15.3937   26.7833 H   0  0  0  0  0  0  0  0  0  0  0  0
   -5.9636   15.9340   27.6661 H   0  0  0  0  0  0  0  0  0  0  0  0
  1  2  1  0  0  0  0
  1 39  1  0  0  0  0
  1 40  1  0  0  0  0
  2  3  2  0  0  0  0
  2  7  1  0  0  0  0
  3  4  1  0  0  0  0
  3 41  1  0  0  0  0
  4  5  2  0  0  0  0
  4 42  1  0  0  0  0
  5  6  1  0  0  0  0
  5  8  1  0  0  0  0
  6  7  2  0  0  0  0
  6 43  1  0  0  0  0
  7 44  1  0  0  0  0
  8  9  2  0  0  0  0
  8 10  2  0  0  0  0
  8 11  1  0  0  0  0
 11 12  1  0  0  0  0
 11 16  1  0  0  0  0
 12 13  1  0  0  0  0
 12 45  1  0  0  0  0
 12 46  1  0  0  0  0
 13 14  1  0  0  0  0
 13 15  1  0  0  0  0
 13 47  1  0  0  0  0
 14 48  1  0  0  0  0
 14 49  1  0  0  0  0
 14 50  1  0  0  0  0
 15 51  1  0  0  0  0
 15 52  1  0  0  0  0
 15 53  1  0  0  0  0
 16 17  1  0  0  0  0
 16 54  1  0  0  0  0
 16 55  1  0  0  0  0
 17 18  1  0  0  0  0
 17 19  1  0  0  0  0
 17 56  1  6  0  0  0
 18 57  1  0  0  0  0
 19 20  1  0  0  0  0
 19 32  1  0  0  0  0
 19 58  1  1  0  0  0
 20 21  1  0  0  0  0
 20 59  1  0  0  0  0
 21 22  2  0  0  0  0
 21 23  1  0  0  0  0
 23 24  1  0  0  0  0
 24 25  1  0  0  0  0
 24 31  1  0  0  0  0
 24 60  1  1  0  0  0
 25 26  1  0  0  0  0
 25 61  1  0  0  0  0
 25 62  1  0  0  0  0
 26 27  1  0  0  0  0
 27 28  1  0  0  0  0
 27 31  1  0  0  0  0
 27 63  1  6  0  0  0
 28 29  1  0  0  0  0
 29 30  1  0  0  0  0
 29 64  1  0  0  0  0
 29 65  1  0  0  0  0
 30 31  1  0  0  0  0
 30 66  1  0  0  0  0
 30 67  1  0  0  0  0
 31 68  1  6  0  0  0
 32 38  1  0  0  0  0
 32 69  1  0  0  0  0
 32 70  1  0  0  0  0
 33 34  2  0  0  0  0
 33 38  1  0  0  0  0
 33 71  1  0  0  0  0
 34 35  1  0  0  0  0
 34 72  1  0  0  0  0
 35 36  2  0  0  0  0
 35 73  1  0  0  0  0
 36 37  1  0  0  0  0
 36 74  1  0  0  0  0
 37 38  2  0  0  0  0
 37 75  1  0  0  0  0
M  END
$$$$
