017
 OpenBabel04091915393D

 75 78  0  0  1  0  0  0  0  0999 V2000
    3.2857   -4.2653  -14.9647 N   0  0  0  0  0  0  0  0  0  0  0  0
    2.6191   -4.2256  -16.1695 C   0  0  0  0  0  0  0  0  0  0  0  0
    2.3050   -3.0015  -16.7645 C   0  0  0  0  0  0  0  0  0  0  0  0
    1.5974   -2.9584  -17.9602 C   0  0  0  0  0  0  0  0  0  0  0  0
    1.1958   -4.1554  -18.5586 C   0  0  0  0  0  0  0  0  0  0  0  0
    1.5161   -5.3867  -17.9859 C   0  0  0  0  0  0  0  0  0  0  0  0
    2.2072   -5.4143  -16.7838 C   0  0  0  0  0  0  0  0  0  0  0  0
    0.3518   -4.1005  -20.1099 S   0  0  0  0  0  0  0  0  0  0  0  0
    0.5670   -2.7867  -20.6679 O   0  0  0  0  0  0  0  0  0  0  0  0
    0.6950   -5.2982  -20.8435 O   0  0  0  0  0  0  0  0  0  0  0  0
   -1.2849   -4.2041  -19.6334 N   0  0  0  0  0  0  0  0  0  0  0  0
   -1.6879   -5.4632  -18.9663 C   0  0  0  0  0  0  0  0  0  0  0  0
   -3.1311   -5.8672  -19.2827 C   0  0  0  0  0  0  0  0  0  0  0  0
   -3.3302   -6.1788  -20.7654 C   0  0  0  0  0  0  0  0  0  0  0  0
   -3.4668   -7.1033  -18.4518 C   0  0  0  0  0  0  0  0  0  0  0  0
   -1.8993   -2.9841  -19.0554 C   0  0  0  0  0  0  0  0  0  0  0  0
   -2.9783   -2.4486  -20.0094 C   0  0  1  0  0  0  0  0  0  0  0  0
   -3.8113   -1.4924  -19.3310 O   0  0  0  0  0  0  0  0  0  0  0  0
   -2.4519   -1.8945  -21.3567 C   0  0  1  0  0  0  0  0  0  0  0  0
   -3.5967   -1.7468  -22.2530 N   0  0  0  0  0  0  0  0  0  0  0  0
   -3.8420   -2.5766  -23.2965 C   0  0  0  0  0  0  0  0  0  0  0  0
   -3.1442   -3.5276  -23.6249 O   0  0  0  0  0  0  0  0  0  0  0  0
   -4.9344   -2.1450  -23.9525 O   0  0  0  0  0  0  0  0  0  0  0  0
   -5.1985   -2.7174  -25.2521 C   0  0  1  0  0  0  0  0  0  0  0  0
   -6.6909   -2.9580  -25.3306 C   0  0  0  0  0  0  0  0  0  0  0  0
   -7.2537   -1.6532  -25.5415 O   0  0  0  0  0  0  0  0  0  0  0  0
   -6.3188   -0.9205  -26.3455 C   0  0  1  0  0  0  0  0  0  0  0  0
   -6.1085    0.4032  -25.8617 O   0  0  0  0  0  0  0  0  0  0  0  0
   -4.7453    0.5533  -25.4644 C   0  0  0  0  0  0  0  0  0  0  0  0
   -3.9566   -0.6091  -26.0250 C   0  0  0  0  0  0  0  0  0  0  0  0
   -4.9925   -1.6622  -26.3282 C   0  0  1  0  0  0  0  0  0  0  0  0
   -1.7067   -0.5461  -21.2909 C   0  0  0  0  0  0  0  0  0  0  0  0
   -1.7187    1.0282  -23.2825 C   0  0  0  0  0  0  0  0  0  0  0  0
   -1.3091    1.3864  -24.5704 C   0  0  0  0  0  0  0  0  0  0  0  0
   -0.3943    0.5952  -25.2622 C   0  0  0  0  0  0  0  0  0  0  0  0
    0.1200   -0.5500  -24.6619 C   0  0  0  0  0  0  0  0  0  0  0  0
   -0.2802   -0.9025  -23.3711 C   0  0  0  0  0  0  0  0  0  0  0  0
   -1.2091   -0.1216  -22.6654 C   0  0  0  0  0  0  0  0  0  0  0  0
    3.6390   -3.4131  -14.5524 H   0  0  0  0  0  0  0  0  0  0  0  0
    3.5507   -5.1488  -14.5527 H   0  0  0  0  0  0  0  0  0  0  0  0
    2.6297   -2.0701  -16.3072 H   0  0  0  0  0  0  0  0  0  0  0  0
    1.3784   -1.9986  -18.4199 H   0  0  0  0  0  0  0  0  0  0  0  0
    1.2270   -6.3194  -18.4716 H   0  0  0  0  0  0  0  0  0  0  0  0
    2.4420   -6.3746  -16.3319 H   0  0  0  0  0  0  0  0  0  0  0  0
   -1.5676   -5.3389  -17.8831 H   0  0  0  0  0  0  0  0  0  0  0  0
   -1.0310   -6.2810  -19.2757 H   0  0  0  0  0  0  0  0  0  0  0  0
   -3.8235   -5.0692  -18.9923 H   0  0  0  0  0  0  0  0  0  0  0  0
   -4.3676   -6.4726  -20.9587 H   0  0  0  0  0  0  0  0  0  0  0  0
   -2.6813   -7.0009  -21.0848 H   0  0  0  0  0  0  0  0  0  0  0  0
   -3.1082   -5.3108  -21.3918 H   0  0  0  0  0  0  0  0  0  0  0  0
   -3.3320   -6.8959  -17.3851 H   0  0  0  0  0  0  0  0  0  0  0  0
   -2.8100   -7.9381  -18.7202 H   0  0  0  0  0  0  0  0  0  0  0  0
   -4.5027   -7.4130  -18.6128 H   0  0  0  0  0  0  0  0  0  0  0  0
   -1.1630   -2.2073  -18.8311 H   0  0  0  0  0  0  0  0  0  0  0  0
   -2.3558   -3.2149  -18.0830 H   0  0  0  0  0  0  0  0  0  0  0  0
   -3.6432   -3.2824  -20.2574 H   0  0  0  0  0  0  0  0  0  0  0  0
   -3.2597   -0.7824  -18.9936 H   0  0  0  0  0  0  0  0  0  0  0  0
   -1.7834   -2.6482  -21.7882 H   0  0  0  0  0  0  0  0  0  0  0  0
   -4.2526   -0.9900  -22.1029 H   0  0  0  0  0  0  0  0  0  0  0  0
   -4.6246   -3.6326  -25.4453 H   0  0  0  0  0  0  0  0  0  0  0  0
   -7.0967   -3.3897  -24.4109 H   0  0  0  0  0  0  0  0  0  0  0  0
   -6.9755   -3.5865  -26.1825 H   0  0  0  0  0  0  0  0  0  0  0  0
   -6.7373   -0.8528  -27.3543 H   0  0  0  0  0  0  0  0  0  0  0  0
   -4.7028    0.5834  -24.3710 H   0  0  0  0  0  0  0  0  0  0  0  0
   -4.3674    1.5108  -25.8378 H   0  0  0  0  0  0  0  0  0  0  0  0
   -3.1818   -0.9499  -25.3343 H   0  0  0  0  0  0  0  0  0  0  0  0
   -3.4392   -0.3015  -26.9398 H   0  0  0  0  0  0  0  0  0  0  0  0
   -4.8095   -2.1363  -27.3003 H   0  0  0  0  0  0  0  0  0  0  0  0
   -0.8567   -0.5798  -20.6001 H   0  0  0  0  0  0  0  0  0  0  0  0
   -2.3845    0.2252  -20.9014 H   0  0  0  0  0  0  0  0  0  0  0  0
   -2.4568    1.6433  -22.7744 H   0  0  0  0  0  0  0  0  0  0  0  0
   -1.7148    2.2783  -25.0402 H   0  0  0  0  0  0  0  0  0  0  0  0
   -0.0838    0.8678  -26.2672 H   0  0  0  0  0  0  0  0  0  0  0  0
    0.8307   -1.1755  -25.1965 H   0  0  0  0  0  0  0  0  0  0  0  0
    0.1265   -1.8114  -22.9333 H   0  0  0  0  0  0  0  0  0  0  0  0
  1  2  1  0  0  0  0
  1 39  1  0  0  0  0
  1 40  1  0  0  0  0
  2  3  2  0  0  0  0
  2  7  1  0  0  0  0
  3  4  1  0  0  0  0
  3 41  1  0  0  0  0
  4  5  2  0  0  0  0
  4 42  1  0  0  0  0
  5  6  1  0  0  0  0
  5  8  1  0  0  0  0
  6  7  2  0  0  0  0
  6 43  1  0  0  0  0
  7 44  1  0  0  0  0
  8  9  2  0  0  0  0
  8 10  2  0  0  0  0
  8 11  1  0  0  0  0
 11 12  1  0  0  0  0
 11 16  1  0  0  0  0
 12 13  1  0  0  0  0
 12 45  1  0  0  0  0
 12 46  1  0  0  0  0
 13 14  1  0  0  0  0
 13 15  1  0  0  0  0
 13 47  1  0  0  0  0
 14 48  1  0  0  0  0
 14 49  1  0  0  0  0
 14 50  1  0  0  0  0
 15 51  1  0  0  0  0
 15 52  1  0  0  0  0
 15 53  1  0  0  0  0
 16 17  1  0  0  0  0
 16 54  1  0  0  0  0
 16 55  1  0  0  0  0
 17 18  1  0  0  0  0
 17 19  1  0  0  0  0
 17 56  1  6  0  0  0
 18 57  1  0  0  0  0
 19 20  1  0  0  0  0
 19 32  1  0  0  0  0
 19 58  1  6  0  0  0
 20 21  1  0  0  0  0
 20 59  1  0  0  0  0
 21 22  2  0  0  0  0
 21 23  1  0  0  0  0
 23 24  1  0  0  0  0
 24 25  1  0  0  0  0
 24 31  1  0  0  0  0
 24 60  1  6  0  0  0
 25 26  1  0  0  0  0
 25 61  1  0  0  0  0
 25 62  1  0  0  0  0
 26 27  1  0  0  0  0
 27 28  1  0  0  0  0
 27 31  1  0  0  0  0
 27 63  1  6  0  0  0
 28 29  1  0  0  0  0
 29 30  1  0  0  0  0
 29 64  1  0  0  0  0
 29 65  1  0  0  0  0
 30 31  1  0  0  0  0
 30 66  1  0  0  0  0
 30 67  1  0  0  0  0
 31 68  1  6  0  0  0
 32 38  1  0  0  0  0
 32 69  1  0  0  0  0
 32 70  1  0  0  0  0
 33 34  2  0  0  0  0
 33 38  1  0  0  0  0
 33 71  1  0  0  0  0
 34 35  1  0  0  0  0
 34 72  1  0  0  0  0
 35 36  2  0  0  0  0
 35 73  1  0  0  0  0
 36 37  1  0  0  0  0
 36 74  1  0  0  0  0
 37 38  2  0  0  0  0
 37 75  1  0  0  0  0
M  END
$$$$
