017
 OpenBabel04091913413D

 75 78  0  0  1  0  0  0  0  0999 V2000
    8.9522  -16.3915   -7.9836 N   0  0  0  0  0  0  0  0  0  0  0  0
    8.8132  -16.0013   -6.6659 C   0  0  0  0  0  0  0  0  0  0  0  0
    7.5382  -15.8230   -6.1116 C   0  0  0  0  0  0  0  0  0  0  0  0
    7.4047  -15.5048   -4.7722 C   0  0  0  0  0  0  0  0  0  0  0  0
    8.5626  -15.3967   -3.9936 C   0  0  0  0  0  0  0  0  0  0  0  0
    9.8354  -15.5879   -4.5349 C   0  0  0  0  0  0  0  0  0  0  0  0
    9.9506  -15.8921   -5.8692 C   0  0  0  0  0  0  0  0  0  0  0  0
    8.4501  -14.8853   -2.3110 S   0  0  0  0  0  0  0  0  0  0  0  0
    9.7109  -14.2836   -1.9863 O   0  0  0  0  0  0  0  0  0  0  0  0
    7.2138  -14.1695   -2.1434 O   0  0  0  0  0  0  0  0  0  0  0  0
    8.3308  -16.3764   -1.5044 N   0  0  0  0  0  0  0  0  0  0  0  0
    7.1461  -17.2049   -1.8383 C   0  0  0  0  0  0  0  0  0  0  0  0
    6.6328  -17.9687   -0.6171 C   0  0  0  0  0  0  0  0  0  0  0  0
    6.2661  -17.0207    0.5226 C   0  0  0  0  0  0  0  0  0  0  0  0
    5.4117  -18.7935   -1.0145 C   0  0  0  0  0  0  0  0  0  0  0  0
    9.5678  -17.1535   -1.3279 C   0  0  0  0  0  0  0  0  0  0  0  0
    9.9989  -17.1573    0.1398 C   0  0  1  0  0  0  0  0  0  0  0  0
   11.0405  -18.1308    0.3317 O   0  0  0  0  0  0  0  0  0  0  0  0
   10.4514  -15.7860    0.6642 C   0  0  1  0  0  0  0  0  0  0  0  0
   10.5669  -15.8877    2.1033 N   0  0  0  0  0  0  0  0  0  0  0  0
    9.7051  -15.2703    2.9486 C   0  0  0  0  0  0  0  0  0  0  0  0
    8.7761  -14.5657    2.6285 O   0  0  0  0  0  0  0  0  0  0  0  0
   10.0973  -15.5326    4.2144 O   0  0  0  0  0  0  0  0  0  0  0  0
    9.4976  -14.7099    5.2262 C   0  0  1  0  0  0  0  0  0  0  0  0
    9.1183  -15.6019    6.3852 C   0  0  0  0  0  0  0  0  0  0  0  0
   10.2923  -15.7118    7.1950 O   0  0  0  0  0  0  0  0  0  0  0  0
   11.0525  -14.5116    7.0301 C   0  0  1  0  0  0  0  0  0  0  0  0
   12.4365  -14.7987    6.8275 O   0  0  0  0  0  0  0  0  0  0  0  0
   12.7507  -14.5624    5.4553 C   0  0  0  0  0  0  0  0  0  0  0  0
   11.7638  -13.5283    4.9637 C   0  0  0  0  0  0  0  0  0  0  0  0
   10.5332  -13.7671    5.8113 C   0  0  1  0  0  0  0  0  0  0  0  0
   11.7968  -15.3250    0.0715 C   0  0  0  0  0  0  0  0  0  0  0  0
   13.3134  -13.9969    1.5788 C   0  0  0  0  0  0  0  0  0  0  0  0
   13.7045  -12.7946    2.1601 C   0  0  0  0  0  0  0  0  0  0  0  0
   13.0342  -11.6155    1.8383 C   0  0  0  0  0  0  0  0  0  0  0  0
   11.9695  -11.6361    0.9396 C   0  0  0  0  0  0  0  0  0  0  0  0
   11.5819  -12.8343    0.3552 C   0  0  0  0  0  0  0  0  0  0  0  0
   12.2536  -14.0210    0.6655 C   0  0  0  0  0  0  0  0  0  0  0  0
    8.1527  -16.3766   -8.6007 H   0  0  0  0  0  0  0  0  0  0  0  0
    9.8809  -16.4093   -8.3898 H   0  0  0  0  0  0  0  0  0  0  0  0
    6.6527  -15.9093   -6.7306 H   0  0  0  0  0  0  0  0  0  0  0  0
    6.4202  -15.3366   -4.3377 H   0  0  0  0  0  0  0  0  0  0  0  0
   10.7219  -15.4695   -3.9179 H   0  0  0  0  0  0  0  0  0  0  0  0
   10.9427  -16.0215   -6.2955 H   0  0  0  0  0  0  0  0  0  0  0  0
    7.4297  -17.9076   -2.6316 H   0  0  0  0  0  0  0  0  0  0  0  0
    6.3390  -16.5796   -2.2297 H   0  0  0  0  0  0  0  0  0  0  0  0
    7.4069  -18.6607   -0.2640 H   0  0  0  0  0  0  0  0  0  0  0  0
    5.8814  -17.5829    1.3784 H   0  0  0  0  0  0  0  0  0  0  0  0
    5.5028  -16.3023    0.2064 H   0  0  0  0  0  0  0  0  0  0  0  0
    7.1355  -16.4528    0.8653 H   0  0  0  0  0  0  0  0  0  0  0  0
    5.6540  -19.4745   -1.8369 H   0  0  0  0  0  0  0  0  0  0  0  0
    4.5891  -18.1466   -1.3383 H   0  0  0  0  0  0  0  0  0  0  0  0
    5.0628  -19.3917   -0.1678 H   0  0  0  0  0  0  0  0  0  0  0  0
   10.3789  -16.7774   -1.9547 H   0  0  0  0  0  0  0  0  0  0  0  0
    9.4256  -18.1895   -1.6588 H   0  0  0  0  0  0  0  0  0  0  0  0
    9.1630  -17.4977    0.7595 H   0  0  0  0  0  0  0  0  0  0  0  0
   11.7964  -17.8775   -0.2233 H   0  0  0  0  0  0  0  0  0  0  0  0
    9.6755  -15.0352    0.4371 H   0  0  0  0  0  0  0  0  0  0  0  0
   11.3186  -16.4279    2.5010 H   0  0  0  0  0  0  0  0  0  0  0  0
    8.6224  -14.1739    4.8476 H   0  0  0  0  0  0  0  0  0  0  0  0
    8.8049  -16.6000    6.0617 H   0  0  0  0  0  0  0  0  0  0  0  0
    8.3260  -15.1579    6.9948 H   0  0  0  0  0  0  0  0  0  0  0  0
   10.9520  -13.9165    7.9439 H   0  0  0  0  0  0  0  0  0  0  0  0
   12.6667  -15.5061    4.9052 H   0  0  0  0  0  0  0  0  0  0  0  0
   13.7848  -14.2154    5.3725 H   0  0  0  0  0  0  0  0  0  0  0  0
   11.5769  -13.6114    3.8929 H   0  0  0  0  0  0  0  0  0  0  0  0
   12.1614  -12.5232    5.1381 H   0  0  0  0  0  0  0  0  0  0  0  0
   10.0605  -12.8209    6.0999 H   0  0  0  0  0  0  0  0  0  0  0  0
   11.7519  -15.2223   -1.0175 H   0  0  0  0  0  0  0  0  0  0  0  0
   12.5687  -16.0777    0.2652 H   0  0  0  0  0  0  0  0  0  0  0  0
   13.8213  -14.9172    1.8574 H   0  0  0  0  0  0  0  0  0  0  0  0
   14.5209  -12.7798    2.8754 H   0  0  0  0  0  0  0  0  0  0  0  0
   13.3342  -10.6771    2.2937 H   0  0  0  0  0  0  0  0  0  0  0  0
   11.4380  -10.7231    0.6909 H   0  0  0  0  0  0  0  0  0  0  0  0
   10.7387  -12.8406   -0.3317 H   0  0  0  0  0  0  0  0  0  0  0  0
  1  2  1  0  0  0  0
  1 39  1  0  0  0  0
  1 40  1  0  0  0  0
  2  3  2  0  0  0  0
  2  7  1  0  0  0  0
  3  4  1  0  0  0  0
  3 41  1  0  0  0  0
  4  5  2  0  0  0  0
  4 42  1  0  0  0  0
  5  6  1  0  0  0  0
  5  8  1  0  0  0  0
  6  7  2  0  0  0  0
  6 43  1  0  0  0  0
  7 44  1  0  0  0  0
  8  9  2  0  0  0  0
  8 10  2  0  0  0  0
  8 11  1  0  0  0  0
 11 12  1  0  0  0  0
 11 16  1  0  0  0  0
 12 13  1  0  0  0  0
 12 45  1  0  0  0  0
 12 46  1  0  0  0  0
 13 14  1  0  0  0  0
 13 15  1  0  0  0  0
 13 47  1  0  0  0  0
 14 48  1  0  0  0  0
 14 49  1  0  0  0  0
 14 50  1  0  0  0  0
 15 51  1  0  0  0  0
 15 52  1  0  0  0  0
 15 53  1  0  0  0  0
 16 17  1  0  0  0  0
 16 54  1  0  0  0  0
 16 55  1  0  0  0  0
 17 18  1  0  0  0  0
 17 19  1  0  0  0  0
 17 56  1  1  0  0  0
 18 57  1  0  0  0  0
 19 20  1  0  0  0  0
 19 32  1  0  0  0  0
 19 58  1  6  0  0  0
 20 21  1  0  0  0  0
 20 59  1  0  0  0  0
 21 22  2  0  0  0  0
 21 23  1  0  0  0  0
 23 24  1  0  0  0  0
 24 25  1  0  0  0  0
 24 31  1  0  0  0  0
 24 60  1  6  0  0  0
 25 26  1  0  0  0  0
 25 61  1  0  0  0  0
 25 62  1  0  0  0  0
 26 27  1  0  0  0  0
 27 28  1  0  0  0  0
 27 31  1  0  0  0  0
 27 63  1  1  0  0  0
 28 29  1  0  0  0  0
 29 30  1  0  0  0  0
 29 64  1  0  0  0  0
 29 65  1  0  0  0  0
 30 31  1  0  0  0  0
 30 66  1  0  0  0  0
 30 67  1  0  0  0  0
 31 68  1  1  0  0  0
 32 38  1  0  0  0  0
 32 69  1  0  0  0  0
 32 70  1  0  0  0  0
 33 34  2  0  0  0  0
 33 38  1  0  0  0  0
 33 71  1  0  0  0  0
 34 35  1  0  0  0  0
 34 72  1  0  0  0  0
 35 36  2  0  0  0  0
 35 73  1  0  0  0  0
 36 37  1  0  0  0  0
 36 74  1  0  0  0  0
 37 38  2  0  0  0  0
 37 75  1  0  0  0  0
M  END
$$$$
