017
 OpenBabel04091914443D

 75 78  0  0  1  0  0  0  0  0999 V2000
    7.2081   14.4508   14.5801 N   0  0  0  0  0  0  0  0  0  0  0  0
    8.0156   15.5183   14.8835 C   0  0  0  0  0  0  0  0  0  0  0  0
    9.3834   15.5229   14.5782 C   0  0  0  0  0  0  0  0  0  0  0  0
   10.1889   16.6254   14.8954 C   0  0  0  0  0  0  0  0  0  0  0  0
    9.6317   17.6864   15.6077 C   0  0  0  0  0  0  0  0  0  0  0  0
    8.2663   17.6794   15.9146 C   0  0  0  0  0  0  0  0  0  0  0  0
    7.4659   16.6047   15.5502 C   0  0  0  0  0  0  0  0  0  0  0  0
   10.5741   19.1381   16.0580 S   0  0  0  0  0  0  0  0  0  0  0  0
   11.6173   19.2424   15.0705 O   0  0  0  0  0  0  0  0  0  0  0  0
    9.6471   20.2052   16.2690 O   0  0  0  0  0  0  0  0  0  0  0  0
   11.2786   18.7490   17.5496 N   0  0  0  0  0  0  0  0  0  0  0  0
   10.3732   18.3949   18.6579 C   0  0  0  0  0  0  0  0  0  0  0  0
   10.7039   19.0531   20.0061 C   0  0  0  0  0  0  0  0  0  0  0  0
   10.7199   20.5752   19.9214 C   0  0  0  0  0  0  0  0  0  0  0  0
    9.6242   18.6266   21.0082 C   0  0  0  0  0  0  0  0  0  0  0  0
   12.5401   18.0061   17.5007 C   0  0  0  0  0  0  0  0  0  0  0  0
   13.6524   18.8848   18.0730 C   0  0  1  0  0  0  0  0  0  0  0  0
   14.7887   18.0845   18.4305 O   0  0  0  0  0  0  0  0  0  0  0  0
   14.0553   20.0389   17.1351 C   0  0  1  0  0  0  0  0  0  0  0  0
   14.9337   20.9320   17.8866 N   0  0  0  0  0  0  0  0  0  0  0  0
   14.5868   22.1925   18.2410 C   0  0  0  0  0  0  0  0  0  0  0  0
   13.5300   22.7317   17.9636 O   0  0  0  0  0  0  0  0  0  0  0  0
   15.6140   22.7740   18.9024 O   0  0  0  0  0  0  0  0  0  0  0  0
   15.5075   24.1975   19.0990 C   0  0  1  0  0  0  0  0  0  0  0  0
   16.0615   24.5277   20.4703 C   0  0  0  0  0  0  0  0  0  0  0  0
   17.4855   24.4732   20.3078 O   0  0  0  0  0  0  0  0  0  0  0  0
   17.7667   24.9688   18.9941 C   0  0  1  0  0  0  0  0  0  0  0  0
   18.7269   24.1541   18.3173 O   0  0  0  0  0  0  0  0  0  0  0  0
   18.0317   23.4004   17.3215 C   0  0  0  0  0  0  0  0  0  0  0  0
   16.8658   24.2672   16.9001 C   0  0  0  0  0  0  0  0  0  0  0  0
   16.4719   24.9473   18.1888 C   0  0  1  0  0  0  0  0  0  0  0  0
   14.7901   19.5432   15.8793 C   0  0  0  0  0  0  0  0  0  0  0  0
   16.4984   21.0655   14.8284 C   0  0  0  0  0  0  0  0  0  0  0  0
   16.8380   22.1625   14.0375 C   0  0  0  0  0  0  0  0  0  0  0  0
   15.8458   22.8909   13.3876 C   0  0  0  0  0  0  0  0  0  0  0  0
   14.5176   22.4862   13.4862 C   0  0  0  0  0  0  0  0  0  0  0  0
   14.1768   21.3872   14.2714 C   0  0  0  0  0  0  0  0  0  0  0  0
   15.1626   20.6770   14.9608 C   0  0  0  0  0  0  0  0  0  0  0  0
    7.5574   13.6685   14.0478 H   0  0  0  0  0  0  0  0  0  0  0  0
    6.2286   14.4824   14.8352 H   0  0  0  0  0  0  0  0  0  0  0  0
    9.8249   14.6534   14.0931 H   0  0  0  0  0  0  0  0  0  0  0  0
   11.2255   16.6452   14.5796 H   0  0  0  0  0  0  0  0  0  0  0  0
    7.8205   18.5062   16.4470 H   0  0  0  0  0  0  0  0  0  0  0  0
    6.4077   16.6310   15.7964 H   0  0  0  0  0  0  0  0  0  0  0  0
   10.3967   17.3070   18.7854 H   0  0  0  0  0  0  0  0  0  0  0  0
    9.3512   18.6777   18.3950 H   0  0  0  0  0  0  0  0  0  0  0  0
   11.6770   18.7091   20.3777 H   0  0  0  0  0  0  0  0  0  0  0  0
   10.9406   21.0154   20.9009 H   0  0  0  0  0  0  0  0  0  0  0  0
    9.7464   20.9519   19.5922 H   0  0  0  0  0  0  0  0  0  0  0  0
   11.4797   20.9223   19.2179 H   0  0  0  0  0  0  0  0  0  0  0  0
    9.5891   17.5364   21.1003 H   0  0  0  0  0  0  0  0  0  0  0  0
    8.6362   18.9664   20.6739 H   0  0  0  0  0  0  0  0  0  0  0  0
    9.8072   19.0497   22.0006 H   0  0  0  0  0  0  0  0  0  0  0  0
   12.7793   17.7100   16.4772 H   0  0  0  0  0  0  0  0  0  0  0  0
   12.4623   17.0687   18.0545 H   0  0  0  0  0  0  0  0  0  0  0  0
   13.3008   19.3276   19.0090 H   0  0  0  0  0  0  0  0  0  0  0  0
   15.1199   17.6400   17.6329 H   0  0  0  0  0  0  0  0  0  0  0  0
   13.1500   20.5847   16.8341 H   0  0  0  0  0  0  0  0  0  0  0  0
   15.8395   20.5942   18.1731 H   0  0  0  0  0  0  0  0  0  0  0  0
   14.4772   24.5461   18.9930 H   0  0  0  0  0  0  0  0  0  0  0  0
   15.7497   23.8198   21.2429 H   0  0  0  0  0  0  0  0  0  0  0  0
   15.8068   25.5460   20.7886 H   0  0  0  0  0  0  0  0  0  0  0  0
   18.1676   25.9828   19.0888 H   0  0  0  0  0  0  0  0  0  0  0  0
   17.7017   22.4575   17.7685 H   0  0  0  0  0  0  0  0  0  0  0  0
   18.7062   23.1599   16.4964 H   0  0  0  0  0  0  0  0  0  0  0  0
   16.0522   23.7017   16.4460 H   0  0  0  0  0  0  0  0  0  0  0  0
   17.2042   25.0164   16.1737 H   0  0  0  0  0  0  0  0  0  0  0  0
   16.0970   25.9624   18.0078 H   0  0  0  0  0  0  0  0  0  0  0  0
   14.1814   18.8263   15.3217 H   0  0  0  0  0  0  0  0  0  0  0  0
   15.7007   19.0084   16.1755 H   0  0  0  0  0  0  0  0  0  0  0  0
   17.2783   20.5249   15.3569 H   0  0  0  0  0  0  0  0  0  0  0  0
   17.8793   22.4541   13.9398 H   0  0  0  0  0  0  0  0  0  0  0  0
   16.1038   23.7697   12.8028 H   0  0  0  0  0  0  0  0  0  0  0  0
   13.7395   23.0229   12.9525 H   0  0  0  0  0  0  0  0  0  0  0  0
   13.1314   21.1004   14.3558 H   0  0  0  0  0  0  0  0  0  0  0  0
  1  2  1  0  0  0  0
  1 39  1  0  0  0  0
  1 40  1  0  0  0  0
  2  3  2  0  0  0  0
  2  7  1  0  0  0  0
  3  4  1  0  0  0  0
  3 41  1  0  0  0  0
  4  5  2  0  0  0  0
  4 42  1  0  0  0  0
  5  6  1  0  0  0  0
  5  8  1  0  0  0  0
  6  7  2  0  0  0  0
  6 43  1  0  0  0  0
  7 44  1  0  0  0  0
  8  9  2  0  0  0  0
  8 10  2  0  0  0  0
  8 11  1  0  0  0  0
 11 12  1  0  0  0  0
 11 16  1  0  0  0  0
 12 13  1  0  0  0  0
 12 45  1  0  0  0  0
 12 46  1  0  0  0  0
 13 14  1  0  0  0  0
 13 15  1  0  0  0  0
 13 47  1  0  0  0  0
 14 48  1  0  0  0  0
 14 49  1  0  0  0  0
 14 50  1  0  0  0  0
 15 51  1  0  0  0  0
 15 52  1  0  0  0  0
 15 53  1  0  0  0  0
 16 17  1  0  0  0  0
 16 54  1  0  0  0  0
 16 55  1  0  0  0  0
 17 18  1  0  0  0  0
 17 19  1  0  0  0  0
 17 56  1  1  0  0  0
 18 57  1  0  0  0  0
 19 20  1  0  0  0  0
 19 32  1  0  0  0  0
 19 58  1  6  0  0  0
 20 21  1  0  0  0  0
 20 59  1  0  0  0  0
 21 22  2  0  0  0  0
 21 23  1  0  0  0  0
 23 24  1  0  0  0  0
 24 25  1  0  0  0  0
 24 31  1  0  0  0  0
 24 60  1  6  0  0  0
 25 26  1  0  0  0  0
 25 61  1  0  0  0  0
 25 62  1  0  0  0  0
 26 27  1  0  0  0  0
 27 28  1  0  0  0  0
 27 31  1  0  0  0  0
 27 63  1  1  0  0  0
 28 29  1  0  0  0  0
 29 30  1  0  0  0  0
 29 64  1  0  0  0  0
 29 65  1  0  0  0  0
 30 31  1  0  0  0  0
 30 66  1  0  0  0  0
 30 67  1  0  0  0  0
 31 68  1  6  0  0  0
 32 38  1  0  0  0  0
 32 69  1  0  0  0  0
 32 70  1  0  0  0  0
 33 34  2  0  0  0  0
 33 38  1  0  0  0  0
 33 71  1  0  0  0  0
 34 35  1  0  0  0  0
 34 72  1  0  0  0  0
 35 36  2  0  0  0  0
 35 73  1  0  0  0  0
 36 37  1  0  0  0  0
 36 74  1  0  0  0  0
 37 38  2  0  0  0  0
 37 75  1  0  0  0  0
M  END
$$$$
