017
 OpenBabel04091915463D

 75 78  0  0  1  0  0  0  0  0999 V2000
  -16.9300   26.2399  -21.1255 N   0  0  0  0  0  0  0  0  0  0  0  0
  -15.9959   25.4829  -20.4486 C   0  0  0  0  0  0  0  0  0  0  0  0
  -15.5525   24.3045  -21.0484 C   0  0  0  0  0  0  0  0  0  0  0  0
  -14.6149   23.4907  -20.4223 C   0  0  0  0  0  0  0  0  0  0  0  0
  -14.1287   23.8629  -19.1648 C   0  0  0  0  0  0  0  0  0  0  0  0
  -14.5754   25.0417  -18.5488 C   0  0  0  0  0  0  0  0  0  0  0  0
  -15.4955   25.8342  -19.1845 C   0  0  0  0  0  0  0  0  0  0  0  0
  -12.8629   22.9275  -18.3625 S   0  0  0  0  0  0  0  0  0  0  0  0
  -11.9684   22.4572  -19.3910 O   0  0  0  0  0  0  0  0  0  0  0  0
  -12.3684   23.6970  -17.2472 O   0  0  0  0  0  0  0  0  0  0  0  0
  -13.7071   21.5851  -17.7482 N   0  0  0  0  0  0  0  0  0  0  0  0
  -14.8039   21.8363  -16.7845 C   0  0  0  0  0  0  0  0  0  0  0  0
  -14.7589   20.8129  -15.6441 C   0  0  0  0  0  0  0  0  0  0  0  0
  -13.4158   20.8609  -14.9175 C   0  0  0  0  0  0  0  0  0  0  0  0
  -15.9067   21.0520  -14.6672 C   0  0  0  0  0  0  0  0  0  0  0  0
  -13.9589   20.4968  -18.6997 C   0  0  0  0  0  0  0  0  0  0  0  0
  -13.1683   19.2424  -18.3266 C   0  0  1  0  0  0  0  0  0  0  0  0
  -13.6816   18.1298  -19.0788 O   0  0  0  0  0  0  0  0  0  0  0  0
  -11.6520   19.3606  -18.5532 C   0  0  1  0  0  0  0  0  0  0  0  0
  -11.0152   18.1883  -17.9506 N   0  0  0  0  0  0  0  0  0  0  0  0
  -10.1477   18.2954  -16.9061 C   0  0  0  0  0  0  0  0  0  0  0  0
   -9.8412   19.3467  -16.3560 O   0  0  0  0  0  0  0  0  0  0  0  0
   -9.6281   17.0885  -16.5910 O   0  0  0  0  0  0  0  0  0  0  0  0
   -8.5369   17.0859  -15.6377 C   0  0  1  0  0  0  0  0  0  0  0  0
   -8.7123   15.8650  -14.7632 C   0  0  0  0  0  0  0  0  0  0  0  0
   -8.2641   14.7681  -15.5750 O   0  0  0  0  0  0  0  0  0  0  0  0
   -7.1970   15.2608  -16.3955 C   0  0  1  0  0  0  0  0  0  0  0  0
   -7.3512   14.8848  -17.7645 O   0  0  0  0  0  0  0  0  0  0  0  0
   -7.6322   16.0590  -18.5289 C   0  0  0  0  0  0  0  0  0  0  0  0
   -7.0856   17.2336  -17.7485 C   0  0  0  0  0  0  0  0  0  0  0  0
   -7.2051   16.7807  -16.3166 C   0  0  1  0  0  0  0  0  0  0  0  0
  -11.3055   19.4268  -20.0539 C   0  0  0  0  0  0  0  0  0  0  0  0
   -9.1150   18.4584  -20.8180 C   0  0  0  0  0  0  0  0  0  0  0  0
   -7.7349   18.5464  -20.9722 C   0  0  0  0  0  0  0  0  0  0  0  0
   -7.0605   19.7010  -20.5791 C   0  0  0  0  0  0  0  0  0  0  0  0
   -7.7684   20.7793  -20.0558 C   0  0  0  0  0  0  0  0  0  0  0  0
   -9.1470   20.6991  -19.9128 C   0  0  0  0  0  0  0  0  0  0  0  0
   -9.8275   19.5365  -20.2852 C   0  0  0  0  0  0  0  0  0  0  0  0
  -17.2261   25.9275  -22.0399 H   0  0  0  0  0  0  0  0  0  0  0  0
  -17.2721   27.1117  -20.7615 H   0  0  0  0  0  0  0  0  0  0  0  0
  -15.9416   24.0387  -22.0311 H   0  0  0  0  0  0  0  0  0  0  0  0
  -14.2843   22.5953  -20.9347 H   0  0  0  0  0  0  0  0  0  0  0  0
  -14.1668   25.3255  -17.5734 H   0  0  0  0  0  0  0  0  0  0  0  0
  -15.8250   26.7647  -18.7050 H   0  0  0  0  0  0  0  0  0  0  0  0
  -15.7637   21.7629  -17.3110 H   0  0  0  0  0  0  0  0  0  0  0  0
  -14.7368   22.8480  -16.3739 H   0  0  0  0  0  0  0  0  0  0  0  0
  -14.8956   19.8065  -16.0541 H   0  0  0  0  0  0  0  0  0  0  0  0
  -13.3909   20.1381  -14.0969 H   0  0  0  0  0  0  0  0  0  0  0  0
  -13.2240   21.8588  -14.5101 H   0  0  0  0  0  0  0  0  0  0  0  0
  -12.5943   20.6133  -15.5969 H   0  0  0  0  0  0  0  0  0  0  0  0
  -16.8700   21.0145  -15.1871 H   0  0  0  0  0  0  0  0  0  0  0  0
  -15.8171   22.0279  -14.1800 H   0  0  0  0  0  0  0  0  0  0  0  0
  -15.9162   20.2801  -13.8899 H   0  0  0  0  0  0  0  0  0  0  0  0
  -13.6943   20.8019  -19.7113 H   0  0  0  0  0  0  0  0  0  0  0  0
  -15.0262   20.2684  -18.7522 H   0  0  0  0  0  0  0  0  0  0  0  0
  -13.3357   19.0004  -17.2738 H   0  0  0  0  0  0  0  0  0  0  0  0
  -13.5416   18.3177  -20.0228 H   0  0  0  0  0  0  0  0  0  0  0  0
  -11.2770   20.2640  -18.0536 H   0  0  0  0  0  0  0  0  0  0  0  0
  -11.2471   17.2690  -18.2937 H   0  0  0  0  0  0  0  0  0  0  0  0
   -8.4941   18.0093  -15.0467 H   0  0  0  0  0  0  0  0  0  0  0  0
   -9.7515   15.7019  -14.4655 H   0  0  0  0  0  0  0  0  0  0  0  0
   -8.0788   15.8989  -13.8695 H   0  0  0  0  0  0  0  0  0  0  0  0
   -6.2614   14.8285  -16.0250 H   0  0  0  0  0  0  0  0  0  0  0  0
   -8.7153   16.1333  -18.6650 H   0  0  0  0  0  0  0  0  0  0  0  0
   -7.1768   15.9685  -19.5180 H   0  0  0  0  0  0  0  0  0  0  0  0
   -7.6277   18.1597  -17.9465 H   0  0  0  0  0  0  0  0  0  0  0  0
   -6.0369   17.4034  -18.0178 H   0  0  0  0  0  0  0  0  0  0  0  0
   -6.3704   17.1386  -15.6998 H   0  0  0  0  0  0  0  0  0  0  0  0
  -11.8006   20.2714  -20.5440 H   0  0  0  0  0  0  0  0  0  0  0  0
  -11.6727   18.5317  -20.5676 H   0  0  0  0  0  0  0  0  0  0  0  0
   -9.6293   17.5399  -21.0905 H   0  0  0  0  0  0  0  0  0  0  0  0
   -7.1818   17.7068  -21.3821 H   0  0  0  0  0  0  0  0  0  0  0  0
   -5.9814   19.7616  -20.6759 H   0  0  0  0  0  0  0  0  0  0  0  0
   -7.2519   21.6848  -19.7536 H   0  0  0  0  0  0  0  0  0  0  0  0
   -9.6882   21.5400  -19.4850 H   0  0  0  0  0  0  0  0  0  0  0  0
  1  2  1  0  0  0  0
  1 39  1  0  0  0  0
  1 40  1  0  0  0  0
  2  3  2  0  0  0  0
  2  7  1  0  0  0  0
  3  4  1  0  0  0  0
  3 41  1  0  0  0  0
  4  5  2  0  0  0  0
  4 42  1  0  0  0  0
  5  6  1  0  0  0  0
  5  8  1  0  0  0  0
  6  7  2  0  0  0  0
  6 43  1  0  0  0  0
  7 44  1  0  0  0  0
  8  9  2  0  0  0  0
  8 10  2  0  0  0  0
  8 11  1  0  0  0  0
 11 12  1  0  0  0  0
 11 16  1  0  0  0  0
 12 13  1  0  0  0  0
 12 45  1  0  0  0  0
 12 46  1  0  0  0  0
 13 14  1  0  0  0  0
 13 15  1  0  0  0  0
 13 47  1  0  0  0  0
 14 48  1  0  0  0  0
 14 49  1  0  0  0  0
 14 50  1  0  0  0  0
 15 51  1  0  0  0  0
 15 52  1  0  0  0  0
 15 53  1  0  0  0  0
 16 17  1  0  0  0  0
 16 54  1  0  0  0  0
 16 55  1  0  0  0  0
 17 18  1  0  0  0  0
 17 19  1  0  0  0  0
 17 56  1  1  0  0  0
 18 57  1  0  0  0  0
 19 20  1  0  0  0  0
 19 32  1  0  0  0  0
 19 58  1  1  0  0  0
 20 21  1  0  0  0  0
 20 59  1  0  0  0  0
 21 22  2  0  0  0  0
 21 23  1  0  0  0  0
 23 24  1  0  0  0  0
 24 25  1  0  0  0  0
 24 31  1  0  0  0  0
 24 60  1  1  0  0  0
 25 26  1  0  0  0  0
 25 61  1  0  0  0  0
 25 62  1  0  0  0  0
 26 27  1  0  0  0  0
 27 28  1  0  0  0  0
 27 31  1  0  0  0  0
 27 63  1  1  0  0  0
 28 29  1  0  0  0  0
 29 30  1  0  0  0  0
 29 64  1  0  0  0  0
 29 65  1  0  0  0  0
 30 31  1  0  0  0  0
 30 66  1  0  0  0  0
 30 67  1  0  0  0  0
 31 68  1  1  0  0  0
 32 38  1  0  0  0  0
 32 69  1  0  0  0  0
 32 70  1  0  0  0  0
 33 34  2  0  0  0  0
 33 38  1  0  0  0  0
 33 71  1  0  0  0  0
 34 35  1  0  0  0  0
 34 72  1  0  0  0  0
 35 36  2  0  0  0  0
 35 73  1  0  0  0  0
 36 37  1  0  0  0  0
 36 74  1  0  0  0  0
 37 38  2  0  0  0  0
 37 75  1  0  0  0  0
M  END
$$$$
