017
 OpenBabel04091915103D

 75 78  0  0  1  0  0  0  0  0999 V2000
   21.1178   28.8081   14.2309 N   0  0  0  0  0  0  0  0  0  0  0  0
   20.4715   27.6425   14.5782 C   0  0  0  0  0  0  0  0  0  0  0  0
   19.1305   27.4350   14.1962 C   0  0  0  0  0  0  0  0  0  0  0  0
   18.4659   26.2504   14.5514 C   0  0  0  0  0  0  0  0  0  0  0  0
   19.1750   25.2776   15.2898 C   0  0  0  0  0  0  0  0  0  0  0  0
   20.5174   25.4974   15.6627 C   0  0  0  0  0  0  0  0  0  0  0  0
   21.1729   26.6860   15.3216 C   0  0  0  0  0  0  0  0  0  0  0  0
   18.3544   23.7475   15.8338 S   0  0  0  0  0  0  0  0  0  0  0  0
   17.2220   23.5514   14.9424 O   0  0  0  0  0  0  0  0  0  0  0  0
   19.3587   22.7082   15.9342 O   0  0  0  0  0  0  0  0  0  0  0  0
   17.7340   24.0962   17.4582 N   0  0  0  0  0  0  0  0  0  0  0  0
   18.7168   24.4283   18.5573 C   0  0  0  0  0  0  0  0  0  0  0  0
   18.3821   23.7871   19.9288 C   0  0  0  0  0  0  0  0  0  0  0  0
   18.2800   22.2740   19.7741 C   0  0  0  0  0  0  0  0  0  0  0  0
   19.5390   24.1150   20.8815 C   0  0  0  0  0  0  0  0  0  0  0  0
   16.4632   24.8809   17.5231 C   0  0  0  0  0  0  0  0  0  0  0  0
   15.2835   23.9875   17.9766 C   0  0  1  0  0  0  0  0  0  0  0  0
   14.1360   24.7935   18.3143 O   0  0  0  0  0  0  0  0  0  0  0  0
   14.8790   22.8623   16.9721 C   0  0  1  0  0  0  0  0  0  0  0  0
   14.0032   21.9280   17.6971 N   0  0  0  0  0  0  0  0  0  0  0  0
   14.3804   20.6351   18.0036 C   0  0  0  0  0  0  0  0  0  0  0  0
   15.3700   20.1016   17.6161 O   0  0  0  0  0  0  0  0  0  0  0  0
   13.4139   20.0711   18.7886 O   0  0  0  0  0  0  0  0  0  0  0  0
   13.4332   18.6291   18.9220 C   0  0  1  0  0  0  0  0  0  0  0  0
   12.8885   18.3048   20.3129 C   0  0  0  0  0  0  0  0  0  0  0  0
   11.4557   18.4515   20.2093 O   0  0  0  0  0  0  0  0  0  0  0  0
   11.0998   18.0752   18.8765 C   0  0  1  0  0  0  0  0  0  0  0  0
   10.2003   18.9772   18.2273 O   0  0  0  0  0  0  0  0  0  0  0  0
   10.8942   19.5145   17.0995 C   0  0  0  0  0  0  0  0  0  0  0  0
   11.9569   18.5067   16.7172 C   0  0  0  0  0  0  0  0  0  0  0  0
   12.3662   17.9511   18.0547 C   0  0  1  0  0  0  0  0  0  0  0  0
   14.0931   23.3270   15.7247 C   0  0  0  0  0  0  0  0  0  0  0  0
   12.3588   21.7380   14.7142 C   0  0  0  0  0  0  0  0  0  0  0  0
   11.9953   20.6270   13.9344 C   0  0  0  0  0  0  0  0  0  0  0  0
   13.0010   19.9014   13.2869 C   0  0  0  0  0  0  0  0  0  0  0  0
   14.3372   20.3124   13.3801 C   0  0  0  0  0  0  0  0  0  0  0  0
   14.6928   21.4010   14.1850 C   0  0  0  0  0  0  0  0  0  0  0  0
   13.6999   22.1519   14.8286 C   0  0  0  0  0  0  0  0  0  0  0  0
   20.6373   29.5138   13.6914 H   0  0  0  0  0  0  0  0  0  0  0  0
   22.0801   28.9417   14.5103 H   0  0  0  0  0  0  0  0  0  0  0  0
   18.6148   28.2043   13.6203 H   0  0  0  0  0  0  0  0  0  0  0  0
   17.4136   26.1154   14.3098 H   0  0  0  0  0  0  0  0  0  0  0  0
   21.0241   24.7578   16.2706 H   0  0  0  0  0  0  0  0  0  0  0  0
   22.2032   26.8700   15.6210 H   0  0  0  0  0  0  0  0  0  0  0  0
   18.7598   25.5182   18.6954 H   0  0  0  0  0  0  0  0  0  0  0  0
   19.7145   24.0832   18.2688 H   0  0  0  0  0  0  0  0  0  0  0  0
   17.4406   24.1743   20.3523 H   0  0  0  0  0  0  0  0  0  0  0  0
   18.0304   21.7908   20.7255 H   0  0  0  0  0  0  0  0  0  0  0  0
   19.2368   21.8756   19.4176 H   0  0  0  0  0  0  0  0  0  0  0  0
   17.5058   22.0242   19.0431 H   0  0  0  0  0  0  0  0  0  0  0  0
   19.6167   25.1993   21.0209 H   0  0  0  0  0  0  0  0  0  0  0  0
   20.4831   23.7565   20.4481 H   0  0  0  0  0  0  0  0  0  0  0  0
   19.4057   23.6399   21.8596 H   0  0  0  0  0  0  0  0  0  0  0  0
   16.2499   25.3014   16.5397 H   0  0  0  0  0  0  0  0  0  0  0  0
   16.5613   25.7374   18.2165 H   0  0  0  0  0  0  0  0  0  0  0  0
   15.5845   23.5038   18.9163 H   0  0  0  0  0  0  0  0  0  0  0  0
   13.8691   25.2917   17.5249 H   0  0  0  0  0  0  0  0  0  0  0  0
   15.7915   22.3394   16.6701 H   0  0  0  0  0  0  0  0  0  0  0  0
   13.0903   22.2540   17.9476 H   0  0  0  0  0  0  0  0  0  0  0  0
   14.4349   18.2145   18.7413 H   0  0  0  0  0  0  0  0  0  0  0  0
   13.2641   18.9962   21.0721 H   0  0  0  0  0  0  0  0  0  0  0  0
   13.1109   17.2713   20.6240 H   0  0  0  0  0  0  0  0  0  0  0  0
   10.6285   17.0950   18.9052 H   0  0  0  0  0  0  0  0  0  0  0  0
   11.3518   20.4588   17.4074 H   0  0  0  0  0  0  0  0  0  0  0  0
   10.1894   19.7107   16.2856 H   0  0  0  0  0  0  0  0  0  0  0  0
   12.7931   18.9441   16.1784 H   0  0  0  0  0  0  0  0  0  0  0  0
   11.5274   17.7039   16.0875 H   0  0  0  0  0  0  0  0  0  0  0  0
   12.6213   16.8892   17.9546 H   0  0  0  0  0  0  0  0  0  0  0  0
   14.6907   24.0417   15.1475 H   0  0  0  0  0  0  0  0  0  0  0  0
   13.1746   23.8448   16.0418 H   0  0  0  0  0  0  0  0  0  0  0  0
   11.5929   22.2603   15.2856 H   0  0  0  0  0  0  0  0  0  0  0  0
   10.9519   20.3371   13.8358 H   0  0  0  0  0  0  0  0  0  0  0  0
   12.7556   19.0086   12.7158 H   0  0  0  0  0  0  0  0  0  0  0  0
   15.1045   19.7878   12.8143 H   0  0  0  0  0  0  0  0  0  0  0  0
   15.7426   21.6318   14.3533 H   0  0  0  0  0  0  0  0  0  0  0  0
  1  2  1  0  0  0  0
  1 39  1  0  0  0  0
  1 40  1  0  0  0  0
  2  3  2  0  0  0  0
  2  7  1  0  0  0  0
  3  4  1  0  0  0  0
  3 41  1  0  0  0  0
  4  5  2  0  0  0  0
  4 42  1  0  0  0  0
  5  6  1  0  0  0  0
  5  8  1  0  0  0  0
  6  7  2  0  0  0  0
  6 43  1  0  0  0  0
  7 44  1  0  0  0  0
  8  9  2  0  0  0  0
  8 10  2  0  0  0  0
  8 11  1  0  0  0  0
 11 12  1  0  0  0  0
 11 16  1  0  0  0  0
 12 13  1  0  0  0  0
 12 45  1  0  0  0  0
 12 46  1  0  0  0  0
 13 14  1  0  0  0  0
 13 15  1  0  0  0  0
 13 47  1  0  0  0  0
 14 48  1  0  0  0  0
 14 49  1  0  0  0  0
 14 50  1  0  0  0  0
 15 51  1  0  0  0  0
 15 52  1  0  0  0  0
 15 53  1  0  0  0  0
 16 17  1  0  0  0  0
 16 54  1  0  0  0  0
 16 55  1  0  0  0  0
 17 18  1  0  0  0  0
 17 19  1  0  0  0  0
 17 56  1  1  0  0  0
 18 57  1  0  0  0  0
 19 20  1  0  0  0  0
 19 32  1  0  0  0  0
 19 58  1  6  0  0  0
 20 21  1  0  0  0  0
 20 59  1  0  0  0  0
 21 22  2  0  0  0  0
 21 23  1  0  0  0  0
 23 24  1  0  0  0  0
 24 25  1  0  0  0  0
 24 31  1  0  0  0  0
 24 60  1  6  0  0  0
 25 26  1  0  0  0  0
 25 61  1  0  0  0  0
 25 62  1  0  0  0  0
 26 27  1  0  0  0  0
 27 28  1  0  0  0  0
 27 31  1  0  0  0  0
 27 63  1  1  0  0  0
 28 29  1  0  0  0  0
 29 30  1  0  0  0  0
 29 64  1  0  0  0  0
 29 65  1  0  0  0  0
 30 31  1  0  0  0  0
 30 66  1  0  0  0  0
 30 67  1  0  0  0  0
 31 68  1  6  0  0  0
 32 38  1  0  0  0  0
 32 69  1  0  0  0  0
 32 70  1  0  0  0  0
 33 34  2  0  0  0  0
 33 38  1  0  0  0  0
 33 71  1  0  0  0  0
 34 35  1  0  0  0  0
 34 72  1  0  0  0  0
 35 36  2  0  0  0  0
 35 73  1  0  0  0  0
 36 37  1  0  0  0  0
 36 74  1  0  0  0  0
 37 38  2  0  0  0  0
 37 75  1  0  0  0  0
M  END
$$$$
