017
 OpenBabel04091911443D

 75 78  0  0  1  0  0  0  0  0999 V2000
   22.6679   48.8726  -11.0693 N   0  0  0  0  0  0  0  0  0  0  0  0
   22.3744   47.6190  -10.6425 C   0  0  0  0  0  0  0  0  0  0  0  0
   22.9428   47.1003   -9.4832 C   0  0  0  0  0  0  0  0  0  0  0  0
   22.6331   45.8332   -9.0829 C   0  0  0  0  0  0  0  0  0  0  0  0
   21.7279   45.1134   -9.8323 C   0  0  0  0  0  0  0  0  0  0  0  0
   21.1772   45.6475  -10.9874 C   0  0  0  0  0  0  0  0  0  0  0  0
   21.5023   46.8810  -11.3586 C   0  0  0  0  0  0  0  0  0  0  0  0
   21.3064   43.4973   -9.4434 S   0  0  0  0  0  0  0  0  0  0  0  0
   22.4180   42.8130   -8.8106 O   0  0  0  0  0  0  0  0  0  0  0  0
   20.8094   42.8816  -10.6613 O   0  0  0  0  0  0  0  0  0  0  0  0
   20.0484   43.5973   -8.3694 N   0  0  0  0  0  0  0  0  0  0  0  0
   20.3005   44.5167   -7.2653 C   0  0  0  0  0  0  0  0  0  0  0  0
   19.7729   43.9831   -5.9540 C   0  0  0  0  0  0  0  0  0  0  0  0
   20.2575   42.5668   -5.6912 C   0  0  0  0  0  0  0  0  0  0  0  0
   20.2345   44.9188   -4.8470 C   0  0  0  0  0  0  0  0  0  0  0  0
   18.7876   43.8884   -9.0317 C   0  0  0  0  0  0  0  0  0  0  0  0
   17.8313   42.7444   -8.7964 C   0  0  1  0  0  0  0  0  0  0  0  0
   16.5125   43.2271   -9.0755 O   0  0  0  0  0  0  0  0  0  0  0  0
   18.2079   41.5114   -9.6341 C   0  0  1  0  0  0  0  0  0  0  0  0
   17.4200   40.3803   -9.1498 N   0  0  0  0  0  0  0  0  0  0  0  0
   17.9558   39.3354   -8.4518 C   0  0  0  0  0  0  0  0  0  0  0  0
   19.1402   39.2761   -8.1705 O   0  0  0  0  0  0  0  0  0  0  0  0
   16.9934   38.4247   -8.0992 O   0  0  0  0  0  0  0  0  0  0  0  0
   17.3030   37.0267   -7.7788 C   0  0  1  0  0  0  0  0  0  0  0  0
   16.3525   36.6295   -6.6649 C   0  0  0  0  0  0  0  0  0  0  0  0
   15.1603   36.1163   -7.2961 O   0  0  0  0  0  0  0  0  0  0  0  0
   15.4727   35.7171   -8.6443 C   0  0  1  0  0  0  0  0  0  0  0  0
   14.6340   36.3568   -9.6230 O   0  0  0  0  0  0  0  0  0  0  0  0
   15.4341   37.0553  -10.5884 C   0  0  0  0  0  0  0  0  0  0  0  0
   16.8869   36.7357  -10.3048 C   0  0  0  0  0  0  0  0  0  0  0  0
   16.9068   36.1069   -8.9318 C   0  0  1  0  0  0  0  0  0  0  0  0
   17.9069   41.6461  -11.1231 C   0  0  0  0  0  0  0  0  0  0  0  0
   17.3226   39.6407  -12.5177 C   0  0  0  0  0  0  0  0  0  0  0  0
   17.6731   38.4579  -13.1627 C   0  0  0  0  0  0  0  0  0  0  0  0
   18.9935   38.0153  -13.1577 C   0  0  0  0  0  0  0  0  0  0  0  0
   19.9621   38.7425  -12.4741 C   0  0  0  0  0  0  0  0  0  0  0  0
   19.6116   39.9204  -11.8205 C   0  0  0  0  0  0  0  0  0  0  0  0
   18.2907   40.3774  -11.8409 C   0  0  0  0  0  0  0  0  0  0  0  0
   23.3168   49.4079  -10.5360 H   0  0  0  0  0  0  0  0  0  0  0  0
   22.2279   49.2206  -11.9106 H   0  0  0  0  0  0  0  0  0  0  0  0
   23.6218   47.7143   -8.9237 H   0  0  0  0  0  0  0  0  0  0  0  0
   23.0826   45.4062   -8.1998 H   0  0  0  0  0  0  0  0  0  0  0  0
   20.4992   45.0999  -11.6017 H   0  0  0  0  0  0  0  0  0  0  0  0
   21.0589   47.3073  -12.2543 H   0  0  0  0  0  0  0  0  0  0  0  0
   19.8017   45.4669   -7.5007 H   0  0  0  0  0  0  0  0  0  0  0  0
   21.3729   44.6939   -7.1816 H   0  0  0  0  0  0  0  0  0  0  0  0
   18.6795   43.9759   -5.9810 H   0  0  0  0  0  0  0  0  0  0  0  0
   19.8649   42.2147   -4.7307 H   0  0  0  0  0  0  0  0  0  0  0  0
   21.3537   42.5435   -5.6661 H   0  0  0  0  0  0  0  0  0  0  0  0
   19.9023   41.9004   -6.4874 H   0  0  0  0  0  0  0  0  0  0  0  0
   19.8817   45.9376   -5.0541 H   0  0  0  0  0  0  0  0  0  0  0  0
   21.3323   44.9250   -4.7946 H   0  0  0  0  0  0  0  0  0  0  0  0
   19.8301   44.5851   -3.8860 H   0  0  0  0  0  0  0  0  0  0  0  0
   18.9488   44.0264  -10.1069 H   0  0  0  0  0  0  0  0  0  0  0  0
   18.3748   44.8178   -8.6318 H   0  0  0  0  0  0  0  0  0  0  0  0
   17.8590   42.4549   -7.7368 H   0  0  0  0  0  0  0  0  0  0  0  0
   16.4854   43.5276   -9.9982 H   0  0  0  0  0  0  0  0  0  0  0  0
   19.2821   41.3086   -9.4988 H   0  0  0  0  0  0  0  0  0  0  0  0
   16.4335   40.3846   -9.3487 H   0  0  0  0  0  0  0  0  0  0  0  0
   18.3560   36.9014   -7.5080 H   0  0  0  0  0  0  0  0  0  0  0  0
   16.0948   37.5010   -6.0445 H   0  0  0  0  0  0  0  0  0  0  0  0
   16.7938   35.8530   -6.0270 H   0  0  0  0  0  0  0  0  0  0  0  0
   15.3409   34.6246   -8.7277 H   0  0  0  0  0  0  0  0  0  0  0  0
   15.2506   38.1384  -10.5035 H   0  0  0  0  0  0  0  0  0  0  0  0
   15.1523   36.7354  -11.6054 H   0  0  0  0  0  0  0  0  0  0  0  0
   17.4977   37.6420  -10.3352 H   0  0  0  0  0  0  0  0  0  0  0  0
   17.2755   36.0309  -11.0564 H   0  0  0  0  0  0  0  0  0  0  0  0
   17.5637   35.2284   -8.9293 H   0  0  0  0  0  0  0  0  0  0  0  0
   18.4624   42.4824  -11.5519 H   0  0  0  0  0  0  0  0  0  0  0  0
   16.8293   41.8246  -11.2598 H   0  0  0  0  0  0  0  0  0  0  0  0
   16.2967   39.9930  -12.5446 H   0  0  0  0  0  0  0  0  0  0  0  0
   16.9103   37.8776  -13.6677 H   0  0  0  0  0  0  0  0  0  0  0  0
   19.2656   37.1068  -13.6879 H   0  0  0  0  0  0  0  0  0  0  0  0
   20.9897   38.3951  -12.4492 H   0  0  0  0  0  0  0  0  0  0  0  0
   20.3706   40.4933  -11.2926 H   0  0  0  0  0  0  0  0  0  0  0  0
  1  2  1  0  0  0  0
  1 39  1  0  0  0  0
  1 40  1  0  0  0  0
  2  3  2  0  0  0  0
  2  7  1  0  0  0  0
  3  4  1  0  0  0  0
  3 41  1  0  0  0  0
  4  5  2  0  0  0  0
  4 42  1  0  0  0  0
  5  6  1  0  0  0  0
  5  8  1  0  0  0  0
  6  7  2  0  0  0  0
  6 43  1  0  0  0  0
  7 44  1  0  0  0  0
  8  9  2  0  0  0  0
  8 10  2  0  0  0  0
  8 11  1  0  0  0  0
 11 12  1  0  0  0  0
 11 16  1  0  0  0  0
 12 13  1  0  0  0  0
 12 45  1  0  0  0  0
 12 46  1  0  0  0  0
 13 14  1  0  0  0  0
 13 15  1  0  0  0  0
 13 47  1  0  0  0  0
 14 48  1  0  0  0  0
 14 49  1  0  0  0  0
 14 50  1  0  0  0  0
 15 51  1  0  0  0  0
 15 52  1  0  0  0  0
 15 53  1  0  0  0  0
 16 17  1  0  0  0  0
 16 54  1  0  0  0  0
 16 55  1  0  0  0  0
 17 18  1  0  0  0  0
 17 19  1  0  0  0  0
 17 56  1  1  0  0  0
 18 57  1  0  0  0  0
 19 20  1  0  0  0  0
 19 32  1  0  0  0  0
 19 58  1  1  0  0  0
 20 21  1  0  0  0  0
 20 59  1  0  0  0  0
 21 22  2  0  0  0  0
 21 23  1  0  0  0  0
 23 24  1  0  0  0  0
 24 25  1  0  0  0  0
 24 31  1  0  0  0  0
 24 60  1  1  0  0  0
 25 26  1  0  0  0  0
 25 61  1  0  0  0  0
 25 62  1  0  0  0  0
 26 27  1  0  0  0  0
 27 28  1  0  0  0  0
 27 31  1  0  0  0  0
 27 63  1  6  0  0  0
 28 29  1  0  0  0  0
 29 30  1  0  0  0  0
 29 64  1  0  0  0  0
 29 65  1  0  0  0  0
 30 31  1  0  0  0  0
 30 66  1  0  0  0  0
 30 67  1  0  0  0  0
 31 68  1  6  0  0  0
 32 38  1  0  0  0  0
 32 69  1  0  0  0  0
 32 70  1  0  0  0  0
 33 34  2  0  0  0  0
 33 38  1  0  0  0  0
 33 71  1  0  0  0  0
 34 35  1  0  0  0  0
 34 72  1  0  0  0  0
 35 36  2  0  0  0  0
 35 73  1  0  0  0  0
 36 37  1  0  0  0  0
 36 74  1  0  0  0  0
 37 38  2  0  0  0  0
 37 75  1  0  0  0  0
M  END
$$$$
