02P
 OpenBabel04091914543D

 55 57  0  0  1  0  0  0  0  0999 V2000
   16.4222  -15.5325   23.3055 N   0  3  0  0  0  0  0  0  0  0  0  0
   17.7099  -14.7816   23.3145 C   0  0  1  0  0  0  0  0  0  0  0  0
   17.4323  -13.4155   22.7394 C   0  0  0  0  0  0  0  0  0  0  0  0
   16.4492  -12.7721   23.1557 O   0  0  0  0  0  0  0  0  0  0  0  0
   18.1774  -14.6911   24.7520 C   0  0  0  0  0  0  0  0  0  0  0  0
   19.5667  -14.1430   24.8368 C   0  0  0  0  0  0  0  0  0  0  0  0
   19.7813  -12.9768   25.5696 C   0  0  0  0  0  0  0  0  0  0  0  0
   20.6457  -14.7700   24.2056 C   0  0  0  0  0  0  0  0  0  0  0  0
   21.0575  -12.4377   25.6686 C   0  0  0  0  0  0  0  0  0  0  0  0
   21.9231  -14.2242   24.2978 C   0  0  0  0  0  0  0  0  0  0  0  0
   22.1308  -13.0609   25.0363 C   0  0  0  0  0  0  0  0  0  0  0  0
   18.1726  -13.0078   21.6897 N   0  0  0  0  0  0  0  0  0  0  0  0
   17.9066  -11.7004   21.1077 C   0  0  2  0  0  0  0  0  0  0  0  0
   16.4395  -11.6572   20.6051 C   0  0  0  0  0  0  0  0  0  0  0  0
   15.9420  -12.5863   20.0100 O   0  0  0  0  0  0  0  0  0  0  0  0
   18.8617  -11.6074   19.9390 C   0  0  0  0  0  0  0  0  0  0  0  0
   19.9668  -12.6033   20.2419 C   0  0  0  0  0  0  0  0  0  0  0  0
   19.3204  -13.6799   21.0780 C   0  0  0  0  0  0  0  0  0  0  0  0
   12.2795   -7.5756   24.5073 Cl  0  0  0  0  0  0  0  0  0  0  0  0
   15.7400  -10.5281   20.9547 N   0  0  0  0  0  0  0  0  0  0  0  0
   14.3604  -10.3207   20.5683 C   0  0  0  0  0  0  0  0  0  0  0  0
   13.4289  -10.2723   21.7601 C   0  0  0  0  0  0  0  0  0  0  0  0
   12.7222  -11.3714   22.1452 N   0  3  0  0  0  0  0  0  0  0  0  0
   13.2956   -9.0779   22.4891 C   0  0  0  0  0  0  0  0  0  0  0  0
   12.4440   -9.0186   23.5872 C   0  0  0  0  0  0  0  0  0  0  0  0
   11.7272  -10.1490   23.9438 C   0  0  0  0  0  0  0  0  0  0  0  0
   11.8839  -11.3151   23.2079 C   0  0  0  0  0  0  0  0  0  0  0  0
   12.8363  -12.6454   21.4154 C   0  0  0  0  0  0  0  0  0  0  0  0
   16.5536  -16.4638   23.7057 H   0  0  0  0  0  0  0  0  0  0  0  0
   15.7352  -15.0067   23.8607 H   0  0  0  0  0  0  0  0  0  0  0  0
   18.4118  -15.3450   22.6937 H   0  0  0  0  0  0  0  0  0  0  0  0
   18.1598  -15.6843   25.2091 H   0  0  0  0  0  0  0  0  0  0  0  0
   17.4935  -14.0446   25.3165 H   0  0  0  0  0  0  0  0  0  0  0  0
   18.9527  -12.4860   26.0735 H   0  0  0  0  0  0  0  0  0  0  0  0
   20.5025  -15.6780   23.6255 H   0  0  0  0  0  0  0  0  0  0  0  0
   21.2192  -11.5287   26.2452 H   0  0  0  0  0  0  0  0  0  0  0  0
   22.7654  -14.7054   23.8041 H   0  0  0  0  0  0  0  0  0  0  0  0
   23.1289  -12.6413   25.1250 H   0  0  0  0  0  0  0  0  0  0  0  0
   18.0791  -10.9118   21.8515 H   0  0  0  0  0  0  0  0  0  0  0  0
   19.2612  -10.5945   19.8521 H   0  0  0  0  0  0  0  0  0  0  0  0
   18.3625  -11.8712   18.9987 H   0  0  0  0  0  0  0  0  0  0  0  0
   20.7655  -12.1180   20.8123 H   0  0  0  0  0  0  0  0  0  0  0  0
   20.3832  -13.0232   19.3229 H   0  0  0  0  0  0  0  0  0  0  0  0
   18.9733  -14.5214   20.4684 H   0  0  0  0  0  0  0  0  0  0  0  0
   20.0035  -14.0647   21.8348 H   0  0  0  0  0  0  0  0  0  0  0  0
   16.2128   -9.8051   21.4761 H   0  0  0  0  0  0  0  0  0  0  0  0
   14.0553  -11.0902   19.8646 H   0  0  0  0  0  0  0  0  0  0  0  0
   14.2917   -9.3847   20.0107 H   0  0  0  0  0  0  0  0  0  0  0  0
   13.8568   -8.1975   22.1757 H   0  0  0  0  0  0  0  0  0  0  0  0
   11.0443  -10.1324   24.7902 H   0  0  0  0  0  0  0  0  0  0  0  0
   11.3356  -12.2205   23.4712 H   0  0  0  0  0  0  0  0  0  0  0  0
   13.5356  -12.5746   20.5974 H   0  0  0  0  0  0  0  0  0  0  0  0
   11.8589  -12.9101   21.0101 H   0  0  0  0  0  0  0  0  0  0  0  0
   13.2128  -13.4069   22.0991 H   0  0  0  0  0  0  0  0  0  0  0  0
   16.0749  -15.6083   22.3436 H   0  0  0  0  0  0  0  0  0  0  0  0
  1  2  1  0  0  0  0
  1 29  1  0  0  0  0
  1 30  1  0  0  0  0
  1 55  1  0  0  0  0
  2  3  1  0  0  0  0
  2  5  1  0  0  0  0
  2 31  1  6  0  0  0
  3  4  2  0  0  0  0
  3 12  1  0  0  0  0
  5  6  1  0  0  0  0
  5 32  1  0  0  0  0
  5 33  1  0  0  0  0
  6  7  2  0  0  0  0
  6  8  1  0  0  0  0
  7  9  1  0  0  0  0
  7 34  1  0  0  0  0
  8 10  2  0  0  0  0
  8 35  1  0  0  0  0
  9 11  2  0  0  0  0
  9 36  1  0  0  0  0
 10 11  1  0  0  0  0
 10 37  1  0  0  0  0
 11 38  1  0  0  0  0
 12 13  1  0  0  0  0
 12 18  1  0  0  0  0
 13 14  1  0  0  0  0
 13 16  1  0  0  0  0
 13 39  1  1  0  0  0
 14 15  2  0  0  0  0
 14 20  1  0  0  0  0
 16 17  1  0  0  0  0
 16 40  1  0  0  0  0
 16 41  1  0  0  0  0
 17 18  1  0  0  0  0
 17 42  1  0  0  0  0
 17 43  1  0  0  0  0
 18 44  1  0  0  0  0
 18 45  1  0  0  0  0
 19 25  1  0  0  0  0
 20 21  1  0  0  0  0
 20 46  1  0  0  0  0
 21 22  1  0  0  0  0
 21 47  1  0  0  0  0
 21 48  1  0  0  0  0
 22 23  2  0  0  0  0
 22 24  1  0  0  0  0
 23 27  1  0  0  0  0
 23 28  1  0  0  0  0
 24 25  2  0  0  0  0
 24 49  1  0  0  0  0
 25 26  1  0  0  0  0
 26 27  2  0  0  0  0
 26 50  1  0  0  0  0
 27 51  1  0  0  0  0
 28 52  1  0  0  0  0
 28 53  1  0  0  0  0
 28 54  1  0  0  0  0
M  CHG  2   1   1  23   1
M  END
$$$$
