031
 OpenBabel04091916213D

 81 85  0  0  1  0  0  0  0  0999 V2000
    7.7983   14.2530   14.4062 O   0  0  0  0  0  0  0  0  0  0  0  0
    6.4064   14.1387   14.6669 C   0  0  0  0  0  0  0  0  0  0  0  0
    8.3728   15.4596   14.6950 C   0  0  0  0  0  0  0  0  0  0  0  0
    7.7397   16.5737   15.2486 C   0  0  0  0  0  0  0  0  0  0  0  0
    8.4756   17.7315   15.5510 C   0  0  0  0  0  0  0  0  0  0  0  0
    9.8600   17.7445   15.3528 C   0  0  0  0  0  0  0  0  0  0  0  0
   10.4775   16.6646   14.7413 C   0  0  0  0  0  0  0  0  0  0  0  0
    9.7269   15.5483   14.3760 C   0  0  0  0  0  0  0  0  0  0  0  0
   10.8662   19.1550   15.7857 S   0  0  0  0  0  0  0  0  0  0  0  0
   11.9258   19.2760   14.8388 O   0  0  0  0  0  0  0  0  0  0  0  0
    9.9484   20.2541   16.0567 O   0  0  0  0  0  0  0  0  0  0  0  0
   11.5316   18.7408   17.2855 N   0  0  0  0  0  0  0  0  0  0  0  0
   10.5927   18.3091   18.3191 C   0  0  0  0  0  0  0  0  0  0  0  0
   11.0841   18.6351   19.7218 C   0  0  1  0  0  0  0  0  0  0  0  0
   11.0157   20.1248   20.0305 C   0  0  0  0  0  0  0  0  0  0  0  0
   10.1949   18.0166   20.6520 N   0  0  0  0  0  0  0  0  0  0  0  0
    9.3083   18.9059   21.2078 C   0  0  0  0  0  0  0  0  0  0  0  0
    8.3644   18.5590   21.8782 O   0  0  0  0  0  0  0  0  0  0  0  0
    9.6885   20.2982   20.7776 C   0  0  0  0  0  0  0  0  0  0  0  0
   12.8306   18.0624   17.3132 C   0  0  0  0  0  0  0  0  0  0  0  0
   13.9051   18.9685   17.9403 C   0  0  1  0  0  0  0  0  0  0  0  0
   15.0219   18.1623   18.3375 O   0  0  0  0  0  0  0  0  0  0  0  0
   14.3275   20.1550   17.0475 C   0  0  1  0  0  0  0  0  0  0  0  0
   15.1590   21.0716   17.8305 N   0  0  0  0  0  0  0  0  0  0  0  0
   14.7412   22.2680   18.3189 C   0  0  0  0  0  0  0  0  0  0  0  0
   13.6103   22.7227   18.1888 O   0  0  0  0  0  0  0  0  0  0  0  0
   15.7713   22.9114   18.9246 O   0  0  0  0  0  0  0  0  0  0  0  0
   15.5265   25.1830   18.1047 C   0  0  0  0  0  0  0  0  0  0  0  0
   15.5019   24.2688   19.3291 C   0  0  2  0  0  0  0  0  0  0  0  0
   16.6493   24.7991   20.1904 C   0  0  0  0  0  0  0  0  0  0  0  0
   17.7180   25.2018   19.1809 C   0  0  1  0  0  0  0  0  0  0  0  0
   18.4978   24.0700   18.7792 O   0  0  0  0  0  0  0  0  0  0  0  0
   18.5244   23.9737   17.3528 C   0  0  0  0  0  0  0  0  0  0  0  0
   17.6951   25.1053   16.7876 C   0  0  0  0  0  0  0  0  0  0  0  0
   16.9645   25.7032   17.9666 C   0  0  1  0  0  0  0  0  0  0  0  0
   15.0792   19.7428   15.7705 C   0  0  0  0  0  0  0  0  0  0  0  0
   16.7155   21.3850   14.7677 C   0  0  0  0  0  0  0  0  0  0  0  0
   16.9902   22.5476   14.0481 C   0  0  0  0  0  0  0  0  0  0  0  0
   15.9733   23.2052   13.3601 C   0  0  0  0  0  0  0  0  0  0  0  0
   14.6724   22.7167   13.4274 C   0  0  0  0  0  0  0  0  0  0  0  0
   14.3842   21.5947   14.2016 C   0  0  0  0  0  0  0  0  0  0  0  0
   15.4018   20.9237   14.8874 C   0  0  0  0  0  0  0  0  0  0  0  0
    6.0840   13.1332   14.3748 H   0  0  0  0  0  0  0  0  0  0  0  0
    5.8480   14.8641   14.0676 H   0  0  0  0  0  0  0  0  0  0  0  0
    6.1953   14.2705   15.7332 H   0  0  0  0  0  0  0  0  0  0  0  0
    6.6681   16.5736   15.4282 H   0  0  0  0  0  0  0  0  0  0  0  0
    7.9638   18.6065   15.9445 H   0  0  0  0  0  0  0  0  0  0  0  0
   11.5408   16.6837   14.5432 H   0  0  0  0  0  0  0  0  0  0  0  0
   10.2038   14.7469   13.8196 H   0  0  0  0  0  0  0  0  0  0  0  0
   10.4409   17.2241   18.2415 H   0  0  0  0  0  0  0  0  0  0  0  0
    9.6256   18.7986   18.1691 H   0  0  0  0  0  0  0  0  0  0  0  0
   12.0863   18.2357   19.9219 H   0  0  0  0  0  0  0  0  0  0  0  0
   11.0679   20.7326   19.1182 H   0  0  0  0  0  0  0  0  0  0  0  0
   11.8642   20.4319   20.6613 H   0  0  0  0  0  0  0  0  0  0  0  0
   10.0527   17.0253   20.7822 H   0  0  0  0  0  0  0  0  0  0  0  0
    8.9345   20.7389   20.1054 H   0  0  0  0  0  0  0  0  0  0  0  0
    9.8197   20.9345   21.6606 H   0  0  0  0  0  0  0  0  0  0  0  0
   13.1263   17.7730   16.3071 H   0  0  0  0  0  0  0  0  0  0  0  0
   12.7618   17.1315   17.8922 H   0  0  0  0  0  0  0  0  0  0  0  0
   13.5095   19.4004   18.8644 H   0  0  0  0  0  0  0  0  0  0  0  0
   15.3637   17.7022   17.5531 H   0  0  0  0  0  0  0  0  0  0  0  0
   13.4097   20.6788   16.7597 H   0  0  0  0  0  0  0  0  0  0  0  0
   16.1223   20.8209   18.0088 H   0  0  0  0  0  0  0  0  0  0  0  0
   14.8430   26.0282   18.2544 H   0  0  0  0  0  0  0  0  0  0  0  0
   15.2158   24.6490   17.2042 H   0  0  0  0  0  0  0  0  0  0  0  0
   14.5456   24.3135   19.8652 H   0  0  0  0  0  0  0  0  0  0  0  0
   17.0198   24.0404   20.8823 H   0  0  0  0  0  0  0  0  0  0  0  0
   16.3221   25.6862   20.7520 H   0  0  0  0  0  0  0  0  0  0  0  0
   18.3933   25.9592   19.5947 H   0  0  0  0  0  0  0  0  0  0  0  0
   18.1295   22.9969   17.0528 H   0  0  0  0  0  0  0  0  0  0  0  0
   19.5656   24.0267   17.0145 H   0  0  0  0  0  0  0  0  0  0  0  0
   17.0115   24.7416   16.0163 H   0  0  0  0  0  0  0  0  0  0  0  0
   18.3476   25.8486   16.3174 H   0  0  0  0  0  0  0  0  0  0  0  0
   16.9545   26.7982   17.9273 H   0  0  0  0  0  0  0  0  0  0  0  0
   14.4764   19.0425   15.1868 H   0  0  0  0  0  0  0  0  0  0  0  0
   16.0142   19.2308   16.0290 H   0  0  0  0  0  0  0  0  0  0  0  0
   17.5292   20.8382   15.2362 H   0  0  0  0  0  0  0  0  0  0  0  0
   17.9998   22.9458   14.0304 H   0  0  0  0  0  0  0  0  0  0  0  0
   16.1934   24.0885   12.7662 H   0  0  0  0  0  0  0  0  0  0  0  0
   13.8732   23.2108   12.8839 H   0  0  0  0  0  0  0  0  0  0  0  0
   13.3603   21.2382   14.2632 H   0  0  0  0  0  0  0  0  0  0  0  0
  1  2  1  0  0  0  0
  1  3  1  0  0  0  0
  2 43  1  0  0  0  0
  2 44  1  0  0  0  0
  2 45  1  0  0  0  0
  3  4  2  0  0  0  0
  3  8  1  0  0  0  0
  4  5  1  0  0  0  0
  4 46  1  0  0  0  0
  5  6  2  0  0  0  0
  5 47  1  0  0  0  0
  6  7  1  0  0  0  0
  6  9  1  0  0  0  0
  7  8  2  0  0  0  0
  7 48  1  0  0  0  0
  8 49  1  0  0  0  0
  9 10  2  0  0  0  0
  9 11  2  0  0  0  0
  9 12  1  0  0  0  0
 12 13  1  0  0  0  0
 12 20  1  0  0  0  0
 13 14  1  0  0  0  0
 13 50  1  0  0  0  0
 13 51  1  0  0  0  0
 14 15  1  0  0  0  0
 14 16  1  0  0  0  0
 14 52  1  1  0  0  0
 15 19  1  0  0  0  0
 15 53  1  0  0  0  0
 15 54  1  0  0  0  0
 16 17  1  0  0  0  0
 16 55  1  0  0  0  0
 17 18  2  0  0  0  0
 17 19  1  0  0  0  0
 19 56  1  0  0  0  0
 19 57  1  0  0  0  0
 20 21  1  0  0  0  0
 20 58  1  0  0  0  0
 20 59  1  0  0  0  0
 21 22  1  0  0  0  0
 21 23  1  0  0  0  0
 21 60  1  1  0  0  0
 22 61  1  0  0  0  0
 23 24  1  0  0  0  0
 23 36  1  0  0  0  0
 23 62  1  6  0  0  0
 24 25  1  0  0  0  0
 24 63  1  0  0  0  0
 25 26  2  0  0  0  0
 25 27  1  0  0  0  0
 27 29  1  0  0  0  0
 28 29  1  0  0  0  0
 28 35  1  0  0  0  0
 28 64  1  0  0  0  0
 28 65  1  0  0  0  0
 29 30  1  0  0  0  0
 29 66  1  1  0  0  0
 30 31  1  0  0  0  0
 30 67  1  0  0  0  0
 30 68  1  0  0  0  0
 31 32  1  0  0  0  0
 31 35  1  0  0  0  0
 31 69  1  1  0  0  0
 32 33  1  0  0  0  0
 33 34  1  0  0  0  0
 33 70  1  0  0  0  0
 33 71  1  0  0  0  0
 34 35  1  0  0  0  0
 34 72  1  0  0  0  0
 34 73  1  0  0  0  0
 35 74  1  6  0  0  0
 36 42  1  0  0  0  0
 36 75  1  0  0  0  0
 36 76  1  0  0  0  0
 37 38  2  0  0  0  0
 37 42  1  0  0  0  0
 37 77  1  0  0  0  0
 38 39  1  0  0  0  0
 38 78  1  0  0  0  0
 39 40  2  0  0  0  0
 39 79  1  0  0  0  0
 40 41  1  0  0  0  0
 40 80  1  0  0  0  0
 41 42  2  0  0  0  0
 41 81  1  0  0  0  0
M  END
$$$$
