031
 OpenBabel04091916193D

 81 85  0  0  1  0  0  0  0  0999 V2000
   -7.4979  -14.1275   14.8365 O   0  0  0  0  0  0  0  0  0  0  0  0
   -6.1084  -14.1814   15.1624 C   0  0  0  0  0  0  0  0  0  0  0  0
   -8.1636  -15.3028   15.0547 C   0  0  0  0  0  0  0  0  0  0  0  0
   -7.5865  -16.4348   15.6246 C   0  0  0  0  0  0  0  0  0  0  0  0
   -8.3449  -17.5819   15.8218 C   0  0  0  0  0  0  0  0  0  0  0  0
   -9.7101  -17.5698   15.5255 C   0  0  0  0  0  0  0  0  0  0  0  0
  -10.2801  -16.4604   14.9176 C   0  0  0  0  0  0  0  0  0  0  0  0
   -9.4941  -15.3407   14.6494 C   0  0  0  0  0  0  0  0  0  0  0  0
  -10.6911  -19.0048   15.8871 S   0  0  0  0  0  0  0  0  0  0  0  0
  -11.7635  -19.0808   14.9173 O   0  0  0  0  0  0  0  0  0  0  0  0
   -9.7764  -20.0945   16.1004 O   0  0  0  0  0  0  0  0  0  0  0  0
  -11.4131  -18.6917   17.3888 N   0  0  0  0  0  0  0  0  0  0  0  0
  -10.4851  -18.3799   18.4830 C   0  0  0  0  0  0  0  0  0  0  0  0
  -10.9355  -18.8792   19.8551 C   0  0  1  0  0  0  0  0  0  0  0  0
  -11.2321  -20.3730   19.9457 C   0  0  0  0  0  0  0  0  0  0  0  0
   -9.8994  -18.6687   20.8252 N   0  0  0  0  0  0  0  0  0  0  0  0
   -9.2539  -19.8513   21.1898 C   0  0  0  0  0  0  0  0  0  0  0  0
   -8.3113  -19.9398   21.9243 O   0  0  0  0  0  0  0  0  0  0  0  0
   -9.9659  -20.9970   20.5104 C   0  0  0  0  0  0  0  0  0  0  0  0
  -12.6932  -17.9693   17.3750 C   0  0  0  0  0  0  0  0  0  0  0  0
  -13.8186  -18.8376   17.9464 C   0  0  1  0  0  0  0  0  0  0  0  0
  -14.9952  -18.0609   18.2040 O   0  0  0  0  0  0  0  0  0  0  0  0
  -14.2021  -20.0023   17.0273 C   0  0  1  0  0  0  0  0  0  0  0  0
  -15.0625  -20.9131   17.7786 N   0  0  0  0  0  0  0  0  0  0  0  0
  -14.6294  -22.1135   18.2371 C   0  0  0  0  0  0  0  0  0  0  0  0
  -13.5114  -22.5371   18.1081 O   0  0  0  0  0  0  0  0  0  0  0  0
  -15.6411  -22.7773   18.8430 O   0  0  0  0  0  0  0  0  0  0  0  0
  -15.4090  -25.0064   17.8630 C   0  0  0  0  0  0  0  0  0  0  0  0
  -15.3542  -24.1593   19.1376 C   0  0  2  0  0  0  0  0  0  0  0  0
  -16.5181  -24.6585   19.9800 C   0  0  0  0  0  0  0  0  0  0  0  0
  -17.5901  -25.0431   18.9594 C   0  0  1  0  0  0  0  0  0  0  0  0
  -18.3759  -23.9046   18.5514 O   0  0  0  0  0  0  0  0  0  0  0  0
  -18.2014  -23.6779   17.1422 C   0  0  0  0  0  0  0  0  0  0  0  0
  -17.5970  -24.9345   16.5737 C   0  0  0  0  0  0  0  0  0  0  0  0
  -16.8457  -25.5334   17.7369 C   0  0  1  0  0  0  0  0  0  0  0  0
  -14.9198  -19.5584   15.7486 C   0  0  0  0  0  0  0  0  0  0  0  0
  -16.5675  -21.2063   14.7635 C   0  0  0  0  0  0  0  0  0  0  0  0
  -16.8992  -22.3098   13.9720 C   0  0  0  0  0  0  0  0  0  0  0  0
  -15.8826  -23.0307   13.3640 C   0  0  0  0  0  0  0  0  0  0  0  0
  -14.5658  -22.5759   13.4534 C   0  0  0  0  0  0  0  0  0  0  0  0
  -14.2414  -21.4527   14.2162 C   0  0  0  0  0  0  0  0  0  0  0  0
  -15.2461  -20.7566   14.8860 C   0  0  0  0  0  0  0  0  0  0  0  0
   -5.6629  -13.2094   14.9433 H   0  0  0  0  0  0  0  0  0  0  0  0
   -5.6127  -14.9463   14.5538 H   0  0  0  0  0  0  0  0  0  0  0  0
   -5.9797  -14.3979   16.2288 H   0  0  0  0  0  0  0  0  0  0  0  0
   -6.5377  -16.4435   15.8965 H   0  0  0  0  0  0  0  0  0  0  0  0
   -7.8817  -18.4706   16.2350 H   0  0  0  0  0  0  0  0  0  0  0  0
  -11.3350  -16.4573   14.6712 H   0  0  0  0  0  0  0  0  0  0  0  0
   -9.9273  -14.5072   14.1054 H   0  0  0  0  0  0  0  0  0  0  0  0
  -10.3833  -17.2912   18.5355 H   0  0  0  0  0  0  0  0  0  0  0  0
   -9.5135  -18.8175   18.2543 H   0  0  0  0  0  0  0  0  0  0  0  0
  -11.8178  -18.3118   20.1455 H   0  0  0  0  0  0  0  0  0  0  0  0
  -11.4869  -20.8124   18.9772 H   0  0  0  0  0  0  0  0  0  0  0  0
  -12.0807  -20.5454   20.6287 H   0  0  0  0  0  0  0  0  0  0  0  0
   -9.6112  -17.7831   21.2338 H   0  0  0  0  0  0  0  0  0  0  0  0
   -9.3360  -21.4046   19.7241 H   0  0  0  0  0  0  0  0  0  0  0  0
  -10.1834  -21.7570   21.2598 H   0  0  0  0  0  0  0  0  0  0  0  0
  -12.9442  -17.6778   16.3581 H   0  0  0  0  0  0  0  0  0  0  0  0
  -12.5990  -17.0635   17.9716 H   0  0  0  0  0  0  0  0  0  0  0  0
  -13.4764  -19.2514   18.8969 H   0  0  0  0  0  0  0  0  0  0  0  0
  -14.7903  -17.3751   18.8597 H   0  0  0  0  0  0  0  0  0  0  0  0
  -13.2915  -20.5340   16.7512 H   0  0  0  0  0  0  0  0  0  0  0  0
  -16.0085  -20.6339   17.9643 H   0  0  0  0  0  0  0  0  0  0  0  0
  -14.7238  -25.8607   17.9441 H   0  0  0  0  0  0  0  0  0  0  0  0
  -15.1342  -24.4199   16.9832 H   0  0  0  0  0  0  0  0  0  0  0  0
  -14.3868  -24.2593   19.6504 H   0  0  0  0  0  0  0  0  0  0  0  0
  -16.8759  -23.8743   20.6511 H   0  0  0  0  0  0  0  0  0  0  0  0
  -16.2182  -25.5375   20.5600 H   0  0  0  0  0  0  0  0  0  0  0  0
  -18.2593  -25.8057   19.3748 H   0  0  0  0  0  0  0  0  0  0  0  0
  -17.5340  -22.8211   16.9902 H   0  0  0  0  0  0  0  0  0  0  0  0
  -19.1672  -23.4496   16.6783 H   0  0  0  0  0  0  0  0  0  0  0  0
  -16.9466  -24.7206   15.7260 H   0  0  0  0  0  0  0  0  0  0  0  0
  -18.3902  -25.6182   16.2465 H   0  0  0  0  0  0  0  0  0  0  0  0
  -16.8303  -26.6233   17.6672 H   0  0  0  0  0  0  0  0  0  0  0  0
  -14.2785  -18.8786   15.1770 H   0  0  0  0  0  0  0  0  0  0  0  0
  -15.8393  -19.0039   15.9969 H   0  0  0  0  0  0  0  0  0  0  0  0
  -17.3577  -20.6940   15.3018 H   0  0  0  0  0  0  0  0  0  0  0  0
  -17.9429  -22.5846   13.8448 H   0  0  0  0  0  0  0  0  0  0  0  0
  -16.1041  -23.9457   12.8233 H   0  0  0  0  0  0  0  0  0  0  0  0
  -13.7844  -23.0983   12.9076 H   0  0  0  0  0  0  0  0  0  0  0  0
  -13.2062  -21.1271   14.2929 H   0  0  0  0  0  0  0  0  0  0  0  0
  1  2  1  0  0  0  0
  1  3  1  0  0  0  0
  2 43  1  0  0  0  0
  2 44  1  0  0  0  0
  2 45  1  0  0  0  0
  3  4  2  0  0  0  0
  3  8  1  0  0  0  0
  4  5  1  0  0  0  0
  4 46  1  0  0  0  0
  5  6  2  0  0  0  0
  5 47  1  0  0  0  0
  6  7  1  0  0  0  0
  6  9  1  0  0  0  0
  7  8  2  0  0  0  0
  7 48  1  0  0  0  0
  8 49  1  0  0  0  0
  9 10  2  0  0  0  0
  9 11  2  0  0  0  0
  9 12  1  0  0  0  0
 12 13  1  0  0  0  0
 12 20  1  0  0  0  0
 13 14  1  0  0  0  0
 13 50  1  0  0  0  0
 13 51  1  0  0  0  0
 14 15  1  0  0  0  0
 14 16  1  0  0  0  0
 14 52  1  1  0  0  0
 15 19  1  0  0  0  0
 15 53  1  0  0  0  0
 15 54  1  0  0  0  0
 16 17  1  0  0  0  0
 16 55  1  0  0  0  0
 17 18  2  0  0  0  0
 17 19  1  0  0  0  0
 19 56  1  0  0  0  0
 19 57  1  0  0  0  0
 20 21  1  0  0  0  0
 20 58  1  0  0  0  0
 20 59  1  0  0  0  0
 21 22  1  0  0  0  0
 21 23  1  0  0  0  0
 21 60  1  1  0  0  0
 22 61  1  0  0  0  0
 23 24  1  0  0  0  0
 23 36  1  0  0  0  0
 23 62  1  6  0  0  0
 24 25  1  0  0  0  0
 24 63  1  0  0  0  0
 25 26  2  0  0  0  0
 25 27  1  0  0  0  0
 27 29  1  0  0  0  0
 28 29  1  0  0  0  0
 28 35  1  0  0  0  0
 28 64  1  0  0  0  0
 28 65  1  0  0  0  0
 29 30  1  0  0  0  0
 29 66  1  1  0  0  0
 30 31  1  0  0  0  0
 30 67  1  0  0  0  0
 30 68  1  0  0  0  0
 31 32  1  0  0  0  0
 31 35  1  0  0  0  0
 31 69  1  1  0  0  0
 32 33  1  0  0  0  0
 33 34  1  0  0  0  0
 33 70  1  0  0  0  0
 33 71  1  0  0  0  0
 34 35  1  0  0  0  0
 34 72  1  0  0  0  0
 34 73  1  0  0  0  0
 35 74  1  6  0  0  0
 36 42  1  0  0  0  0
 36 75  1  0  0  0  0
 36 76  1  0  0  0  0
 37 38  2  0  0  0  0
 37 42  1  0  0  0  0
 37 77  1  0  0  0  0
 38 39  1  0  0  0  0
 38 78  1  0  0  0  0
 39 40  2  0  0  0  0
 39 79  1  0  0  0  0
 40 41  1  0  0  0  0
 40 80  1  0  0  0  0
 41 42  2  0  0  0  0
 41 81  1  0  0  0  0
M  END
$$$$
