031
 OpenBabel04091916203D

 81 85  0  0  1  0  0  0  0  0999 V2000
   21.7172   29.0082   14.5870 O   0  0  0  0  0  0  0  0  0  0  0  0
   23.1126   28.7433   14.7390 C   0  0  0  0  0  0  0  0  0  0  0  0
   20.9786   27.8746   14.8161 C   0  0  0  0  0  0  0  0  0  0  0  0
   21.5285   26.7288   15.4003 C   0  0  0  0  0  0  0  0  0  0  0  0
   20.7622   25.6116   15.6445 C   0  0  0  0  0  0  0  0  0  0  0  0
   19.4128   25.6459   15.3318 C   0  0  0  0  0  0  0  0  0  0  0  0
   18.8404   26.7676   14.7313 C   0  0  0  0  0  0  0  0  0  0  0  0
   19.6347   27.8833   14.4572 C   0  0  0  0  0  0  0  0  0  0  0  0
   18.4402   24.1963   15.6468 S   0  0  0  0  0  0  0  0  0  0  0  0
   17.3943   24.1267   14.6443 O   0  0  0  0  0  0  0  0  0  0  0  0
   19.3592   23.0970   15.8390 O   0  0  0  0  0  0  0  0  0  0  0  0
   17.7360   24.5131   17.1416 N   0  0  0  0  0  0  0  0  0  0  0  0
   18.6841   24.8335   18.2139 C   0  0  0  0  0  0  0  0  0  0  0  0
   18.1028   24.5245   19.5843 C   0  0  1  0  0  0  0  0  0  0  0  0
   18.0859   23.0265   19.8586 C   0  0  0  0  0  0  0  0  0  0  0  0
   18.9484   25.0773   20.5864 N   0  0  0  0  0  0  0  0  0  0  0  0
   19.7741   24.1316   21.1280 C   0  0  0  0  0  0  0  0  0  0  0  0
   20.6798   24.3922   21.8904 O   0  0  0  0  0  0  0  0  0  0  0  0
   19.3926   22.7730   20.5992 C   0  0  0  0  0  0  0  0  0  0  0  0
   16.4721   25.2587   17.2276 C   0  0  0  0  0  0  0  0  0  0  0  0
   15.3547   24.3339   17.7416 C   0  0  1  0  0  0  0  0  0  0  0  0
   14.1897   25.0907   18.0872 O   0  0  0  0  0  0  0  0  0  0  0  0
   15.0117   23.1934   16.7699 C   0  0  1  0  0  0  0  0  0  0  0  0
   14.0991   22.2754   17.4434 N   0  0  0  0  0  0  0  0  0  0  0  0
   14.4666   21.1084   18.0003 C   0  0  0  0  0  0  0  0  0  0  0  0
   15.6282   20.6621   17.9486 O   0  0  0  0  0  0  0  0  0  0  0  0
   13.4196   20.4419   18.4958 O   0  0  0  0  0  0  0  0  0  0  0  0
   13.6935   18.2216   17.5400 C   0  0  0  0  0  0  0  0  0  0  0  0
   13.6928   19.0601   18.8224 C   0  0  2  0  0  0  0  0  0  0  0  0
   12.5164   18.5264   19.6266 C   0  0  0  0  0  0  0  0  0  0  0  0
   11.4759   18.1968   18.5613 C   0  0  1  0  0  0  0  0  0  0  0  0
   10.6781   19.3352   18.2172 O   0  0  0  0  0  0  0  0  0  0  0  0
   10.6902   19.5321   16.8009 C   0  0  0  0  0  0  0  0  0  0  0  0
   11.5401   18.4502   16.1790 C   0  0  0  0  0  0  0  0  0  0  0  0
   12.2454   17.7713   17.3265 C   0  0  1  0  0  0  0  0  0  0  0  0
   14.3980   23.6765   15.4434 C   0  0  0  0  0  0  0  0  0  0  0  0
   12.6988   22.1927   14.2901 C   0  0  0  0  0  0  0  0  0  0  0  0
   12.3591   21.0563   13.5520 C   0  0  0  0  0  0  0  0  0  0  0  0
   13.3578   20.3100   12.9372 C   0  0  0  0  0  0  0  0  0  0  0  0
   14.6935   20.6354   13.1641 C   0  0  0  0  0  0  0  0  0  0  0  0
   15.0325   21.7232   13.9704 C   0  0  0  0  0  0  0  0  0  0  0  0
   14.0362   22.5228   14.5357 C   0  0  0  0  0  0  0  0  0  0  0  0
   23.6938   29.6462   14.5750 H   0  0  0  0  0  0  0  0  0  0  0  0
   23.4134   27.9781   14.0101 H   0  0  0  0  0  0  0  0  0  0  0  0
   23.3310   28.4121   15.7632 H   0  0  0  0  0  0  0  0  0  0  0  0
   22.5748   26.6721   15.6757 H   0  0  0  0  0  0  0  0  0  0  0  0
   21.2345   24.7376   16.0879 H   0  0  0  0  0  0  0  0  0  0  0  0
   17.7899   26.7702   14.4797 H   0  0  0  0  0  0  0  0  0  0  0  0
   19.1959   28.7438   13.9593 H   0  0  0  0  0  0  0  0  0  0  0  0
   18.9236   25.9006   18.1488 H   0  0  0  0  0  0  0  0  0  0  0  0
   19.6121   24.2683   18.0799 H   0  0  0  0  0  0  0  0  0  0  0  0
   17.1079   24.9534   19.7183 H   0  0  0  0  0  0  0  0  0  0  0  0
   18.0169   22.4359   18.9382 H   0  0  0  0  0  0  0  0  0  0  0  0
   17.2247   22.7554   20.4837 H   0  0  0  0  0  0  0  0  0  0  0  0
   19.0604   26.0609   20.8071 H   0  0  0  0  0  0  0  0  0  0  0  0
   20.1609   22.3937   19.9196 H   0  0  0  0  0  0  0  0  0  0  0  0
   19.2513   22.0821   21.4333 H   0  0  0  0  0  0  0  0  0  0  0  0
   16.2181   25.6822   16.2634 H   0  0  0  0  0  0  0  0  0  0  0  0
   16.5910   26.1078   17.9181 H   0  0  0  0  0  0  0  0  0  0  0  0
   15.6875   23.8666   18.6738 H   0  0  0  0  0  0  0  0  0  0  0  0
   13.8649   25.5364   17.2880 H   0  0  0  0  0  0  0  0  0  0  0  0
   15.9439   22.6618   16.5469 H   0  0  0  0  0  0  0  0  0  0  0  0
   13.1291   22.5475   17.5517 H   0  0  0  0  0  0  0  0  0  0  0  0
   14.3311   17.3349   17.6589 H   0  0  0  0  0  0  0  0  0  0  0  0
   14.0645   18.7874   16.6806 H   0  0  0  0  0  0  0  0  0  0  0  0
   14.6404   18.9691   19.3742 H   0  0  0  0  0  0  0  0  0  0  0  0
   12.1499   19.2741   20.3365 H   0  0  0  0  0  0  0  0  0  0  0  0
   12.8018   17.6156   20.1688 H   0  0  0  0  0  0  0  0  0  0  0  0
   10.8095   17.4057   18.9127 H   0  0  0  0  0  0  0  0  0  0  0  0
   11.0955   20.5258   16.5803 H   0  0  0  0  0  0  0  0  0  0  0  0
    9.6616   19.4993   16.4210 H   0  0  0  0  0  0  0  0  0  0  0  0
   12.2311   18.8707   15.4461 H   0  0  0  0  0  0  0  0  0  0  0  0
   10.8961   17.7354   15.6525 H   0  0  0  0  0  0  0  0  0  0  0  0
   12.2279   16.6839   17.2025 H   0  0  0  0  0  0  0  0  0  0  0  0
   15.1006   24.3268   14.9155 H   0  0  0  0  0  0  0  0  0  0  0  0
   13.5109   24.2896   15.6365 H   0  0  0  0  0  0  0  0  0  0  0  0
   11.9071   22.8332   14.6636 H   0  0  0  0  0  0  0  0  0  0  0  0
   11.3187   20.7529   13.4624 H   0  0  0  0  0  0  0  0  0  0  0  0
   13.1000   19.4847   12.2780 H   0  0  0  0  0  0  0  0  0  0  0  0
   15.4800   20.0337   12.7196 H   0  0  0  0  0  0  0  0  0  0  0  0
   16.0800   21.9589   14.1428 H   0  0  0  0  0  0  0  0  0  0  0  0
  1  2  1  0  0  0  0
  1  3  1  0  0  0  0
  2 43  1  0  0  0  0
  2 44  1  0  0  0  0
  2 45  1  0  0  0  0
  3  4  2  0  0  0  0
  3  8  1  0  0  0  0
  4  5  1  0  0  0  0
  4 46  1  0  0  0  0
  5  6  2  0  0  0  0
  5 47  1  0  0  0  0
  6  7  1  0  0  0  0
  6  9  1  0  0  0  0
  7  8  2  0  0  0  0
  7 48  1  0  0  0  0
  8 49  1  0  0  0  0
  9 10  2  0  0  0  0
  9 11  2  0  0  0  0
  9 12  1  0  0  0  0
 12 13  1  0  0  0  0
 12 20  1  0  0  0  0
 13 14  1  0  0  0  0
 13 50  1  0  0  0  0
 13 51  1  0  0  0  0
 14 15  1  0  0  0  0
 14 16  1  0  0  0  0
 14 52  1  1  0  0  0
 15 19  1  0  0  0  0
 15 53  1  0  0  0  0
 15 54  1  0  0  0  0
 16 17  1  0  0  0  0
 16 55  1  0  0  0  0
 17 18  2  0  0  0  0
 17 19  1  0  0  0  0
 19 56  1  0  0  0  0
 19 57  1  0  0  0  0
 20 21  1  0  0  0  0
 20 58  1  0  0  0  0
 20 59  1  0  0  0  0
 21 22  1  0  0  0  0
 21 23  1  0  0  0  0
 21 60  1  1  0  0  0
 22 61  1  0  0  0  0
 23 24  1  0  0  0  0
 23 36  1  0  0  0  0
 23 62  1  6  0  0  0
 24 25  1  0  0  0  0
 24 63  1  0  0  0  0
 25 26  2  0  0  0  0
 25 27  1  0  0  0  0
 27 29  1  0  0  0  0
 28 29  1  0  0  0  0
 28 35  1  0  0  0  0
 28 64  1  0  0  0  0
 28 65  1  0  0  0  0
 29 30  1  0  0  0  0
 29 66  1  1  0  0  0
 30 31  1  0  0  0  0
 30 67  1  0  0  0  0
 30 68  1  0  0  0  0
 31 32  1  0  0  0  0
 31 35  1  0  0  0  0
 31 69  1  1  0  0  0
 32 33  1  0  0  0  0
 33 34  1  0  0  0  0
 33 70  1  0  0  0  0
 33 71  1  0  0  0  0
 34 35  1  0  0  0  0
 34 72  1  0  0  0  0
 34 73  1  0  0  0  0
 35 74  1  6  0  0  0
 36 42  1  0  0  0  0
 36 75  1  0  0  0  0
 36 76  1  0  0  0  0
 37 38  2  0  0  0  0
 37 42  1  0  0  0  0
 37 77  1  0  0  0  0
 38 39  1  0  0  0  0
 38 78  1  0  0  0  0
 39 40  2  0  0  0  0
 39 79  1  0  0  0  0
 40 41  1  0  0  0  0
 40 80  1  0  0  0  0
 41 42  2  0  0  0  0
 41 81  1  0  0  0  0
M  END
$$$$
