031
 OpenBabel04091916203D

 81 85  0  0  1  0  0  0  0  0999 V2000
    7.3506   14.1870   14.7425 O   0  0  0  0  0  0  0  0  0  0  0  0
    5.9934   14.2298   15.1576 C   0  0  0  0  0  0  0  0  0  0  0  0
    8.0223   15.3540   14.9796 C   0  0  0  0  0  0  0  0  0  0  0  0
    7.4624   16.4970   15.5485 C   0  0  0  0  0  0  0  0  0  0  0  0
    8.2495   17.6300   15.6904 C   0  0  0  0  0  0  0  0  0  0  0  0
    9.6235   17.5774   15.4427 C   0  0  0  0  0  0  0  0  0  0  0  0
   10.1813   16.4449   14.8664 C   0  0  0  0  0  0  0  0  0  0  0  0
    9.3593   15.3564   14.5845 C   0  0  0  0  0  0  0  0  0  0  0  0
   10.6396   18.9787   15.8377 S   0  0  0  0  0  0  0  0  0  0  0  0
   11.6999   19.0622   14.8859 O   0  0  0  0  0  0  0  0  0  0  0  0
    9.7436   20.0966   16.0788 O   0  0  0  0  0  0  0  0  0  0  0  0
   11.3243   18.6031   17.3322 N   0  0  0  0  0  0  0  0  0  0  0  0
   10.4108   18.1804   18.3836 C   0  0  0  0  0  0  0  0  0  0  0  0
   10.9452   18.4290   19.7877 C   0  0  1  0  0  0  0  0  0  0  0  0
   10.9240   19.9059   20.1876 C   0  0  0  0  0  0  0  0  0  0  0  0
   10.0358   17.8048   20.6875 N   0  0  0  0  0  0  0  0  0  0  0  0
    9.1011   18.6933   21.1748 C   0  0  0  0  0  0  0  0  0  0  0  0
    8.1394   18.3625   21.8069 O   0  0  0  0  0  0  0  0  0  0  0  0
    9.5253   20.0971   20.7749 C   0  0  0  0  0  0  0  0  0  0  0  0
   12.6209   17.9393   17.3618 C   0  0  0  0  0  0  0  0  0  0  0  0
   13.6604   18.8641   17.9906 C   0  0  1  0  0  0  0  0  0  0  0  0
   14.7866   18.0402   18.3307 O   0  0  0  0  0  0  0  0  0  0  0  0
   14.0546   20.0247   17.0469 C   0  0  1  0  0  0  0  0  0  0  0  0
   14.8858   20.9639   17.7874 N   0  0  0  0  0  0  0  0  0  0  0  0
   14.4534   22.1320   18.2985 C   0  0  0  0  0  0  0  0  0  0  0  0
   13.3093   22.5735   18.1894 O   0  0  0  0  0  0  0  0  0  0  0  0
   15.4612   22.7696   18.9239 O   0  0  0  0  0  0  0  0  0  0  0  0
   15.1849   25.0293   18.0743 C   0  0  0  0  0  0  0  0  0  0  0  0
   15.1628   24.1263   19.3079 C   0  0  2  0  0  0  0  0  0  0  0  0
   16.3075   24.6180   20.1863 C   0  0  0  0  0  0  0  0  0  0  0  0
   17.3735   25.0682   19.1954 C   0  0  1  0  0  0  0  0  0  0  0  0
   18.2261   23.9707   18.8224 O   0  0  0  0  0  0  0  0  0  0  0  0
   18.0956   23.7058   17.4140 C   0  0  0  0  0  0  0  0  0  0  0  0
   17.4102   24.9108   16.8170 C   0  0  0  0  0  0  0  0  0  0  0  0
   16.6308   25.5233   17.9561 C   0  0  1  0  0  0  0  0  0  0  0  0
   14.8055   19.5911   15.7778 C   0  0  0  0  0  0  0  0  0  0  0  0
   16.4752   21.2138   14.7868 C   0  0  0  0  0  0  0  0  0  0  0  0
   16.7683   22.3518   14.0340 C   0  0  0  0  0  0  0  0  0  0  0  0
   15.7528   23.0200   13.3478 C   0  0  0  0  0  0  0  0  0  0  0  0
   14.4546   22.5185   13.3606 C   0  0  0  0  0  0  0  0  0  0  0  0
   14.1582   21.3999   14.1376 C   0  0  0  0  0  0  0  0  0  0  0  0
   15.1569   20.7529   14.8758 C   0  0  0  0  0  0  0  0  0  0  0  0
    5.5265   13.2718   14.9309 H   0  0  0  0  0  0  0  0  0  0  0  0
    5.4638   15.0212   14.6163 H   0  0  0  0  0  0  0  0  0  0  0  0
    5.9407   14.4065   16.2375 H   0  0  0  0  0  0  0  0  0  0  0  0
    6.4213   16.5233   15.8651 H   0  0  0  0  0  0  0  0  0  0  0  0
    7.7979   18.5627   16.0090 H   0  0  0  0  0  0  0  0  0  0  0  0
   11.2352   16.4069   14.6335 H   0  0  0  0  0  0  0  0  0  0  0  0
    9.7546   14.4956   14.0559 H   0  0  0  0  0  0  0  0  0  0  0  0
   10.2295   17.1044   18.2638 H   0  0  0  0  0  0  0  0  0  0  0  0
    9.4678   18.7156   18.2541 H   0  0  0  0  0  0  0  0  0  0  0  0
   11.9410   18.0098   19.9372 H   0  0  0  0  0  0  0  0  0  0  0  0
   11.0979   20.5698   19.3307 H   0  0  0  0  0  0  0  0  0  0  0  0
   11.6972   20.1284   20.9438 H   0  0  0  0  0  0  0  0  0  0  0  0
    9.9459   16.8106   20.8891 H   0  0  0  0  0  0  0  0  0  0  0  0
    8.8469   20.4991   20.0229 H   0  0  0  0  0  0  0  0  0  0  0  0
    9.5479   20.7386   21.6537 H   0  0  0  0  0  0  0  0  0  0  0  0
   12.9312   17.6702   16.3566 H   0  0  0  0  0  0  0  0  0  0  0  0
   12.5563   17.0094   17.9389 H   0  0  0  0  0  0  0  0  0  0  0  0
   13.2916   19.3117   18.9277 H   0  0  0  0  0  0  0  0  0  0  0  0
   15.0968   17.6268   17.5077 H   0  0  0  0  0  0  0  0  0  0  0  0
   13.1280   20.5230   16.7529 H   0  0  0  0  0  0  0  0  0  0  0  0
   15.8627   20.7373   17.9118 H   0  0  0  0  0  0  0  0  0  0  0  0
   14.5085   25.8883   18.2138 H   0  0  0  0  0  0  0  0  0  0  0  0
   14.8751   24.4985   17.1672 H   0  0  0  0  0  0  0  0  0  0  0  0
   14.1938   24.1784   19.8212 H   0  0  0  0  0  0  0  0  0  0  0  0
   16.6886   23.8187   20.8284 H   0  0  0  0  0  0  0  0  0  0  0  0
   15.9893   25.4657   20.8044 H   0  0  0  0  0  0  0  0  0  0  0  0
   17.9935   25.8693   19.6171 H   0  0  0  0  0  0  0  0  0  0  0  0
   17.5093   22.7859   17.2796 H   0  0  0  0  0  0  0  0  0  0  0  0
   19.0954   23.5294   16.9946 H   0  0  0  0  0  0  0  0  0  0  0  0
   16.7651   24.6390   15.9824 H   0  0  0  0  0  0  0  0  0  0  0  0
   18.1546   25.6354   16.4590 H   0  0  0  0  0  0  0  0  0  0  0  0
   16.6165   26.6119   17.8918 H   0  0  0  0  0  0  0  0  0  0  0  0
   14.1934   18.8909   15.2069 H   0  0  0  0  0  0  0  0  0  0  0  0
   15.7348   19.0825   16.0584 H   0  0  0  0  0  0  0  0  0  0  0  0
   17.2705   20.6901   15.3112 H   0  0  0  0  0  0  0  0  0  0  0  0
   17.7887   22.7210   13.9822 H   0  0  0  0  0  0  0  0  0  0  0  0
   15.9727   23.9303   12.7967 H   0  0  0  0  0  0  0  0  0  0  0  0
   13.6722   22.9938   12.7741 H   0  0  0  0  0  0  0  0  0  0  0  0
   13.1376   21.0267   14.1720 H   0  0  0  0  0  0  0  0  0  0  0  0
  1  2  1  0  0  0  0
  1  3  1  0  0  0  0
  2 43  1  0  0  0  0
  2 44  1  0  0  0  0
  2 45  1  0  0  0  0
  3  4  2  0  0  0  0
  3  8  1  0  0  0  0
  4  5  1  0  0  0  0
  4 46  1  0  0  0  0
  5  6  2  0  0  0  0
  5 47  1  0  0  0  0
  6  7  1  0  0  0  0
  6  9  1  0  0  0  0
  7  8  2  0  0  0  0
  7 48  1  0  0  0  0
  8 49  1  0  0  0  0
  9 10  2  0  0  0  0
  9 11  2  0  0  0  0
  9 12  1  0  0  0  0
 12 13  1  0  0  0  0
 12 20  1  0  0  0  0
 13 14  1  0  0  0  0
 13 50  1  0  0  0  0
 13 51  1  0  0  0  0
 14 15  1  0  0  0  0
 14 16  1  0  0  0  0
 14 52  1  1  0  0  0
 15 19  1  0  0  0  0
 15 53  1  0  0  0  0
 15 54  1  0  0  0  0
 16 17  1  0  0  0  0
 16 55  1  0  0  0  0
 17 18  2  0  0  0  0
 17 19  1  0  0  0  0
 19 56  1  0  0  0  0
 19 57  1  0  0  0  0
 20 21  1  0  0  0  0
 20 58  1  0  0  0  0
 20 59  1  0  0  0  0
 21 22  1  0  0  0  0
 21 23  1  0  0  0  0
 21 60  1  1  0  0  0
 22 61  1  0  0  0  0
 23 24  1  0  0  0  0
 23 36  1  0  0  0  0
 23 62  1  6  0  0  0
 24 25  1  0  0  0  0
 24 63  1  0  0  0  0
 25 26  2  0  0  0  0
 25 27  1  0  0  0  0
 27 29  1  0  0  0  0
 28 29  1  0  0  0  0
 28 35  1  0  0  0  0
 28 64  1  0  0  0  0
 28 65  1  0  0  0  0
 29 30  1  0  0  0  0
 29 66  1  1  0  0  0
 30 31  1  0  0  0  0
 30 67  1  0  0  0  0
 30 68  1  0  0  0  0
 31 32  1  0  0  0  0
 31 35  1  0  0  0  0
 31 69  1  1  0  0  0
 32 33  1  0  0  0  0
 33 34  1  0  0  0  0
 33 70  1  0  0  0  0
 33 71  1  0  0  0  0
 34 35  1  0  0  0  0
 34 72  1  0  0  0  0
 34 73  1  0  0  0  0
 35 74  1  6  0  0  0
 36 42  1  0  0  0  0
 36 75  1  0  0  0  0
 36 76  1  0  0  0  0
 37 38  2  0  0  0  0
 37 42  1  0  0  0  0
 37 77  1  0  0  0  0
 38 39  1  0  0  0  0
 38 78  1  0  0  0  0
 39 40  2  0  0  0  0
 39 79  1  0  0  0  0
 40 41  1  0  0  0  0
 40 80  1  0  0  0  0
 41 42  2  0  0  0  0
 41 81  1  0  0  0  0
M  END
$$$$
