031
 OpenBabel04091912513D

 81 85  0  0  1  0  0  0  0  0999 V2000
   10.7708   17.3597   20.5853 O   0  0  0  0  0  0  0  0  0  0  0  0
    9.9630   16.6657   19.6370 C   0  0  0  0  0  0  0  0  0  0  0  0
   11.8101   18.0626   20.0311 C   0  0  0  0  0  0  0  0  0  0  0  0
   12.2754   17.8800   18.7285 C   0  0  0  0  0  0  0  0  0  0  0  0
   13.3607   18.6096   18.2564 C   0  0  0  0  0  0  0  0  0  0  0  0
   13.9631   19.5486   19.0890 C   0  0  0  0  0  0  0  0  0  0  0  0
   13.5094   19.7484   20.3948 C   0  0  0  0  0  0  0  0  0  0  0  0
   12.4352   18.9935   20.8689 C   0  0  0  0  0  0  0  0  0  0  0  0
   15.3834   20.4300   18.4989 S   0  0  0  0  0  0  0  0  0  0  0  0
   16.1918   20.7794   19.6467 O   0  0  0  0  0  0  0  0  0  0  0  0
   15.9331   19.6798   17.3915 O   0  0  0  0  0  0  0  0  0  0  0  0
   14.6999   21.8549   17.8821 N   0  0  0  0  0  0  0  0  0  0  0  0
   13.7203   21.7113   16.7715 C   0  0  0  0  0  0  0  0  0  0  0  0
   13.8024   22.8742   15.7611 C   0  0  1  0  0  0  0  0  0  0  0  0
   15.2194   23.1207   15.2470 C   0  0  0  0  0  0  0  0  0  0  0  0
   13.0769   22.5889   14.5542 N   0  0  0  0  0  0  0  0  0  0  0  0
   13.8885   22.0421   13.5848 C   0  0  0  0  0  0  0  0  0  0  0  0
   13.5096   21.4580   12.5985 O   0  0  0  0  0  0  0  0  0  0  0  0
   15.3347   22.2798   13.9831 C   0  0  0  0  0  0  0  0  0  0  0  0
   14.4377   22.9682   18.8217 C   0  0  0  0  0  0  0  0  0  0  0  0
   15.2304   24.2194   18.3908 C   0  0  1  0  0  0  0  0  0  0  0  0
   14.6964   25.4026   18.9964 O   0  0  0  0  0  0  0  0  0  0  0  0
   16.7569   24.0999   18.5579 C   0  0  1  0  0  0  0  0  0  0  0  0
   17.3975   25.1587   17.7818 N   0  0  0  0  0  0  0  0  0  0  0  0
   18.2758   24.9110   16.7703 C   0  0  0  0  0  0  0  0  0  0  0  0
   18.5125   23.8116   16.2912 O   0  0  0  0  0  0  0  0  0  0  0  0
   18.8275   26.0782   16.3559 O   0  0  0  0  0  0  0  0  0  0  0  0
   21.0647   25.2811   15.6775 C   0  0  0  0  0  0  0  0  0  0  0  0
   19.7496   25.9537   15.2617 C   0  0  2  0  0  0  0  0  0  0  0  0
   20.1607   27.3506   14.8052 C   0  0  0  0  0  0  0  0  0  0  0  0
   21.3227   27.7075   15.7158 C   0  0  1  0  0  0  0  0  0  0  0  0
   20.8790   28.1819   16.9906 O   0  0  0  0  0  0  0  0  0  0  0  0
   21.8859   27.8032   17.9326 C   0  0  0  0  0  0  0  0  0  0  0  0
   22.4481   26.4819   17.4530 C   0  0  0  0  0  0  0  0  0  0  0  0
   22.0624   26.4069   15.9881 C   0  0  1  0  0  0  0  0  0  0  0  0
   17.1988   24.1892   20.0264 C   0  0  0  0  0  0  0  0  0  0  0  0
   19.5460   24.9726   20.5050 C   0  0  0  0  0  0  0  0  0  0  0  0
   20.9157   24.7400   20.5926 C   0  0  0  0  0  0  0  0  0  0  0  0
   21.4200   23.4555   20.3925 C   0  0  0  0  0  0  0  0  0  0  0  0
   20.5586   22.4048   20.0792 C   0  0  0  0  0  0  0  0  0  0  0  0
   19.1910   22.6412   19.9692 C   0  0  0  0  0  0  0  0  0  0  0  0
   18.6757   23.9247   20.1902 C   0  0  0  0  0  0  0  0  0  0  0  0
    9.1724   16.1312   20.1675 H   0  0  0  0  0  0  0  0  0  0  0  0
   10.5436   15.9140   19.0914 H   0  0  0  0  0  0  0  0  0  0  0  0
    9.4981   17.3815   18.9496 H   0  0  0  0  0  0  0  0  0  0  0  0
   11.8352   17.1585   18.0489 H   0  0  0  0  0  0  0  0  0  0  0  0
   13.7242   18.4196   17.2478 H   0  0  0  0  0  0  0  0  0  0  0  0
   13.9954   20.4682   21.0466 H   0  0  0  0  0  0  0  0  0  0  0  0
   12.0919   19.1264   21.8917 H   0  0  0  0  0  0  0  0  0  0  0  0
   12.7072   21.6626   17.1890 H   0  0  0  0  0  0  0  0  0  0  0  0
   13.8796   20.7672   16.2387 H   0  0  0  0  0  0  0  0  0  0  0  0
   13.3619   23.7801   16.1961 H   0  0  0  0  0  0  0  0  0  0  0  0
   16.0094   22.8590   15.9560 H   0  0  0  0  0  0  0  0  0  0  0  0
   15.3458   24.1855   15.0010 H   0  0  0  0  0  0  0  0  0  0  0  0
   12.0758   22.5392   14.4571 H   0  0  0  0  0  0  0  0  0  0  0  0
   15.8374   21.3328   14.1873 H   0  0  0  0  0  0  0  0  0  0  0  0
   15.8613   22.8363   13.2004 H   0  0  0  0  0  0  0  0  0  0  0  0
   14.6863   22.7029   19.8524 H   0  0  0  0  0  0  0  0  0  0  0  0
   13.3664   23.1940   18.8439 H   0  0  0  0  0  0  0  0  0  0  0  0
   15.0525   24.4052   17.3383 H   0  0  0  0  0  0  0  0  0  0  0  0
   14.7866   25.3244   19.9698 H   0  0  0  0  0  0  0  0  0  0  0  0
   17.0812   23.1393   18.1394 H   0  0  0  0  0  0  0  0  0  0  0  0
   17.2159   26.1317   17.9929 H   0  0  0  0  0  0  0  0  0  0  0  0
   21.4518   24.6947   14.8361 H   0  0  0  0  0  0  0  0  0  0  0  0
   20.9455   24.5930   16.5191 H   0  0  0  0  0  0  0  0  0  0  0  0
   19.2526   25.4170   14.4441 H   0  0  0  0  0  0  0  0  0  0  0  0
   19.3394   28.0690   14.8861 H   0  0  0  0  0  0  0  0  0  0  0  0
   20.5105   27.3064   13.7672 H   0  0  0  0  0  0  0  0  0  0  0  0
   21.9660   28.4772   15.2753 H   0  0  0  0  0  0  0  0  0  0  0  0
   21.4535   27.7357   18.9346 H   0  0  0  0  0  0  0  0  0  0  0  0
   22.6592   28.5791   17.9367 H   0  0  0  0  0  0  0  0  0  0  0  0
   22.0216   25.6564   18.0296 H   0  0  0  0  0  0  0  0  0  0  0  0
   23.5320   26.4365   17.6010 H   0  0  0  0  0  0  0  0  0  0  0  0
   22.9425   26.3019   15.3434 H   0  0  0  0  0  0  0  0  0  0  0  0
   16.6513   23.4760   20.6516 H   0  0  0  0  0  0  0  0  0  0  0  0
   16.9655   25.1863   20.4212 H   0  0  0  0  0  0  0  0  0  0  0  0
   19.1639   25.9778   20.6643 H   0  0  0  0  0  0  0  0  0  0  0  0
   21.5903   25.5646   20.8008 H   0  0  0  0  0  0  0  0  0  0  0  0
   22.4879   23.2721   20.4763 H   0  0  0  0  0  0  0  0  0  0  0  0
   20.9501   21.4093   19.9004 H   0  0  0  0  0  0  0  0  0  0  0  0
   18.5372   21.8181   19.6953 H   0  0  0  0  0  0  0  0  0  0  0  0
  1  2  1  0  0  0  0
  1  3  1  0  0  0  0
  2 43  1  0  0  0  0
  2 44  1  0  0  0  0
  2 45  1  0  0  0  0
  3  4  2  0  0  0  0
  3  8  1  0  0  0  0
  4  5  1  0  0  0  0
  4 46  1  0  0  0  0
  5  6  2  0  0  0  0
  5 47  1  0  0  0  0
  6  7  1  0  0  0  0
  6  9  1  0  0  0  0
  7  8  2  0  0  0  0
  7 48  1  0  0  0  0
  8 49  1  0  0  0  0
  9 10  2  0  0  0  0
  9 11  2  0  0  0  0
  9 12  1  0  0  0  0
 12 13  1  0  0  0  0
 12 20  1  0  0  0  0
 13 14  1  0  0  0  0
 13 50  1  0  0  0  0
 13 51  1  0  0  0  0
 14 15  1  0  0  0  0
 14 16  1  0  0  0  0
 14 52  1  1  0  0  0
 15 19  1  0  0  0  0
 15 53  1  0  0  0  0
 15 54  1  0  0  0  0
 16 17  1  0  0  0  0
 16 55  1  0  0  0  0
 17 18  2  0  0  0  0
 17 19  1  0  0  0  0
 19 56  1  0  0  0  0
 19 57  1  0  0  0  0
 20 21  1  0  0  0  0
 20 58  1  0  0  0  0
 20 59  1  0  0  0  0
 21 22  1  0  0  0  0
 21 23  1  0  0  0  0
 21 60  1  6  0  0  0
 22 61  1  0  0  0  0
 23 24  1  0  0  0  0
 23 36  1  0  0  0  0
 23 62  1  6  0  0  0
 24 25  1  0  0  0  0
 24 63  1  0  0  0  0
 25 26  2  0  0  0  0
 25 27  1  0  0  0  0
 27 29  1  0  0  0  0
 28 29  1  0  0  0  0
 28 35  1  0  0  0  0
 28 64  1  0  0  0  0
 28 65  1  0  0  0  0
 29 30  1  0  0  0  0
 29 66  1  6  0  0  0
 30 31  1  0  0  0  0
 30 67  1  0  0  0  0
 30 68  1  0  0  0  0
 31 32  1  0  0  0  0
 31 35  1  0  0  0  0
 31 69  1  6  0  0  0
 32 33  1  0  0  0  0
 33 34  1  0  0  0  0
 33 70  1  0  0  0  0
 33 71  1  0  0  0  0
 34 35  1  0  0  0  0
 34 72  1  0  0  0  0
 34 73  1  0  0  0  0
 35 74  1  6  0  0  0
 36 42  1  0  0  0  0
 36 75  1  0  0  0  0
 36 76  1  0  0  0  0
 37 38  2  0  0  0  0
 37 42  1  0  0  0  0
 37 77  1  0  0  0  0
 38 39  1  0  0  0  0
 38 78  1  0  0  0  0
 39 40  2  0  0  0  0
 39 79  1  0  0  0  0
 40 41  1  0  0  0  0
 40 80  1  0  0  0  0
 41 42  2  0  0  0  0
 41 81  1  0  0  0  0
M  END
$$$$
