036
 OpenBabel04091914393D

 30 29  0  0  1  0  0  0  0  0999 V2000
   11.4684   88.4357   -7.7206 C   0  0  0  0  0  0  0  0  0  0  0  0
   10.3511   88.2247   -8.8243 C   0  0  1  0  0  0  0  0  0  0  0  0
    9.4729   89.4846   -8.8757 C   0  0  0  0  0  0  0  0  0  0  0  0
    8.4340   89.5125   -7.7425 C   0  0  0  0  0  0  0  0  0  0  0  0
    7.1219   88.8482   -8.1624 C   0  0  0  0  0  0  0  0  0  0  0  0
    6.0771   88.8717   -7.0409 C   0  0  0  0  0  0  0  0  0  0  0  0
    4.7558   88.2133   -7.4817 C   0  0  0  0  0  0  0  0  0  0  0  0
   11.0966   88.4976   -6.5132 O   0  0  0  0  0  0  0  0  0  0  0  0
   12.6867   88.5470   -8.0901 O   0  0  0  0  0  0  0  0  0  0  0  0
   10.9927   87.9587  -10.0806 O   0  0  0  0  0  0  0  0  0  0  0  0
    3.8965   88.0615   -6.3595 O   0  0  0  0  0  0  0  0  0  0  0  0
   10.2528   87.6621  -11.4899 P   0  0  0  0  0  0  0  0  0  0  0  0
   11.1835   86.6710  -12.1898 O   0  0  0  0  0  0  0  0  0  0  0  0
    8.8872   87.0687  -11.1772 O   0  0  0  0  0  0  0  0  0  0  0  0
   10.2060   89.0170  -12.2088 O   0  0  0  0  0  0  0  0  0  0  0  0
    2.2891   87.7865   -6.5692 P   0  0  0  0  0  0  0  0  0  0  0  0
    2.1717   86.7309   -7.6609 O   0  0  0  0  0  0  0  0  0  0  0  0
    1.6993   89.1434   -6.9498 O   0  0  0  0  0  0  0  0  0  0  0  0
    1.8194   87.3022   -5.2004 O   0  0  0  0  0  0  0  0  0  0  0  0
    9.7440   87.3555   -8.5398 H   0  0  0  0  0  0  0  0  0  0  0  0
    8.9576   89.5522   -9.8401 H   0  0  0  0  0  0  0  0  0  0  0  0
   10.1049   90.3804   -8.8077 H   0  0  0  0  0  0  0  0  0  0  0  0
    8.2424   90.5543   -7.4510 H   0  0  0  0  0  0  0  0  0  0  0  0
    8.8158   89.0024   -6.8566 H   0  0  0  0  0  0  0  0  0  0  0  0
    7.3190   87.8073   -8.4473 H   0  0  0  0  0  0  0  0  0  0  0  0
    6.7212   89.3627   -9.0422 H   0  0  0  0  0  0  0  0  0  0  0  0
    5.8905   89.9097   -6.7406 H   0  0  0  0  0  0  0  0  0  0  0  0
    6.4797   88.3642   -6.1567 H   0  0  0  0  0  0  0  0  0  0  0  0
    4.9796   87.2280   -7.9065 H   0  0  0  0  0  0  0  0  0  0  0  0
    4.2844   88.8306   -8.2522 H   0  0  0  0  0  0  0  0  0  0  0  0
  1  2  1  0  0  0  0
  1  8  2  0  0  0  0
  1  9  1  0  0  0  0
  2  3  1  0  0  0  0
  2 10  1  0  0  0  0
  2 20  1  1  0  0  0
  3  4  1  0  0  0  0
  3 21  1  0  0  0  0
  3 22  1  0  0  0  0
  4  5  1  0  0  0  0
  4 23  1  0  0  0  0
  4 24  1  0  0  0  0
  5  6  1  0  0  0  0
  5 25  1  0  0  0  0
  5 26  1  0  0  0  0
  6  7  1  0  0  0  0
  6 27  1  0  0  0  0
  6 28  1  0  0  0  0
  7 11  1  0  0  0  0
  7 29  1  0  0  0  0
  7 30  1  0  0  0  0
 10 12  1  0  0  0  0
 11 16  1  0  0  0  0
 12 13  2  0  0  0  0
 12 14  1  0  0  0  0
 12 15  1  0  0  0  0
 16 17  2  0  0  0  0
 16 18  1  0  0  0  0
 16 19  1  0  0  0  0
M  END
$$$$
