03H
 OpenBabel04091915493D

 19 18  0  0  1  0  0  0  0  0999 V2000
   -7.7441  -29.3872   14.5619 Cl  0  0  0  0  0  0  0  0  0  0  0  0
   -7.5061  -31.8431   13.2945 C   0  0  0  0  0  0  0  0  0  0  0  0
   -6.7742  -32.8774   13.3190 O   0  0  0  0  0  0  0  0  0  0  0  0
   -7.7018  -31.1731   14.6677 C   0  0  2  0  0  0  0  0  0  0  0  0
   -8.1254  -31.3434   12.3097 O   0  0  0  0  0  0  0  0  0  0  0  0
   -9.0146  -31.7348   15.2168 C   0  0  0  0  0  0  0  0  0  0  0  0
   -9.2300  -31.4629   16.7142 C   0  0  0  0  0  0  0  0  0  0  0  0
  -10.6945  -31.7140   17.0769 C   0  0  0  0  0  0  0  0  0  0  0  0
   -8.3304  -32.3423   17.5852 C   0  0  0  0  0  0  0  0  0  0  0  0
   -6.8516  -31.4224   15.3088 H   0  0  0  0  0  0  0  0  0  0  0  0
   -9.0563  -32.8206   15.0529 H   0  0  0  0  0  0  0  0  0  0  0  0
   -9.8520  -31.3176   14.6416 H   0  0  0  0  0  0  0  0  0  0  0  0
   -9.0079  -30.4118   16.9386 H   0  0  0  0  0  0  0  0  0  0  0  0
  -10.8720  -31.5256   18.1430 H   0  0  0  0  0  0  0  0  0  0  0  0
  -10.9843  -32.7491   16.8610 H   0  0  0  0  0  0  0  0  0  0  0  0
  -11.3563  -31.0518   16.5062 H   0  0  0  0  0  0  0  0  0  0  0  0
   -7.2741  -32.1904   17.3583 H   0  0  0  0  0  0  0  0  0  0  0  0
   -8.5588  -33.4048   17.4404 H   0  0  0  0  0  0  0  0  0  0  0  0
   -8.4754  -32.1116   18.6472 H   0  0  0  0  0  0  0  0  0  0  0  0
  1  4  1  0  0  0  0
  2  3  2  0  0  0  0
  2  4  1  0  0  0  0
  2  5  1  0  0  0  0
  4  6  1  0  0  0  0
  4 10  1  1  0  0  0
  6  7  1  0  0  0  0
  6 11  1  0  0  0  0
  6 12  1  0  0  0  0
  7  8  1  0  0  0  0
  7  9  1  0  0  0  0
  7 13  1  0  0  0  0
  8 14  1  0  0  0  0
  8 15  1  0  0  0  0
  8 16  1  0  0  0  0
  9 17  1  0  0  0  0
  9 18  1  0  0  0  0
  9 19  1  0  0  0  0
M  END
$$$$
