03X
 OpenBabel04091915513D

 65 69  0  0  1  0  0  0  0  0999 V2000
   23.4841    5.3655  -23.8691 N   0  0  0  0  0  0  0  0  0  0  0  0
   24.8554    0.5724  -12.1788 N   0  0  0  0  0  0  0  0  0  0  0  0
   20.0522    6.0775  -22.7490 C   0  0  0  0  0  0  0  0  0  0  0  0
   21.4014    5.7005  -22.6994 C   0  0  0  0  0  0  0  0  0  0  0  0
   22.1862    5.7286  -23.8699 C   0  0  0  0  0  0  0  0  0  0  0  0
   24.0442    4.9662  -22.7039 C   0  0  0  0  0  0  0  0  0  0  0  0
   23.3535    4.9149  -21.5110 C   0  0  0  0  0  0  0  0  0  0  0  0
   21.6869    4.6311  -19.2400 C   0  0  0  0  0  0  0  0  0  0  0  0
   22.0806    5.4385  -18.1753 C   0  0  0  0  0  0  0  0  0  0  0  0
   22.5982    3.4992  -16.8728 C   0  0  0  0  0  0  0  0  0  0  0  0
   21.7128    3.2450  -19.1069 C   0  0  0  0  0  0  0  0  0  0  0  0
   24.2937    0.3283  -13.3107 C   0  0  0  0  0  0  0  0  0  0  0  0
   24.3623    2.6299  -13.0859 C   0  0  0  0  0  0  0  0  0  0  0  0
   24.0179   -1.0214  -13.8190 C   0  0  0  0  0  0  0  0  0  0  0  0
   25.5420    2.5663  -10.9359 C   0  0  0  0  0  0  0  0  0  0  0  0
   27.6779    3.2161  -10.0668 C   0  0  0  0  0  0  0  0  0  0  0  0
   25.6461    3.5856   -8.8020 C   0  0  0  0  0  0  0  0  0  0  0  0
   20.4305    7.0031  -27.4378 C   0  0  0  0  0  0  0  0  0  0  0  0
   19.6137    6.9284  -26.2731 O   0  0  0  0  0  0  0  0  0  0  0  0
   20.2363    6.5183  -25.1161 C   0  0  0  0  0  0  0  0  0  0  0  0
   21.5853    6.1370  -25.0585 C   0  0  0  0  0  0  0  0  0  0  0  0
   19.4605    6.4871  -23.9437 C   0  0  0  0  0  0  0  0  0  0  0  0
   18.1464    6.8711  -24.0327 O   0  0  0  0  0  0  0  0  0  0  0  0
   17.3788    6.8205  -22.8339 C   0  0  0  0  0  0  0  0  0  0  0  0
   22.0140    5.2725  -21.5054 C   0  0  0  0  0  0  0  0  0  0  0  0
   21.2164    5.2504  -20.3689 O   0  0  0  0  0  0  0  0  0  0  0  0
   22.5508    4.8806  -16.9996 C   0  0  0  0  0  0  0  0  0  0  0  0
   22.0436    6.7647  -18.2983 F   0  0  0  0  0  0  0  0  0  0  0  0
   22.1786    2.6753  -17.9177 C   0  0  0  0  0  0  0  0  0  0  0  0
   23.1257    3.0312  -15.6707 N   0  0  0  0  0  0  0  0  0  0  0  0
   23.2669    1.7336  -15.2762 C   0  0  0  0  0  0  0  0  0  0  0  0
   22.8639    0.7586  -15.9065 O   0  0  0  0  0  0  0  0  0  0  0  0
   23.7881    1.5721  -13.8978 C   0  0  1  0  0  0  0  0  0  0  0  0
   24.2324    3.8008  -13.2210 O   0  0  0  0  0  0  0  0  0  0  0  0
   25.3881   -0.3332  -11.1706 C   0  0  0  0  0  0  0  0  0  0  0  0
   24.8604    1.9472  -11.9584 N   0  0  0  0  0  0  0  0  0  0  0  0
   26.9255    2.6511  -11.0735 C   0  0  0  0  0  0  0  0  0  0  0  0
   27.0371    3.6942   -8.9336 C   0  0  0  0  0  0  0  0  0  0  0  0
   24.8769    3.0166   -9.8015 C   0  0  0  0  0  0  0  0  0  0  0  0
   19.4713    6.0460  -21.8347 H   0  0  0  0  0  0  0  0  0  0  0  0
   25.0940    4.6763  -22.7520 H   0  0  0  0  0  0  0  0  0  0  0  0
   23.8541    4.6021  -20.6140 H   0  0  0  0  0  0  0  0  0  0  0  0
   21.3886    2.6001  -19.9188 H   0  0  0  0  0  0  0  0  0  0  0  0
   23.5092   -0.9817  -14.7791 H   0  0  0  0  0  0  0  0  0  0  0  0
   23.3803   -1.5688  -13.1256 H   0  0  0  0  0  0  0  0  0  0  0  0
   24.9611   -1.5402  -13.9573 H   0  0  0  0  0  0  0  0  0  0  0  0
   28.7488    3.2972  -10.1869 H   0  0  0  0  0  0  0  0  0  0  0  0
   25.1727    3.9624   -7.8995 H   0  0  0  0  0  0  0  0  0  0  0  0
   19.8193    7.3388  -28.2828 H   0  0  0  0  0  0  0  0  0  0  0  0
   20.8419    6.0179  -27.6832 H   0  0  0  0  0  0  0  0  0  0  0  0
   21.2423    7.7243  -27.2915 H   0  0  0  0  0  0  0  0  0  0  0  0
   22.1878    6.1545  -25.9613 H   0  0  0  0  0  0  0  0  0  0  0  0
   16.3569    7.1550  -23.0470 H   0  0  0  0  0  0  0  0  0  0  0  0
   17.8036    7.4850  -22.0729 H   0  0  0  0  0  0  0  0  0  0  0  0
   17.3299    5.7951  -22.4503 H   0  0  0  0  0  0  0  0  0  0  0  0
   22.8847    5.5251  -16.1927 H   0  0  0  0  0  0  0  0  0  0  0  0
   22.2237    1.5954  -17.8272 H   0  0  0  0  0  0  0  0  0  0  0  0
   23.4275    3.7532  -15.0182 H   0  0  0  0  0  0  0  0  0  0  0  0
   22.8158    1.5755  -13.4382 H   0  0  0  0  0  0  0  0  0  0  0  0
   25.2332   -1.3249  -11.5572 H   0  0  0  0  0  0  0  0  0  0  0  0
   24.8539   -0.2053  -10.2241 H   0  0  0  0  0  0  0  0  0  0  0  0
   26.4556   -0.1473  -11.0264 H   0  0  0  0  0  0  0  0  0  0  0  0
   27.3943    2.2762  -11.9745 H   0  0  0  0  0  0  0  0  0  0  0  0
   27.6272    4.1532   -8.1415 H   0  0  0  0  0  0  0  0  0  0  0  0
   23.7964    2.9361   -9.6919 H   0  0  0  0  0  0  0  0  0  0  0  0
  1  5  2  0  0  0  0
  1  6  1  0  0  0  0
  2 12  2  0  0  0  0
  2 35  1  0  0  0  0
  2 36  1  0  0  0  0
  3  4  1  0  0  0  0
  3 22  2  0  0  0  0
  3 40  1  0  0  0  0
  4  5  1  0  0  0  0
  4 25  2  0  0  0  0
  5 21  1  0  0  0  0
  6  7  2  0  0  0  0
  6 41  1  0  0  0  0
  7 25  1  0  0  0  0
  7 42  1  0  0  0  0
  8  9  2  0  0  0  0
  8 11  1  0  0  0  0
  8 26  1  0  0  0  0
  9 27  1  0  0  0  0
  9 28  1  0  0  0  0
 10 27  2  0  0  0  0
 10 29  1  0  0  0  0
 10 30  1  0  0  0  0
 11 29  2  0  0  0  0
 11 43  1  0  0  0  0
 12 14  1  0  0  0  0
 12 33  1  0  0  0  0
 13 33  1  0  0  0  0
 13 34  2  0  0  0  0
 13 36  1  0  0  0  0
 14 44  1  0  0  0  0
 14 45  1  0  0  0  0
 14 46  1  0  0  0  0
 15 36  1  0  0  0  0
 15 37  2  0  0  0  0
 15 39  1  0  0  0  0
 16 37  1  0  0  0  0
 16 38  2  0  0  0  0
 16 47  1  0  0  0  0
 17 38  1  0  0  0  0
 17 39  2  0  0  0  0
 17 48  1  0  0  0  0
 18 19  1  0  0  0  0
 18 49  1  0  0  0  0
 18 50  1  0  0  0  0
 18 51  1  0  0  0  0
 19 20  1  0  0  0  0
 20 21  2  0  0  0  0
 20 22  1  0  0  0  0
 21 52  1  0  0  0  0
 22 23  1  0  0  0  0
 23 24  1  0  0  0  0
 24 53  1  0  0  0  0
 24 54  1  0  0  0  0
 24 55  1  0  0  0  0
 25 26  1  0  0  0  0
 27 56  1  0  0  0  0
 29 57  1  0  0  0  0
 30 31  1  0  0  0  0
 30 58  1  0  0  0  0
 31 32  2  0  0  0  0
 31 33  1  0  0  0  0
 33 59  1  1  0  0  0
 35 60  1  0  0  0  0
 35 61  1  0  0  0  0
 35 62  1  0  0  0  0
 37 63  1  0  0  0  0
 38 64  1  0  0  0  0
 39 65  1  0  0  0  0
M  END
$$$$
