044
 OpenBabel04091915523D

 67 71  0  0  1  0  0  0  0  0999 V2000
   20.4081   -6.2910   24.8551 C   0  0  0  0  0  0  0  0  0  0  0  0
   23.5248   -4.8168   21.2257 C   0  0  0  0  0  0  0  0  0  0  0  0
   24.2178   -4.8562   22.4176 C   0  0  0  0  0  0  0  0  0  0  0  0
   23.6630   -5.2158   23.5936 N   0  0  0  0  0  0  0  0  0  0  0  0
   22.3598   -5.5541   23.5981 C   0  0  0  0  0  0  0  0  0  0  0  0
   21.5687   -5.5452   22.4317 C   0  0  0  0  0  0  0  0  0  0  0  0
   22.1778   -5.1546   21.2319 C   0  0  0  0  0  0  0  0  0  0  0  0
   21.7573   -5.9280   24.7873 C   0  0  0  0  0  0  0  0  0  0  0  0
   19.6318   -6.2667   23.6996 C   0  0  0  0  0  0  0  0  0  0  0  0
   20.2110   -5.9039   22.4888 C   0  0  0  0  0  0  0  0  0  0  0  0
   21.3750   -5.1411   20.1071 O   0  0  0  0  0  0  0  0  0  0  0  0
   21.8416   -4.5097   18.9885 C   0  0  0  0  0  0  0  0  0  0  0  0
   21.8148   -3.1215   18.8675 C   0  0  0  0  0  0  0  0  0  0  0  0
   22.3023   -5.2952   17.9417 C   0  0  0  0  0  0  0  0  0  0  0  0
   22.7785   -4.7091   16.7801 C   0  0  0  0  0  0  0  0  0  0  0  0
   22.7727   -3.3193   16.6523 C   0  0  0  0  0  0  0  0  0  0  0  0
   22.2900   -2.5272   17.6957 C   0  0  0  0  0  0  0  0  0  0  0  0
   23.2893   -2.8079   15.4545 N   0  0  0  0  0  0  0  0  0  0  0  0
   24.4517   -2.3874   12.8709 C   0  0  0  0  0  0  0  0  0  0  0  0
   24.0232   -1.2812   13.7610 C   0  0  0  0  0  0  0  0  0  0  0  0
   23.3481   -1.4903   15.0554 C   0  0  0  0  0  0  0  0  0  0  0  0
   22.8962   -0.5255   15.6814 O   0  0  0  0  0  0  0  0  0  0  0  0
   25.0287   -0.4435   11.9097 N   0  3  0  0  0  0  0  0  0  0  0  0
   24.3971   -0.1541   13.1107 C   0  0  0  0  0  0  0  0  0  0  0  0
   25.0277   -1.8076   11.7719 N   0  3  0  0  0  0  0  0  0  0  0  0
   24.3353   -3.5720   13.1324 O   0  0  0  0  0  0  0  0  0  0  0  0
   25.7224   -2.4920   10.8040 C   0  0  0  0  0  0  0  0  0  0  0  0
   27.1012   -2.6337   10.9312 C   0  0  0  0  0  0  0  0  0  0  0  0
   25.0113   -3.0234    9.7316 C   0  0  0  0  0  0  0  0  0  0  0  0
   25.7153   -3.7047    8.7535 C   0  0  0  0  0  0  0  0  0  0  0  0
   27.7929   -3.3214    9.9526 C   0  0  0  0  0  0  0  0  0  0  0  0
   27.1007   -3.8540    8.8658 C   0  0  0  0  0  0  0  0  0  0  0  0
   22.3161   -6.6284   18.0684 F   0  0  0  0  0  0  0  0  0  0  0  0
   24.2053    1.2506   13.5653 C   0  0  0  0  0  0  0  0  0  0  0  0
   25.6949    0.4287   10.9525 C   0  0  0  0  0  0  0  0  0  0  0  0
   24.7594    1.0679    9.9188 C   0  0  1  0  0  0  0  0  0  0  0  0
   25.5629    2.0692    9.0887 C   0  0  0  0  0  0  0  0  0  0  0  0
   24.1981    0.1000    9.0329 O   0  0  0  0  0  0  0  0  0  0  0  0
   19.7795   -6.6665   26.0156 O   0  0  0  0  0  0  0  0  0  0  0  0
   20.6742   -7.0745   27.0519 C   0  0  0  0  0  0  0  0  0  0  0  0
   24.0318   -4.5219   20.3192 H   0  0  0  0  0  0  0  0  0  0  0  0
   25.2708   -4.5853   22.4521 H   0  0  0  0  0  0  0  0  0  0  0  0
   22.3719   -5.9237   25.6795 H   0  0  0  0  0  0  0  0  0  0  0  0
   18.5808   -6.5365   23.7269 H   0  0  0  0  0  0  0  0  0  0  0  0
   19.6106   -5.8941   21.5800 H   0  0  0  0  0  0  0  0  0  0  0  0
   21.4416   -2.4996   19.6756 H   0  0  0  0  0  0  0  0  0  0  0  0
   23.1522   -5.3388   15.9795 H   0  0  0  0  0  0  0  0  0  0  0  0
   22.2875   -1.4443   17.6194 H   0  0  0  0  0  0  0  0  0  0  0  0
   23.6778   -3.5049   14.8182 H   0  0  0  0  0  0  0  0  0  0  0  0
   27.6067   -2.2093   11.7902 H   0  0  0  0  0  0  0  0  0  0  0  0
   23.9328   -2.8979    9.6567 H   0  0  0  0  0  0  0  0  0  0  0  0
   25.1905   -4.1225    7.9049 H   0  0  0  0  0  0  0  0  0  0  0  0
   28.8661   -3.4423   10.0406 H   0  0  0  0  0  0  0  0  0  0  0  0
   27.6473   -4.3949    8.1014 H   0  0  0  0  0  0  0  0  0  0  0  0
   23.6974    1.2687   14.5180 H   0  0  0  0  0  0  0  0  0  0  0  0
   23.5974    1.7865   12.8376 H   0  0  0  0  0  0  0  0  0  0  0  0
   25.1631    1.7590   13.6734 H   0  0  0  0  0  0  0  0  0  0  0  0
   26.4757   -0.1099   10.4076 H   0  0  0  0  0  0  0  0  0  0  0  0
   26.1747    1.2260   11.5208 H   0  0  0  0  0  0  0  0  0  0  0  0
   23.9391    1.5946   10.4127 H   0  0  0  0  0  0  0  0  0  0  0  0
   24.9341    2.5438    8.3284 H   0  0  0  0  0  0  0  0  0  0  0  0
   26.3912    1.5733    8.5658 H   0  0  0  0  0  0  0  0  0  0  0  0
   25.9834    2.8521    9.7300 H   0  0  0  0  0  0  0  0  0  0  0  0
   23.7057   -0.5341    9.5848 H   0  0  0  0  0  0  0  0  0  0  0  0
   20.0971   -7.3483   27.9379 H   0  0  0  0  0  0  0  0  0  0  0  0
   21.3435   -6.2587   27.3449 H   0  0  0  0  0  0  0  0  0  0  0  0
   21.2543   -7.9461   26.7268 H   0  0  0  0  0  0  0  0  0  0  0  0
  1  8  2  0  0  0  0
  1  9  1  0  0  0  0
  1 39  1  0  0  0  0
  2  3  2  0  0  0  0
  2  7  1  0  0  0  0
  2 41  1  0  0  0  0
  3  4  1  0  0  0  0
  3 42  1  0  0  0  0
  4  5  2  0  0  0  0
  5  6  1  0  0  0  0
  5  8  1  0  0  0  0
  6  7  2  0  0  0  0
  6 10  1  0  0  0  0
  7 11  1  0  0  0  0
  8 43  1  0  0  0  0
  9 10  2  0  0  0  0
  9 44  1  0  0  0  0
 10 45  1  0  0  0  0
 11 12  1  0  0  0  0
 12 13  2  0  0  0  0
 12 14  1  0  0  0  0
 13 17  1  0  0  0  0
 13 46  1  0  0  0  0
 14 15  2  0  0  0  0
 14 33  1  0  0  0  0
 15 16  1  0  0  0  0
 15 47  1  0  0  0  0
 16 17  2  0  0  0  0
 16 18  1  0  0  0  0
 17 48  1  0  0  0  0
 18 21  1  0  0  0  0
 18 49  1  0  0  0  0
 19 20  1  0  0  0  0
 19 25  1  0  0  0  0
 19 26  2  0  0  0  0
 20 21  1  0  0  0  0
 20 24  2  0  0  0  0
 21 22  2  0  0  0  0
 23 24  1  0  0  0  0
 23 25  2  0  0  0  0
 23 35  1  0  0  0  0
 24 34  1  0  0  0  0
 25 27  1  0  0  0  0
 27 28  2  0  0  0  0
 27 29  1  0  0  0  0
 28 31  1  0  0  0  0
 28 50  1  0  0  0  0
 29 30  2  0  0  0  0
 29 51  1  0  0  0  0
 30 32  1  0  0  0  0
 30 52  1  0  0  0  0
 31 32  2  0  0  0  0
 31 53  1  0  0  0  0
 32 54  1  0  0  0  0
 34 55  1  0  0  0  0
 34 56  1  0  0  0  0
 34 57  1  0  0  0  0
 35 36  1  0  0  0  0
 35 58  1  0  0  0  0
 35 59  1  0  0  0  0
 36 37  1  0  0  0  0
 36 38  1  0  0  0  0
 36 60  1  1  0  0  0
 37 61  1  0  0  0  0
 37 62  1  0  0  0  0
 37 63  1  0  0  0  0
 38 64  1  0  0  0  0
 39 40  1  0  0  0  0
 40 65  1  0  0  0  0
 40 66  1  0  0  0  0
 40 67  1  0  0  0  0
M  CHG  2  23   1  25   1
M  END
$$$$
