06P
 OpenBabel04091914543D

 55 57  0  0  1  0  0  0  0  0999 V2000
   16.3218  -15.5898   23.1208 N   0  3  0  0  0  0  0  0  0  0  0  0
   17.6006  -14.8307   23.1393 C   0  0  1  0  0  0  0  0  0  0  0  0
   17.3444  -13.4439   22.5644 C   0  0  0  0  0  0  0  0  0  0  0  0
   16.3839  -12.7871   22.9457 O   0  0  0  0  0  0  0  0  0  0  0  0
   18.0741  -14.7704   24.5797 C   0  0  0  0  0  0  0  0  0  0  0  0
   19.4802  -14.2651   24.6663 C   0  0  0  0  0  0  0  0  0  0  0  0
   19.7387  -13.0893   25.3679 C   0  0  0  0  0  0  0  0  0  0  0  0
   20.5376  -14.9412   24.0550 C   0  0  0  0  0  0  0  0  0  0  0  0
   21.0316  -12.5812   25.4464 C   0  0  0  0  0  0  0  0  0  0  0  0
   21.8327  -14.4315   24.1321 C   0  0  0  0  0  0  0  0  0  0  0  0
   22.0806  -13.2532   24.8316 C   0  0  0  0  0  0  0  0  0  0  0  0
   18.1637  -13.0527   21.5521 N   0  0  0  0  0  0  0  0  0  0  0  0
   17.9643  -11.7407   20.9530 C   0  0  2  0  0  0  0  0  0  0  0  0
   16.5350  -11.6443   20.3649 C   0  0  0  0  0  0  0  0  0  0  0  0
   16.0349  -12.5824   19.7771 O   0  0  0  0  0  0  0  0  0  0  0  0
   18.9808  -11.6932   19.8278 C   0  0  0  0  0  0  0  0  0  0  0  0
   20.0401  -12.7194   20.1958 C   0  0  0  0  0  0  0  0  0  0  0  0
   19.3049  -13.7666   20.9921 C   0  0  0  0  0  0  0  0  0  0  0  0
   15.8929  -10.4584   20.5863 N   0  0  0  0  0  0  0  0  0  0  0  0
   14.5468  -10.2314   20.1053 C   0  0  0  0  0  0  0  0  0  0  0  0
   13.5412  -10.4572   21.2046 C   0  0  0  0  0  0  0  0  0  0  0  0
   13.2048   -9.4444   22.0986 C   0  0  0  0  0  0  0  0  0  0  0  0
   12.2828   -9.6884   23.1081 C   0  0  0  0  0  0  0  0  0  0  0  0
   11.7154  -10.9110   23.2466 N   0  3  0  0  0  0  0  0  0  0  0  0
   10.7390  -11.1454   24.3264 C   0  0  0  0  0  0  0  0  0  0  0  0
   12.0370  -11.9105   22.3958 C   0  0  0  0  0  0  0  0  0  0  0  0
   12.9477  -11.7063   21.3711 C   0  0  0  0  0  0  0  0  0  0  0  0
   16.4619  -16.5215   23.5217 H   0  0  0  0  0  0  0  0  0  0  0  0
   15.6232  -15.0745   23.6687 H   0  0  0  0  0  0  0  0  0  0  0  0
   18.2960  -15.3926   22.5161 H   0  0  0  0  0  0  0  0  0  0  0  0
   18.0312  -15.7718   25.0236 H   0  0  0  0  0  0  0  0  0  0  0  0
   17.4084  -14.1174   25.1588 H   0  0  0  0  0  0  0  0  0  0  0  0
   18.9296  -12.5617   25.8655 H   0  0  0  0  0  0  0  0  0  0  0  0
   20.3645  -15.8552   23.4929 H   0  0  0  0  0  0  0  0  0  0  0  0
   21.2210  -11.6589   25.9935 H   0  0  0  0  0  0  0  0  0  0  0  0
   22.6559  -14.9560   23.6541 H   0  0  0  0  0  0  0  0  0  0  0  0
   23.0939  -12.8640   24.9008 H   0  0  0  0  0  0  0  0  0  0  0  0
   18.1249  -10.9516   21.6972 H   0  0  0  0  0  0  0  0  0  0  0  0
   19.4125  -10.6955   19.7444 H   0  0  0  0  0  0  0  0  0  0  0  0
   18.5168  -11.9595   18.8705 H   0  0  0  0  0  0  0  0  0  0  0  0
   20.8190  -12.2585   20.8122 H   0  0  0  0  0  0  0  0  0  0  0  0
   20.4980  -13.1583   19.3078 H   0  0  0  0  0  0  0  0  0  0  0  0
   18.9501  -14.5909   20.3631 H   0  0  0  0  0  0  0  0  0  0  0  0
   19.9306  -14.1834   21.7780 H   0  0  0  0  0  0  0  0  0  0  0  0
   16.3632   -9.7386   21.1157 H   0  0  0  0  0  0  0  0  0  0  0  0
   14.3268  -10.8980   19.2632 H   0  0  0  0  0  0  0  0  0  0  0  0
   14.4759   -9.1974   19.7485 H   0  0  0  0  0  0  0  0  0  0  0  0
   13.6562   -8.4583   22.0099 H   0  0  0  0  0  0  0  0  0  0  0  0
   11.9976   -8.9064   23.8079 H   0  0  0  0  0  0  0  0  0  0  0  0
   10.3955  -12.1818   24.2797 H   0  0  0  0  0  0  0  0  0  0  0  0
    9.8957  -10.4656   24.1874 H   0  0  0  0  0  0  0  0  0  0  0  0
   11.2295  -10.9596   25.2850 H   0  0  0  0  0  0  0  0  0  0  0  0
   11.5648  -12.8808   22.5327 H   0  0  0  0  0  0  0  0  0  0  0  0
   13.1974  -12.5229   20.6950 H   0  0  0  0  0  0  0  0  0  0  0  0
   15.9794  -15.6721   22.1551 H   0  0  0  0  0  0  0  0  0  0  0  0
  1  2  1  0  0  0  0
  1 28  1  0  0  0  0
  1 29  1  0  0  0  0
  1 55  1  0  0  0  0
  2  3  1  0  0  0  0
  2  5  1  0  0  0  0
  2 30  1  6  0  0  0
  3  4  2  0  0  0  0
  3 12  1  0  0  0  0
  5  6  1  0  0  0  0
  5 31  1  0  0  0  0
  5 32  1  0  0  0  0
  6  7  2  0  0  0  0
  6  8  1  0  0  0  0
  7  9  1  0  0  0  0
  7 33  1  0  0  0  0
  8 10  2  0  0  0  0
  8 34  1  0  0  0  0
  9 11  2  0  0  0  0
  9 35  1  0  0  0  0
 10 11  1  0  0  0  0
 10 36  1  0  0  0  0
 11 37  1  0  0  0  0
 12 13  1  0  0  0  0
 12 18  1  0  0  0  0
 13 14  1  0  0  0  0
 13 16  1  0  0  0  0
 13 38  1  1  0  0  0
 14 15  2  0  0  0  0
 14 19  1  0  0  0  0
 16 17  1  0  0  0  0
 16 39  1  0  0  0  0
 16 40  1  0  0  0  0
 17 18  1  0  0  0  0
 17 41  1  0  0  0  0
 17 42  1  0  0  0  0
 18 43  1  0  0  0  0
 18 44  1  0  0  0  0
 19 20  1  0  0  0  0
 19 45  1  0  0  0  0
 20 21  1  0  0  0  0
 20 46  1  0  0  0  0
 20 47  1  0  0  0  0
 21 22  2  0  0  0  0
 21 27  1  0  0  0  0
 22 23  1  0  0  0  0
 22 48  1  0  0  0  0
 23 24  2  0  0  0  0
 23 49  1  0  0  0  0
 24 25  1  0  0  0  0
 24 26  1  0  0  0  0
 25 50  1  0  0  0  0
 25 51  1  0  0  0  0
 25 52  1  0  0  0  0
 26 27  2  0  0  0  0
 26 53  1  0  0  0  0
 27 54  1  0  0  0  0
M  CHG  2   1   1  24   1
M  END
$$$$
