085
 OpenBabel04091915503D

 45 49  0  0  0  0  0  0  0  0999 V2000
    2.9360    7.8293    4.4475 C   0  0  0  0  0  0  0  0  0  0  0  0
    2.5785    7.3106    3.2219 C   0  0  0  0  0  0  0  0  0  0  0  0
    1.3359    6.8820    2.8713 O   0  0  0  0  0  0  0  0  0  0  0  0
    1.5472    6.5585    1.4827 C   0  0  0  0  0  0  0  0  0  0  0  0
    2.9318    6.6386    1.0815 O   0  0  0  0  0  0  0  0  0  0  0  0
    3.4897    7.1712    2.2025 C   0  0  0  0  0  0  0  0  0  0  0  0
    4.8085    7.5407    2.3563 C   0  0  0  0  0  0  0  0  0  0  0  0
    5.1966    8.0802    3.5891 C   0  0  0  0  0  0  0  0  0  0  0  0
    4.2663    8.2391    4.6381 C   0  0  0  0  0  0  0  0  0  0  0  0
    4.6517    8.7498    5.9429 C   0  0  0  0  0  0  0  0  0  0  0  0
    4.0800    8.2392    7.0879 N   0  0  0  0  0  0  0  0  0  0  0  0
    4.6496    8.8550    8.1016 C   0  0  0  0  0  0  0  0  0  0  0  0
    4.3689    8.6084    9.5100 C   0  0  0  0  0  0  0  0  0  0  0  0
    4.8826    9.4080   10.5416 C   0  0  0  0  0  0  0  0  0  0  0  0
    4.5647    9.1288   11.8732 C   0  0  0  0  0  0  0  0  0  0  0  0
    3.5429    7.5240    9.8332 C   0  0  0  0  0  0  0  0  0  0  0  0
    3.2253    7.2411   11.1570 C   0  0  0  0  0  0  0  0  0  0  0  0
    3.7271    8.0521   12.1792 C   0  0  0  0  0  0  0  0  0  0  0  0
    3.3782    7.7848   13.5936 C   0  0  0  0  0  0  0  0  0  0  0  0
    4.1483    8.0576   14.5113 O   0  0  0  0  0  0  0  0  0  0  0  0
    2.1412    7.2543   13.8145 N   0  0  0  0  0  0  0  0  0  0  0  0
    5.5642    9.7572    7.6374 N   0  3  0  0  0  0  0  0  0  0  0  0
    5.5929    9.7128    6.2621 C   0  0  0  0  0  0  0  0  0  0  0  0
    6.4818   10.5679    5.5067 C   0  0  0  0  0  0  0  0  0  0  0  0
    7.7649   10.8449    5.9693 C   0  0  0  0  0  0  0  0  0  0  0  0
    8.5802   11.6751    5.2142 C   0  0  0  0  0  0  0  0  0  0  0  0
    8.0917   12.2052    4.0279 C   0  0  0  0  0  0  0  0  0  0  0  0
    6.7978   11.8827    3.6471 C   0  0  0  0  0  0  0  0  0  0  0  0
    5.9819   11.0814    4.3649 N   0  0  0  0  0  0  0  0  0  0  0  0
    2.2055    7.9185    5.2447 H   0  0  0  0  0  0  0  0  0  0  0  0
    0.9655    7.2589    0.8708 H   0  0  0  0  0  0  0  0  0  0  0  0
    1.1770    5.5444    1.2930 H   0  0  0  0  0  0  0  0  0  0  0  0
    5.5255    7.4208    1.5530 H   0  0  0  0  0  0  0  0  0  0  0  0
    6.2349    8.3702    3.7281 H   0  0  0  0  0  0  0  0  0  0  0  0
    5.5195   10.2632   10.3361 H   0  0  0  0  0  0  0  0  0  0  0  0
    4.9551    9.7621   12.6678 H   0  0  0  0  0  0  0  0  0  0  0  0
    3.1447    6.8910    9.0401 H   0  0  0  0  0  0  0  0  0  0  0  0
    2.6021    6.3782   11.3690 H   0  0  0  0  0  0  0  0  0  0  0  0
    1.8515    7.1075   14.7705 H   0  0  0  0  0  0  0  0  0  0  0  0
    1.4483    7.1652   13.0844 H   0  0  0  0  0  0  0  0  0  0  0  0
    6.1381   10.3540    8.2123 H   0  0  0  0  0  0  0  0  0  0  0  0
    8.1368   10.4060    6.8886 H   0  0  0  0  0  0  0  0  0  0  0  0
    9.5914   11.8894    5.5467 H   0  0  0  0  0  0  0  0  0  0  0  0
    8.7073   12.8479    3.4084 H   0  0  0  0  0  0  0  0  0  0  0  0
    6.3712   12.2690    2.7263 H   0  0  0  0  0  0  0  0  0  0  0  0
  1  2  2  0  0  0  0
  1  9  1  0  0  0  0
  1 30  1  0  0  0  0
  2  3  1  0  0  0  0
  2  6  1  0  0  0  0
  3  4  1  0  0  0  0
  4  5  1  0  0  0  0
  4 31  1  0  0  0  0
  4 32  1  0  0  0  0
  5  6  1  0  0  0  0
  6  7  2  0  0  0  0
  7  8  1  0  0  0  0
  7 33  1  0  0  0  0
  8  9  2  0  0  0  0
  8 34  1  0  0  0  0
  9 10  1  0  0  0  0
 10 11  1  0  0  0  0
 10 23  2  0  0  0  0
 11 12  1  0  0  0  0
 12 13  1  0  0  0  0
 12 22  2  0  0  0  0
 13 14  2  0  0  0  0
 13 16  1  0  0  0  0
 14 15  1  0  0  0  0
 14 35  1  0  0  0  0
 15 18  2  0  0  0  0
 15 36  1  0  0  0  0
 16 17  2  0  0  0  0
 16 37  1  0  0  0  0
 17 18  1  0  0  0  0
 17 38  1  0  0  0  0
 18 19  1  0  0  0  0
 19 20  2  0  0  0  0
 19 21  1  0  0  0  0
 21 39  1  0  0  0  0
 21 40  1  0  0  0  0
 22 23  1  0  0  0  0
 22 41  1  0  0  0  0
 23 24  1  0  0  0  0
 24 25  2  0  0  0  0
 24 29  1  0  0  0  0
 25 26  1  0  0  0  0
 25 42  1  0  0  0  0
 26 27  2  0  0  0  0
 26 43  1  0  0  0  0
 27 28  1  0  0  0  0
 27 44  1  0  0  0  0
 28 29  2  0  0  0  0
 28 45  1  0  0  0  0
M  CHG  1  22   1
M  END
$$$$
