09P
 OpenBabel04091915523D

 36 37  0  0  0  0  0  0  0  0999 V2000
   86.7043   73.0330  -11.1447 C   0  0  0  0  0  0  0  0  0  0  0  0
   85.7669   73.2413  -12.2957 N   0  3  0  0  0  0  0  0  0  0  0  0
   85.5721   72.1071  -13.2460 C   0  0  0  0  0  0  0  0  0  0  0  0
   84.7582   70.9772  -12.6390 C   0  0  0  0  0  0  0  0  0  0  0  0
   85.3026   70.4588  -11.3147 C   0  0  0  0  0  0  0  0  0  0  0  0
   84.9829   71.4296  -10.2862 N   0  0  0  0  0  0  0  0  0  0  0  0
   86.0171   72.3965   -9.9214 C   0  0  0  0  0  0  0  0  0  0  0  0
   81.4160   71.3276   -8.1671 C   0  0  0  0  0  0  0  0  0  0  0  0
   81.4943   70.5432   -9.3056 C   0  0  0  0  0  0  0  0  0  0  0  0
   82.7061   70.5488   -9.9849 C   0  0  0  0  0  0  0  0  0  0  0  0
   83.7789   71.3539   -9.5517 C   0  0  0  0  0  0  0  0  0  0  0  0
   83.5546   72.1057   -8.3912 C   0  0  0  0  0  0  0  0  0  0  0  0
   82.4122   72.1296   -7.6945 N   0  0  0  0  0  0  0  0  0  0  0  0
   80.3682   69.8333   -9.6425 O   0  0  0  0  0  0  0  0  0  0  0  0
   80.2731   69.2671  -10.9498 C   0  0  0  0  0  0  0  0  0  0  0  0
   80.1895   67.7576  -10.8363 C   0  0  0  0  0  0  0  0  0  0  0  0
   87.1020   74.0155  -10.8714 H   0  0  0  0  0  0  0  0  0  0  0  0
   87.5251   72.4053  -11.5029 H   0  0  0  0  0  0  0  0  0  0  0  0
   84.8372   73.5028  -11.9054 H   0  0  0  0  0  0  0  0  0  0  0  0
   86.5639   71.7630  -13.5587 H   0  0  0  0  0  0  0  0  0  0  0  0
   85.0538   72.5162  -14.1199 H   0  0  0  0  0  0  0  0  0  0  0  0
   84.7423   70.1530  -13.3563 H   0  0  0  0  0  0  0  0  0  0  0  0
   83.7273   71.3230  -12.5048 H   0  0  0  0  0  0  0  0  0  0  0  0
   86.3930   70.3344  -11.3774 H   0  0  0  0  0  0  0  0  0  0  0  0
   84.8931   69.4693  -11.0903 H   0  0  0  0  0  0  0  0  0  0  0  0
   85.6009   73.2251   -9.3527 H   0  0  0  0  0  0  0  0  0  0  0  0
   86.7947   71.9152   -9.3167 H   0  0  0  0  0  0  0  0  0  0  0  0
   80.4954   71.3557   -7.5807 H   0  0  0  0  0  0  0  0  0  0  0  0
   82.8305   69.9468  -10.8750 H   0  0  0  0  0  0  0  0  0  0  0  0
   84.3337   72.7396   -7.9835 H   0  0  0  0  0  0  0  0  0  0  0  0
   81.1040   69.5380  -11.5965 H   0  0  0  0  0  0  0  0  0  0  0  0
   79.3643   69.6421  -11.4396 H   0  0  0  0  0  0  0  0  0  0  0  0
   80.1075   67.2927  -11.8242 H   0  0  0  0  0  0  0  0  0  0  0  0
   79.3221   67.4662  -10.2371 H   0  0  0  0  0  0  0  0  0  0  0  0
   81.0851   67.3730  -10.3386 H   0  0  0  0  0  0  0  0  0  0  0  0
   86.0998   74.0623  -12.8319 H   0  0  0  0  0  0  0  0  0  0  0  0
  1  2  1  0  0  0  0
  1  7  1  0  0  0  0
  1 17  1  0  0  0  0
  1 18  1  0  0  0  0
  2  3  1  0  0  0  0
  2 19  1  0  0  0  0
  2 36  1  0  0  0  0
  3  4  1  0  0  0  0
  3 20  1  0  0  0  0
  3 21  1  0  0  0  0
  4  5  1  0  0  0  0
  4 22  1  0  0  0  0
  4 23  1  0  0  0  0
  5  6  1  0  0  0  0
  5 24  1  0  0  0  0
  5 25  1  0  0  0  0
  6  7  1  0  0  0  0
  6 11  1  0  0  0  0
  7 26  1  0  0  0  0
  7 27  1  0  0  0  0
  8  9  2  0  0  0  0
  8 13  1  0  0  0  0
  8 28  1  0  0  0  0
  9 10  1  0  0  0  0
  9 14  1  0  0  0  0
 10 11  2  0  0  0  0
 10 29  1  0  0  0  0
 11 12  1  0  0  0  0
 12 13  2  0  0  0  0
 12 30  1  0  0  0  0
 14 15  1  0  0  0  0
 15 16  1  0  0  0  0
 15 31  1  0  0  0  0
 15 32  1  0  0  0  0
 16 33  1  0  0  0  0
 16 34  1  0  0  0  0
 16 35  1  0  0  0  0
M  CHG  1   2   1
M  END
$$$$
