09S
 OpenBabel04091915533D

 36 37  0  0  0  0  0  0  0  0999 V2000
   51.5284   22.1473  102.1005 C   0  0  0  0  0  0  0  0  0  0  0  0
   50.5294   22.4271  100.9836 C   0  0  0  0  0  0  0  0  0  0  0  0
   51.2507   22.8363   99.7359 N   0  3  0  0  0  0  0  0  0  0  0  0
   51.4044   24.3101   99.5740 C   0  0  0  0  0  0  0  0  0  0  0  0
   52.4970   24.8652  100.4696 C   0  0  0  0  0  0  0  0  0  0  0  0
   52.2716   24.5852  101.9553 C   0  0  0  0  0  0  0  0  0  0  0  0
   52.5603   23.1819  102.2306 N   0  0  0  0  0  0  0  0  0  0  0  0
   56.3189   21.8870  103.2744 C   0  0  0  0  0  0  0  0  0  0  0  0
   55.2685   21.0786  103.5704 N   0  0  0  0  0  0  0  0  0  0  0  0
   54.0555   21.5380  103.2367 C   0  0  0  0  0  0  0  0  0  0  0  0
   53.8463   22.7700  102.6000 C   0  0  0  0  0  0  0  0  0  0  0  0
   54.9774   23.5640  102.3261 C   0  0  0  0  0  0  0  0  0  0  0  0
   56.2615   23.1243  102.6565 C   0  0  0  0  0  0  0  0  0  0  0  0
   58.0077   21.1736  103.7931 Br  0  0  0  0  0  0  0  0  0  0  0  0
   57.4191   23.8271  102.3932 O   0  0  0  0  0  0  0  0  0  0  0  0
   57.2557   25.1392  101.8565 C   0  0  0  0  0  0  0  0  0  0  0  0
   58.5547   25.7607  101.3675 C   0  0  0  0  0  0  0  0  0  0  0  0
   52.0053   21.1904  101.8504 H   0  0  0  0  0  0  0  0  0  0  0  0
   50.9770   22.0371  103.0356 H   0  0  0  0  0  0  0  0  0  0  0  0
   49.8552   23.2405  101.2608 H   0  0  0  0  0  0  0  0  0  0  0  0
   49.9417   21.5329  100.7570 H   0  0  0  0  0  0  0  0  0  0  0  0
   52.1889   22.4031   99.7518 H   0  0  0  0  0  0  0  0  0  0  0  0
   50.4377   24.7657   99.8054 H   0  0  0  0  0  0  0  0  0  0  0  0
   51.6406   24.4908   98.5205 H   0  0  0  0  0  0  0  0  0  0  0  0
   52.5377   25.9482  100.3118 H   0  0  0  0  0  0  0  0  0  0  0  0
   53.4570   24.4442  100.1507 H   0  0  0  0  0  0  0  0  0  0  0  0
   51.2370   24.8152  102.2341 H   0  0  0  0  0  0  0  0  0  0  0  0
   52.9142   25.2395  102.5609 H   0  0  0  0  0  0  0  0  0  0  0  0
   53.2372   20.8920  103.4887 H   0  0  0  0  0  0  0  0  0  0  0  0
   54.8493   24.5105  101.8368 H   0  0  0  0  0  0  0  0  0  0  0  0
   56.8378   25.7864  102.6352 H   0  0  0  0  0  0  0  0  0  0  0  0
   56.5821   25.0920  100.9960 H   0  0  0  0  0  0  0  0  0  0  0  0
   58.3598   26.7639  100.9624 H   0  0  0  0  0  0  0  0  0  0  0  0
   59.0064   25.1524  100.5765 H   0  0  0  0  0  0  0  0  0  0  0  0
   59.2774   25.8530  102.1842 H   0  0  0  0  0  0  0  0  0  0  0  0
   50.7551   22.4443   98.9229 H   0  0  0  0  0  0  0  0  0  0  0  0
  1  2  1  0  0  0  0
  1  7  1  0  0  0  0
  1 18  1  0  0  0  0
  1 19  1  0  0  0  0
  2  3  1  0  0  0  0
  2 20  1  0  0  0  0
  2 21  1  0  0  0  0
  3  4  1  0  0  0  0
  3 22  1  0  0  0  0
  3 36  1  0  0  0  0
  4  5  1  0  0  0  0
  4 23  1  0  0  0  0
  4 24  1  0  0  0  0
  5  6  1  0  0  0  0
  5 25  1  0  0  0  0
  5 26  1  0  0  0  0
  6  7  1  0  0  0  0
  6 27  1  0  0  0  0
  6 28  1  0  0  0  0
  7 11  1  0  0  0  0
  8  9  2  0  0  0  0
  8 13  1  0  0  0  0
  8 14  1  0  0  0  0
  9 10  1  0  0  0  0
 10 11  2  0  0  0  0
 10 29  1  0  0  0  0
 11 12  1  0  0  0  0
 12 13  2  0  0  0  0
 12 30  1  0  0  0  0
 13 15  1  0  0  0  0
 15 16  1  0  0  0  0
 16 17  1  0  0  0  0
 16 31  1  0  0  0  0
 16 32  1  0  0  0  0
 17 33  1  0  0  0  0
 17 34  1  0  0  0  0
 17 35  1  0  0  0  0
M  CHG  1   3   1
M  END
$$$$
