0BM
 OpenBabel04091915483D

 68 70  0  0  1  0  0  0  0  0999 V2000
   25.1896    6.8365   23.6089 S   0  0  0  0  0  0  0  0  0  0  0  0
   25.3969    6.4146   24.9751 O   0  0  0  0  0  0  0  0  0  0  0  0
   24.8226    8.1995   23.2825 O   0  0  0  0  0  0  0  0  0  0  0  0
   23.9791    5.7660   22.8581 C   0  0  0  0  0  0  0  0  0  0  0  0
   26.5957    6.5821   22.8039 N   0  0  0  0  0  0  0  0  0  0  0  0
   27.3370    5.3137   22.8831 C   0  0  1  0  0  0  0  0  0  0  0  0
   26.9517    4.5112   21.6408 C   0  0  0  0  0  0  0  0  0  0  0  0
   26.9157    5.0604   20.5204 O   0  0  0  0  0  0  0  0  0  0  0  0
   28.8339    5.6371   22.8719 C   0  0  0  0  0  0  0  0  0  0  0  0
   29.7183    4.4222   22.9570 C   0  0  0  0  0  0  0  0  0  0  0  0
   30.4781    4.0228   21.8529 C   0  0  0  0  0  0  0  0  0  0  0  0
   29.7754    3.6674   24.1323 C   0  0  0  0  0  0  0  0  0  0  0  0
   31.2722    2.8789   21.9220 C   0  0  0  0  0  0  0  0  0  0  0  0
   30.5636    2.5208   24.2010 C   0  0  0  0  0  0  0  0  0  0  0  0
   31.3150    2.1276   23.0923 C   0  0  0  0  0  0  0  0  0  0  0  0
   26.6147    3.1879   21.7737 N   0  0  0  0  0  0  0  0  0  0  0  0
   26.2271    2.4017   20.6069 C   0  0  2  0  0  0  0  0  0  0  0  0
   24.8556    2.9046   20.1116 C   0  0  0  0  0  0  0  0  0  0  0  0
   23.9933    3.3103   20.8741 O   0  0  0  0  0  0  0  0  0  0  0  0
   26.1277    0.9677   21.1326 C   0  0  0  0  0  0  0  0  0  0  0  0
   26.7983    0.9971   22.5027 C   0  0  0  0  0  0  0  0  0  0  0  0
   26.5578    2.4052   22.9872 C   0  0  0  0  0  0  0  0  0  0  0  0
   24.6570    2.8555   18.7485 N   0  0  0  0  0  0  0  0  0  0  0  0
   23.4004    3.3210   18.1834 C   0  0  0  0  0  0  0  0  0  0  0  0
   23.4126    4.7168   17.5282 C   0  0  0  0  0  0  0  0  0  0  0  0
   24.2356    4.7421   16.2419 C   0  0  0  0  0  0  0  0  0  0  0  0
   24.0867    6.0718   15.5051 C   0  0  0  0  0  0  0  0  0  0  0  0
   24.3648    7.2555   16.3522 N   0  0  0  0  0  0  0  0  0  0  0  0
   23.7045    7.2226   17.6854 C   0  0  0  0  0  0  0  0  0  0  0  0
   23.8416    5.8829   18.4194 C   0  0  0  0  0  0  0  0  0  0  0  0
   24.8620    8.4334   15.8248 C   0  0  0  0  0  0  0  0  0  0  0  0
   24.7535    9.5960   16.5108 N   0  0  0  0  0  0  0  0  0  0  0  0
   25.4281    8.5248   14.5965 N   0  0  0  0  0  0  0  0  0  0  0  0
   24.2364    4.7287   23.0760 H   0  0  0  0  0  0  0  0  0  0  0  0
   23.9314    5.9563   21.7831 H   0  0  0  0  0  0  0  0  0  0  0  0
   23.0129    5.9999   23.3107 H   0  0  0  0  0  0  0  0  0  0  0  0
   26.9699    7.3358   22.2259 H   0  0  0  0  0  0  0  0  0  0  0  0
   27.0669    4.7830   23.7957 H   0  0  0  0  0  0  0  0  0  0  0  0
   29.0686    6.2957   23.7186 H   0  0  0  0  0  0  0  0  0  0  0  0
   29.0906    6.2066   21.9672 H   0  0  0  0  0  0  0  0  0  0  0  0
   30.4578    4.6001   20.9323 H   0  0  0  0  0  0  0  0  0  0  0  0
   29.1893    3.9610   25.0026 H   0  0  0  0  0  0  0  0  0  0  0  0
   31.8629    2.5753   21.0615 H   0  0  0  0  0  0  0  0  0  0  0  0
   30.5977    1.9377   25.1111 H   0  0  0  0  0  0  0  0  0  0  0  0
   31.9392    1.2389   23.1492 H   0  0  0  0  0  0  0  0  0  0  0  0
   26.9722    2.4957   19.8093 H   0  0  0  0  0  0  0  0  0  0  0  0
   26.6387    0.2583   20.4735 H   0  0  0  0  0  0  0  0  0  0  0  0
   25.0863    0.6440   21.2438 H   0  0  0  0  0  0  0  0  0  0  0  0
   27.8772    0.8244   22.3998 H   0  0  0  0  0  0  0  0  0  0  0  0
   26.3865    0.2527   23.1860 H   0  0  0  0  0  0  0  0  0  0  0  0
   25.5606    2.5013   23.4349 H   0  0  0  0  0  0  0  0  0  0  0  0
   27.2999    2.7140   23.7209 H   0  0  0  0  0  0  0  0  0  0  0  0
   25.3499    2.4134   18.1556 H   0  0  0  0  0  0  0  0  0  0  0  0
   22.6337    3.3168   18.9662 H   0  0  0  0  0  0  0  0  0  0  0  0
   23.1009    2.5833   17.4311 H   0  0  0  0  0  0  0  0  0  0  0  0
   22.3653    4.8979   17.2560 H   0  0  0  0  0  0  0  0  0  0  0  0
   23.8960    3.9309   15.5858 H   0  0  0  0  0  0  0  0  0  0  0  0
   25.2929    4.5673   16.4724 H   0  0  0  0  0  0  0  0  0  0  0  0
   23.0486    6.1817   15.1720 H   0  0  0  0  0  0  0  0  0  0  0  0
   24.7341    6.0633   14.6271 H   0  0  0  0  0  0  0  0  0  0  0  0
   22.6459    7.4382   17.5010 H   0  0  0  0  0  0  0  0  0  0  0  0
   24.1146    8.0024   18.3297 H   0  0  0  0  0  0  0  0  0  0  0  0
   24.8822    5.7605   18.7378 H   0  0  0  0  0  0  0  0  0  0  0  0
   23.2132    5.9144   19.3182 H   0  0  0  0  0  0  0  0  0  0  0  0
   25.0408   10.4932   16.1357 H   0  0  0  0  0  0  0  0  0  0  0  0
   25.5816    7.7242   14.0017 H   0  0  0  0  0  0  0  0  0  0  0  0
   25.7355    9.4159   14.2332 H   0  0  0  0  0  0  0  0  0  0  0  0
   24.3123    9.6299   17.4148 H   0  0  0  0  0  0  0  0  0  0  0  0
  1  2  2  0  0  0  0
  1  3  2  0  0  0  0
  1  4  1  0  0  0  0
  1  5  1  0  0  0  0
  4 34  1  0  0  0  0
  4 35  1  0  0  0  0
  4 36  1  0  0  0  0
  5  6  1  0  0  0  0
  5 37  1  0  0  0  0
  6  7  1  0  0  0  0
  6  9  1  0  0  0  0
  6 38  1  1  0  0  0
  7  8  2  0  0  0  0
  7 16  1  0  0  0  0
  9 10  1  0  0  0  0
  9 39  1  0  0  0  0
  9 40  1  0  0  0  0
 10 11  2  0  0  0  0
 10 12  1  0  0  0  0
 11 13  1  0  0  0  0
 11 41  1  0  0  0  0
 12 14  2  0  0  0  0
 12 42  1  0  0  0  0
 13 15  2  0  0  0  0
 13 43  1  0  0  0  0
 14 15  1  0  0  0  0
 14 44  1  0  0  0  0
 15 45  1  0  0  0  0
 16 17  1  0  0  0  0
 16 22  1  0  0  0  0
 17 18  1  0  0  0  0
 17 20  1  0  0  0  0
 17 46  1  6  0  0  0
 18 19  2  0  0  0  0
 18 23  1  0  0  0  0
 20 21  1  0  0  0  0
 20 47  1  0  0  0  0
 20 48  1  0  0  0  0
 21 22  1  0  0  0  0
 21 49  1  0  0  0  0
 21 50  1  0  0  0  0
 22 51  1  0  0  0  0
 22 52  1  0  0  0  0
 23 24  1  0  0  0  0
 23 53  1  0  0  0  0
 24 25  1  0  0  0  0
 24 54  1  0  0  0  0
 24 55  1  0  0  0  0
 25 26  1  0  0  0  0
 25 30  1  0  0  0  0
 25 56  1  0  0  0  0
 26 27  1  0  0  0  0
 26 57  1  0  0  0  0
 26 58  1  0  0  0  0
 27 28  1  0  0  0  0
 27 59  1  0  0  0  0
 27 60  1  0  0  0  0
 28 29  1  0  0  0  0
 28 31  1  0  0  0  0
 29 30  1  0  0  0  0
 29 61  1  0  0  0  0
 29 62  1  0  0  0  0
 30 63  1  0  0  0  0
 30 64  1  0  0  0  0
 31 32  2  0  0  0  0
 31 33  1  0  0  0  0
 32 65  1  0  0  0  0
 32 68  1  0  0  0  0
 33 66  1  0  0  0  0
 33 67  1  0  0  0  0
M  END
$$$$
