0C0
 OpenBabel04091915593D

 46 49  0  0  0  0  0  0  0  0999 V2000
    3.3633   31.8641    8.7983 N   0  0  0  0  0  0  0  0  0  0  0  0
    3.9621   31.0792    6.6691 N   0  0  0  0  0  0  0  0  0  0  0  0
    5.1082   29.0181    6.3332 N   0  0  0  0  0  0  0  0  0  0  0  0
    2.8230   33.1470    6.9332 N   0  0  0  0  0  0  0  0  0  0  0  0
    3.8809   30.7185    9.2986 C   0  0  0  0  0  0  0  0  0  0  0  0
    3.4059   32.0002    7.4636 C   0  0  0  0  0  0  0  0  0  0  0  0
    4.5123   29.9644    7.1834 C   0  0  0  0  0  0  0  0  0  0  0  0
    4.4790   29.7424    8.5418 C   0  0  0  0  0  0  0  0  0  0  0  0
    5.2833   29.1284    4.9334 C   0  0  0  0  0  0  0  0  0  0  0  0
    4.1569   29.2870    4.1266 C   0  0  0  0  0  0  0  0  0  0  0  0
    4.2678   29.4399    2.7465 C   0  0  0  0  0  0  0  0  0  0  0  0
    5.5220   29.4504    2.1435 C   0  0  0  0  0  0  0  0  0  0  0  0
    6.6583   29.2952    2.9283 C   0  0  0  0  0  0  0  0  0  0  0  0
    6.5615   29.1351    4.3283 C   0  0  0  0  0  0  0  0  0  0  0  0
    7.7947   29.0118    5.1045 C   0  0  0  0  0  0  0  0  0  0  0  0
    2.4265   33.4346    5.6060 C   0  0  0  0  0  0  0  0  0  0  0  0
    1.3526   34.3128    5.3854 C   0  0  0  0  0  0  0  0  0  0  0  0
    0.8730   34.5530    4.0904 C   0  0  0  0  0  0  0  0  0  0  0  0
    1.4503   33.9252    2.9774 C   0  0  0  0  0  0  0  0  0  0  0  0
    2.5093   33.0416    3.1995 C   0  0  0  0  0  0  0  0  0  0  0  0
    2.9763   32.7983    4.4905 C   0  0  0  0  0  0  0  0  0  0  0  0
    0.9488   34.1978    1.5759 C   0  0  0  0  0  0  0  0  0  0  0  0
    8.1937   27.7671    5.6144 C   0  0  0  0  0  0  0  0  0  0  0  0
    9.3638   27.6457    6.3583 C   0  0  0  0  0  0  0  0  0  0  0  0
   10.1528   28.7731    6.5981 C   0  0  0  0  0  0  0  0  0  0  0  0
    9.7756   30.0096    6.0947 C   0  0  0  0  0  0  0  0  0  0  0  0
    8.6032   30.1335    5.3495 C   0  0  0  0  0  0  0  0  0  0  0  0
    1.6922   33.8345    0.6113 O   0  0  0  0  0  0  0  0  0  0  0  0
   -0.1811   34.7754    1.4689 O   0  0  0  0  0  0  0  0  0  0  0  0
    5.6381   28.2800    6.7660 H   0  0  0  0  0  0  0  0  0  0  0  0
    2.6105   33.8292    7.6235 H   0  0  0  0  0  0  0  0  0  0  0  0
    3.7949   30.6095   10.3777 H   0  0  0  0  0  0  0  0  0  0  0  0
    4.9017   28.8568    8.9907 H   0  0  0  0  0  0  0  0  0  0  0  0
    3.1638   29.3099    4.5781 H   0  0  0  0  0  0  0  0  0  0  0  0
    3.3714   29.5779    2.1433 H   0  0  0  0  0  0  0  0  0  0  0  0
    5.6066   29.5934    1.0686 H   0  0  0  0  0  0  0  0  0  0  0  0
    7.6384   29.3263    2.4491 H   0  0  0  0  0  0  0  0  0  0  0  0
    0.8565   34.8012    6.2173 H   0  0  0  0  0  0  0  0  0  0  0  0
    0.0394   35.2343    3.9336 H   0  0  0  0  0  0  0  0  0  0  0  0
    2.9772   32.5376    2.3563 H   0  0  0  0  0  0  0  0  0  0  0  0
    3.8047   32.1062    4.6011 H   0  0  0  0  0  0  0  0  0  0  0  0
    7.5840   26.8853    5.4166 H   0  0  0  0  0  0  0  0  0  0  0  0
    9.6595   26.6756    6.7436 H   0  0  0  0  0  0  0  0  0  0  0  0
   11.0697   28.6762    7.1762 H   0  0  0  0  0  0  0  0  0  0  0  0
   10.3928   30.8911    6.2749 H   0  0  0  0  0  0  0  0  0  0  0  0
    8.3087   31.1080    4.9587 H   0  0  0  0  0  0  0  0  0  0  0  0
  1  5  2  0  0  0  0
  1  6  1  0  0  0  0
  2  6  2  0  0  0  0
  2  7  1  0  0  0  0
  3  7  1  0  0  0  0
  3  9  1  0  0  0  0
  3 30  1  0  0  0  0
  4  6  1  0  0  0  0
  4 16  1  0  0  0  0
  4 31  1  0  0  0  0
  5  8  1  0  0  0  0
  5 32  1  0  0  0  0
  7  8  2  0  0  0  0
  8 33  1  0  0  0  0
  9 10  2  0  0  0  0
  9 14  1  0  0  0  0
 10 11  1  0  0  0  0
 10 34  1  0  0  0  0
 11 12  2  0  0  0  0
 11 35  1  0  0  0  0
 12 13  1  0  0  0  0
 12 36  1  0  0  0  0
 13 14  2  0  0  0  0
 13 37  1  0  0  0  0
 14 15  1  0  0  0  0
 15 23  2  0  0  0  0
 15 27  1  0  0  0  0
 16 17  2  0  0  0  0
 16 21  1  0  0  0  0
 17 18  1  0  0  0  0
 17 38  1  0  0  0  0
 18 19  2  0  0  0  0
 18 39  1  0  0  0  0
 19 20  1  0  0  0  0
 19 22  1  0  0  0  0
 20 21  2  0  0  0  0
 20 40  1  0  0  0  0
 21 41  1  0  0  0  0
 22 28  2  0  0  0  0
 22 29  1  0  0  0  0
 23 24  1  0  0  0  0
 23 42  1  0  0  0  0
 24 25  2  0  0  0  0
 24 43  1  0  0  0  0
 25 26  1  0  0  0  0
 25 44  1  0  0  0  0
 26 27  2  0  0  0  0
 26 45  1  0  0  0  0
 27 46  1  0  0  0  0
M  END
$$$$
