0C3
 OpenBabel04091915593D

 39 41  0  0  0  0  0  0  0  0999 V2000
    4.0059   31.8675    9.2040 N   0  0  0  0  0  0  0  0  0  0  0  0
    4.6630   30.9967    7.1289 N   0  0  0  0  0  0  0  0  0  0  0  0
    5.9192   29.0109    6.9280 N   0  0  0  0  0  0  0  0  0  0  0  0
    3.5067   33.0642    7.2645 N   0  0  0  0  0  0  0  0  0  0  0  0
    4.5204   30.7550    9.7751 C   0  0  0  0  0  0  0  0  0  0  0  0
    4.0856   31.9468    7.8730 C   0  0  0  0  0  0  0  0  0  0  0  0
    5.1836   29.9099    7.7144 C   0  0  0  0  0  0  0  0  0  0  0  0
    5.1316   29.7459    9.0739 C   0  0  0  0  0  0  0  0  0  0  0  0
    6.2695   29.2227    5.5855 C   0  0  0  0  0  0  0  0  0  0  0  0
    5.2857   29.1802    4.5836 C   0  0  0  0  0  0  0  0  0  0  0  0
    5.6090   29.4355    3.2495 C   0  0  0  0  0  0  0  0  0  0  0  0
    6.9256   29.7086    2.8957 C   0  0  0  0  0  0  0  0  0  0  0  0
    7.9166   29.7125    3.8753 C   0  0  0  0  0  0  0  0  0  0  0  0
    7.6047   29.4604    5.2251 C   0  0  0  0  0  0  0  0  0  0  0  0
    8.7228   29.5032    6.2344 C   0  0  0  0  0  0  0  0  0  0  0  0
    3.1794   33.3089    5.9198 C   0  0  0  0  0  0  0  0  0  0  0  0
    3.8003   32.6584    4.8530 C   0  0  0  0  0  0  0  0  0  0  0  0
    3.3843   32.8527    3.5302 C   0  0  0  0  0  0  0  0  0  0  0  0
    2.3072   33.6957    3.2369 C   0  0  0  0  0  0  0  0  0  0  0  0
    1.6677   34.3388    4.3002 C   0  0  0  0  0  0  0  0  0  0  0  0
    2.0948   34.1525    5.6258 C   0  0  0  0  0  0  0  0  0  0  0  0
    1.8534   33.8902    1.8086 C   0  0  0  0  0  0  0  0  0  0  0  0
    0.6407   34.2303    1.6327 O   0  0  0  0  0  0  0  0  0  0  0  0
    2.7170   33.6949    0.8942 O   0  0  0  0  0  0  0  0  0  0  0  0
    8.3660   29.3595    7.5434 F   0  0  0  0  0  0  0  0  0  0  0  0
    9.4418   30.6618    6.1799 F   0  0  0  0  0  0  0  0  0  0  0  0
    9.6324   28.5054    6.0147 F   0  0  0  0  0  0  0  0  0  0  0  0
    6.0524   28.0779    7.2903 H   0  0  0  0  0  0  0  0  0  0  0  0
    3.2240   33.7511    7.9392 H   0  0  0  0  0  0  0  0  0  0  0  0
    4.4256   30.6992   10.8554 H   0  0  0  0  0  0  0  0  0  0  0  0
    5.5703   28.8905    9.5708 H   0  0  0  0  0  0  0  0  0  0  0  0
    4.2435   29.0124    4.8484 H   0  0  0  0  0  0  0  0  0  0  0  0
    4.8247   29.4584    2.4953 H   0  0  0  0  0  0  0  0  0  0  0  0
    7.1731   29.9383    1.8622 H   0  0  0  0  0  0  0  0  0  0  0  0
    8.9423   29.9435    3.5900 H   0  0  0  0  0  0  0  0  0  0  0  0
    4.6363   31.9932    5.0145 H   0  0  0  0  0  0  0  0  0  0  0  0
    3.8932   32.3324    2.7218 H   0  0  0  0  0  0  0  0  0  0  0  0
    0.8173   34.9845    4.0875 H   0  0  0  0  0  0  0  0  0  0  0  0
    1.5468   34.6526    6.4161 H   0  0  0  0  0  0  0  0  0  0  0  0
  1  5  2  0  0  0  0
  1  6  1  0  0  0  0
  2  6  2  0  0  0  0
  2  7  1  0  0  0  0
  3  7  1  0  0  0  0
  3  9  1  0  0  0  0
  3 28  1  0  0  0  0
  4  6  1  0  0  0  0
  4 16  1  0  0  0  0
  4 29  1  0  0  0  0
  5  8  1  0  0  0  0
  5 30  1  0  0  0  0
  7  8  2  0  0  0  0
  8 31  1  0  0  0  0
  9 10  2  0  0  0  0
  9 14  1  0  0  0  0
 10 11  1  0  0  0  0
 10 32  1  0  0  0  0
 11 12  2  0  0  0  0
 11 33  1  0  0  0  0
 12 13  1  0  0  0  0
 12 34  1  0  0  0  0
 13 14  2  0  0  0  0
 13 35  1  0  0  0  0
 14 15  1  0  0  0  0
 15 25  1  0  0  0  0
 15 26  1  0  0  0  0
 15 27  1  0  0  0  0
 16 17  2  0  0  0  0
 16 21  1  0  0  0  0
 17 18  1  0  0  0  0
 17 36  1  0  0  0  0
 18 19  2  0  0  0  0
 18 37  1  0  0  0  0
 19 20  1  0  0  0  0
 19 22  1  0  0  0  0
 20 21  2  0  0  0  0
 20 38  1  0  0  0  0
 21 39  1  0  0  0  0
 22 23  2  0  0  0  0
 22 24  1  0  0  0  0
M  END
$$$$
