0C8
 OpenBabel04091916003D

 40 42  0  0  0  0  0  0  0  0999 V2000
    3.8908   31.8500    9.1735 N   0  0  0  0  0  0  0  0  0  0  0  0
    4.4681   30.9306    7.0950 N   0  0  0  0  0  0  0  0  0  0  0  0
    5.7260   28.9368    6.8892 N   0  0  0  0  0  0  0  0  0  0  0  0
    3.3149   33.0010    7.2292 N   0  0  0  0  0  0  0  0  0  0  0  0
    4.4335   30.7560    9.7490 C   0  0  0  0  0  0  0  0  0  0  0  0
    3.9202   31.8989    7.8345 C   0  0  0  0  0  0  0  0  0  0  0  0
    5.0267   29.8650    7.6828 C   0  0  0  0  0  0  0  0  0  0  0  0
    5.0198   29.7319    9.0501 C   0  0  0  0  0  0  0  0  0  0  0  0
    5.9324   28.9879    5.4937 C   0  0  0  0  0  0  0  0  0  0  0  0
    4.9021   29.3469    4.6158 C   0  0  0  0  0  0  0  0  0  0  0  0
    5.1421   29.4956    3.2489 C   0  0  0  0  0  0  0  0  0  0  0  0
    6.4220   29.2918    2.7447 C   0  0  0  0  0  0  0  0  0  0  0  0
    7.4619   28.9189    3.5971 C   0  0  0  0  0  0  0  0  0  0  0  0
    7.2206   28.7720    4.9683 C   0  0  0  0  0  0  0  0  0  0  0  0
    9.2692   29.1862    6.0288 C   0  0  0  0  0  0  0  0  0  0  0  0
    2.9973   33.2772    5.8896 C   0  0  0  0  0  0  0  0  0  0  0  0
    1.8934   34.0933    5.6063 C   0  0  0  0  0  0  0  0  0  0  0  0
    1.4783   34.3273    4.2876 C   0  0  0  0  0  0  0  0  0  0  0  0
    2.1528   33.7486    3.2038 C   0  0  0  0  0  0  0  0  0  0  0  0
    3.2503   32.9289    3.4813 C   0  0  0  0  0  0  0  0  0  0  0  0
    3.6581   32.6937    4.8030 C   0  0  0  0  0  0  0  0  0  0  0  0
    1.6976   34.0080    1.7845 C   0  0  0  0  0  0  0  0  0  0  0  0
    2.5818   33.9254    0.8725 O   0  0  0  0  0  0  0  0  0  0  0  0
    0.4695   34.2807    1.6159 O   0  0  0  0  0  0  0  0  0  0  0  0
    8.1824   28.2935    5.8223 O   0  0  0  0  0  0  0  0  0  0  0  0
    8.8715   30.4433    6.3056 F   0  0  0  0  0  0  0  0  0  0  0  0
   10.1050   29.1932    4.9675 F   0  0  0  0  0  0  0  0  0  0  0  0
    9.9731   28.7314    7.0963 F   0  0  0  0  0  0  0  0  0  0  0  0
    6.0349   28.0800    7.3235 H   0  0  0  0  0  0  0  0  0  0  0  0
    2.9981   33.6658    7.9162 H   0  0  0  0  0  0  0  0  0  0  0  0
    4.3788   30.7349   10.8345 H   0  0  0  0  0  0  0  0  0  0  0  0
    5.4703   28.8881    9.5562 H   0  0  0  0  0  0  0  0  0  0  0  0
    3.9029   29.5278    4.9888 H   0  0  0  0  0  0  0  0  0  0  0  0
    4.3274   29.7942    2.5914 H   0  0  0  0  0  0  0  0  0  0  0  0
    6.5989   29.4241    1.6779 H   0  0  0  0  0  0  0  0  0  0  0  0
    8.4474   28.7368    3.1779 H   0  0  0  0  0  0  0  0  0  0  0  0
    1.3179   34.5422    6.4097 H   0  0  0  0  0  0  0  0  0  0  0  0
    0.6176   34.9618    4.0872 H   0  0  0  0  0  0  0  0  0  0  0  0
    3.7888   32.4638    2.6563 H   0  0  0  0  0  0  0  0  0  0  0  0
    4.5238   32.0610    4.9613 H   0  0  0  0  0  0  0  0  0  0  0  0
  1  5  2  0  0  0  0
  1  6  1  0  0  0  0
  2  6  2  0  0  0  0
  2  7  1  0  0  0  0
  3  7  1  0  0  0  0
  3  9  1  0  0  0  0
  3 29  1  0  0  0  0
  4  6  1  0  0  0  0
  4 16  1  0  0  0  0
  4 30  1  0  0  0  0
  5  8  1  0  0  0  0
  5 31  1  0  0  0  0
  7  8  2  0  0  0  0
  8 32  1  0  0  0  0
  9 10  2  0  0  0  0
  9 14  1  0  0  0  0
 10 11  1  0  0  0  0
 10 33  1  0  0  0  0
 11 12  2  0  0  0  0
 11 34  1  0  0  0  0
 12 13  1  0  0  0  0
 12 35  1  0  0  0  0
 13 14  2  0  0  0  0
 13 36  1  0  0  0  0
 14 25  1  0  0  0  0
 15 25  1  0  0  0  0
 15 26  1  0  0  0  0
 15 27  1  0  0  0  0
 15 28  1  0  0  0  0
 16 17  2  0  0  0  0
 16 21  1  0  0  0  0
 17 18  1  0  0  0  0
 17 37  1  0  0  0  0
 18 19  2  0  0  0  0
 18 38  1  0  0  0  0
 19 20  1  0  0  0  0
 19 22  1  0  0  0  0
 20 21  2  0  0  0  0
 20 39  1  0  0  0  0
 21 40  1  0  0  0  0
 22 23  2  0  0  0  0
 22 24  1  0  0  0  0
M  END
$$$$
