0CT
 OpenBabel04091916053D

 14 15  0  0  0  0  0  0  0  0999 V2000
   -0.4320   34.4990  -17.6064 N   0  3  0  0  0  0  0  0  0  0  0  0
   -1.2341   35.3554  -16.9058 C   0  0  0  0  0  0  0  0  0  0  0  0
   -2.4458   35.9852  -17.1923 C   0  0  0  0  0  0  0  0  0  0  0  0
   -2.9637   36.8186  -16.1931 C   0  0  0  0  0  0  0  0  0  0  0  0
   -2.2983   36.9984  -14.9762 C   0  0  0  0  0  0  0  0  0  0  0  0
   -1.0854   36.3458  -14.7153 C   0  0  0  0  0  0  0  0  0  0  0  0
   -0.5504   35.5132  -15.7077 C   0  0  0  0  0  0  0  0  0  0  0  0
    0.5987   34.7683  -15.7355 N   0  0  0  0  0  0  0  0  0  0  0  0
    0.6617   34.1501  -16.9091 N   0  0  0  0  0  0  0  0  0  0  0  0
   -0.5588   34.1211  -18.5364 H   0  0  0  0  0  0  0  0  0  0  0  0
   -2.9633   35.8444  -18.1350 H   0  0  0  0  0  0  0  0  0  0  0  0
   -3.9044   37.3381  -16.3675 H   0  0  0  0  0  0  0  0  0  0  0  0
   -2.7256   37.6536  -14.2204 H   0  0  0  0  0  0  0  0  0  0  0  0
   -0.5668   36.4791  -13.7724 H   0  0  0  0  0  0  0  0  0  0  0  0
  1  2  1  0  0  0  0
  1  9  2  0  0  0  0
  1 10  1  0  0  0  0
  2  3  2  0  0  0  0
  2  7  1  0  0  0  0
  3  4  1  0  0  0  0
  3 11  1  0  0  0  0
  4  5  2  0  0  0  0
  4 12  1  0  0  0  0
  5  6  1  0  0  0  0
  5 13  1  0  0  0  0
  6  7  2  0  0  0  0
  6 14  1  0  0  0  0
  7  8  1  0  0  0  0
  8  9  1  0  0  0  0
M  CHG  1   1   1
M  END
$$$$
