0CU
 OpenBabel04091916033D

 14 15  0  0  0  0  0  0  0  0999 V2000
    8.5680   -1.0060    8.9996 C   0  0  0  0  0  0  0  0  0  0  0  0
    9.5519   -1.4807    8.1707 N   0  0  0  0  0  0  0  0  0  0  0  0
   10.7282   -1.1397    8.6825 N   0  0  0  0  0  0  0  0  0  0  0  0
   10.4955   -0.4610    9.8158 N   0  3  0  0  0  0  0  0  0  0  0  0
    9.1580   -0.3406   10.0707 C   0  0  0  0  0  0  0  0  0  0  0  0
    8.4276    0.2636   11.0993 C   0  0  0  0  0  0  0  0  0  0  0  0
    7.0304    0.1713   11.0132 C   0  0  0  0  0  0  0  0  0  0  0  0
    6.0734    0.8934   12.2512 Cl  0  0  0  0  0  0  0  0  0  0  0  0
    6.3964   -0.4862    9.9591 C   0  0  0  0  0  0  0  0  0  0  0  0
    7.1683   -1.0721    8.9553 C   0  0  0  0  0  0  0  0  0  0  0  0
    6.4782   -1.8948    7.6305 Cl  0  0  0  0  0  0  0  0  0  0  0  0
   11.2857   -0.1198   10.3498 H   0  0  0  0  0  0  0  0  0  0  0  0
    8.9136    0.7774   11.9224 H   0  0  0  0  0  0  0  0  0  0  0  0
    5.3125   -0.5444    9.9155 H   0  0  0  0  0  0  0  0  0  0  0  0
  1  2  1  0  0  0  0
  1  5  2  0  0  0  0
  1 10  1  0  0  0  0
  2  3  1  0  0  0  0
  3  4  2  0  0  0  0
  4  5  1  0  0  0  0
  4 12  1  0  0  0  0
  5  6  1  0  0  0  0
  6  7  2  0  0  0  0
  6 13  1  0  0  0  0
  7  8  1  0  0  0  0
  7  9  1  0  0  0  0
  9 10  2  0  0  0  0
  9 14  1  0  0  0  0
 10 11  1  0  0  0  0
M  CHG  1   4   1
M  END
$$$$
