0GA
 OpenBabel04091916193D

 29 29  0  0  1  0  0  0  0  0999 V2000
   -4.6288   -0.7136   33.3997 O   0  0  0  0  0  0  0  0  0  0  0  0
   -4.3918    0.4615   33.7987 C   0  0  0  0  0  0  0  0  0  0  0  0
   -3.9476    0.8397   34.9178 O   0  0  0  0  0  0  0  0  0  0  0  0
   -4.6315    1.6061   32.7499 C   0  0  0  0  0  0  0  0  0  0  0  0
   -4.6855    2.9281   33.0615 C   0  0  0  0  0  0  0  0  0  0  0  0
   -4.8669    3.9363   31.9962 C   0  0  0  0  0  0  0  0  0  0  0  0
   -4.7999    1.2077   31.4257 O   0  0  0  0  0  0  0  0  0  0  0  0
   -3.7799    0.5688   30.7279 C   0  0  0  0  0  0  0  0  0  0  0  0
   -2.5407    0.3645   31.2204 C   0  0  0  0  0  0  0  0  0  0  0  0
   -1.4029   -0.1847   30.4386 C   0  0  0  0  0  0  0  0  0  0  0  0
   -1.7729   -0.7471   29.0741 C   0  0  0  0  0  0  0  0  0  0  0  0
   -4.1536    0.0531   29.3437 C   0  0  1  0  0  0  0  0  0  0  0  0
   -5.2002    0.8478   28.7749 O   0  0  0  0  0  0  0  0  0  0  0  0
   -2.9379   -0.0024   28.4076 C   0  0  2  0  0  0  0  0  0  0  0  0
   -3.3416   -0.5613   27.0325 C   0  0  0  0  0  0  0  0  0  0  0  0
   -4.4916   -0.2519   26.6234 O   0  0  0  0  0  0  0  0  0  0  0  0
   -2.4436   -1.2446   26.4559 O   0  0  0  0  0  0  0  0  0  0  0  0
   -4.5714    3.2296   34.1012 H   0  0  0  0  0  0  0  0  0  0  0  0
   -4.8798    4.9527   32.4035 H   0  0  0  0  0  0  0  0  0  0  0  0
   -5.8163    3.7674   31.4694 H   0  0  0  0  0  0  0  0  0  0  0  0
   -4.0480    3.8715   31.2760 H   0  0  0  0  0  0  0  0  0  0  0  0
   -2.3182    0.5915   32.2573 H   0  0  0  0  0  0  0  0  0  0  0  0
   -0.8966   -0.9646   31.0163 H   0  0  0  0  0  0  0  0  0  0  0  0
   -0.6904    0.6355   30.2972 H   0  0  0  0  0  0  0  0  0  0  0  0
   -2.0001   -1.8143   29.1972 H   0  0  0  0  0  0  0  0  0  0  0  0
   -0.8765   -0.6766   28.4472 H   0  0  0  0  0  0  0  0  0  0  0  0
   -4.5617   -0.9552   29.4932 H   0  0  0  0  0  0  0  0  0  0  0  0
   -5.3153    0.4490   27.8744 H   0  0  0  0  0  0  0  0  0  0  0  0
   -2.5987    1.0216   28.2045 H   0  0  0  0  0  0  0  0  0  0  0  0
  1  2  2  0  0  0  0
  2  3  1  0  0  0  0
  2  4  1  0  0  0  0
  4  5  2  0  0  0  0
  4  7  1  0  0  0  0
  5  6  1  0  0  0  0
  5 18  1  0  0  0  0
  6 19  1  0  0  0  0
  6 20  1  0  0  0  0
  6 21  1  0  0  0  0
  7  8  1  0  0  0  0
  8  9  2  0  0  0  0
  8 12  1  0  0  0  0
  9 10  1  0  0  0  0
  9 22  1  0  0  0  0
 10 11  1  0  0  0  0
 10 23  1  0  0  0  0
 10 24  1  0  0  0  0
 11 14  1  0  0  0  0
 11 25  1  0  0  0  0
 11 26  1  0  0  0  0
 12 13  1  0  0  0  0
 12 14  1  0  0  0  0
 12 27  1  1  0  0  0
 13 28  1  0  0  0  0
 14 15  1  0  0  0  0
 14 29  1  6  0  0  0
 15 16  2  0  0  0  0
 15 17  1  0  0  0  0
M  END
$$$$
