10P
 OpenBabel04091914543D

 55 57  0  0  1  0  0  0  0  0999 V2000
   16.2438  -16.0325   22.9039 N   0  3  0  0  0  0  0  0  0  0  0  0
   17.5512  -15.3242   22.9753 C   0  0  1  0  0  0  0  0  0  0  0  0
   17.3300  -13.9203   22.4383 C   0  0  0  0  0  0  0  0  0  0  0  0
   16.3867  -13.2525   22.8686 O   0  0  0  0  0  0  0  0  0  0  0  0
   17.9857  -15.3117   24.4286 C   0  0  0  0  0  0  0  0  0  0  0  0
   19.3854  -14.7999   24.5684 C   0  0  0  0  0  0  0  0  0  0  0  0
   19.6370  -13.6985   25.3825 C   0  0  0  0  0  0  0  0  0  0  0  0
   20.4439  -15.4100   23.8900 C   0  0  0  0  0  0  0  0  0  0  0  0
   20.9284  -13.1981   25.5010 C   0  0  0  0  0  0  0  0  0  0  0  0
   21.7362  -14.9079   24.0044 C   0  0  0  0  0  0  0  0  0  0  0  0
   21.9781  -13.8010   24.8121 C   0  0  0  0  0  0  0  0  0  0  0  0
   18.1137  -13.5121   21.4114 N   0  0  0  0  0  0  0  0  0  0  0  0
   17.9261  -12.1725   20.8592 C   0  0  2  0  0  0  0  0  0  0  0  0
   16.4884  -12.0261   20.2972 C   0  0  0  0  0  0  0  0  0  0  0  0
   15.9769  -12.8924   19.6237 O   0  0  0  0  0  0  0  0  0  0  0  0
   18.9426  -12.0913   19.7370 C   0  0  0  0  0  0  0  0  0  0  0  0
   19.9913  -13.1433   20.0697 C   0  0  0  0  0  0  0  0  0  0  0  0
   19.2315  -14.2226   20.7981 C   0  0  0  0  0  0  0  0  0  0  0  0
   14.4734  -10.6034   20.2471 C   0  0  0  0  0  0  0  0  0  0  0  0
   13.4677  -11.2087   21.1942 C   0  0  0  0  0  0  0  0  0  0  0  0
   12.8101  -10.4396   22.1542 C   0  0  0  0  0  0  0  0  0  0  0  0
   11.2274  -10.1753   24.0186 C   0  0  0  0  0  0  0  0  0  0  0  0
   11.6372  -12.3205   22.9357 C   0  0  0  0  0  0  0  0  0  0  0  0
   12.2650  -13.1272   22.0012 C   0  0  0  0  0  0  0  0  0  0  0  0
   13.1882  -12.5708   21.1321 C   0  0  0  0  0  0  0  0  0  0  0  0
   15.8338  -10.8780   20.6697 N   0  0  0  0  0  0  0  0  0  0  0  0
   11.9134  -11.0007   23.0040 N   0  3  0  0  0  0  0  0  0  0  0  0
   16.3333  -16.9811   23.2768 H   0  0  0  0  0  0  0  0  0  0  0  0
   15.5540  -15.5033   23.4514 H   0  0  0  0  0  0  0  0  0  0  0  0
   18.2475  -15.8881   22.3549 H   0  0  0  0  0  0  0  0  0  0  0  0
   17.9390  -16.3269   24.8403 H   0  0  0  0  0  0  0  0  0  0  0  0
   17.3031  -14.6786   25.0133 H   0  0  0  0  0  0  0  0  0  0  0  0
   18.8272  -13.2243   25.9319 H   0  0  0  0  0  0  0  0  0  0  0  0
   20.2699  -16.2700   23.2491 H   0  0  0  0  0  0  0  0  0  0  0  0
   21.1199  -12.3359   26.1353 H   0  0  0  0  0  0  0  0  0  0  0  0
   22.5590  -15.3817   23.4733 H   0  0  0  0  0  0  0  0  0  0  0  0
   22.9868  -13.4096   24.9116 H   0  0  0  0  0  0  0  0  0  0  0  0
   18.1041  -11.4108   21.6275 H   0  0  0  0  0  0  0  0  0  0  0  0
   19.3877  -11.0963   19.6930 H   0  0  0  0  0  0  0  0  0  0  0  0
   18.4792  -12.3160   18.7689 H   0  0  0  0  0  0  0  0  0  0  0  0
   20.7612  -12.7211   20.7256 H   0  0  0  0  0  0  0  0  0  0  0  0
   20.4637  -13.5389   19.1699 H   0  0  0  0  0  0  0  0  0  0  0  0
   18.8467  -14.9874   20.1139 H   0  0  0  0  0  0  0  0  0  0  0  0
   19.8494  -14.7139   21.5474 H   0  0  0  0  0  0  0  0  0  0  0  0
   14.3427   -9.5161   20.2107 H   0  0  0  0  0  0  0  0  0  0  0  0
   14.3085  -11.0039   19.2398 H   0  0  0  0  0  0  0  0  0  0  0  0
   13.0039   -9.3741   22.2469 H   0  0  0  0  0  0  0  0  0  0  0  0
   10.5505  -10.8115   24.5943 H   0  0  0  0  0  0  0  0  0  0  0  0
   10.6611   -9.3932   23.5099 H   0  0  0  0  0  0  0  0  0  0  0  0
   11.9805   -9.7418   24.6795 H   0  0  0  0  0  0  0  0  0  0  0  0
   10.9159  -12.7370   23.6334 H   0  0  0  0  0  0  0  0  0  0  0  0
   12.0286  -14.1848   21.9468 H   0  0  0  0  0  0  0  0  0  0  0  0
   13.6943  -13.1968   20.4013 H   0  0  0  0  0  0  0  0  0  0  0  0
   16.3184  -10.2190   21.2605 H   0  0  0  0  0  0  0  0  0  0  0  0
   15.9209  -16.0652   21.9285 H   0  0  0  0  0  0  0  0  0  0  0  0
  1  2  1  0  0  0  0
  1 28  1  0  0  0  0
  1 29  1  0  0  0  0
  1 55  1  0  0  0  0
  2  3  1  0  0  0  0
  2  5  1  0  0  0  0
  2 30  1  6  0  0  0
  3  4  2  0  0  0  0
  3 12  1  0  0  0  0
  5  6  1  0  0  0  0
  5 31  1  0  0  0  0
  5 32  1  0  0  0  0
  6  7  2  0  0  0  0
  6  8  1  0  0  0  0
  7  9  1  0  0  0  0
  7 33  1  0  0  0  0
  8 10  2  0  0  0  0
  8 34  1  0  0  0  0
  9 11  2  0  0  0  0
  9 35  1  0  0  0  0
 10 11  1  0  0  0  0
 10 36  1  0  0  0  0
 11 37  1  0  0  0  0
 12 13  1  0  0  0  0
 12 18  1  0  0  0  0
 13 14  1  0  0  0  0
 13 16  1  0  0  0  0
 13 38  1  1  0  0  0
 14 15  2  0  0  0  0
 14 26  1  0  0  0  0
 16 17  1  0  0  0  0
 16 39  1  0  0  0  0
 16 40  1  0  0  0  0
 17 18  1  0  0  0  0
 17 41  1  0  0  0  0
 17 42  1  0  0  0  0
 18 43  1  0  0  0  0
 18 44  1  0  0  0  0
 19 20  1  0  0  0  0
 19 26  1  0  0  0  0
 19 45  1  0  0  0  0
 19 46  1  0  0  0  0
 20 21  2  0  0  0  0
 20 25  1  0  0  0  0
 21 27  1  0  0  0  0
 21 47  1  0  0  0  0
 22 27  1  0  0  0  0
 22 48  1  0  0  0  0
 22 49  1  0  0  0  0
 22 50  1  0  0  0  0
 23 24  1  0  0  0  0
 23 27  2  0  0  0  0
 23 51  1  0  0  0  0
 24 25  2  0  0  0  0
 24 52  1  0  0  0  0
 25 53  1  0  0  0  0
 26 54  1  0  0  0  0
M  CHG  2   1   1  27   1
M  END
$$$$
