149
 OpenBabel04091915393D

 22 22  0  0  1  0  0  0  0  0999 V2000
  -11.9491  -27.2325  -25.5384 C   0  0  0  0  0  0  0  0  0  0  0  0
  -10.8511  -28.1573  -25.0314 C   0  0  1  0  0  0  0  0  0  0  0  0
  -10.0215  -28.7023  -26.1756 C   0  0  2  0  0  0  0  0  0  0  0  0
  -10.8995  -29.1225  -27.3517 C   0  0  2  0  0  0  0  0  0  0  0  0
  -11.7794  -27.9665  -27.8057 C   0  0  1  0  0  0  0  0  0  0  0  0
  -12.7055  -28.3849  -28.9652 C   0  0  0  0  0  0  0  0  0  0  0  0
  -12.2924  -26.2479  -24.8738 O   0  0  0  0  0  0  0  0  0  0  0  0
   -9.9672  -27.5056  -24.0866 O   0  0  0  0  0  0  0  0  0  0  0  0
   -9.2464  -29.8266  -25.7143 O   0  0  0  0  0  0  0  0  0  0  0  0
  -11.7236  -30.2153  -26.9261 O   0  0  0  0  0  0  0  0  0  0  0  0
  -12.5764  -27.4949  -26.7022 O   0  0  0  0  0  0  0  0  0  0  0  0
  -11.9749  -28.9194  -30.0681 O   0  0  0  0  0  0  0  0  0  0  0  0
  -11.3126  -28.9855  -24.4744 H   0  0  0  0  0  0  0  0  0  0  0  0
   -9.3126  -27.9365  -26.5085 H   0  0  0  0  0  0  0  0  0  0  0  0
  -10.2602  -29.4509  -28.1724 H   0  0  0  0  0  0  0  0  0  0  0  0
  -11.1520  -27.1398  -28.1644 H   0  0  0  0  0  0  0  0  0  0  0  0
  -13.2966  -27.5306  -29.3088 H   0  0  0  0  0  0  0  0  0  0  0  0
  -13.4051  -29.1557  -28.6223 H   0  0  0  0  0  0  0  0  0  0  0  0
   -9.5177  -26.7670  -24.5339 H   0  0  0  0  0  0  0  0  0  0  0  0
   -9.8747  -30.5166  -25.4154 H   0  0  0  0  0  0  0  0  0  0  0  0
  -12.2518  -30.5025  -27.6966 H   0  0  0  0  0  0  0  0  0  0  0  0
  -11.3743  -28.2312  -30.4122 H   0  0  0  0  0  0  0  0  0  0  0  0
  1  2  1  0  0  0  0
  1  7  2  0  0  0  0
  1 11  1  0  0  0  0
  2  3  1  0  0  0  0
  2  8  1  0  0  0  0
  2 13  1  1  0  0  0
  3  4  1  0  0  0  0
  3  9  1  0  0  0  0
  3 14  1  6  0  0  0
  4  5  1  0  0  0  0
  4 10  1  0  0  0  0
  4 15  1  6  0  0  0
  5  6  1  0  0  0  0
  5 11  1  0  0  0  0
  5 16  1  6  0  0  0
  6 12  1  0  0  0  0
  6 17  1  0  0  0  0
  6 18  1  0  0  0  0
  8 19  1  0  0  0  0
  9 20  1  0  0  0  0
 10 21  1  0  0  0  0
 12 22  1  0  0  0  0
M  END
$$$$
