149
 OpenBabel04091913043D

 22 22  0  0  1  0  0  0  0  0999 V2000
  -10.6544  -27.9593  -26.4478 C   0  0  0  0  0  0  0  0  0  0  0  0
   -9.7001  -29.0000  -25.8894 C   0  0  1  0  0  0  0  0  0  0  0  0
   -8.8284  -29.5627  -26.9901 C   0  0  2  0  0  0  0  0  0  0  0  0
   -9.6918  -30.0299  -28.1519 C   0  0  2  0  0  0  0  0  0  0  0  0
  -10.3272  -28.7958  -28.7747 C   0  0  1  0  0  0  0  0  0  0  0  0
  -11.4369  -29.1921  -29.7568 C   0  0  0  0  0  0  0  0  0  0  0  0
  -11.1851  -27.1249  -25.6875 O   0  0  0  0  0  0  0  0  0  0  0  0
   -8.8356  -28.4549  -24.8648 O   0  0  0  0  0  0  0  0  0  0  0  0
   -8.0531  -30.6675  -26.4981 O   0  0  0  0  0  0  0  0  0  0  0  0
  -10.7075  -30.9142  -27.6538 O   0  0  0  0  0  0  0  0  0  0  0  0
  -10.8932  -27.9021  -27.7754 O   0  0  0  0  0  0  0  0  0  0  0  0
  -10.9126  -29.9377  -30.8541 O   0  0  0  0  0  0  0  0  0  0  0  0
  -10.2799  -29.8015  -25.4081 H   0  0  0  0  0  0  0  0  0  0  0  0
   -8.1247  -28.7967  -27.3350 H   0  0  0  0  0  0  0  0  0  0  0  0
   -9.0815  -30.5754  -28.8818 H   0  0  0  0  0  0  0  0  0  0  0  0
   -9.5602  -28.2446  -29.3405 H   0  0  0  0  0  0  0  0  0  0  0  0
  -11.9631  -28.3127  -30.1326 H   0  0  0  0  0  0  0  0  0  0  0  0
  -12.1814  -29.8166  -29.2526 H   0  0  0  0  0  0  0  0  0  0  0  0
   -8.3309  -27.7194  -25.2587 H   0  0  0  0  0  0  0  0  0  0  0  0
   -7.5377  -30.3461  -25.7331 H   0  0  0  0  0  0  0  0  0  0  0  0
  -11.2541  -31.2154  -28.4029 H   0  0  0  0  0  0  0  0  0  0  0  0
  -10.2837  -29.3688  -31.3350 H   0  0  0  0  0  0  0  0  0  0  0  0
  1  2  1  0  0  0  0
  1  7  2  0  0  0  0
  1 11  1  0  0  0  0
  2  3  1  0  0  0  0
  2  8  1  0  0  0  0
  2 13  1  1  0  0  0
  3  4  1  0  0  0  0
  3  9  1  0  0  0  0
  3 14  1  6  0  0  0
  4  5  1  0  0  0  0
  4 10  1  0  0  0  0
  4 15  1  6  0  0  0
  5  6  1  0  0  0  0
  5 11  1  0  0  0  0
  5 16  1  6  0  0  0
  6 12  1  0  0  0  0
  6 17  1  0  0  0  0
  6 18  1  0  0  0  0
  8 19  1  0  0  0  0
  9 20  1  0  0  0  0
 10 21  1  0  0  0  0
 12 22  1  0  0  0  0
M  END
$$$$
