149
 OpenBabel04091915303D

 22 22  0  0  1  0  0  0  0  0999 V2000
   53.9457   -8.9962   28.9209 C   0  0  0  0  0  0  0  0  0  0  0  0
   53.7107   -8.0524   27.7537 C   0  0  1  0  0  0  0  0  0  0  0  0
   52.5284   -7.1542   28.0285 C   0  0  2  0  0  0  0  0  0  0  0  0
   51.3952   -8.0265   28.5708 C   0  0  2  0  0  0  0  0  0  0  0  0
   51.7836   -8.5255   29.9564 C   0  0  1  0  0  0  0  0  0  0  0  0
   50.7993   -9.5633   30.5155 C   0  0  0  0  0  0  0  0  0  0  0  0
   54.9923   -9.6578   28.9382 O   0  0  0  0  0  0  0  0  0  0  0  0
   54.8754   -7.2488   27.4447 O   0  0  0  0  0  0  0  0  0  0  0  0
   52.0951   -6.5009   26.8255 O   0  0  0  0  0  0  0  0  0  0  0  0
   51.1891   -9.1287   27.6755 O   0  0  0  0  0  0  0  0  0  0  0  0
   53.1014   -9.1079   29.9577 O   0  0  0  0  0  0  0  0  0  0  0  0
   49.4857   -9.0173   30.5845 O   0  0  0  0  0  0  0  0  0  0  0  0
   53.5116   -8.6436   26.8429 H   0  0  0  0  0  0  0  0  0  0  0  0
   52.8016   -6.3793   28.7541 H   0  0  0  0  0  0  0  0  0  0  0  0
   50.4800   -7.4388   28.6234 H   0  0  0  0  0  0  0  0  0  0  0  0
   51.7768   -7.6648   30.6416 H   0  0  0  0  0  0  0  0  0  0  0  0
   51.1079   -9.8935   31.5153 H   0  0  0  0  0  0  0  0  0  0  0  0
   50.7730  -10.4492   29.8693 H   0  0  0  0  0  0  0  0  0  0  0  0
   55.1014   -6.7203   28.2278 H   0  0  0  0  0  0  0  0  0  0  0  0
   52.8307   -5.9679   26.4771 H   0  0  0  0  0  0  0  0  0  0  0  0
   50.4439   -9.6610   28.0063 H   0  0  0  0  0  0  0  0  0  0  0  0
   49.5064   -8.2465   31.1814 H   0  0  0  0  0  0  0  0  0  0  0  0
  1  2  1  0  0  0  0
  1  7  2  0  0  0  0
  1 11  1  0  0  0  0
  2  3  1  0  0  0  0
  2  8  1  0  0  0  0
  2 13  1  6  0  0  0
  3  4  1  0  0  0  0
  3  9  1  0  0  0  0
  3 14  1  1  0  0  0
  4  5  1  0  0  0  0
  4 10  1  0  0  0  0
  4 15  1  1  0  0  0
  5  6  1  0  0  0  0
  5 11  1  0  0  0  0
  5 16  1  1  0  0  0
  6 12  1  0  0  0  0
  6 17  1  0  0  0  0
  6 18  1  0  0  0  0
  8 19  1  0  0  0  0
  9 20  1  0  0  0  0
 10 21  1  0  0  0  0
 12 22  1  0  0  0  0
M  END
$$$$
