149
 OpenBabel04091913543D

 22 22  0  0  1  0  0  0  0  0999 V2000
  -10.8499  -27.5944  -26.2844 C   0  0  0  0  0  0  0  0  0  0  0  0
   -9.8769  -28.6238  -25.7300 C   0  0  1  0  0  0  0  0  0  0  0  0
   -9.0082  -29.2174  -26.8227 C   0  0  2  0  0  0  0  0  0  0  0  0
   -9.8772  -29.6395  -28.0033 C   0  0  2  0  0  0  0  0  0  0  0  0
  -10.4730  -28.3771  -28.6138 C   0  0  1  0  0  0  0  0  0  0  0  0
  -11.5541  -28.7292  -29.6441 C   0  0  0  0  0  0  0  0  0  0  0  0
  -11.4159  -26.7885  -25.5179 O   0  0  0  0  0  0  0  0  0  0  0  0
   -9.0155  -28.0448  -24.7213 O   0  0  0  0  0  0  0  0  0  0  0  0
   -8.2843  -30.3599  -26.3331 O   0  0  0  0  0  0  0  0  0  0  0  0
  -10.9218  -30.5009  -27.5252 O   0  0  0  0  0  0  0  0  0  0  0  0
  -11.0646  -27.5077  -27.6126 O   0  0  0  0  0  0  0  0  0  0  0  0
  -10.9838  -29.3941  -30.7700 O   0  0  0  0  0  0  0  0  0  0  0  0
  -10.4460  -29.4184  -25.2256 H   0  0  0  0  0  0  0  0  0  0  0  0
   -8.2663  -28.4815  -27.1538 H   0  0  0  0  0  0  0  0  0  0  0  0
   -9.2778  -30.1932  -28.7368 H   0  0  0  0  0  0  0  0  0  0  0  0
   -9.6827  -27.8156  -29.1359 H   0  0  0  0  0  0  0  0  0  0  0  0
  -12.0943  -27.8405  -29.9799 H   0  0  0  0  0  0  0  0  0  0  0  0
  -12.3002  -29.3977  -29.2029 H   0  0  0  0  0  0  0  0  0  0  0  0
   -8.5221  -27.3122  -25.1340 H   0  0  0  0  0  0  0  0  0  0  0  0
   -7.7595  -30.0779  -25.5600 H   0  0  0  0  0  0  0  0  0  0  0  0
  -11.4746  -30.7775  -28.2800 H   0  0  0  0  0  0  0  0  0  0  0  0
  -10.3544  -28.7816  -31.1936 H   0  0  0  0  0  0  0  0  0  0  0  0
  1  2  1  0  0  0  0
  1  7  2  0  0  0  0
  1 11  1  0  0  0  0
  2  3  1  0  0  0  0
  2  8  1  0  0  0  0
  2 13  1  1  0  0  0
  3  4  1  0  0  0  0
  3  9  1  0  0  0  0
  3 14  1  6  0  0  0
  4  5  1  0  0  0  0
  4 10  1  0  0  0  0
  4 15  1  6  0  0  0
  5  6  1  0  0  0  0
  5 11  1  0  0  0  0
  5 16  1  6  0  0  0
  6 12  1  0  0  0  0
  6 17  1  0  0  0  0
  6 18  1  0  0  0  0
  8 19  1  0  0  0  0
  9 20  1  0  0  0  0
 10 21  1  0  0  0  0
 12 22  1  0  0  0  0
M  END
$$$$
