14B
 OpenBabel04091916023D

 22 22  0  0  0  0  0  0  0  0999 V2000
    7.9578   -3.2627   29.5225 C   0  0  0  0  0  0  0  0  0  0  0  0
    9.1791   -4.4328   24.8061 C   0  0  0  0  0  0  0  0  0  0  0  0
    7.6711   -6.8463   25.1025 N   0  0  0  0  0  0  0  0  0  0  0  0
    5.6565   -7.7351   28.7183 O   0  0  0  0  0  0  0  0  0  0  0  0
    6.0717   -8.3412   26.5781 O   0  0  0  0  0  0  0  0  0  0  0  0
    8.5319   -3.9168   27.1667 C   0  0  0  0  0  0  0  0  0  0  0  0
    7.1366   -5.3940   28.4645 C   0  0  0  0  0  0  0  0  0  0  0  0
    6.1961   -7.5526   27.5741 C   0  0  0  0  0  0  0  0  0  0  0  0
    7.8749   -4.2069   28.3659 C   0  0  0  0  0  0  0  0  0  0  0  0
    8.4557   -4.7899   26.0766 C   0  0  0  0  0  0  0  0  0  0  0  0
    7.7024   -5.9770   26.1845 C   0  0  0  0  0  0  0  0  0  0  0  0
    7.0353   -6.2921   27.3938 C   0  0  0  0  0  0  0  0  0  0  0  0
    8.5596   -2.3852   29.2635 H   0  0  0  0  0  0  0  0  0  0  0  0
    8.4257   -3.7544   30.3788 H   0  0  0  0  0  0  0  0  0  0  0  0
    6.9583   -2.9140   29.8010 H   0  0  0  0  0  0  0  0  0  0  0  0
    9.7063   -3.4786   24.8999 H   0  0  0  0  0  0  0  0  0  0  0  0
    8.4725   -4.3375   23.9746 H   0  0  0  0  0  0  0  0  0  0  0  0
    9.9234   -5.1974   24.5597 H   0  0  0  0  0  0  0  0  0  0  0  0
    8.0920   -6.6280   24.2237 H   0  0  0  0  0  0  0  0  0  0  0  0
    7.0717   -7.6781   25.2308 H   0  0  0  0  0  0  0  0  0  0  0  0
    9.1049   -3.0015   27.0768 H   0  0  0  0  0  0  0  0  0  0  0  0
    6.6296   -5.6338   29.4035 H   0  0  0  0  0  0  0  0  0  0  0  0
  1  9  1  0  0  0  0
  1 13  1  0  0  0  0
  1 14  1  0  0  0  0
  1 15  1  0  0  0  0
  2 10  1  0  0  0  0
  2 16  1  0  0  0  0
  2 17  1  0  0  0  0
  2 18  1  0  0  0  0
  3 11  1  0  0  0  0
  3 19  1  0  0  0  0
  3 20  1  0  0  0  0
  4  8  2  0  0  0  0
  5  8  1  0  0  0  0
  6  9  2  0  0  0  0
  6 10  1  0  0  0  0
  6 21  1  0  0  0  0
  7  9  1  0  0  0  0
  7 12  2  0  0  0  0
  7 22  1  0  0  0  0
  8 12  1  0  0  0  0
 10 11  2  0  0  0  0
 11 12  1  0  0  0  0
M  END
$$$$
