14F
 OpenBabel04091914583D

 24 24  0  0  0  0  0  0  0  0999 V2000
   -8.1757  -29.4327    5.8258 C   0  0  0  0  0  0  0  0  0  0  0  0
   -4.5449  -32.1723    8.9467 C   0  0  0  0  0  0  0  0  0  0  0  0
   -3.5751  -28.3379    3.9729 N   0  0  0  0  0  0  0  0  0  0  0  0
   -0.9049  -30.0905    6.7640 O   0  0  0  0  0  0  0  0  0  0  0  0
   -1.1728  -28.5808    5.1011 O   0  0  0  0  0  0  0  0  0  0  0  0
   -5.4095  -29.2191    5.2828 C   0  0  0  0  0  0  0  0  0  0  0  0
   -3.6429  -30.4393    7.0239 C   0  0  0  0  0  0  0  0  0  0  0  0
   -7.2570  -30.3051    6.4772 O   0  0  0  0  0  0  0  0  0  0  0  0
   -5.5268  -31.5011    8.1566 O   0  0  0  0  0  0  0  0  0  0  0  0
   -1.6150  -29.4208    5.9412 C   0  0  0  0  0  0  0  0  0  0  0  0
   -4.0304  -28.9873    5.1374 C   0  0  0  0  0  0  0  0  0  0  0  0
   -5.9202  -30.0394    6.3056 C   0  0  0  0  0  0  0  0  0  0  0  0
   -5.0173  -30.6724    7.1775 C   0  0  0  0  0  0  0  0  0  0  0  0
   -3.1264  -29.6144    6.0132 C   0  0  0  0  0  0  0  0  0  0  0  0
   -9.1911  -29.7593    6.0738 H   0  0  0  0  0  0  0  0  0  0  0  0
   -8.0865  -29.4827    4.7352 H   0  0  0  0  0  0  0  0  0  0  0  0
   -8.0604  -28.4038    6.1837 H   0  0  0  0  0  0  0  0  0  0  0  0
   -5.0552  -32.8118    9.6718 H   0  0  0  0  0  0  0  0  0  0  0  0
   -3.9401  -31.4558    9.5152 H   0  0  0  0  0  0  0  0  0  0  0  0
   -3.9125  -32.8184    8.3257 H   0  0  0  0  0  0  0  0  0  0  0  0
   -4.1479  -27.5881    3.6204 H   0  0  0  0  0  0  0  0  0  0  0  0
   -2.5798  -28.0703    4.1189 H   0  0  0  0  0  0  0  0  0  0  0  0
   -6.0680  -28.7640    4.5553 H   0  0  0  0  0  0  0  0  0  0  0  0
   -2.9125  -30.9015    7.6780 H   0  0  0  0  0  0  0  0  0  0  0  0
  1  8  1  0  0  0  0
  1 15  1  0  0  0  0
  1 16  1  0  0  0  0
  1 17  1  0  0  0  0
  2  9  1  0  0  0  0
  2 18  1  0  0  0  0
  2 19  1  0  0  0  0
  2 20  1  0  0  0  0
  3 11  1  0  0  0  0
  3 21  1  0  0  0  0
  3 22  1  0  0  0  0
  4 10  2  0  0  0  0
  5 10  1  0  0  0  0
  6 11  2  0  0  0  0
  6 12  1  0  0  0  0
  6 23  1  0  0  0  0
  7 13  1  0  0  0  0
  7 14  2  0  0  0  0
  7 24  1  0  0  0  0
  8 12  1  0  0  0  0
  9 13  1  0  0  0  0
 10 14  1  0  0  0  0
 11 14  1  0  0  0  0
 12 13  2  0  0  0  0
M  END
$$$$
