17C
 OpenBabel04091914533D

 28 29  0  0  0  0  0  0  0  0999 V2000
   30.9688   -4.4821   26.8223 O   0  0  0  0  0  0  0  0  0  0  0  0
   26.7926   -7.4055   29.1294 O   0  0  0  0  0  0  0  0  0  0  0  0
   31.7278   -5.2749   24.8460 O   0  0  0  0  0  0  0  0  0  0  0  0
   28.1320   -5.8501   28.1961 O   0  0  0  0  0  0  0  0  0  0  0  0
   34.0454   -8.3549   28.0147 C   0  0  0  0  0  0  0  0  0  0  0  0
   30.5593   -7.4942   32.3672 C   0  0  0  0  0  0  0  0  0  0  0  0
   34.3845   -7.8335   26.7790 C   0  0  0  0  0  0  0  0  0  0  0  0
   29.1886   -7.6376   32.5084 C   0  0  0  0  0  0  0  0  0  0  0  0
   32.8693   -7.9324   28.6446 C   0  0  0  0  0  0  0  0  0  0  0  0
   31.0888   -7.0759   31.1425 C   0  0  0  0  0  0  0  0  0  0  0  0
   33.5539   -6.8837   26.1934 C   0  0  0  0  0  0  0  0  0  0  0  0
   28.3629   -7.3638   31.4230 C   0  0  0  0  0  0  0  0  0  0  0  0
   30.8487   -6.5249   28.7620 N   0  0  0  0  0  0  0  0  0  0  0  0
   31.6039   -5.3228   26.1172 C   0  0  0  0  0  0  0  0  0  0  0  0
   27.8778   -6.7280   29.0624 C   0  0  0  0  0  0  0  0  0  0  0  0
   32.0245   -6.9432   28.0955 C   0  0  0  0  0  0  0  0  0  0  0  0
   30.2773   -6.8195   30.0190 C   0  0  0  0  0  0  0  0  0  0  0  0
   32.3863   -6.4073   26.8365 C   0  0  0  0  0  0  0  0  0  0  0  0
   28.8812   -6.9629   30.1715 C   0  0  0  0  0  0  0  0  0  0  0  0
   34.6737   -9.1007   28.4887 H   0  0  0  0  0  0  0  0  0  0  0  0
   31.2216   -7.7038   33.1994 H   0  0  0  0  0  0  0  0  0  0  0  0
   35.2782   -8.1621   26.2607 H   0  0  0  0  0  0  0  0  0  0  0  0
   28.7531   -7.9566   33.4483 H   0  0  0  0  0  0  0  0  0  0  0  0
   32.6049   -8.4213   29.5746 H   0  0  0  0  0  0  0  0  0  0  0  0
   32.1614   -6.9220   31.0710 H   0  0  0  0  0  0  0  0  0  0  0  0
   33.8032   -6.4811   25.2125 H   0  0  0  0  0  0  0  0  0  0  0  0
   27.2820   -7.4662   31.5253 H   0  0  0  0  0  0  0  0  0  0  0  0
   30.2456   -5.8995   28.1877 H   0  0  0  0  0  0  0  0  0  0  0  0
  1 14  2  0  0  0  0
  2 15  2  0  0  0  0
  3 14  1  0  0  0  0
  4 15  1  0  0  0  0
  5  7  2  0  0  0  0
  5  9  1  0  0  0  0
  5 20  1  0  0  0  0
  6  8  2  0  0  0  0
  6 10  1  0  0  0  0
  6 21  1  0  0  0  0
  7 11  1  0  0  0  0
  7 22  1  0  0  0  0
  8 12  1  0  0  0  0
  8 23  1  0  0  0  0
  9 16  2  0  0  0  0
  9 24  1  0  0  0  0
 10 17  2  0  0  0  0
 10 25  1  0  0  0  0
 11 18  2  0  0  0  0
 11 26  1  0  0  0  0
 12 19  2  0  0  0  0
 12 27  1  0  0  0  0
 13 16  1  0  0  0  0
 13 17  1  0  0  0  0
 13 28  1  0  0  0  0
 14 18  1  0  0  0  0
 15 19  1  0  0  0  0
 16 18  1  0  0  0  0
 17 19  1  0  0  0  0
M  END
$$$$
