1BN
 OpenBabel04091914283D

 22 23  0  0  0  0  0  0  0  0999 V2000
    8.6564   11.8963  -14.6737 C   0  0  0  0  0  0  0  0  0  0  0  0
    8.3254   12.0802  -13.3538 C   0  0  0  0  0  0  0  0  0  0  0  0
    8.9688   13.1443  -15.1359 N   0  3  0  0  0  0  0  0  0  0  0  0
    8.8004   14.0232  -14.1032 C   0  0  0  0  0  0  0  0  0  0  0  0
    8.4086   13.4033  -13.0110 N   0  0  0  0  0  0  0  0  0  0  0  0
    9.4866   13.4333  -16.4633 C   0  0  0  0  0  0  0  0  0  0  0  0
    8.6883   14.4478  -17.2323 C   0  0  0  0  0  0  0  0  0  0  0  0
    7.2835   14.4498  -17.2374 C   0  0  0  0  0  0  0  0  0  0  0  0
    9.3694   15.3784  -18.0300 C   0  0  0  0  0  0  0  0  0  0  0  0
    6.5843   15.3945  -17.9842 C   0  0  0  0  0  0  0  0  0  0  0  0
    8.6739   16.3328  -18.7597 C   0  0  0  0  0  0  0  0  0  0  0  0
    7.2808   16.3453  -18.7279 C   0  0  0  0  0  0  0  0  0  0  0  0
    8.7086   11.0134  -15.2939 H   0  0  0  0  0  0  0  0  0  0  0  0
    8.0370   11.3236  -12.6349 H   0  0  0  0  0  0  0  0  0  0  0  0
    8.9725   15.0894  -14.1925 H   0  0  0  0  0  0  0  0  0  0  0  0
    9.5071   12.4979  -17.0345 H   0  0  0  0  0  0  0  0  0  0  0  0
   10.5183   13.7729  -16.3195 H   0  0  0  0  0  0  0  0  0  0  0  0
    6.7224   13.7181  -16.6558 H   0  0  0  0  0  0  0  0  0  0  0  0
   10.4602   15.3596  -18.0877 H   0  0  0  0  0  0  0  0  0  0  0  0
    5.4963   15.3930  -17.9831 H   0  0  0  0  0  0  0  0  0  0  0  0
    9.2135   17.0669  -19.3532 H   0  0  0  0  0  0  0  0  0  0  0  0
    6.7344   17.0976  -19.2902 H   0  0  0  0  0  0  0  0  0  0  0  0
  1  2  2  0  0  0  0
  1  3  1  0  0  0  0
  1 13  1  0  0  0  0
  2  5  1  0  0  0  0
  2 14  1  0  0  0  0
  3  4  2  0  0  0  0
  3  6  1  0  0  0  0
  4  5  1  0  0  0  0
  4 15  1  0  0  0  0
  6  7  1  0  0  0  0
  6 16  1  0  0  0  0
  6 17  1  0  0  0  0
  7  8  2  0  0  0  0
  7  9  1  0  0  0  0
  8 10  1  0  0  0  0
  8 18  1  0  0  0  0
  9 11  2  0  0  0  0
  9 19  1  0  0  0  0
 10 12  2  0  0  0  0
 10 20  1  0  0  0  0
 11 12  1  0  0  0  0
 11 21  1  0  0  0  0
 12 22  1  0  0  0  0
M  CHG  1   3   1
M  END
$$$$
