1CE
 OpenBabel04091912403D

 31 34  0  0  0  0  0  0  0  0999 V2000
   -4.0775   50.8369    9.9520 O   0  0  0  0  0  0  0  0  0  0  0  0
   -4.8946   51.6402   10.3987 C   0  0  0  0  0  0  0  0  0  0  0  0
   -5.1090   51.8688   11.7545 N   0  3  0  0  0  0  0  0  0  0  0  0
   -4.2076   51.2551   12.7297 C   0  0  0  0  0  0  0  0  0  0  0  0
   -2.9484   52.0324   12.8638 C   0  0  0  0  0  0  0  0  0  0  0  0
   -2.9266   53.3605   13.1077 N   0  0  0  0  0  0  0  0  0  0  0  0
   -1.7203   51.4767   12.8111 N   0  0  0  0  0  0  0  0  0  0  0  0
   -0.8838   52.5364   12.9270 N   0  0  0  0  0  0  0  0  0  0  0  0
   -1.6082   53.6664   13.1019 N   0  0  0  0  0  0  0  0  0  0  0  0
   -5.7793   52.4024    9.5130 C   0  0  0  0  0  0  0  0  0  0  0  0
   -5.8623   52.4483    8.0715 C   0  0  0  0  0  0  0  0  0  0  0  0
   -5.0171   51.7065    7.0729 C   0  0  0  0  0  0  0  0  0  0  0  0
   -5.1085   52.3521    5.6745 C   0  0  0  0  0  0  0  0  0  0  0  0
   -6.5639   52.6150    5.2679 C   0  0  0  0  0  0  0  0  0  0  0  0
   -7.2584   53.5906    6.2314 C   0  0  0  0  0  0  0  0  0  0  0  0
   -6.8833   53.2923    7.6569 C   0  0  0  0  0  0  0  0  0  0  0  0
   -7.6833   54.0332    8.9651 S   0  0  0  0  0  0  0  0  0  0  0  0
   -6.7127   53.2244   10.1105 C   0  0  0  0  0  0  0  0  0  0  0  0
   -6.8965   53.4203   11.4431 N   0  0  0  0  0  0  0  0  0  0  0  0
   -6.0700   52.7608   12.1998 C   0  0  0  0  0  0  0  0  0  0  0  0
   -3.9886   50.2240   12.4284 H   0  0  0  0  0  0  0  0  0  0  0  0
   -4.6917   51.2114   13.7171 H   0  0  0  0  0  0  0  0  0  0  0  0
   -5.3636   50.6665    7.0122 H   0  0  0  0  0  0  0  0  0  0  0  0
   -3.9683   51.6876    7.3854 H   0  0  0  0  0  0  0  0  0  0  0  0
   -4.6279   51.7039    4.9333 H   0  0  0  0  0  0  0  0  0  0  0  0
   -4.5596   53.3021    5.6763 H   0  0  0  0  0  0  0  0  0  0  0  0
   -7.1111   51.6671    5.2524 H   0  0  0  0  0  0  0  0  0  0  0  0
   -6.6003   53.0170    4.2450 H   0  0  0  0  0  0  0  0  0  0  0  0
   -8.3432   53.5196    6.0856 H   0  0  0  0  0  0  0  0  0  0  0  0
   -6.9674   54.6175    5.9761 H   0  0  0  0  0  0  0  0  0  0  0  0
   -6.1250   52.8716   13.2912 H   0  0  0  0  0  0  0  0  0  0  0  0
  1  2  2  0  0  0  0
  2  3  1  0  0  0  0
  2 10  1  0  0  0  0
  3  4  1  0  0  0  0
  3 20  1  0  0  0  0
  4  5  1  0  0  0  0
  4 21  1  0  0  0  0
  4 22  1  0  0  0  0
  5  6  1  0  0  0  0
  5  7  2  0  0  0  0
  6  9  1  0  0  0  0
  7  8  1  0  0  0  0
  8  9  2  0  0  0  0
 10 11  1  0  0  0  0
 10 18  2  0  0  0  0
 11 12  1  0  0  0  0
 11 16  2  0  0  0  0
 12 13  1  0  0  0  0
 12 23  1  0  0  0  0
 12 24  1  0  0  0  0
 13 14  1  0  0  0  0
 13 25  1  0  0  0  0
 13 26  1  0  0  0  0
 14 15  1  0  0  0  0
 14 27  1  0  0  0  0
 14 28  1  0  0  0  0
 15 16  1  0  0  0  0
 15 29  1  0  0  0  0
 15 30  1  0  0  0  0
 16 17  1  0  0  0  0
 17 18  1  0  0  0  0
 18 19  1  0  0  0  0
 19 20  2  0  0  0  0
 20 31  1  0  0  0  0
M  CHG  1   3   1
M  END
$$$$
