1EL
 OpenBabel04091914203D

 35 38  0  0  0  0  0  0  0  0999 V2000
   23.2313    7.5215   11.2693 C   0  0  0  0  0  0  0  0  0  0  0  0
   23.4081    8.3826   10.2269 O   0  0  0  0  0  0  0  0  0  0  0  0
   23.1910    6.1616   11.0427 C   0  0  0  0  0  0  0  0  0  0  0  0
   23.0092    5.2639   12.1080 C   0  0  0  0  0  0  0  0  0  0  0  0
   22.8729    5.7932   13.4026 C   0  0  0  0  0  0  0  0  0  0  0  0
   22.9115    7.1638   13.6485 C   0  0  0  0  0  0  0  0  0  0  0  0
   23.0937    8.0241   12.5517 C   0  0  0  0  0  0  0  0  0  0  0  0
   22.6896    5.1799   14.6185 N   0  3  0  0  0  0  0  0  0  0  0  0
   22.6069    6.1020   15.6487 C   0  0  0  0  0  0  0  0  0  0  0  0
   22.7457    7.3641   15.0631 C   0  0  0  0  0  0  0  0  0  0  0  0
   22.4211    5.9053   17.0397 C   0  0  0  0  0  0  0  0  0  0  0  0
   22.2762    4.5363   17.6490 C   0  0  0  0  0  0  0  0  0  0  0  0
   22.3833    7.0804   17.8410 C   0  0  0  0  0  0  0  0  0  0  0  0
   22.5234    8.3636   17.2649 C   0  0  0  0  0  0  0  0  0  0  0  0
   22.7080    8.5320   15.8692 C   0  0  0  0  0  0  0  0  0  0  0  0
   22.8552    9.9181   15.3013 C   0  0  0  0  0  0  0  0  0  0  0  0
   22.1895    6.9886   19.2988 C   0  0  0  0  0  0  0  0  0  0  0  0
   22.1552    8.0881   20.0559 C   0  0  0  0  0  0  0  0  0  0  0  0
   22.2858    9.3274   19.5102 N   0  3  0  0  0  0  0  0  0  0  0  0
   22.4730    9.5701   18.1683 C   0  0  0  0  0  0  0  0  0  0  0  0
   22.5789   10.7254   17.8009 O   0  0  0  0  0  0  0  0  0  0  0  0
   23.4078    9.2914   10.5809 H   0  0  0  0  0  0  0  0  0  0  0  0
   23.3024    5.7947   10.0267 H   0  0  0  0  0  0  0  0  0  0  0  0
   22.9789    4.1948   11.9208 H   0  0  0  0  0  0  0  0  0  0  0  0
   23.1329    9.0926   12.6673 H   0  0  0  0  0  0  0  0  0  0  0  0
   22.6248    4.1786   14.7421 H   0  0  0  0  0  0  0  0  0  0  0  0
   22.3299    3.7395   16.9021 H   0  0  0  0  0  0  0  0  0  0  0  0
   21.3076    4.4473   18.1505 H   0  0  0  0  0  0  0  0  0  0  0  0
   23.0774    4.3574   18.3731 H   0  0  0  0  0  0  0  0  0  0  0  0
   22.9947    9.9372   14.2344 H   0  0  0  0  0  0  0  0  0  0  0  0
   23.7465   10.4076   15.7051 H   0  0  0  0  0  0  0  0  0  0  0  0
   21.9491   10.5051   15.4740 H   0  0  0  0  0  0  0  0  0  0  0  0
   22.0909    6.0165   19.7850 H   0  0  0  0  0  0  0  0  0  0  0  0
   22.0145    8.0507   21.1283 H   0  0  0  0  0  0  0  0  0  0  0  0
   22.2532   10.1518   20.0912 H   0  0  0  0  0  0  0  0  0  0  0  0
  1  2  1  0  0  0  0
  1  3  1  0  0  0  0
  1  7  2  0  0  0  0
  2 22  1  0  0  0  0
  3  4  2  0  0  0  0
  3 23  1  0  0  0  0
  4  5  1  0  0  0  0
  4 24  1  0  0  0  0
  5  6  1  0  0  0  0
  5  8  2  0  0  0  0
  6  7  1  0  0  0  0
  6 10  2  0  0  0  0
  7 25  1  0  0  0  0
  8  9  1  0  0  0  0
  8 26  1  0  0  0  0
  9 10  1  0  0  0  0
  9 11  2  0  0  0  0
 10 15  1  0  0  0  0
 11 12  1  0  0  0  0
 11 13  1  0  0  0  0
 12 27  1  0  0  0  0
 12 28  1  0  0  0  0
 12 29  1  0  0  0  0
 13 14  1  0  0  0  0
 13 17  2  0  0  0  0
 14 15  2  0  0  0  0
 14 20  1  0  0  0  0
 15 16  1  0  0  0  0
 16 30  1  0  0  0  0
 16 31  1  0  0  0  0
 16 32  1  0  0  0  0
 17 18  1  0  0  0  0
 17 33  1  0  0  0  0
 18 19  2  0  0  0  0
 18 34  1  0  0  0  0
 19 20  1  0  0  0  0
 19 35  1  0  0  0  0
 20 21  2  0  0  0  0
M  CHG  2   8   1  19   1
M  END
$$$$
