1GH
 OpenBabel04091916523D

 52 56  0  0  1  0  0  0  0  0999 V2000
    3.0309   -5.4768   26.5414 O   0  0  0  0  0  0  0  0  0  0  0  0
    2.6373   -5.6155   25.3996 C   0  0  0  0  0  0  0  0  0  0  0  0
    2.2351   -6.7897   24.7702 N   0  3  0  0  0  0  0  0  0  0  0  0
    2.2653   -8.0392   25.5009 C   0  0  1  0  0  0  0  0  0  0  0  0
    0.9152   -8.7035   25.6214 C   0  0  0  0  0  0  0  0  0  0  0  0
    0.8779  -10.0656   25.6421 N   0  0  0  0  0  0  0  0  0  0  0  0
   -0.3276  -10.6457   25.7366 C   0  0  0  0  0  0  0  0  0  0  0  0
   -1.5097   -9.9431   25.7985 C   0  0  0  0  0  0  0  0  0  0  0  0
   -1.4586   -8.5606   25.7760 C   0  0  0  0  0  0  0  0  0  0  0  0
   -0.2333   -7.9279   25.6917 C   0  0  0  0  0  0  0  0  0  0  0  0
    3.3140   -8.9844   24.9441 C   0  0  0  0  0  0  0  0  0  0  0  0
    2.4876   -4.5755   24.4660 N   0  3  0  0  0  0  0  0  0  0  0  0
    2.0088   -5.1137   23.2950 C   0  0  0  0  0  0  0  0  0  0  0  0
    1.8378   -6.4873   23.4428 C   0  0  0  0  0  0  0  0  0  0  0  0
    1.7175   -4.4838   22.1183 C   0  0  0  0  0  0  0  0  0  0  0  0
    1.2381   -5.1716   21.0491 N   0  0  0  0  0  0  0  0  0  0  0  0
    1.0615   -6.4997   21.1620 C   0  0  0  0  0  0  0  0  0  0  0  0
    1.3463   -7.2123   22.3561 C   0  0  0  0  0  0  0  0  0  0  0  0
    1.1209   -8.5975   22.3706 C   0  0  0  0  0  0  0  0  0  0  0  0
    0.5785   -7.1748   20.0596 C   0  0  0  0  0  0  0  0  0  0  0  0
    0.3617   -8.5456   20.0809 C   0  0  0  0  0  0  0  0  0  0  0  0
    0.6364   -9.2611   21.2580 C   0  0  0  0  0  0  0  0  0  0  0  0
    0.3653  -10.6043   21.2154 O   0  0  0  0  0  0  0  0  0  0  0  0
    0.7954  -11.4035   22.2927 C   0  0  0  0  0  0  0  0  0  0  0  0
   -0.1808   -9.2197   18.9337 C   0  0  0  0  0  0  0  0  0  0  0  0
    0.3685  -10.3089   18.2751 C   0  0  0  0  0  0  0  0  0  0  0  0
    1.5891  -11.0804   18.4726 C   0  0  0  0  0  0  0  0  0  0  0  0
   -0.4477  -10.6844   17.2459 O   0  0  0  0  0  0  0  0  0  0  0  0
   -1.5452   -9.8461   17.2154 N   0  0  0  0  0  0  0  0  0  0  0  0
   -1.3638   -8.9959   18.2117 C   0  0  0  0  0  0  0  0  0  0  0  0
   -2.3383   -7.9620   18.4863 C   0  0  0  0  0  0  0  0  0  0  0  0
    2.5664   -7.8309   26.5368 H   0  0  0  0  0  0  0  0  0  0  0  0
   -0.3340  -11.7299   25.7467 H   0  0  0  0  0  0  0  0  0  0  0  0
   -2.4514  -10.4653   25.8693 H   0  0  0  0  0  0  0  0  0  0  0  0
   -2.3677   -7.9799   25.8327 H   0  0  0  0  0  0  0  0  0  0  0  0
   -0.1750   -6.8455   25.6670 H   0  0  0  0  0  0  0  0  0  0  0  0
    3.3243   -9.9319   25.4951 H   0  0  0  0  0  0  0  0  0  0  0  0
    4.3005   -8.5326   25.0035 H   0  0  0  0  0  0  0  0  0  0  0  0
    3.1220   -9.2151   23.8996 H   0  0  0  0  0  0  0  0  0  0  0  0
    2.7162   -3.6236   24.6693 H   0  0  0  0  0  0  0  0  0  0  0  0
    1.8536   -3.4144   21.9932 H   0  0  0  0  0  0  0  0  0  0  0  0
    1.3178   -9.1658   23.2605 H   0  0  0  0  0  0  0  0  0  0  0  0
    0.3611   -6.6316   19.1377 H   0  0  0  0  0  0  0  0  0  0  0  0
    0.5178  -12.4379   22.0737 H   0  0  0  0  0  0  0  0  0  0  0  0
    0.2847  -11.0947   23.1962 H   0  0  0  0  0  0  0  0  0  0  0  0
    1.8779  -11.3459   22.4100 H   0  0  0  0  0  0  0  0  0  0  0  0
    1.6634  -11.8757   17.7296 H   0  0  0  0  0  0  0  0  0  0  0  0
    1.5947  -11.5388   19.4608 H   0  0  0  0  0  0  0  0  0  0  0  0
    2.4596  -10.4254   18.3877 H   0  0  0  0  0  0  0  0  0  0  0  0
   -3.1498   -8.0316   17.7611 H   0  0  0  0  0  0  0  0  0  0  0  0
   -1.8410   -6.9862   18.4003 H   0  0  0  0  0  0  0  0  0  0  0  0
   -2.7192   -8.0991   19.5060 H   0  0  0  0  0  0  0  0  0  0  0  0
  1  2  2  0  0  0  0
  2  3  1  0  0  0  0
  2 12  1  0  0  0  0
  3  4  1  0  0  0  0
  3 14  1  0  0  0  0
  4  5  1  0  0  0  0
  4 11  1  0  0  0  0
  4 32  1  1  0  0  0
  5  6  2  0  0  0  0
  5 10  1  0  0  0  0
  6  7  1  0  0  0  0
  7  8  2  0  0  0  0
  7 33  1  0  0  0  0
  8  9  1  0  0  0  0
  8 34  1  0  0  0  0
  9 10  2  0  0  0  0
  9 35  1  0  0  0  0
 10 36  1  0  0  0  0
 11 37  1  0  0  0  0
 11 38  1  0  0  0  0
 11 39  1  0  0  0  0
 12 13  1  0  0  0  0
 12 40  1  0  0  0  0
 13 14  2  0  0  0  0
 13 15  1  0  0  0  0
 14 18  1  0  0  0  0
 15 16  2  0  0  0  0
 15 41  1  0  0  0  0
 16 17  1  0  0  0  0
 17 18  2  0  0  0  0
 17 20  1  0  0  0  0
 18 19  1  0  0  0  0
 19 22  2  0  0  0  0
 19 42  1  0  0  0  0
 20 21  2  0  0  0  0
 20 43  1  0  0  0  0
 21 22  1  0  0  0  0
 21 25  1  0  0  0  0
 22 23  1  0  0  0  0
 23 24  1  0  0  0  0
 24 44  1  0  0  0  0
 24 45  1  0  0  0  0
 24 46  1  0  0  0  0
 25 26  2  0  0  0  0
 25 30  1  0  0  0  0
 26 27  1  0  0  0  0
 26 28  1  0  0  0  0
 27 47  1  0  0  0  0
 27 48  1  0  0  0  0
 27 49  1  0  0  0  0
 28 29  1  0  0  0  0
 29 30  2  0  0  0  0
 30 31  1  0  0  0  0
 31 50  1  0  0  0  0
 31 51  1  0  0  0  0
 31 52  1  0  0  0  0
M  CHG  2   3   1  12   1
M  END
$$$$
