1SD
 OpenBabel04091912553D

 28 28  0  0  1  0  0  0  0  0999 V2000
   17.0699    2.1443   13.8207 O   0  0  0  0  0  0  0  0  0  0  0  0
   16.5429    3.4650   14.0497 C   0  0  2  0  0  0  0  0  0  0  0  0
   17.2517    4.4427   13.0876 C   0  0  1  0  0  0  0  0  0  0  0  0
   16.8817    4.1539   11.7258 O   0  0  0  0  0  0  0  0  0  0  0  0
   16.8963    5.8920   13.4001 C   0  0  1  0  0  0  0  0  0  0  0  0
   15.4245    5.9468   13.0748 O   0  0  0  0  0  0  0  0  0  0  0  0
   17.1278    6.1683   14.8668 C   0  0  1  0  0  0  0  0  0  0  0  0
   16.7181    7.5419   15.2330 C   0  0  0  0  0  0  0  0  0  0  0  0
   15.2888    7.8196   15.0659 O   0  0  0  0  0  0  0  0  0  0  0  0
   16.4014    5.2619   15.6846 O   0  0  0  0  0  0  0  0  0  0  0  0
   16.8036    3.8973   15.4938 C   0  0  1  0  0  0  0  0  0  0  0  0
   15.8760    2.8180   16.6810 S   0  0  0  0  0  0  0  0  0  0  0  0
   16.4176    3.0086   18.0046 O   0  0  0  0  0  0  0  0  0  0  0  0
   14.4606    2.9919   16.4711 O   0  0  0  0  0  0  0  0  0  0  0  0
   16.2451    1.2476   16.2581 N   0  0  0  0  0  0  0  0  0  0  0  0
   16.8448    1.8896   12.9042 H   0  0  0  0  0  0  0  0  0  0  0  0
   15.4731    3.4776   13.8417 H   0  0  0  0  0  0  0  0  0  0  0  0
   18.3391    4.3367   13.1615 H   0  0  0  0  0  0  0  0  0  0  0  0
   17.1269    3.2396   11.5165 H   0  0  0  0  0  0  0  0  0  0  0  0
   17.3918    6.5813   12.7615 H   0  0  0  0  0  0  0  0  0  0  0  0
   15.1467    6.8391   13.0798 H   0  0  0  0  0  0  0  0  0  0  0  0
   18.1856    6.0446   15.0964 H   0  0  0  0  0  0  0  0  0  0  0  0
   17.2503    8.3014   14.6117 H   0  0  0  0  0  0  0  0  0  0  0  0
   16.8942    7.7982   16.2715 H   0  0  0  0  0  0  0  0  0  0  0  0
   15.0547    7.8406   14.1430 H   0  0  0  0  0  0  0  0  0  0  0  0
   17.8838    3.8153   15.7187 H   0  0  0  0  0  0  0  0  0  0  0  0
   15.8154    0.4783   16.7779 H   0  0  0  0  0  0  0  0  0  0  0  0
   16.8627    1.0371   15.4500 H   0  0  0  0  0  0  0  0  0  0  0  0
  1  2  1  0  0  0  0
  1 16  1  0  0  0  0
  2  3  1  0  0  0  0
  2 11  1  0  0  0  0
  2 17  1  6  0  0  0
  3  4  1  0  0  0  0
  3  5  1  0  0  0  0
  3 18  1  1  0  0  0
  4 19  1  0  0  0  0
  5  6  1  0  0  0  0
  5  7  1  0  0  0  0
  5 20  1  6  0  0  0
  6 21  1  0  0  0  0
  7  8  1  0  0  0  0
  7 10  1  0  0  0  0
  7 22  1  1  0  0  0
  8  9  1  0  0  0  0
  8 23  1  0  0  0  0
  8 24  1  0  0  0  0
  9 25  1  0  0  0  0
 10 11  1  0  0  0  0
 11 12  1  0  0  0  0
 11 26  1  1  0  0  0
 12 13  2  0  0  0  0
 12 14  2  0  0  0  0
 12 15  1  0  0  0  0
 15 27  1  0  0  0  0
 15 28  1  0  0  0  0
M  END
$$$$
