1TS
 OpenBabel04091916023D

 82 85  0  0  1  0  0  0  0  0999 V2000
   18.1163  -16.4897   24.9965 S   0  0  0  0  0  0  0  0  0  0  0  0
   20.8034  -12.1115   26.7704 Cl  0  0  0  0  0  0  0  0  0  0  0  0
   19.5380  -15.4230   24.9571 C   0  0  0  0  0  0  0  0  0  0  0  0
   24.0379  -13.3437   24.1319 C   0  0  0  0  0  0  0  0  0  0  0  0
   22.9414  -13.0131   24.9744 O   0  0  0  0  0  0  0  0  0  0  0  0
   21.8449  -13.8323   24.9161 C   0  0  0  0  0  0  0  0  0  0  0  0
   18.5348  -17.7868   24.5188 O   0  0  0  0  0  0  0  0  0  0  0  0
   17.4496  -16.3271   26.2646 O   0  0  0  0  0  0  0  0  0  0  0  0
   20.6091  -15.7526   24.1176 C   0  0  0  0  0  0  0  0  0  0  0  0
   19.6139  -14.3099   25.7911 C   0  0  0  0  0  0  0  0  0  0  0  0
   21.7492  -14.9513   24.0844 C   0  0  0  0  0  0  0  0  0  0  0  0
   20.7636  -13.5138   25.7587 C   0  0  0  0  0  0  0  0  0  0  0  0
   17.6425  -14.0384   22.3911 C   0  0  0  0  0  0  0  0  0  0  0  0
   17.0830  -15.8692   23.8443 N   0  0  0  0  0  0  0  0  0  0  0  0
   16.7785  -13.3381   22.9374 O   0  0  0  0  0  0  0  0  0  0  0  0
   14.8324  -19.3310   22.0399 C   0  0  0  0  0  0  0  0  0  0  0  0
   14.2933  -19.5896   23.4202 C   0  0  0  0  0  0  0  0  0  0  0  0
   13.0127  -20.1200   23.5976 C   0  0  0  0  0  0  0  0  0  0  0  0
   12.5274  -20.3709   24.8748 C   0  0  0  0  0  0  0  0  0  0  0  0
   13.3332  -20.0920   25.9878 C   0  0  0  0  0  0  0  0  0  0  0  0
   14.6184  -19.5737   25.8197 C   0  0  0  0  0  0  0  0  0  0  0  0
   15.1080  -19.3423   24.5382 C   0  0  0  0  0  0  0  0  0  0  0  0
   12.8323  -20.3581   27.3014 C   0  0  0  0  0  0  0  0  0  0  0  0
   12.3968  -20.5590   28.3493 N   0  0  0  0  0  0  0  0  0  0  0  0
   17.6233  -15.5695   22.5156 C   0  0  1  0  0  0  0  0  0  0  0  0
   16.7861  -16.1531   21.3945 C   0  0  0  0  0  0  0  0  0  0  0  0
   16.5599  -17.6349   21.5479 C   0  0  0  0  0  0  0  0  0  0  0  0
   17.4470  -18.4509   21.3266 O   0  0  0  0  0  0  0  0  0  0  0  0
   15.2765  -17.9629   21.9084 N   0  0  0  0  0  0  0  0  0  0  0  0
   18.6082  -13.5029   21.5615 N   0  0  0  0  0  0  0  0  0  0  0  0
   18.4364  -12.1628   21.0355 C   0  0  2  0  0  0  0  0  0  0  0  0
   17.1194  -12.1408   20.2432 C   0  0  0  0  0  0  0  0  0  0  0  0
   16.7674  -13.0746   19.5223 O   0  0  0  0  0  0  0  0  0  0  0  0
   19.5710  -11.9488   20.0365 C   0  0  0  0  0  0  0  0  0  0  0  0
   20.4096  -13.2198   20.0487 C   0  0  0  0  0  0  0  0  0  0  0  0
   19.6440  -14.2326   20.8670 C   0  0  0  0  0  0  0  0  0  0  0  0
   16.3949  -10.9830   20.3826 N   0  0  0  0  0  0  0  0  0  0  0  0
   15.0967  -10.8532   19.7758 C   0  0  0  0  0  0  0  0  0  0  0  0
   14.0302  -10.8638   20.8353 C   0  0  0  0  0  0  0  0  0  0  0  0
   13.4436   -9.6688   21.2535 C   0  0  0  0  0  0  0  0  0  0  0  0
   12.4603   -9.6775   22.2418 C   0  0  0  0  0  0  0  0  0  0  0  0
   12.0588  -10.8781   22.8586 C   0  0  0  0  0  0  0  0  0  0  0  0
   11.0044  -10.8881   23.8937 C   0  0  0  0  0  0  0  0  0  0  0  0
   10.7385   -9.7991   24.5813 N   0  0  0  0  0  0  0  0  0  0  0  0
   10.3173  -11.9869   24.1326 N   0  0  0  0  0  0  0  0  0  0  0  0
   12.6882  -12.0684   22.4549 C   0  0  0  0  0  0  0  0  0  0  0  0
   13.6533  -12.0630   21.4487 C   0  0  0  0  0  0  0  0  0  0  0  0
   24.8488  -12.6411   24.3406 H   0  0  0  0  0  0  0  0  0  0  0  0
   23.7535  -13.2321   23.0805 H   0  0  0  0  0  0  0  0  0  0  0  0
   24.4109  -14.3532   24.3367 H   0  0  0  0  0  0  0  0  0  0  0  0
   20.5605  -16.6233   23.4630 H   0  0  0  0  0  0  0  0  0  0  0  0
   18.7974  -14.0629   26.4641 H   0  0  0  0  0  0  0  0  0  0  0  0
   22.5419  -15.2335   23.3975 H   0  0  0  0  0  0  0  0  0  0  0  0
   16.2360  -15.4008   24.1670 H   0  0  0  0  0  0  0  0  0  0  0  0
   14.0308  -19.4577   21.3046 H   0  0  0  0  0  0  0  0  0  0  0  0
   15.6251  -20.0507   21.8181 H   0  0  0  0  0  0  0  0  0  0  0  0
   12.3841  -20.3553   22.7346 H   0  0  0  0  0  0  0  0  0  0  0  0
   11.5388  -20.8053   25.0056 H   0  0  0  0  0  0  0  0  0  0  0  0
   15.2506  -19.3565   26.6794 H   0  0  0  0  0  0  0  0  0  0  0  0
   16.1291  -18.9846   24.4117 H   0  0  0  0  0  0  0  0  0  0  0  0
   18.6312  -15.9672   22.4239 H   0  0  0  0  0  0  0  0  0  0  0  0
   17.3084  -16.0292   20.4390 H   0  0  0  0  0  0  0  0  0  0  0  0
   15.8365  -15.6212   21.2827 H   0  0  0  0  0  0  0  0  0  0  0  0
   14.6175  -17.2349   22.1397 H   0  0  0  0  0  0  0  0  0  0  0  0
   18.4330  -11.4352   21.8550 H   0  0  0  0  0  0  0  0  0  0  0  0
   20.1780  -11.0782   20.3032 H   0  0  0  0  0  0  0  0  0  0  0  0
   19.1922  -11.7699   19.0230 H   0  0  0  0  0  0  0  0  0  0  0  0
   21.3908  -13.0287   20.4948 H   0  0  0  0  0  0  0  0  0  0  0  0
   20.5779  -13.6022   19.0364 H   0  0  0  0  0  0  0  0  0  0  0  0
   19.1879  -14.9942   20.2329 H   0  0  0  0  0  0  0  0  0  0  0  0
   20.2955  -14.7282   21.5878 H   0  0  0  0  0  0  0  0  0  0  0  0
   16.6436  -10.3327   21.1173 H   0  0  0  0  0  0  0  0  0  0  0  0
   14.9048  -11.6505   19.0498 H   0  0  0  0  0  0  0  0  0  0  0  0
   15.0939   -9.9043   19.2317 H   0  0  0  0  0  0  0  0  0  0  0  0
   13.7499   -8.7230   20.8072 H   0  0  0  0  0  0  0  0  0  0  0  0
   12.0164   -8.7197   22.4998 H   0  0  0  0  0  0  0  0  0  0  0  0
   10.0152   -9.7672   25.2860 H   0  0  0  0  0  0  0  0  0  0  0  0
   10.4819  -12.8311   23.5973 H   0  0  0  0  0  0  0  0  0  0  0  0
    9.5883  -12.0294   24.8309 H   0  0  0  0  0  0  0  0  0  0  0  0
   12.4648  -13.0235   22.9244 H   0  0  0  0  0  0  0  0  0  0  0  0
   14.1337  -12.9977   21.1559 H   0  0  0  0  0  0  0  0  0  0  0  0
   11.2747   -8.9505   24.4409 H   0  0  0  0  0  0  0  0  0  0  0  0
  1  3  1  0  0  0  0
  1  7  2  0  0  0  0
  1  8  2  0  0  0  0
  1 14  1  0  0  0  0
  2 12  1  0  0  0  0
  3  9  2  0  0  0  0
  3 10  1  0  0  0  0
  4  5  1  0  0  0  0
  4 48  1  0  0  0  0
  4 49  1  0  0  0  0
  4 50  1  0  0  0  0
  5  6  1  0  0  0  0
  6 11  2  0  0  0  0
  6 12  1  0  0  0  0
  9 11  1  0  0  0  0
  9 51  1  0  0  0  0
 10 12  2  0  0  0  0
 10 52  1  0  0  0  0
 11 53  1  0  0  0  0
 13 15  2  0  0  0  0
 13 25  1  0  0  0  0
 13 30  1  0  0  0  0
 14 25  1  0  0  0  0
 14 54  1  0  0  0  0
 16 17  1  0  0  0  0
 16 29  1  0  0  0  0
 16 55  1  0  0  0  0
 16 56  1  0  0  0  0
 17 18  2  0  0  0  0
 17 22  1  0  0  0  0
 18 19  1  0  0  0  0
 18 57  1  0  0  0  0
 19 20  2  0  0  0  0
 19 58  1  0  0  0  0
 20 21  1  0  0  0  0
 20 23  1  0  0  0  0
 21 22  2  0  0  0  0
 21 59  1  0  0  0  0
 22 60  1  0  0  0  0
 23 24  3  0  0  0  0
 25 26  1  0  0  0  0
 25 61  1  6  0  0  0
 26 27  1  0  0  0  0
 26 62  1  0  0  0  0
 26 63  1  0  0  0  0
 27 28  2  0  0  0  0
 27 29  1  0  0  0  0
 29 64  1  0  0  0  0
 30 31  1  0  0  0  0
 30 36  1  0  0  0  0
 31 32  1  0  0  0  0
 31 34  1  0  0  0  0
 31 65  1  1  0  0  0
 32 33  2  0  0  0  0
 32 37  1  0  0  0  0
 34 35  1  0  0  0  0
 34 66  1  0  0  0  0
 34 67  1  0  0  0  0
 35 36  1  0  0  0  0
 35 68  1  0  0  0  0
 35 69  1  0  0  0  0
 36 70  1  0  0  0  0
 36 71  1  0  0  0  0
 37 38  1  0  0  0  0
 37 72  1  0  0  0  0
 38 39  1  0  0  0  0
 38 73  1  0  0  0  0
 38 74  1  0  0  0  0
 39 40  2  0  0  0  0
 39 47  1  0  0  0  0
 40 41  1  0  0  0  0
 40 75  1  0  0  0  0
 41 42  2  0  0  0  0
 41 76  1  0  0  0  0
 42 43  1  0  0  0  0
 42 46  1  0  0  0  0
 43 44  2  0  0  0  0
 43 45  1  0  0  0  0
 44 77  1  0  0  0  0
 44 82  1  0  0  0  0
 45 78  1  0  0  0  0
 45 79  1  0  0  0  0
 46 47  2  0  0  0  0
 46 80  1  0  0  0  0
 47 81  1  0  0  0  0
M  END
$$$$
