1UN
 OpenBabel04091911443D

 86 89  0  0  1  0  0  0  0  0999 V2000
   17.5749   27.4163   12.7946 C   0  0  2  0  0  0  0  0  0  0  0  0
   18.3457   26.7905   11.6149 C   0  0  1  0  0  0  0  0  0  0  0  0
   17.5060   26.7594   10.3387 C   0  0  0  0  0  0  0  0  0  0  0  0
   16.8442   28.1045   10.0439 C   0  0  0  0  0  0  0  0  0  0  0  0
   16.0924   28.6412   11.2588 C   0  0  0  0  0  0  0  0  0  0  0  0
   17.0313   28.8065   12.4401 C   0  0  0  0  0  0  0  0  0  0  0  0
   19.6804   28.2413   13.7659 N   0  3  1  0  0  0  0  0  0  0  0  0
   20.4646   27.5900   12.6499 C   0  0  1  0  0  0  0  0  0  0  0  0
   19.6489   27.5412   11.3714 C   0  0  0  0  0  0  0  0  0  0  0  0
   18.4268   27.4756   14.0388 C   0  0  0  0  0  0  0  0  0  0  0  0
   21.7261   28.3438   12.3191 C   0  0  0  0  0  0  0  0  0  0  0  0
   22.7702   27.4979   12.0917 N   0  0  0  0  0  0  0  0  0  0  0  0
   24.0927   27.9235   11.6693 C   0  0  0  0  0  0  0  0  0  0  0  0
   24.7330   28.7668   12.7741 C   0  0  0  0  0  0  0  0  0  0  0  0
   23.9962   28.6922   10.3456 C   0  0  0  0  0  0  0  0  0  0  0  0
   24.9052   26.6423   11.4453 C   0  0  0  0  0  0  0  0  0  0  0  0
   21.7351   29.5722   12.2961 O   0  0  0  0  0  0  0  0  0  0  0  0
   20.4816   28.3704   15.0255 C   0  0  0  0  0  0  0  0  0  0  0  0
   19.9721   29.5529   15.8584 C   0  0  2  0  0  0  0  0  0  0  0  0
   20.6179   30.8860   15.4182 C   0  0  1  0  0  0  0  0  0  0  0  0
   20.2331   29.2703   17.2383 O   0  0  0  0  0  0  0  0  0  0  0  0
   19.8938   31.9884   16.0587 N   0  0  0  0  0  0  0  0  0  0  0  0
   22.1059   30.9913   15.7684 C   0  0  0  0  0  0  0  0  0  0  0  0
   18.8864   32.6408   15.4296 C   0  0  0  0  0  0  0  0  0  0  0  0
   18.4925   32.3775   14.2892 O   0  0  0  0  0  0  0  0  0  0  0  0
   18.1683   33.5850   16.3338 C   0  0  0  0  0  0  0  0  0  0  0  0
   18.8782   34.4530   17.0739 C   0  0  0  0  0  0  0  0  0  0  0  0
   18.2516   35.3408   18.0194 C   0  0  0  0  0  0  0  0  0  0  0  0
   16.9182   35.4436   18.1058 C   0  0  0  0  0  0  0  0  0  0  0  0
   16.0454   34.5440   17.3112 C   0  0  0  0  0  0  0  0  0  0  0  0
   16.7066   33.3488   16.6153 C   0  0  1  0  0  0  0  0  0  0  0  0
   14.8311   34.6988   17.3682 O   0  0  0  0  0  0  0  0  0  0  0  0
   15.7996   32.6831   15.5757 C   0  0  0  0  0  0  0  0  0  0  0  0
   22.9334   32.2615   14.7396 S   0  0  0  0  0  0  0  0  0  0  0  0
   22.6656   33.7748   15.6433 C   0  0  0  0  0  0  0  0  0  0  0  0
   22.4659   34.9506   14.9110 C   0  0  0  0  0  0  0  0  0  0  0  0
   22.3429   36.1872   15.5428 C   0  0  0  0  0  0  0  0  0  0  0  0
   22.4370   36.2541   16.9445 C   0  0  0  0  0  0  0  0  0  0  0  0
   22.6347   35.0920   17.6848 C   0  0  0  0  0  0  0  0  0  0  0  0
   22.7511   33.8604   17.0395 C   0  0  0  0  0  0  0  0  0  0  0  0
   16.7241   26.7651   13.0314 H   0  0  0  0  0  0  0  0  0  0  0  0
   18.6077   25.7551   11.8770 H   0  0  0  0  0  0  0  0  0  0  0  0
   16.7307   25.9919   10.4471 H   0  0  0  0  0  0  0  0  0  0  0  0
   18.1275   26.4597    9.4862 H   0  0  0  0  0  0  0  0  0  0  0  0
   16.1540   27.9884    9.2054 H   0  0  0  0  0  0  0  0  0  0  0  0
   17.6059   28.8312    9.7345 H   0  0  0  0  0  0  0  0  0  0  0  0
   15.3077   27.9304   11.5429 H   0  0  0  0  0  0  0  0  0  0  0  0
   15.6115   29.5909   11.0188 H   0  0  0  0  0  0  0  0  0  0  0  0
   17.8276   29.5189   12.1837 H   0  0  0  0  0  0  0  0  0  0  0  0
   16.5087   29.2392   13.3008 H   0  0  0  0  0  0  0  0  0  0  0  0
   20.7063   26.5811   13.0043 H   0  0  0  0  0  0  0  0  0  0  0  0
   19.4664   28.5602   11.0058 H   0  0  0  0  0  0  0  0  0  0  0  0
   20.2285   27.0493   10.5790 H   0  0  0  0  0  0  0  0  0  0  0  0
   18.7306   26.4702   14.3554 H   0  0  0  0  0  0  0  0  0  0  0  0
   17.8978   27.9568   14.8653 H   0  0  0  0  0  0  0  0  0  0  0  0
   22.6628   26.5071   12.2780 H   0  0  0  0  0  0  0  0  0  0  0  0
   25.7457   29.0755   12.5041 H   0  0  0  0  0  0  0  0  0  0  0  0
   24.7815   28.2009   13.7130 H   0  0  0  0  0  0  0  0  0  0  0  0
   24.1515   29.6707   12.9829 H   0  0  0  0  0  0  0  0  0  0  0  0
   24.9870   28.9647    9.9736 H   0  0  0  0  0  0  0  0  0  0  0  0
   23.4132   29.6135   10.4445 H   0  0  0  0  0  0  0  0  0  0  0  0
   23.4980   28.0823    9.5811 H   0  0  0  0  0  0  0  0  0  0  0  0
   25.9187   26.8629   11.0959 H   0  0  0  0  0  0  0  0  0  0  0  0
   24.4159   25.9998   10.7021 H   0  0  0  0  0  0  0  0  0  0  0  0
   24.9760   26.0560   12.3702 H   0  0  0  0  0  0  0  0  0  0  0  0
   21.5425   28.4535   14.7871 H   0  0  0  0  0  0  0  0  0  0  0  0
   20.3721   27.4251   15.5690 H   0  0  0  0  0  0  0  0  0  0  0  0
   18.8818   29.6445   15.7681 H   0  0  0  0  0  0  0  0  0  0  0  0
   20.4763   30.9766   14.3393 H   0  0  0  0  0  0  0  0  0  0  0  0
   19.7630   28.4542   17.4879 H   0  0  0  0  0  0  0  0  0  0  0  0
   20.0723   32.1562   17.0438 H   0  0  0  0  0  0  0  0  0  0  0  0
   22.6293   30.0615   15.5340 H   0  0  0  0  0  0  0  0  0  0  0  0
   22.2475   31.1691   16.8330 H   0  0  0  0  0  0  0  0  0  0  0  0
   19.9626   34.5130   17.0165 H   0  0  0  0  0  0  0  0  0  0  0  0
   18.8888   35.9654   18.6362 H   0  0  0  0  0  0  0  0  0  0  0  0
   16.4302   36.1501   18.7747 H   0  0  0  0  0  0  0  0  0  0  0  0
   16.7517   32.5963   17.4231 H   0  0  0  0  0  0  0  0  0  0  0  0
   16.3233   31.9813   14.9237 H   0  0  0  0  0  0  0  0  0  0  0  0
   15.2279   33.3822   14.9541 H   0  0  0  0  0  0  0  0  0  0  0  0
   15.0693   32.0778   16.1237 H   0  0  0  0  0  0  0  0  0  0  0  0
   22.4124   34.9160   13.8200 H   0  0  0  0  0  0  0  0  0  0  0  0
   22.1977   37.0913   14.9807 H   0  0  0  0  0  0  0  0  0  0  0  0
   22.3683   37.2163   17.4363 H   0  0  0  0  0  0  0  0  0  0  0  0
   22.7198   35.1515   18.7682 H   0  0  0  0  0  0  0  0  0  0  0  0
   22.9362   32.9831   17.6499 H   0  0  0  0  0  0  0  0  0  0  0  0
   19.4738   29.2000   13.4175 H   0  0  0  0  0  0  0  0  0  0  0  0
  1  2  1  0  0  0  0
  1  6  1  0  0  0  0
  1 10  1  0  0  0  0
  1 41  1  1  0  0  0
  2  3  1  0  0  0  0
  2  9  1  0  0  0  0
  2 42  1  1  0  0  0
  3  4  1  0  0  0  0
  3 43  1  0  0  0  0
  3 44  1  0  0  0  0
  4  5  1  0  0  0  0
  4 45  1  0  0  0  0
  4 46  1  0  0  0  0
  5  6  1  0  0  0  0
  5 47  1  0  0  0  0
  5 48  1  0  0  0  0
  6 49  1  0  0  0  0
  6 50  1  0  0  0  0
  7  8  1  0  0  0  0
  7 10  1  0  0  0  0
  7 18  1  0  0  0  0
  7 86  1  6  0  0  0
  8  9  1  0  0  0  0
  8 11  1  0  0  0  0
  8 51  1  1  0  0  0
  9 52  1  0  0  0  0
  9 53  1  0  0  0  0
 10 54  1  0  0  0  0
 10 55  1  0  0  0  0
 11 12  1  0  0  0  0
 11 17  2  0  0  0  0
 12 13  1  0  0  0  0
 12 56  1  0  0  0  0
 13 14  1  0  0  0  0
 13 15  1  0  0  0  0
 13 16  1  0  0  0  0
 14 57  1  0  0  0  0
 14 58  1  0  0  0  0
 14 59  1  0  0  0  0
 15 60  1  0  0  0  0
 15 61  1  0  0  0  0
 15 62  1  0  0  0  0
 16 63  1  0  0  0  0
 16 64  1  0  0  0  0
 16 65  1  0  0  0  0
 18 19  1  0  0  0  0
 18 66  1  0  0  0  0
 18 67  1  0  0  0  0
 19 20  1  0  0  0  0
 19 21  1  0  0  0  0
 19 68  1  6  0  0  0
 20 22  1  0  0  0  0
 20 23  1  0  0  0  0
 20 69  1  6  0  0  0
 21 70  1  0  0  0  0
 22 24  1  0  0  0  0
 22 71  1  0  0  0  0
 23 34  1  0  0  0  0
 23 72  1  0  0  0  0
 23 73  1  0  0  0  0
 24 25  2  0  0  0  0
 24 26  1  0  0  0  0
 26 27  2  0  0  0  0
 26 31  1  0  0  0  0
 27 28  1  0  0  0  0
 27 74  1  0  0  0  0
 28 29  2  0  0  0  0
 28 75  1  0  0  0  0
 29 30  1  0  0  0  0
 29 76  1  0  0  0  0
 30 31  1  0  0  0  0
 30 32  2  0  0  0  0
 31 33  1  0  0  0  0
 31 77  1  1  0  0  0
 33 78  1  0  0  0  0
 33 79  1  0  0  0  0
 33 80  1  0  0  0  0
 34 35  1  0  0  0  0
 35 36  2  0  0  0  0
 35 40  1  0  0  0  0
 36 37  1  0  0  0  0
 36 81  1  0  0  0  0
 37 38  2  0  0  0  0
 37 82  1  0  0  0  0
 38 39  1  0  0  0  0
 38 83  1  0  0  0  0
 39 40  2  0  0  0  0
 39 84  1  0  0  0  0
 40 85  1  0  0  0  0
M  CHG  1   7   1
M  END
$$$$
