229
 OpenBabel04091913243D

 36 37  0  0  1  0  0  0  0  0999 V2000
  -44.5530   -1.1721   -0.7532 O   0  0  0  0  0  0  0  0  0  0  0  0
  -43.2099   -1.6695   -0.8715 C   0  0  0  0  0  0  0  0  0  0  0  0
  -43.0834   -2.4058   -2.2041 C   0  0  1  0  0  0  0  0  0  0  0  0
  -44.0611   -3.4588   -2.2729 O   0  0  0  0  0  0  0  0  0  0  0  0
  -43.2408   -1.4728   -3.4222 C   0  0  1  0  0  0  0  0  0  0  0  0
  -43.2182   -2.3301   -4.6973 C   0  0  0  0  0  0  0  0  0  0  0  0
  -42.9368   -1.5246   -5.8293 O   0  0  0  0  0  0  0  0  0  0  0  0
  -44.5880   -0.8094   -3.3121 N   0  3  0  0  0  0  0  0  0  0  0  0
  -44.8220    0.4198   -4.0983 C   0  0  0  0  0  0  0  0  0  0  0  0
  -44.6435    1.6082   -3.2286 C   0  0  2  0  0  0  0  0  0  0  0  0
  -43.4569    2.3249   -2.9639 C   0  0  1  0  0  0  0  0  0  0  0  0
  -42.1888    2.0502   -3.4933 N   0  0  0  0  0  0  0  0  0  0  0  0
  -41.2678    2.8888   -3.1136 C   0  0  0  0  0  0  0  0  0  0  0  0
  -41.4401    3.9259   -2.2432 N   0  3  0  0  0  0  0  0  0  0  0  0
  -45.6238    2.2186   -2.4562 C   0  0  0  0  0  0  0  0  0  0  0  0
  -45.0517    3.2902   -1.7836 N   0  3  0  0  0  0  0  0  0  0  0  0
  -43.7120    3.3441   -2.1072 C   0  0  2  0  0  0  0  0  0  0  0  0
  -42.6622    4.2604   -1.6863 C   0  0  0  0  0  0  0  0  0  0  0  0
  -42.8059    5.1975   -0.9173 O   0  0  0  0  0  0  0  0  0  0  0  0
  -45.1358   -1.9407   -0.5876 H   0  0  0  0  0  0  0  0  0  0  0  0
  -42.9887   -2.3383   -0.0345 H   0  0  0  0  0  0  0  0  0  0  0  0
  -42.5274   -0.8145   -0.8411 H   0  0  0  0  0  0  0  0  0  0  0  0
  -42.0957   -2.8704   -2.2561 H   0  0  0  0  0  0  0  0  0  0  0  0
  -44.9636   -3.1158   -2.1797 H   0  0  0  0  0  0  0  0  0  0  0  0
  -42.4729   -0.6920   -3.4282 H   0  0  0  0  0  0  0  0  0  0  0  0
  -44.1923   -2.8070   -4.8588 H   0  0  0  0  0  0  0  0  0  0  0  0
  -42.4541   -3.1071   -4.6048 H   0  0  0  0  0  0  0  0  0  0  0  0
  -42.8743   -2.1164   -6.6045 H   0  0  0  0  0  0  0  0  0  0  0  0
  -45.3159   -1.4899   -3.5306 H   0  0  0  0  0  0  0  0  0  0  0  0
  -45.8603    0.3369   -4.4412 H   0  0  0  0  0  0  0  0  0  0  0  0
  -44.1721    0.4284   -4.9733 H   0  0  0  0  0  0  0  0  0  0  0  0
  -40.2327    2.7860   -3.4808 H   0  0  0  0  0  0  0  0  0  0  0  0
  -40.6279    4.5124   -2.0034 H   0  0  0  0  0  0  0  0  0  0  0  0
  -46.6746    1.9869   -2.3514 H   0  0  0  0  0  0  0  0  0  0  0  0
  -45.5585    3.9224   -1.1673 H   0  0  0  0  0  0  0  0  0  0  0  0
  -44.7120   -0.5378   -2.3157 H   0  0  0  0  0  0  0  0  0  0  0  0
  1  2  1  0  0  0  0
  1 20  1  0  0  0  0
  2  3  1  0  0  0  0
  2 21  1  0  0  0  0
  2 22  1  0  0  0  0
  3  4  1  0  0  0  0
  3  5  1  0  0  0  0
  3 23  1  6  0  0  0
  4 24  1  0  0  0  0
  5  6  1  0  0  0  0
  5  8  1  0  0  0  0
  5 25  1  6  0  0  0
  6  7  1  0  0  0  0
  6 26  1  0  0  0  0
  6 27  1  0  0  0  0
  7 28  1  0  0  0  0
  8  9  1  0  0  0  0
  8 29  1  0  0  0  0
  8 36  1  0  0  0  0
  9 30  1  0  0  0  0
  9 31  1  0  0  0  0
 10  9  1  1  0  0  0
 10 11  1  0  0  0  0
 10 15  1  0  0  0  0
 11 12  1  6  0  0  0
 11 17  1  0  0  0  0
 12 13  1  0  0  0  0
 13 14  1  0  0  0  0
 13 32  1  0  0  0  0
 14 18  1  0  0  0  0
 14 33  1  0  0  0  0
 15 16  1  0  0  0  0
 15 34  1  0  0  0  0
 16 35  1  0  0  0  0
 17 16  1  6  0  0  0
 17 18  1  0  0  0  0
 18 19  2  0  0  0  0
M  CHG  3   8   1  14   1  16   1
M  END
$$$$
