25P
 OpenBabel04091912313D

 51 53  0  0  1  0  0  0  0  0999 V2000
   24.5819   87.3312   -2.9015 C   0  0  0  0  0  0  0  0  0  0  0  0
   24.0190   86.6652   -3.9855 C   0  0  0  0  0  0  0  0  0  0  0  0
   23.7362   85.3052   -3.8803 C   0  0  0  0  0  0  0  0  0  0  0  0
   23.0559   84.4926   -5.2378 Cl  0  0  0  0  0  0  0  0  0  0  0  0
   23.9933   84.5958   -2.7069 C   0  0  0  0  0  0  0  0  0  0  0  0
   24.5537   85.2626   -1.6194 C   0  0  0  0  0  0  0  0  0  0  0  0
   24.8591   86.6262   -1.7331 C   0  0  0  0  0  0  0  0  0  0  0  0
   25.3652   87.3436   -0.6883 O   0  0  0  0  0  0  0  0  0  0  0  0
   26.5883   86.9305   -0.2167 C   0  0  0  0  0  0  0  0  0  0  0  0
   27.7262   86.9238   -1.0329 C   0  0  0  0  0  0  0  0  0  0  0  0
   28.9547   86.5799   -0.4669 C   0  0  0  0  0  0  0  0  0  0  0  0
   26.6660   86.6086    1.1290 C   0  0  0  0  0  0  0  0  0  0  0  0
   27.8806   86.2720    1.6887 C   0  0  0  0  0  0  0  0  0  0  0  0
   29.0195   86.2514    0.8805 C   0  0  0  0  0  0  0  0  0  0  0  0
   30.1722   85.9467    1.5172 O   0  0  0  0  0  0  0  0  0  0  0  0
   31.1748   85.3555    0.6976 C   0  0  0  0  0  0  0  0  0  0  0  0
   32.0710   84.7185    1.7377 C   0  0  2  0  0  0  0  0  0  0  0  0
   32.7445   85.7753    2.6112 C   0  0  0  0  0  0  0  0  0  0  0  0
   34.0856   85.1727    2.9520 C   0  0  0  0  0  0  0  0  0  0  0  0
   34.4811   84.4872    1.6717 C   0  0  0  0  0  0  0  0  0  0  0  0
   33.1862   83.8809    1.2002 N   0  3  2  0  0  0  0  0  0  0  0  0
   33.1849   83.6382   -0.2846 C   0  0  0  0  0  0  0  0  0  0  0  0
   33.8416   82.3058   -0.5188 C   0  0  0  0  0  0  0  0  0  0  0  0
   35.2317   82.5437   -1.0696 C   0  0  0  0  0  0  0  0  0  0  0  0
   35.1901   83.0130   -2.5205 C   0  0  0  0  0  0  0  0  0  0  0  0
   34.1286   82.7970   -3.1413 O   0  0  0  0  0  0  0  0  0  0  0  0
   36.2179   83.6905   -2.8484 O   0  0  0  0  0  0  0  0  0  0  0  0
   24.8148   88.3899   -2.9650 H   0  0  0  0  0  0  0  0  0  0  0  0
   23.8070   87.2077   -4.9018 H   0  0  0  0  0  0  0  0  0  0  0  0
   23.7608   83.5359   -2.6398 H   0  0  0  0  0  0  0  0  0  0  0  0
   24.7467   84.7263   -0.6926 H   0  0  0  0  0  0  0  0  0  0  0  0
   27.6742   87.2109   -2.0723 H   0  0  0  0  0  0  0  0  0  0  0  0
   29.8457   86.5928   -1.0902 H   0  0  0  0  0  0  0  0  0  0  0  0
   25.7660   86.6276    1.7431 H   0  0  0  0  0  0  0  0  0  0  0  0
   27.9497   86.0231    2.7483 H   0  0  0  0  0  0  0  0  0  0  0  0
   31.7175   86.1028    0.1009 H   0  0  0  0  0  0  0  0  0  0  0  0
   30.7284   84.6103    0.0272 H   0  0  0  0  0  0  0  0  0  0  0  0
   31.4632   84.0623    2.3767 H   0  0  0  0  0  0  0  0  0  0  0  0
   32.1547   85.9877    3.5066 H   0  0  0  0  0  0  0  0  0  0  0  0
   32.8759   86.7144    2.0595 H   0  0  0  0  0  0  0  0  0  0  0  0
   33.9797   84.4409    3.7612 H   0  0  0  0  0  0  0  0  0  0  0  0
   34.8177   85.9294    3.2392 H   0  0  0  0  0  0  0  0  0  0  0  0
   35.2184   83.6947    1.8154 H   0  0  0  0  0  0  0  0  0  0  0  0
   34.8147   85.2069    0.9173 H   0  0  0  0  0  0  0  0  0  0  0  0
   33.6848   84.4913   -0.7533 H   0  0  0  0  0  0  0  0  0  0  0  0
   32.1576   83.5914   -0.6320 H   0  0  0  0  0  0  0  0  0  0  0  0
   33.2198   81.7343   -1.2150 H   0  0  0  0  0  0  0  0  0  0  0  0
   33.8979   81.7178    0.4055 H   0  0  0  0  0  0  0  0  0  0  0  0
   35.7983   81.6207   -1.0246 H   0  0  0  0  0  0  0  0  0  0  0  0
   35.7482   83.2961   -0.4529 H   0  0  0  0  0  0  0  0  0  0  0  0
   33.0959   82.9671    1.6657 H   0  0  0  0  0  0  0  0  0  0  0  0
  1  2  2  0  0  0  0
  1  7  1  0  0  0  0
  1 28  1  0  0  0  0
  2  3  1  0  0  0  0
  2 29  1  0  0  0  0
  3  4  1  0  0  0  0
  3  5  2  0  0  0  0
  5  6  1  0  0  0  0
  5 30  1  0  0  0  0
  6  7  2  0  0  0  0
  6 31  1  0  0  0  0
  7  8  1  0  0  0  0
  8  9  1  0  0  0  0
  9 10  2  0  0  0  0
  9 12  1  0  0  0  0
 10 11  1  0  0  0  0
 10 32  1  0  0  0  0
 11 14  2  0  0  0  0
 11 33  1  0  0  0  0
 12 13  2  0  0  0  0
 12 34  1  0  0  0  0
 13 14  1  0  0  0  0
 13 35  1  0  0  0  0
 14 15  1  0  0  0  0
 15 16  1  0  0  0  0
 16 17  1  0  0  0  0
 16 36  1  0  0  0  0
 16 37  1  0  0  0  0
 17 18  1  0  0  0  0
 17 21  1  0  0  0  0
 17 38  1  1  0  0  0
 18 19  1  0  0  0  0
 18 39  1  0  0  0  0
 18 40  1  0  0  0  0
 19 20  1  0  0  0  0
 19 41  1  0  0  0  0
 19 42  1  0  0  0  0
 20 21  1  0  0  0  0
 20 43  1  0  0  0  0
 20 44  1  0  0  0  0
 21 22  1  0  0  0  0
 21 51  1  1  0  0  0
 22 23  1  0  0  0  0
 22 45  1  0  0  0  0
 22 46  1  0  0  0  0
 23 24  1  0  0  0  0
 23 47  1  0  0  0  0
 23 48  1  0  0  0  0
 24 25  1  0  0  0  0
 24 49  1  0  0  0  0
 24 50  1  0  0  0  0
 25 26  2  0  0  0  0
 25 27  1  0  0  0  0
M  CHG  1  21   1
M  END
$$$$
