29A
 OpenBabel04091915033D

 49 51  0  0  0  0  0  0  0  0999 V2000
   36.8625   36.8047   18.1710 C   0  0  0  0  0  0  0  0  0  0  0  0
   38.1958   37.2042   18.0033 C   0  0  0  0  0  0  0  0  0  0  0  0
   38.7464   37.3998   16.7404 C   0  0  0  0  0  0  0  0  0  0  0  0
   37.9521   37.1944   15.6233 C   0  0  0  0  0  0  0  0  0  0  0  0
   36.6289   36.7815   15.7509 C   0  0  0  0  0  0  0  0  0  0  0  0
   36.0821   36.5874   17.0243 C   0  0  0  0  0  0  0  0  0  0  0  0
   36.2688   36.7021   19.5559 C   0  0  0  0  0  0  0  0  0  0  0  0
   35.7806   37.9998   19.8986 O   0  0  0  0  0  0  0  0  0  0  0  0
   35.4519   38.2312   21.2289 C   0  0  0  0  0  0  0  0  0  0  0  0
   35.2507   39.5175   21.6045 C   0  0  0  0  0  0  0  0  0  0  0  0
   34.8826   39.8056   23.0183 C   0  0  0  0  0  0  0  0  0  0  0  0
   34.7520   38.6905   23.8339 N   0  3  0  0  0  0  0  0  0  0  0  0
   34.9827   37.4341   23.3125 C   0  0  0  0  0  0  0  0  0  0  0  0
   35.3263   37.1611   22.0883 N   0  0  0  0  0  0  0  0  0  0  0  0
   34.3601   38.8443   25.2000 C   0  0  0  0  0  0  0  0  0  0  0  0
   33.1081   38.3930   25.6608 C   0  0  0  0  0  0  0  0  0  0  0  0
   32.8108   38.4860   27.0317 C   0  0  0  0  0  0  0  0  0  0  0  0
   33.7208   39.0357   27.9345 C   0  0  0  0  0  0  0  0  0  0  0  0
   34.9481   39.5276   27.4884 C   0  0  0  0  0  0  0  0  0  0  0  0
   35.2563   39.4301   26.1138 C   0  0  0  0  0  0  0  0  0  0  0  0
   38.9687   37.4103   19.0793 F   0  0  0  0  0  0  0  0  0  0  0  0
   38.4615   37.4028   14.4020 F   0  0  0  0  0  0  0  0  0  0  0  0
   35.3488   40.8345   20.5070 Cl  0  0  0  0  0  0  0  0  0  0  0  0
   34.6762   40.9615   23.3917 O   0  0  0  0  0  0  0  0  0  0  0  0
   32.0005   37.9193   24.7615 C   0  0  0  0  0  0  0  0  0  0  0  0
   36.0066   40.0146   28.4335 C   0  0  0  0  0  0  0  0  0  0  0  0
   37.0877   40.4009   28.0037 O   0  0  0  0  0  0  0  0  0  0  0  0
   35.7514   39.9133   29.7886 N   0  0  0  0  0  0  0  0  0  0  0  0
   36.6240   39.0982   30.6271 C   0  0  0  0  0  0  0  0  0  0  0  0
   36.0732   37.6704   30.8097 C   0  0  0  0  0  0  0  0  0  0  0  0
   34.6521   37.6867   30.9750 O   0  0  0  0  0  0  0  0  0  0  0  0
   39.7748   37.7210   16.6321 H   0  0  0  0  0  0  0  0  0  0  0  0
   36.0286   36.6299   14.8587 H   0  0  0  0  0  0  0  0  0  0  0  0
   35.0411   36.2843   17.1140 H   0  0  0  0  0  0  0  0  0  0  0  0
   37.0343   36.3575   20.2633 H   0  0  0  0  0  0  0  0  0  0  0  0
   35.4418   35.9828   19.5587 H   0  0  0  0  0  0  0  0  0  0  0  0
   34.8700   36.6069   24.0417 H   0  0  0  0  0  0  0  0  0  0  0  0
   31.8503   38.1381   27.4057 H   0  0  0  0  0  0  0  0  0  0  0  0
   33.4363   39.0544   28.9831 H   0  0  0  0  0  0  0  0  0  0  0  0
   36.2288   39.7833   25.7681 H   0  0  0  0  0  0  0  0  0  0  0  0
   32.2900   37.8644   23.7101 H   0  0  0  0  0  0  0  0  0  0  0  0
   31.1603   38.6207   24.8314 H   0  0  0  0  0  0  0  0  0  0  0  0
   31.6575   36.9273   25.0734 H   0  0  0  0  0  0  0  0  0  0  0  0
   34.7968   39.9165   30.1188 H   0  0  0  0  0  0  0  0  0  0  0  0
   36.6750   39.5926   31.6008 H   0  0  0  0  0  0  0  0  0  0  0  0
   37.6314   39.0466   30.2017 H   0  0  0  0  0  0  0  0  0  0  0  0
   36.5135   37.2068   31.6986 H   0  0  0  0  0  0  0  0  0  0  0  0
   36.3070   37.0441   29.9408 H   0  0  0  0  0  0  0  0  0  0  0  0
   34.3686   36.7556   31.0298 H   0  0  0  0  0  0  0  0  0  0  0  0
  1  2  2  0  0  0  0
  1  6  1  0  0  0  0
  1  7  1  0  0  0  0
  2  3  1  0  0  0  0
  2 21  1  0  0  0  0
  3  4  2  0  0  0  0
  3 32  1  0  0  0  0
  4  5  1  0  0  0  0
  4 22  1  0  0  0  0
  5  6  2  0  0  0  0
  5 33  1  0  0  0  0
  6 34  1  0  0  0  0
  7  8  1  0  0  0  0
  7 35  1  0  0  0  0
  7 36  1  0  0  0  0
  8  9  1  0  0  0  0
  9 10  2  0  0  0  0
  9 14  1  0  0  0  0
 10 11  1  0  0  0  0
 10 23  1  0  0  0  0
 11 12  1  0  0  0  0
 11 24  2  0  0  0  0
 12 13  1  0  0  0  0
 12 15  1  0  0  0  0
 13 14  2  0  0  0  0
 13 37  1  0  0  0  0
 15 16  2  0  0  0  0
 15 20  1  0  0  0  0
 16 17  1  0  0  0  0
 16 25  1  0  0  0  0
 17 18  2  0  0  0  0
 17 38  1  0  0  0  0
 18 19  1  0  0  0  0
 18 39  1  0  0  0  0
 19 20  2  0  0  0  0
 19 26  1  0  0  0  0
 20 40  1  0  0  0  0
 25 41  1  0  0  0  0
 25 42  1  0  0  0  0
 25 43  1  0  0  0  0
 26 27  2  0  0  0  0
 26 28  1  0  0  0  0
 28 29  1  0  0  0  0
 28 44  1  0  0  0  0
 29 30  1  0  0  0  0
 29 45  1  0  0  0  0
 29 46  1  0  0  0  0
 30 31  1  0  0  0  0
 30 47  1  0  0  0  0
 30 48  1  0  0  0  0
 31 49  1  0  0  0  0
M  CHG  1  12   1
M  END
$$$$
