2AI
 OpenBabel04091913503D

 11 11  0  0  0  0  0  0  0  0999 V2000
   -3.4366  -24.2844   -4.8675 C   0  0  0  0  0  0  0  0  0  0  0  0
   -2.1648  -24.7137   -4.5715 C   0  0  0  0  0  0  0  0  0  0  0  0
   -1.2370  -24.0357   -5.3198 N   0  0  0  0  0  0  0  0  0  0  0  0
   -1.9209  -23.2072   -6.0644 C   0  0  0  0  0  0  0  0  0  0  0  0
   -3.2654  -23.3278   -5.8308 N   0  3  0  0  0  0  0  0  0  0  0  0
   -1.4311  -22.3386   -6.9508 N   0  0  0  0  0  0  0  0  0  0  0  0
   -4.4080  -24.5709   -4.4922 H   0  0  0  0  0  0  0  0  0  0  0  0
   -1.8654  -25.4717   -3.8600 H   0  0  0  0  0  0  0  0  0  0  0  0
   -3.9906  -22.8004   -6.2914 H   0  0  0  0  0  0  0  0  0  0  0  0
   -0.4254  -22.2985   -7.0622 H   0  0  0  0  0  0  0  0  0  0  0  0
   -1.9675  -21.6971   -7.5140 H   0  0  0  0  0  0  0  0  0  0  0  0
  1  2  2  0  0  0  0
  1  5  1  0  0  0  0
  1  7  1  0  0  0  0
  2  3  1  0  0  0  0
  2  8  1  0  0  0  0
  3  4  1  0  0  0  0
  4  5  2  0  0  0  0
  4  6  1  0  0  0  0
  5  9  1  0  0  0  0
  6 10  1  0  0  0  0
  6 11  1  0  0  0  0
M  CHG  1   5   1
M  END
$$$$
