2C7
 OpenBabel04091911273D

 45 47  0  0  0  0  0  0  0  0999 V2000
   -1.2760    9.8600   12.3828 C   0  0  0  0  0  0  0  0  0  0  0  0
    0.0267   10.6554   12.3840 C   0  0  0  0  0  0  0  0  0  0  0  0
    0.4331   11.1787   13.7541 C   0  0  0  0  0  0  0  0  0  0  0  0
    0.6121   10.0809   14.7998 C   0  0  0  0  0  0  0  0  0  0  0  0
   -0.7258    9.5632   15.3212 C   0  0  0  0  0  0  0  0  0  0  0  0
   -1.3731    8.4440   14.5025 C   0  0  0  0  0  0  0  0  0  0  0  0
   -1.1283    8.4422   12.9847 C   0  0  0  0  0  0  0  0  0  0  0  0
   -2.0369    7.4546   12.1934 C   0  0  0  0  0  0  0  0  0  0  0  0
   -2.7398    6.3683   12.9232 C   0  0  0  0  0  0  0  0  0  0  0  0
   -4.0609    6.3213   13.1670 C   0  0  0  0  0  0  0  0  0  0  0  0
   -1.9454    4.8791   13.4024 S   0  0  0  0  0  0  0  0  0  0  0  0
   -1.5445    4.1339   12.2300 O   0  0  0  0  0  0  0  0  0  0  0  0
   -1.0887    5.0711   14.5419 O   0  0  0  0  0  0  0  0  0  0  0  0
   -3.4457    4.1772   13.9818 C   0  0  0  0  0  0  0  0  0  0  0  0
   -3.6143    2.9228   14.5434 C   0  0  0  0  0  0  0  0  0  0  0  0
   -4.4866    5.0752   13.7903 C   0  0  0  0  0  0  0  0  0  0  0  0
   -5.7701    4.7220   14.1585 C   0  0  0  0  0  0  0  0  0  0  0  0
   -5.9833    3.4583   14.7255 C   0  0  0  0  0  0  0  0  0  0  0  0
   -4.9082    2.5716   14.9268 C   0  0  0  0  0  0  0  0  0  0  0  0
   -5.1000    1.2892   15.3755 O   0  0  0  0  0  0  0  0  0  0  0  0
   -5.9063    0.9823   16.7565 S   0  0  0  0  0  0  0  0  0  0  0  0
   -5.0510    1.2926   17.8829 O   0  0  0  0  0  0  0  0  0  0  0  0
   -7.2615    1.4719   16.6786 O   0  0  0  0  0  0  0  0  0  0  0  0
   -6.0414   -0.6899   16.7203 N   0  0  0  0  0  0  0  0  0  0  0  0
   -1.6014    9.7937   11.3377 H   0  0  0  0  0  0  0  0  0  0  0  0
   -2.0614   10.4152   12.9114 H   0  0  0  0  0  0  0  0  0  0  0  0
   -0.0910   11.5135   11.7109 H   0  0  0  0  0  0  0  0  0  0  0  0
    0.8363   10.0459   11.9643 H   0  0  0  0  0  0  0  0  0  0  0  0
   -0.3070   11.9115   14.1005 H   0  0  0  0  0  0  0  0  0  0  0  0
    1.3769   11.7269   13.6470 H   0  0  0  0  0  0  0  0  0  0  0  0
    1.1620   10.5131   15.6443 H   0  0  0  0  0  0  0  0  0  0  0  0
    1.2329    9.2654   14.4109 H   0  0  0  0  0  0  0  0  0  0  0  0
   -1.4359   10.3942   15.4150 H   0  0  0  0  0  0  0  0  0  0  0  0
   -0.5816    9.1859   16.3418 H   0  0  0  0  0  0  0  0  0  0  0  0
   -2.4500    8.4643   14.7104 H   0  0  0  0  0  0  0  0  0  0  0  0
   -1.0010    7.4994   14.9108 H   0  0  0  0  0  0  0  0  0  0  0  0
   -0.0986    8.0957   12.8182 H   0  0  0  0  0  0  0  0  0  0  0  0
   -1.4389    7.0165   11.3838 H   0  0  0  0  0  0  0  0  0  0  0  0
   -2.8099    8.0380   11.6693 H   0  0  0  0  0  0  0  0  0  0  0  0
   -4.7656    7.0985   12.9067 H   0  0  0  0  0  0  0  0  0  0  0  0
   -2.7791    2.2441   14.6675 H   0  0  0  0  0  0  0  0  0  0  0  0
   -6.6080    5.3947   14.0012 H   0  0  0  0  0  0  0  0  0  0  0  0
   -7.0036    3.1738   14.9743 H   0  0  0  0  0  0  0  0  0  0  0  0
   -6.1781   -1.0838   17.6490 H   0  0  0  0  0  0  0  0  0  0  0  0
   -5.3261   -1.1355   16.1528 H   0  0  0  0  0  0  0  0  0  0  0  0
  1  2  1  0  0  0  0
  1  7  1  0  0  0  0
  1 25  1  0  0  0  0
  1 26  1  0  0  0  0
  2  3  1  0  0  0  0
  2 27  1  0  0  0  0
  2 28  1  0  0  0  0
  3  4  1  0  0  0  0
  3 29  1  0  0  0  0
  3 30  1  0  0  0  0
  4  5  1  0  0  0  0
  4 31  1  0  0  0  0
  4 32  1  0  0  0  0
  5  6  1  0  0  0  0
  5 33  1  0  0  0  0
  5 34  1  0  0  0  0
  6  7  1  0  0  0  0
  6 35  1  0  0  0  0
  6 36  1  0  0  0  0
  7  8  1  0  0  0  0
  7 37  1  0  0  0  0
  8  9  1  0  0  0  0
  8 38  1  0  0  0  0
  8 39  1  0  0  0  0
  9 10  2  0  0  0  0
  9 11  1  0  0  0  0
 10 16  1  0  0  0  0
 10 40  1  0  0  0  0
 11 12  2  0  0  0  0
 11 13  2  0  0  0  0
 11 14  1  0  0  0  0
 14 15  2  0  0  0  0
 14 16  1  0  0  0  0
 15 19  1  0  0  0  0
 15 41  1  0  0  0  0
 16 17  2  0  0  0  0
 17 18  1  0  0  0  0
 17 42  1  0  0  0  0
 18 19  2  0  0  0  0
 18 43  1  0  0  0  0
 19 20  1  0  0  0  0
 20 21  1  0  0  0  0
 21 22  2  0  0  0  0
 21 23  2  0  0  0  0
 21 24  1  0  0  0  0
 24 44  1  0  0  0  0
 24 45  1  0  0  0  0
M  END
$$$$
