2CJ
 OpenBabel04091915443D

 63 66  0  0  0  0  0  0  0  0999 V2000
    6.2248   21.0267    5.7855 O   0  0  0  0  0  0  0  0  0  0  0  0
    2.0393   23.9324    7.8237 O   0  0  0  0  0  0  0  0  0  0  0  0
    7.3247   22.1468    7.3700 O   0  0  0  0  0  0  0  0  0  0  0  0
   -4.5288   29.5109    8.2933 C   0  0  0  0  0  0  0  0  0  0  0  0
   -1.2500   30.0203    2.7894 C   0  0  0  0  0  0  0  0  0  0  0  0
   -3.4220   30.1272    8.9487 C   0  0  0  0  0  0  0  0  0  0  0  0
   -4.3436   28.6489    7.2686 C   0  0  0  0  0  0  0  0  0  0  0  0
   -1.8305   28.8612    3.2614 C   0  0  0  0  0  0  0  0  0  0  0  0
   -0.3801   30.7607    3.5783 C   0  0  0  0  0  0  0  0  0  0  0  0
   -2.1186   29.8822    8.5313 C   0  0  0  0  0  0  0  0  0  0  0  0
   -3.0654   28.3625    6.9232 C   0  0  0  0  0  0  0  0  0  0  0  0
   -1.4671   28.4245    4.5200 C   0  0  0  0  0  0  0  0  0  0  0  0
   -0.1332   30.3848    4.8848 C   0  0  0  0  0  0  0  0  0  0  0  0
    2.6488   21.3128    4.8326 C   0  0  0  0  0  0  0  0  0  0  0  0
    4.0431   21.2414    4.2898 C   0  0  0  0  0  0  0  0  0  0  0  0
    2.8439   27.2706    6.9550 C   0  0  0  0  0  0  0  0  0  0  0  0
    1.4617   26.2774    8.7465 C   0  0  0  0  0  0  0  0  0  0  0  0
    1.6345   27.9637    6.3367 C   0  0  0  0  0  0  0  0  0  0  0  0
    0.7382   27.6191    8.6126 C   0  0  0  0  0  0  0  0  0  0  0  0
    2.8552   21.9786    6.1727 C   0  0  0  0  0  0  0  0  0  0  0  0
    4.5488   22.6607    4.5732 C   0  0  0  0  0  0  0  0  0  0  0  0
    5.0860   22.7723    7.0392 C   0  0  0  0  0  0  0  0  0  0  0  0
    3.5068   24.4858    5.9733 C   0  0  0  0  0  0  0  0  0  0  0  0
    6.2894   21.8680    6.6723 C   0  0  0  0  0  0  0  0  0  0  0  0
    2.6508   24.8170    7.2178 C   0  0  0  0  0  0  0  0  0  0  0  0
   -1.9098   28.9902    7.4975 C   0  0  0  0  0  0  0  0  0  0  0  0
   -0.6983   29.2225    5.3773 C   0  0  0  0  0  0  0  0  0  0  0  0
   -0.5449   28.9213    6.8642 C   0  0  0  0  0  0  0  0  0  0  0  0
    2.4006   26.0762    7.6222 N   0  0  0  0  0  0  0  0  0  0  0  0
    0.3434   27.7593    7.1538 N   0  3  0  0  0  0  0  0  0  0  0  0
    3.9978   23.0094    5.9719 C   0  0  0  0  0  0  0  0  0  0  0  0
   -5.5290   29.7258    8.6193 H   0  0  0  0  0  0  0  0  0  0  0  0
   -1.4605   30.3269    1.7619 H   0  0  0  0  0  0  0  0  0  0  0  0
   -3.6079   30.8139    9.7518 H   0  0  0  0  0  0  0  0  0  0  0  0
   -5.1647   28.1716    6.7078 H   0  0  0  0  0  0  0  0  0  0  0  0
   -2.5319   28.2791    2.6755 H   0  0  0  0  0  0  0  0  0  0  0  0
    0.0946   31.6568    3.1771 H   0  0  0  0  0  0  0  0  0  0  0  0
   -1.3057   30.4379    8.9783 H   0  0  0  0  0  0  0  0  0  0  0  0
   -3.0031   27.6963    6.0784 H   0  0  0  0  0  0  0  0  0  0  0  0
   -1.8749   27.4591    4.7900 H   0  0  0  0  0  0  0  0  0  0  0  0
    0.5009   31.0039    5.5174 H   0  0  0  0  0  0  0  0  0  0  0  0
    2.1820   20.3341    4.9419 H   0  0  0  0  0  0  0  0  0  0  0  0
    2.0474   21.9538    4.1849 H   0  0  0  0  0  0  0  0  0  0  0  0
    4.1164   20.9799    3.2384 H   0  0  0  0  0  0  0  0  0  0  0  0
    4.5213   20.4243    4.8379 H   0  0  0  0  0  0  0  0  0  0  0  0
    3.3092   27.9106    7.7182 H   0  0  0  0  0  0  0  0  0  0  0  0
    3.5912   27.0892    6.1835 H   0  0  0  0  0  0  0  0  0  0  0  0
    0.7059   25.4825    8.7756 H   0  0  0  0  0  0  0  0  0  0  0  0
    2.0351   26.2512    9.6760 H   0  0  0  0  0  0  0  0  0  0  0  0
    1.4246   27.5773    5.3393 H   0  0  0  0  0  0  0  0  0  0  0  0
    1.8291   29.0392    6.3270 H   0  0  0  0  0  0  0  0  0  0  0  0
    1.4201   28.4513    8.8281 H   0  0  0  0  0  0  0  0  0  0  0  0
   -0.1393   27.6980    9.2554 H   0  0  0  0  0  0  0  0  0  0  0  0
    3.1253   21.2445    6.9429 H   0  0  0  0  0  0  0  0  0  0  0  0
    1.8985   22.3996    6.4616 H   0  0  0  0  0  0  0  0  0  0  0  0
    4.1558   23.3416    3.8128 H   0  0  0  0  0  0  0  0  0  0  0  0
    5.6305   22.7856    4.5216 H   0  0  0  0  0  0  0  0  0  0  0  0
    5.4851   23.7484    7.3687 H   0  0  0  0  0  0  0  0  0  0  0  0
    4.6373   22.3194    7.9302 H   0  0  0  0  0  0  0  0  0  0  0  0
    4.3753   25.1574    5.9395 H   0  0  0  0  0  0  0  0  0  0  0  0
    2.9220   24.6857    5.0585 H   0  0  0  0  0  0  0  0  0  0  0  0
    0.0352   29.7429    7.3105 H   0  0  0  0  0  0  0  0  0  0  0  0
   -0.1042   26.8763    6.8642 H   0  0  0  0  0  0  0  0  0  0  0  0
  1 24  2  0  0  0  0
  2 25  2  0  0  0  0
  3 24  1  0  0  0  0
  4  6  2  0  0  0  0
  4  7  1  0  0  0  0
  4 32  1  0  0  0  0
  5  8  2  0  0  0  0
  5  9  1  0  0  0  0
  5 33  1  0  0  0  0
  6 10  1  0  0  0  0
  6 34  1  0  0  0  0
  7 11  2  0  0  0  0
  7 35  1  0  0  0  0
  8 12  1  0  0  0  0
  8 36  1  0  0  0  0
  9 13  2  0  0  0  0
  9 37  1  0  0  0  0
 10 26  2  0  0  0  0
 10 38  1  0  0  0  0
 11 26  1  0  0  0  0
 11 39  1  0  0  0  0
 12 27  2  0  0  0  0
 12 40  1  0  0  0  0
 13 27  1  0  0  0  0
 13 41  1  0  0  0  0
 14 15  1  0  0  0  0
 14 20  1  0  0  0  0
 14 42  1  0  0  0  0
 14 43  1  0  0  0  0
 15 21  1  0  0  0  0
 15 44  1  0  0  0  0
 15 45  1  0  0  0  0
 16 18  1  0  0  0  0
 16 29  1  0  0  0  0
 16 46  1  0  0  0  0
 16 47  1  0  0  0  0
 17 19  1  0  0  0  0
 17 29  1  0  0  0  0
 17 48  1  0  0  0  0
 17 49  1  0  0  0  0
 18 30  1  0  0  0  0
 18 50  1  0  0  0  0
 18 51  1  0  0  0  0
 19 30  1  0  0  0  0
 19 52  1  0  0  0  0
 19 53  1  0  0  0  0
 20 31  1  0  0  0  0
 20 54  1  0  0  0  0
 20 55  1  0  0  0  0
 21 31  1  0  0  0  0
 21 56  1  0  0  0  0
 21 57  1  0  0  0  0
 22 24  1  0  0  0  0
 22 31  1  0  0  0  0
 22 58  1  0  0  0  0
 22 59  1  0  0  0  0
 23 25  1  0  0  0  0
 23 31  1  0  0  0  0
 23 60  1  0  0  0  0
 23 61  1  0  0  0  0
 25 29  1  0  0  0  0
 26 28  1  0  0  0  0
 27 28  1  0  0  0  0
 28 30  1  0  0  0  0
 28 62  1  0  0  0  0
 30 63  1  0  0  0  0
M  CHG  1  30   1
M  END
$$$$
