2MY
 OpenBabel04091912193D

 19 19  0  0  0  0  0  0  0  0999 V2000
   31.4414    0.2614   34.3953 C   0  0  0  0  0  0  0  0  0  0  0  0
   32.6666    0.2555   35.2624 C   0  0  0  0  0  0  0  0  0  0  0  0
   32.5454    0.1429   36.6549 C   0  0  0  0  0  0  0  0  0  0  0  0
   33.6831    0.1274   37.4663 C   0  0  0  0  0  0  0  0  0  0  0  0
   34.9545    0.2194   36.8988 C   0  0  0  0  0  0  0  0  0  0  0  0
   35.0983    0.3268   35.5144 C   0  0  0  0  0  0  0  0  0  0  0  0
   36.4579    0.4200   34.8813 C   0  0  0  0  0  0  0  0  0  0  0  0
   33.9529    0.3460   34.7090 C   0  0  0  0  0  0  0  0  0  0  0  0
   34.1446    0.4483   33.3581 O   0  0  0  0  0  0  0  0  0  0  0  0
   30.5189    0.2182   34.9815 H   0  0  0  0  0  0  0  0  0  0  0  0
   31.4588   -0.6063   33.7271 H   0  0  0  0  0  0  0  0  0  0  0  0
   31.4098    1.1777   33.7932 H   0  0  0  0  0  0  0  0  0  0  0  0
   31.5657    0.0624   37.1189 H   0  0  0  0  0  0  0  0  0  0  0  0
   33.5781    0.0423   38.5447 H   0  0  0  0  0  0  0  0  0  0  0  0
   35.8292    0.2064   37.5477 H   0  0  0  0  0  0  0  0  0  0  0  0
   37.2530    0.3919   35.6325 H   0  0  0  0  0  0  0  0  0  0  0  0
   36.5497    1.3580   34.3257 H   0  0  0  0  0  0  0  0  0  0  0  0
   36.6093   -0.4215   34.1980 H   0  0  0  0  0  0  0  0  0  0  0  0
   33.2824    0.4444   32.9097 H   0  0  0  0  0  0  0  0  0  0  0  0
  1  2  1  0  0  0  0
  1 10  1  0  0  0  0
  1 11  1  0  0  0  0
  1 12  1  0  0  0  0
  2  3  2  0  0  0  0
  2  8  1  0  0  0  0
  3  4  1  0  0  0  0
  3 13  1  0  0  0  0
  4  5  2  0  0  0  0
  4 14  1  0  0  0  0
  5  6  1  0  0  0  0
  5 15  1  0  0  0  0
  6  7  1  0  0  0  0
  6  8  2  0  0  0  0
  7 16  1  0  0  0  0
  7 17  1  0  0  0  0
  7 18  1  0  0  0  0
  8  9  1  0  0  0  0
  9 19  1  0  0  0  0
M  END
$$$$
