2NC
 OpenBabel04091911053D

123122  0  0  1  0  0  0  0  0999 V2000
   23.4944   25.2281   18.7037 N   0  0  0  0  0  0  0  0  0  0  0  0
   22.9521   26.5858   18.6960 C   0  0  2  0  0  0  0  0  0  0  0  0
   21.5568   26.6661   18.0672 C   0  0  0  0  0  0  0  0  0  0  0  0
   20.8913   27.6963   18.1172 O   0  0  0  0  0  0  0  0  0  0  0  0
   23.8742   27.5863   17.9844 C   0  0  2  0  0  0  0  0  0  0  0  0
   24.0480   27.1224   16.6399 O   0  0  0  0  0  0  0  0  0  0  0  0
   25.2349   27.6739   18.6717 C   0  0  0  0  0  0  0  0  0  0  0  0
   21.1009   25.5729   17.3671 N   0  0  0  0  0  0  0  0  0  0  0  0
   19.8373   25.6018   16.6477 C   0  0  2  0  0  0  0  0  0  0  0  0
   18.9863   24.4495   17.2252 C   0  0  0  0  0  0  0  0  0  0  0  0
   18.9971   23.3213   16.8048 O   0  0  0  0  0  0  0  0  0  0  0  0
   20.0223   25.4058   15.1343 C   0  0  2  0  0  0  0  0  0  0  0  0
   21.0577   26.3571   14.5277 C   0  0  0  0  0  0  0  0  0  0  0  0
   18.6764   25.5422   14.4289 C   0  0  0  0  0  0  0  0  0  0  0  0
   20.6991   27.8241   14.6170 C   0  0  0  0  0  0  0  0  0  0  0  0
   13.2609   21.0274   18.0301 N   0  0  0  0  0  0  0  0  0  0  0  0
   13.1272   19.6506   18.4561 C   0  0  2  0  0  0  0  0  0  0  0  0
   11.7022   19.2438   18.1360 C   0  0  0  0  0  0  0  0  0  0  0  0
   10.7367   19.9715   18.3237 O   0  0  0  0  0  0  0  0  0  0  0  0
   13.4541   19.4698   19.9254 C   0  0  0  0  0  0  0  0  0  0  0  0
   13.2429   18.0422   20.4168 C   0  0  0  0  0  0  0  0  0  0  0  0
   11.8213   17.8025   20.8707 C   0  0  0  0  0  0  0  0  0  0  0  0
   11.0789   18.6788   21.2797 O   0  0  0  0  0  0  0  0  0  0  0  0
   11.3944   16.5168   20.8191 N   0  0  0  0  0  0  0  0  0  0  0  0
   11.6187   18.0236   17.5161 N   0  0  0  0  0  0  0  0  0  0  0  0
   10.3349   17.4766   17.1445 C   0  0  2  0  0  0  0  0  0  0  0  0
   10.2332   16.0740   17.7640 C   0  0  0  0  0  0  0  0  0  0  0  0
   11.1851   15.2959   17.7811 O   0  0  0  0  0  0  0  0  0  0  0  0
    9.0044   15.7291   18.2496 N   0  0  0  0  0  0  0  0  0  0  0  0
   10.2108   17.4031   15.6283 C   0  0  0  0  0  0  0  0  0  0  0  0
   10.6453   18.6765   14.8971 C   0  0  0  0  0  0  0  0  0  0  0  0
   10.6714   18.4637   13.3955 C   0  0  0  0  0  0  0  0  0  0  0  0
    9.3501   18.0596   12.8931 N   0  0  0  0  0  0  0  0  0  0  0  0
    9.1059   17.8792   11.5893 C   0  0  0  0  0  0  0  0  0  0  0  0
   10.0862   18.0734   10.7194 N   0  0  0  0  0  0  0  0  0  0  0  0
    7.8976   17.5109   11.1587 N   0  0  0  0  0  0  0  0  0  0  0  0
   23.6335   24.5466   19.8902 C   0  0  0  0  0  0  0  0  0  0  0  0
   23.2554   24.9919   20.9684 O   0  0  0  0  0  0  0  0  0  0  0  0
   24.2638   23.1861   19.7449 C   0  0  0  0  0  0  0  0  0  0  0  0
   18.1539   24.8232   18.2607 N   0  0  0  0  0  0  0  0  0  0  0  0
   17.4722   23.8230   19.0689 C   0  0  2  0  0  0  0  0  0  0  0  0
   15.9677   23.8259   18.8050 C   0  0  0  0  0  0  0  0  0  0  0  0
   17.7219   24.0505   20.5596 C   0  0  0  0  0  0  0  0  0  0  0  0
   19.1929   24.0925   20.9487 C   0  0  0  0  0  0  0  0  0  0  0  0
   19.9891   22.8734   20.5209 C   0  0  0  0  0  0  0  0  0  0  0  0
   19.4236   21.5760   21.0638 C   0  0  0  0  0  0  0  0  0  0  0  0
   15.6878   23.6573   17.3427 N   0  3  0  0  0  0  0  0  0  0  0  0
   14.4181   22.9295   17.0687 C   0  0  2  0  0  0  0  0  0  0  0  0
   14.4699   21.4982   17.6119 C   0  0  0  0  0  0  0  0  0  0  0  0
   15.5078   20.8539   17.6751 O   0  0  0  0  0  0  0  0  0  0  0  0
   14.0933   22.9174   15.5741 C   0  0  0  0  0  0  0  0  0  0  0  0
   15.0868   22.0994   14.7620 C   0  0  0  0  0  0  0  0  0  0  0  0
   14.5282   21.5894   13.4437 C   0  0  0  0  0  0  0  0  0  0  0  0
   14.0613   20.1557   13.6216 C   0  0  0  0  0  0  0  0  0  0  0  0
   23.8418   24.8500   17.8284 H   0  0  0  0  0  0  0  0  0  0  0  0
   22.8215   26.9147   19.7297 H   0  0  0  0  0  0  0  0  0  0  0  0
   23.4128   28.5848   17.9650 H   0  0  0  0  0  0  0  0  0  0  0  0
   24.6134   27.7612   16.1733 H   0  0  0  0  0  0  0  0  0  0  0  0
   25.8831   28.4009   18.1680 H   0  0  0  0  0  0  0  0  0  0  0  0
   25.7484   26.7080   18.6332 H   0  0  0  0  0  0  0  0  0  0  0  0
   25.1297   27.9719   19.7195 H   0  0  0  0  0  0  0  0  0  0  0  0
   21.6766   24.7424   17.3451 H   0  0  0  0  0  0  0  0  0  0  0  0
   19.3082   26.5429   16.8358 H   0  0  0  0  0  0  0  0  0  0  0  0
   20.3860   24.3893   14.9439 H   0  0  0  0  0  0  0  0  0  0  0  0
   21.1980   26.1029   13.4719 H   0  0  0  0  0  0  0  0  0  0  0  0
   22.0137   26.2043   15.0357 H   0  0  0  0  0  0  0  0  0  0  0  0
   17.9471   24.8530   14.8632 H   0  0  0  0  0  0  0  0  0  0  0  0
   18.7803   25.3067   13.3668 H   0  0  0  0  0  0  0  0  0  0  0  0
   18.2780   26.5560   14.5319 H   0  0  0  0  0  0  0  0  0  0  0  0
   21.4974   28.4245   14.1738 H   0  0  0  0  0  0  0  0  0  0  0  0
   20.5739   28.1304   15.6561 H   0  0  0  0  0  0  0  0  0  0  0  0
   19.7737   28.0325   14.0758 H   0  0  0  0  0  0  0  0  0  0  0  0
   12.4542   21.6473   18.1096 H   0  0  0  0  0  0  0  0  0  0  0  0
   13.8234   19.0466   17.8580 H   0  0  0  0  0  0  0  0  0  0  0  0
   12.8583   20.1724   20.5146 H   0  0  0  0  0  0  0  0  0  0  0  0
   14.5120   19.7148   20.0647 H   0  0  0  0  0  0  0  0  0  0  0  0
   13.8940   17.8881   21.2854 H   0  0  0  0  0  0  0  0  0  0  0  0
   13.5063   17.3302   19.6295 H   0  0  0  0  0  0  0  0  0  0  0  0
   10.4465   16.3301   21.1251 H   0  0  0  0  0  0  0  0  0  0  0  0
   11.9646   15.7620   20.4631 H   0  0  0  0  0  0  0  0  0  0  0  0
   12.4529   17.4558   17.3959 H   0  0  0  0  0  0  0  0  0  0  0  0
    9.5316   18.1051   17.5389 H   0  0  0  0  0  0  0  0  0  0  0  0
    8.8711   14.8252   18.6915 H   0  0  0  0  0  0  0  0  0  0  0  0
    8.2206   16.3685   18.2680 H   0  0  0  0  0  0  0  0  0  0  0  0
    9.1615   17.2023   15.3888 H   0  0  0  0  0  0  0  0  0  0  0  0
   10.8105   16.5673   15.2498 H   0  0  0  0  0  0  0  0  0  0  0  0
   11.6496   18.9666   15.2160 H   0  0  0  0  0  0  0  0  0  0  0  0
    9.9571   19.4963   15.1337 H   0  0  0  0  0  0  0  0  0  0  0  0
   11.3993   17.6823   13.1369 H   0  0  0  0  0  0  0  0  0  0  0  0
   10.9631   19.3993   12.8997 H   0  0  0  0  0  0  0  0  0  0  0  0
    8.5862   17.9004   13.5365 H   0  0  0  0  0  0  0  0  0  0  0  0
    9.9663   17.9455    9.7276 H   0  0  0  0  0  0  0  0  0  0  0  0
    7.1204   17.3550   11.7890 H   0  0  0  0  0  0  0  0  0  0  0  0
    7.7158   17.3687   10.1701 H   0  0  0  0  0  0  0  0  0  0  0  0
   24.3238   22.6882   20.7189 H   0  0  0  0  0  0  0  0  0  0  0  0
   25.2746   23.2850   19.3395 H   0  0  0  0  0  0  0  0  0  0  0  0
   23.6597   22.5682   19.0738 H   0  0  0  0  0  0  0  0  0  0  0  0
   18.1699   25.7903   18.5660 H   0  0  0  0  0  0  0  0  0  0  0  0
   17.8274   22.8237   18.7919 H   0  0  0  0  0  0  0  0  0  0  0  0
   15.5104   24.7765   19.0935 H   0  0  0  0  0  0  0  0  0  0  0  0
   15.5001   22.9990   19.3451 H   0  0  0  0  0  0  0  0  0  0  0  0
   17.2315   23.2512   21.1271 H   0  0  0  0  0  0  0  0  0  0  0  0
   17.2728   25.0006   20.8699 H   0  0  0  0  0  0  0  0  0  0  0  0
   19.2584   24.1881   22.0372 H   0  0  0  0  0  0  0  0  0  0  0  0
   19.6556   24.9783   20.5014 H   0  0  0  0  0  0  0  0  0  0  0  0
   21.0147   22.9992   20.8799 H   0  0  0  0  0  0  0  0  0  0  0  0
   20.0193   22.8290   19.4294 H   0  0  0  0  0  0  0  0  0  0  0  0
   20.0381   20.7367   20.7298 H   0  0  0  0  0  0  0  0  0  0  0  0
   18.4038   21.4086   20.7052 H   0  0  0  0  0  0  0  0  0  0  0  0
   19.4080   21.5883   22.1577 H   0  0  0  0  0  0  0  0  0  0  0  0
   15.6553   24.5862   16.9105 H   0  0  0  0  0  0  0  0  0  0  0  0
   13.6411   23.5000   17.5796 H   0  0  0  0  0  0  0  0  0  0  0  0
   14.0838   23.9409   15.1803 H   0  0  0  0  0  0  0  0  0  0  0  0
   13.0875   22.4987   15.4489 H   0  0  0  0  0  0  0  0  0  0  0  0
   15.4014   21.2345   15.3468 H   0  0  0  0  0  0  0  0  0  0  0  0
   15.9638   22.7190   14.5664 H   0  0  0  0  0  0  0  0  0  0  0  0
   15.3239   21.6127   12.6907 H   0  0  0  0  0  0  0  0  0  0  0  0
   13.7011   22.2131   13.0908 H   0  0  0  0  0  0  0  0  0  0  0  0
   13.6802   19.7532   12.6817 H   0  0  0  0  0  0  0  0  0  0  0  0
   13.2715   20.1148   14.3749 H   0  0  0  0  0  0  0  0  0  0  0  0
   14.8884   19.5216   13.9624 H   0  0  0  0  0  0  0  0  0  0  0  0
   10.9987   18.3492   11.0505 H   0  0  0  0  0  0  0  0  0  0  0  0
   16.4781   23.1298   16.9266 H   0  0  0  0  0  0  0  0  0  0  0  0
  1  2  1  0  0  0  0
  1 37  1  0  0  0  0
  1 55  1  0  0  0  0
  2  3  1  0  0  0  0
  2  5  1  0  0  0  0
  2 56  1  1  0  0  0
  3  4  2  0  0  0  0
  3  8  1  0  0  0  0
  5  6  1  0  0  0  0
  5  7  1  0  0  0  0
  5 57  1  6  0  0  0
  6 58  1  0  0  0  0
  7 59  1  0  0  0  0
  7 60  1  0  0  0  0
  7 61  1  0  0  0  0
  8  9  1  0  0  0  0
  8 62  1  0  0  0  0
  9 10  1  0  0  0  0
  9 12  1  0  0  0  0
  9 63  1  1  0  0  0
 10 11  2  0  0  0  0
 10 40  1  0  0  0  0
 12 13  1  0  0  0  0
 12 14  1  0  0  0  0
 12 64  1  6  0  0  0
 13 15  1  0  0  0  0
 13 65  1  0  0  0  0
 13 66  1  0  0  0  0
 14 67  1  0  0  0  0
 14 68  1  0  0  0  0
 14 69  1  0  0  0  0
 15 70  1  0  0  0  0
 15 71  1  0  0  0  0
 15 72  1  0  0  0  0
 16 17  1  0  0  0  0
 16 49  1  0  0  0  0
 16 73  1  0  0  0  0
 17 18  1  0  0  0  0
 17 20  1  0  0  0  0
 17 74  1  6  0  0  0
 18 19  2  0  0  0  0
 18 25  1  0  0  0  0
 20 21  1  0  0  0  0
 20 75  1  0  0  0  0
 20 76  1  0  0  0  0
 21 22  1  0  0  0  0
 21 77  1  0  0  0  0
 21 78  1  0  0  0  0
 22 23  2  0  0  0  0
 22 24  1  0  0  0  0
 24 79  1  0  0  0  0
 24 80  1  0  0  0  0
 25 26  1  0  0  0  0
 25 81  1  0  0  0  0
 26 27  1  0  0  0  0
 26 30  1  0  0  0  0
 26 82  1  1  0  0  0
 27 28  2  0  0  0  0
 27 29  1  0  0  0  0
 29 83  1  0  0  0  0
 29 84  1  0  0  0  0
 30 31  1  0  0  0  0
 30 85  1  0  0  0  0
 30 86  1  0  0  0  0
 31 32  1  0  0  0  0
 31 87  1  0  0  0  0
 31 88  1  0  0  0  0
 32 33  1  0  0  0  0
 32 89  1  0  0  0  0
 32 90  1  0  0  0  0
 33 34  1  0  0  0  0
 33 91  1  0  0  0  0
 34 35  2  0  0  0  0
 34 36  1  0  0  0  0
 35 92  1  0  0  0  0
 35122  1  0  0  0  0
 36 93  1  0  0  0  0
 36 94  1  0  0  0  0
 37 38  2  0  0  0  0
 37 39  1  0  0  0  0
 39 95  1  0  0  0  0
 39 96  1  0  0  0  0
 39 97  1  0  0  0  0
 40 41  1  0  0  0  0
 40 98  1  0  0  0  0
 41 42  1  0  0  0  0
 41 43  1  0  0  0  0
 41 99  1  6  0  0  0
 42 47  1  0  0  0  0
 42100  1  0  0  0  0
 42101  1  0  0  0  0
 43 44  1  0  0  0  0
 43102  1  0  0  0  0
 43103  1  0  0  0  0
 44 45  1  0  0  0  0
 44104  1  0  0  0  0
 44105  1  0  0  0  0
 45 46  1  0  0  0  0
 45106  1  0  0  0  0
 45107  1  0  0  0  0
 46108  1  0  0  0  0
 46109  1  0  0  0  0
 46110  1  0  0  0  0
 47 48  1  0  0  0  0
 47111  1  0  0  0  0
 47123  1  0  0  0  0
 48 49  1  0  0  0  0
 48 51  1  0  0  0  0
 48112  1  1  0  0  0
 49 50  2  0  0  0  0
 51 52  1  0  0  0  0
 51113  1  0  0  0  0
 51114  1  0  0  0  0
 52 53  1  0  0  0  0
 52115  1  0  0  0  0
 52116  1  0  0  0  0
 53 54  1  0  0  0  0
 53117  1  0  0  0  0
 53118  1  0  0  0  0
 54119  1  0  0  0  0
 54120  1  0  0  0  0
 54121  1  0  0  0  0
M  CHG  1  47   1
M  END
$$$$
