2TU
 OpenBabel04091915143D

 29 30  0  0  1  0  0  0  0  0999 V2000
   45.6425    0.8969   25.8522 N   0  3  0  0  0  0  0  0  0  0  0  0
   45.3804    2.2531   25.9117 C   0  0  0  0  0  0  0  0  0  0  0  0
   46.3484    3.4462   25.2290 S   0  0  0  0  0  0  0  0  0  0  0  0
   44.2767    2.6170   26.5891 N   0  3  0  0  0  0  0  0  0  0  0  0
   43.3903    1.7249   27.1969 C   0  0  0  0  0  0  0  0  0  0  0  0
   42.4056    2.0827   27.8001 O   0  0  0  0  0  0  0  0  0  0  0  0
   43.7209    0.2969   27.0638 C   0  0  0  0  0  0  0  0  0  0  0  0
   44.8016   -0.0547   26.3880 C   0  0  0  0  0  0  0  0  0  0  0  0
   46.8237    0.4896   25.0866 C   0  0  1  0  0  0  0  0  0  0  0  0
   47.5204   -0.7671   25.5589 C   0  0  2  0  0  0  0  0  0  0  0  0
   48.3614   -0.5368   26.6880 O   0  0  0  0  0  0  0  0  0  0  0  0
   48.2403   -1.1968   24.2988 C   0  0  2  0  0  0  0  0  0  0  0  0
   49.4731   -0.4736   24.1684 O   0  0  0  0  0  0  0  0  0  0  0  0
   47.3045   -0.7430   23.1733 C   0  0  2  0  0  0  0  0  0  0  0  0
   46.4505    0.2830   23.7198 O   0  0  0  0  0  0  0  0  0  0  0  0
   46.4157   -1.8483   22.6133 C   0  0  0  0  0  0  0  0  0  0  0  0
   45.4143   -1.3336   21.7309 O   0  0  0  0  0  0  0  0  0  0  0  0
   44.0201    3.5972   26.6882 H   0  0  0  0  0  0  0  0  0  0  0  0
   43.0502   -0.3929   27.5196 H   0  0  0  0  0  0  0  0  0  0  0  0
   45.0405   -1.1106   26.2886 H   0  0  0  0  0  0  0  0  0  0  0  0
   47.5662    1.2941   25.1338 H   0  0  0  0  0  0  0  0  0  0  0  0
   46.8067   -1.5272   25.8345 H   0  0  0  0  0  0  0  0  0  0  0  0
   49.0111    0.1495   26.4449 H   0  0  0  0  0  0  0  0  0  0  0  0
   48.4472   -2.2708   24.2758 H   0  0  0  0  0  0  0  0  0  0  0  0
   50.0326   -0.6764   24.9370 H   0  0  0  0  0  0  0  0  0  0  0  0
   47.8814   -0.3180   22.3451 H   0  0  0  0  0  0  0  0  0  0  0  0
   45.9123   -2.3829   23.4226 H   0  0  0  0  0  0  0  0  0  0  0  0
   47.0257   -2.5515   22.0396 H   0  0  0  0  0  0  0  0  0  0  0  0
   44.8719   -0.6970   22.2374 H   0  0  0  0  0  0  0  0  0  0  0  0
  1  2  1  0  0  0  0
  1  8  1  0  0  0  0
  1  9  1  0  0  0  0
  2  3  2  0  0  0  0
  2  4  1  0  0  0  0
  4  5  1  0  0  0  0
  4 18  1  0  0  0  0
  5  6  2  0  0  0  0
  5  7  1  0  0  0  0
  7  8  2  0  0  0  0
  7 19  1  0  0  0  0
  8 20  1  0  0  0  0
  9 10  1  0  0  0  0
  9 15  1  0  0  0  0
  9 21  1  1  0  0  0
 10 11  1  0  0  0  0
 10 12  1  0  0  0  0
 10 22  1  1  0  0  0
 11 23  1  0  0  0  0
 12 13  1  0  0  0  0
 12 14  1  0  0  0  0
 12 24  1  6  0  0  0
 13 25  1  0  0  0  0
 14 15  1  0  0  0  0
 14 16  1  0  0  0  0
 14 26  1  6  0  0  0
 16 17  1  0  0  0  0
 16 27  1  0  0  0  0
 16 28  1  0  0  0  0
 17 29  1  0  0  0  0
M  CHG  2   1   1   4   1
M  END
$$$$
