32A
 OpenBabel04091912453D

 36 36  0  0  0  0  0  0  0  0999 V2000
    5.8955    6.7794   13.3116 C   0  0  0  0  0  0  0  0  0  0  0  0
    6.4387    7.1634   12.0502 C   0  0  0  0  0  0  0  0  0  0  0  0
    9.4978    8.7660   11.0275 C   0  0  0  0  0  0  0  0  0  0  0  0
    4.2615    6.1957   14.5442 C   0  0  0  0  0  0  0  0  0  0  0  0
    6.4185    6.4757   14.5667 C   0  0  0  0  0  0  0  0  0  0  0  0
    2.9277    5.9730   14.8636 C   0  0  0  0  0  0  0  0  0  0  0  0
    1.8291    5.9017   15.2311 C   0  0  0  0  0  0  0  0  0  0  0  0
    7.4750    8.0463   12.0545 N   0  0  0  0  0  0  0  0  0  0  0  0
    8.2892    8.1861   10.8982 N   0  0  0  0  0  0  0  0  0  0  0  0
   10.1735    9.1186    9.9069 N   0  0  0  0  0  0  0  0  0  0  0  0
    0.4190    5.9950   15.5959 C   0  0  0  0  0  0  0  0  0  0  0  0
    5.3317    6.0967   15.3776 C   0  0  0  0  0  0  0  0  0  0  0  0
    6.0008    6.7552   10.9770 O   0  0  0  0  0  0  0  0  0  0  0  0
   10.8087    8.2106    8.9793 C   0  0  0  0  0  0  0  0  0  0  0  0
   10.0447    9.1450   12.5538 S   0  0  0  0  0  0  0  0  0  0  0  0
    4.5434    6.6017   13.3107 O   0  0  0  0  0  0  0  0  0  0  0  0
   -0.2934    6.9738   14.6562 C   0  0  0  0  0  0  0  0  0  0  0  0
   -1.1912    6.1998   13.6956 C   0  0  0  0  0  0  0  0  0  0  0  0
   -2.5507    6.8505   13.5440 C   0  0  0  0  0  0  0  0  0  0  0  0
    7.4506    6.5024   14.8872 H   0  0  0  0  0  0  0  0  0  0  0  0
    7.6931    8.6095   12.8779 H   0  0  0  0  0  0  0  0  0  0  0  0
    7.9725    7.8148   10.0161 H   0  0  0  0  0  0  0  0  0  0  0  0
   10.2987   10.1131    9.7562 H   0  0  0  0  0  0  0  0  0  0  0  0
    0.3279    6.3606   16.6148 H   0  0  0  0  0  0  0  0  0  0  0  0
   -0.0353    5.0128   15.5124 H   0  0  0  0  0  0  0  0  0  0  0  0
    5.3286    5.7988   16.4204 H   0  0  0  0  0  0  0  0  0  0  0  0
   11.3123    8.7941    8.1974 H   0  0  0  0  0  0  0  0  0  0  0  0
   10.0501    7.5703    8.5302 H   0  0  0  0  0  0  0  0  0  0  0  0
   11.5501    7.5963    9.5030 H   0  0  0  0  0  0  0  0  0  0  0  0
    0.4395    7.5534   14.0806 H   0  0  0  0  0  0  0  0  0  0  0  0
   -0.8982    7.6639   15.2549 H   0  0  0  0  0  0  0  0  0  0  0  0
   -1.3375    5.1803   14.0676 H   0  0  0  0  0  0  0  0  0  0  0  0
   -0.7062    6.1517   12.7162 H   0  0  0  0  0  0  0  0  0  0  0  0
   -3.1646    6.2647   12.8503 H   0  0  0  0  0  0  0  0  0  0  0  0
   -2.4379    7.8669   13.1535 H   0  0  0  0  0  0  0  0  0  0  0  0
   -3.0568    6.8932   14.5166 H   0  0  0  0  0  0  0  0  0  0  0  0
  1  2  1  0  0  0  0
  1  5  2  0  0  0  0
  1 16  1  0  0  0  0
  2  8  1  0  0  0  0
  2 13  2  0  0  0  0
  3  9  1  0  0  0  0
  3 10  1  0  0  0  0
  3 15  2  0  0  0  0
  4  6  1  0  0  0  0
  4 12  2  0  0  0  0
  4 16  1  0  0  0  0
  5 12  1  0  0  0  0
  5 20  1  0  0  0  0
  6  7  3  0  0  0  0
  7 11  1  0  0  0  0
  8  9  1  0  0  0  0
  8 21  1  0  0  0  0
  9 22  1  0  0  0  0
 10 14  1  0  0  0  0
 10 23  1  0  0  0  0
 11 17  1  0  0  0  0
 11 24  1  0  0  0  0
 11 25  1  0  0  0  0
 12 26  1  0  0  0  0
 14 27  1  0  0  0  0
 14 28  1  0  0  0  0
 14 29  1  0  0  0  0
 17 18  1  0  0  0  0
 17 30  1  0  0  0  0
 17 31  1  0  0  0  0
 18 19  1  0  0  0  0
 18 32  1  0  0  0  0
 18 33  1  0  0  0  0
 19 34  1  0  0  0  0
 19 35  1  0  0  0  0
 19 36  1  0  0  0  0
M  END
$$$$
