34M
 OpenBabel04091915553D

 48 51  0  0  0  0  0  0  0  0999 V2000
  -24.0338   -3.1700   10.6645 S   0  0  0  0  0  0  0  0  0  0  0  0
  -24.0053   -3.5628   12.4418 C   0  0  0  0  0  0  0  0  0  0  0  0
  -23.2657   -2.5504   13.2340 C   0  0  0  0  0  0  0  0  0  0  0  0
  -22.6666   -1.4370   12.8743 N   0  0  0  0  0  0  0  0  0  0  0  0
  -22.1935   -0.9421   14.0694 C   0  0  0  0  0  0  0  0  0  0  0  0
  -22.4789   -1.7199   15.1276 N   0  0  0  0  0  0  0  0  0  0  0  0
  -23.1918   -2.7826   14.5768 O   0  0  0  0  0  0  0  0  0  0  0  0
  -21.4825    0.3307   14.1486 C   0  0  0  0  0  0  0  0  0  0  0  0
  -20.8959    0.7691   15.3406 C   0  0  0  0  0  0  0  0  0  0  0  0
  -20.2463    2.0066   15.3961 C   0  0  0  0  0  0  0  0  0  0  0  0
  -20.1768    2.8297   14.2702 C   0  0  0  0  0  0  0  0  0  0  0  0
  -20.7464    2.3962   13.0750 C   0  0  0  0  0  0  0  0  0  0  0  0
  -21.3911    1.1528   13.0156 C   0  0  0  0  0  0  0  0  0  0  0  0
  -19.5242    4.0162   14.4669 O   0  0  0  0  0  0  0  0  0  0  0  0
  -19.5518    4.9524   13.3964 C   0  0  0  0  0  0  0  0  0  0  0  0
  -24.9299   -4.5300   10.0754 C   0  0  0  0  0  0  0  0  0  0  0  0
  -25.0814   -4.8511    8.7457 N   0  3  0  0  0  0  0  0  0  0  0  0
  -25.7410   -6.0684    8.7559 C   0  0  0  0  0  0  0  0  0  0  0  0
  -25.9579   -6.4371   10.0062 N   0  0  0  0  0  0  0  0  0  0  0  0
  -25.4432   -5.4747   10.8324 N   0  0  0  0  0  0  0  0  0  0  0  0
  -26.2500   -6.7727    7.5567 C   0  0  0  0  0  0  0  0  0  0  0  0
  -24.6675   -4.1127    7.6163 C   0  0  0  0  0  0  0  0  0  0  0  0
  -23.7523   -4.6706    6.7222 C   0  0  0  0  0  0  0  0  0  0  0  0
  -23.2996   -3.9014    5.6472 C   0  0  0  0  0  0  0  0  0  0  0  0
  -23.7694   -2.5983    5.4463 C   0  0  0  0  0  0  0  0  0  0  0  0
  -24.7075   -2.0636    6.3311 C   0  0  0  0  0  0  0  0  0  0  0  0
  -25.1489   -2.8138    7.4264 C   0  0  0  0  0  0  0  0  0  0  0  0
  -23.2439   -1.9662    4.3536 O   0  0  0  0  0  0  0  0  0  0  0  0
  -23.5251   -0.5791    4.2112 C   0  0  0  0  0  0  0  0  0  0  0  0
  -23.5364   -4.5424   12.5871 H   0  0  0  0  0  0  0  0  0  0  0  0
  -25.0364   -3.6156   12.8067 H   0  0  0  0  0  0  0  0  0  0  0  0
  -20.9387    0.1546   16.2397 H   0  0  0  0  0  0  0  0  0  0  0  0
  -19.7981    2.3360   16.3312 H   0  0  0  0  0  0  0  0  0  0  0  0
  -20.7101    2.9939   12.1713 H   0  0  0  0  0  0  0  0  0  0  0  0
  -21.8297    0.8332   12.0715 H   0  0  0  0  0  0  0  0  0  0  0  0
  -19.0051    5.8438   13.7200 H   0  0  0  0  0  0  0  0  0  0  0  0
  -20.5778    5.2563   13.1640 H   0  0  0  0  0  0  0  0  0  0  0  0
  -19.0452    4.5582   12.5094 H   0  0  0  0  0  0  0  0  0  0  0  0
  -26.8302   -7.6514    7.8542 H   0  0  0  0  0  0  0  0  0  0  0  0
  -25.4311   -7.1141    6.9179 H   0  0  0  0  0  0  0  0  0  0  0  0
  -26.9110   -6.1216    6.9763 H   0  0  0  0  0  0  0  0  0  0  0  0
  -23.3361   -5.6637    6.8740 H   0  0  0  0  0  0  0  0  0  0  0  0
  -22.5554   -4.3103    4.9670 H   0  0  0  0  0  0  0  0  0  0  0  0
  -25.1151   -1.0668    6.1975 H   0  0  0  0  0  0  0  0  0  0  0  0
  -25.8834   -2.3806    8.1023 H   0  0  0  0  0  0  0  0  0  0  0  0
  -23.0015   -0.2236    3.3179 H   0  0  0  0  0  0  0  0  0  0  0  0
  -23.1485   -0.0095    5.0676 H   0  0  0  0  0  0  0  0  0  0  0  0
  -24.5946   -0.4037    4.0583 H   0  0  0  0  0  0  0  0  0  0  0  0
  1  2  1  0  0  0  0
  1 16  1  0  0  0  0
  2  3  1  0  0  0  0
  2 30  1  0  0  0  0
  2 31  1  0  0  0  0
  3  4  2  0  0  0  0
  3  7  1  0  0  0  0
  4  5  1  0  0  0  0
  5  6  2  0  0  0  0
  5  8  1  0  0  0  0
  6  7  1  0  0  0  0
  8  9  2  0  0  0  0
  8 13  1  0  0  0  0
  9 10  1  0  0  0  0
  9 32  1  0  0  0  0
 10 11  2  0  0  0  0
 10 33  1  0  0  0  0
 11 12  1  0  0  0  0
 11 14  1  0  0  0  0
 12 13  2  0  0  0  0
 12 34  1  0  0  0  0
 13 35  1  0  0  0  0
 14 15  1  0  0  0  0
 15 36  1  0  0  0  0
 15 37  1  0  0  0  0
 15 38  1  0  0  0  0
 16 17  1  0  0  0  0
 16 20  2  0  0  0  0
 17 18  2  0  0  0  0
 17 22  1  0  0  0  0
 18 19  1  0  0  0  0
 18 21  1  0  0  0  0
 19 20  1  0  0  0  0
 21 39  1  0  0  0  0
 21 40  1  0  0  0  0
 21 41  1  0  0  0  0
 22 23  2  0  0  0  0
 22 27  1  0  0  0  0
 23 24  1  0  0  0  0
 23 42  1  0  0  0  0
 24 25  2  0  0  0  0
 24 43  1  0  0  0  0
 25 26  1  0  0  0  0
 25 28  1  0  0  0  0
 26 27  2  0  0  0  0
 26 44  1  0  0  0  0
 27 45  1  0  0  0  0
 28 29  1  0  0  0  0
 29 46  1  0  0  0  0
 29 47  1  0  0  0  0
 29 48  1  0  0  0  0
M  CHG  1  17   1
M  END
$$$$
