35C
 OpenBabel04091913053D

 14 14  0  0  0  0  0  0  0  0999 V2000
    2.9679   -2.8433   18.8668 C   0  0  0  0  0  0  0  0  0  0  0  0
    3.5917   -1.6423   19.2184 C   0  0  0  0  0  0  0  0  0  0  0  0
    3.0339   -0.8571   20.2375 C   0  0  0  0  0  0  0  0  0  0  0  0
    1.8759   -1.2645   20.9016 C   0  0  0  0  0  0  0  0  0  0  0  0
    1.2709   -2.4651   20.5444 C   0  0  0  0  0  0  0  0  0  0  0  0
    1.8104   -3.2557   19.5327 C   0  0  0  0  0  0  0  0  0  0  0  0
    3.4102   -3.6926   17.8943 O   0  0  0  0  0  0  0  0  0  0  0  0
    4.7286   -1.1913   18.6089 O   0  0  0  0  0  0  0  0  0  0  0  0
    3.7521    0.6446   20.7093 Cl  0  0  0  0  0  0  0  0  0  0  0  0
   -0.1543   -2.9780   21.3585 Cl  0  0  0  0  0  0  0  0  0  0  0  0
    1.4512   -0.6503   21.6913 H   0  0  0  0  0  0  0  0  0  0  0  0
    1.3354   -4.1922   19.2533 H   0  0  0  0  0  0  0  0  0  0  0  0
    4.2413   -3.3992   17.5021 H   0  0  0  0  0  0  0  0  0  0  0  0
    5.0122   -1.7618   17.8869 H   0  0  0  0  0  0  0  0  0  0  0  0
  1  2  2  0  0  0  0
  1  6  1  0  0  0  0
  1  7  1  0  0  0  0
  2  3  1  0  0  0  0
  2  8  1  0  0  0  0
  3  4  2  0  0  0  0
  3  9  1  0  0  0  0
  4  5  1  0  0  0  0
  4 11  1  0  0  0  0
  5  6  2  0  0  0  0
  5 10  1  0  0  0  0
  6 12  1  0  0  0  0
  7 13  1  0  0  0  0
  8 14  1  0  0  0  0
M  END
$$$$
