36A
 OpenBabel04091914273D

 59 62  0  0  1  0  0  0  0  0999 V2000
    8.2342   -7.5464   45.6413 C   0  0  0  0  0  0  0  0  0  0  0  0
    7.0818   -7.6413   43.3506 N   0  3  0  0  0  0  0  0  0  0  0  0
    8.6702   -6.8720   46.5997 O   0  0  0  0  0  0  0  0  0  0  0  0
    7.1703    2.4745   37.2979 N   0  0  0  0  0  0  0  0  0  0  0  0
    7.9314    1.7714   38.1606 C   0  0  0  0  0  0  0  0  0  0  0  0
    7.5783    1.2465   39.3489 N   0  0  0  0  0  0  0  0  0  0  0  0
    6.2881    1.4917   39.6187 C   0  0  0  0  0  0  0  0  0  0  0  0
    5.3846    2.1958   38.8342 C   0  0  0  0  0  0  0  0  0  0  0  0
    5.8755    2.7256   37.6168 C   0  0  0  0  0  0  0  0  0  0  0  0
    5.1787    3.4920   36.7167 N   0  0  0  0  0  0  0  0  0  0  0  0
    4.1348    2.2250   39.4403 N   0  0  0  0  0  0  0  0  0  0  0  0
    4.2895    1.5306   40.5555 C   0  0  0  0  0  0  0  0  0  0  0  0
    5.5671    1.0975   40.7187 N   0  3  0  0  0  0  0  0  0  0  0  0
    7.5740   -6.7539   44.4852 C   0  0  1  0  0  0  0  0  0  0  0  0
    6.3949   -5.9143   44.9685 C   0  0  0  0  0  0  0  0  0  0  0  0
    4.5913   -2.8270   42.8088 C   0  0  0  0  0  0  0  0  0  0  0  0
    4.6116   -3.9048   44.2867 S   0  0  0  0  0  0  0  0  0  0  0  0
    6.1693   -4.7770   43.9797 C   0  0  0  0  0  0  0  0  0  0  0  0
    6.0818    0.2674   41.7911 C   0  0  1  0  0  0  0  0  0  0  0  0
    5.5458    0.5824   43.1919 C   0  0  2  0  0  0  0  0  0  0  0  0
    6.2499    1.6068   43.8888 O   0  0  0  0  0  0  0  0  0  0  0  0
    3.8414    3.9783   36.9427 C   0  0  0  0  0  0  0  0  0  0  0  0
    2.8127    3.1499   36.2138 C   0  0  0  0  0  0  0  0  0  0  0  0
    3.0634    2.6403   34.9310 C   0  0  0  0  0  0  0  0  0  0  0  0
    5.6646   -0.7588   43.9047 C   0  0  2  0  0  0  0  0  0  0  0  0
    6.8983   -0.8062   44.6324 O   0  0  0  0  0  0  0  0  0  0  0  0
    2.0908    1.9024   34.2636 C   0  0  0  0  0  0  0  0  0  0  0  0
    0.8493    1.6764   34.8520 C   0  0  0  0  0  0  0  0  0  0  0  0
    0.5807    2.1883   36.1218 C   0  0  0  0  0  0  0  0  0  0  0  0
    1.5549    2.9274   36.7955 C   0  0  0  0  0  0  0  0  0  0  0  0
    2.4377    1.2673   32.7024 Cl  0  0  0  0  0  0  0  0  0  0  0  0
    5.7160   -1.7945   42.7780 C   0  0  2  0  0  0  0  0  0  0  0  0
    5.6576   -1.0815   41.5285 O   0  0  0  0  0  0  0  0  0  0  0  0
    8.2486   -8.7893   45.3857 O   0  0  0  0  0  0  0  0  0  0  0  0
    6.6593   -7.1502   42.5650 H   0  0  0  0  0  0  0  0  0  0  0  0
    7.8824   -8.2175   43.0557 H   0  0  0  0  0  0  0  0  0  0  0  0
    8.9626    1.6157   37.8575 H   0  0  0  0  0  0  0  0  0  0  0  0
    5.6532    3.6821   35.8469 H   0  0  0  0  0  0  0  0  0  0  0  0
    3.4854    1.3218   41.2573 H   0  0  0  0  0  0  0  0  0  0  0  0
    8.3535   -6.1267   44.0365 H   0  0  0  0  0  0  0  0  0  0  0  0
    6.5939   -5.5001   45.9644 H   0  0  0  0  0  0  0  0  0  0  0  0
    5.5011   -6.5458   45.0644 H   0  0  0  0  0  0  0  0  0  0  0  0
    3.6203   -2.3218   42.7717 H   0  0  0  0  0  0  0  0  0  0  0  0
    4.6363   -3.4528   41.9091 H   0  0  0  0  0  0  0  0  0  0  0  0
    6.1208   -5.1673   42.9592 H   0  0  0  0  0  0  0  0  0  0  0  0
    7.0166   -4.0875   44.0404 H   0  0  0  0  0  0  0  0  0  0  0  0
    7.1767    0.3146   41.7709 H   0  0  0  0  0  0  0  0  0  0  0  0
    4.4902    0.8653   43.1591 H   0  0  0  0  0  0  0  0  0  0  0  0
    7.1762    1.3133   43.9891 H   0  0  0  0  0  0  0  0  0  0  0  0
    3.7758    5.0075   36.5731 H   0  0  0  0  0  0  0  0  0  0  0  0
    3.6045    4.0363   38.0082 H   0  0  0  0  0  0  0  0  0  0  0  0
    4.0259    2.8074   34.4559 H   0  0  0  0  0  0  0  0  0  0  0  0
    4.8391   -0.9155   44.6079 H   0  0  0  0  0  0  0  0  0  0  0  0
    6.8165   -0.1660   45.3655 H   0  0  0  0  0  0  0  0  0  0  0  0
    0.0897    1.1039   34.3283 H   0  0  0  0  0  0  0  0  0  0  0  0
   -0.3844    2.0106   36.5892 H   0  0  0  0  0  0  0  0  0  0  0  0
    1.3326    3.3230   37.7860 H   0  0  0  0  0  0  0  0  0  0  0  0
    6.6847   -2.3066   42.7800 H   0  0  0  0  0  0  0  0  0  0  0  0
    6.4399   -8.3303   43.7668 H   0  0  0  0  0  0  0  0  0  0  0  0
  1  3  2  0  0  0  0
  1 14  1  0  0  0  0
  1 34  1  0  0  0  0
  2 14  1  0  0  0  0
  2 35  1  0  0  0  0
  2 36  1  0  0  0  0
  2 59  1  0  0  0  0
  4  5  2  0  0  0  0
  4  9  1  0  0  0  0
  5  6  1  0  0  0  0
  5 37  1  0  0  0  0
  6  7  2  0  0  0  0
  7  8  1  0  0  0  0
  7 13  1  0  0  0  0
  8  9  2  0  0  0  0
  8 11  1  0  0  0  0
  9 10  1  0  0  0  0
 10 22  1  0  0  0  0
 10 38  1  0  0  0  0
 11 12  1  0  0  0  0
 12 13  2  0  0  0  0
 12 39  1  0  0  0  0
 13 19  1  0  0  0  0
 14 15  1  0  0  0  0
 14 40  1  6  0  0  0
 15 18  1  0  0  0  0
 15 41  1  0  0  0  0
 15 42  1  0  0  0  0
 16 17  1  0  0  0  0
 16 32  1  0  0  0  0
 16 43  1  0  0  0  0
 16 44  1  0  0  0  0
 17 18  1  0  0  0  0
 18 45  1  0  0  0  0
 18 46  1  0  0  0  0
 19 20  1  0  0  0  0
 19 33  1  0  0  0  0
 19 47  1  1  0  0  0
 20 21  1  0  0  0  0
 20 25  1  0  0  0  0
 20 48  1  6  0  0  0
 21 49  1  0  0  0  0
 22 23  1  0  0  0  0
 22 50  1  0  0  0  0
 22 51  1  0  0  0  0
 23 24  2  0  0  0  0
 23 30  1  0  0  0  0
 24 27  1  0  0  0  0
 24 52  1  0  0  0  0
 25 26  1  0  0  0  0
 25 32  1  0  0  0  0
 25 53  1  1  0  0  0
 26 54  1  0  0  0  0
 27 28  2  0  0  0  0
 27 31  1  0  0  0  0
 28 29  1  0  0  0  0
 28 55  1  0  0  0  0
 29 30  2  0  0  0  0
 29 56  1  0  0  0  0
 30 57  1  0  0  0  0
 32 33  1  0  0  0  0
 32 58  1  1  0  0  0
M  CHG  2   2   1  13   1
M  END
$$$$
