389
 OpenBabel04091912253D

 71 73  0  0  1  0  0  0  0  0999 V2000
   22.5212   49.1402   -7.5419 N   0  3  0  0  0  0  0  0  0  0  0  0
   22.9520   48.7011   -6.1783 C   0  0  1  0  0  0  0  0  0  0  0  0
   22.6827   49.8192   -5.1905 C   0  0  0  0  0  0  0  0  0  0  0  0
   22.2059   47.4290   -5.7914 C   0  0  0  0  0  0  0  0  0  0  0  0
   21.1517   47.1297   -6.3526 O   0  0  0  0  0  0  0  0  0  0  0  0
   22.8316   46.6692   -4.8502 N   0  0  0  0  0  0  0  0  0  0  0  0
   22.2424   45.4556   -4.2933 C   0  0  1  0  0  0  0  0  0  0  0  0
   22.9892   44.1884   -4.7613 C   0  0  0  0  0  0  0  0  0  0  0  0
   22.7022   43.8963   -6.2339 C   0  0  0  0  0  0  0  0  0  0  0  0
   24.4956   44.2916   -4.5212 C   0  0  0  0  0  0  0  0  0  0  0  0
   22.3032   45.5953   -2.7681 C   0  0  0  0  0  0  0  0  0  0  0  0
   23.1689   46.2971   -2.2301 O   0  0  0  0  0  0  0  0  0  0  0  0
   21.3917   44.8601   -2.0489 N   0  0  0  0  0  0  0  0  0  0  0  0
   21.4984   44.7928   -0.5966 C   0  0  1  0  0  0  0  0  0  0  0  0
   20.2288   44.0861   -0.1464 C   0  0  0  0  0  0  0  0  0  0  0  0
   19.7325   43.3277   -1.3758 C   0  0  0  0  0  0  0  0  0  0  0  0
   20.2642   44.1012   -2.5598 C   0  0  0  0  0  0  0  0  0  0  0  0
   22.7555   43.9859   -0.2212 C   0  0  0  0  0  0  0  0  0  0  0  0
   23.2450   43.1547   -0.9698 O   0  0  0  0  0  0  0  0  0  0  0  0
   24.5468   43.6241    1.3911 C   0  0  0  0  0  0  0  0  0  0  0  0
   23.2765   44.2396    1.0304 N   0  0  0  0  0  0  0  0  0  0  0  0
   24.9729   43.9115    2.8354 C   0  0  0  0  0  0  0  0  0  0  0  0
   26.1475   43.0082    3.1574 C   0  0  0  0  0  0  0  0  0  0  0  0
   27.4481   43.3148    2.7278 C   0  0  0  0  0  0  0  0  0  0  0  0
   28.4982   42.4548    3.0174 C   0  0  0  0  0  0  0  0  0  0  0  0
   28.2559   41.2813    3.7259 C   0  0  0  0  0  0  0  0  0  0  0  0
   26.9634   40.9573    4.1421 C   0  0  0  0  0  0  0  0  0  0  0  0
   25.9114   41.8162    3.8571 C   0  0  0  0  0  0  0  0  0  0  0  0
   25.2610   45.3626    3.1522 C   0  0  0  0  0  0  0  0  0  0  0  0
   25.4937   46.3287    2.1607 C   0  0  0  0  0  0  0  0  0  0  0  0
   25.7591   47.6480    2.5079 C   0  0  0  0  0  0  0  0  0  0  0  0
   25.8058   48.0192    3.8492 C   0  0  0  0  0  0  0  0  0  0  0  0
   25.5948   47.0636    4.8410 C   0  0  0  0  0  0  0  0  0  0  0  0
   25.3265   45.7464    4.4959 C   0  0  0  0  0  0  0  0  0  0  0  0
   22.6602   48.3644   -8.2092 H   0  0  0  0  0  0  0  0  0  0  0  0
   21.5062   49.3128   -7.5433 H   0  0  0  0  0  0  0  0  0  0  0  0
   24.0243   48.4925   -6.2459 H   0  0  0  0  0  0  0  0  0  0  0  0
   22.9968   49.5265   -4.1828 H   0  0  0  0  0  0  0  0  0  0  0  0
   21.6183   50.0697   -5.1445 H   0  0  0  0  0  0  0  0  0  0  0  0
   23.2367   50.7222   -5.4669 H   0  0  0  0  0  0  0  0  0  0  0  0
   23.6930   46.9705   -4.4020 H   0  0  0  0  0  0  0  0  0  0  0  0
   21.1918   45.4082   -4.6002 H   0  0  0  0  0  0  0  0  0  0  0  0
   22.6294   43.3289   -4.1828 H   0  0  0  0  0  0  0  0  0  0  0  0
   23.2284   42.9929   -6.5589 H   0  0  0  0  0  0  0  0  0  0  0  0
   23.0220   44.7217   -6.8784 H   0  0  0  0  0  0  0  0  0  0  0  0
   21.6311   43.7347   -6.3926 H   0  0  0  0  0  0  0  0  0  0  0  0
   24.7113   44.4927   -3.4682 H   0  0  0  0  0  0  0  0  0  0  0  0
   24.9442   45.0913   -5.1205 H   0  0  0  0  0  0  0  0  0  0  0  0
   24.9960   43.3534   -4.7862 H   0  0  0  0  0  0  0  0  0  0  0  0
   21.5751   45.8083   -0.1892 H   0  0  0  0  0  0  0  0  0  0  0  0
   19.4770   44.8242    0.1468 H   0  0  0  0  0  0  0  0  0  0  0  0
   20.3923   43.3985    0.6880 H   0  0  0  0  0  0  0  0  0  0  0  0
   18.6411   43.2592   -1.3955 H   0  0  0  0  0  0  0  0  0  0  0  0
   20.1425   42.3114   -1.3799 H   0  0  0  0  0  0  0  0  0  0  0  0
   20.5554   43.4298   -3.3762 H   0  0  0  0  0  0  0  0  0  0  0  0
   19.5176   44.8029   -2.9502 H   0  0  0  0  0  0  0  0  0  0  0  0
   25.3161   43.9597    0.6819 H   0  0  0  0  0  0  0  0  0  0  0  0
   24.4399   42.5450    1.2338 H   0  0  0  0  0  0  0  0  0  0  0  0
   22.8802   44.9474    1.6335 H   0  0  0  0  0  0  0  0  0  0  0  0
   24.1281   43.6248    3.4827 H   0  0  0  0  0  0  0  0  0  0  0  0
   27.6447   44.2291    2.1703 H   0  0  0  0  0  0  0  0  0  0  0  0
   29.5055   42.7037    2.6951 H   0  0  0  0  0  0  0  0  0  0  0  0
   29.0787   40.6090    3.9588 H   0  0  0  0  0  0  0  0  0  0  0  0
   26.7756   40.0414    4.6870 H   0  0  0  0  0  0  0  0  0  0  0  0
   24.9034   41.5587    4.1706 H   0  0  0  0  0  0  0  0  0  0  0  0
   25.4834   46.0732    1.1059 H   0  0  0  0  0  0  0  0  0  0  0  0
   25.9329   48.3895    1.7291 H   0  0  0  0  0  0  0  0  0  0  0  0
   26.0170   49.0516    4.1226 H   0  0  0  0  0  0  0  0  0  0  0  0
   25.6430   47.3506    5.8852 H   0  0  0  0  0  0  0  0  0  0  0  0
   25.1848   45.0059    5.2833 H   0  0  0  0  0  0  0  0  0  0  0  0
   23.0206   49.9654   -7.8692 H   0  0  0  0  0  0  0  0  0  0  0  0
  1  2  1  0  0  0  0
  1 35  1  0  0  0  0
  1 36  1  0  0  0  0
  1 71  1  0  0  0  0
  2  3  1  0  0  0  0
  2  4  1  0  0  0  0
  2 37  1  6  0  0  0
  3 38  1  0  0  0  0
  3 39  1  0  0  0  0
  3 40  1  0  0  0  0
  4  5  2  0  0  0  0
  4  6  1  0  0  0  0
  6  7  1  0  0  0  0
  6 41  1  0  0  0  0
  7  8  1  0  0  0  0
  7 11  1  0  0  0  0
  7 42  1  6  0  0  0
  8  9  1  0  0  0  0
  8 10  1  0  0  0  0
  8 43  1  0  0  0  0
  9 44  1  0  0  0  0
  9 45  1  0  0  0  0
  9 46  1  0  0  0  0
 10 47  1  0  0  0  0
 10 48  1  0  0  0  0
 10 49  1  0  0  0  0
 11 12  2  0  0  0  0
 11 13  1  0  0  0  0
 13 14  1  0  0  0  0
 13 17  1  0  0  0  0
 14 15  1  0  0  0  0
 14 18  1  0  0  0  0
 14 50  1  1  0  0  0
 15 16  1  0  0  0  0
 15 51  1  0  0  0  0
 15 52  1  0  0  0  0
 16 17  1  0  0  0  0
 16 53  1  0  0  0  0
 16 54  1  0  0  0  0
 17 55  1  0  0  0  0
 17 56  1  0  0  0  0
 18 19  2  0  0  0  0
 18 21  1  0  0  0  0
 20 21  1  0  0  0  0
 20 22  1  0  0  0  0
 20 57  1  0  0  0  0
 20 58  1  0  0  0  0
 21 59  1  0  0  0  0
 22 23  1  0  0  0  0
 22 29  1  0  0  0  0
 22 60  1  0  0  0  0
 23 24  2  0  0  0  0
 23 28  1  0  0  0  0
 24 25  1  0  0  0  0
 24 61  1  0  0  0  0
 25 26  2  0  0  0  0
 25 62  1  0  0  0  0
 26 27  1  0  0  0  0
 26 63  1  0  0  0  0
 27 28  2  0  0  0  0
 27 64  1  0  0  0  0
 28 65  1  0  0  0  0
 29 30  2  0  0  0  0
 29 34  1  0  0  0  0
 30 31  1  0  0  0  0
 30 66  1  0  0  0  0
 31 32  2  0  0  0  0
 31 67  1  0  0  0  0
 32 33  1  0  0  0  0
 32 68  1  0  0  0  0
 33 34  2  0  0  0  0
 33 69  1  0  0  0  0
 34 70  1  0  0  0  0
M  CHG  1   1   1
M  END
$$$$
