3B4
 OpenBabel04091910573D

 32 33  0  0  0  0  0  0  0  0999 V2000
   41.7830    0.0534   92.8997 C   0  0  0  0  0  0  0  0  0  0  0  0
   42.2440   -1.3928   92.8000 C   0  0  0  0  0  0  0  0  0  0  0  0
   41.1163   -2.2861   92.3053 C   0  0  0  0  0  0  0  0  0  0  0  0
   40.5074   -1.8047   91.0020 C   0  0  0  0  0  0  0  0  0  0  0  0
   40.2261   -0.3041   90.9853 C   0  0  0  0  0  0  0  0  0  0  0  0
   41.3669    0.5718   91.5309 C   0  0  0  0  0  0  0  0  0  0  0  0
   40.9140    1.9531   91.5714 N   0  0  0  0  0  0  0  0  0  0  0  0
   41.5343    2.9300   92.3535 C   0  0  0  0  0  0  0  0  0  0  0  0
   42.8780    3.1587   92.0174 C   0  0  0  0  0  0  0  0  0  0  0  0
   43.6244    4.1259   92.6993 C   0  0  0  0  0  0  0  0  0  0  0  0
   43.0369    4.8185   93.7600 C   0  0  0  0  0  0  0  0  0  0  0  0
   41.7305    4.6016   94.1092 C   0  0  0  0  0  0  0  0  0  0  0  0
   40.9497    3.6240   93.4267 C   0  0  0  0  0  0  0  0  0  0  0  0
   39.5125    3.3995   93.8745 C   0  0  0  0  0  0  0  0  0  0  0  0
   39.1795    3.8875   94.9874 O   0  0  0  0  0  0  0  0  0  0  0  0
   38.7457    2.7595   93.0895 O   0  0  0  0  0  0  0  0  0  0  0  0
   42.5998    0.6564   93.3100 H   0  0  0  0  0  0  0  0  0  0  0  0
   40.9342    0.1281   93.5872 H   0  0  0  0  0  0  0  0  0  0  0  0
   42.5810   -1.7290   93.7770 H   0  0  0  0  0  0  0  0  0  0  0  0
   43.1000   -1.4573   92.1085 H   0  0  0  0  0  0  0  0  0  0  0  0
   40.3271   -2.3208   93.0666 H   0  0  0  0  0  0  0  0  0  0  0  0
   41.4890   -3.3072   92.1666 H   0  0  0  0  0  0  0  0  0  0  0  0
   39.5744   -2.3533   90.8318 H   0  0  0  0  0  0  0  0  0  0  0  0
   41.1820   -2.0598   90.1786 H   0  0  0  0  0  0  0  0  0  0  0  0
   39.3269   -0.1224   91.5926 H   0  0  0  0  0  0  0  0  0  0  0  0
   39.9898    0.0021   89.9638 H   0  0  0  0  0  0  0  0  0  0  0  0
   42.2357    0.5228   90.8615 H   0  0  0  0  0  0  0  0  0  0  0  0
   39.9475    2.1857   91.3392 H   0  0  0  0  0  0  0  0  0  0  0  0
   43.3205    2.6250   91.1953 H   0  0  0  0  0  0  0  0  0  0  0  0
   44.6275    4.3238   92.3769 H   0  0  0  0  0  0  0  0  0  0  0  0
   43.6455    5.5705   94.2781 H   0  0  0  0  0  0  0  0  0  0  0  0
   41.2799    5.1672   94.9117 H   0  0  0  0  0  0  0  0  0  0  0  0
  1  2  1  0  0  0  0
  1  6  1  0  0  0  0
  1 17  1  0  0  0  0
  1 18  1  0  0  0  0
  2  3  1  0  0  0  0
  2 19  1  0  0  0  0
  2 20  1  0  0  0  0
  3  4  1  0  0  0  0
  3 21  1  0  0  0  0
  3 22  1  0  0  0  0
  4  5  1  0  0  0  0
  4 23  1  0  0  0  0
  4 24  1  0  0  0  0
  5  6  1  0  0  0  0
  5 25  1  0  0  0  0
  5 26  1  0  0  0  0
  6  7  1  0  0  0  0
  6 27  1  0  0  0  0
  7  8  1  0  0  0  0
  7 28  1  0  0  0  0
  8  9  2  0  0  0  0
  8 13  1  0  0  0  0
  9 10  1  0  0  0  0
  9 29  1  0  0  0  0
 10 11  2  0  0  0  0
 10 30  1  0  0  0  0
 11 12  1  0  0  0  0
 11 31  1  0  0  0  0
 12 13  2  0  0  0  0
 12 32  1  0  0  0  0
 13 14  1  0  0  0  0
 14 15  2  0  0  0  0
 14 16  1  0  0  0  0
M  END
$$$$
