3B6
 OpenBabel04091910583D

 39 40  0  0  1  0  0  0  0  0999 V2000
   26.1898    3.3914    3.9228 C   0  0  0  0  0  0  0  0  0  0  0  0
   25.2277    4.3787    3.8604 C   0  0  0  0  0  0  0  0  0  0  0  0
   23.2200    3.8588    4.1651 I   0  0  0  0  0  0  0  0  0  0  0  0
   25.6136    5.6887    3.6011 C   0  0  0  0  0  0  0  0  0  0  0  0
   24.6624    6.7297    3.5092 C   0  0  0  0  0  0  0  0  0  0  0  0
   23.8894    7.5934    3.4240 N   0  0  0  0  0  0  0  0  0  0  0  0
   26.9604    6.0143    3.4213 C   0  0  0  0  0  0  0  0  0  0  0  0
   27.9203    5.0358    3.4849 C   0  0  0  0  0  0  0  0  0  0  0  0
   27.5316    3.7256    3.7322 C   0  0  0  0  0  0  0  0  0  0  0  0
   28.5519    2.7951    3.7689 N   0  0  0  0  0  0  0  0  0  0  0  0
   28.4038    1.4454    3.9815 C   0  0  0  0  0  0  0  0  0  0  0  0
   27.3366    0.8711    4.1909 O   0  0  0  0  0  0  0  0  0  0  0  0
   29.7291    0.7049    3.9599 C   0  0  2  0  0  0  0  0  0  0  0  0
   30.7653    1.5847    3.5010 O   0  0  0  0  0  0  0  0  0  0  0  0
   29.5988   -0.4898    3.0285 C   0  0  0  0  0  0  0  0  0  0  0  0
   30.0145    0.2190    5.3774 C   0  0  0  0  0  0  0  0  0  0  0  0
   30.1272    1.3537    6.2518 O   0  0  0  0  0  0  0  0  0  0  0  0
   29.8735    1.0580    7.5619 C   0  0  0  0  0  0  0  0  0  0  0  0
   30.2337   -0.1576    8.1394 C   0  0  0  0  0  0  0  0  0  0  0  0
   29.9966   -0.3908    9.4896 C   0  0  0  0  0  0  0  0  0  0  0  0
   29.4052    0.6000   10.2750 C   0  0  0  0  0  0  0  0  0  0  0  0
   29.2136    0.3871   11.6576 C   0  0  0  0  0  0  0  0  0  0  0  0
   29.0700    0.2210   12.8032 N   0  0  0  0  0  0  0  0  0  0  0  0
   29.0261    1.8145    9.6940 C   0  0  0  0  0  0  0  0  0  0  0  0
   29.2712    2.0444    8.3404 C   0  0  0  0  0  0  0  0  0  0  0  0
   25.9010    2.3685    4.1171 H   0  0  0  0  0  0  0  0  0  0  0  0
   27.2487    7.0399    3.2270 H   0  0  0  0  0  0  0  0  0  0  0  0
   28.9699    5.2765    3.3396 H   0  0  0  0  0  0  0  0  0  0  0  0
   29.5099    3.1212    3.6186 H   0  0  0  0  0  0  0  0  0  0  0  0
   31.6006    1.0837    3.5080 H   0  0  0  0  0  0  0  0  0  0  0  0
   30.5377   -1.0550    3.0073 H   0  0  0  0  0  0  0  0  0  0  0  0
   29.3727   -0.1599    2.0082 H   0  0  0  0  0  0  0  0  0  0  0  0
   28.7956   -1.1597    3.3640 H   0  0  0  0  0  0  0  0  0  0  0  0
   30.9656   -0.3329    5.3750 H   0  0  0  0  0  0  0  0  0  0  0  0
   29.2057   -0.4435    5.7077 H   0  0  0  0  0  0  0  0  0  0  0  0
   30.7052   -0.9267    7.5423 H   0  0  0  0  0  0  0  0  0  0  0  0
   30.2846   -1.3394    9.9327 H   0  0  0  0  0  0  0  0  0  0  0  0
   28.5598    2.5828   10.3049 H   0  0  0  0  0  0  0  0  0  0  0  0
   28.9793    2.9937    7.8988 H   0  0  0  0  0  0  0  0  0  0  0  0
  1  2  2  0  0  0  0
  1  9  1  0  0  0  0
  1 26  1  0  0  0  0
  2  3  1  0  0  0  0
  2  4  1  0  0  0  0
  4  5  1  0  0  0  0
  4  7  2  0  0  0  0
  5  6  3  0  0  0  0
  7  8  1  0  0  0  0
  7 27  1  0  0  0  0
  8  9  2  0  0  0  0
  8 28  1  0  0  0  0
  9 10  1  0  0  0  0
 10 11  1  0  0  0  0
 10 29  1  0  0  0  0
 11 12  2  0  0  0  0
 13 11  1  1  0  0  0
 13 14  1  0  0  0  0
 13 15  1  0  0  0  0
 13 16  1  0  0  0  0
 14 30  1  0  0  0  0
 15 31  1  0  0  0  0
 15 32  1  0  0  0  0
 15 33  1  0  0  0  0
 16 17  1  0  0  0  0
 16 34  1  0  0  0  0
 16 35  1  0  0  0  0
 17 18  1  0  0  0  0
 18 19  2  0  0  0  0
 18 25  1  0  0  0  0
 19 20  1  0  0  0  0
 19 36  1  0  0  0  0
 20 21  2  0  0  0  0
 20 37  1  0  0  0  0
 21 22  1  0  0  0  0
 21 24  1  0  0  0  0
 22 23  3  0  0  0  0
 24 25  2  0  0  0  0
 24 38  1  0  0  0  0
 25 39  1  0  0  0  0
M  END
$$$$
