3CU
 OpenBabel04091911183D

 30 31  0  0  1  0  0  0  0  0999 V2000
    1.2059  -15.9142   23.4938 O   0  0  0  0  0  0  0  0  0  0  0  0
    0.8232  -16.3984   22.2172 C   0  0  1  0  0  0  0  0  0  0  0  0
    0.9649  -15.2853   21.1759 C   0  0  2  0  0  0  0  0  0  0  0  0
   -0.1161  -15.2853   20.0904 C   0  0  1  0  0  0  0  0  0  0  0  0
   -1.1964  -14.4218   20.3916 O   0  0  0  0  0  0  0  0  0  0  0  0
    0.6807  -14.7774   18.8862 C   0  0  2  0  0  0  0  0  0  0  0  0
   -0.0025  -14.9419   17.6721 O   0  0  0  0  0  0  0  0  0  0  0  0
    1.8793  -15.6968   18.9773 C   0  0  1  0  0  0  0  0  0  0  0  0
    3.0525  -15.2708   18.1058 C   0  0  0  0  0  0  0  0  0  0  0  0
    3.3982  -13.9220   18.4317 O   0  0  0  0  0  0  0  0  0  0  0  0
    2.2627  -15.5834   20.4282 N   0  3  2  0  0  0  0  0  0  0  0  0
    2.8907  -16.8360   20.9883 C   0  0  0  0  0  0  0  0  0  0  0  0
    1.7587  -17.5135   21.7513 C   0  0  2  0  0  0  0  0  0  0  0  0
    1.0699  -18.3780   20.8507 O   0  0  0  0  0  0  0  0  0  0  0  0
    2.1189  -15.5651   23.4800 H   0  0  0  0  0  0  0  0  0  0  0  0
   -0.2164  -16.7458   22.2783 H   0  0  0  0  0  0  0  0  0  0  0  0
    1.0557  -14.2924   21.6390 H   0  0  0  0  0  0  0  0  0  0  0  0
   -0.5175  -16.3065   19.8864 H   0  0  0  0  0  0  0  0  0  0  0  0
   -1.6779  -14.7509   21.1817 H   0  0  0  0  0  0  0  0  0  0  0  0
    0.9131  -13.7149   19.0314 H   0  0  0  0  0  0  0  0  0  0  0  0
    0.5283  -14.5604   16.9413 H   0  0  0  0  0  0  0  0  0  0  0  0
    1.5971  -16.7244   18.7584 H   0  0  0  0  0  0  0  0  0  0  0  0
    2.8054  -15.3650   17.0335 H   0  0  0  0  0  0  0  0  0  0  0  0
    3.9239  -15.8932   18.3052 H   0  0  0  0  0  0  0  0  0  0  0  0
    2.7081  -13.3213   18.1004 H   0  0  0  0  0  0  0  0  0  0  0  0
    3.7148  -16.5250   21.6243 H   0  0  0  0  0  0  0  0  0  0  0  0
    3.2540  -17.4336   20.1485 H   0  0  0  0  0  0  0  0  0  0  0  0
    2.1769  -18.0998   22.5796 H   0  0  0  0  0  0  0  0  0  0  0  0
    0.4091  -18.8847   21.3660 H   0  0  0  0  0  0  0  0  0  0  0  0
    2.9406  -14.7667   20.5107 H   0  0  0  0  0  0  0  0  0  0  0  0
  1  2  1  0  0  0  0
  1 15  1  0  0  0  0
  2  3  1  0  0  0  0
  2 13  1  0  0  0  0
  2 16  1  1  0  0  0
  3  4  1  0  0  0  0
  3 11  1  0  0  0  0
  3 17  1  1  0  0  0
  4  5  1  0  0  0  0
  4  6  1  0  0  0  0
  4 18  1  6  0  0  0
  5 19  1  0  0  0  0
  6  7  1  0  0  0  0
  6  8  1  0  0  0  0
  6 20  1  1  0  0  0
  7 21  1  0  0  0  0
  8  9  1  0  0  0  0
  8 11  1  0  0  0  0
  8 22  1  6  0  0  0
  9 10  1  0  0  0  0
  9 23  1  0  0  0  0
  9 24  1  0  0  0  0
 10 25  1  0  0  0  0
 11 12  1  0  0  0  0
 11 30  1  1  0  0  0
 12 13  1  0  0  0  0
 12 26  1  0  0  0  0
 12 27  1  0  0  0  0
 13 14  1  0  0  0  0
 13 28  1  1  0  0  0
 14 29  1  0  0  0  0
M  CHG  1  11   1
M  END
$$$$
