3EK
 OpenBabel04091913263D

 58 61  0  0  1  0  0  0  0  0999 V2000
   45.7348   16.9747   16.8510 C   0  0  2  0  0  0  0  0  0  0  0  0
   46.1718   15.5405   16.5274 C   0  0  0  0  0  0  0  0  0  0  0  0
   46.5895   15.4294   15.0739 C   0  0  0  0  0  0  0  0  0  0  0  0
   47.7669   16.3612   14.8169 C   0  0  2  0  0  0  0  0  0  0  0  0
   47.3786   17.8112   15.0803 C   0  0  0  0  0  0  0  0  0  0  0  0
   46.8217   18.0008   16.4842 C   0  0  0  0  0  0  0  0  0  0  0  0
   45.3064   17.0322   18.3220 C   0  0  0  0  0  0  0  0  0  0  0  0
   45.4343   18.3307   18.9323 N   0  3  0  0  0  0  0  0  0  0  0  0
   44.5744   19.3164   18.6491 N   0  0  0  0  0  0  0  0  0  0  0  0
   45.1188   20.3465   19.3134 C   0  0  0  0  0  0  0  0  0  0  0  0
   46.2459   20.0257   20.0322 N   0  0  0  0  0  0  0  0  0  0  0  0
   46.4195   18.7541   19.7644 C   0  0  0  0  0  0  0  0  0  0  0  0
   44.5647   21.6828   19.2842 C   0  0  0  0  0  0  0  0  0  0  0  0
   43.2540   21.8810   18.8499 C   0  0  0  0  0  0  0  0  0  0  0  0
   42.7555   23.1712   18.7796 C   0  0  0  0  0  0  0  0  0  0  0  0
   43.4781   24.2550   19.1264 N   0  0  0  0  0  0  0  0  0  0  0  0
   44.7467   24.0256   19.5685 C   0  0  0  0  0  0  0  0  0  0  0  0
   45.3307   22.7774   19.6629 C   0  0  0  0  0  0  0  0  0  0  0  0
   41.3585   23.3957   18.3029 C   0  0  0  0  0  0  0  0  0  0  0  0
   45.5327   25.2395   19.9268 C   0  0  0  0  0  0  0  0  0  0  0  0
   46.6799   25.1611   20.3501 O   0  0  0  0  0  0  0  0  0  0  0  0
   44.8690   26.4223   19.6855 N   0  0  0  0  0  0  0  0  0  0  0  0
   45.5008   27.7062   19.8067 C   0  0  0  0  0  0  0  0  0  0  0  0
   46.5785   27.9914   18.7881 C   0  0  0  0  0  0  0  0  0  0  0  0
   47.3349   29.1629   18.9481 C   0  0  0  0  0  0  0  0  0  0  0  0
   48.3545   29.4696   18.0516 C   0  0  0  0  0  0  0  0  0  0  0  0
   48.6226   28.6100   16.9977 C   0  0  0  0  0  0  0  0  0  0  0  0
   47.8830   27.4548   16.8090 C   0  0  0  0  0  0  0  0  0  0  0  0
   46.8575   27.1456   17.7021 C   0  0  0  0  0  0  0  0  0  0  0  0
   48.1926   16.2555   13.3555 C   0  0  0  0  0  0  0  0  0  0  0  0
   49.4370   16.0940   13.1976 O   0  0  0  0  0  0  0  0  0  0  0  0
   49.6105   28.9104   16.1367 F   0  0  0  0  0  0  0  0  0  0  0  0
   47.2697   16.3393   12.4905 O   0  0  0  0  0  0  0  0  0  0  0  0
   44.8540   17.2059   16.2357 H   0  0  0  0  0  0  0  0  0  0  0  0
   45.3557   14.8422   16.7347 H   0  0  0  0  0  0  0  0  0  0  0  0
   47.0194   15.2521   17.1649 H   0  0  0  0  0  0  0  0  0  0  0  0
   45.7356   15.6934   14.4332 H   0  0  0  0  0  0  0  0  0  0  0  0
   46.8619   14.3964   14.8350 H   0  0  0  0  0  0  0  0  0  0  0  0
   48.5978   16.0818   15.4815 H   0  0  0  0  0  0  0  0  0  0  0  0
   46.6271   18.1437   14.3529 H   0  0  0  0  0  0  0  0  0  0  0  0
   48.2513   18.4625   14.9501 H   0  0  0  0  0  0  0  0  0  0  0  0
   47.6478   17.9498   17.2033 H   0  0  0  0  0  0  0  0  0  0  0  0
   46.4007   19.0124   16.5409 H   0  0  0  0  0  0  0  0  0  0  0  0
   45.8951   16.3386   18.9338 H   0  0  0  0  0  0  0  0  0  0  0  0
   44.2569   16.7266   18.4099 H   0  0  0  0  0  0  0  0  0  0  0  0
   47.2241   18.1206   20.1092 H   0  0  0  0  0  0  0  0  0  0  0  0
   42.6336   21.0357   18.5649 H   0  0  0  0  0  0  0  0  0  0  0  0
   46.3566   22.6646   19.9991 H   0  0  0  0  0  0  0  0  0  0  0  0
   41.1258   24.4641   18.2974 H   0  0  0  0  0  0  0  0  0  0  0  0
   40.6585   22.8868   18.9715 H   0  0  0  0  0  0  0  0  0  0  0  0
   41.2470   23.0064   17.2867 H   0  0  0  0  0  0  0  0  0  0  0  0
   43.9018   26.3484   19.3816 H   0  0  0  0  0  0  0  0  0  0  0  0
   45.9270   27.7746   20.8125 H   0  0  0  0  0  0  0  0  0  0  0  0
   44.7154   28.4607   19.6899 H   0  0  0  0  0  0  0  0  0  0  0  0
   47.1317   29.8314   19.7813 H   0  0  0  0  0  0  0  0  0  0  0  0
   48.9500   30.3694   18.1838 H   0  0  0  0  0  0  0  0  0  0  0  0
   48.1082   26.7857   15.9837 H   0  0  0  0  0  0  0  0  0  0  0  0
   46.2955   26.2278   17.5504 H   0  0  0  0  0  0  0  0  0  0  0  0
  1  2  1  0  0  0  0
  1  6  1  0  0  0  0
  1  7  1  0  0  0  0
  1 34  1  6  0  0  0
  2  3  1  0  0  0  0
  2 35  1  0  0  0  0
  2 36  1  0  0  0  0
  3  4  1  0  0  0  0
  3 37  1  0  0  0  0
  3 38  1  0  0  0  0
  4  5  1  0  0  0  0
  4 30  1  0  0  0  0
  4 39  1  1  0  0  0
  5  6  1  0  0  0  0
  5 40  1  0  0  0  0
  5 41  1  0  0  0  0
  6 42  1  0  0  0  0
  6 43  1  0  0  0  0
  7  8  1  0  0  0  0
  7 44  1  0  0  0  0
  7 45  1  0  0  0  0
  8  9  1  0  0  0  0
  8 12  2  0  0  0  0
  9 10  1  0  0  0  0
 10 11  2  0  0  0  0
 10 13  1  0  0  0  0
 11 12  1  0  0  0  0
 12 46  1  0  0  0  0
 13 14  2  0  0  0  0
 13 18  1  0  0  0  0
 14 15  1  0  0  0  0
 14 47  1  0  0  0  0
 15 16  2  0  0  0  0
 15 19  1  0  0  0  0
 16 17  1  0  0  0  0
 17 18  2  0  0  0  0
 17 20  1  0  0  0  0
 18 48  1  0  0  0  0
 19 49  1  0  0  0  0
 19 50  1  0  0  0  0
 19 51  1  0  0  0  0
 20 21  2  0  0  0  0
 20 22  1  0  0  0  0
 22 23  1  0  0  0  0
 22 52  1  0  0  0  0
 23 24  1  0  0  0  0
 23 53  1  0  0  0  0
 23 54  1  0  0  0  0
 24 25  2  0  0  0  0
 24 29  1  0  0  0  0
 25 26  1  0  0  0  0
 25 55  1  0  0  0  0
 26 27  2  0  0  0  0
 26 56  1  0  0  0  0
 27 28  1  0  0  0  0
 27 32  1  0  0  0  0
 28 29  2  0  0  0  0
 28 57  1  0  0  0  0
 29 58  1  0  0  0  0
 30 31  2  0  0  0  0
 30 33  1  0  0  0  0
M  CHG  1   8   1
M  END
$$$$
