3G3
 OpenBabel04091912403D

 26 28  0  0  0  0  0  0  0  0999 V2000
   -7.7755   53.9814   13.2509 O   0  0  0  0  0  0  0  0  0  0  0  0
   -7.3466   53.1368   12.4992 C   0  0  0  0  0  0  0  0  0  0  0  0
   -7.9801   52.8097   11.2245 C   0  0  0  0  0  0  0  0  0  0  0  0
   -9.1355   53.3154   10.6434 C   0  0  0  0  0  0  0  0  0  0  0  0
   -9.5374   52.7814    9.4162 C   0  0  0  0  0  0  0  0  0  0  0  0
   -8.7818   51.7576    8.8075 C   0  0  0  0  0  0  0  0  0  0  0  0
   -7.6189   51.2589    9.4189 C   0  0  0  0  0  0  0  0  0  0  0  0
   -7.2374   51.8130   10.6309 C   0  0  0  0  0  0  0  0  0  0  0  0
   -6.2450   52.3308   12.6248 N   0  0  0  0  0  0  0  0  0  0  0  0
   -6.1221   51.5228   11.5400 C   0  0  0  0  0  0  0  0  0  0  0  0
   -5.2992   50.6484   11.3277 O   0  0  0  0  0  0  0  0  0  0  0  0
   -5.2883   52.4167   13.7277 C   0  0  0  0  0  0  0  0  0  0  0  0
   -4.4972   53.7262   13.7029 C   0  0  0  0  0  0  0  0  0  0  0  0
   -3.2393   53.5798   12.9273 C   0  0  0  0  0  0  0  0  0  0  0  0
   -2.0622   53.2458   13.4987 N   0  0  0  0  0  0  0  0  0  0  0  0
   -1.1972   53.1866   12.4572 N   0  0  0  0  0  0  0  0  0  0  0  0
   -1.8532   53.4826   11.3090 N   0  0  0  0  0  0  0  0  0  0  0  0
   -3.1594   53.7346   11.5900 N   0  0  0  0  0  0  0  0  0  0  0  0
   -9.7095   54.0988   11.1272 H   0  0  0  0  0  0  0  0  0  0  0  0
  -10.4302   53.1597    8.9241 H   0  0  0  0  0  0  0  0  0  0  0  0
   -9.1047   51.3568    7.8484 H   0  0  0  0  0  0  0  0  0  0  0  0
   -7.0371   50.4727    8.9521 H   0  0  0  0  0  0  0  0  0  0  0  0
   -4.6123   51.5542   13.7085 H   0  0  0  0  0  0  0  0  0  0  0  0
   -5.8607   52.3565   14.6700 H   0  0  0  0  0  0  0  0  0  0  0  0
   -4.2563   54.0306   14.7308 H   0  0  0  0  0  0  0  0  0  0  0  0
   -5.1098   54.5310   13.2815 H   0  0  0  0  0  0  0  0  0  0  0  0
  1  2  2  0  0  0  0
  2  3  1  0  0  0  0
  2  9  1  0  0  0  0
  3  4  2  0  0  0  0
  3  8  1  0  0  0  0
  4  5  1  0  0  0  0
  4 19  1  0  0  0  0
  5  6  2  0  0  0  0
  5 20  1  0  0  0  0
  6  7  1  0  0  0  0
  6 21  1  0  0  0  0
  7  8  2  0  0  0  0
  7 22  1  0  0  0  0
  8 10  1  0  0  0  0
  9 10  1  0  0  0  0
  9 12  1  0  0  0  0
 10 11  2  0  0  0  0
 12 13  1  0  0  0  0
 12 23  1  0  0  0  0
 12 24  1  0  0  0  0
 13 14  1  0  0  0  0
 13 25  1  0  0  0  0
 13 26  1  0  0  0  0
 14 15  1  0  0  0  0
 14 18  2  0  0  0  0
 15 16  1  0  0  0  0
 16 17  2  0  0  0  0
 17 18  1  0  0  0  0
M  END
$$$$
