3HI
 OpenBabel04091911113D

 76 79  0  0  1  0  0  0  0  0999 V2000
   32.8799   -7.2575  -12.1150 N   0  3  2  0  0  0  0  0  0  0  0  0
   33.1117   -5.9841  -12.6224 C   0  0  1  0  0  0  0  0  0  0  0  0
   34.0906   -9.5543  -12.2180 C   0  0  0  0  0  0  0  0  0  0  0  0
   31.7473   -7.5850  -11.2476 C   0  0  0  0  0  0  0  0  0  0  0  0
   32.0358   -7.3534   -9.7764 C   0  0  0  0  0  0  0  0  0  0  0  0
   31.1137   -6.9101   -7.5119 C   0  0  0  0  0  0  0  0  0  0  0  0
   32.9122  -10.4140  -12.6532 C   0  0  0  0  0  0  0  0  0  0  0  0
   30.7102   -3.1350  -13.0799 C   0  0  0  0  0  0  0  0  0  0  0  0
   38.3572   -8.9423  -15.4527 C   0  0  0  0  0  0  0  0  0  0  0  0
   39.5685   -9.1394  -16.1232 C   0  0  0  0  0  0  0  0  0  0  0  0
   32.6030   -4.0105  -11.2276 C   0  0  0  0  0  0  0  0  0  0  0  0
   36.0155   -2.7421  -13.9428 C   0  0  0  0  0  0  0  0  0  0  0  0
   31.9502   -2.7969  -11.0295 C   0  0  0  0  0  0  0  0  0  0  0  0
   37.7853   -7.2004  -17.0054 C   0  0  1  0  0  0  0  0  0  0  0  0
   35.8385   -2.6162  -15.3230 C   0  0  0  0  0  0  0  0  0  0  0  0
   33.3642   -3.2589   -6.7651 O   0  0  0  0  0  0  0  0  0  0  0  0
   32.2903   -3.5247   -6.1530 C   0  0  0  0  0  0  0  0  0  0  0  0
   31.5356   -2.7728   -5.4780 O   0  0  0  0  0  0  0  0  0  0  0  0
   31.8877   -4.9925   -6.1596 C   0  0  0  0  0  0  0  0  0  0  0  0
   31.2783   -5.3856   -7.4920 C   0  0  2  0  0  0  0  0  0  0  0  0
   29.9768   -4.8371   -7.7075 O   0  0  0  0  0  0  0  0  0  0  0  0
   30.7885   -7.4527   -8.9002 C   0  0  2  0  0  0  0  0  0  0  0  0
   30.4147   -8.8267   -8.7326 O   0  0  0  0  0  0  0  0  0  0  0  0
   32.3058   -4.7958  -12.3477 C   0  0  1  0  0  0  0  0  0  0  0  0
   31.0067   -2.3657  -11.9584 C   0  0  1  0  0  0  0  0  0  0  0  0
   30.3841   -1.1976  -11.7887 F   0  0  0  0  0  0  0  0  0  0  0  0
   31.3603   -4.3516  -13.2801 C   0  0  0  0  0  0  0  0  0  0  0  0
   33.9003   -8.0952  -12.5516 C   0  0  2  0  0  0  0  0  0  0  0  0
   34.5051   -9.7662  -10.7733 C   0  0  0  0  0  0  0  0  0  0  0  0
   34.7815   -7.3506  -13.3343 C   0  0  1  0  0  0  0  0  0  0  0  0
   34.2886   -6.0234  -13.3548 C   0  0  2  0  0  0  0  0  0  0  0  0
   34.8559   -4.8582  -13.9904 C   0  0  0  0  0  0  0  0  0  0  0  0
   35.5267   -3.8686  -13.2763 C   0  0  0  0  0  0  0  0  0  0  0  0
   35.1719   -3.6075  -16.0375 C   0  0  0  0  0  0  0  0  0  0  0  0
   34.6698   -4.7211  -15.3746 C   0  0  0  0  0  0  0  0  0  0  0  0
   36.0376   -7.8596  -13.8680 C   0  0  0  0  0  0  0  0  0  0  0  0
   36.8739   -8.3491  -13.0900 O   0  0  0  0  0  0  0  0  0  0  0  0
   36.2244   -7.7479  -15.2351 N   0  0  0  0  0  0  0  0  0  0  0  0
   37.4500   -7.9863  -15.8972 C   0  0  2  0  0  0  0  0  0  0  0  0
   36.9217   -6.2270  -17.4366 O   0  0  0  0  0  0  0  0  0  0  0  0
   39.0091   -7.3723  -17.6611 C   0  0  0  0  0  0  0  0  0  0  0  0
   39.8977   -8.3546  -17.2212 C   0  0  0  0  0  0  0  0  0  0  0  0
   34.9348   -9.9240  -12.8177 H   0  0  0  0  0  0  0  0  0  0  0  0
   31.4403   -8.6114  -11.3983 H   0  0  0  0  0  0  0  0  0  0  0  0
   30.8891   -6.9881  -11.5790 H   0  0  0  0  0  0  0  0  0  0  0  0
   32.5145   -6.3823   -9.6736 H   0  0  0  0  0  0  0  0  0  0  0  0
   32.7602   -8.0737   -9.4006 H   0  0  0  0  0  0  0  0  0  0  0  0
   30.3136   -7.2055   -6.8200 H   0  0  0  0  0  0  0  0  0  0  0  0
   32.0280   -7.3978   -7.1497 H   0  0  0  0  0  0  0  0  0  0  0  0
   33.1121  -11.4675  -12.4580 H   0  0  0  0  0  0  0  0  0  0  0  0
   32.7167  -10.2728  -13.7203 H   0  0  0  0  0  0  0  0  0  0  0  0
   31.9982  -10.1823  -12.1211 H   0  0  0  0  0  0  0  0  0  0  0  0
   29.9844   -2.7569  -13.7942 H   0  0  0  0  0  0  0  0  0  0  0  0
   38.1260   -9.5868  -14.6089 H   0  0  0  0  0  0  0  0  0  0  0  0
   40.2506   -9.9175  -15.7781 H   0  0  0  0  0  0  0  0  0  0  0  0
   33.3728   -4.3179  -10.5232 H   0  0  0  0  0  0  0  0  0  0  0  0
   36.5252   -1.9626  -13.3847 H   0  0  0  0  0  0  0  0  0  0  0  0
   32.1785   -2.1827  -10.1581 H   0  0  0  0  0  0  0  0  0  0  0  0
   36.2172   -1.7384  -15.8380 H   0  0  0  0  0  0  0  0  0  0  0  0
   31.2037   -5.2058   -5.3331 H   0  0  0  0  0  0  0  0  0  0  0  0
   32.8027   -5.5775   -5.9914 H   0  0  0  0  0  0  0  0  0  0  0  0
   31.9114   -5.0298   -8.3079 H   0  0  0  0  0  0  0  0  0  0  0  0
   29.4483   -5.0305   -6.9154 H   0  0  0  0  0  0  0  0  0  0  0  0
   29.9415   -6.9188   -9.3432 H   0  0  0  0  0  0  0  0  0  0  0  0
   30.1632   -9.1897   -9.5949 H   0  0  0  0  0  0  0  0  0  0  0  0
   31.1617   -4.9277  -14.1793 H   0  0  0  0  0  0  0  0  0  0  0  0
   35.3650   -9.1378  -10.5058 H   0  0  0  0  0  0  0  0  0  0  0  0
   34.7779  -10.8114  -10.5906 H   0  0  0  0  0  0  0  0  0  0  0  0
   33.6943   -9.5462  -10.0920 H   0  0  0  0  0  0  0  0  0  0  0  0
   35.6551   -3.9527  -12.1988 H   0  0  0  0  0  0  0  0  0  0  0  0
   35.0357   -3.5162  -17.1101 H   0  0  0  0  0  0  0  0  0  0  0  0
   34.1297   -5.4835  -15.9290 H   0  0  0  0  0  0  0  0  0  0  0  0
   35.4945   -7.2903  -15.7791 H   0  0  0  0  0  0  0  0  0  0  0  0
   37.3576   -5.7369  -18.1523 H   0  0  0  0  0  0  0  0  0  0  0  0
   39.2869   -6.7530  -18.5079 H   0  0  0  0  0  0  0  0  0  0  0  0
   40.8422   -8.5088  -17.7374 H   0  0  0  0  0  0  0  0  0  0  0  0
  1  2  1  0  0  0  0
  1  4  1  1  0  0  0
  1 28  1  0  0  0  0
  2 24  1  1  0  0  0
  2 31  1  0  0  0  0
  3  7  1  0  0  0  0
  3 29  1  0  0  0  0
  3 43  1  0  0  0  0
  4  5  1  0  0  0  0
  4 44  1  0  0  0  0
  4 45  1  0  0  0  0
  5 22  1  0  0  0  0
  5 46  1  0  0  0  0
  5 47  1  0  0  0  0
  6 20  1  0  0  0  0
  6 22  1  0  0  0  0
  6 48  1  0  0  0  0
  6 49  1  0  0  0  0
  7 50  1  0  0  0  0
  7 51  1  0  0  0  0
  7 52  1  0  0  0  0
  8 25  1  0  0  0  0
  8 27  1  0  0  0  0
  8 53  1  0  0  0  0
  9 10  1  0  0  0  0
  9 39  1  0  0  0  0
  9 54  1  0  0  0  0
 10 42  1  0  0  0  0
 10 55  1  0  0  0  0
 11 13  1  0  0  0  0
 11 56  1  0  0  0  0
 12 15  1  0  0  0  0
 12 33  1  0  0  0  0
 12 57  1  0  0  0  0
 13 25  1  0  0  0  0
 13 58  1  0  0  0  0
 14 39  1  0  0  0  0
 14 40  1  1  0  0  0
 14 41  1  0  0  0  0
 15 34  1  0  0  0  0
 15 59  1  0  0  0  0
 16 17  2  0  0  0  0
 17 18  1  0  0  0  0
 17 19  1  0  0  0  0
 19 20  1  0  0  0  0
 19 60  1  0  0  0  0
 19 61  1  0  0  0  0
 20 21  1  0  0  0  0
 20 62  1  6  0  0  0
 21 63  1  0  0  0  0
 22 23  1  0  0  0  0
 22 64  1  6  0  0  0
 23 65  1  0  0  0  0
 24 11  1  6  0  0  0
 24 27  1  0  0  0  0
 25 26  1  6  0  0  0
 27 66  1  0  0  0  0
 28  3  1  1  0  0  0
 28 30  1  0  0  0  0
 29 67  1  0  0  0  0
 29 68  1  0  0  0  0
 29 69  1  0  0  0  0
 30 31  1  0  0  0  0
 30 36  1  1  0  0  0
 31 32  1  1  0  0  0
 32 33  1  0  0  0  0
 32 35  1  0  0  0  0
 33 70  1  0  0  0  0
 34 35  1  0  0  0  0
 34 71  1  0  0  0  0
 35 72  1  0  0  0  0
 36 37  2  0  0  0  0
 36 38  1  0  0  0  0
 38 73  1  0  0  0  0
 39 38  1  1  0  0  0
 40 74  1  0  0  0  0
 41 42  1  0  0  0  0
 41 75  1  0  0  0  0
 42 76  1  0  0  0  0
M  CHG  1   1   1
M  END
$$$$
