3HP
 OpenBabel04091914303D

 18 18  0  0  0  0  0  0  0  0999 V2000
   13.9734   13.9230   42.1288 C   0  0  0  0  0  0  0  0  0  0  0  0
   13.3553   14.2102   43.2056 O   0  0  0  0  0  0  0  0  0  0  0  0
   15.0397   14.4281   41.6805 O   0  0  0  0  0  0  0  0  0  0  0  0
   13.2545   12.9028   41.2579 C   0  0  0  0  0  0  0  0  0  0  0  0
   13.8925   11.5339   41.1568 C   0  0  0  0  0  0  0  0  0  0  0  0
   13.7868   10.5479   42.1570 C   0  0  0  0  0  0  0  0  0  0  0  0
   14.3915    9.2962   41.9403 C   0  0  0  0  0  0  0  0  0  0  0  0
   15.0821    9.0245   40.7668 C   0  0  0  0  0  0  0  0  0  0  0  0
   15.1999    9.9995   39.7933 C   0  0  0  0  0  0  0  0  0  0  0  0
   14.5932   11.2465   39.9833 C   0  0  0  0  0  0  0  0  0  0  0  0
   14.3380    8.3060   42.8821 O   0  0  0  0  0  0  0  0  0  0  0  0
   13.1613   13.3196   40.2469 H   0  0  0  0  0  0  0  0  0  0  0  0
   12.2264   12.7830   41.6188 H   0  0  0  0  0  0  0  0  0  0  0  0
   13.2703   10.7566   43.0820 H   0  0  0  0  0  0  0  0  0  0  0  0
   15.5307    8.0405   40.6058 H   0  0  0  0  0  0  0  0  0  0  0  0
   15.7723    9.8148   38.8892 H   0  0  0  0  0  0  0  0  0  0  0  0
   14.6679   12.0080   39.2147 H   0  0  0  0  0  0  0  0  0  0  0  0
   13.4017    8.1542   43.0729 H   0  0  0  0  0  0  0  0  0  0  0  0
  1  4  1  0  0  0  0
  1  3  2  0  0  0  0
  1  2  1  0  0  0  0
  4  5  1  0  0  0  0
  4 12  1  0  0  0  0
  4 13  1  0  0  0  0
  5 10  2  0  0  0  0
  5  6  1  0  0  0  0
  6  7  2  0  0  0  0
  6 14  1  0  0  0  0
  7 11  1  0  0  0  0
  7  8  1  0  0  0  0
  8  9  2  0  0  0  0
  8 15  1  0  0  0  0
  9 10  1  0  0  0  0
  9 16  1  0  0  0  0
 10 17  1  0  0  0  0
 11 18  1  0  0  0  0
M  END
$$$$
