3M2
 OpenBabel04091914253D

 27 28  0  0  0  0  0  0  0  0999 V2000
   -0.4479    2.1429   -8.0112 C   0  0  0  0  0  0  0  0  0  0  0  0
   -0.4734    2.5780  -10.8330 N   0  0  0  0  0  0  0  0  0  0  0  0
    0.3292   -1.9674  -10.2903 O   0  0  0  0  0  0  0  0  0  0  0  0
    0.0707    0.1792   -2.2691 O   0  0  0  0  0  0  0  0  0  0  0  0
   -1.9722    2.0252   -3.5010 Br  0  0  0  0  0  0  0  0  0  0  0  0
    2.0383   -2.0295   -3.2566 Br  0  0  0  0  0  0  0  0  0  0  0  0
    0.0403   -0.8471   -7.7130 C   0  0  0  0  0  0  0  0  0  0  0  0
   -0.8822    0.4905   -5.7287 C   0  0  0  0  0  0  0  0  0  0  0  0
    0.7911   -1.1564   -5.5485 C   0  0  0  0  0  0  0  0  0  0  0  0
   -0.0585    0.2369  -11.0058 N   0  0  0  0  0  0  0  0  0  0  0  0
    0.0185    0.0097   -3.5260 C   0  0  0  0  0  0  0  0  0  0  0  0
   -0.0545   -0.4242   -6.3341 C   0  0  0  0  0  0  0  0  0  0  0  0
   -0.8379    0.7298   -4.3588 C   0  0  0  0  0  0  0  0  0  0  0  0
    0.8089   -0.9313   -4.1884 C   0  0  0  0  0  0  0  0  0  0  0  0
   -0.2780    1.3740  -10.3323 C   0  0  0  0  0  0  0  0  0  0  0  0
    0.1178   -0.8323  -10.1079 C   0  0  0  0  0  0  0  0  0  0  0  0
   -0.0416   -0.1689   -8.8115 C   0  0  0  0  0  0  0  0  0  0  0  0
   -0.2760    1.1548   -8.9998 N   0  0  0  0  0  0  0  0  0  0  0  0
   -0.6444    3.1039   -8.4230 H   0  0  0  0  0  0  0  0  0  0  0  0
    0.4036    2.1603   -7.3479 H   0  0  0  0  0  0  0  0  0  0  0  0
   -1.3698    1.9299   -7.5265 H   0  0  0  0  0  0  0  0  0  0  0  0
   -0.6155    3.3573  -10.1991 H   0  0  0  0  0  0  0  0  0  0  0  0
    0.2570   -1.9235   -7.8163 H   0  0  0  0  0  0  0  0  0  0  0  0
   -1.6325    1.0082   -6.2706 H   0  0  0  0  0  0  0  0  0  0  0  0
    1.4429   -1.9179   -5.9639 H   0  0  0  0  0  0  0  0  0  0  0  0
   -0.0072    0.0683  -12.0116 H   0  0  0  0  0  0  0  0  0  0  0  0
   -0.4827    2.7783  -11.8173 H   0  0  0  0  0  0  0  0  0  0  0  0
  1 18  1  0  0  0  0
  1 19  1  0  0  0  0
  1 20  1  0  0  0  0
  1 21  1  0  0  0  0
  2 15  2  0  0  0  0
  2 22  1  0  0  0  0
  2 27  1  0  0  0  0
  3 16  2  0  0  0  0
  4 11  1  0  0  0  0
  5 13  1  0  0  0  0
  6 14  1  0  0  0  0
  7 12  1  0  0  0  0
  7 17  2  0  0  0  0
  7 23  1  0  0  0  0
  8 12  2  0  0  0  0
  8 13  1  0  0  0  0
  8 24  1  0  0  0  0
  9 12  1  0  0  0  0
  9 14  2  0  0  0  0
  9 25  1  0  0  0  0
 10 15  1  0  0  0  0
 10 16  1  0  0  0  0
 10 26  1  0  0  0  0
 11 13  2  0  0  0  0
 11 14  1  0  0  0  0
 15 18  1  0  0  0  0
 16 17  1  0  0  0  0
 17 18  1  0  0  0  0
M  END
$$$$
