3M3
 OpenBabel04091914253D

 35 36  0  0  0  0  0  0  0  0999 V2000
    0.1149   -2.5762   -9.5849 C   0  0  0  0  0  0  0  0  0  0  0  0
   -0.5133    2.4569   -9.7293 C   0  0  0  0  0  0  0  0  0  0  0  0
    3.1458   -2.2562   -4.7275 F   0  0  0  0  0  0  0  0  0  0  0  0
    2.4871   -1.3412   -1.3010 C   0  0  0  0  0  0  0  0  0  0  0  0
    1.2744   -0.6587   -1.4303 C   0  0  0  0  0  0  0  0  0  0  0  0
    3.1248   -1.8953   -2.4051 C   0  0  0  0  0  0  0  0  0  0  0  0
    0.6873   -0.5132   -2.6736 C   0  0  0  0  0  0  0  0  0  0  0  0
    0.5620    0.3333   -6.8507 C   0  0  0  0  0  0  0  0  0  0  0  0
    0.2758    0.2706   -5.3619 C   0  0  0  0  0  0  0  0  0  0  0  0
   -0.6347   -0.0717   -7.7105 C   0  0  0  0  0  0  0  0  0  0  0  0
    0.2716   -0.7634  -11.2847 N   0  0  0  0  0  0  0  0  0  0  0  0
    0.0993    0.5917  -11.2779 N   0  3  0  0  0  0  0  0  0  0  0  0
    0.8044   -1.0075   -5.0148 O   0  0  0  0  0  0  0  0  0  0  0  0
    2.5375   -1.7590   -3.6428 C   0  0  0  0  0  0  0  0  0  0  0  0
    0.0316   -1.1551  -10.0230 C   0  0  0  0  0  0  0  0  0  0  0  0
   -0.2524    1.0362  -10.0120 C   0  0  0  0  0  0  0  0  0  0  0  0
    1.3329   -1.0644   -3.7730 C   0  0  0  0  0  0  0  0  0  0  0  0
   -0.3035   -0.0520   -9.1771 C   0  0  0  0  0  0  0  0  0  0  0  0
   -0.1222   -2.6786   -8.5183 H   0  0  0  0  0  0  0  0  0  0  0  0
    1.1244   -2.9693   -9.7311 H   0  0  0  0  0  0  0  0  0  0  0  0
   -0.5945   -3.1989  -10.1371 H   0  0  0  0  0  0  0  0  0  0  0  0
   -0.7630    2.5545   -8.6738 H   0  0  0  0  0  0  0  0  0  0  0  0
   -1.3550    2.8161  -10.3213 H   0  0  0  0  0  0  0  0  0  0  0  0
    0.3682    3.0629   -9.9375 H   0  0  0  0  0  0  0  0  0  0  0  0
    2.9486   -1.4446   -0.3230 H   0  0  0  0  0  0  0  0  0  0  0  0
    0.7990   -0.2475   -0.5392 H   0  0  0  0  0  0  0  0  0  0  0  0
    4.0667   -2.4172   -2.2965 H   0  0  0  0  0  0  0  0  0  0  0  0
   -0.2552    0.0166   -2.7854 H   0  0  0  0  0  0  0  0  0  0  0  0
    1.3938   -0.3488   -7.0720 H   0  0  0  0  0  0  0  0  0  0  0  0
    0.8738    1.3465   -7.1064 H   0  0  0  0  0  0  0  0  0  0  0  0
   -0.7935    0.2998   -5.1191 H   0  0  0  0  0  0  0  0  0  0  0  0
    0.7809    1.0834   -4.8134 H   0  0  0  0  0  0  0  0  0  0  0  0
   -1.4612    0.6253   -7.5278 H   0  0  0  0  0  0  0  0  0  0  0  0
   -0.9892   -1.0670   -7.4109 H   0  0  0  0  0  0  0  0  0  0  0  0
    0.2287    1.1253  -12.1431 H   0  0  0  0  0  0  0  0  0  0  0  0
  1 15  1  0  0  0  0
  1 19  1  0  0  0  0
  1 20  1  0  0  0  0
  1 21  1  0  0  0  0
  2 16  1  0  0  0  0
  2 22  1  0  0  0  0
  2 23  1  0  0  0  0
  2 24  1  0  0  0  0
  3 14  1  0  0  0  0
  4  5  2  0  0  0  0
  4  6  1  0  0  0  0
  4 25  1  0  0  0  0
  5  7  1  0  0  0  0
  5 26  1  0  0  0  0
  6 14  2  0  0  0  0
  6 27  1  0  0  0  0
  7 17  2  0  0  0  0
  7 28  1  0  0  0  0
  8  9  1  0  0  0  0
  8 10  1  0  0  0  0
  8 29  1  0  0  0  0
  8 30  1  0  0  0  0
  9 13  1  0  0  0  0
  9 31  1  0  0  0  0
  9 32  1  0  0  0  0
 10 18  1  0  0  0  0
 10 33  1  0  0  0  0
 10 34  1  0  0  0  0
 11 12  1  0  0  0  0
 11 15  1  0  0  0  0
 12 16  2  0  0  0  0
 12 35  1  0  0  0  0
 13 17  1  0  0  0  0
 14 17  1  0  0  0  0
 15 18  2  0  0  0  0
 16 18  1  0  0  0  0
M  CHG  1  12   1
M  END
$$$$
