3OX
 OpenBabel04091914203D

 97100  0  0  1  0  0  0  0  0999 V2000
   -9.9143  -27.8829  -36.2478 N   0  0  0  0  0  0  0  0  0  0  0  0
  -10.5796  -28.3673  -37.4595 C   0  0  2  0  0  0  0  0  0  0  0  0
   -9.6089  -29.1885  -38.3576 C   0  0  2  0  0  0  0  0  0  0  0  0
   -9.1350  -30.4408  -37.6121 C   0  0  0  0  0  0  0  0  0  0  0  0
   -8.6926  -31.5956  -38.5240 C   0  0  2  0  0  0  0  0  0  0  0  0
   -9.9918  -32.3256  -38.9057 C   0  0  0  0  0  0  0  0  0  0  0  0
  -11.1688  -27.1447  -38.1941 C   0  0  0  0  0  0  0  0  0  0  0  0
   -8.4603  -28.4183  -38.7470 O   0  0  0  0  0  0  0  0  0  0  0  0
   -7.7513  -32.5662  -37.7657 C   0  0  0  0  0  0  0  0  0  0  0  0
   -6.4238  -31.8998  -37.3947 C   0  0  0  0  0  0  0  0  0  0  0  0
   -7.4717  -33.8198  -38.5886 C   0  0  0  0  0  0  0  0  0  0  0  0
  -10.7456  -32.7803  -38.0632 O   0  0  0  0  0  0  0  0  0  0  0  0
  -12.0276  -26.3982  -37.3209 O   0  0  0  0  0  0  0  0  0  0  0  0
  -11.4226  -33.0241  -40.8086 C   0  0  0  0  0  0  0  0  0  0  0  0
  -11.0730  -34.3104  -41.5556 C   0  0  0  0  0  0  0  0  0  0  0  0
  -12.3605  -34.8686  -42.1450 C   0  0  0  0  0  0  0  0  0  0  0  0
  -10.0335  -34.0785  -42.6490 C   0  0  0  0  0  0  0  0  0  0  0  0
  -10.2470  -32.3742  -40.2546 N   0  0  0  0  0  0  0  0  0  0  0  0
   -9.5532  -27.6834  -33.8935 C   0  0  0  0  0  0  0  0  0  0  0  0
   -8.7049  -28.2035  -32.9366 C   0  0  0  0  0  0  0  0  0  0  0  0
   -8.2772  -27.3491  -31.9079 C   0  0  0  0  0  0  0  0  0  0  0  0
   -8.6996  -26.0071  -31.8366 C   0  0  0  0  0  0  0  0  0  0  0  0
   -9.5647  -25.5142  -32.7904 C   0  0  0  0  0  0  0  0  0  0  0  0
   -9.9935  -26.3658  -33.8067 C   0  0  0  0  0  0  0  0  0  0  0  0
  -10.0978  -28.4835  -35.0142 C   0  0  0  0  0  0  0  0  0  0  0  0
  -10.0633  -24.0918  -32.7662 C   0  0  0  0  0  0  0  0  0  0  0  0
   -7.4195  -27.8152  -30.8840 N   0  0  0  0  0  0  0  0  0  0  0  0
   -7.8241  -28.9540  -30.0814 C   0  0  0  0  0  0  0  0  0  0  0  0
   -5.7964  -27.4015  -30.9179 S   0  0  0  0  0  0  0  0  0  0  0  0
   -5.7504  -25.7584  -31.4300 C   0  0  0  0  0  0  0  0  0  0  0  0
   -9.2810  -23.1703  -32.5847 O   0  0  0  0  0  0  0  0  0  0  0  0
  -10.7152  -29.4897  -34.8321 O   0  0  0  0  0  0  0  0  0  0  0  0
   -5.1608  -28.1801  -31.9779 O   0  0  0  0  0  0  0  0  0  0  0  0
   -5.2642  -27.5254  -29.5830 O   0  0  0  0  0  0  0  0  0  0  0  0
  -11.3553  -23.9872  -33.0389 N   0  0  0  0  0  0  0  0  0  0  0  0
  -12.1614  -22.8066  -33.3659 C   0  0  1  0  0  0  0  0  0  0  0  0
  -13.0324  -23.2602  -34.5271 C   0  0  0  0  0  0  0  0  0  0  0  0
  -13.0737  -24.3849  -36.6845 C   0  0  0  0  0  0  0  0  0  0  0  0
  -14.4662  -24.2481  -36.6773 C   0  0  0  0  0  0  0  0  0  0  0  0
  -15.1426  -23.6606  -35.6041 C   0  0  0  0  0  0  0  0  0  0  0  0
  -14.4290  -23.1670  -34.5268 C   0  0  0  0  0  0  0  0  0  0  0  0
  -12.3661  -23.8778  -35.6076 C   0  0  0  0  0  0  0  0  0  0  0  0
  -12.3722  -25.1009  -37.8051 C   0  0  0  0  0  0  0  0  0  0  0  0
  -12.9395  -22.3155  -32.1696 C   0  0  0  0  0  0  0  0  0  0  0  0
  -13.4278  -23.1892  -31.1868 C   0  0  0  0  0  0  0  0  0  0  0  0
  -14.1313  -22.6941  -30.0949 C   0  0  0  0  0  0  0  0  0  0  0  0
  -14.3783  -21.3276  -29.9921 C   0  0  0  0  0  0  0  0  0  0  0  0
  -13.9245  -20.4563  -30.9781 C   0  0  0  0  0  0  0  0  0  0  0  0
  -13.2225  -20.9471  -32.0734 C   0  0  0  0  0  0  0  0  0  0  0  0
   -9.3579  -27.0509  -36.3127 H   0  0  0  0  0  0  0  0  0  0  0  0
  -11.3866  -29.0508  -37.1737 H   0  0  0  0  0  0  0  0  0  0  0  0
  -10.1389  -29.4736  -39.2725 H   0  0  0  0  0  0  0  0  0  0  0  0
   -9.9546  -30.7989  -36.9782 H   0  0  0  0  0  0  0  0  0  0  0  0
   -8.3135  -30.1630  -36.9599 H   0  0  0  0  0  0  0  0  0  0  0  0
   -8.1782  -31.2124  -39.4140 H   0  0  0  0  0  0  0  0  0  0  0  0
  -11.7401  -27.4860  -39.0582 H   0  0  0  0  0  0  0  0  0  0  0  0
  -10.3519  -26.4945  -38.5138 H   0  0  0  0  0  0  0  0  0  0  0  0
   -8.7555  -27.6198  -39.2123 H   0  0  0  0  0  0  0  0  0  0  0  0
   -8.2336  -32.8753  -36.8298 H   0  0  0  0  0  0  0  0  0  0  0  0
   -5.7715  -32.6020  -36.8640 H   0  0  0  0  0  0  0  0  0  0  0  0
   -6.5814  -31.0465  -36.7304 H   0  0  0  0  0  0  0  0  0  0  0  0
   -5.8994  -31.5437  -38.2880 H   0  0  0  0  0  0  0  0  0  0  0  0
   -8.4082  -34.3140  -38.8590 H   0  0  0  0  0  0  0  0  0  0  0  0
   -6.8714  -34.5323  -38.0135 H   0  0  0  0  0  0  0  0  0  0  0  0
   -6.9332  -33.5698  -39.5085 H   0  0  0  0  0  0  0  0  0  0  0  0
  -12.1429  -33.2602  -40.0159 H   0  0  0  0  0  0  0  0  0  0  0  0
  -11.8963  -32.3167  -41.5005 H   0  0  0  0  0  0  0  0  0  0  0  0
  -10.6556  -35.0307  -40.8445 H   0  0  0  0  0  0  0  0  0  0  0  0
  -12.1665  -35.7910  -42.6956 H   0  0  0  0  0  0  0  0  0  0  0  0
  -12.8204  -34.1427  -42.8267 H   0  0  0  0  0  0  0  0  0  0  0  0
  -13.0762  -35.0828  -41.3439 H   0  0  0  0  0  0  0  0  0  0  0  0
   -9.1030  -33.6843  -42.2240 H   0  0  0  0  0  0  0  0  0  0  0  0
  -10.4003  -33.3658  -43.3954 H   0  0  0  0  0  0  0  0  0  0  0  0
   -9.7947  -35.0205  -43.1546 H   0  0  0  0  0  0  0  0  0  0  0  0
   -9.5674  -31.9932  -40.8902 H   0  0  0  0  0  0  0  0  0  0  0  0
   -8.3700  -29.2342  -32.9488 H   0  0  0  0  0  0  0  0  0  0  0  0
   -8.3442  -25.3471  -31.0459 H   0  0  0  0  0  0  0  0  0  0  0  0
  -10.6964  -26.0127  -34.5550 H   0  0  0  0  0  0  0  0  0  0  0  0
   -8.8896  -29.1118  -30.2287 H   0  0  0  0  0  0  0  0  0  0  0  0
   -7.6523  -28.7057  -29.0336 H   0  0  0  0  0  0  0  0  0  0  0  0
   -7.2832  -29.8643  -30.3435 H   0  0  0  0  0  0  0  0  0  0  0  0
   -4.7125  -25.4898  -31.4249 H   0  0  0  0  0  0  0  0  0  0  0  0
   -6.3345  -25.1807  -30.7101 H   0  0  0  0  0  0  0  0  0  0  0  0
   -6.1741  -25.7190  -32.4439 H   0  0  0  0  0  0  0  0  0  0  0  0
  -11.8660  -24.8428  -33.0825 H   0  0  0  0  0  0  0  0  0  0  0  0
  -11.5307  -21.9850  -33.7237 H   0  0  0  0  0  0  0  0  0  0  0  0
  -15.0363  -24.6310  -37.5139 H   0  0  0  0  0  0  0  0  0  0  0  0
  -16.2245  -23.5865  -35.6168 H   0  0  0  0  0  0  0  0  0  0  0  0
  -14.9571  -22.7399  -33.6754 H   0  0  0  0  0  0  0  0  0  0  0  0
  -11.2841  -23.9971  -35.5451 H   0  0  0  0  0  0  0  0  0  0  0  0
  -13.0420  -25.1705  -38.6691 H   0  0  0  0  0  0  0  0  0  0  0  0
  -11.4787  -24.5375  -38.1070 H   0  0  0  0  0  0  0  0  0  0  0  0
  -13.2337  -24.2546  -31.2624 H   0  0  0  0  0  0  0  0  0  0  0  0
  -14.4784  -23.3739  -29.3231 H   0  0  0  0  0  0  0  0  0  0  0  0
  -14.9281  -20.9346  -29.1421 H   0  0  0  0  0  0  0  0  0  0  0  0
  -14.1071  -19.3906  -30.8932 H   0  0  0  0  0  0  0  0  0  0  0  0
  -12.8685  -20.2615  -32.8427 H   0  0  0  0  0  0  0  0  0  0  0  0
  1  2  1  0  0  0  0
  1 25  1  0  0  0  0
  1 50  1  0  0  0  0
  2  3  1  0  0  0  0
  2  7  1  0  0  0  0
  2 51  1  1  0  0  0
  3  4  1  0  0  0  0
  3  8  1  0  0  0  0
  3 52  1  6  0  0  0
  4  5  1  0  0  0  0
  4 53  1  0  0  0  0
  4 54  1  0  0  0  0
  5  6  1  0  0  0  0
  5  9  1  0  0  0  0
  5 55  1  6  0  0  0
  6 12  2  0  0  0  0
  6 18  1  0  0  0  0
  7 13  1  0  0  0  0
  7 56  1  0  0  0  0
  7 57  1  0  0  0  0
  8 58  1  0  0  0  0
  9 10  1  0  0  0  0
  9 11  1  0  0  0  0
  9 59  1  0  0  0  0
 10 60  1  0  0  0  0
 10 61  1  0  0  0  0
 10 62  1  0  0  0  0
 11 63  1  0  0  0  0
 11 64  1  0  0  0  0
 11 65  1  0  0  0  0
 13 43  1  0  0  0  0
 14 15  1  0  0  0  0
 14 18  1  0  0  0  0
 14 66  1  0  0  0  0
 14 67  1  0  0  0  0
 15 16  1  0  0  0  0
 15 17  1  0  0  0  0
 15 68  1  0  0  0  0
 16 69  1  0  0  0  0
 16 70  1  0  0  0  0
 16 71  1  0  0  0  0
 17 72  1  0  0  0  0
 17 73  1  0  0  0  0
 17 74  1  0  0  0  0
 18 75  1  0  0  0  0
 19 20  2  0  0  0  0
 19 24  1  0  0  0  0
 19 25  1  0  0  0  0
 20 21  1  0  0  0  0
 20 76  1  0  0  0  0
 21 22  2  0  0  0  0
 21 27  1  0  0  0  0
 22 23  1  0  0  0  0
 22 77  1  0  0  0  0
 23 24  2  0  0  0  0
 23 26  1  0  0  0  0
 24 78  1  0  0  0  0
 25 32  2  0  0  0  0
 26 31  2  0  0  0  0
 26 35  1  0  0  0  0
 27 28  1  0  0  0  0
 27 29  1  0  0  0  0
 28 79  1  0  0  0  0
 28 80  1  0  0  0  0
 28 81  1  0  0  0  0
 29 30  1  0  0  0  0
 29 33  2  0  0  0  0
 29 34  2  0  0  0  0
 30 82  1  0  0  0  0
 30 83  1  0  0  0  0
 30 84  1  0  0  0  0
 35 36  1  0  0  0  0
 35 85  1  0  0  0  0
 36 37  1  0  0  0  0
 36 44  1  0  0  0  0
 36 86  1  6  0  0  0
 37 41  2  0  0  0  0
 37 42  1  0  0  0  0
 38 39  1  0  0  0  0
 38 42  2  0  0  0  0
 38 43  1  0  0  0  0
 39 40  2  0  0  0  0
 39 87  1  0  0  0  0
 40 41  1  0  0  0  0
 40 88  1  0  0  0  0
 41 89  1  0  0  0  0
 42 90  1  0  0  0  0
 43 91  1  0  0  0  0
 43 92  1  0  0  0  0
 44 45  2  0  0  0  0
 44 49  1  0  0  0  0
 45 46  1  0  0  0  0
 45 93  1  0  0  0  0
 46 47  2  0  0  0  0
 46 94  1  0  0  0  0
 47 48  1  0  0  0  0
 47 95  1  0  0  0  0
 48 49  2  0  0  0  0
 48 96  1  0  0  0  0
 49 97  1  0  0  0  0
M  END
$$$$
