3P1
 OpenBabel04091913333D

 52 56  0  0  1  0  0  0  0  0999 V2000
   12.5000  -10.0864    5.9976 N   0  0  0  0  0  0  0  0  0  0  0  0
   12.6813   -9.0371    6.8270 C   0  0  0  0  0  0  0  0  0  0  0  0
   13.7146   -8.1680    6.8770 N   0  0  0  0  0  0  0  0  0  0  0  0
   13.4654  -10.3387    5.0849 C   0  0  0  0  0  0  0  0  0  0  0  0
   15.7996   -7.8162    5.6267 N   0  3  0  0  0  0  0  0  0  0  0  0
   16.4021   -8.5155    4.6049 C   0  0  0  0  0  0  0  0  0  0  0  0
   15.6896   -9.5252    4.2281 N   0  0  0  0  0  0  0  0  0  0  0  0
   14.5877   -9.5129    5.0346 C   0  0  0  0  0  0  0  0  0  0  0  0
   14.6347   -8.4691    5.9380 C   0  0  0  0  0  0  0  0  0  0  0  0
   16.3227   -6.7041    6.3651 C   0  0  2  0  0  0  0  0  0  0  0  0
   16.8240   -5.7074    5.4486 O   0  0  0  0  0  0  0  0  0  0  0  0
   17.7735   -4.9255    6.1986 C   0  0  1  0  0  0  0  0  0  0  0  0
   18.2218   -5.7715    7.3944 C   0  0  2  0  0  0  0  0  0  0  0  0
   17.5308   -7.1100    7.2086 C   0  0  1  0  0  0  0  0  0  0  0  0
   13.3129  -11.3917    4.2080 N   0  0  0  0  0  0  0  0  0  0  0  0
   17.5766   -8.1077    4.0858 N   0  0  0  0  0  0  0  0  0  0  0  0
   18.2599   -8.9770    3.1112 C   0  0  0  0  0  0  0  0  0  0  0  0
   19.2161   -9.9640    3.7632 C   0  0  0  0  0  0  0  0  0  0  0  0
   19.1204  -11.2718    3.4065 N   0  0  0  0  0  0  0  0  0  0  0  0
   21.0188  -10.4392    5.2593 C   0  0  0  0  0  0  0  0  0  0  0  0
   20.1700   -9.5132    4.6685 C   0  0  0  0  0  0  0  0  0  0  0  0
   20.9207  -11.7836    4.9261 C   0  0  0  0  0  0  0  0  0  0  0  0
   19.9467  -12.1761    3.9753 C   0  0  0  0  0  0  0  0  0  0  0  0
   19.8628  -13.5226    3.6539 C   0  0  0  0  0  0  0  0  0  0  0  0
   20.7089  -14.4806    4.2268 C   0  0  0  0  0  0  0  0  0  0  0  0
   21.6613  -14.0822    5.1620 C   0  0  0  0  0  0  0  0  0  0  0  0
   21.7674  -12.7410    5.5077 C   0  0  0  0  0  0  0  0  0  0  0  0
   18.9640   -4.5629    5.3228 C   0  0  0  0  0  0  0  0  0  0  0  0
   19.5132   -5.7554    4.7597 O   0  0  0  0  0  0  0  0  0  0  0  0
   17.7934   -5.1403    8.5992 O   0  0  0  0  0  0  0  0  0  0  0  0
   17.1616   -7.7136    8.4412 O   0  0  0  0  0  0  0  0  0  0  0  0
   11.8847   -8.8638    7.5453 H   0  0  0  0  0  0  0  0  0  0  0  0
   15.5318   -6.2637    6.9780 H   0  0  0  0  0  0  0  0  0  0  0  0
   17.2565   -4.0144    6.5177 H   0  0  0  0  0  0  0  0  0  0  0  0
   19.3088   -5.8844    7.4533 H   0  0  0  0  0  0  0  0  0  0  0  0
   18.1925   -7.7954    6.6628 H   0  0  0  0  0  0  0  0  0  0  0  0
   14.0578  -11.5498    3.5412 H   0  0  0  0  0  0  0  0  0  0  0  0
   12.4894  -11.9618    4.2706 H   0  0  0  0  0  0  0  0  0  0  0  0
   18.1229   -7.4021    4.5213 H   0  0  0  0  0  0  0  0  0  0  0  0
   18.8368   -8.3316    2.4335 H   0  0  0  0  0  0  0  0  0  0  0  0
   17.5354   -9.5079    2.4932 H   0  0  0  0  0  0  0  0  0  0  0  0
   21.7576  -10.0983    5.9816 H   0  0  0  0  0  0  0  0  0  0  0  0
   20.2482   -8.4610    4.9244 H   0  0  0  0  0  0  0  0  0  0  0  0
   19.1141  -13.8435    2.9283 H   0  0  0  0  0  0  0  0  0  0  0  0
   20.6141  -15.5212    3.9562 H   0  0  0  0  0  0  0  0  0  0  0  0
   22.3254  -14.8215    5.6143 H   0  0  0  0  0  0  0  0  0  0  0  0
   22.5200  -12.4359    6.2342 H   0  0  0  0  0  0  0  0  0  0  0  0
   19.7391   -4.0753    5.9212 H   0  0  0  0  0  0  0  0  0  0  0  0
   18.6765   -3.8945    4.5052 H   0  0  0  0  0  0  0  0  0  0  0  0
   18.9020   -5.9664    4.0284 H   0  0  0  0  0  0  0  0  0  0  0  0
   17.9072   -5.7917    9.3144 H   0  0  0  0  0  0  0  0  0  0  0  0
   17.9662   -7.8882    8.9538 H   0  0  0  0  0  0  0  0  0  0  0  0
  1  2  2  0  0  0  0
  1  4  1  0  0  0  0
  2  3  1  0  0  0  0
  2 32  1  0  0  0  0
  3  9  2  0  0  0  0
  4  8  2  0  0  0  0
  4 15  1  0  0  0  0
  5  6  2  0  0  0  0
  5  9  1  0  0  0  0
  5 10  1  0  0  0  0
  6  7  1  0  0  0  0
  6 16  1  0  0  0  0
  7  8  1  0  0  0  0
  8  9  1  0  0  0  0
 10 11  1  0  0  0  0
 10 14  1  0  0  0  0
 10 33  1  1  0  0  0
 11 12  1  0  0  0  0
 12 13  1  0  0  0  0
 12 28  1  0  0  0  0
 12 34  1  1  0  0  0
 13 14  1  0  0  0  0
 13 30  1  0  0  0  0
 13 35  1  6  0  0  0
 14 31  1  0  0  0  0
 14 36  1  6  0  0  0
 15 37  1  0  0  0  0
 15 38  1  0  0  0  0
 16 17  1  0  0  0  0
 16 39  1  0  0  0  0
 17 18  1  0  0  0  0
 17 40  1  0  0  0  0
 17 41  1  0  0  0  0
 18 19  2  0  0  0  0
 18 21  1  0  0  0  0
 19 23  1  0  0  0  0
 20 21  2  0  0  0  0
 20 22  1  0  0  0  0
 20 42  1  0  0  0  0
 21 43  1  0  0  0  0
 22 23  2  0  0  0  0
 22 27  1  0  0  0  0
 23 24  1  0  0  0  0
 24 25  2  0  0  0  0
 24 44  1  0  0  0  0
 25 26  1  0  0  0  0
 25 45  1  0  0  0  0
 26 27  2  0  0  0  0
 26 46  1  0  0  0  0
 27 47  1  0  0  0  0
 28 29  1  0  0  0  0
 28 48  1  0  0  0  0
 28 49  1  0  0  0  0
 29 50  1  0  0  0  0
 30 51  1  0  0  0  0
 31 52  1  0  0  0  0
M  CHG  1   5   1
M  END
$$$$
