3P3
 OpenBabel04091914243D

 43 44  0  0  1  0  0  0  0  0999 V2000
   30.1652  -12.8469  -10.7650 O   0  0  0  0  0  0  0  0  0  0  0  0
   31.1501  -12.3627  -10.2034 C   0  0  0  0  0  0  0  0  0  0  0  0
   32.0935  -13.2438   -9.6265 N   0  0  0  0  0  0  0  0  0  0  0  0
   31.8050  -14.4443   -9.7168 O   0  0  0  0  0  0  0  0  0  0  0  0
   31.4365  -10.8520  -10.1797 C   0  0  1  0  0  0  0  0  0  0  0  0
   31.3686  -10.2946  -11.5316 N   0  0  0  0  0  0  0  0  0  0  0  0
   32.4098   -9.5686  -12.0716 C   0  0  0  0  0  0  0  0  0  0  0  0
   33.4317   -9.3190  -11.4466 O   0  0  0  0  0  0  0  0  0  0  0  0
   32.1777   -9.0601  -13.4557 C   0  0  0  0  0  0  0  0  0  0  0  0
   31.3615   -9.7890  -14.3346 C   0  0  0  0  0  0  0  0  0  0  0  0
   31.0158   -9.2750  -15.5807 C   0  0  0  0  0  0  0  0  0  0  0  0
   31.5267   -8.0311  -15.9569 C   0  0  0  0  0  0  0  0  0  0  0  0
   32.3640   -7.3099  -15.1067 C   0  0  0  0  0  0  0  0  0  0  0  0
   32.7095   -7.8257  -13.8576 C   0  0  0  0  0  0  0  0  0  0  0  0
   31.1651   -7.4763  -17.2062 C   0  0  0  0  0  0  0  0  0  0  0  0
   30.8492   -6.9732  -18.2345 C   0  0  0  0  0  0  0  0  0  0  0  0
   30.4205   -6.2629  -19.4921 C   0  0  0  0  0  0  0  0  0  0  0  0
   30.0848   -5.6484  -20.4501 C   0  0  0  0  0  0  0  0  0  0  0  0
   29.7239   -4.8820  -21.5799 C   0  0  0  0  0  0  0  0  0  0  0  0
   28.3997   -4.8556  -22.0110 C   0  0  0  0  0  0  0  0  0  0  0  0
   28.0760   -4.0931  -23.1301 C   0  0  0  0  0  0  0  0  0  0  0  0
   29.0643   -3.3627  -23.7891 C   0  0  0  0  0  0  0  0  0  0  0  0
   30.3886   -3.3946  -23.3441 C   0  0  0  0  0  0  0  0  0  0  0  0
   30.7150   -4.1595  -22.2322 C   0  0  0  0  0  0  0  0  0  0  0  0
   30.5179  -10.1009   -9.1990 C   0  0  1  0  0  0  0  0  0  0  0  0
   29.0490  -10.1271   -9.6099 C   0  0  0  0  0  0  0  0  0  0  0  0
   30.6477  -10.6508   -7.8878 O   0  0  0  0  0  0  0  0  0  0  0  0
   32.4566  -10.7244   -9.8044 H   0  0  0  0  0  0  0  0  0  0  0  0
   30.5070  -10.4256  -12.0502 H   0  0  0  0  0  0  0  0  0  0  0  0
   30.9870  -10.7695  -14.0548 H   0  0  0  0  0  0  0  0  0  0  0  0
   30.3529   -9.8239  -16.2431 H   0  0  0  0  0  0  0  0  0  0  0  0
   32.7277   -6.3305  -15.4279 H   0  0  0  0  0  0  0  0  0  0  0  0
   33.3610   -7.2544  -13.2018 H   0  0  0  0  0  0  0  0  0  0  0  0
   27.6331   -5.4147  -21.4862 H   0  0  0  0  0  0  0  0  0  0  0  0
   27.0513   -4.0701  -23.4847 H   0  0  0  0  0  0  0  0  0  0  0  0
   28.8077   -2.7597  -24.6559 H   0  0  0  0  0  0  0  0  0  0  0  0
   31.1564   -2.8333  -23.8551 H   0  0  0  0  0  0  0  0  0  0  0  0
   31.7413   -4.1882  -21.8718 H   0  0  0  0  0  0  0  0  0  0  0  0
   30.8278   -9.0479   -9.1390 H   0  0  0  0  0  0  0  0  0  0  0  0
   28.4245   -9.5789   -8.8964 H   0  0  0  0  0  0  0  0  0  0  0  0
   28.6696  -11.1518   -9.6322 H   0  0  0  0  0  0  0  0  0  0  0  0
   28.9064   -9.6797  -10.5983 H   0  0  0  0  0  0  0  0  0  0  0  0
   31.5831  -10.5913   -7.6173 H   0  0  0  0  0  0  0  0  0  0  0  0
  1  2  2  0  0  0  0
  2  3  1  0  0  0  0
  2  5  1  0  0  0  0
  3  4  2  0  0  0  0
  5  6  1  0  0  0  0
  5 25  1  0  0  0  0
  5 28  1  1  0  0  0
  6  7  1  0  0  0  0
  6 29  1  0  0  0  0
  7  8  2  0  0  0  0
  7  9  1  0  0  0  0
  9 10  2  0  0  0  0
  9 14  1  0  0  0  0
 10 11  1  0  0  0  0
 10 30  1  0  0  0  0
 11 12  2  0  0  0  0
 11 31  1  0  0  0  0
 12 13  1  0  0  0  0
 12 15  1  0  0  0  0
 13 14  2  0  0  0  0
 13 32  1  0  0  0  0
 14 33  1  0  0  0  0
 15 16  3  0  0  0  0
 16 17  1  0  0  0  0
 17 18  3  0  0  0  0
 18 19  1  0  0  0  0
 19 20  2  0  0  0  0
 19 24  1  0  0  0  0
 20 21  1  0  0  0  0
 20 34  1  0  0  0  0
 21 22  2  0  0  0  0
 21 35  1  0  0  0  0
 22 23  1  0  0  0  0
 22 36  1  0  0  0  0
 23 24  2  0  0  0  0
 23 37  1  0  0  0  0
 24 38  1  0  0  0  0
 25 26  1  0  0  0  0
 25 27  1  0  0  0  0
 25 39  1  1  0  0  0
 26 40  1  0  0  0  0
 26 41  1  0  0  0  0
 26 42  1  0  0  0  0
 27 43  1  0  0  0  0
M  END
$$$$
