3PG
 OpenBabel04091912323D

 15 14  0  0  1  0  0  0  0  0999 V2000
   -9.7436    8.6030   12.9321 C   0  0  0  0  0  0  0  0  0  0  0  0
  -10.7721    8.0557   13.4295 O   0  0  0  0  0  0  0  0  0  0  0  0
   -9.6648    9.1770   11.7956 O   0  0  0  0  0  0  0  0  0  0  0  0
   -8.4868    8.6242   13.8571 C   0  0  2  0  0  0  0  0  0  0  0  0
   -7.6224    9.7707   13.6418 O   0  0  0  0  0  0  0  0  0  0  0  0
   -7.7193    7.3074   13.7129 C   0  0  0  0  0  0  0  0  0  0  0  0
   -6.7419    7.2711   14.7439 O   0  0  0  0  0  0  0  0  0  0  0  0
   -5.3449    6.4615   14.4799 P   0  0  0  0  0  0  0  0  0  0  0  0
   -4.5737    6.6378   15.7835 O   0  0  0  0  0  0  0  0  0  0  0  0
   -5.7649    5.0225   14.1964 O   0  0  0  0  0  0  0  0  0  0  0  0
   -4.7109    7.1824   13.2964 O   0  0  0  0  0  0  0  0  0  0  0  0
   -8.8292    8.7321   14.8936 H   0  0  0  0  0  0  0  0  0  0  0  0
   -6.7760    9.4745   14.0291 H   0  0  0  0  0  0  0  0  0  0  0  0
   -7.2418    7.2375   12.7310 H   0  0  0  0  0  0  0  0  0  0  0  0
   -8.3880    6.4474   13.8364 H   0  0  0  0  0  0  0  0  0  0  0  0
  1  2  2  0  0  0  0
  1  3  1  0  0  0  0
  1  4  1  0  0  0  0
  4  5  1  0  0  0  0
  4  6  1  0  0  0  0
  4 12  1  1  0  0  0
  5 13  1  0  0  0  0
  6  7  1  0  0  0  0
  6 14  1  0  0  0  0
  6 15  1  0  0  0  0
  7  8  1  0  0  0  0
  8  9  2  0  0  0  0
  8 10  1  0  0  0  0
  8 11  1  0  0  0  0
M  END
$$$$
