3PG
 OpenBabel04091911103D

 15 14  0  0  1  0  0  0  0  0999 V2000
    7.1544    6.9088   22.4990 C   0  0  0  0  0  0  0  0  0  0  0  0
    6.6185    5.7676   22.6835 O   0  0  0  0  0  0  0  0  0  0  0  0
    8.3751    7.2250   22.6986 O   0  0  0  0  0  0  0  0  0  0  0  0
    6.3403    7.8797   21.5771 C   0  0  2  0  0  0  0  0  0  0  0  0
    7.1751    8.8680   20.9011 O   0  0  0  0  0  0  0  0  0  0  0  0
    5.1046    8.4581   22.2437 C   0  0  0  0  0  0  0  0  0  0  0  0
    5.4236    9.4530   23.1841 O   0  0  0  0  0  0  0  0  0  0  0  0
    4.3241    9.7499   24.4158 P   0  0  0  0  0  0  0  0  0  0  0  0
    4.2585    8.4522   25.1780 O   0  0  0  0  0  0  0  0  0  0  0  0
    3.0518   10.0909   23.6747 O   0  0  0  0  0  0  0  0  0  0  0  0
    4.9518   10.9073   25.1679 O   0  0  0  0  0  0  0  0  0  0  0  0
    6.0178    7.2435   20.7509 H   0  0  0  0  0  0  0  0  0  0  0  0
    8.0539    8.4337   20.8952 H   0  0  0  0  0  0  0  0  0  0  0  0
    4.4976    7.6587   22.6841 H   0  0  0  0  0  0  0  0  0  0  0  0
    4.4954    8.9420   21.4578 H   0  0  0  0  0  0  0  0  0  0  0  0
  1  2  2  0  0  0  0
  1  3  1  0  0  0  0
  1  4  1  0  0  0  0
  4  5  1  0  0  0  0
  4  6  1  0  0  0  0
  4 12  1  6  0  0  0
  5 13  1  0  0  0  0
  6  7  1  0  0  0  0
  6 14  1  0  0  0  0
  6 15  1  0  0  0  0
  7  8  1  0  0  0  0
  8  9  2  0  0  0  0
  8 10  1  0  0  0  0
  8 11  1  0  0  0  0
M  END
$$$$
