3RM
 OpenBabel04091915023D

 42 44  0  0  0  0  0  0  0  0999 V2000
    3.0771    6.5708  -17.2013 C   0  0  0  0  0  0  0  0  0  0  0  0
    2.1763    2.0106  -16.7560 N   0  3  0  0  0  0  0  0  0  0  0  0
    2.9127    4.4876  -15.9569 O   0  0  0  0  0  0  0  0  0  0  0  0
    3.2134   10.5105  -15.8664 Br  0  0  0  0  0  0  0  0  0  0  0  0
    3.1365    7.9690  -17.1562 C   0  0  0  0  0  0  0  0  0  0  0  0
   -0.1395    0.7678  -17.9763 N   0  0  0  0  0  0  0  0  0  0  0  0
    3.1259    8.6259  -15.9258 C   0  0  0  0  0  0  0  0  0  0  0  0
   -2.2098   -0.3870  -17.6205 N   0  0  0  0  0  0  0  0  0  0  0  0
    3.0404    7.9029  -14.7381 C   0  0  0  0  0  0  0  0  0  0  0  0
   -3.2289   -0.5659  -18.4785 N   0  3  0  0  0  0  0  0  0  0  0  0
    2.9752    6.5089  -14.7861 C   0  0  0  0  0  0  0  0  0  0  0  0
   -1.7893    0.5854  -19.6320 N   0  0  0  0  0  0  0  0  0  0  0  0
    3.0206    5.8510  -16.0089 C   0  0  0  0  0  0  0  0  0  0  0  0
   -3.7847   -0.0865  -20.7361 N   0  0  0  0  0  0  0  0  0  0  0  0
    3.9384    3.8059  -16.6857 C   0  0  0  0  0  0  0  0  0  0  0  0
    3.6537    2.3039  -16.5468 C   0  0  0  0  0  0  0  0  0  0  0  0
    1.6363    2.5108  -18.0943 C   0  0  0  0  0  0  0  0  0  0  0  0
    0.1506    2.1723  -18.2901 C   0  0  0  0  0  0  0  0  0  0  0  0
    0.3554    0.2833  -16.6842 C   0  0  0  0  0  0  0  0  0  0  0  0
    1.8653    0.5317  -16.5663 C   0  0  0  0  0  0  0  0  0  0  0  0
   -1.3585    0.3214  -18.3640 C   0  0  0  0  0  0  0  0  0  0  0  0
   -2.9532   -0.0076  -19.6937 C   0  0  0  0  0  0  0  0  0  0  0  0
    3.0525    6.0881  -18.1731 H   0  0  0  0  0  0  0  0  0  0  0  0
    3.1823    8.5390  -18.0826 H   0  0  0  0  0  0  0  0  0  0  0  0
    3.0211    8.4101  -13.7767 H   0  0  0  0  0  0  0  0  0  0  0  0
   -4.0547   -1.0709  -18.1834 H   0  0  0  0  0  0  0  0  0  0  0  0
    2.8996    5.9463  -13.8595 H   0  0  0  0  0  0  0  0  0  0  0  0
   -3.4825    0.2803  -21.6343 H   0  0  0  0  0  0  0  0  0  0  0  0
   -4.6613   -0.5953  -20.7528 H   0  0  0  0  0  0  0  0  0  0  0  0
    4.9245    4.0358  -16.2711 H   0  0  0  0  0  0  0  0  0  0  0  0
    3.9281    4.0726  -17.7482 H   0  0  0  0  0  0  0  0  0  0  0  0
    4.2301    1.7079  -17.2609 H   0  0  0  0  0  0  0  0  0  0  0  0
    3.8784    1.9758  -15.5259 H   0  0  0  0  0  0  0  0  0  0  0  0
    2.2624    2.0652  -18.8733 H   0  0  0  0  0  0  0  0  0  0  0  0
    1.7483    3.5987  -18.1106 H   0  0  0  0  0  0  0  0  0  0  0  0
   -0.4569    2.8238  -17.6480 H   0  0  0  0  0  0  0  0  0  0  0  0
   -0.0998    2.4135  -19.3306 H   0  0  0  0  0  0  0  0  0  0  0  0
    0.1899   -0.7966  -16.5845 H   0  0  0  0  0  0  0  0  0  0  0  0
   -0.1711    0.7870  -15.8634 H   0  0  0  0  0  0  0  0  0  0  0  0
    2.2302    0.2416  -15.5763 H   0  0  0  0  0  0  0  0  0  0  0  0
    2.4213   -0.0108  -17.3392 H   0  0  0  0  0  0  0  0  0  0  0  0
    1.6763    2.5406  -16.0253 H   0  0  0  0  0  0  0  0  0  0  0  0
  1  5  2  0  0  0  0
  1 13  1  0  0  0  0
  1 23  1  0  0  0  0
  2 16  1  0  0  0  0
  2 17  1  0  0  0  0
  2 20  1  0  0  0  0
  2 42  1  0  0  0  0
  3 13  1  0  0  0  0
  3 15  1  0  0  0  0
  4  7  1  0  0  0  0
  5  7  1  0  0  0  0
  5 24  1  0  0  0  0
  6 18  1  0  0  0  0
  6 19  1  0  0  0  0
  6 21  1  0  0  0  0
  7  9  2  0  0  0  0
  8 10  1  0  0  0  0
  8 21  1  0  0  0  0
  9 11  1  0  0  0  0
  9 25  1  0  0  0  0
 10 22  2  0  0  0  0
 10 26  1  0  0  0  0
 11 13  2  0  0  0  0
 11 27  1  0  0  0  0
 12 21  2  0  0  0  0
 12 22  1  0  0  0  0
 14 22  1  0  0  0  0
 14 28  1  0  0  0  0
 14 29  1  0  0  0  0
 15 16  1  0  0  0  0
 15 30  1  0  0  0  0
 15 31  1  0  0  0  0
 16 32  1  0  0  0  0
 16 33  1  0  0  0  0
 17 18  1  0  0  0  0
 17 34  1  0  0  0  0
 17 35  1  0  0  0  0
 18 36  1  0  0  0  0
 18 37  1  0  0  0  0
 19 20  1  0  0  0  0
 19 38  1  0  0  0  0
 19 39  1  0  0  0  0
 20 40  1  0  0  0  0
 20 41  1  0  0  0  0
M  CHG  2   2   1  10   1
M  END
$$$$
