3RP
 OpenBabel04091915013D

 29 30  0  0  0  0  0  0  0  0999 V2000
   17.5777   -1.9130   49.9989 N   0  0  0  0  0  0  0  0  0  0  0  0
   17.5832    0.3859   49.5213 N   0  0  0  0  0  0  0  0  0  0  0  0
   16.9750   -3.0060   50.5372 C   0  0  0  0  0  0  0  0  0  0  0  0
   17.6756   -4.3323   50.4412 C   0  0  0  0  0  0  0  0  0  0  0  0
   13.8249   -1.5018   51.8502 C   0  0  0  0  0  0  0  0  0  0  0  0
   12.6656   -1.1693   51.1089 C   0  0  0  0  0  0  0  0  0  0  0  0
   11.4105   -1.0666   51.7376 C   0  0  0  0  0  0  0  0  0  0  0  0
   12.4283   -1.6073   53.9175 C   0  0  0  0  0  0  0  0  0  0  0  0
   13.6784   -1.7193   53.2659 C   0  0  0  0  0  0  0  0  0  0  0  0
   15.7508   -2.9277   51.1633 C   0  0  0  0  0  0  0  0  0  0  0  0
   11.3013   -1.2842   53.1293 C   0  0  0  0  0  0  0  0  0  0  0  0
   15.1594   -1.6776   51.2066 C   0  0  0  0  0  0  0  0  0  0  0  0
   16.9567   -0.7263   50.0748 C   0  0  0  0  0  0  0  0  0  0  0  0
   13.3160   -2.1117   56.1204 C   0  0  0  0  0  0  0  0  0  0  0  0
   15.7619   -0.5654   50.6709 N   0  0  0  0  0  0  0  0  0  0  0  0
   12.2200   -1.7896   55.2673 O   0  0  0  0  0  0  0  0  0  0  0  0
   12.7200   -0.8960   49.3884 Cl  0  0  0  0  0  0  0  0  0  0  0  0
    9.7195   -1.1449   53.8380 Cl  0  0  0  0  0  0  0  0  0  0  0  0
   18.4704    0.2691   49.0788 H   0  0  0  0  0  0  0  0  0  0  0  0
   17.1297    1.2733   49.5691 H   0  0  0  0  0  0  0  0  0  0  0  0
   17.0783   -5.1245   50.9171 H   0  0  0  0  0  0  0  0  0  0  0  0
   18.6467   -4.2893   50.9471 H   0  0  0  0  0  0  0  0  0  0  0  0
   17.8309   -4.6081   49.3922 H   0  0  0  0  0  0  0  0  0  0  0  0
   10.5267   -0.8165   51.1560 H   0  0  0  0  0  0  0  0  0  0  0  0
   14.5699   -1.9693   53.8343 H   0  0  0  0  0  0  0  0  0  0  0  0
   15.2685   -3.8048   51.5894 H   0  0  0  0  0  0  0  0  0  0  0  0
   12.9596   -2.2185   57.1602 H   0  0  0  0  0  0  0  0  0  0  0  0
   14.0672   -1.3150   56.1076 H   0  0  0  0  0  0  0  0  0  0  0  0
   13.7693   -3.0643   55.8265 H   0  0  0  0  0  0  0  0  0  0  0  0
  1  3  2  0  0  0  0
  1 13  1  0  0  0  0
  2 13  1  0  0  0  0
  2 19  1  0  0  0  0
  2 20  1  0  0  0  0
  3  4  1  0  0  0  0
  3 10  1  0  0  0  0
  4 21  1  0  0  0  0
  4 22  1  0  0  0  0
  4 23  1  0  0  0  0
  5  6  2  0  0  0  0
  5  9  1  0  0  0  0
  5 12  1  0  0  0  0
  6  7  1  0  0  0  0
  6 17  1  0  0  0  0
  7 11  2  0  0  0  0
  7 24  1  0  0  0  0
  8  9  2  0  0  0  0
  8 11  1  0  0  0  0
  8 16  1  0  0  0  0
  9 25  1  0  0  0  0
 10 12  2  0  0  0  0
 10 26  1  0  0  0  0
 11 18  1  0  0  0  0
 12 15  1  0  0  0  0
 13 15  2  0  0  0  0
 14 16  1  0  0  0  0
 14 27  1  0  0  0  0
 14 28  1  0  0  0  0
 14 29  1  0  0  0  0
M  END
$$$$
