3RR
 OpenBabel04091915013D

 35 37  0  0  0  0  0  0  0  0999 V2000
   17.4241   -1.8956   49.6107 N   0  0  0  0  0  0  0  0  0  0  0  0
   17.2764    0.3890   48.8599 N   0  3  0  0  0  0  0  0  0  0  0  0
   15.5933   -0.3567   50.1519 C   0  0  0  0  0  0  0  0  0  0  0  0
   15.3578    1.0242   49.8012 C   0  0  0  0  0  0  0  0  0  0  0  0
   16.4114    1.4507   48.9991 C   0  0  0  0  0  0  0  0  0  0  0  0
   17.3694   -4.1826   50.4793 C   0  0  0  0  0  0  0  0  0  0  0  0
   13.6712   -1.2802   51.5955 C   0  0  0  0  0  0  0  0  0  0  0  0
   11.2306   -1.0192   51.6229 C   0  0  0  0  0  0  0  0  0  0  0  0
   13.6278   -1.4527   53.0161 C   0  0  0  0  0  0  0  0  0  0  0  0
   14.2584    1.8519   50.1911 C   0  0  0  0  0  0  0  0  0  0  0  0
   12.4177   -1.3998   53.7392 C   0  0  0  0  0  0  0  0  0  0  0  0
   12.4448   -1.0680   50.9191 C   0  0  0  0  0  0  0  0  0  0  0  0
   11.2215   -1.1861   53.0170 C   0  0  0  0  0  0  0  0  0  0  0  0
   14.9667   -1.3895   50.8913 C   0  0  0  0  0  0  0  0  0  0  0  0
   16.8017   -0.7021   49.5491 C   0  0  0  0  0  0  0  0  0  0  0  0
   16.7588   -2.8101   50.3428 C   0  0  0  0  0  0  0  0  0  0  0  0
   16.6858    2.7594   48.3515 C   0  0  0  0  0  0  0  0  0  0  0  0
   13.4709   -1.7527   55.8971 C   0  0  0  0  0  0  0  0  0  0  0  0
   13.3599    2.5211   50.5401 N   0  0  0  0  0  0  0  0  0  0  0  0
   15.5834   -2.6060   50.9763 N   0  0  0  0  0  0  0  0  0  0  0  0
   12.3010   -1.5403   55.1051 O   0  0  0  0  0  0  0  0  0  0  0  0
   12.3683   -0.8545   49.1915 Cl  0  0  0  0  0  0  0  0  0  0  0  0
    9.6798   -1.1241   53.8178 Cl  0  0  0  0  0  0  0  0  0  0  0  0
   18.1418    0.4044   48.3267 H   0  0  0  0  0  0  0  0  0  0  0  0
   18.3193   -4.2338   49.9335 H   0  0  0  0  0  0  0  0  0  0  0  0
   16.6889   -4.9422   50.0727 H   0  0  0  0  0  0  0  0  0  0  0  0
   17.5593   -4.4104   51.5367 H   0  0  0  0  0  0  0  0  0  0  0  0
   10.2931   -0.8488   51.0881 H   0  0  0  0  0  0  0  0  0  0  0  0
   14.5708   -1.6232   53.5398 H   0  0  0  0  0  0  0  0  0  0  0  0
   15.8863    3.4737   48.5767 H   0  0  0  0  0  0  0  0  0  0  0  0
   16.7491    2.6332   47.2644 H   0  0  0  0  0  0  0  0  0  0  0  0
   17.6351    3.1662   48.7189 H   0  0  0  0  0  0  0  0  0  0  0  0
   13.1815   -1.8408   56.9591 H   0  0  0  0  0  0  0  0  0  0  0  0
   14.1573   -0.9064   55.8017 H   0  0  0  0  0  0  0  0  0  0  0  0
   13.9691   -2.6809   55.6031 H   0  0  0  0  0  0  0  0  0  0  0  0
  1 15  1  0  0  0  0
  1 16  1  0  0  0  0
  2  5  1  0  0  0  0
  2 15  2  0  0  0  0
  2 24  1  0  0  0  0
  3  4  1  0  0  0  0
  3 14  2  0  0  0  0
  3 15  1  0  0  0  0
  4  5  2  0  0  0  0
  4 10  1  0  0  0  0
  5 17  1  0  0  0  0
  6 16  1  0  0  0  0
  6 25  1  0  0  0  0
  6 26  1  0  0  0  0
  6 27  1  0  0  0  0
  7  9  2  0  0  0  0
  7 12  1  0  0  0  0
  7 14  1  0  0  0  0
  8 12  2  0  0  0  0
  8 13  1  0  0  0  0
  8 28  1  0  0  0  0
  9 11  1  0  0  0  0
  9 29  1  0  0  0  0
 10 19  3  0  0  0  0
 11 13  2  0  0  0  0
 11 21  1  0  0  0  0
 12 22  1  0  0  0  0
 13 23  1  0  0  0  0
 14 20  1  0  0  0  0
 16 20  2  0  0  0  0
 17 30  1  0  0  0  0
 17 31  1  0  0  0  0
 17 32  1  0  0  0  0
 18 21  1  0  0  0  0
 18 33  1  0  0  0  0
 18 34  1  0  0  0  0
 18 35  1  0  0  0  0
M  CHG  1   2   1
M  END
$$$$
