3TL
 OpenBabel04091915173D

130133  0  0  1  0  0  0  0  0999 V2000
   -0.2591    2.5241   18.4193 C   0  0  0  0  0  0  0  0  0  0  0  0
   -1.1733    3.3338   18.4676 O   0  0  0  0  0  0  0  0  0  0  0  0
    0.0881    1.6474   19.3735 O   0  0  0  0  0  0  0  0  0  0  0  0
   -0.9700    1.0874   20.1648 C   0  0  0  0  0  0  0  0  0  0  0  0
   -0.3977    0.4462   21.4111 C   0  0  0  0  0  0  0  0  0  0  0  0
   -1.2522   -0.0174   22.4159 C   0  0  0  0  0  0  0  0  0  0  0  0
   -0.7226   -0.6066   23.5710 C   0  0  0  0  0  0  0  0  0  0  0  0
    0.6591   -0.7430   23.7358 C   0  0  0  0  0  0  0  0  0  0  0  0
    1.5156   -0.2975   22.7375 C   0  0  0  0  0  0  0  0  0  0  0  0
    0.9848    0.2844   21.5868 C   0  0  0  0  0  0  0  0  0  0  0  0
    0.5529    2.3494   17.3515 N   0  0  0  0  0  0  0  0  0  0  0  0
    0.3719    3.0620   16.1236 C   0  0  2  0  0  0  0  0  0  0  0  0
   -0.4329    2.1871   15.1724 C   0  0  0  0  0  0  0  0  0  0  0  0
   -0.0491    1.0772   14.8096 O   0  0  0  0  0  0  0  0  0  0  0  0
    1.7466    3.2016   15.5506 C   0  0  0  0  0  0  0  0  0  0  0  0
   -1.6506    2.6942   14.8292 N   0  0  0  0  0  0  0  0  0  0  0  0
   -2.5968    1.9609   14.0035 C   0  0  2  0  0  0  0  0  0  0  0  0
   -2.8773    2.8383   12.7770 C   0  0  0  0  0  0  0  0  0  0  0  0
   -3.7002    3.7527   12.8282 O   0  0  0  0  0  0  0  0  0  0  0  0
   -3.8862    1.7095   14.8055 C   0  0  0  0  0  0  0  0  0  0  0  0
   -3.6159    0.8863   16.0660 C   0  0  0  0  0  0  0  0  0  0  0  0
   -4.9197    0.9999   13.9335 C   0  0  0  0  0  0  0  0  0  0  0  0
   -2.5538    2.5658    9.2225 C   0  0  2  0  0  0  0  0  0  0  0  0
   -1.3566    1.7719    9.0428 O   0  0  0  0  0  0  0  0  0  0  0  0
   -2.3366    3.4381   10.4385 C   0  0  1  0  0  0  0  0  0  0  0  0
   -2.1325    2.6073   11.6428 N   0  0  0  0  0  0  0  0  0  0  0  0
   -1.1483    4.3162   10.0330 C   0  0  0  0  0  0  0  0  0  0  0  0
   -0.4192    4.8503   11.2006 C   0  0  0  0  0  0  0  0  0  0  0  0
   -0.9962    5.9090   11.9038 C   0  0  0  0  0  0  0  0  0  0  0  0
    0.7846    4.2687   11.5928 C   0  0  0  0  0  0  0  0  0  0  0  0
   -0.3710    6.3953   13.0295 C   0  0  0  0  0  0  0  0  0  0  0  0
    1.4265    4.7982   12.6900 C   0  0  0  0  0  0  0  0  0  0  0  0
    0.8366    5.8339   13.4273 C   0  0  0  0  0  0  0  0  0  0  0  0
   -5.2305    2.9493    7.9086 N   0  0  0  0  0  0  0  0  0  0  0  0
   -5.0558    2.3009    9.2189 C   0  0  2  0  0  0  0  0  0  0  0  0
   -3.7015    1.6179    9.3628 C   0  0  1  0  0  0  0  0  0  0  0  0
   -3.5034    0.6303    8.3332 O   0  0  0  0  0  0  0  0  0  0  0  0
   -6.0563    1.1697    9.3915 C   0  0  0  0  0  0  0  0  0  0  0  0
   -7.4274    1.7124    9.2265 C   0  0  0  0  0  0  0  0  0  0  0  0
   -8.1836    1.2990    8.1383 C   0  0  0  0  0  0  0  0  0  0  0  0
   -7.8898    2.6941   10.1090 C   0  0  0  0  0  0  0  0  0  0  0  0
   -9.4460    1.8413    7.9855 C   0  0  0  0  0  0  0  0  0  0  0  0
   -9.1395    3.2564    9.9184 C   0  0  0  0  0  0  0  0  0  0  0  0
   -9.9137    2.8277    8.8488 C   0  0  0  0  0  0  0  0  0  0  0  0
   -7.2475    5.0385    6.1366 N   0  0  0  0  0  0  0  0  0  0  0  0
   -5.8197    4.7276    6.3008 C   0  0  2  0  0  0  0  0  0  0  0  0
   -5.6205    4.2639    7.7452 C   0  0  0  0  0  0  0  0  0  0  0  0
   -5.7421    5.0268    8.7034 O   0  0  0  0  0  0  0  0  0  0  0  0
   -4.9797    5.9790    6.0016 C   0  0  0  0  0  0  0  0  0  0  0  0
   -3.5184    5.8406    6.4211 C   0  0  0  0  0  0  0  0  0  0  0  0
   -5.0829    6.4737    4.5549 C   0  0  0  0  0  0  0  0  0  0  0  0
   -9.5786    5.3866    3.5984 N   0  0  0  0  0  0  0  0  0  0  0  0
   -9.4014    4.8934    4.9494 C   0  0  2  0  0  0  0  0  0  0  0  0
   -7.9358    4.4879    5.1058 C   0  0  0  0  0  0  0  0  0  0  0  0
   -7.3874    3.7702    4.2579 O   0  0  0  0  0  0  0  0  0  0  0  0
  -10.3443    3.7398    5.1172 C   0  0  0  0  0  0  0  0  0  0  0  0
   -9.4900    6.7494    3.3827 C   0  0  0  0  0  0  0  0  0  0  0  0
   -9.3813    7.5725    4.2434 O   0  0  0  0  0  0  0  0  0  0  0  0
   -9.5099    6.9802    2.0361 O   0  0  0  0  0  0  0  0  0  0  0  0
   -8.6021    8.0209    1.6756 C   0  0  0  0  0  0  0  0  0  0  0  0
   -8.6330    8.2608    0.1875 C   0  0  0  0  0  0  0  0  0  0  0  0
   -9.4506    9.2427   -0.3887 C   0  0  0  0  0  0  0  0  0  0  0  0
   -9.4387    9.4471   -1.7749 C   0  0  0  0  0  0  0  0  0  0  0  0
   -8.6156    8.6704   -2.5878 C   0  0  0  0  0  0  0  0  0  0  0  0
   -7.8021    7.6895   -2.0240 C   0  0  0  0  0  0  0  0  0  0  0  0
   -7.8088    7.4911   -0.6444 C   0  0  0  0  0  0  0  0  0  0  0  0
   -1.4322    0.2985   19.5577 H   0  0  0  0  0  0  0  0  0  0  0  0
   -1.7256    1.8261   20.4523 H   0  0  0  0  0  0  0  0  0  0  0  0
   -2.3308    0.0842   22.3111 H   0  0  0  0  0  0  0  0  0  0  0  0
   -1.3893   -0.9514   24.3532 H   0  0  0  0  0  0  0  0  0  0  0  0
    1.0600   -1.1963   24.6372 H   0  0  0  0  0  0  0  0  0  0  0  0
    2.5935   -0.3946   22.8453 H   0  0  0  0  0  0  0  0  0  0  0  0
    1.6661    0.6303   20.8144 H   0  0  0  0  0  0  0  0  0  0  0  0
    1.3146    1.6864   17.3877 H   0  0  0  0  0  0  0  0  0  0  0  0
   -0.1137    4.0290   16.3071 H   0  0  0  0  0  0  0  0  0  0  0  0
    1.6664    3.7223   14.6261 H   0  0  0  0  0  0  0  0  0  0  0  0
    2.1863    2.2229   15.3351 H   0  0  0  0  0  0  0  0  0  0  0  0
    2.3973    3.7553   16.2211 H   0  0  0  0  0  0  0  0  0  0  0  0
   -1.9045    3.6225   15.1544 H   0  0  0  0  0  0  0  0  0  0  0  0
   -2.1779    1.0051   13.6767 H   0  0  0  0  0  0  0  0  0  0  0  0
   -4.3086    2.6722   15.1221 H   0  0  0  0  0  0  0  0  0  0  0  0
   -4.5496    0.6986   16.6060 H   0  0  0  0  0  0  0  0  0  0  0  0
   -2.9423    1.4204   16.7443 H   0  0  0  0  0  0  0  0  0  0  0  0
   -3.1594   -0.0785   15.8192 H   0  0  0  0  0  0  0  0  0  0  0  0
   -5.1244    1.5715   13.0225 H   0  0  0  0  0  0  0  0  0  0  0  0
   -5.8634    0.8920   14.4753 H   0  0  0  0  0  0  0  0  0  0  0  0
   -4.5685    0.0056   13.6383 H   0  0  0  0  0  0  0  0  0  0  0  0
   -2.7102    3.1912    8.3350 H   0  0  0  0  0  0  0  0  0  0  0  0
   -1.4440    1.3030    8.1984 H   0  0  0  0  0  0  0  0  0  0  0  0
   -3.2120    4.0803   10.5936 H   0  0  0  0  0  0  0  0  0  0  0  0
   -1.4613    1.8426   11.6084 H   0  0  0  0  0  0  0  0  0  0  0  0
   -1.5071    5.1539    9.4196 H   0  0  0  0  0  0  0  0  0  0  0  0
   -0.4343    3.7763    9.4000 H   0  0  0  0  0  0  0  0  0  0  0  0
   -1.9394    6.3313   11.5634 H   0  0  0  0  0  0  0  0  0  0  0  0
    1.2164    3.4308   11.0474 H   0  0  0  0  0  0  0  0  0  0  0  0
   -0.8152    7.2163   13.5819 H   0  0  0  0  0  0  0  0  0  0  0  0
    2.3767    4.3717   13.0031 H   0  0  0  0  0  0  0  0  0  0  0  0
    1.3212    6.2028   14.3238 H   0  0  0  0  0  0  0  0  0  0  0  0
   -5.2293    2.3518    7.0956 H   0  0  0  0  0  0  0  0  0  0  0  0
   -5.1821    3.0478   10.0148 H   0  0  0  0  0  0  0  0  0  0  0  0
   -3.6834    1.1063   10.3337 H   0  0  0  0  0  0  0  0  0  0  0  0
   -2.6561    0.2043    8.5585 H   0  0  0  0  0  0  0  0  0  0  0  0
   -5.9550    0.7159   10.3851 H   0  0  0  0  0  0  0  0  0  0  0  0
   -5.8679    0.3846    8.6458 H   0  0  0  0  0  0  0  0  0  0  0  0
   -7.7914    0.5688    7.4349 H   0  0  0  0  0  0  0  0  0  0  0  0
   -7.2558    3.0337   10.9265 H   0  0  0  0  0  0  0  0  0  0  0  0
  -10.0554    1.5024    7.1486 H   0  0  0  0  0  0  0  0  0  0  0  0
   -9.4972    4.0156   10.6071 H   0  0  0  0  0  0  0  0  0  0  0  0
  -10.8976    3.2604    8.6898 H   0  0  0  0  0  0  0  0  0  0  0  0
   -7.6701    5.7050    6.7870 H   0  0  0  0  0  0  0  0  0  0  0  0
   -5.5522    3.9083    5.6291 H   0  0  0  0  0  0  0  0  0  0  0  0
   -5.3989    6.7796    6.6208 H   0  0  0  0  0  0  0  0  0  0  0  0
   -2.9678    6.7453    6.1473 H   0  0  0  0  0  0  0  0  0  0  0  0
   -3.0309    4.9781    5.9561 H   0  0  0  0  0  0  0  0  0  0  0  0
   -3.4446    5.7353    7.5094 H   0  0  0  0  0  0  0  0  0  0  0  0
   -6.1257    6.5530    4.2325 H   0  0  0  0  0  0  0  0  0  0  0  0
   -4.5518    5.8266    3.8492 H   0  0  0  0  0  0  0  0  0  0  0  0
   -4.6496    7.4792    4.4833 H   0  0  0  0  0  0  0  0  0  0  0  0
   -9.4816    4.7502    2.8358 H   0  0  0  0  0  0  0  0  0  0  0  0
   -9.6541    5.6980    5.6319 H   0  0  0  0  0  0  0  0  0  0  0  0
  -10.2164    3.3531    6.0999 H   0  0  0  0  0  0  0  0  0  0  0  0
  -10.1812    2.9531    4.3768 H   0  0  0  0  0  0  0  0  0  0  0  0
  -11.3690    4.1129    5.0025 H   0  0  0  0  0  0  0  0  0  0  0  0
   -7.5946    7.6778    1.9397 H   0  0  0  0  0  0  0  0  0  0  0  0
   -8.8061    8.9548    2.2061 H   0  0  0  0  0  0  0  0  0  0  0  0
  -10.0985    9.8558    0.2354 H   0  0  0  0  0  0  0  0  0  0  0  0
  -10.0756   10.2111   -2.2178 H   0  0  0  0  0  0  0  0  0  0  0  0
   -8.6079    8.8237   -3.6631 H   0  0  0  0  0  0  0  0  0  0  0  0
   -7.1653    7.0753   -2.6554 H   0  0  0  0  0  0  0  0  0  0  0  0
   -7.1653    6.7304   -0.2092 H   0  0  0  0  0  0  0  0  0  0  0  0
  1  2  2  0  0  0  0
  1  3  1  0  0  0  0
  1 11  1  0  0  0  0
  3  4  1  0  0  0  0
  4  5  1  0  0  0  0
  4 67  1  0  0  0  0
  4 68  1  0  0  0  0
  5  6  2  0  0  0  0
  5 10  1  0  0  0  0
  6  7  1  0  0  0  0
  6 69  1  0  0  0  0
  7  8  2  0  0  0  0
  7 70  1  0  0  0  0
  8  9  1  0  0  0  0
  8 71  1  0  0  0  0
  9 10  2  0  0  0  0
  9 72  1  0  0  0  0
 10 73  1  0  0  0  0
 11 12  1  0  0  0  0
 11 74  1  0  0  0  0
 12 13  1  0  0  0  0
 12 15  1  0  0  0  0
 12 75  1  1  0  0  0
 13 14  2  0  0  0  0
 13 16  1  0  0  0  0
 15 76  1  0  0  0  0
 15 77  1  0  0  0  0
 15 78  1  0  0  0  0
 16 17  1  0  0  0  0
 16 79  1  0  0  0  0
 17 18  1  0  0  0  0
 17 20  1  0  0  0  0
 17 80  1  6  0  0  0
 18 19  2  0  0  0  0
 18 26  1  0  0  0  0
 20 21  1  0  0  0  0
 20 22  1  0  0  0  0
 20 81  1  0  0  0  0
 21 82  1  0  0  0  0
 21 83  1  0  0  0  0
 21 84  1  0  0  0  0
 22 85  1  0  0  0  0
 22 86  1  0  0  0  0
 22 87  1  0  0  0  0
 23 24  1  0  0  0  0
 23 25  1  0  0  0  0
 23 36  1  0  0  0  0
 23 88  1  6  0  0  0
 24 89  1  0  0  0  0
 25 26  1  0  0  0  0
 25 27  1  0  0  0  0
 25 90  1  1  0  0  0
 26 91  1  0  0  0  0
 27 28  1  0  0  0  0
 27 92  1  0  0  0  0
 27 93  1  0  0  0  0
 28 29  2  0  0  0  0
 28 30  1  0  0  0  0
 29 31  1  0  0  0  0
 29 94  1  0  0  0  0
 30 32  2  0  0  0  0
 30 95  1  0  0  0  0
 31 33  2  0  0  0  0
 31 96  1  0  0  0  0
 32 33  1  0  0  0  0
 32 97  1  0  0  0  0
 33 98  1  0  0  0  0
 34 35  1  0  0  0  0
 34 47  1  0  0  0  0
 34 99  1  0  0  0  0
 35 36  1  0  0  0  0
 35 38  1  0  0  0  0
 35100  1  1  0  0  0
 36 37  1  0  0  0  0
 36101  1  1  0  0  0
 37102  1  0  0  0  0
 38 39  1  0  0  0  0
 38103  1  0  0  0  0
 38104  1  0  0  0  0
 39 40  2  0  0  0  0
 39 41  1  0  0  0  0
 40 42  1  0  0  0  0
 40105  1  0  0  0  0
 41 43  2  0  0  0  0
 41106  1  0  0  0  0
 42 44  2  0  0  0  0
 42107  1  0  0  0  0
 43 44  1  0  0  0  0
 43108  1  0  0  0  0
 44109  1  0  0  0  0
 45 46  1  0  0  0  0
 45 54  1  0  0  0  0
 45110  1  0  0  0  0
 46 47  1  0  0  0  0
 46 49  1  0  0  0  0
 46111  1  6  0  0  0
 47 48  2  0  0  0  0
 49 50  1  0  0  0  0
 49 51  1  0  0  0  0
 49112  1  0  0  0  0
 50113  1  0  0  0  0
 50114  1  0  0  0  0
 50115  1  0  0  0  0
 51116  1  0  0  0  0
 51117  1  0  0  0  0
 51118  1  0  0  0  0
 52 53  1  0  0  0  0
 52 57  1  0  0  0  0
 52119  1  0  0  0  0
 53 54  1  0  0  0  0
 53 56  1  0  0  0  0
 53120  1  1  0  0  0
 54 55  2  0  0  0  0
 56121  1  0  0  0  0
 56122  1  0  0  0  0
 56123  1  0  0  0  0
 57 58  2  0  0  0  0
 57 59  1  0  0  0  0
 59 60  1  0  0  0  0
 60 61  1  0  0  0  0
 60124  1  0  0  0  0
 60125  1  0  0  0  0
 61 62  2  0  0  0  0
 61 66  1  0  0  0  0
 62 63  1  0  0  0  0
 62126  1  0  0  0  0
 63 64  2  0  0  0  0
 63127  1  0  0  0  0
 64 65  1  0  0  0  0
 64128  1  0  0  0  0
 65 66  2  0  0  0  0
 65129  1  0  0  0  0
 66130  1  0  0  0  0
M  END
$$$$
