3YY
 OpenBabel04091914453D

 38 41  0  0  1  0  0  0  0  0999 V2000
   18.1109   11.8318  -38.0940 C   0  0  0  0  0  0  0  0  0  0  0  0
   16.7831   11.5683  -38.3879 C   0  0  0  0  0  0  0  0  0  0  0  0
   18.7822   11.1391  -37.0958 C   0  0  0  0  0  0  0  0  0  0  0  0
   15.6480    5.0101  -33.7595 C   0  0  0  0  0  0  0  0  0  0  0  0
   17.3301    6.4935  -32.8868 C   0  0  0  0  0  0  0  0  0  0  0  0
   16.1063   10.6029  -37.6673 C   0  0  0  0  0  0  0  0  0  0  0  0
   18.1205   10.1607  -36.3860 C   0  0  0  0  0  0  0  0  0  0  0  0
   16.0891    4.0195  -32.8847 C   0  0  0  0  0  0  0  0  0  0  0  0
   17.7644    5.5061  -32.0155 C   0  0  0  0  0  0  0  0  0  0  0  0
   14.7594    8.7691  -35.8847 C   0  0  0  0  0  0  0  0  0  0  0  0
   16.2663    6.2521  -33.7557 C   0  0  0  0  0  0  0  0  0  0  0  0
   14.5518    7.7196  -35.0325 C   0  0  0  0  0  0  0  0  0  0  0  0
   16.7851    9.9039  -36.6836 C   0  0  0  0  0  0  0  0  0  0  0  0
   17.1398    4.2686  -32.0217 C   0  0  0  0  0  0  0  0  0  0  0  0
   15.8539    7.2991  -34.6590 C   0  0  0  0  0  0  0  0  0  0  0  0
   12.6498    6.2499  -35.6510 C   0  0  0  0  0  0  0  0  0  0  0  0
   11.2179    7.9736  -35.5123 C   0  0  0  0  0  0  0  0  0  0  0  0
   13.2506    7.1903  -34.6147 C   0  0  2  0  0  0  0  0  0  0  0  0
   16.7828    8.0522  -35.2245 N   0  0  0  0  0  0  0  0  0  0  0  0
   16.1072    8.9375  -35.9643 N   0  3  0  0  0  0  0  0  0  0  0  0
   11.5113    6.8028  -36.1362 N   0  0  0  0  0  0  0  0  0  0  0  0
   12.2544    8.2359  -34.6319 N   0  0  0  0  0  0  0  0  0  0  0  0
   13.1131    5.1680  -35.9956 O   0  0  0  0  0  0  0  0  0  0  0  0
   10.2496    8.6800  -35.6841 O   0  0  0  0  0  0  0  0  0  0  0  0
   17.5452    3.3111  -31.1849 F   0  0  0  0  0  0  0  0  0  0  0  0
   18.6421   12.5998  -38.6578 H   0  0  0  0  0  0  0  0  0  0  0  0
   16.2759   12.1202  -39.1718 H   0  0  0  0  0  0  0  0  0  0  0  0
   19.8222   11.3591  -36.8786 H   0  0  0  0  0  0  0  0  0  0  0  0
   14.8340    4.7975  -34.4405 H   0  0  0  0  0  0  0  0  0  0  0  0
   17.8172    7.4667  -32.8963 H   0  0  0  0  0  0  0  0  0  0  0  0
   15.0735   10.3826  -37.9062 H   0  0  0  0  0  0  0  0  0  0  0  0
   18.6237    9.6192  -35.5894 H   0  0  0  0  0  0  0  0  0  0  0  0
   15.6046    3.0537  -32.8884 H   0  0  0  0  0  0  0  0  0  0  0  0
   18.5835    5.7032  -31.3386 H   0  0  0  0  0  0  0  0  0  0  0  0
   14.0352    9.3986  -36.3834 H   0  0  0  0  0  0  0  0  0  0  0  0
   13.2945    6.7159  -33.6355 H   0  0  0  0  0  0  0  0  0  0  0  0
   10.9277    6.3876  -36.8520 H   0  0  0  0  0  0  0  0  0  0  0  0
   12.3185    9.0955  -34.1049 H   0  0  0  0  0  0  0  0  0  0  0  0
  1  2  2  0  0  0  0
  1  3  1  0  0  0  0
  1 26  1  0  0  0  0
  2  6  1  0  0  0  0
  2 27  1  0  0  0  0
  3  7  2  0  0  0  0
  3 28  1  0  0  0  0
  4  8  2  0  0  0  0
  4 11  1  0  0  0  0
  4 29  1  0  0  0  0
  5  9  1  0  0  0  0
  5 11  2  0  0  0  0
  5 30  1  0  0  0  0
  6 13  2  0  0  0  0
  6 31  1  0  0  0  0
  7 13  1  0  0  0  0
  7 32  1  0  0  0  0
  8 14  1  0  0  0  0
  8 33  1  0  0  0  0
  9 14  2  0  0  0  0
  9 34  1  0  0  0  0
 10 12  1  0  0  0  0
 10 20  2  0  0  0  0
 10 35  1  0  0  0  0
 11 15  1  0  0  0  0
 12 15  2  0  0  0  0
 12 18  1  0  0  0  0
 13 20  1  0  0  0  0
 14 25  1  0  0  0  0
 15 19  1  0  0  0  0
 16 18  1  0  0  0  0
 16 21  1  0  0  0  0
 16 23  2  0  0  0  0
 17 21  1  0  0  0  0
 17 22  1  0  0  0  0
 17 24  2  0  0  0  0
 18 22  1  0  0  0  0
 18 36  1  1  0  0  0
 19 20  1  0  0  0  0
 21 37  1  0  0  0  0
 22 38  1  0  0  0  0
M  CHG  1  20   1
M  END
$$$$
