419
 OpenBabel04091912253D

 81 84  0  0  1  0  0  0  0  0999 V2000
   85.3726   62.2529   13.1860 O   0  0  0  0  0  0  0  0  0  0  0  0
   84.7638   61.7815   14.1537 C   0  0  0  0  0  0  0  0  0  0  0  0
   85.5513   61.2731   15.3718 C   0  0  1  0  0  0  0  0  0  0  0  0
   86.9823   60.9404   14.9728 N   0  3  0  0  0  0  0  0  0  0  0  0
   87.1155   59.7751   14.0492 C   0  0  0  0  0  0  0  0  0  0  0  0
   85.5859   62.3304   16.4660 C   0  0  0  0  0  0  0  0  0  0  0  0
   83.4074   61.6184   14.1958 N   0  0  0  0  0  0  0  0  0  0  0  0
   82.5228   61.9783   13.0707 C   0  0  1  0  0  0  0  0  0  0  0  0
   82.0535   60.7053   12.2858 C   0  0  0  0  0  0  0  0  0  0  0  0
   83.2744   59.8521   11.8686 C   0  0  0  0  0  0  0  0  0  0  0  0
   81.1079   59.8019   13.1042 C   0  0  0  0  0  0  0  0  0  0  0  0
   81.3237   61.1183   10.9958 C   0  0  0  0  0  0  0  0  0  0  0  0
   81.3611   62.7899   13.7055 C   0  0  0  0  0  0  0  0  0  0  0  0
   80.9360   62.4569   14.8180 O   0  0  0  0  0  0  0  0  0  0  0  0
   80.8135   63.8444   13.0081 N   0  0  0  0  0  0  0  0  0  0  0  0
   79.5647   64.4798   13.4558 C   0  0  1  0  0  0  0  0  0  0  0  0
   81.3940   64.5552   11.8801 C   0  0  0  0  0  0  0  0  0  0  0  0
   80.8044   65.9529   11.9765 C   0  0  0  0  0  0  0  0  0  0  0  0
   79.4165   65.7407   12.5781 C   0  0  1  0  0  0  0  0  0  0  0  0
   78.3267   65.4298   11.5422 C   0  0  0  0  0  0  0  0  0  0  0  0
   78.0329   63.9410   11.6719 C   0  0  0  0  0  0  0  0  0  0  0  0
   78.3150   63.6240   13.1404 C   0  0  2  0  0  0  0  0  0  0  0  0
   77.1774   63.9873   13.9836 N   0  0  0  0  0  0  0  0  0  0  0  0
   76.6442   63.0991   14.9058 C   0  0  0  0  0  0  0  0  0  0  0  0
   77.0513   61.9420   15.0033 O   0  0  0  0  0  0  0  0  0  0  0  0
   75.5103   63.6758   15.7855 C   0  0  0  0  0  0  0  0  0  0  0  0
   75.9024   63.9031   17.2541 C   0  0  0  0  0  0  0  0  0  0  0  0
   75.0382   64.6481   18.0812 C   0  0  0  0  0  0  0  0  0  0  0  0
   75.3293   64.8521   19.4328 C   0  0  0  0  0  0  0  0  0  0  0  0
   76.4940   64.3221   19.9838 C   0  0  0  0  0  0  0  0  0  0  0  0
   77.3662   63.5902   19.1830 C   0  0  0  0  0  0  0  0  0  0  0  0
   77.0731   63.3809   17.8295 C   0  0  0  0  0  0  0  0  0  0  0  0
   74.2416   62.8458   15.5798 C   0  0  0  0  0  0  0  0  0  0  0  0
   73.8829   61.8038   16.4495 C   0  0  0  0  0  0  0  0  0  0  0  0
   72.7452   61.0322   16.2069 C   0  0  0  0  0  0  0  0  0  0  0  0
   71.9598   61.2779   15.0835 C   0  0  0  0  0  0  0  0  0  0  0  0
   72.3093   62.2970   14.2012 C   0  0  0  0  0  0  0  0  0  0  0  0
   73.4418   63.0760   14.4458 C   0  0  0  0  0  0  0  0  0  0  0  0
   85.1071   60.3458   15.7480 H   0  0  0  0  0  0  0  0  0  0  0  0
   87.3521   61.7654   14.4784 H   0  0  0  0  0  0  0  0  0  0  0  0
   88.1788   59.6517   13.8317 H   0  0  0  0  0  0  0  0  0  0  0  0
   86.5684   59.9809   13.1268 H   0  0  0  0  0  0  0  0  0  0  0  0
   86.7213   58.8888   14.5517 H   0  0  0  0  0  0  0  0  0  0  0  0
   84.5709   62.5949   16.7817 H   0  0  0  0  0  0  0  0  0  0  0  0
   86.0709   63.2523   16.1250 H   0  0  0  0  0  0  0  0  0  0  0  0
   86.1263   61.9689   17.3477 H   0  0  0  0  0  0  0  0  0  0  0  0
   82.9174   61.3691   15.0530 H   0  0  0  0  0  0  0  0  0  0  0  0
   83.0963   62.6186   12.3973 H   0  0  0  0  0  0  0  0  0  0  0  0
   82.9639   58.9658   11.3031 H   0  0  0  0  0  0  0  0  0  0  0  0
   83.8359   59.4890   12.7362 H   0  0  0  0  0  0  0  0  0  0  0  0
   83.9595   60.4271   11.2364 H   0  0  0  0  0  0  0  0  0  0  0  0
   80.1994   60.3301   13.4104 H   0  0  0  0  0  0  0  0  0  0  0  0
   81.5964   59.4094   14.0021 H   0  0  0  0  0  0  0  0  0  0  0  0
   80.7826   58.9396   12.5077 H   0  0  0  0  0  0  0  0  0  0  0  0
   81.9551   61.7657   10.3779 H   0  0  0  0  0  0  0  0  0  0  0  0
   80.3932   61.6482   11.2137 H   0  0  0  0  0  0  0  0  0  0  0  0
   81.0627   60.2415   10.3914 H   0  0  0  0  0  0  0  0  0  0  0  0
   79.6495   64.7208   14.5219 H   0  0  0  0  0  0  0  0  0  0  0  0
   81.0733   64.0579   10.9606 H   0  0  0  0  0  0  0  0  0  0  0  0
   82.4850   64.5726   11.9224 H   0  0  0  0  0  0  0  0  0  0  0  0
   80.7931   66.4713   11.0131 H   0  0  0  0  0  0  0  0  0  0  0  0
   81.4074   66.5536   12.6693 H   0  0  0  0  0  0  0  0  0  0  0  0
   79.1154   66.6175   13.1635 H   0  0  0  0  0  0  0  0  0  0  0  0
   78.6075   65.7043   10.5205 H   0  0  0  0  0  0  0  0  0  0  0  0
   77.4215   65.9973   11.7902 H   0  0  0  0  0  0  0  0  0  0  0  0
   78.7175   63.3788   11.0262 H   0  0  0  0  0  0  0  0  0  0  0  0
   77.0120   63.6951   11.3644 H   0  0  0  0  0  0  0  0  0  0  0  0
   78.5245   62.5558   13.2554 H   0  0  0  0  0  0  0  0  0  0  0  0
   76.7649   64.9055   13.8853 H   0  0  0  0  0  0  0  0  0  0  0  0
   75.2890   64.6860   15.4068 H   0  0  0  0  0  0  0  0  0  0  0  0
   74.1122   65.0559   17.6796 H   0  0  0  0  0  0  0  0  0  0  0  0
   74.6384   65.4136   20.0576 H   0  0  0  0  0  0  0  0  0  0  0  0
   76.7124   64.4717   21.0377 H   0  0  0  0  0  0  0  0  0  0  0  0
   78.2710   63.1656   19.6116 H   0  0  0  0  0  0  0  0  0  0  0  0
   77.7729   62.7841   17.2469 H   0  0  0  0  0  0  0  0  0  0  0  0
   74.4913   61.5746   17.3223 H   0  0  0  0  0  0  0  0  0  0  0  0
   72.4799   60.2312   16.8920 H   0  0  0  0  0  0  0  0  0  0  0  0
   71.0809   60.6682   14.8919 H   0  0  0  0  0  0  0  0  0  0  0  0
   71.7033   62.4786   13.3174 H   0  0  0  0  0  0  0  0  0  0  0  0
   73.7029   63.8548   13.7331 H   0  0  0  0  0  0  0  0  0  0  0  0
   87.5656   60.7885   15.8053 H   0  0  0  0  0  0  0  0  0  0  0  0
  1  2  2  0  0  0  0
  2  3  1  0  0  0  0
  2  7  1  0  0  0  0
  3  4  1  0  0  0  0
  3  6  1  0  0  0  0
  3 39  1  1  0  0  0
  4  5  1  0  0  0  0
  4 40  1  0  0  0  0
  4 81  1  0  0  0  0
  5 41  1  0  0  0  0
  5 42  1  0  0  0  0
  5 43  1  0  0  0  0
  6 44  1  0  0  0  0
  6 45  1  0  0  0  0
  6 46  1  0  0  0  0
  7  8  1  0  0  0  0
  7 47  1  0  0  0  0
  8  9  1  0  0  0  0
  8 13  1  0  0  0  0
  8 48  1  6  0  0  0
  9 10  1  0  0  0  0
  9 11  1  0  0  0  0
  9 12  1  0  0  0  0
 10 49  1  0  0  0  0
 10 50  1  0  0  0  0
 10 51  1  0  0  0  0
 11 52  1  0  0  0  0
 11 53  1  0  0  0  0
 11 54  1  0  0  0  0
 12 55  1  0  0  0  0
 12 56  1  0  0  0  0
 12 57  1  0  0  0  0
 13 14  2  0  0  0  0
 13 15  1  0  0  0  0
 15 16  1  0  0  0  0
 15 17  1  0  0  0  0
 16 19  1  0  0  0  0
 16 22  1  0  0  0  0
 16 58  1  1  0  0  0
 17 18  1  0  0  0  0
 17 59  1  0  0  0  0
 17 60  1  0  0  0  0
 18 19  1  0  0  0  0
 18 61  1  0  0  0  0
 18 62  1  0  0  0  0
 19 20  1  0  0  0  0
 19 63  1  1  0  0  0
 20 21  1  0  0  0  0
 20 64  1  0  0  0  0
 20 65  1  0  0  0  0
 21 22  1  0  0  0  0
 21 66  1  0  0  0  0
 21 67  1  0  0  0  0
 22 23  1  0  0  0  0
 22 68  1  1  0  0  0
 23 24  1  0  0  0  0
 23 69  1  0  0  0  0
 24 25  2  0  0  0  0
 24 26  1  0  0  0  0
 26 27  1  0  0  0  0
 26 33  1  0  0  0  0
 26 70  1  0  0  0  0
 27 28  2  0  0  0  0
 27 32  1  0  0  0  0
 28 29  1  0  0  0  0
 28 71  1  0  0  0  0
 29 30  2  0  0  0  0
 29 72  1  0  0  0  0
 30 31  1  0  0  0  0
 30 73  1  0  0  0  0
 31 32  2  0  0  0  0
 31 74  1  0  0  0  0
 32 75  1  0  0  0  0
 33 34  2  0  0  0  0
 33 38  1  0  0  0  0
 34 35  1  0  0  0  0
 34 76  1  0  0  0  0
 35 36  2  0  0  0  0
 35 77  1  0  0  0  0
 36 37  1  0  0  0  0
 36 78  1  0  0  0  0
 37 38  2  0  0  0  0
 37 79  1  0  0  0  0
 38 80  1  0  0  0  0
M  CHG  1   4   1
M  END
$$$$
