440
 OpenBabel04091911003D

 34 34  0  0  0  0  0  0  0  0999 V2000
   -0.3761   60.4094   86.2203 C   0  0  0  0  0  0  0  0  0  0  0  0
   -0.6372   59.1347   85.7344 C   0  0  0  0  0  0  0  0  0  0  0  0
    1.1997   59.3759   84.1512 C   0  0  0  0  0  0  0  0  0  0  0  0
    1.4539   60.6546   84.6596 C   0  0  0  0  0  0  0  0  0  0  0  0
    0.6376   61.1952   85.6654 C   0  0  0  0  0  0  0  0  0  0  0  0
    0.8692   62.4989   86.0263 O   0  0  0  0  0  0  0  0  0  0  0  0
   -0.2947   63.2382   86.5342 C   0  0  0  0  0  0  0  0  0  0  0  0
   -2.9999   64.8648   83.7872 C   0  0  0  0  0  0  0  0  0  0  0  0
   -2.0244   64.3016   84.7084 C   0  0  0  0  0  0  0  0  0  0  0  0
   -1.2132   63.8133   85.4671 C   0  0  0  0  0  0  0  0  0  0  0  0
    0.1339   58.6443   84.6857 C   0  0  0  0  0  0  0  0  0  0  0  0
   -1.6837   56.9025   83.9929 O   0  0  0  0  0  0  0  0  0  0  0  0
    0.5940   56.8102   82.8954 O   0  0  0  0  0  0  0  0  0  0  0  0
   -0.2200   57.0151   84.0658 S   0  0  0  0  0  0  0  0  0  0  0  0
    0.3209   55.9694   85.4255 C   0  0  0  0  0  0  0  0  0  0  0  0
    1.7035   56.3568   85.9110 C   0  0  0  0  0  0  0  0  0  0  0  0
    2.7576   55.7074   85.0438 C   0  0  0  0  0  0  0  0  0  0  0  0
    4.4048   56.4012   85.3626 S   0  0  0  0  0  0  0  0  0  0  0  0
   -1.0019   60.7761   87.0212 H   0  0  0  0  0  0  0  0  0  0  0  0
   -1.4475   58.5420   86.1567 H   0  0  0  0  0  0  0  0  0  0  0  0
    1.8131   58.9617   83.3486 H   0  0  0  0  0  0  0  0  0  0  0  0
    2.2640   61.2437   84.2293 H   0  0  0  0  0  0  0  0  0  0  0  0
    0.1100   64.0373   87.1783 H   0  0  0  0  0  0  0  0  0  0  0  0
   -0.8529   62.5911   87.2111 H   0  0  0  0  0  0  0  0  0  0  0  0
   -2.5415   65.1755   82.8298 H   0  0  0  0  0  0  0  0  0  0  0  0
   -3.5029   65.7605   84.1991 H   0  0  0  0  0  0  0  0  0  0  0  0
   -3.8023   64.1464   83.5323 H   0  0  0  0  0  0  0  0  0  0  0  0
    0.2995   54.9321   85.0827 H   0  0  0  0  0  0  0  0  0  0  0  0
   -0.4048   56.0877   86.2385 H   0  0  0  0  0  0  0  0  0  0  0  0
    1.8175   56.0261   86.9459 H   0  0  0  0  0  0  0  0  0  0  0  0
    1.8191   57.4372   85.8912 H   0  0  0  0  0  0  0  0  0  0  0  0
    2.5043   55.7881   83.9859 H   0  0  0  0  0  0  0  0  0  0  0  0
    2.8510   54.6554   85.3069 H   0  0  0  0  0  0  0  0  0  0  0  0
    4.1993   57.6777   85.0055 H   0  0  0  0  0  0  0  0  0  0  0  0
  1  2  2  0  0  0  0
  1  5  1  0  0  0  0
  1 19  1  0  0  0  0
  2 11  1  0  0  0  0
  2 20  1  0  0  0  0
  3  4  1  0  0  0  0
  3 11  2  0  0  0  0
  3 21  1  0  0  0  0
  4  5  2  0  0  0  0
  4 22  1  0  0  0  0
  5  6  1  0  0  0  0
  6  7  1  0  0  0  0
  7 10  1  0  0  0  0
  7 23  1  0  0  0  0
  7 24  1  0  0  0  0
  8  9  1  0  0  0  0
  8 25  1  0  0  0  0
  8 26  1  0  0  0  0
  8 27  1  0  0  0  0
  9 10  3  0  0  0  0
 11 14  1  0  0  0  0
 12 14  2  0  0  0  0
 13 14  2  0  0  0  0
 14 15  1  0  0  0  0
 15 16  1  0  0  0  0
 15 28  1  0  0  0  0
 15 29  1  0  0  0  0
 16 17  1  0  0  0  0
 16 30  1  0  0  0  0
 16 31  1  0  0  0  0
 17 18  1  0  0  0  0
 17 32  1  0  0  0  0
 17 33  1  0  0  0  0
 18 34  1  0  0  0  0
M  END
$$$$
