44U
 OpenBabel04091911263D

 58 60  0  0  1  0  0  0  0  0999 V2000
   12.3743   -9.6118   20.9704 C   0  0  0  0  0  0  0  0  0  0  0  0
   13.8140   -9.7558   21.4239 C   0  0  0  0  0  0  0  0  0  0  0  0
   14.6069  -10.5218   20.3781 C   0  0  0  0  0  0  0  0  0  0  0  0
   18.0918  -11.9017   21.1918 C   0  0  1  0  0  0  0  0  0  0  0  0
   19.1194  -11.9163   20.0447 C   0  0  0  0  0  0  0  0  0  0  0  0
   20.2223  -12.8408   20.5734 C   0  0  0  0  0  0  0  0  0  0  0  0
   19.4208  -13.9007   21.3038 C   0  0  0  0  0  0  0  0  0  0  0  0
   17.4762  -13.6014   22.9117 C   0  0  0  0  0  0  0  0  0  0  0  0
   17.7604  -14.9546   23.5481 C   0  0  1  0  0  0  0  0  0  0  0  0
   18.6013  -17.2569   25.3784 C   0  0  0  0  0  0  0  0  0  0  0  0
   18.5155  -18.3879   26.1851 C   0  0  0  0  0  0  0  0  0  0  0  0
   17.9677  -18.2916   27.4632 C   0  0  0  0  0  0  0  0  0  0  0  0
   17.5192  -17.0603   27.9362 C   0  0  0  0  0  0  0  0  0  0  0  0
   19.6407  -14.1933   25.0741 C   0  0  0  0  0  0  0  0  0  0  0  0
   22.2398  -13.1394   25.2249 C   0  0  0  0  0  0  0  0  0  0  0  0
   15.9937  -10.6598   20.8079 N   0  0  0  0  0  0  0  0  0  0  0  0
   16.6631  -11.8439   20.6575 C   0  0  0  0  0  0  0  0  0  0  0  0
   16.1440  -12.8573   20.1409 O   0  0  0  0  0  0  0  0  0  0  0  0
   18.2803  -13.1909   21.8771 N   0  0  0  0  0  0  0  0  0  0  0  0
   16.4993  -12.9725   23.3179 O   0  0  0  0  0  0  0  0  0  0  0  0
   18.2328  -14.7563   25.0056 C   0  0  0  0  0  0  0  0  0  0  0  0
   18.1402  -16.0187   25.8440 C   0  0  0  0  0  0  0  0  0  0  0  0
   17.6076  -15.9284   27.1291 C   0  0  0  0  0  0  0  0  0  0  0  0
   20.6931  -14.7552   24.3435 C   0  0  0  0  0  0  0  0  0  0  0  0
   21.9797  -14.2265   24.4054 C   0  0  0  0  0  0  0  0  0  0  0  0
   21.2102  -12.5879   25.9830 C   0  0  0  0  0  0  0  0  0  0  0  0
   19.9189  -13.1118   25.9124 C   0  0  0  0  0  0  0  0  0  0  0  0
   16.5023  -15.7710   23.4790 N   0  3  0  0  0  0  0  0  0  0  0  0
   11.7937   -9.0614   21.7178 H   0  0  0  0  0  0  0  0  0  0  0  0
   11.9226  -10.6003   20.8307 H   0  0  0  0  0  0  0  0  0  0  0  0
   12.3312   -9.0685   20.0199 H   0  0  0  0  0  0  0  0  0  0  0  0
   13.8504  -10.2922   22.3805 H   0  0  0  0  0  0  0  0  0  0  0  0
   14.2578   -8.7633   21.5715 H   0  0  0  0  0  0  0  0  0  0  0  0
   14.5935   -9.9849   19.4226 H   0  0  0  0  0  0  0  0  0  0  0  0
   14.1652  -11.5137   20.2257 H   0  0  0  0  0  0  0  0  0  0  0  0
   18.2962  -11.0725   21.8760 H   0  0  0  0  0  0  0  0  0  0  0  0
   19.4936  -10.9093   19.8257 H   0  0  0  0  0  0  0  0  0  0  0  0
   18.6864  -12.3242   19.1168 H   0  0  0  0  0  0  0  0  0  0  0  0
   20.8922  -12.3035   21.2596 H   0  0  0  0  0  0  0  0  0  0  0  0
   20.8350  -13.2728   19.7709 H   0  0  0  0  0  0  0  0  0  0  0  0
   20.0046  -14.3824   22.0721 H   0  0  0  0  0  0  0  0  0  0  0  0
   19.0483  -14.6673   20.6132 H   0  0  0  0  0  0  0  0  0  0  0  0
   18.4938  -15.5167   22.9760 H   0  0  0  0  0  0  0  0  0  0  0  0
   19.0338  -17.3477   24.3876 H   0  0  0  0  0  0  0  0  0  0  0  0
   18.8803  -19.3461   25.8267 H   0  0  0  0  0  0  0  0  0  0  0  0
   17.8953  -19.1726   28.0945 H   0  0  0  0  0  0  0  0  0  0  0  0
   17.1042  -16.9834   28.9373 H   0  0  0  0  0  0  0  0  0  0  0  0
   23.2434  -12.7263   25.2802 H   0  0  0  0  0  0  0  0  0  0  0  0
   16.4484   -9.8678   21.2404 H   0  0  0  0  0  0  0  0  0  0  0  0
   17.5562  -14.0164   25.4552 H   0  0  0  0  0  0  0  0  0  0  0  0
   17.2645  -14.9697   27.5107 H   0  0  0  0  0  0  0  0  0  0  0  0
   20.5184  -15.6077   23.6952 H   0  0  0  0  0  0  0  0  0  0  0  0
   22.7780  -14.6694   23.8151 H   0  0  0  0  0  0  0  0  0  0  0  0
   21.4136  -11.7417   26.6350 H   0  0  0  0  0  0  0  0  0  0  0  0
   19.1319  -12.6741   26.5181 H   0  0  0  0  0  0  0  0  0  0  0  0
   16.6316  -16.6865   23.9146 H   0  0  0  0  0  0  0  0  0  0  0  0
   15.7427  -15.2730   23.9640 H   0  0  0  0  0  0  0  0  0  0  0  0
   16.2149  -15.8915   22.4999 H   0  0  0  0  0  0  0  0  0  0  0  0
  1  2  1  0  0  0  0
  1 29  1  0  0  0  0
  1 30  1  0  0  0  0
  1 31  1  0  0  0  0
  2  3  1  0  0  0  0
  2 32  1  0  0  0  0
  2 33  1  0  0  0  0
  3 16  1  0  0  0  0
  3 34  1  0  0  0  0
  3 35  1  0  0  0  0
  4  5  1  0  0  0  0
  4 17  1  0  0  0  0
  4 19  1  0  0  0  0
  4 36  1  1  0  0  0
  5  6  1  0  0  0  0
  5 37  1  0  0  0  0
  5 38  1  0  0  0  0
  6  7  1  0  0  0  0
  6 39  1  0  0  0  0
  6 40  1  0  0  0  0
  7 19  1  0  0  0  0
  7 41  1  0  0  0  0
  7 42  1  0  0  0  0
  8  9  1  0  0  0  0
  8 19  1  0  0  0  0
  8 20  2  0  0  0  0
  9 21  1  0  0  0  0
  9 28  1  0  0  0  0
  9 43  1  6  0  0  0
 10 11  2  0  0  0  0
 10 22  1  0  0  0  0
 10 44  1  0  0  0  0
 11 12  1  0  0  0  0
 11 45  1  0  0  0  0
 12 13  2  0  0  0  0
 12 46  1  0  0  0  0
 13 23  1  0  0  0  0
 13 47  1  0  0  0  0
 14 21  1  0  0  0  0
 14 24  2  0  0  0  0
 14 27  1  0  0  0  0
 15 25  2  0  0  0  0
 15 26  1  0  0  0  0
 15 48  1  0  0  0  0
 16 17  1  0  0  0  0
 16 49  1  0  0  0  0
 17 18  2  0  0  0  0
 21 22  1  0  0  0  0
 21 50  1  0  0  0  0
 22 23  2  0  0  0  0
 23 51  1  0  0  0  0
 24 25  1  0  0  0  0
 24 52  1  0  0  0  0
 25 53  1  0  0  0  0
 26 27  2  0  0  0  0
 26 54  1  0  0  0  0
 27 55  1  0  0  0  0
 28 56  1  0  0  0  0
 28 57  1  0  0  0  0
 28 58  1  0  0  0  0
M  CHG  1  28   1
M  END
$$$$
