45C
 OpenBabel04091913053D

 14 14  0  0  0  0  0  0  0  0999 V2000
    2.9295   -2.5307   18.5495 C   0  0  0  0  0  0  0  0  0  0  0  0
    3.9464   -1.8717   19.2756 C   0  0  0  0  0  0  0  0  0  0  0  0
    3.6353   -1.1034   20.3703 C   0  0  0  0  0  0  0  0  0  0  0  0
    2.3101   -0.9999   20.7647 C   0  0  0  0  0  0  0  0  0  0  0  0
    1.2883   -1.6597   20.0312 C   0  0  0  0  0  0  0  0  0  0  0  0
    1.6252   -2.4218   18.9244 C   0  0  0  0  0  0  0  0  0  0  0  0
    3.2269   -3.2747   17.4451 O   0  0  0  0  0  0  0  0  0  0  0  0
    5.2399   -1.9928   18.8702 O   0  0  0  0  0  0  0  0  0  0  0  0
    1.9574   -0.0321   22.1462 Cl  0  0  0  0  0  0  0  0  0  0  0  0
   -0.3805   -1.5515   20.4517 Cl  0  0  0  0  0  0  0  0  0  0  0  0
    4.4279   -0.5574   20.9139 H   0  0  0  0  0  0  0  0  0  0  0  0
    0.8551   -2.9488   18.3347 H   0  0  0  0  0  0  0  0  0  0  0  0
    4.1611   -3.2890   17.2539 H   0  0  0  0  0  0  0  0  0  0  0  0
    5.2940   -2.5698   18.1132 H   0  0  0  0  0  0  0  0  0  0  0  0
  1  2  2  0  0  0  0
  1  6  1  0  0  0  0
  1  7  1  0  0  0  0
  2  3  1  0  0  0  0
  2  8  1  0  0  0  0
  3  4  2  0  0  0  0
  3 11  1  0  0  0  0
  4  5  1  0  0  0  0
  4  9  1  0  0  0  0
  5  6  2  0  0  0  0
  5 10  1  0  0  0  0
  6 12  1  0  0  0  0
  7 13  1  0  0  0  0
  8 14  1  0  0  0  0
M  END
$$$$
