469
 OpenBabel04091913003D

 67 70  0  0  1  0  0  0  0  0999 V2000
   23.3308    7.5436  -27.9040 C   0  0  0  0  0  0  0  0  0  0  0  0
   22.7896    8.6793  -27.1556 N   0  0  0  0  0  0  0  0  0  0  0  0
   23.3770   10.0040  -27.3796 C   0  0  0  0  0  0  0  0  0  0  0  0
   21.7350    8.5862  -26.1946 C   0  0  0  0  0  0  0  0  0  0  0  0
   21.3080    9.5364  -25.5955 O   0  0  0  0  0  0  0  0  0  0  0  0
   21.0934    7.2064  -25.9186 C   0  0  0  0  0  0  0  0  0  0  0  0
   21.5524    6.2279  -26.5354 O   0  0  0  0  0  0  0  0  0  0  0  0
   19.9539    6.9432  -25.0577 C   0  0  2  0  0  0  0  0  0  0  0  0
   19.4025    5.6626  -24.7344 C   0  0  2  0  0  0  0  0  0  0  0  0
   19.8404    4.3481  -25.0718 C   0  0  0  0  0  0  0  0  0  0  0  0
   19.0800    7.8663  -24.5031 C   0  0  0  0  0  0  0  0  0  0  0  0
   18.0402    7.2021  -23.8898 N   0  3  2  0  0  0  0  0  0  0  0  0
   16.9565    7.8510  -23.1935 C   0  0  0  0  0  0  0  0  0  0  0  0
   18.2295    5.8373  -24.0293 C   0  0  1  0  0  0  0  0  0  0  0  0
   17.4446    4.7544  -23.6009 C   0  0  0  0  0  0  0  0  0  0  0  0
   17.8722    3.4705  -23.9613 C   0  0  2  0  0  0  0  0  0  0  0  0
   16.8623    2.1685  -23.4083 Cl  0  0  0  0  0  0  0  0  0  0  0  0
   19.0573    3.2607  -24.6852 C   0  0  2  0  0  0  0  0  0  0  0  0
   19.6186    1.9046  -24.9587 C   0  0  0  0  0  0  0  0  0  0  0  0
   19.8206    1.5360  -26.0987 O   0  0  0  0  0  0  0  0  0  0  0  0
   19.9389    1.1503  -23.8411 N   0  0  0  0  0  0  0  0  0  0  0  0
   20.4686   -0.2216  -23.9678 C   0  0  1  0  0  0  0  0  0  0  0  0
   21.6965   -0.3059  -23.0838 C   0  0  0  0  0  0  0  0  0  0  0  0
   19.4307   -1.2331  -23.4812 C   0  0  0  0  0  0  0  0  0  0  0  0
   19.7042    1.6634  -22.4816 C   0  0  0  0  0  0  0  0  0  0  0  0
   20.8940    1.5454  -21.5660 C   0  0  2  0  0  0  0  0  0  0  0  0
   21.9401    2.5357  -22.0514 C   0  0  0  0  0  0  0  0  0  0  0  0
   21.3133    0.0818  -21.6635 N   0  3  2  0  0  0  0  0  0  0  0  0
   22.3344   -0.3392  -20.6972 C   0  0  0  0  0  0  0  0  0  0  0  0
   22.7981   -1.7642  -20.8349 C   0  0  1  0  0  0  0  0  0  0  0  0
   24.0714   -2.0411  -21.3696 C   0  0  0  0  0  0  0  0  0  0  0  0
   24.5381   -3.3610  -21.4349 C   0  0  0  0  0  0  0  0  0  0  0  0
   23.7248   -4.4111  -20.9890 C   0  0  2  0  0  0  0  0  0  0  0  0
   24.1640   -5.6627  -21.0385 F   0  0  0  0  0  0  0  0  0  0  0  0
   22.4415   -4.1494  -20.5038 C   0  0  0  0  0  0  0  0  0  0  0  0
   21.9756   -2.8327  -20.4347 C   0  0  0  0  0  0  0  0  0  0  0  0
   24.1381    7.8506  -28.5724 H   0  0  0  0  0  0  0  0  0  0  0  0
   22.5431    7.0748  -28.5099 H   0  0  0  0  0  0  0  0  0  0  0  0
   23.7275    6.7882  -27.2112 H   0  0  0  0  0  0  0  0  0  0  0  0
   22.8914   10.7722  -26.7691 H   0  0  0  0  0  0  0  0  0  0  0  0
   23.2717   10.2907  -28.4317 H   0  0  0  0  0  0  0  0  0  0  0  0
   24.4415    9.9892  -27.1192 H   0  0  0  0  0  0  0  0  0  0  0  0
   20.7493    4.2092  -25.6410 H   0  0  0  0  0  0  0  0  0  0  0  0
   19.1274    8.9316  -24.5662 H   0  0  0  0  0  0  0  0  0  0  0  0
   17.0817    8.9329  -23.2709 H   0  0  0  0  0  0  0  0  0  0  0  0
   16.9885    7.5485  -22.1417 H   0  0  0  0  0  0  0  0  0  0  0  0
   16.0060    7.5527  -23.6453 H   0  0  0  0  0  0  0  0  0  0  0  0
   16.5224    4.9042  -23.0580 H   0  0  0  0  0  0  0  0  0  0  0  0
   20.7765   -0.4702  -24.9963 H   0  0  0  0  0  0  0  0  0  0  0  0
   22.4819    0.3806  -23.4030 H   0  0  0  0  0  0  0  0  0  0  0  0
   22.0836   -1.3190  -23.0562 H   0  0  0  0  0  0  0  0  0  0  0  0
   19.8113   -2.2572  -23.5188 H   0  0  0  0  0  0  0  0  0  0  0  0
   18.5178   -1.1562  -24.0666 H   0  0  0  0  0  0  0  0  0  0  0  0
   19.1395   -1.0418  -22.4464 H   0  0  0  0  0  0  0  0  0  0  0  0
   18.8684    1.1109  -22.0587 H   0  0  0  0  0  0  0  0  0  0  0  0
   19.4693    2.7130  -22.4998 H   0  0  0  0  0  0  0  0  0  0  0  0
   20.6181    1.7595  -20.5235 H   0  0  0  0  0  0  0  0  0  0  0  0
   22.8293    2.5154  -21.4273 H   0  0  0  0  0  0  0  0  0  0  0  0
   21.5241    3.5463  -22.0441 H   0  0  0  0  0  0  0  0  0  0  0  0
   22.2260    2.3253  -23.0853 H   0  0  0  0  0  0  0  0  0  0  0  0
   21.8870   -0.1888  -19.7140 H   0  0  0  0  0  0  0  0  0  0  0  0
   23.1614    0.3489  -20.8525 H   0  0  0  0  0  0  0  0  0  0  0  0
   24.7205   -1.2302  -21.7175 H   0  0  0  0  0  0  0  0  0  0  0  0
   25.5326   -3.5757  -21.8267 H   0  0  0  0  0  0  0  0  0  0  0  0
   21.8104   -4.9767  -20.1777 H   0  0  0  0  0  0  0  0  0  0  0  0
   20.9817   -2.6378  -20.0310 H   0  0  0  0  0  0  0  0  0  0  0  0
   20.4622   -0.4318  -21.4311 H   0  0  0  0  0  0  0  0  0  0  0  0
  1  2  1  0  0  0  0
  1 37  1  0  0  0  0
  1 38  1  0  0  0  0
  1 39  1  0  0  0  0
  2  3  1  0  0  0  0
  2  4  1  0  0  0  0
  3 40  1  0  0  0  0
  3 41  1  0  0  0  0
  3 42  1  0  0  0  0
  4  5  2  0  0  0  0
  4  6  1  0  0  0  0
  6  7  2  0  0  0  0
  8  6  1  6  0  0  0
  8  9  1  0  0  0  0
  8 11  1  0  0  0  0
  9 10  1  6  0  0  0
  9 14  1  0  0  0  0
 10 18  1  0  0  0  0
 10 43  1  0  0  0  0
 11 12  1  0  0  0  0
 11 44  1  0  0  0  0
 12 13  1  1  0  0  0
 12 14  1  0  0  0  0
 13 45  1  0  0  0  0
 13 46  1  0  0  0  0
 13 47  1  0  0  0  0
 14 15  1  6  0  0  0
 15 16  1  0  0  0  0
 15 48  1  0  0  0  0
 16 17  1  1  0  0  0
 16 18  1  0  0  0  0
 18 19  1  1  0  0  0
 19 20  2  0  0  0  0
 19 21  1  0  0  0  0
 21 22  1  0  0  0  0
 21 25  1  0  0  0  0
 22 23  1  0  0  0  0
 22 24  1  0  0  0  0
 22 49  1  6  0  0  0
 23 28  1  0  0  0  0
 23 50  1  0  0  0  0
 23 51  1  0  0  0  0
 24 52  1  0  0  0  0
 24 53  1  0  0  0  0
 24 54  1  0  0  0  0
 25 26  1  0  0  0  0
 25 55  1  0  0  0  0
 25 56  1  0  0  0  0
 26 27  1  0  0  0  0
 26 28  1  0  0  0  0
 26 57  1  1  0  0  0
 27 58  1  0  0  0  0
 27 59  1  0  0  0  0
 27 60  1  0  0  0  0
 28 29  1  0  0  0  0
 28 67  1  1  0  0  0
 29 61  1  0  0  0  0
 29 62  1  0  0  0  0
 30 29  1  1  0  0  0
 30 31  1  0  0  0  0
 30 36  1  0  0  0  0
 31 32  1  0  0  0  0
 31 63  1  0  0  0  0
 32 33  1  0  0  0  0
 32 64  1  0  0  0  0
 33 34  1  6  0  0  0
 33 35  1  0  0  0  0
 35 36  1  0  0  0  0
 35 65  1  0  0  0  0
 36 66  1  0  0  0  0
M  CHG  2  12   1  28   1
M  END
$$$$
