478
 OpenBabel04091914073D

 70 72  0  0  1  0  0  0  0  0999 V2000
   12.4575   18.0098   19.7424 C   0  0  0  0  0  0  0  0  0  0  0  0
   14.4259   18.7239   20.8754 C   0  0  0  0  0  0  0  0  0  0  0  0
   14.6494   20.4877   18.3030 C   0  0  0  0  0  0  0  0  0  0  0  0
   13.8320   18.5902   19.4806 C   0  0  2  0  0  0  0  0  0  0  0  0
   15.1905   22.6261   17.1648 C   0  0  2  0  0  0  0  0  0  0  0  0
   15.6359   23.7661   18.0971 C   0  0  1  0  0  0  0  0  0  0  0  0
   14.4813   23.1230   15.8998 C   0  0  0  0  0  0  0  0  0  0  0  0
   14.0867   21.9914   14.9861 C   0  0  0  0  0  0  0  0  0  0  0  0
   12.7840   21.4899   14.9940 C   0  0  0  0  0  0  0  0  0  0  0  0
   15.0339   21.3838   14.1618 C   0  0  0  0  0  0  0  0  0  0  0  0
   12.4453   20.3817   14.2270 C   0  0  0  0  0  0  0  0  0  0  0  0
   14.6970   20.2917   13.3724 C   0  0  0  0  0  0  0  0  0  0  0  0
   13.4045   19.7895   13.4169 C   0  0  0  0  0  0  0  0  0  0  0  0
   16.7549   24.6802   17.5689 C   0  0  0  0  0  0  0  0  0  0  0  0
   19.0282   24.4030   18.5734 C   0  0  0  0  0  0  0  0  0  0  0  0
   18.6653   23.8225   19.9361 C   0  0  0  0  0  0  0  0  0  0  0  0
   19.5006   25.1172   15.4219 C   0  0  0  0  0  0  0  0  0  0  0  0
   18.7267   25.9868   14.6513 C   0  0  0  0  0  0  0  0  0  0  0  0
   19.2765   27.1667   14.1631 C   0  0  0  0  0  0  0  0  0  0  0  0
   20.6120   27.4725   14.4049 C   0  0  0  0  0  0  0  0  0  0  0  0
   21.3996   26.5637   15.1264 C   0  0  0  0  0  0  0  0  0  0  0  0
   20.8513   25.3834   15.6478 C   0  0  0  0  0  0  0  0  0  0  0  0
   18.6017   22.3010   19.9192 C   0  0  0  0  0  0  0  0  0  0  0  0
   19.6767   24.2834   20.9808 C   0  0  0  0  0  0  0  0  0  0  0  0
   13.3118   18.3255   21.8308 C   0  0  0  0  0  0  0  0  0  0  0  0
   14.2727   21.7482   17.8969 N   0  0  0  0  0  0  0  0  0  0  0  0
   18.0631   24.0170   17.5309 N   0  0  0  0  0  0  0  0  0  0  0  0
   21.1142   28.6939   14.0083 N   0  0  0  0  0  0  0  0  0  0  0  0
   13.5868   19.8822   18.8819 O   0  0  0  0  0  0  0  0  0  0  0  0
   15.7405   20.0106   18.1896 O   0  0  0  0  0  0  0  0  0  0  0  0
   14.4876   24.5649   18.4458 O   0  0  0  0  0  0  0  0  0  0  0  0
   17.6032   23.3681   15.1316 O   0  0  0  0  0  0  0  0  0  0  0  0
   19.7579   22.6510   16.2489 O   0  0  0  0  0  0  0  0  0  0  0  0
   12.1027   18.4361   21.0729 O   0  0  0  0  0  0  0  0  0  0  0  0
   18.7237   23.6254   16.0159 S   0  0  0  0  0  0  0  0  0  0  0  0
   12.4738   16.9162   19.7293 H   0  0  0  0  0  0  0  0  0  0  0  0
   11.7216   18.3834   19.0273 H   0  0  0  0  0  0  0  0  0  0  0  0
   14.7398   19.7538   21.0645 H   0  0  0  0  0  0  0  0  0  0  0  0
   15.2931   18.0639   21.0026 H   0  0  0  0  0  0  0  0  0  0  0  0
   14.4344   17.9460   18.8272 H   0  0  0  0  0  0  0  0  0  0  0  0
   16.0754   22.0591   16.8753 H   0  0  0  0  0  0  0  0  0  0  0  0
   15.9977   23.3053   19.0190 H   0  0  0  0  0  0  0  0  0  0  0  0
   15.1466   23.7957   15.3561 H   0  0  0  0  0  0  0  0  0  0  0  0
   13.5846   23.6901   16.1798 H   0  0  0  0  0  0  0  0  0  0  0  0
   12.0241   21.9570   15.6074 H   0  0  0  0  0  0  0  0  0  0  0  0
   16.0495   21.7579   14.1315 H   0  0  0  0  0  0  0  0  0  0  0  0
   11.4392   19.9771   14.2591 H   0  0  0  0  0  0  0  0  0  0  0  0
   15.4382   19.8262   12.7299 H   0  0  0  0  0  0  0  0  0  0  0  0
   13.1413   18.9330   12.8122 H   0  0  0  0  0  0  0  0  0  0  0  0
   16.8253   25.5518   18.2251 H   0  0  0  0  0  0  0  0  0  0  0  0
   16.4891   25.0374   16.5757 H   0  0  0  0  0  0  0  0  0  0  0  0
   20.0266   24.0549   18.2963 H   0  0  0  0  0  0  0  0  0  0  0  0
   19.0422   25.4944   18.6376 H   0  0  0  0  0  0  0  0  0  0  0  0
   17.6832   24.2075   20.2206 H   0  0  0  0  0  0  0  0  0  0  0  0
   17.6834   25.7750   14.4494 H   0  0  0  0  0  0  0  0  0  0  0  0
   18.6349   27.8631   13.6282 H   0  0  0  0  0  0  0  0  0  0  0  0
   22.4433   26.8039   15.3100 H   0  0  0  0  0  0  0  0  0  0  0  0
   21.4613   24.7087   16.2476 H   0  0  0  0  0  0  0  0  0  0  0  0
   18.3493   21.9282   20.9180 H   0  0  0  0  0  0  0  0  0  0  0  0
   19.5646   21.8747   19.6177 H   0  0  0  0  0  0  0  0  0  0  0  0
   17.8345   21.9567   19.2200 H   0  0  0  0  0  0  0  0  0  0  0  0
   19.7396   25.3775   20.9974 H   0  0  0  0  0  0  0  0  0  0  0  0
   20.6734   23.8800   20.7628 H   0  0  0  0  0  0  0  0  0  0  0  0
   19.3715   23.9383   21.9749 H   0  0  0  0  0  0  0  0  0  0  0  0
   13.2655   18.9717   22.7137 H   0  0  0  0  0  0  0  0  0  0  0  0
   13.4175   17.2839   22.1720 H   0  0  0  0  0  0  0  0  0  0  0  0
   13.3534   22.0660   18.1258 H   0  0  0  0  0  0  0  0  0  0  0  0
   20.5465   29.3305   13.4638 H   0  0  0  0  0  0  0  0  0  0  0  0
   22.0489   28.9610   14.2739 H   0  0  0  0  0  0  0  0  0  0  0  0
   14.1738   25.0277   17.6490 H   0  0  0  0  0  0  0  0  0  0  0  0
  1  4  1  0  0  0  0
  1 34  1  0  0  0  0
  1 36  1  0  0  0  0
  1 37  1  0  0  0  0
  2  4  1  0  0  0  0
  2 25  1  0  0  0  0
  2 38  1  0  0  0  0
  2 39  1  0  0  0  0
  3 26  1  0  0  0  0
  3 29  1  0  0  0  0
  3 30  2  0  0  0  0
  4 29  1  0  0  0  0
  4 40  1  6  0  0  0
  5  6  1  0  0  0  0
  5  7  1  0  0  0  0
  5 26  1  0  0  0  0
  5 41  1  6  0  0  0
  6 14  1  0  0  0  0
  6 31  1  0  0  0  0
  6 42  1  1  0  0  0
  7  8  1  0  0  0  0
  7 43  1  0  0  0  0
  7 44  1  0  0  0  0
  8  9  2  0  0  0  0
  8 10  1  0  0  0  0
  9 11  1  0  0  0  0
  9 45  1  0  0  0  0
 10 12  2  0  0  0  0
 10 46  1  0  0  0  0
 11 13  2  0  0  0  0
 11 47  1  0  0  0  0
 12 13  1  0  0  0  0
 12 48  1  0  0  0  0
 13 49  1  0  0  0  0
 14 27  1  0  0  0  0
 14 50  1  0  0  0  0
 14 51  1  0  0  0  0
 15 16  1  0  0  0  0
 15 27  1  0  0  0  0
 15 52  1  0  0  0  0
 15 53  1  0  0  0  0
 16 23  1  0  0  0  0
 16 24  1  0  0  0  0
 16 54  1  0  0  0  0
 17 18  2  0  0  0  0
 17 22  1  0  0  0  0
 17 35  1  0  0  0  0
 18 19  1  0  0  0  0
 18 55  1  0  0  0  0
 19 20  2  0  0  0  0
 19 56  1  0  0  0  0
 20 21  1  0  0  0  0
 20 28  1  0  0  0  0
 21 22  2  0  0  0  0
 21 57  1  0  0  0  0
 22 58  1  0  0  0  0
 23 59  1  0  0  0  0
 23 60  1  0  0  0  0
 23 61  1  0  0  0  0
 24 62  1  0  0  0  0
 24 63  1  0  0  0  0
 24 64  1  0  0  0  0
 25 34  1  0  0  0  0
 25 65  1  0  0  0  0
 25 66  1  0  0  0  0
 26 67  1  0  0  0  0
 27 35  1  0  0  0  0
 28 68  1  0  0  0  0
 28 69  1  0  0  0  0
 31 70  1  0  0  0  0
 32 35  2  0  0  0  0
 33 35  2  0  0  0  0
M  END
$$$$
