478
 OpenBabel04091915103D

 70 72  0  0  1  0  0  0  0  0999 V2000
   25.3219   14.6683   16.1986 C   0  0  0  0  0  0  0  0  0  0  0  0
   25.5791   13.0831   17.9423 C   0  0  0  0  0  0  0  0  0  0  0  0
   22.7061   12.3781   17.1893 C   0  0  0  0  0  0  0  0  0  0  0  0
   24.5207   13.8596   17.1959 C   0  0  2  0  0  0  0  0  0  0  0  0
   20.7477   10.9026   16.9600 C   0  0  2  0  0  0  0  0  0  0  0  0
   20.8772    9.3757   16.9533 C   0  0  1  0  0  0  0  0  0  0  0  0
   19.5604   11.4096   16.1120 C   0  0  0  0  0  0  0  0  0  0  0  0
   19.4713   12.9095   16.2024 C   0  0  0  0  0  0  0  0  0  0  0  0
   20.1654   13.6991   15.2783 C   0  0  0  0  0  0  0  0  0  0  0  0
   18.8074   13.5145   17.2784 C   0  0  0  0  0  0  0  0  0  0  0  0
   20.2476   15.0724   15.4889 C   0  0  0  0  0  0  0  0  0  0  0  0
   18.8646   14.8893   17.4620 C   0  0  0  0  0  0  0  0  0  0  0  0
   19.6370   15.6564   16.5980 C   0  0  0  0  0  0  0  0  0  0  0  0
   19.6923    8.6576   17.6114 C   0  0  0  0  0  0  0  0  0  0  0  0
   20.1768    7.6929   19.8255 C   0  0  0  0  0  0  0  0  0  0  0  0
   21.6963    7.5902   19.7242 C   0  0  0  0  0  0  0  0  0  0  0  0
   17.1659    8.5923   19.8284 C   0  0  0  0  0  0  0  0  0  0  0  0
   16.2588    8.5592   18.7716 C   0  0  0  0  0  0  0  0  0  0  0  0
   15.2146    7.6488   18.8080 C   0  0  0  0  0  0  0  0  0  0  0  0
   15.0768    6.7848   19.8912 C   0  0  0  0  0  0  0  0  0  0  0  0
   15.9786    6.8431   20.9568 C   0  0  0  0  0  0  0  0  0  0  0  0
   17.0393    7.7474   20.9320 C   0  0  0  0  0  0  0  0  0  0  0  0
   22.3436    8.8896   20.2091 C   0  0  0  0  0  0  0  0  0  0  0  0
   22.1850    6.4003   20.5392 C   0  0  0  0  0  0  0  0  0  0  0  0
   26.7308   12.9915   16.9599 C   0  0  0  0  0  0  0  0  0  0  0  0
   22.0063   11.4620   16.4787 N   0  0  0  0  0  0  0  0  0  0  0  0
   19.7137    8.8674   19.0690 N   0  0  0  0  0  0  0  0  0  0  0  0
   14.0217    5.9008   19.9071 N   0  0  0  0  0  0  0  0  0  0  0  0
   23.6784   12.9482   16.4543 O   0  0  0  0  0  0  0  0  0  0  0  0
   22.5095   12.6277   18.3821 O   0  0  0  0  0  0  0  0  0  0  0  0
   21.0536    8.8932   15.6139 O   0  0  0  0  0  0  0  0  0  0  0  0
   18.0654   10.7767   18.7986 O   0  0  0  0  0  0  0  0  0  0  0  0
   18.8401   10.1406   21.1072 O   0  0  0  0  0  0  0  0  0  0  0  0
   26.4552   13.8582   15.8533 O   0  0  0  0  0  0  0  0  0  0  0  0
   18.4697    9.7803   19.7608 S   0  0  0  0  0  0  0  0  0  0  0  0
   25.7000   15.6003   16.6324 H   0  0  0  0  0  0  0  0  0  0  0  0
   24.7554   14.8955   15.2908 H   0  0  0  0  0  0  0  0  0  0  0  0
   25.2478   12.0848   18.2454 H   0  0  0  0  0  0  0  0  0  0  0  0
   25.9050   13.6137   18.8439 H   0  0  0  0  0  0  0  0  0  0  0  0
   23.9207   14.5137   17.8453 H   0  0  0  0  0  0  0  0  0  0  0  0
   20.5963   11.2309   17.9933 H   0  0  0  0  0  0  0  0  0  0  0  0
   21.8059    9.1396   17.4810 H   0  0  0  0  0  0  0  0  0  0  0  0
   18.6031   10.9882   16.4332 H   0  0  0  0  0  0  0  0  0  0  0  0
   19.6765   11.1034   15.0579 H   0  0  0  0  0  0  0  0  0  0  0  0
   20.6858   13.2409   14.4480 H   0  0  0  0  0  0  0  0  0  0  0  0
   18.2681   12.9160   18.0029 H   0  0  0  0  0  0  0  0  0  0  0  0
   20.8014   15.6870   14.7870 H   0  0  0  0  0  0  0  0  0  0  0  0
   18.3208   15.3519   18.2812 H   0  0  0  0  0  0  0  0  0  0  0  0
   19.7663   16.7151   16.7899 H   0  0  0  0  0  0  0  0  0  0  0  0
   19.7491    7.5860   17.3855 H   0  0  0  0  0  0  0  0  0  0  0  0
   18.7490    8.9793   17.1734 H   0  0  0  0  0  0  0  0  0  0  0  0
   19.8880    7.7695   20.8766 H   0  0  0  0  0  0  0  0  0  0  0  0
   19.6925    6.7966   19.4178 H   0  0  0  0  0  0  0  0  0  0  0  0
   21.9857    7.4123   18.6828 H   0  0  0  0  0  0  0  0  0  0  0  0
   16.3554    9.2232   17.9177 H   0  0  0  0  0  0  0  0  0  0  0  0
   14.5002    7.6242   17.9933 H   0  0  0  0  0  0  0  0  0  0  0  0
   15.8560    6.1864   21.8169 H   0  0  0  0  0  0  0  0  0  0  0  0
   17.7492    7.7742   21.7522 H   0  0  0  0  0  0  0  0  0  0  0  0
   23.4313    8.8374   20.1348 H   0  0  0  0  0  0  0  0  0  0  0  0
   22.0611    9.1004   21.2446 H   0  0  0  0  0  0  0  0  0  0  0  0
   22.0208    9.7474   19.6093 H   0  0  0  0  0  0  0  0  0  0  0  0
   21.7234    5.4757   20.1748 H   0  0  0  0  0  0  0  0  0  0  0  0
   21.9260    6.5221   21.5936 H   0  0  0  0  0  0  0  0  0  0  0  0
   23.2690    6.2988   20.4522 H   0  0  0  0  0  0  0  0  0  0  0  0
   26.8587   11.9706   16.5880 H   0  0  0  0  0  0  0  0  0  0  0  0
   27.6730   13.3072   17.4202 H   0  0  0  0  0  0  0  0  0  0  0  0
   22.2563   11.3242   15.5088 H   0  0  0  0  0  0  0  0  0  0  0  0
   13.3896    5.8598   19.1227 H   0  0  0  0  0  0  0  0  0  0  0  0
   13.9126    5.2314   20.6596 H   0  0  0  0  0  0  0  0  0  0  0  0
   21.2762    7.9487   15.6804 H   0  0  0  0  0  0  0  0  0  0  0  0
  1  4  1  0  0  0  0
  1 34  1  0  0  0  0
  1 36  1  0  0  0  0
  1 37  1  0  0  0  0
  2  4  1  0  0  0  0
  2 25  1  0  0  0  0
  2 38  1  0  0  0  0
  2 39  1  0  0  0  0
  3 26  1  0  0  0  0
  3 29  1  0  0  0  0
  3 30  2  0  0  0  0
  4 29  1  0  0  0  0
  4 40  1  1  0  0  0
  5  6  1  0  0  0  0
  5  7  1  0  0  0  0
  5 26  1  0  0  0  0
  5 41  1  1  0  0  0
  6 14  1  0  0  0  0
  6 31  1  0  0  0  0
  6 42  1  1  0  0  0
  7  8  1  0  0  0  0
  7 43  1  0  0  0  0
  7 44  1  0  0  0  0
  8  9  2  0  0  0  0
  8 10  1  0  0  0  0
  9 11  1  0  0  0  0
  9 45  1  0  0  0  0
 10 12  2  0  0  0  0
 10 46  1  0  0  0  0
 11 13  2  0  0  0  0
 11 47  1  0  0  0  0
 12 13  1  0  0  0  0
 12 48  1  0  0  0  0
 13 49  1  0  0  0  0
 14 27  1  0  0  0  0
 14 50  1  0  0  0  0
 14 51  1  0  0  0  0
 15 16  1  0  0  0  0
 15 27  1  0  0  0  0
 15 52  1  0  0  0  0
 15 53  1  0  0  0  0
 16 23  1  0  0  0  0
 16 24  1  0  0  0  0
 16 54  1  0  0  0  0
 17 18  2  0  0  0  0
 17 22  1  0  0  0  0
 17 35  1  0  0  0  0
 18 19  1  0  0  0  0
 18 55  1  0  0  0  0
 19 20  2  0  0  0  0
 19 56  1  0  0  0  0
 20 21  1  0  0  0  0
 20 28  1  0  0  0  0
 21 22  2  0  0  0  0
 21 57  1  0  0  0  0
 22 58  1  0  0  0  0
 23 59  1  0  0  0  0
 23 60  1  0  0  0  0
 23 61  1  0  0  0  0
 24 62  1  0  0  0  0
 24 63  1  0  0  0  0
 24 64  1  0  0  0  0
 25 34  1  0  0  0  0
 25 65  1  0  0  0  0
 25 66  1  0  0  0  0
 26 67  1  0  0  0  0
 27 35  1  0  0  0  0
 28 68  1  0  0  0  0
 28 69  1  0  0  0  0
 31 70  1  0  0  0  0
 32 35  2  0  0  0  0
 33 35  2  0  0  0  0
M  END
$$$$
