478
 OpenBabel04091914083D

 70 72  0  0  1  0  0  0  0  0999 V2000
   16.7645   24.9392   19.1892 C   0  0  0  0  0  0  0  0  0  0  0  0
   14.8357   24.0497   20.2833 C   0  0  0  0  0  0  0  0  0  0  0  0
   14.7225   22.2498   17.8592 C   0  0  0  0  0  0  0  0  0  0  0  0
   15.4570   24.2169   18.9064 C   0  0  2  0  0  0  0  0  0  0  0  0
   14.1339   20.0760   16.8383 C   0  0  2  0  0  0  0  0  0  0  0  0
   13.6336   18.9768   17.7982 C   0  0  1  0  0  0  0  0  0  0  0  0
   14.8312   19.5397   15.5772 C   0  0  0  0  0  0  0  0  0  0  0  0
   15.2288   20.6549   14.6425 C   0  0  0  0  0  0  0  0  0  0  0  0
   16.5366   21.1460   14.6368 C   0  0  0  0  0  0  0  0  0  0  0  0
   14.2763   21.2562   13.8094 C   0  0  0  0  0  0  0  0  0  0  0  0
   16.8401   22.2447   13.8397 C   0  0  0  0  0  0  0  0  0  0  0  0
   14.5891   22.3342   12.9906 C   0  0  0  0  0  0  0  0  0  0  0  0
   15.8656   22.8607   13.0561 C   0  0  0  0  0  0  0  0  0  0  0  0
   12.4952   18.1257   17.2096 C   0  0  0  0  0  0  0  0  0  0  0  0
   10.2426   18.3760   18.1620 C   0  0  0  0  0  0  0  0  0  0  0  0
   10.6392   18.8953   19.5417 C   0  0  0  0  0  0  0  0  0  0  0  0
    9.7772   17.6736   15.0912 C   0  0  0  0  0  0  0  0  0  0  0  0
   10.4728   16.7914   14.2640 C   0  0  0  0  0  0  0  0  0  0  0  0
    9.8303   15.6806   13.7675 C   0  0  0  0  0  0  0  0  0  0  0  0
    8.5303   15.3738   14.1521 C   0  0  0  0  0  0  0  0  0  0  0  0
    7.8081   16.2893   14.9375 C   0  0  0  0  0  0  0  0  0  0  0  0
    8.4390   17.4347   15.3948 C   0  0  0  0  0  0  0  0  0  0  0  0
   10.6761   20.4169   19.5173 C   0  0  0  0  0  0  0  0  0  0  0  0
    9.5999   18.4391   20.5571 C   0  0  0  0  0  0  0  0  0  0  0  0
   15.9074   24.5235   21.2405 C   0  0  0  0  0  0  0  0  0  0  0  0
   15.0454   20.9720   17.5444 N   0  0  0  0  0  0  0  0  0  0  0  0
   11.2068   18.8166   17.1380 N   0  0  0  0  0  0  0  0  0  0  0  0
    7.9386   14.2133   13.7262 N   0  0  0  0  0  0  0  0  0  0  0  0
   15.7716   22.9051   18.3917 O   0  0  0  0  0  0  0  0  0  0  0  0
   13.5905   22.7313   17.7160 O   0  0  0  0  0  0  0  0  0  0  0  0
   14.7053   18.0803   18.1446 O   0  0  0  0  0  0  0  0  0  0  0  0
   11.6800   19.3746   14.6902 O   0  0  0  0  0  0  0  0  0  0  0  0
    9.5629   20.1942   15.7722 O   0  0  0  0  0  0  0  0  0  0  0  0
   17.1341   24.5004   20.5055 O   0  0  0  0  0  0  0  0  0  0  0  0
   10.5684   19.1838   15.6046 S   0  0  0  0  0  0  0  0  0  0  0  0
   16.6414   26.0282   19.2380 H   0  0  0  0  0  0  0  0  0  0  0  0
   17.5573   24.6942   18.4771 H   0  0  0  0  0  0  0  0  0  0  0  0
   14.5966   23.0010   20.4850 H   0  0  0  0  0  0  0  0  0  0  0  0
   13.9215   24.6379   20.4063 H   0  0  0  0  0  0  0  0  0  0  0  0
   14.8300   24.7834   18.2094 H   0  0  0  0  0  0  0  0  0  0  0  0
   13.2510   20.6533   16.5245 H   0  0  0  0  0  0  0  0  0  0  0  0
   13.3135   19.4539   18.7289 H   0  0  0  0  0  0  0  0  0  0  0  0
   14.1712   18.8559   15.0360 H   0  0  0  0  0  0  0  0  0  0  0  0
   15.7233   18.9638   15.8518 H   0  0  0  0  0  0  0  0  0  0  0  0
   17.2965   20.6910   15.2581 H   0  0  0  0  0  0  0  0  0  0  0  0
   13.2519   20.8773   13.8040 H   0  0  0  0  0  0  0  0  0  0  0  0
   17.8611   22.6351   13.8278 H   0  0  0  0  0  0  0  0  0  0  0  0
   13.8387   22.7588   12.3231 H   0  0  0  0  0  0  0  0  0  0  0  0
   16.1178   23.7611   12.4921 H   0  0  0  0  0  0  0  0  0  0  0  0
   12.3972   17.2239   17.8283 H   0  0  0  0  0  0  0  0  0  0  0  0
   12.7922   17.7807   16.2181 H   0  0  0  0  0  0  0  0  0  0  0  0
    9.2466   18.7624   17.9196 H   0  0  0  0  0  0  0  0  0  0  0  0
   10.1847   17.2811   18.1677 H   0  0  0  0  0  0  0  0  0  0  0  0
   11.6218   18.5020   19.8329 H   0  0  0  0  0  0  0  0  0  0  0  0
   11.5194   16.9781   14.0033 H   0  0  0  0  0  0  0  0  0  0  0  0
   10.3156   15.0550   13.0129 H   0  0  0  0  0  0  0  0  0  0  0  0
    6.7568   16.1180   15.1269 H   0  0  0  0  0  0  0  0  0  0  0  0
    7.8696   18.1405   16.0094 H   0  0  0  0  0  0  0  0  0  0  0  0
   10.9714   20.8167   20.4889 H   0  0  0  0  0  0  0  0  0  0  0  0
    9.6864   20.8074   19.2639 H   0  0  0  0  0  0  0  0  0  0  0  0
   11.3811   20.7865   18.7685 H   0  0  0  0  0  0  0  0  0  0  0  0
    9.5571   17.3481   20.6110 H   0  0  0  0  0  0  0  0  0  0  0  0
    8.6112   18.8051   20.2662 H   0  0  0  0  0  0  0  0  0  0  0  0
    9.8296   18.8302   21.5517 H   0  0  0  0  0  0  0  0  0  0  0  0
   15.9752   23.8936   22.1325 H   0  0  0  0  0  0  0  0  0  0  0  0
   15.7237   25.5595   21.5456 H   0  0  0  0  0  0  0  0  0  0  0  0
   15.9758   20.6470   17.7875 H   0  0  0  0  0  0  0  0  0  0  0  0
    8.4846   13.5233   13.2523 H   0  0  0  0  0  0  0  0  0  0  0  0
    6.9622   14.0485   13.9326 H   0  0  0  0  0  0  0  0  0  0  0  0
   14.9715   17.6049   17.3372 H   0  0  0  0  0  0  0  0  0  0  0  0
  1  4  1  0  0  0  0
  1 34  1  0  0  0  0
  1 36  1  0  0  0  0
  1 37  1  0  0  0  0
  2  4  1  0  0  0  0
  2 25  1  0  0  0  0
  2 38  1  0  0  0  0
  2 39  1  0  0  0  0
  3 26  1  0  0  0  0
  3 29  1  0  0  0  0
  3 30  2  0  0  0  0
  4 29  1  0  0  0  0
  4 40  1  6  0  0  0
  5  6  1  0  0  0  0
  5  7  1  0  0  0  0
  5 26  1  0  0  0  0
  5 41  1  6  0  0  0
  6 14  1  0  0  0  0
  6 31  1  0  0  0  0
  6 42  1  1  0  0  0
  7  8  1  0  0  0  0
  7 43  1  0  0  0  0
  7 44  1  0  0  0  0
  8  9  2  0  0  0  0
  8 10  1  0  0  0  0
  9 11  1  0  0  0  0
  9 45  1  0  0  0  0
 10 12  2  0  0  0  0
 10 46  1  0  0  0  0
 11 13  2  0  0  0  0
 11 47  1  0  0  0  0
 12 13  1  0  0  0  0
 12 48  1  0  0  0  0
 13 49  1  0  0  0  0
 14 27  1  0  0  0  0
 14 50  1  0  0  0  0
 14 51  1  0  0  0  0
 15 16  1  0  0  0  0
 15 27  1  0  0  0  0
 15 52  1  0  0  0  0
 15 53  1  0  0  0  0
 16 23  1  0  0  0  0
 16 24  1  0  0  0  0
 16 54  1  0  0  0  0
 17 18  2  0  0  0  0
 17 22  1  0  0  0  0
 17 35  1  0  0  0  0
 18 19  1  0  0  0  0
 18 55  1  0  0  0  0
 19 20  2  0  0  0  0
 19 56  1  0  0  0  0
 20 21  1  0  0  0  0
 20 28  1  0  0  0  0
 21 22  2  0  0  0  0
 21 57  1  0  0  0  0
 22 58  1  0  0  0  0
 23 59  1  0  0  0  0
 23 60  1  0  0  0  0
 23 61  1  0  0  0  0
 24 62  1  0  0  0  0
 24 63  1  0  0  0  0
 24 64  1  0  0  0  0
 25 34  1  0  0  0  0
 25 65  1  0  0  0  0
 25 66  1  0  0  0  0
 26 67  1  0  0  0  0
 27 35  1  0  0  0  0
 28 68  1  0  0  0  0
 28 69  1  0  0  0  0
 31 70  1  0  0  0  0
 32 35  2  0  0  0  0
 33 35  2  0  0  0  0
M  END
$$$$
