478
 OpenBabel04091914083D

 70 72  0  0  1  0  0  0  0  0999 V2000
   17.0826   25.3360   18.6597 C   0  0  0  0  0  0  0  0  0  0  0  0
   15.1543   24.5591   19.8521 C   0  0  0  0  0  0  0  0  0  0  0  0
   14.8347   22.7542   17.4320 C   0  0  0  0  0  0  0  0  0  0  0  0
   15.7281   24.6789   18.4513 C   0  0  2  0  0  0  0  0  0  0  0  0
   14.1953   20.5437   16.4799 C   0  0  2  0  0  0  0  0  0  0  0  0
   13.8149   19.4195   17.4776 C   0  0  1  0  0  0  0  0  0  0  0  0
   14.8437   20.0075   15.1834 C   0  0  0  0  0  0  0  0  0  0  0  0
   15.2043   21.1167   14.2265 C   0  0  0  0  0  0  0  0  0  0  0  0
   16.5185   21.6149   14.2119 C   0  0  0  0  0  0  0  0  0  0  0  0
   14.2438   21.7089   13.4161 C   0  0  0  0  0  0  0  0  0  0  0  0
   16.8475   22.6935   13.3948 C   0  0  0  0  0  0  0  0  0  0  0  0
   14.5681   22.7860   12.5960 C   0  0  0  0  0  0  0  0  0  0  0  0
   15.8717   23.2806   12.5840 C   0  0  0  0  0  0  0  0  0  0  0  0
   12.6324   18.5280   17.0294 C   0  0  0  0  0  0  0  0  0  0  0  0
   10.4346   19.1476   18.1193 C   0  0  0  0  0  0  0  0  0  0  0  0
   10.9776   19.7491   19.4208 C   0  0  0  0  0  0  0  0  0  0  0  0
    9.9032   18.0904   15.0575 C   0  0  0  0  0  0  0  0  0  0  0  0
   10.5932   17.1589   14.2825 C   0  0  0  0  0  0  0  0  0  0  0  0
    9.9498   15.9888   13.8860 C   0  0  0  0  0  0  0  0  0  0  0  0
    8.6148   15.7524   14.2430 C   0  0  0  0  0  0  0  0  0  0  0  0
    7.9443   16.6974   15.0244 C   0  0  0  0  0  0  0  0  0  0  0  0
    8.5721   17.8743   15.4242 C   0  0  0  0  0  0  0  0  0  0  0  0
   11.1852   21.2619   19.3092 C   0  0  0  0  0  0  0  0  0  0  0  0
    9.9916   19.4428   20.5388 C   0  0  0  0  0  0  0  0  0  0  0  0
   16.2962   24.9267   20.7781 C   0  0  0  0  0  0  0  0  0  0  0  0
   15.1292   21.4574   17.1389 N   0  0  0  0  0  0  0  0  0  0  0  0
   11.3738   19.3084   16.9865 N   0  0  0  0  0  0  0  0  0  0  0  0
    8.0049   14.5639   13.8976 N   0  0  0  0  0  0  0  0  0  0  0  0
   15.9382   23.3569   17.9258 O   0  0  0  0  0  0  0  0  0  0  0  0
   13.7398   23.2799   17.3104 O   0  0  0  0  0  0  0  0  0  0  0  0
   14.9467   18.6028   17.7963 O   0  0  0  0  0  0  0  0  0  0  0  0
   11.7544   19.8169   14.5241 O   0  0  0  0  0  0  0  0  0  0  0  0
    9.6449   20.6181   15.6414 O   0  0  0  0  0  0  0  0  0  0  0  0
   17.4884   24.9981   19.9921 O   0  0  0  0  0  0  0  0  0  0  0  0
   10.6815   19.6247   15.4718 S   0  0  0  0  0  0  0  0  0  0  0  0
   17.0182   26.4300   18.6017 H   0  0  0  0  0  0  0  0  0  0  0  0
   17.8437   24.9850   17.9564 H   0  0  0  0  0  0  0  0  0  0  0  0
   14.8135   23.5394   20.0664 H   0  0  0  0  0  0  0  0  0  0  0  0
   14.3020   25.2255   20.0115 H   0  0  0  0  0  0  0  0  0  0  0  0
   15.1101   25.2740   17.7668 H   0  0  0  0  0  0  0  0  0  0  0  0
   13.3130   21.1160   16.2295 H   0  0  0  0  0  0  0  0  0  0  0  0
   13.5424   19.9069   18.4193 H   0  0  0  0  0  0  0  0  0  0  0  0
   14.1792   19.3019   14.6664 H   0  0  0  0  0  0  0  0  0  0  0  0
   15.7472   19.4355   15.4145 H   0  0  0  0  0  0  0  0  0  0  0  0
   17.2792   21.1920   14.8642 H   0  0  0  0  0  0  0  0  0  0  0  0
   13.2132   21.3601   13.4221 H   0  0  0  0  0  0  0  0  0  0  0  0
   17.8586   23.0862   13.3960 H   0  0  0  0  0  0  0  0  0  0  0  0
   13.8047   23.2514   11.9793 H   0  0  0  0  0  0  0  0  0  0  0  0
   16.1261   24.1247   11.9546 H   0  0  0  0  0  0  0  0  0  0  0  0
   12.5385   17.6667   17.7058 H   0  0  0  0  0  0  0  0  0  0  0  0
   12.8669   18.0733   16.0610 H   0  0  0  0  0  0  0  0  0  0  0  0
    9.4916   19.6625   17.8975 H   0  0  0  0  0  0  0  0  0  0  0  0
   10.1840   18.0869   18.2554 H   0  0  0  0  0  0  0  0  0  0  0  0
   11.9339   19.2735   19.6805 H   0  0  0  0  0  0  0  0  0  0  0  0
   11.6203   17.3373   13.9714 H   0  0  0  0  0  0  0  0  0  0  0  0
   10.4897   15.2681   13.2772 H   0  0  0  0  0  0  0  0  0  0  0  0
    6.9086   16.5292   15.3146 H   0  0  0  0  0  0  0  0  0  0  0  0
    8.0282   18.6120   16.0050 H   0  0  0  0  0  0  0  0  0  0  0  0
   11.6077   21.6621   20.2348 H   0  0  0  0  0  0  0  0  0  0  0  0
   10.2381   21.7757   19.1185 H   0  0  0  0  0  0  0  0  0  0  0  0
   11.8685   21.5231   18.4952 H   0  0  0  0  0  0  0  0  0  0  0  0
    9.8407   18.3620   20.6328 H   0  0  0  0  0  0  0  0  0  0  0  0
    9.0177   19.9019   20.3311 H   0  0  0  0  0  0  0  0  0  0  0  0
   10.3533   19.8214   21.4992 H   0  0  0  0  0  0  0  0  0  0  0  0
   16.4313   24.1941   21.5792 H   0  0  0  0  0  0  0  0  0  0  0  0
   16.1265   25.9080   21.2348 H   0  0  0  0  0  0  0  0  0  0  0  0
   16.0495   21.1324   17.4096 H   0  0  0  0  0  0  0  0  0  0  0  0
    8.4734   13.9084   13.2860 H   0  0  0  0  0  0  0  0  0  0  0  0
    7.0195   14.4276   14.0785 H   0  0  0  0  0  0  0  0  0  0  0  0
   15.2003   18.1052   17.0007 H   0  0  0  0  0  0  0  0  0  0  0  0
  1  4  1  0  0  0  0
  1 34  1  0  0  0  0
  1 36  1  0  0  0  0
  1 37  1  0  0  0  0
  2  4  1  0  0  0  0
  2 25  1  0  0  0  0
  2 38  1  0  0  0  0
  2 39  1  0  0  0  0
  3 26  1  0  0  0  0
  3 29  1  0  0  0  0
  3 30  2  0  0  0  0
  4 29  1  0  0  0  0
  4 40  1  6  0  0  0
  5  6  1  0  0  0  0
  5  7  1  0  0  0  0
  5 26  1  0  0  0  0
  5 41  1  6  0  0  0
  6 14  1  0  0  0  0
  6 31  1  0  0  0  0
  6 42  1  1  0  0  0
  7  8  1  0  0  0  0
  7 43  1  0  0  0  0
  7 44  1  0  0  0  0
  8  9  2  0  0  0  0
  8 10  1  0  0  0  0
  9 11  1  0  0  0  0
  9 45  1  0  0  0  0
 10 12  2  0  0  0  0
 10 46  1  0  0  0  0
 11 13  2  0  0  0  0
 11 47  1  0  0  0  0
 12 13  1  0  0  0  0
 12 48  1  0  0  0  0
 13 49  1  0  0  0  0
 14 27  1  0  0  0  0
 14 50  1  0  0  0  0
 14 51  1  0  0  0  0
 15 16  1  0  0  0  0
 15 27  1  0  0  0  0
 15 52  1  0  0  0  0
 15 53  1  0  0  0  0
 16 23  1  0  0  0  0
 16 24  1  0  0  0  0
 16 54  1  0  0  0  0
 17 18  2  0  0  0  0
 17 22  1  0  0  0  0
 17 35  1  0  0  0  0
 18 19  1  0  0  0  0
 18 55  1  0  0  0  0
 19 20  2  0  0  0  0
 19 56  1  0  0  0  0
 20 21  1  0  0  0  0
 20 28  1  0  0  0  0
 21 22  2  0  0  0  0
 21 57  1  0  0  0  0
 22 58  1  0  0  0  0
 23 59  1  0  0  0  0
 23 60  1  0  0  0  0
 23 61  1  0  0  0  0
 24 62  1  0  0  0  0
 24 63  1  0  0  0  0
 24 64  1  0  0  0  0
 25 34  1  0  0  0  0
 25 65  1  0  0  0  0
 25 66  1  0  0  0  0
 26 67  1  0  0  0  0
 27 35  1  0  0  0  0
 28 68  1  0  0  0  0
 28 69  1  0  0  0  0
 31 70  1  0  0  0  0
 32 35  2  0  0  0  0
 33 35  2  0  0  0  0
M  END
$$$$
