478
 OpenBabel04091914073D

 70 72  0  0  1  0  0  0  0  0999 V2000
   12.4134   18.1664   19.7953 C   0  0  0  0  0  0  0  0  0  0  0  0
   14.3544   19.0547   20.8852 C   0  0  0  0  0  0  0  0  0  0  0  0
   14.5327   20.7242   18.3173 C   0  0  0  0  0  0  0  0  0  0  0  0
   13.7456   18.8430   19.5078 C   0  0  2  0  0  0  0  0  0  0  0  0
   15.0040   22.8606   17.1283 C   0  0  2  0  0  0  0  0  0  0  0  0
   15.4486   24.0020   18.0779 C   0  0  1  0  0  0  0  0  0  0  0  0
   14.2482   23.3657   15.8785 C   0  0  0  0  0  0  0  0  0  0  0  0
   13.8392   22.2380   14.9570 C   0  0  0  0  0  0  0  0  0  0  0  0
   12.5379   21.7190   14.9918 C   0  0  0  0  0  0  0  0  0  0  0  0
   14.7839   21.6478   14.1060 C   0  0  0  0  0  0  0  0  0  0  0  0
   12.1996   20.6153   14.2092 C   0  0  0  0  0  0  0  0  0  0  0  0
   14.4378   20.5601   13.3115 C   0  0  0  0  0  0  0  0  0  0  0  0
   13.1476   20.0363   13.3662 C   0  0  0  0  0  0  0  0  0  0  0  0
   16.5615   24.9241   17.5291 C   0  0  0  0  0  0  0  0  0  0  0  0
   18.8366   24.6422   18.5304 C   0  0  0  0  0  0  0  0  0  0  0  0
   18.5363   23.9633   19.8734 C   0  0  0  0  0  0  0  0  0  0  0  0
   19.2926   25.3787   15.4166 C   0  0  0  0  0  0  0  0  0  0  0  0
   18.5546   26.2730   14.6404 C   0  0  0  0  0  0  0  0  0  0  0  0
   19.1574   27.4450   14.1770 C   0  0  0  0  0  0  0  0  0  0  0  0
   20.5009   27.7170   14.4489 C   0  0  0  0  0  0  0  0  0  0  0  0
   21.2426   26.7874   15.1832 C   0  0  0  0  0  0  0  0  0  0  0  0
   20.6467   25.6212   15.6702 C   0  0  0  0  0  0  0  0  0  0  0  0
   18.5950   22.4426   19.7499 C   0  0  0  0  0  0  0  0  0  0  0  0
   19.5532   24.4450   20.9070 C   0  0  0  0  0  0  0  0  0  0  0  0
   13.2883   18.5772   21.8513 C   0  0  0  0  0  0  0  0  0  0  0  0
   14.1366   21.9371   17.8663 N   0  0  0  0  0  0  0  0  0  0  0  0
   17.8753   24.2371   17.4753 N   0  0  0  0  0  0  0  0  0  0  0  0
   21.0846   28.8819   13.9903 N   0  0  0  0  0  0  0  0  0  0  0  0
   13.4733   20.1214   18.9062 O   0  0  0  0  0  0  0  0  0  0  0  0
   15.6546   20.2518   18.2334 O   0  0  0  0  0  0  0  0  0  0  0  0
   14.3164   24.8073   18.4658 O   0  0  0  0  0  0  0  0  0  0  0  0
   17.4456   23.5818   15.0507 O   0  0  0  0  0  0  0  0  0  0  0  0
   19.6048   22.8993   16.1561 O   0  0  0  0  0  0  0  0  0  0  0  0
   12.0571   18.5802   21.1227 O   0  0  0  0  0  0  0  0  0  0  0  0
   18.5382   23.8576   15.9559 S   0  0  0  0  0  0  0  0  0  0  0  0
   12.5183   17.0749   19.8126 H   0  0  0  0  0  0  0  0  0  0  0  0
   11.6185   18.4441   19.0989 H   0  0  0  0  0  0  0  0  0  0  0  0
   14.5826   20.1112   21.0694 H   0  0  0  0  0  0  0  0  0  0  0  0
   15.2815   18.4892   21.0248 H   0  0  0  0  0  0  0  0  0  0  0  0
   14.3557   18.2295   18.8357 H   0  0  0  0  0  0  0  0  0  0  0  0
   15.8919   22.2976   16.8209 H   0  0  0  0  0  0  0  0  0  0  0  0
   15.7983   23.5425   19.0099 H   0  0  0  0  0  0  0  0  0  0  0  0
   14.8586   24.0765   15.3108 H   0  0  0  0  0  0  0  0  0  0  0  0
   13.3462   23.9165   16.1744 H   0  0  0  0  0  0  0  0  0  0  0  0
   11.7874   22.1525   15.6468 H   0  0  0  0  0  0  0  0  0  0  0  0
   15.8044   22.0208   14.0746 H   0  0  0  0  0  0  0  0  0  0  0  0
   11.1987   20.1958   14.2647 H   0  0  0  0  0  0  0  0  0  0  0  0
   15.1852   20.1085   12.6613 H   0  0  0  0  0  0  0  0  0  0  0  0
   12.8873   19.1752   12.7624 H   0  0  0  0  0  0  0  0  0  0  0  0
   16.6308   25.8035   18.1833 H   0  0  0  0  0  0  0  0  0  0  0  0
   16.2752   25.3373   16.5583 H   0  0  0  0  0  0  0  0  0  0  0  0
   19.8579   24.3809   18.2386 H   0  0  0  0  0  0  0  0  0  0  0  0
   18.8152   25.7339   18.6399 H   0  0  0  0  0  0  0  0  0  0  0  0
   17.5358   24.2500   20.2236 H   0  0  0  0  0  0  0  0  0  0  0  0
   17.5229   26.0603   14.3740 H   0  0  0  0  0  0  0  0  0  0  0  0
   18.5705   28.1391   13.5814 H   0  0  0  0  0  0  0  0  0  0  0  0
   22.2985   26.9631   15.3750 H   0  0  0  0  0  0  0  0  0  0  0  0
   21.2489   24.9051   16.2285 H   0  0  0  0  0  0  0  0  0  0  0  0
   18.3873   21.9634   20.7141 H   0  0  0  0  0  0  0  0  0  0  0  0
   19.5898   22.1155   19.4190 H   0  0  0  0  0  0  0  0  0  0  0  0
   17.8634   22.0650   19.0316 H   0  0  0  0  0  0  0  0  0  0  0  0
   19.4934   25.5307   21.0342 H   0  0  0  0  0  0  0  0  0  0  0  0
   20.5741   24.1975   20.5947 H   0  0  0  0  0  0  0  0  0  0  0  0
   19.3746   23.9797   21.8828 H   0  0  0  0  0  0  0  0  0  0  0  0
   13.2051   19.2092   22.7405 H   0  0  0  0  0  0  0  0  0  0  0  0
   13.4828   17.5477   22.1725 H   0  0  0  0  0  0  0  0  0  0  0  0
   13.1987   22.2166   18.1101 H   0  0  0  0  0  0  0  0  0  0  0  0
   20.5390   29.5730   13.4938 H   0  0  0  0  0  0  0  0  0  0  0  0
   22.0668   29.0657   14.1421 H   0  0  0  0  0  0  0  0  0  0  0  0
   14.0242   25.3227   17.6955 H   0  0  0  0  0  0  0  0  0  0  0  0
  1  4  1  0  0  0  0
  1 34  1  0  0  0  0
  1 36  1  0  0  0  0
  1 37  1  0  0  0  0
  2  4  1  0  0  0  0
  2 25  1  0  0  0  0
  2 38  1  0  0  0  0
  2 39  1  0  0  0  0
  3 26  1  0  0  0  0
  3 29  1  0  0  0  0
  3 30  2  0  0  0  0
  4 29  1  0  0  0  0
  4 40  1  6  0  0  0
  5  6  1  0  0  0  0
  5  7  1  0  0  0  0
  5 26  1  0  0  0  0
  5 41  1  6  0  0  0
  6 14  1  0  0  0  0
  6 31  1  0  0  0  0
  6 42  1  1  0  0  0
  7  8  1  0  0  0  0
  7 43  1  0  0  0  0
  7 44  1  0  0  0  0
  8  9  2  0  0  0  0
  8 10  1  0  0  0  0
  9 11  1  0  0  0  0
  9 45  1  0  0  0  0
 10 12  2  0  0  0  0
 10 46  1  0  0  0  0
 11 13  2  0  0  0  0
 11 47  1  0  0  0  0
 12 13  1  0  0  0  0
 12 48  1  0  0  0  0
 13 49  1  0  0  0  0
 14 27  1  0  0  0  0
 14 50  1  0  0  0  0
 14 51  1  0  0  0  0
 15 16  1  0  0  0  0
 15 27  1  0  0  0  0
 15 52  1  0  0  0  0
 15 53  1  0  0  0  0
 16 23  1  0  0  0  0
 16 24  1  0  0  0  0
 16 54  1  0  0  0  0
 17 18  2  0  0  0  0
 17 22  1  0  0  0  0
 17 35  1  0  0  0  0
 18 19  1  0  0  0  0
 18 55  1  0  0  0  0
 19 20  2  0  0  0  0
 19 56  1  0  0  0  0
 20 21  1  0  0  0  0
 20 28  1  0  0  0  0
 21 22  2  0  0  0  0
 21 57  1  0  0  0  0
 22 58  1  0  0  0  0
 23 59  1  0  0  0  0
 23 60  1  0  0  0  0
 23 61  1  0  0  0  0
 24 62  1  0  0  0  0
 24 63  1  0  0  0  0
 24 64  1  0  0  0  0
 25 34  1  0  0  0  0
 25 65  1  0  0  0  0
 25 66  1  0  0  0  0
 26 67  1  0  0  0  0
 27 35  1  0  0  0  0
 28 68  1  0  0  0  0
 28 69  1  0  0  0  0
 31 70  1  0  0  0  0
 32 35  2  0  0  0  0
 33 35  2  0  0  0  0
M  END
$$$$
