478
 OpenBabel04091911433D

 70 72  0  0  1  0  0  0  0  0999 V2000
    8.9414  -22.2721   29.7915 C   0  0  0  0  0  0  0  0  0  0  0  0
   11.2184  -21.6552   30.2484 C   0  0  0  0  0  0  0  0  0  0  0  0
   10.5032  -21.7081   33.0651 C   0  0  0  0  0  0  0  0  0  0  0  0
    9.8158  -21.5589   30.8113 C   0  0  2  0  0  0  0  0  0  0  0  0
   11.4787  -22.2723   35.2709 C   0  0  2  0  0  0  0  0  0  0  0  0
   12.9939  -22.4871   35.3067 C   0  0  1  0  0  0  0  0  0  0  0  0
   10.7390  -23.1241   36.3050 C   0  0  0  0  0  0  0  0  0  0  0  0
    9.2469  -22.9396   36.2368 C   0  0  0  0  0  0  0  0  0  0  0  0
    8.4188  -24.0472   36.0377 C   0  0  0  0  0  0  0  0  0  0  0  0
    8.6737  -21.6739   36.3880 C   0  0  0  0  0  0  0  0  0  0  0  0
    7.0363  -23.8881   35.9877 C   0  0  0  0  0  0  0  0  0  0  0  0
    7.2902  -21.5118   36.3179 C   0  0  0  0  0  0  0  0  0  0  0  0
    6.4684  -22.6200   36.1157 C   0  0  0  0  0  0  0  0  0  0  0  0
   13.5713  -21.9790   36.6202 C   0  0  0  0  0  0  0  0  0  0  0  0
   14.8948  -19.9748   36.4253 C   0  0  0  0  0  0  0  0  0  0  0  0
   15.1892  -19.7544   34.9551 C   0  0  0  0  0  0  0  0  0  0  0  0
   13.4205  -19.9164   39.2677 C   0  0  0  0  0  0  0  0  0  0  0  0
   12.9432  -20.7896   40.2373 C   0  0  0  0  0  0  0  0  0  0  0  0
   13.5187  -20.7697   41.4982 C   0  0  0  0  0  0  0  0  0  0  0  0
   14.5502  -19.8752   41.7536 C   0  0  0  0  0  0  0  0  0  0  0  0
   14.9788  -18.9700   40.7897 C   0  0  0  0  0  0  0  0  0  0  0  0
   14.4025  -18.9905   39.5352 C   0  0  0  0  0  0  0  0  0  0  0  0
   14.2409  -18.7128   34.3849 C   0  0  0  0  0  0  0  0  0  0  0  0
   16.6288  -19.2991   34.7951 C   0  0  0  0  0  0  0  0  0  0  0  0
   11.0645  -22.2172   28.8612 C   0  0  0  0  0  0  0  0  0  0  0  0
   10.9378  -22.6025   33.9595 N   0  0  0  0  0  0  0  0  0  0  0  0
   13.5574  -20.5366   36.6113 N   0  0  0  0  0  0  0  0  0  0  0  0
   15.1622  -19.8643   42.9882 N   0  0  0  0  0  0  0  0  0  0  0  0
    9.8067  -22.2745   32.0673 O   0  0  0  0  0  0  0  0  0  0  0  0
   10.7980  -20.5001   33.1086 O   0  0  0  0  0  0  0  0  0  0  0  0
   13.3890  -23.8603   35.2153 O   0  0  0  0  0  0  0  0  0  0  0  0
   11.3747  -20.5635   37.9176 O   0  0  0  0  0  0  0  0  0  0  0  0
   12.4593  -18.3986   37.3876 O   0  0  0  0  0  0  0  0  0  0  0  0
    9.8052  -22.8934   28.8230 O   0  0  0  0  0  0  0  0  0  0  0  0
   12.5631  -19.7687   37.7606 S   0  0  0  0  0  0  0  0  0  0  0  0
    8.2905  -21.5606   29.2655 H   0  0  0  0  0  0  0  0  0  0  0  0
    8.3216  -23.0401   30.2606 H   0  0  0  0  0  0  0  0  0  0  0  0
   11.8322  -22.3251   30.8623 H   0  0  0  0  0  0  0  0  0  0  0  0
   11.6990  -20.6743   30.2237 H   0  0  0  0  0  0  0  0  0  0  0  0
    9.4879  -20.5158   30.9398 H   0  0  0  0  0  0  0  0  0  0  0  0
   11.2891  -21.2080   35.4703 H   0  0  0  0  0  0  0  0  0  0  0  0
   13.4488  -21.9533   34.4656 H   0  0  0  0  0  0  0  0  0  0  0  0
   11.0635  -22.8753   37.3135 H   0  0  0  0  0  0  0  0  0  0  0  0
   10.9761  -24.1805   36.1266 H   0  0  0  0  0  0  0  0  0  0  0  0
    8.8548  -25.0370   35.9312 H   0  0  0  0  0  0  0  0  0  0  0  0
    9.3078  -20.8076   36.5707 H   0  0  0  0  0  0  0  0  0  0  0  0
    6.4023  -24.7587   35.8508 H   0  0  0  0  0  0  0  0  0  0  0  0
    6.8572  -20.5211   36.4251 H   0  0  0  0  0  0  0  0  0  0  0  0
    5.3900  -22.4985   36.0602 H   0  0  0  0  0  0  0  0  0  0  0  0
   14.5887  -22.3425   36.7551 H   0  0  0  0  0  0  0  0  0  0  0  0
   12.9956  -22.3557   37.4613 H   0  0  0  0  0  0  0  0  0  0  0  0
   14.9750  -19.0314   36.9565 H   0  0  0  0  0  0  0  0  0  0  0  0
   15.6170  -20.6680   36.8621 H   0  0  0  0  0  0  0  0  0  0  0  0
   15.0619  -20.6900   34.4062 H   0  0  0  0  0  0  0  0  0  0  0  0
   12.1234  -21.4654   40.0320 H   0  0  0  0  0  0  0  0  0  0  0  0
   13.1568  -21.4282   42.2708 H   0  0  0  0  0  0  0  0  0  0  0  0
   15.7379  -18.2466   41.0162 H   0  0  0  0  0  0  0  0  0  0  0  0
   14.7177  -18.2746   38.7899 H   0  0  0  0  0  0  0  0  0  0  0  0
   14.4567  -18.5447   33.3266 H   0  0  0  0  0  0  0  0  0  0  0  0
   14.3510  -17.7653   34.9250 H   0  0  0  0  0  0  0  0  0  0  0  0
   13.2040  -19.0506   34.4805 H   0  0  0  0  0  0  0  0  0  0  0  0
   17.3101  -20.0520   35.2053 H   0  0  0  0  0  0  0  0  0  0  0  0
   16.7893  -18.3538   35.3254 H   0  0  0  0  0  0  0  0  0  0  0  0
   16.8618  -19.1535   33.7361 H   0  0  0  0  0  0  0  0  0  0  0  0
   11.8709  -22.9200   28.6244 H   0  0  0  0  0  0  0  0  0  0  0  0
   11.0646  -21.4158   28.1136 H   0  0  0  0  0  0  0  0  0  0  0  0
   10.8255  -23.5835   33.7503 H   0  0  0  0  0  0  0  0  0  0  0  0
   14.8704  -20.5238   43.6916 H   0  0  0  0  0  0  0  0  0  0  0  0
   15.8957  -19.1932   43.1664 H   0  0  0  0  0  0  0  0  0  0  0  0
   13.0346  -24.3204   35.9935 H   0  0  0  0  0  0  0  0  0  0  0  0
  1  4  1  0  0  0  0
  1 34  1  0  0  0  0
  1 36  1  0  0  0  0
  1 37  1  0  0  0  0
  2  4  1  0  0  0  0
  2 25  1  0  0  0  0
  2 38  1  0  0  0  0
  2 39  1  0  0  0  0
  3 26  1  0  0  0  0
  3 29  1  0  0  0  0
  3 30  2  0  0  0  0
  4 29  1  0  0  0  0
  4 40  1  1  0  0  0
  5  6  1  0  0  0  0
  5  7  1  0  0  0  0
  5 26  1  0  0  0  0
  5 41  1  1  0  0  0
  6 14  1  0  0  0  0
  6 31  1  0  0  0  0
  6 42  1  6  0  0  0
  7  8  1  0  0  0  0
  7 43  1  0  0  0  0
  7 44  1  0  0  0  0
  8  9  2  0  0  0  0
  8 10  1  0  0  0  0
  9 11  1  0  0  0  0
  9 45  1  0  0  0  0
 10 12  2  0  0  0  0
 10 46  1  0  0  0  0
 11 13  2  0  0  0  0
 11 47  1  0  0  0  0
 12 13  1  0  0  0  0
 12 48  1  0  0  0  0
 13 49  1  0  0  0  0
 14 27  1  0  0  0  0
 14 50  1  0  0  0  0
 14 51  1  0  0  0  0
 15 16  1  0  0  0  0
 15 27  1  0  0  0  0
 15 52  1  0  0  0  0
 15 53  1  0  0  0  0
 16 23  1  0  0  0  0
 16 24  1  0  0  0  0
 16 54  1  0  0  0  0
 17 18  2  0  0  0  0
 17 22  1  0  0  0  0
 17 35  1  0  0  0  0
 18 19  1  0  0  0  0
 18 55  1  0  0  0  0
 19 20  2  0  0  0  0
 19 56  1  0  0  0  0
 20 21  1  0  0  0  0
 20 28  1  0  0  0  0
 21 22  2  0  0  0  0
 21 57  1  0  0  0  0
 22 58  1  0  0  0  0
 23 59  1  0  0  0  0
 23 60  1  0  0  0  0
 23 61  1  0  0  0  0
 24 62  1  0  0  0  0
 24 63  1  0  0  0  0
 24 64  1  0  0  0  0
 25 34  1  0  0  0  0
 25 65  1  0  0  0  0
 25 66  1  0  0  0  0
 26 67  1  0  0  0  0
 27 35  1  0  0  0  0
 28 68  1  0  0  0  0
 28 69  1  0  0  0  0
 31 70  1  0  0  0  0
 32 35  2  0  0  0  0
 33 35  2  0  0  0  0
M  END
$$$$
