4AZ
 OpenBabel04091913263D

 20 20  0  0  0  0  0  0  0  0999 V2000
  -26.7123   86.3709  -12.0441 C   0  0  0  0  0  0  0  0  0  0  0  0
  -25.9555   85.8743  -11.1513 O   0  0  0  0  0  0  0  0  0  0  0  0
  -28.0013   87.0008  -11.5674 C   0  0  0  0  0  0  0  0  0  0  0  0
  -32.0426   89.9871  -10.8798 N   0  3  0  0  0  0  0  0  0  0  0  0
  -28.3186   87.0136  -10.1997 C   0  0  0  0  0  0  0  0  0  0  0  0
  -29.5011   87.5860   -9.7394 C   0  0  0  0  0  0  0  0  0  0  0  0
  -30.4003   88.1665  -10.6406 C   0  0  0  0  0  0  0  0  0  0  0  0
  -30.0966   88.1336  -12.0157 C   0  0  0  0  0  0  0  0  0  0  0  0
  -28.9104   87.5669  -12.4675 C   0  0  0  0  0  0  0  0  0  0  0  0
  -31.6727   88.7668  -10.1370 C   0  0  0  0  0  0  0  0  0  0  0  0
  -26.4899   86.4071  -13.2934 O   0  0  0  0  0  0  0  0  0  0  0  0
  -32.8982   90.4188  -10.5187 H   0  0  0  0  0  0  0  0  0  0  0  0
  -31.2683   90.6649  -10.8228 H   0  0  0  0  0  0  0  0  0  0  0  0
  -27.6157   86.5628   -9.4966 H   0  0  0  0  0  0  0  0  0  0  0  0
  -29.6943   87.5623   -8.6690 H   0  0  0  0  0  0  0  0  0  0  0  0
  -30.7619   88.5329  -12.7733 H   0  0  0  0  0  0  0  0  0  0  0  0
  -28.6748   87.5544  -13.5339 H   0  0  0  0  0  0  0  0  0  0  0  0
  -32.5020   88.0593  -10.2314 H   0  0  0  0  0  0  0  0  0  0  0  0
  -31.5799   89.0722   -9.0874 H   0  0  0  0  0  0  0  0  0  0  0  0
  -32.1838   89.7738  -11.8698 H   0  0  0  0  0  0  0  0  0  0  0  0
  1  2  2  0  0  0  0
  1  3  1  0  0  0  0
  1 11  1  0  0  0  0
  3  5  2  0  0  0  0
  3  9  1  0  0  0  0
  4 10  1  0  0  0  0
  4 12  1  0  0  0  0
  4 13  1  0  0  0  0
  4 20  1  0  0  0  0
  5  6  1  0  0  0  0
  5 14  1  0  0  0  0
  6  7  2  0  0  0  0
  6 15  1  0  0  0  0
  7  8  1  0  0  0  0
  7 10  1  0  0  0  0
  8  9  2  0  0  0  0
  8 16  1  0  0  0  0
  9 17  1  0  0  0  0
 10 18  1  0  0  0  0
 10 19  1  0  0  0  0
M  CHG  1   4   1
M  END
$$$$
