4CS
 OpenBabel04091914433D

 22 22  0  0  1  0  0  0  0  0999 V2000
   31.5749   12.9534   10.0841 O   0  0  0  0  0  0  0  0  0  0  0  0
   32.6430   13.1847    9.4310 C   0  0  0  0  0  0  0  0  0  0  0  0
   33.6961   12.5287    9.2863 O   0  0  0  0  0  0  0  0  0  0  0  0
   32.5731   14.6255    8.8320 C   0  0  2  0  0  0  0  0  0  0  0  0
   33.8140   15.3777    9.2530 C   0  0  0  0  0  0  0  0  0  0  0  0
   33.7172   16.8455    8.8787 C   0  0  0  0  0  0  0  0  0  0  0  0
   32.4154   17.4564    9.1671 N   0  0  0  0  0  0  0  0  0  0  0  0
   31.5663   16.6371    9.9974 C   0  0  1  0  0  0  0  0  0  0  0  0
   30.2382   17.3372   10.2826 C   0  0  0  0  0  0  0  0  0  0  0  0
   31.3304   15.3509    9.3712 N   0  3  0  0  0  0  0  0  0  0  0  0
   32.4546   14.5854    7.7432 H   0  0  0  0  0  0  0  0  0  0  0  0
   34.7091   14.9425    8.7922 H   0  0  0  0  0  0  0  0  0  0  0  0
   33.9611   15.2852   10.3403 H   0  0  0  0  0  0  0  0  0  0  0  0
   33.9218   16.9599    7.8075 H   0  0  0  0  0  0  0  0  0  0  0  0
   34.5038   17.3964    9.4060 H   0  0  0  0  0  0  0  0  0  0  0  0
   32.5831   18.3494    9.6333 H   0  0  0  0  0  0  0  0  0  0  0  0
   32.0472   16.4361   10.9688 H   0  0  0  0  0  0  0  0  0  0  0  0
   29.4716   16.6326   10.6218 H   0  0  0  0  0  0  0  0  0  0  0  0
   29.8355   17.8761    9.4152 H   0  0  0  0  0  0  0  0  0  0  0  0
   30.3807   18.0772   11.0793 H   0  0  0  0  0  0  0  0  0  0  0  0
   30.5797   15.3186    8.6776 H   0  0  0  0  0  0  0  0  0  0  0  0
   31.0223   14.6436   10.0829 H   0  0  0  0  0  0  0  0  0  0  0  0
  1  2  2  0  0  0  0
  2  3  1  0  0  0  0
  2  4  1  0  0  0  0
  4  5  1  0  0  0  0
  4 10  1  0  0  0  0
  4 11  1  6  0  0  0
  5  6  1  0  0  0  0
  5 12  1  0  0  0  0
  5 13  1  0  0  0  0
  6  7  1  0  0  0  0
  6 14  1  0  0  0  0
  6 15  1  0  0  0  0
  7  8  1  0  0  0  0
  7 16  1  0  0  0  0
  8  9  1  0  0  0  0
  8 10  1  0  0  0  0
  8 17  1  1  0  0  0
  9 18  1  0  0  0  0
  9 19  1  0  0  0  0
  9 20  1  0  0  0  0
 10 21  1  0  0  0  0
 10 22  1  0  0  0  0
M  CHG  1  10   1
M  END
$$$$
