4HP
 OpenBabel04091914333D

 18 18  0  0  0  0  0  0  0  0999 V2000
   15.6154   13.7560   40.5021 C   0  0  0  0  0  0  0  0  0  0  0  0
   16.7422   13.6446   39.9351 O   0  0  0  0  0  0  0  0  0  0  0  0
   15.2742   14.5038   41.4654 O   0  0  0  0  0  0  0  0  0  0  0  0
   14.4881   12.9114   39.8970 C   0  0  0  0  0  0  0  0  0  0  0  0
   14.4380   11.5428   40.5340 C   0  0  0  0  0  0  0  0  0  0  0  0
   15.0787   10.4498   39.9371 C   0  0  0  0  0  0  0  0  0  0  0  0
   15.0765    9.1931   40.5699 C   0  0  0  0  0  0  0  0  0  0  0  0
   14.4661    9.0692   41.8141 C   0  0  0  0  0  0  0  0  0  0  0  0
   13.8263   10.1460   42.4159 C   0  0  0  0  0  0  0  0  0  0  0  0
   13.8009   11.3788   41.7700 C   0  0  0  0  0  0  0  0  0  0  0  0
   14.4942    7.8952   42.5040 O   0  0  0  0  0  0  0  0  0  0  0  0
   14.6168   12.8246   38.8118 H   0  0  0  0  0  0  0  0  0  0  0  0
   13.5252   13.4215   40.0396 H   0  0  0  0  0  0  0  0  0  0  0  0
   15.6224   10.5830   39.0039 H   0  0  0  0  0  0  0  0  0  0  0  0
   15.5876    8.3603   40.1057 H   0  0  0  0  0  0  0  0  0  0  0  0
   13.3632   10.0328   43.3906 H   0  0  0  0  0  0  0  0  0  0  0  0
   13.3222   12.2302   42.2491 H   0  0  0  0  0  0  0  0  0  0  0  0
   14.0676    7.2331   41.9385 H   0  0  0  0  0  0  0  0  0  0  0  0
  1  4  1  0  0  0  0
  1  3  2  0  0  0  0
  1  2  1  0  0  0  0
  4  5  1  0  0  0  0
  4 12  1  0  0  0  0
  4 13  1  0  0  0  0
  5 10  2  0  0  0  0
  5  6  1  0  0  0  0
  6  7  2  0  0  0  0
  6 14  1  0  0  0  0
  7  8  1  0  0  0  0
  7 15  1  0  0  0  0
  8 11  1  0  0  0  0
  8  9  2  0  0  0  0
  9 10  1  0  0  0  0
  9 16  1  0  0  0  0
 10 17  1  0  0  0  0
 11 18  1  0  0  0  0
M  END
$$$$
