4WF
 OpenBabel04091916433D

 27 28  0  0  0  0  0  0  0  0999 V2000
   36.7737    4.0495   10.0557 C   0  0  0  0  0  0  0  0  0  0  0  0
   34.8890    2.7803    9.3399 N   0  0  0  0  0  0  0  0  0  0  0  0
   36.4958    5.1089    9.4195 O   0  0  0  0  0  0  0  0  0  0  0  0
   36.0548    2.8996   10.0602 C   0  0  0  0  0  0  0  0  0  0  0  0
   36.5085    1.7082   10.8391 C   0  0  0  0  0  0  0  0  0  0  0  0
   39.4934    3.0403   12.2126 O   0  0  0  0  0  0  0  0  0  0  0  0
   38.1952    8.4929   13.6979 C   0  0  0  0  0  0  0  0  0  0  0  0
   37.6629    7.2241   13.9349 C   0  0  0  0  0  0  0  0  0  0  0  0
   38.9295    8.7326   12.5439 C   0  0  0  0  0  0  0  0  0  0  0  0
   37.8588    6.1888   13.0173 C   0  0  0  0  0  0  0  0  0  0  0  0
   39.1235    7.6971   11.6287 C   0  0  0  0  0  0  0  0  0  0  0  0
   38.4472    3.0226   11.5534 C   0  0  0  0  0  0  0  0  0  0  0  0
   38.8235    5.3358   10.7947 C   0  0  0  0  0  0  0  0  0  0  0  0
   37.9700    4.1140   10.8143 N   0  3  0  0  0  0  0  0  0  0  0  0
   35.8427    0.6602   10.8445 O   0  0  0  0  0  0  0  0  0  0  0  0
   37.6802    1.8629   11.5304 N   0  3  0  0  0  0  0  0  0  0  0  0
   38.5763    6.4142   11.8432 C   0  0  0  0  0  0  0  0  0  0  0  0
   34.6424    3.6341    8.8310 H   0  0  0  0  0  0  0  0  0  0  0  0
   34.3674    1.9346    9.3610 H   0  0  0  0  0  0  0  0  0  0  0  0
   38.0297    9.2896   14.4153 H   0  0  0  0  0  0  0  0  0  0  0  0
   37.0883    7.0370   14.8362 H   0  0  0  0  0  0  0  0  0  0  0  0
   39.3460    9.7174   12.3508 H   0  0  0  0  0  0  0  0  0  0  0  0
   37.4343    5.2081   13.2079 H   0  0  0  0  0  0  0  0  0  0  0  0
   39.6937    7.8869   10.7223 H   0  0  0  0  0  0  0  0  0  0  0  0
   38.7345    5.8172    9.8152 H   0  0  0  0  0  0  0  0  0  0  0  0
   39.8804    5.0448   10.8975 H   0  0  0  0  0  0  0  0  0  0  0  0
   37.9968    1.0748   12.0531 H   0  0  0  0  0  0  0  0  0  0  0  0
  1  3  1  0  0  0  0
  1  4  2  0  0  0  0
  1 14  1  0  0  0  0
  2  4  1  0  0  0  0
  2 18  1  0  0  0  0
  2 19  1  0  0  0  0
  4  5  1  0  0  0  0
  5 15  2  0  0  0  0
  5 16  1  0  0  0  0
  6 12  2  0  0  0  0
  7  8  2  0  0  0  0
  7  9  1  0  0  0  0
  7 20  1  0  0  0  0
  8 10  1  0  0  0  0
  8 21  1  0  0  0  0
  9 11  2  0  0  0  0
  9 22  1  0  0  0  0
 10 17  2  0  0  0  0
 10 23  1  0  0  0  0
 11 17  1  0  0  0  0
 11 24  1  0  0  0  0
 12 14  1  0  0  0  0
 12 16  1  0  0  0  0
 13 14  1  0  0  0  0
 13 17  1  0  0  0  0
 13 25  1  0  0  0  0
 13 26  1  0  0  0  0
 16 27  1  0  0  0  0
M  CHG  2  14   1  16   1
M  END
$$$$
