516
 OpenBabel04091912473D

 73 77  0  0  1  0  0  0  0  0999 V2000
   80.5470   62.0535   14.9555 O   0  0  0  0  0  0  0  0  0  0  0  0
   80.8623   62.3576   13.7911 C   0  0  0  0  0  0  0  0  0  0  0  0
   82.0281   61.6468   13.1287 C   0  0  2  0  0  0  0  0  0  0  0  0
   81.5089   60.5260   12.2247 C   0  0  0  0  0  0  0  0  0  0  0  0
   80.8941   59.3683   13.0183 C   0  0  0  0  0  0  0  0  0  0  0  0
   80.3606   58.2914   12.0849 C   0  0  0  0  0  0  0  0  0  0  0  0
   81.4470   57.7794   11.1481 C   0  0  0  0  0  0  0  0  0  0  0  0
   82.1077   58.9217   10.3876 C   0  0  0  0  0  0  0  0  0  0  0  0
   82.6274   59.9897   11.3360 C   0  0  0  0  0  0  0  0  0  0  0  0
   82.9226   61.1409   14.1605 N   0  0  0  0  0  0  0  0  0  0  0  0
   84.2665   61.2045   14.0468 C   0  0  0  0  0  0  0  0  0  0  0  0
   84.8786   61.6698   13.0657 O   0  0  0  0  0  0  0  0  0  0  0  0
   85.0227   60.6229   15.2155 C   0  0  2  0  0  0  0  0  0  0  0  0
   85.1238   61.6463   16.3303 C   0  0  0  0  0  0  0  0  0  0  0  0
   86.4078   60.2382   14.8017 N   0  3  0  0  0  0  0  0  0  0  0  0
   86.5453   59.0579   13.9202 C   0  0  0  0  0  0  0  0  0  0  0  0
   80.1559   63.2670   13.0535 N   0  0  0  0  0  0  0  0  0  0  0  0
   78.9970   63.9119   13.6367 C   0  0  1  0  0  0  0  0  0  0  0  0
   78.5562   64.9622   12.6364 C   0  0  0  0  0  0  0  0  0  0  0  0
   79.7299   65.1130   11.6872 C   0  0  0  0  0  0  0  0  0  0  0  0
   80.4415   63.7786   11.7230 C   0  0  0  0  0  0  0  0  0  0  0  0
   77.8916   62.9822   13.9529 C   0  0  0  0  0  0  0  0  0  0  0  0
   77.5924   61.5124   13.0906 S   0  0  0  0  0  0  0  0  0  0  0  0
   76.2637   61.2472   14.1285 C   0  0  0  0  0  0  0  0  0  0  0  0
   76.1013   62.2566   15.0442 C   0  0  0  0  0  0  0  0  0  0  0  0
   77.0327   63.2431   14.9134 N   0  0  0  0  0  0  0  0  0  0  0  0
   75.0011   62.2679   16.0168 C   0  0  0  0  0  0  0  0  0  0  0  0
   73.7381   61.8352   15.5964 C   0  0  0  0  0  0  0  0  0  0  0  0
   72.6494   61.8224   16.4620 C   0  0  0  0  0  0  0  0  0  0  0  0
   72.8107   62.2385   17.7744 C   0  0  0  0  0  0  0  0  0  0  0  0
   74.0528   62.6686   18.2292 C   0  0  0  0  0  0  0  0  0  0  0  0
   74.1907   63.0826   19.5544 C   0  0  0  0  0  0  0  0  0  0  0  0
   75.1724   62.6881   17.3507 C   0  0  0  0  0  0  0  0  0  0  0  0
   76.3964   63.1243   17.8722 C   0  0  0  0  0  0  0  0  0  0  0  0
   76.5241   63.5379   19.1957 C   0  0  0  0  0  0  0  0  0  0  0  0
   75.4180   63.5175   20.0372 C   0  0  0  0  0  0  0  0  0  0  0  0
   82.5770   62.3803   12.5317 H   0  0  0  0  0  0  0  0  0  0  0  0
   80.7280   60.9470   11.5813 H   0  0  0  0  0  0  0  0  0  0  0  0
   80.0780   59.7377   13.6452 H   0  0  0  0  0  0  0  0  0  0  0  0
   81.6551   58.9241   13.6726 H   0  0  0  0  0  0  0  0  0  0  0  0
   79.5391   58.7083   11.4889 H   0  0  0  0  0  0  0  0  0  0  0  0
   79.9685   57.4589   12.6786 H   0  0  0  0  0  0  0  0  0  0  0  0
   81.0097   57.0715   10.4351 H   0  0  0  0  0  0  0  0  0  0  0  0
   82.2086   57.2505   11.7352 H   0  0  0  0  0  0  0  0  0  0  0  0
   81.3750   59.3720    9.7062 H   0  0  0  0  0  0  0  0  0  0  0  0
   82.9390   58.5313    9.7913 H   0  0  0  0  0  0  0  0  0  0  0  0
   83.4153   59.5535   11.9635 H   0  0  0  0  0  0  0  0  0  0  0  0
   83.0601   60.8139   10.7595 H   0  0  0  0  0  0  0  0  0  0  0  0
   82.4988   60.7174   14.9845 H   0  0  0  0  0  0  0  0  0  0  0  0
   84.5255   59.7213   15.5809 H   0  0  0  0  0  0  0  0  0  0  0  0
   85.6949   61.2393   17.1713 H   0  0  0  0  0  0  0  0  0  0  0  0
   84.1199   61.9041   16.6823 H   0  0  0  0  0  0  0  0  0  0  0  0
   85.6144   62.5631   15.9813 H   0  0  0  0  0  0  0  0  0  0  0  0
   86.7906   61.0509   14.2898 H   0  0  0  0  0  0  0  0  0  0  0  0
   87.6139   58.9389   13.7264 H   0  0  0  0  0  0  0  0  0  0  0  0
   86.0044   59.2354   12.9921 H   0  0  0  0  0  0  0  0  0  0  0  0
   86.1538   58.1886   14.4534 H   0  0  0  0  0  0  0  0  0  0  0  0
   79.2902   64.3873   14.5798 H   0  0  0  0  0  0  0  0  0  0  0  0
   78.3403   65.9150   13.1335 H   0  0  0  0  0  0  0  0  0  0  0  0
   77.6665   64.6481   12.0777 H   0  0  0  0  0  0  0  0  0  0  0  0
   80.3905   65.9083   12.0519 H   0  0  0  0  0  0  0  0  0  0  0  0
   79.3812   65.3598   10.6839 H   0  0  0  0  0  0  0  0  0  0  0  0
   80.0287   63.0941   10.9724 H   0  0  0  0  0  0  0  0  0  0  0  0
   81.5126   63.8955   11.5536 H   0  0  0  0  0  0  0  0  0  0  0  0
   75.6539   60.3844   14.0273 H   0  0  0  0  0  0  0  0  0  0  0  0
   73.5971   61.5160   14.5670 H   0  0  0  0  0  0  0  0  0  0  0  0
   71.6750   61.4890   16.1111 H   0  0  0  0  0  0  0  0  0  0  0  0
   71.9577   62.2293   18.4526 H   0  0  0  0  0  0  0  0  0  0  0  0
   73.3267   63.0665   20.2192 H   0  0  0  0  0  0  0  0  0  0  0  0
   77.2729   63.1482   17.2305 H   0  0  0  0  0  0  0  0  0  0  0  0
   77.4851   63.8747   19.5650 H   0  0  0  0  0  0  0  0  0  0  0  0
   75.5118   63.8401   21.0678 H   0  0  0  0  0  0  0  0  0  0  0  0
   86.9473   60.0791   15.6473 H   0  0  0  0  0  0  0  0  0  0  0  0
  1  2  2  0  0  0  0
  2  3  1  0  0  0  0
  2 17  1  0  0  0  0
  3  4  1  0  0  0  0
  3 10  1  0  0  0  0
  3 37  1  6  0  0  0
  4  5  1  0  0  0  0
  4  9  1  0  0  0  0
  4 38  1  0  0  0  0
  5  6  1  0  0  0  0
  5 39  1  0  0  0  0
  5 40  1  0  0  0  0
  6  7  1  0  0  0  0
  6 41  1  0  0  0  0
  6 42  1  0  0  0  0
  7  8  1  0  0  0  0
  7 43  1  0  0  0  0
  7 44  1  0  0  0  0
  8  9  1  0  0  0  0
  8 45  1  0  0  0  0
  8 46  1  0  0  0  0
  9 47  1  0  0  0  0
  9 48  1  0  0  0  0
 10 11  1  0  0  0  0
 10 49  1  0  0  0  0
 11 12  2  0  0  0  0
 11 13  1  0  0  0  0
 13 14  1  0  0  0  0
 13 15  1  0  0  0  0
 13 50  1  1  0  0  0
 14 51  1  0  0  0  0
 14 52  1  0  0  0  0
 14 53  1  0  0  0  0
 15 16  1  0  0  0  0
 15 54  1  0  0  0  0
 15 73  1  0  0  0  0
 16 55  1  0  0  0  0
 16 56  1  0  0  0  0
 16 57  1  0  0  0  0
 17 18  1  0  0  0  0
 17 21  1  0  0  0  0
 18 19  1  0  0  0  0
 18 22  1  0  0  0  0
 18 58  1  1  0  0  0
 19 20  1  0  0  0  0
 19 59  1  0  0  0  0
 19 60  1  0  0  0  0
 20 21  1  0  0  0  0
 20 61  1  0  0  0  0
 20 62  1  0  0  0  0
 21 63  1  0  0  0  0
 21 64  1  0  0  0  0
 22 23  1  0  0  0  0
 22 26  2  0  0  0  0
 23 24  1  0  0  0  0
 24 25  2  0  0  0  0
 24 65  1  0  0  0  0
 25 26  1  0  0  0  0
 25 27  1  0  0  0  0
 27 28  2  0  0  0  0
 27 33  1  0  0  0  0
 28 29  1  0  0  0  0
 28 66  1  0  0  0  0
 29 30  2  0  0  0  0
 29 67  1  0  0  0  0
 30 31  1  0  0  0  0
 30 68  1  0  0  0  0
 31 32  2  0  0  0  0
 31 33  1  0  0  0  0
 32 36  1  0  0  0  0
 32 69  1  0  0  0  0
 33 34  2  0  0  0  0
 34 35  1  0  0  0  0
 34 70  1  0  0  0  0
 35 36  2  0  0  0  0
 35 71  1  0  0  0  0
 36 72  1  0  0  0  0
M  CHG  1  15   1
M  END
$$$$
