52H
 OpenBabel04091911173D

 54 56  0  0  1  0  0  0  0  0999 V2000
   13.8496    9.7768   -2.6083 C   0  0  0  0  0  0  0  0  0  0  0  0
   14.9134   10.2717   -3.3466 C   0  0  0  0  0  0  0  0  0  0  0  0
   14.8240   10.1605   -4.7460 C   0  0  0  0  0  0  0  0  0  0  0  0
   15.4147   10.6272   -1.2987 C   0  0  0  0  0  0  0  0  0  0  0  0
   13.7255    9.5821   -5.2834 N   0  0  0  0  0  0  0  0  0  0  0  0
   12.7440    9.1828   -3.0918 N   0  0  0  0  0  0  0  0  0  0  0  0
   14.7494    8.7280    9.0956 C   0  0  0  0  0  0  0  0  0  0  0  0
   14.5714    9.1121    7.6096 C   0  0  0  0  0  0  0  0  0  0  0  0
   13.8030   10.4422    7.5839 C   0  0  0  0  0  0  0  0  0  0  0  0
   13.7281    8.0052    6.9587 C   0  0  0  0  0  0  0  0  0  0  0  0
   15.9654    9.2311    6.9094 C   0  0  1  0  0  0  0  0  0  0  0  0
   16.6696    7.9913    7.1006 O   0  0  0  0  0  0  0  0  0  0  0  0
   15.9260    9.5707    5.3792 C   0  0  0  0  0  0  0  0  0  0  0  0
   15.9060    8.6643    4.5394 O   0  0  0  0  0  0  0  0  0  0  0  0
   15.8732   10.8990    5.2057 N   0  0  0  0  0  0  0  0  0  0  0  0
   16.1411   11.5702    3.7787 S   0  0  0  0  0  0  0  0  0  0  0  0
   17.4397   11.2576    3.1821 O   0  0  0  0  0  0  0  0  0  0  0  0
   15.7908   12.9840    3.7513 O   0  0  0  0  0  0  0  0  0  0  0  0
   15.0682   10.8750    2.7814 O   0  0  0  0  0  0  0  0  0  0  0  0
   13.6978   11.1269    2.9830 C   0  0  0  0  0  0  0  0  0  0  0  0
   12.8890   10.2340    2.0327 C   0  0  1  0  0  0  0  0  0  0  0  0
   13.0193   10.7226    0.6691 O   0  0  0  0  0  0  0  0  0  0  0  0
   13.3639    8.7731    2.0586 C   0  0  1  0  0  0  0  0  0  0  0  0
   12.2241    7.8988    2.0303 O   0  0  0  0  0  0  0  0  0  0  0  0
   14.1703    8.6493    0.7700 C   0  0  1  0  0  0  0  0  0  0  0  0
   14.2351    7.3348    0.2216 O   0  0  0  0  0  0  0  0  0  0  0  0
   13.4096    9.5960   -0.1455 C   0  0  2  0  0  0  0  0  0  0  0  0
   14.1791   10.0282   -1.2990 N   0  3  0  0  0  0  0  0  0  0  0  0
   15.8856   10.7948   -2.5208 N   0  0  0  0  0  0  0  0  0  0  0  0
   12.7720    9.1301   -4.4391 C   0  0  0  0  0  0  0  0  0  0  0  0
   15.8089   10.6194   -5.5926 N   0  0  0  0  0  0  0  0  0  0  0  0
   15.9329   10.9058   -0.3871 H   0  0  0  0  0  0  0  0  0  0  0  0
   13.7782    8.6716    9.6032 H   0  0  0  0  0  0  0  0  0  0  0  0
   15.3551    9.4706    9.6260 H   0  0  0  0  0  0  0  0  0  0  0  0
   15.2286    7.7499    9.2070 H   0  0  0  0  0  0  0  0  0  0  0  0
   13.6025   10.7823    6.5659 H   0  0  0  0  0  0  0  0  0  0  0  0
   14.3652   11.2246    8.1068 H   0  0  0  0  0  0  0  0  0  0  0  0
   12.8320   10.3470    8.0846 H   0  0  0  0  0  0  0  0  0  0  0  0
   14.2455    7.0406    7.0005 H   0  0  0  0  0  0  0  0  0  0  0  0
   13.5148    8.2346    5.9113 H   0  0  0  0  0  0  0  0  0  0  0  0
   12.7746    7.8729    7.4811 H   0  0  0  0  0  0  0  0  0  0  0  0
   16.5648    9.9883    7.4239 H   0  0  0  0  0  0  0  0  0  0  0  0
   16.2332    7.3422    6.5197 H   0  0  0  0  0  0  0  0  0  0  0  0
   13.4722   12.1779    2.7982 H   0  0  0  0  0  0  0  0  0  0  0  0
   13.4390   10.8732    4.0121 H   0  0  0  0  0  0  0  0  0  0  0  0
   11.8329   10.3169    2.3059 H   0  0  0  0  0  0  0  0  0  0  0  0
   13.9430    8.5112    2.9472 H   0  0  0  0  0  0  0  0  0  0  0  0
   11.7116    8.0751    2.8386 H   0  0  0  0  0  0  0  0  0  0  0  0
   15.1927    9.0042    0.9417 H   0  0  0  0  0  0  0  0  0  0  0  0
   14.6286    6.7651    0.9022 H   0  0  0  0  0  0  0  0  0  0  0  0
   12.4899    9.1274   -0.5153 H   0  0  0  0  0  0  0  0  0  0  0  0
   11.9107    8.6643   -4.9088 H   0  0  0  0  0  0  0  0  0  0  0  0
   15.6895   10.5073   -6.5844 H   0  0  0  0  0  0  0  0  0  0  0  0
   16.6237   11.0514   -5.1796 H   0  0  0  0  0  0  0  0  0  0  0  0
  1  2  2  0  0  0  0
  1  6  1  0  0  0  0
  1 28  1  0  0  0  0
  2  3  1  0  0  0  0
  2 29  1  0  0  0  0
  3  5  2  0  0  0  0
  3 31  1  0  0  0  0
  4 28  2  0  0  0  0
  4 29  1  0  0  0  0
  4 32  1  0  0  0  0
  5 30  1  0  0  0  0
  6 30  2  0  0  0  0
  7  8  1  0  0  0  0
  7 33  1  0  0  0  0
  7 34  1  0  0  0  0
  7 35  1  0  0  0  0
  8  9  1  0  0  0  0
  8 10  1  0  0  0  0
  8 11  1  0  0  0  0
  9 36  1  0  0  0  0
  9 37  1  0  0  0  0
  9 38  1  0  0  0  0
 10 39  1  0  0  0  0
 10 40  1  0  0  0  0
 10 41  1  0  0  0  0
 11 12  1  0  0  0  0
 11 13  1  0  0  0  0
 11 42  1  1  0  0  0
 12 43  1  0  0  0  0
 13 14  2  0  0  0  0
 13 15  1  0  0  0  0
 15 16  1  0  0  0  0
 16 17  2  0  0  0  0
 16 18  2  0  0  0  0
 16 19  1  0  0  0  0
 19 20  1  0  0  0  0
 20 21  1  0  0  0  0
 20 44  1  0  0  0  0
 20 45  1  0  0  0  0
 21 22  1  0  0  0  0
 21 23  1  0  0  0  0
 21 46  1  1  0  0  0
 22 27  1  0  0  0  0
 23 24  1  0  0  0  0
 23 25  1  0  0  0  0
 23 47  1  1  0  0  0
 24 48  1  0  0  0  0
 25 26  1  0  0  0  0
 25 27  1  0  0  0  0
 25 49  1  1  0  0  0
 26 50  1  0  0  0  0
 27 28  1  0  0  0  0
 27 51  1  6  0  0  0
 30 52  1  0  0  0  0
 31 53  1  0  0  0  0
 31 54  1  0  0  0  0
M  CHG  1  28   1
M  END
$$$$
