53H
 OpenBabel04091911173D

 56 58  0  0  1  0  0  0  0  0999 V2000
   15.9942    9.7571    5.1302 C   0  0  0  0  0  0  0  0  0  0  0  0
   12.9420    9.1978   -4.7137 C   0  0  0  0  0  0  0  0  0  0  0  0
   15.9873    9.4004    6.6242 C   0  0  1  0  0  0  0  0  0  0  0  0
   14.0209    9.9042   -2.8897 C   0  0  0  0  0  0  0  0  0  0  0  0
   15.0765   10.4260   -3.6124 C   0  0  0  0  0  0  0  0  0  0  0  0
   14.9944   10.2788   -5.0062 C   0  0  0  0  0  0  0  0  0  0  0  0
   14.6133    9.3014    7.3265 C   0  0  0  0  0  0  0  0  0  0  0  0
   13.9070    9.6585   -5.5485 N   0  0  0  0  0  0  0  0  0  0  0  0
   15.9690   11.0968    4.9605 N   0  0  0  0  0  0  0  0  0  0  0  0
   15.9828    8.8790    4.3216 O   0  0  0  0  0  0  0  0  0  0  0  0
   15.5493   10.8134   -1.5529 C   0  0  0  0  0  0  0  0  0  0  0  0
   14.3440    7.4808   -0.0096 O   0  0  0  0  0  0  0  0  0  0  0  0
   12.9232    9.2780   -3.3759 N   0  0  0  0  0  0  0  0  0  0  0  0
   13.6718    8.3288    6.6378 C   0  0  0  0  0  0  0  0  0  0  0  0
   14.8096    8.8024    8.7591 C   0  0  0  0  0  0  0  0  0  0  0  0
   13.9241   10.6616    7.4244 C   0  0  0  0  0  0  0  0  0  0  0  0
   16.7288    8.0821    6.8323 N   0  3  0  0  0  0  0  0  0  0  0  0
   16.1583   11.7910    3.5334 S   0  0  0  0  0  0  0  0  0  0  0  0
   17.4348   11.5003    2.9017 O   0  0  0  0  0  0  0  0  0  0  0  0
   15.7916   13.1991    3.5774 O   0  0  0  0  0  0  0  0  0  0  0  0
   15.0666   11.1442    2.5017 O   0  0  0  0  0  0  0  0  0  0  0  0
   13.6715   11.3164    2.6966 C   0  0  0  0  0  0  0  0  0  0  0  0
   12.9529   10.3905    1.7247 C   0  0  2  0  0  0  0  0  0  0  0  0
   13.5163    8.9683    1.7889 C   0  0  1  0  0  0  0  0  0  0  0  0
   12.4472    8.0198    1.8115 O   0  0  0  0  0  0  0  0  0  0  0  0
   14.2991    8.8123    0.4941 C   0  0  2  0  0  0  0  0  0  0  0  0
   13.5363    9.7441   -0.4311 C   0  0  1  0  0  0  0  0  0  0  0  0
   13.1626   10.8804    0.3771 O   0  0  0  0  0  0  0  0  0  0  0  0
   14.3339   10.1647   -1.5705 N   0  3  0  0  0  0  0  0  0  0  0  0
   16.0321   10.9929   -2.7744 N   0  0  0  0  0  0  0  0  0  0  0  0
   16.0018   10.7413   -5.8232 N   0  0  0  0  0  0  0  0  0  0  0  0
   12.0827    8.7033   -5.1932 H   0  0  0  0  0  0  0  0  0  0  0  0
   16.5784   10.1384    7.1635 H   0  0  0  0  0  0  0  0  0  0  0  0
   16.0494   11.1339   -0.6339 H   0  0  0  0  0  0  0  0  0  0  0  0
   14.7678    6.9198    0.6608 H   0  0  0  0  0  0  0  0  0  0  0  0
   12.7107    8.3095    7.1661 H   0  0  0  0  0  0  0  0  0  0  0  0
   14.0970    7.3221    6.6528 H   0  0  0  0  0  0  0  0  0  0  0  0
   13.5017    8.6381    5.6053 H   0  0  0  0  0  0  0  0  0  0  0  0
   15.4920    9.4687    9.2938 H   0  0  0  0  0  0  0  0  0  0  0  0
   15.2215    7.7904    8.7572 H   0  0  0  0  0  0  0  0  0  0  0  0
   13.8525    8.7622    9.2815 H   0  0  0  0  0  0  0  0  0  0  0  0
   13.7395   11.0742    6.4306 H   0  0  0  0  0  0  0  0  0  0  0  0
   14.5443   11.3612    7.9955 H   0  0  0  0  0  0  0  0  0  0  0  0
   12.9585   10.5595    7.9387 H   0  0  0  0  0  0  0  0  0  0  0  0
   16.7466    7.7957    7.8130 H   0  0  0  0  0  0  0  0  0  0  0  0
   16.3065    7.3225    6.2771 H   0  0  0  0  0  0  0  0  0  0  0  0
   13.3690   12.3508    2.5130 H   0  0  0  0  0  0  0  0  0  0  0  0
   13.4279   11.0322    3.7214 H   0  0  0  0  0  0  0  0  0  0  0  0
   11.8729   10.3885    1.9364 H   0  0  0  0  0  0  0  0  0  0  0  0
   14.1425    8.8128    2.6714 H   0  0  0  0  0  0  0  0  0  0  0  0
   11.8958    8.2024    2.5827 H   0  0  0  0  0  0  0  0  0  0  0  0
   15.3202    9.1697    0.6374 H   0  0  0  0  0  0  0  0  0  0  0  0
   12.6097    9.2840   -0.8039 H   0  0  0  0  0  0  0  0  0  0  0  0
   15.9233   10.6264   -6.8162 H   0  0  0  0  0  0  0  0  0  0  0  0
   16.8048   11.1848   -5.3927 H   0  0  0  0  0  0  0  0  0  0  0  0
   17.7047    8.1679    6.5269 H   0  0  0  0  0  0  0  0  0  0  0  0
  1  3  1  0  0  0  0
  1  9  1  0  0  0  0
  1 10  2  0  0  0  0
  2  8  2  0  0  0  0
  2 13  1  0  0  0  0
  2 32  1  0  0  0  0
  3  7  1  0  0  0  0
  3 17  1  0  0  0  0
  3 33  1  1  0  0  0
  4  5  1  0  0  0  0
  4 13  2  0  0  0  0
  4 29  1  0  0  0  0
  5  6  2  0  0  0  0
  5 30  1  0  0  0  0
  6  8  1  0  0  0  0
  6 31  1  0  0  0  0
  7 14  1  0  0  0  0
  7 15  1  0  0  0  0
  7 16  1  0  0  0  0
  9 18  1  0  0  0  0
 11 29  2  0  0  0  0
 11 30  1  0  0  0  0
 11 34  1  0  0  0  0
 12 26  1  0  0  0  0
 12 35  1  0  0  0  0
 14 36  1  0  0  0  0
 14 37  1  0  0  0  0
 14 38  1  0  0  0  0
 15 39  1  0  0  0  0
 15 40  1  0  0  0  0
 15 41  1  0  0  0  0
 16 42  1  0  0  0  0
 16 43  1  0  0  0  0
 16 44  1  0  0  0  0
 17 45  1  0  0  0  0
 17 46  1  0  0  0  0
 17 56  1  0  0  0  0
 18 19  2  0  0  0  0
 18 20  2  0  0  0  0
 18 21  1  0  0  0  0
 21 22  1  0  0  0  0
 22 23  1  0  0  0  0
 22 47  1  0  0  0  0
 22 48  1  0  0  0  0
 23 24  1  0  0  0  0
 23 28  1  0  0  0  0
 23 49  1  1  0  0  0
 24 25  1  0  0  0  0
 24 26  1  0  0  0  0
 24 50  1  1  0  0  0
 25 51  1  0  0  0  0
 26 27  1  0  0  0  0
 26 52  1  1  0  0  0
 27 28  1  0  0  0  0
 27 29  1  0  0  0  0
 27 53  1  6  0  0  0
 31 54  1  0  0  0  0
 31 55  1  0  0  0  0
M  CHG  2  17   1  29   1
M  END
$$$$
