57D
 OpenBabel04091911393D

 28 30  0  0  0  0  0  0  0  0999 V2000
   37.9978   34.8269   29.2724 C   0  0  0  0  0  0  0  0  0  0  0  0
   37.1321   34.2665   30.1153 C   0  0  0  0  0  0  0  0  0  0  0  0
   36.8679   34.8627   31.4286 C   0  0  0  0  0  0  0  0  0  0  0  0
   37.6240   36.1160   31.7512 C   0  0  0  0  0  0  0  0  0  0  0  0
   37.4961   36.7732   33.0050 C   0  0  0  0  0  0  0  0  0  0  0  0
   38.2868   37.9334   33.1444 C   0  0  0  0  0  0  0  0  0  0  0  0
   39.1196   38.4243   32.1438 C   0  0  0  0  0  0  0  0  0  0  0  0
   39.2253   37.7776   30.9315 C   0  0  0  0  0  0  0  0  0  0  0  0
   38.4825   36.6132   30.7427 C   0  0  0  0  0  0  0  0  0  0  0  0
   38.6684   36.0040   29.5266 O   0  3  0  0  0  0  0  0  0  0  0  0
   36.0495   34.2576   32.1200 O   0  0  0  0  0  0  0  0  0  0  0  0
   36.7538   36.4049   33.9750 O   0  0  0  0  0  0  0  0  0  0  0  0
   39.8280   39.5655   32.3880 O   0  0  0  0  0  0  0  0  0  0  0  0
   38.6841   35.0232   26.8922 C   0  0  0  0  0  0  0  0  0  0  0  0
   38.9821   34.4585   25.6540 C   0  0  0  0  0  0  0  0  0  0  0  0
   38.8871   33.0804   25.4776 C   0  0  0  0  0  0  0  0  0  0  0  0
   38.5010   32.2618   26.5366 C   0  0  0  0  0  0  0  0  0  0  0  0
   38.2122   32.8263   27.7760 C   0  0  0  0  0  0  0  0  0  0  0  0
   38.2895   34.2153   27.9672 C   0  0  0  0  0  0  0  0  0  0  0  0
   36.5762   33.3594   29.9190 H   0  0  0  0  0  0  0  0  0  0  0  0
   38.2269   38.4706   34.0907 H   0  0  0  0  0  0  0  0  0  0  0  0
   39.8869   38.1428   30.1557 H   0  0  0  0  0  0  0  0  0  0  0  0
   39.5737   40.1811   31.6824 H   0  0  0  0  0  0  0  0  0  0  0  0
   38.7613   36.1014   27.0169 H   0  0  0  0  0  0  0  0  0  0  0  0
   39.2923   35.1000   24.8346 H   0  0  0  0  0  0  0  0  0  0  0  0
   39.1240   32.6411   24.5130 H   0  0  0  0  0  0  0  0  0  0  0  0
   38.4329   31.1864   26.4074 H   0  0  0  0  0  0  0  0  0  0  0  0
   37.9388   32.1641   28.5957 H   0  0  0  0  0  0  0  0  0  0  0  0
  1  2  2  0  0  0  0
  1 10  1  0  0  0  0
  1 19  1  0  0  0  0
  2  3  1  0  0  0  0
  2 20  1  0  0  0  0
  3  4  1  0  0  0  0
  3 11  2  0  0  0  0
  4  5  2  0  0  0  0
  4  9  1  0  0  0  0
  5  6  1  0  0  0  0
  5 12  1  0  0  0  0
  6  7  2  0  0  0  0
  6 21  1  0  0  0  0
  7  8  1  0  0  0  0
  7 13  1  0  0  0  0
  8  9  2  0  0  0  0
  8 22  1  0  0  0  0
  9 10  1  0  0  0  0
 13 23  1  0  0  0  0
 14 15  2  0  0  0  0
 14 19  1  0  0  0  0
 14 24  1  0  0  0  0
 15 16  1  0  0  0  0
 15 25  1  0  0  0  0
 16 17  2  0  0  0  0
 16 26  1  0  0  0  0
 17 18  1  0  0  0  0
 17 27  1  0  0  0  0
 18 19  2  0  0  0  0
 18 28  1  0  0  0  0
M  CHG  1  10   1
M  END
$$$$
