5HI
 OpenBabel04091911113D

 71 73  0  0  1  0  0  0  0  0999 V2000
   78.6143    8.1007   -4.9603 N   0  3  0  0  0  0  0  0  0  0  0  0
   77.3975    9.6552   -5.9862 N   0  0  0  0  0  0  0  0  0  0  0  0
   77.3620    8.4464   -5.4347 C   0  0  0  0  0  0  0  0  0  0  0  0
   80.9203    9.1935   -4.8035 C   0  0  0  0  0  0  0  0  0  0  0  0
   78.9699    6.8371   -4.3223 C   0  0  0  0  0  0  0  0  0  0  0  0
   79.1159    7.0103   -2.8150 C   0  0  0  0  0  0  0  0  0  0  0  0
   78.8772    5.8697   -0.5923 C   0  0  0  0  0  0  0  0  0  0  0  0
   81.7607    9.5782   -6.0236 C   0  0  0  0  0  0  0  0  0  0  0  0
   74.7565    5.8941   -6.3729 C   0  0  0  0  0  0  0  0  0  0  0  0
   80.6915   14.8421   -8.1326 C   0  0  0  0  0  0  0  0  0  0  0  0
   81.9503   15.1507   -8.6586 C   0  0  0  0  0  0  0  0  0  0  0  0
   75.2766    7.6868   -4.2935 C   0  0  0  0  0  0  0  0  0  0  0  0
   74.1238    6.8913   -4.2625 C   0  0  0  0  0  0  0  0  0  0  0  0
   80.8282   12.6303   -9.0765 C   0  0  0  0  0  0  0  0  0  0  0  0
   79.8112   12.2349   -5.4414 O   0  0  0  0  0  0  0  0  0  0  0  0
   79.0590   11.5285   -6.1043 C   0  0  0  0  0  0  0  0  0  0  0  0
   78.5163   11.9342   -7.3032 N   0  0  0  0  0  0  0  0  0  0  0  0
   78.7034   13.2923   -7.8095 C   0  0  2  0  0  0  0  0  0  0  0  0
   77.6633   13.5830   -8.9185 C   0  0  0  0  0  0  0  0  0  0  0  0
   77.7137   12.6360   -9.9904 O   0  0  0  0  0  0  0  0  0  0  0  0
   80.1120   13.5763   -8.3317 C   0  0  0  0  0  0  0  0  0  0  0  0
   82.0852   12.9376   -9.6036 C   0  0  0  0  0  0  0  0  0  0  0  0
   82.6495   14.1982   -9.4000 C   0  0  0  0  0  0  0  0  0  0  0  0
   78.6591   10.1628   -5.7288 C   0  0  0  0  0  0  0  0  0  0  0  0
   79.4598    9.1800   -5.1520 C   0  0  0  0  0  0  0  0  0  0  0  0
   81.1949   10.0844   -3.5941 C   0  0  0  0  0  0  0  0  0  0  0  0
   76.1748    7.5934   -5.3687 C   0  0  0  0  0  0  0  0  0  0  0  0
   73.8730    6.0079   -5.3058 C   0  0  0  0  0  0  0  0  0  0  0  0
   72.7606    5.2604   -5.2953 F   0  0  0  0  0  0  0  0  0  0  0  0
   75.9084    6.6855   -6.4045 C   0  0  0  0  0  0  0  0  0  0  0  0
   79.2478    5.6833   -2.0690 C   0  0  2  0  0  0  0  0  0  0  0  0
   80.6144    5.2559   -2.1291 O   0  0  0  0  0  0  0  0  0  0  0  0
   77.3565    5.8909   -0.3766 C   0  0  1  0  0  0  0  0  0  0  0  0
   76.8702    4.6247   -0.8403 O   0  0  0  0  0  0  0  0  0  0  0  0
   77.0437    6.1006    1.0977 C   0  0  0  0  0  0  0  0  0  0  0  0
   75.5939    6.5388    1.2568 C   0  0  0  0  0  0  0  0  0  0  0  0
   74.8442    5.6969    1.8256 O   0  0  0  0  0  0  0  0  0  0  0  0
   75.3402    7.7082    0.8516 O   0  0  0  0  0  0  0  0  0  0  0  0
   81.2425    8.1848   -4.5296 H   0  0  0  0  0  0  0  0  0  0  0  0
   79.8958    6.4788   -4.7848 H   0  0  0  0  0  0  0  0  0  0  0  0
   78.2006    6.0973   -4.5583 H   0  0  0  0  0  0  0  0  0  0  0  0
   78.2572    7.5815   -2.4480 H   0  0  0  0  0  0  0  0  0  0  0  0
   80.0078    7.6089   -2.6035 H   0  0  0  0  0  0  0  0  0  0  0  0
   79.3308    6.7935   -0.2110 H   0  0  0  0  0  0  0  0  0  0  0  0
   79.3175    5.0487   -0.0101 H   0  0  0  0  0  0  0  0  0  0  0  0
   82.8280    9.5761   -5.7788 H   0  0  0  0  0  0  0  0  0  0  0  0
   81.5164   10.5702   -6.4109 H   0  0  0  0  0  0  0  0  0  0  0  0
   81.5979    8.8643   -6.8400 H   0  0  0  0  0  0  0  0  0  0  0  0
   74.5382    5.1984   -7.1758 H   0  0  0  0  0  0  0  0  0  0  0  0
   80.1636   15.6082   -7.5649 H   0  0  0  0  0  0  0  0  0  0  0  0
   82.3786   16.1345   -8.5001 H   0  0  0  0  0  0  0  0  0  0  0  0
   75.4575    8.3804   -3.4733 H   0  0  0  0  0  0  0  0  0  0  0  0
   73.4260    6.9613   -3.4319 H   0  0  0  0  0  0  0  0  0  0  0  0
   80.4049   11.6460   -9.2681 H   0  0  0  0  0  0  0  0  0  0  0  0
   77.7658   11.3430   -7.6268 H   0  0  0  0  0  0  0  0  0  0  0  0
   78.5131   13.9714   -6.9708 H   0  0  0  0  0  0  0  0  0  0  0  0
   77.8098   14.5797   -9.3457 H   0  0  0  0  0  0  0  0  0  0  0  0
   76.6562   13.5352   -8.4968 H   0  0  0  0  0  0  0  0  0  0  0  0
   77.7448   11.7484   -9.5967 H   0  0  0  0  0  0  0  0  0  0  0  0
   82.6261   12.1933  -10.1832 H   0  0  0  0  0  0  0  0  0  0  0  0
   83.6232   14.4347   -9.8108 H   0  0  0  0  0  0  0  0  0  0  0  0
   80.5870    9.7836   -2.7345 H   0  0  0  0  0  0  0  0  0  0  0  0
   80.9740   11.1350   -3.7815 H   0  0  0  0  0  0  0  0  0  0  0  0
   82.2491   10.0208   -3.3009 H   0  0  0  0  0  0  0  0  0  0  0  0
   76.5931    6.6016   -7.2436 H   0  0  0  0  0  0  0  0  0  0  0  0
   78.6374    4.8985   -2.5279 H   0  0  0  0  0  0  0  0  0  0  0  0
   80.8171    5.0283   -3.0500 H   0  0  0  0  0  0  0  0  0  0  0  0
   76.8885    6.6608   -0.9950 H   0  0  0  0  0  0  0  0  0  0  0  0
   77.0762    3.9718   -0.1478 H   0  0  0  0  0  0  0  0  0  0  0  0
   77.6648    6.9044    1.5126 H   0  0  0  0  0  0  0  0  0  0  0  0
   77.2341    5.1959    1.6848 H   0  0  0  0  0  0  0  0  0  0  0  0
  1  3  2  0  0  0  0
  1  5  1  0  0  0  0
  1 25  1  0  0  0  0
  2  3  1  0  0  0  0
  2 24  1  0  0  0  0
  3 27  1  0  0  0  0
  4  8  1  0  0  0  0
  4 25  1  0  0  0  0
  4 26  1  0  0  0  0
  4 39  1  0  0  0  0
  5  6  1  0  0  0  0
  5 40  1  0  0  0  0
  5 41  1  0  0  0  0
  6 31  1  0  0  0  0
  6 42  1  0  0  0  0
  6 43  1  0  0  0  0
  7 31  1  0  0  0  0
  7 33  1  0  0  0  0
  7 44  1  0  0  0  0
  7 45  1  0  0  0  0
  8 46  1  0  0  0  0
  8 47  1  0  0  0  0
  8 48  1  0  0  0  0
  9 28  2  0  0  0  0
  9 30  1  0  0  0  0
  9 49  1  0  0  0  0
 10 11  2  0  0  0  0
 10 21  1  0  0  0  0
 10 50  1  0  0  0  0
 11 23  1  0  0  0  0
 11 51  1  0  0  0  0
 12 13  2  0  0  0  0
 12 27  1  0  0  0  0
 12 52  1  0  0  0  0
 13 28  1  0  0  0  0
 13 53  1  0  0  0  0
 14 21  2  0  0  0  0
 14 22  1  0  0  0  0
 14 54  1  0  0  0  0
 15 16  2  0  0  0  0
 16 17  1  0  0  0  0
 16 24  1  0  0  0  0
 17 18  1  0  0  0  0
 17 55  1  0  0  0  0
 18 19  1  0  0  0  0
 18 21  1  0  0  0  0
 18 56  1  1  0  0  0
 19 20  1  0  0  0  0
 19 57  1  0  0  0  0
 19 58  1  0  0  0  0
 20 59  1  0  0  0  0
 22 23  2  0  0  0  0
 22 60  1  0  0  0  0
 23 61  1  0  0  0  0
 24 25  2  0  0  0  0
 26 62  1  0  0  0  0
 26 63  1  0  0  0  0
 26 64  1  0  0  0  0
 27 30  2  0  0  0  0
 28 29  1  0  0  0  0
 30 65  1  0  0  0  0
 31 32  1  0  0  0  0
 31 66  1  6  0  0  0
 32 67  1  0  0  0  0
 33 34  1  0  0  0  0
 33 35  1  0  0  0  0
 33 68  1  6  0  0  0
 34 69  1  0  0  0  0
 35 36  1  0  0  0  0
 35 70  1  0  0  0  0
 35 71  1  0  0  0  0
 36 37  2  0  0  0  0
 36 38  1  0  0  0  0
M  CHG  1   1   1
M  END
$$$$
