5MA
 OpenBabel04091915363D

 46 50  0  0  0  0  0  0  0  0999 V2000
   11.4004   12.3981   15.5185 C   0  0  0  0  0  0  0  0  0  0  0  0
    7.3121   12.6564   15.4983 N   0  3  0  0  0  0  0  0  0  0  0  0
   11.2335   12.1006   17.8840 O   0  0  0  0  0  0  0  0  0  0  0  0
   10.8329   12.6015   14.2567 C   0  0  0  0  0  0  0  0  0  0  0  0
   13.1197   12.2521   15.6312 Cl  0  0  0  0  0  0  0  0  0  0  0  0
    9.4468   12.7139   14.0935 C   0  0  0  0  0  0  0  0  0  0  0  0
   10.7671   16.5980   20.2201 Cl  0  0  0  0  0  0  0  0  0  0  0  0
    8.6650   12.6436   15.2508 C   0  0  0  0  0  0  0  0  0  0  0  0
   10.0320   10.4027   19.9669 Cl  0  0  0  0  0  0  0  0  0  0  0  0
    9.2069   12.4683   16.5197 C   0  0  0  0  0  0  0  0  0  0  0  0
   10.6029   12.3432   16.6701 C   0  0  0  0  0  0  0  0  0  0  0  0
   10.9483   14.1984   19.0085 C   0  0  0  0  0  0  0  0  0  0  0  0
   10.7671   12.8148   18.9611 C   0  0  0  0  0  0  0  0  0  0  0  0
   10.2000   12.1283   20.0421 C   0  0  0  0  0  0  0  0  0  0  0  0
    9.7868   12.8295   21.1890 C   0  0  0  0  0  0  0  0  0  0  0  0
    9.9684   14.2249   21.2237 C   0  0  0  0  0  0  0  0  0  0  0  0
   10.5427   14.8970   20.1390 C   0  0  0  0  0  0  0  0  0  0  0  0
    7.0482   12.6123   16.8202 N   0  0  0  0  0  0  0  0  0  0  0  0
    8.1977   12.4425   17.4524 N   0  0  0  0  0  0  0  0  0  0  0  0
    6.2324   12.4930   14.5368 C   0  0  0  0  0  0  0  0  0  0  0  0
    6.1424   11.0640   14.1476 C   0  0  0  0  0  0  0  0  0  0  0  0
    6.4762   10.6423   12.8816 N   0  3  0  0  0  0  0  0  0  0  0  0
    6.5100    9.3092   12.7222 N   0  0  0  0  0  0  0  0  0  0  0  0
    6.1510    8.8325   13.9129 C   0  0  0  0  0  0  0  0  0  0  0  0
    5.8743    9.8959   14.8346 C   0  0  0  0  0  0  0  0  0  0  0  0
    6.0725    7.5295   14.2816 N   0  0  0  0  0  0  0  0  0  0  0  0
    5.7079    7.3896   15.5907 C   0  0  0  0  0  0  0  0  0  0  0  0
    5.4256    8.4151   16.5218 C   0  0  0  0  0  0  0  0  0  0  0  0
    5.4978    9.7718   16.1671 C   0  0  0  0  0  0  0  0  0  0  0  0
    9.1575   12.1277   22.3567 C   0  0  0  0  0  0  0  0  0  0  0  0
   10.0862   11.1762   23.0107 N   0  3  0  0  0  0  0  0  0  0  0  0
   11.4772   12.6580   13.3802 H   0  0  0  0  0  0  0  0  0  0  0  0
    9.0180   12.8494   13.1051 H   0  0  0  0  0  0  0  0  0  0  0  0
   11.4114   14.7214   18.1751 H   0  0  0  0  0  0  0  0  0  0  0  0
    9.6623   14.8081   22.0920 H   0  0  0  0  0  0  0  0  0  0  0  0
    6.4598   13.1415   13.6798 H   0  0  0  0  0  0  0  0  0  0  0  0
    5.3025   12.8568   14.9939 H   0  0  0  0  0  0  0  0  0  0  0  0
    6.7457   11.2094   12.0831 H   0  0  0  0  0  0  0  0  0  0  0  0
    5.6466    6.3504   15.9115 H   0  0  0  0  0  0  0  0  0  0  0  0
    5.1498    8.1387   17.5375 H   0  0  0  0  0  0  0  0  0  0  0  0
    5.2993   10.5744   16.8631 H   0  0  0  0  0  0  0  0  0  0  0  0
    8.2729   11.5613   22.0455 H   0  0  0  0  0  0  0  0  0  0  0  0
    8.8474   12.8327   23.1343 H   0  0  0  0  0  0  0  0  0  0  0  0
    9.6393   10.6940   23.7988 H   0  0  0  0  0  0  0  0  0  0  0  0
   10.3864   10.4561   22.3362 H   0  0  0  0  0  0  0  0  0  0  0  0
   10.9305   11.6472   23.3577 H   0  0  0  0  0  0  0  0  0  0  0  0
  1  4  1  0  0  0  0
  1  5  1  0  0  0  0
  1 11  2  0  0  0  0
  2  8  2  0  0  0  0
  2 18  1  0  0  0  0
  2 20  1  0  0  0  0
  3 11  1  0  0  0  0
  3 13  1  0  0  0  0
  4  6  2  0  0  0  0
  4 32  1  0  0  0  0
  6  8  1  0  0  0  0
  6 33  1  0  0  0  0
  7 17  1  0  0  0  0
  8 10  1  0  0  0  0
  9 14  1  0  0  0  0
 10 11  1  0  0  0  0
 10 19  2  0  0  0  0
 12 13  2  0  0  0  0
 12 17  1  0  0  0  0
 12 34  1  0  0  0  0
 13 14  1  0  0  0  0
 14 15  2  0  0  0  0
 15 16  1  0  0  0  0
 15 30  1  0  0  0  0
 16 17  2  0  0  0  0
 16 35  1  0  0  0  0
 18 19  1  0  0  0  0
 20 21  1  0  0  0  0
 20 36  1  0  0  0  0
 20 37  1  0  0  0  0
 21 22  2  0  0  0  0
 21 25  1  0  0  0  0
 22 23  1  0  0  0  0
 22 38  1  0  0  0  0
 23 24  1  0  0  0  0
 24 25  2  0  0  0  0
 24 26  1  0  0  0  0
 25 29  1  0  0  0  0
 26 27  2  0  0  0  0
 27 28  1  0  0  0  0
 27 39  1  0  0  0  0
 28 29  2  0  0  0  0
 28 40  1  0  0  0  0
 29 41  1  0  0  0  0
 30 31  1  0  0  0  0
 30 42  1  0  0  0  0
 30 43  1  0  0  0  0
 31 44  1  0  0  0  0
 31 45  1  0  0  0  0
 31 46  1  0  0  0  0
M  CHG  3   2   1  22   1  31   1
M  END
$$$$
