5TF
 OpenBabel04091916403D

 43 46  0  0  1  0  0  0  0  0999 V2000
   20.2597   82.0702    1.6322 C   0  0  0  0  0  0  0  0  0  0  0  0
   19.6329   82.9401    2.7185 C   0  0  0  0  0  0  0  0  0  0  0  0
   18.7382   83.9930    2.0818 C   0  0  0  0  0  0  0  0  0  0  0  0
   18.8618   82.1046    3.6295 N   0  0  0  0  0  0  0  0  0  0  0  0
   18.6073   82.4084    4.9501 C   0  0  0  0  0  0  0  0  0  0  0  0
   17.9656   81.3496    5.8002 C   0  0  0  0  0  0  0  0  0  0  0  0
   17.7218   81.6050    7.0900 C   0  0  0  0  0  0  0  0  0  0  0  0
   18.0609   82.8654    7.6161 C   0  0  0  0  0  0  0  0  0  0  0  0
   17.9346   83.4021    8.8085 N   0  0  0  0  0  0  0  0  0  0  0  0
   18.4375   84.6838    8.7456 N   0  0  0  0  0  0  0  0  0  0  0  0
   18.8626   84.8977    7.5114 C   0  0  0  0  0  0  0  0  0  0  0  0
   19.4960   86.1414    6.9586 C   0  0  1  0  0  0  0  0  0  0  0  0
   18.9013   87.3976    7.6077 C   0  0  0  0  0  0  0  0  0  0  0  0
   20.9996   86.1018    7.0993 C   0  0  0  0  0  0  0  0  0  0  0  0
   21.7351   86.2218    8.2692 C   0  0  0  0  0  0  0  0  0  0  0  0
   23.0700   86.1133    7.9649 N   0  3  0  0  0  0  0  0  0  0  0  0
   23.2215   85.9286    6.6082 C   0  0  0  0  0  0  0  0  0  0  0  0
   24.4011   85.7846    5.9721 N   0  0  0  0  0  0  0  0  0  0  0  0
   24.2603   85.6136    4.6329 C   0  0  0  0  0  0  0  0  0  0  0  0
   23.0629   85.5838    3.9369 C   0  0  0  0  0  0  0  0  0  0  0  0
   21.8725   85.7415    4.6466 C   0  0  0  0  0  0  0  0  0  0  0  0
   21.9506   85.9190    6.0401 C   0  0  0  0  0  0  0  0  0  0  0  0
   18.6418   83.7677    6.7532 N   0  3  0  0  0  0  0  0  0  0  0  0
   18.9301   83.5897    5.4221 N   0  0  0  0  0  0  0  0  0  0  0  0
   20.8533   82.6762    0.9375 H   0  0  0  0  0  0  0  0  0  0  0  0
   19.4913   81.5477    1.0512 H   0  0  0  0  0  0  0  0  0  0  0  0
   20.9186   81.3161    2.0733 H   0  0  0  0  0  0  0  0  0  0  0  0
   20.4446   83.4356    3.2608 H   0  0  0  0  0  0  0  0  0  0  0  0
   18.2872   84.6312    2.8464 H   0  0  0  0  0  0  0  0  0  0  0  0
   17.9298   83.5274    1.5078 H   0  0  0  0  0  0  0  0  0  0  0  0
   19.3137   84.6329    1.4026 H   0  0  0  0  0  0  0  0  0  0  0  0
   18.4789   81.2535    3.2406 H   0  0  0  0  0  0  0  0  0  0  0  0
   17.7338   80.3920    5.3545 H   0  0  0  0  0  0  0  0  0  0  0  0
   17.2696   80.8603    7.7365 H   0  0  0  0  0  0  0  0  0  0  0  0
   19.2497   86.2119    5.8904 H   0  0  0  0  0  0  0  0  0  0  0  0
   17.8125   87.4282    7.4855 H   0  0  0  0  0  0  0  0  0  0  0  0
   19.3166   88.3065    7.1558 H   0  0  0  0  0  0  0  0  0  0  0  0
   19.1141   87.4356    8.6821 H   0  0  0  0  0  0  0  0  0  0  0  0
   21.3999   86.3638    9.2887 H   0  0  0  0  0  0  0  0  0  0  0  0
   23.8417   86.1513    8.6141 H   0  0  0  0  0  0  0  0  0  0  0  0
   25.1961   85.4926    4.0882 H   0  0  0  0  0  0  0  0  0  0  0  0
   23.0519   85.4426    2.8611 H   0  0  0  0  0  0  0  0  0  0  0  0
   20.9157   85.7224    4.1419 H   0  0  0  0  0  0  0  0  0  0  0  0
  1  2  1  0  0  0  0
  1 25  1  0  0  0  0
  1 26  1  0  0  0  0
  1 27  1  0  0  0  0
  2  3  1  0  0  0  0
  2  4  1  0  0  0  0
  2 28  1  0  0  0  0
  3 29  1  0  0  0  0
  3 30  1  0  0  0  0
  3 31  1  0  0  0  0
  4  5  1  0  0  0  0
  4 32  1  0  0  0  0
  5  6  2  0  0  0  0
  5 24  1  0  0  0  0
  6  7  1  0  0  0  0
  6 33  1  0  0  0  0
  7  8  2  0  0  0  0
  7 34  1  0  0  0  0
  8  9  1  0  0  0  0
  8 23  1  0  0  0  0
  9 10  1  0  0  0  0
 10 11  2  0  0  0  0
 11 12  1  0  0  0  0
 11 23  1  0  0  0  0
 12 13  1  0  0  0  0
 12 14  1  0  0  0  0
 12 35  1  6  0  0  0
 13 36  1  0  0  0  0
 13 37  1  0  0  0  0
 13 38  1  0  0  0  0
 14 15  2  0  0  0  0
 14 22  1  0  0  0  0
 15 16  1  0  0  0  0
 15 39  1  0  0  0  0
 16 17  2  0  0  0  0
 16 40  1  0  0  0  0
 17 18  1  0  0  0  0
 17 22  1  0  0  0  0
 18 19  1  0  0  0  0
 19 20  2  0  0  0  0
 19 41  1  0  0  0  0
 20 21  1  0  0  0  0
 20 42  1  0  0  0  0
 21 22  2  0  0  0  0
 21 43  1  0  0  0  0
 23 24  2  0  0  0  0
M  CHG  2  16   1  23   1
M  END
$$$$
