5UN
 OpenBabel04091914553D

 31 32  0  0  0  0  0  0  0  0999 V2000
   16.1686    1.8912   15.7432 C   0  0  0  0  0  0  0  0  0  0  0  0
   15.9291   -0.7934   16.0668 N   0  0  0  0  0  0  0  0  0  0  0  0
   15.9507    0.7449   18.0630 O   0  0  0  0  0  0  0  0  0  0  0  0
   15.3824    0.6492   16.7344 S   0  0  0  0  0  0  0  0  0  0  0  0
   17.5414    1.8313   15.5240 C   0  0  0  0  0  0  0  0  0  0  0  0
   13.9570    0.7322   16.5505 O   0  0  0  0  0  0  0  0  0  0  0  0
   18.1633    2.8340   14.7789 C   0  0  0  0  0  0  0  0  0  0  0  0
   17.4350    3.9013   14.2505 C   0  0  0  0  0  0  0  0  0  0  0  0
   16.0550    3.9469   14.4788 C   0  0  0  0  0  0  0  0  0  0  0  0
   15.4157    2.9404   15.2206 C   0  0  0  0  0  0  0  0  0  0  0  0
   18.1595    4.8615   13.5109 N   0  0  0  0  0  0  0  0  0  0  0  0
   17.6715    5.9945   12.9047 C   0  0  0  0  0  0  0  0  0  0  0  0
   16.4685    6.3253   12.8951 O   0  0  0  0  0  0  0  0  0  0  0  0
   18.6708    6.8637   12.1808 C   0  0  0  0  0  0  0  0  0  0  0  0
   19.2110    7.9903   13.0295 C   0  0  0  0  0  0  0  0  0  0  0  0
   19.2031    9.3273   12.7036 C   0  0  0  0  0  0  0  0  0  0  0  0
   19.7939   10.1523   13.6988 C   0  0  0  0  0  0  0  0  0  0  0  0
   20.2811    9.4458   14.7751 C   0  0  0  0  0  0  0  0  0  0  0  0
   19.9860    7.7585   14.5526 S   0  0  0  0  0  0  0  0  0  0  0  0
   15.6127   -1.6671   16.4940 H   0  0  0  0  0  0  0  0  0  0  0  0
   16.5547   -0.8137   15.2701 H   0  0  0  0  0  0  0  0  0  0  0  0
   18.1323    1.0182   15.9400 H   0  0  0  0  0  0  0  0  0  0  0  0
   19.2373    2.7737   14.6155 H   0  0  0  0  0  0  0  0  0  0  0  0
   15.4513    4.7606   14.0901 H   0  0  0  0  0  0  0  0  0  0  0  0
   14.3404    2.9906   15.3972 H   0  0  0  0  0  0  0  0  0  0  0  0
   19.1622    4.6969   13.4540 H   0  0  0  0  0  0  0  0  0  0  0  0
   18.1606    7.3000   11.2992 H   0  0  0  0  0  0  0  0  0  0  0  0
   19.4878    6.2365   11.8019 H   0  0  0  0  0  0  0  0  0  0  0  0
   18.7778    9.7299   11.7883 H   0  0  0  0  0  0  0  0  0  0  0  0
   19.8495   11.2293   13.6038 H   0  0  0  0  0  0  0  0  0  0  0  0
   20.7785    9.8679   15.6455 H   0  0  0  0  0  0  0  0  0  0  0  0
  1  4  1  0  0  0  0
  1  5  2  0  0  0  0
  1 10  1  0  0  0  0
  2  4  1  0  0  0  0
  2 20  1  0  0  0  0
  2 21  1  0  0  0  0
  3  4  2  0  0  0  0
  4  6  2  0  0  0  0
  5  7  1  0  0  0  0
  5 22  1  0  0  0  0
  7  8  2  0  0  0  0
  7 23  1  0  0  0  0
  8  9  1  0  0  0  0
  8 11  1  0  0  0  0
  9 10  2  0  0  0  0
  9 24  1  0  0  0  0
 10 25  1  0  0  0  0
 11 12  1  0  0  0  0
 11 26  1  0  0  0  0
 12 13  2  0  0  0  0
 12 14  1  0  0  0  0
 14 15  1  0  0  0  0
 14 27  1  0  0  0  0
 14 28  1  0  0  0  0
 15 16  2  0  0  0  0
 15 19  1  0  0  0  0
 16 17  1  0  0  0  0
 16 29  1  0  0  0  0
 17 18  2  0  0  0  0
 17 30  1  0  0  0  0
 18 19  1  0  0  0  0
 18 31  1  0  0  0  0
M  END
$$$$
