619
 OpenBabel04091913003D

 67 71  0  0  1  0  0  0  0  0999 V2000
    0.6337    7.2824   18.3261 F   0  0  0  0  0  0  0  0  0  0  0  0
    0.6567    8.4231   17.6232 C   0  0  0  0  0  0  0  0  0  0  0  0
   -0.2237    9.4440   17.9448 C   0  0  0  0  0  0  0  0  0  0  0  0
   -0.1906   10.6321   17.2145 C   0  0  0  0  0  0  0  0  0  0  0  0
    1.5623    8.5643   16.5819 C   0  0  0  0  0  0  0  0  0  0  0  0
    1.5923    9.7538   15.8506 C   0  0  0  0  0  0  0  0  0  0  0  0
    0.7236   10.8170   16.1559 C   0  0  0  0  0  0  0  0  0  0  0  0
    0.7614   12.0766   15.3879 C   0  0  0  0  0  0  0  0  0  0  0  0
   -0.4209   12.7767   15.1083 C   0  0  0  0  0  0  0  0  0  0  0  0
    1.9674   12.6273   14.9236 C   0  0  0  0  0  0  0  0  0  0  0  0
    1.9755   13.8225   14.2106 C   0  0  0  0  0  0  0  0  0  0  0  0
    3.1806   14.3026   13.7806 O   0  0  0  0  0  0  0  0  0  0  0  0
    0.7930   14.5095   13.9480 C   0  0  0  0  0  0  0  0  0  0  0  0
    0.8610   15.6631   13.2114 O   0  0  0  0  0  0  0  0  0  0  0  0
   -0.4191   13.9956   14.4088 C   0  0  0  0  0  0  0  0  0  0  0  0
   -1.7430   14.6415   14.2194 C   0  0  0  0  0  0  0  0  0  0  0  0
   -2.7827   14.0110   14.4161 O   0  0  0  0  0  0  0  0  0  0  0  0
   -1.7331   15.9617   13.8675 N   0  0  0  0  0  0  0  0  0  0  0  0
   -2.9561   16.6978   13.7197 C   0  0  0  0  0  0  0  0  0  0  0  0
   -2.6275   18.1412   13.8903 C   0  0  0  0  0  0  0  0  0  0  0  0
   -3.4381   19.0026   14.5229 C   0  0  0  0  0  0  0  0  0  0  0  0
   -3.1040   20.4492   14.7530 C   0  0  2  0  0  0  0  0  0  0  0  0
   -3.8040   21.0239   15.9908 C   0  0  1  0  0  0  0  0  0  0  0  0
   -3.1399   22.1958   16.4868 O   0  0  0  0  0  0  0  0  0  0  0  0
   -5.1789   21.3739   15.4263 C   0  0  1  0  0  0  0  0  0  0  0  0
   -5.9077   22.3017   16.2166 O   0  0  0  0  0  0  0  0  0  0  0  0
   -3.6072   21.1967   13.6311 O   0  0  0  0  0  0  0  0  0  0  0  0
   -4.8078   21.8905   14.0327 C   0  0  1  0  0  0  0  0  0  0  0  0
   -5.7966   21.6923   13.0013 N   0  3  0  0  0  0  0  0  0  0  0  0
   -6.3621   20.5032   12.6277 C   0  0  0  0  0  0  0  0  0  0  0  0
   -6.2097   22.6418   12.1051 C   0  0  0  0  0  0  0  0  0  0  0  0
   -5.8715   23.9424   12.0800 N   0  0  0  0  0  0  0  0  0  0  0  0
   -6.3976   24.5504   11.0000 C   0  0  0  0  0  0  0  0  0  0  0  0
   -7.1666   24.0160   10.0284 N   0  0  0  0  0  0  0  0  0  0  0  0
   -7.5012   22.7004   10.1006 C   0  0  0  0  0  0  0  0  0  0  0  0
   -7.0056   21.9596   11.1967 C   0  0  0  0  0  0  0  0  0  0  0  0
   -7.1138   20.6283   11.5666 N   0  0  0  0  0  0  0  0  0  0  0  0
   -8.2591   22.2130    9.0590 N   0  0  0  0  0  0  0  0  0  0  0  0
   -8.9317   20.9342    9.0795 C   0  0  0  0  0  0  0  0  0  0  0  0
  -10.1845   20.9613    9.9404 C   0  0  0  0  0  0  0  0  0  0  0  0
   -0.9283    9.3143   18.7608 H   0  0  0  0  0  0  0  0  0  0  0  0
   -0.8912   11.4204   17.4898 H   0  0  0  0  0  0  0  0  0  0  0  0
    2.2366    7.7508   16.3391 H   0  0  0  0  0  0  0  0  0  0  0  0
    2.2943    9.8350   15.0237 H   0  0  0  0  0  0  0  0  0  0  0  0
   -1.3744   12.3714   15.4379 H   0  0  0  0  0  0  0  0  0  0  0  0
    2.9150   12.1402   15.1342 H   0  0  0  0  0  0  0  0  0  0  0  0
    3.0481   15.2214   13.4895 H   0  0  0  0  0  0  0  0  0  0  0  0
    1.2862   15.4161   12.3679 H   0  0  0  0  0  0  0  0  0  0  0  0
   -0.8463   16.3792   13.6077 H   0  0  0  0  0  0  0  0  0  0  0  0
   -3.6738   16.3515   14.4747 H   0  0  0  0  0  0  0  0  0  0  0  0
   -3.3661   16.4962   12.7266 H   0  0  0  0  0  0  0  0  0  0  0  0
   -1.6849   18.5007   13.4848 H   0  0  0  0  0  0  0  0  0  0  0  0
   -4.3866   18.6277   14.9030 H   0  0  0  0  0  0  0  0  0  0  0  0
   -2.0194   20.5970   14.7882 H   0  0  0  0  0  0  0  0  0  0  0  0
   -3.8522   20.3097   16.8201 H   0  0  0  0  0  0  0  0  0  0  0  0
   -2.9542   22.8059   15.7520 H   0  0  0  0  0  0  0  0  0  0  0  0
   -5.7824   20.4627   15.3612 H   0  0  0  0  0  0  0  0  0  0  0  0
   -5.3436   23.0786   16.3860 H   0  0  0  0  0  0  0  0  0  0  0  0
   -4.5723   22.9599   14.0770 H   0  0  0  0  0  0  0  0  0  0  0  0
   -6.1640   19.5679   13.1438 H   0  0  0  0  0  0  0  0  0  0  0  0
   -6.1684   25.6065   10.8879 H   0  0  0  0  0  0  0  0  0  0  0  0
   -8.4936   22.8983    8.3545 H   0  0  0  0  0  0  0  0  0  0  0  0
   -8.2591   20.1330    9.3989 H   0  0  0  0  0  0  0  0  0  0  0  0
   -9.2227   20.6905    8.0516 H   0  0  0  0  0  0  0  0  0  0  0  0
  -10.6816   19.9858    9.9094 H   0  0  0  0  0  0  0  0  0  0  0  0
  -10.8943   21.7152    9.5842 H   0  0  0  0  0  0  0  0  0  0  0  0
   -9.9544   21.1866   10.9864 H   0  0  0  0  0  0  0  0  0  0  0  0
  1  2  1  0  0  0  0
  2  3  2  0  0  0  0
  2  5  1  0  0  0  0
  3  4  1  0  0  0  0
  3 41  1  0  0  0  0
  4  7  2  0  0  0  0
  4 42  1  0  0  0  0
  5  6  2  0  0  0  0
  5 43  1  0  0  0  0
  6  7  1  0  0  0  0
  6 44  1  0  0  0  0
  7  8  1  0  0  0  0
  8  9  2  0  0  0  0
  8 10  1  0  0  0  0
  9 15  1  0  0  0  0
  9 45  1  0  0  0  0
 10 11  2  0  0  0  0
 10 46  1  0  0  0  0
 11 12  1  0  0  0  0
 11 13  1  0  0  0  0
 12 47  1  0  0  0  0
 13 14  1  0  0  0  0
 13 15  2  0  0  0  0
 14 48  1  0  0  0  0
 15 16  1  0  0  0  0
 16 17  2  0  0  0  0
 16 18  1  0  0  0  0
 18 19  1  0  0  0  0
 18 49  1  0  0  0  0
 19 20  1  0  0  0  0
 19 50  1  0  0  0  0
 19 51  1  0  0  0  0
 20 21  2  0  0  0  0
 20 52  1  0  0  0  0
 21 22  1  0  0  0  0
 21 53  1  0  0  0  0
 22 23  1  0  0  0  0
 22 27  1  0  0  0  0
 22 54  1  1  0  0  0
 23 24  1  0  0  0  0
 23 25  1  0  0  0  0
 23 55  1  1  0  0  0
 24 56  1  0  0  0  0
 25 26  1  0  0  0  0
 25 28  1  0  0  0  0
 25 57  1  6  0  0  0
 26 58  1  0  0  0  0
 27 28  1  0  0  0  0
 28 29  1  0  0  0  0
 28 59  1  1  0  0  0
 29 30  2  0  0  0  0
 29 31  1  0  0  0  0
 30 37  1  0  0  0  0
 30 60  1  0  0  0  0
 31 32  2  0  0  0  0
 31 36  1  0  0  0  0
 32 33  1  0  0  0  0
 33 34  2  0  0  0  0
 33 61  1  0  0  0  0
 34 35  1  0  0  0  0
 35 36  2  0  0  0  0
 35 38  1  0  0  0  0
 36 37  1  0  0  0  0
 38 39  1  0  0  0  0
 38 62  1  0  0  0  0
 39 40  1  0  0  0  0
 39 63  1  0  0  0  0
 39 64  1  0  0  0  0
 40 65  1  0  0  0  0
 40 66  1  0  0  0  0
 40 67  1  0  0  0  0
M  CHG  1  29   1
M  END
$$$$
