651
 OpenBabel04091910513D

 43 46  0  0  1  0  0  0  0  0999 V2000
   54.8528   12.3740   53.3557 O   0  0  0  0  0  0  0  0  0  0  0  0
   57.7498   21.0735   53.2635 C   0  0  0  0  0  0  0  0  0  0  0  0
   58.0045   20.2091   54.3192 C   0  0  0  0  0  0  0  0  0  0  0  0
   57.2241   20.5756   52.0821 C   0  0  0  0  0  0  0  0  0  0  0  0
   57.7258   18.8418   54.1883 C   0  0  0  0  0  0  0  0  0  0  0  0
   56.9522   19.2124   51.9574 C   0  0  0  0  0  0  0  0  0  0  0  0
   56.2827   16.3204   51.7162 C   0  0  0  0  0  0  0  0  0  0  0  0
   57.1308   15.9140   53.8951 C   0  0  0  0  0  0  0  0  0  0  0  0
   55.9718   14.9638   51.5762 C   0  0  0  0  0  0  0  0  0  0  0  0
   56.8302   14.5531   53.7589 C   0  0  0  0  0  0  0  0  0  0  0  0
   58.2593   11.6767   51.8361 C   0  0  0  0  0  0  0  0  0  0  0  0
   56.6880   10.1602   53.0003 C   0  0  0  0  0  0  0  0  0  0  0  0
   57.7531   11.0608   50.5288 C   0  0  0  0  0  0  0  0  0  0  0  0
   55.9799    9.7469   51.7114 C   0  0  0  0  0  0  0  0  0  0  0  0
   55.5471   12.1049   51.0168 C   0  0  0  0  0  0  0  0  0  0  0  0
   57.1865   18.2977   53.0055 C   0  0  0  0  0  0  0  0  0  0  0  0
   56.8779   16.8423   52.8725 C   0  0  0  0  0  0  0  0  0  0  0  0
   56.2739   14.0394   52.5791 C   0  0  0  0  0  0  0  0  0  0  0  0
   57.1504   11.6326   52.9091 C   0  0  2  0  0  0  0  0  0  0  0  0
   56.2609   10.7998   50.6697 N   0  3  1  0  0  0  0  0  0  0  0  0
   55.9583   12.5551   52.4620 C   0  0  1  0  0  0  0  0  0  0  0  0
   54.5520   11.4561   53.4045 H   0  0  0  0  0  0  0  0  0  0  0  0
   57.9609   22.1363   53.3644 H   0  0  0  0  0  0  0  0  0  0  0  0
   58.4155   20.5910   55.2500 H   0  0  0  0  0  0  0  0  0  0  0  0
   57.0213   21.2490   51.2507 H   0  0  0  0  0  0  0  0  0  0  0  0
   57.9455   18.2241   55.0543 H   0  0  0  0  0  0  0  0  0  0  0  0
   56.5427   18.8958   51.0020 H   0  0  0  0  0  0  0  0  0  0  0  0
   56.0156   16.9577   50.8782 H   0  0  0  0  0  0  0  0  0  0  0  0
   57.5579   16.2197   54.8470 H   0  0  0  0  0  0  0  0  0  0  0  0
   55.4618   14.6981   50.6564 H   0  0  0  0  0  0  0  0  0  0  0  0
   57.0131   13.9081   54.6176 H   0  0  0  0  0  0  0  0  0  0  0  0
   58.5988   12.7048   51.6635 H   0  0  0  0  0  0  0  0  0  0  0  0
   59.1424   11.1233   52.1786 H   0  0  0  0  0  0  0  0  0  0  0  0
   57.5586    9.5110   53.1597 H   0  0  0  0  0  0  0  0  0  0  0  0
   56.0352    9.9984   53.8648 H   0  0  0  0  0  0  0  0  0  0  0  0
   58.2288   10.0992   50.3111 H   0  0  0  0  0  0  0  0  0  0  0  0
   57.8956   11.7317   49.6754 H   0  0  0  0  0  0  0  0  0  0  0  0
   54.8928    9.7016   51.8380 H   0  0  0  0  0  0  0  0  0  0  0  0
   56.3343    8.7877   51.3244 H   0  0  0  0  0  0  0  0  0  0  0  0
   54.4715   11.9193   50.9284 H   0  0  0  0  0  0  0  0  0  0  0  0
   55.8566   12.7818   50.2184 H   0  0  0  0  0  0  0  0  0  0  0  0
   57.5578   11.9206   53.8836 H   0  0  0  0  0  0  0  0  0  0  0  0
   55.9020   10.4749   49.7613 H   0  0  0  0  0  0  0  0  0  0  0  0
  1 22  1  0  0  0  0
  2  3  2  0  0  0  0
  2  4  1  0  0  0  0
  2 23  1  0  0  0  0
  3  5  1  0  0  0  0
  3 24  1  0  0  0  0
  4  6  2  0  0  0  0
  4 25  1  0  0  0  0
  5 16  2  0  0  0  0
  5 26  1  0  0  0  0
  6 16  1  0  0  0  0
  6 27  1  0  0  0  0
  7  9  2  0  0  0  0
  7 17  1  0  0  0  0
  7 28  1  0  0  0  0
  8 10  1  0  0  0  0
  8 17  2  0  0  0  0
  8 29  1  0  0  0  0
  9 18  1  0  0  0  0
  9 30  1  0  0  0  0
 10 18  2  0  0  0  0
 10 31  1  0  0  0  0
 11 13  1  0  0  0  0
 11 19  1  0  0  0  0
 11 32  1  0  0  0  0
 11 33  1  0  0  0  0
 12 14  1  0  0  0  0
 12 19  1  0  0  0  0
 12 34  1  0  0  0  0
 12 35  1  0  0  0  0
 13 20  1  0  0  0  0
 13 36  1  0  0  0  0
 13 37  1  0  0  0  0
 14 20  1  0  0  0  0
 14 38  1  0  0  0  0
 14 39  1  0  0  0  0
 15 20  1  0  0  0  0
 15 21  1  0  0  0  0
 15 40  1  0  0  0  0
 15 41  1  0  0  0  0
 16 17  1  0  0  0  0
 18 21  1  0  0  0  0
 19 21  1  0  0  0  0
 19 42  1  1  0  0  0
 20 43  1  6  0  0  0
 21  1  1  1  0  0  0
M  CHG  1  20   1
M  END
$$$$
