6A5
 OpenBabel04091914063D

 49 52  0  0  0  0  0  0  0  0999 V2000
   48.1693   50.3122   35.2750 C   0  0  0  0  0  0  0  0  0  0  0  0
   47.2031   50.9785   34.6350 C   0  0  0  0  0  0  0  0  0  0  0  0
   47.5065   51.4461   33.2644 C   0  0  0  0  0  0  0  0  0  0  0  0
   48.6019   51.2275   32.6265 N   0  0  0  0  0  0  0  0  0  0  0  0
   49.3499   50.0967   34.5889 N   0  3  0  0  0  0  0  0  0  0  0  0
   49.5695   50.5060   33.3291 C   0  0  0  0  0  0  0  0  0  0  0  0
   50.8011   50.1445   32.9218 N   0  3  0  0  0  0  0  0  0  0  0  0
   51.4102   49.4816   34.0031 C   0  0  0  0  0  0  0  0  0  0  0  0
   50.4914   49.4260   35.0359 C   0  0  0  0  0  0  0  0  0  0  0  0
   52.6675   48.7897   33.9984 C   0  0  0  0  0  0  0  0  0  0  0  0
   52.9469   47.9404   33.1848 O   0  0  0  0  0  0  0  0  0  0  0  0
   53.4823   49.0926   35.1097 N   0  0  0  0  0  0  0  0  0  0  0  0
   46.4686   52.2523   32.5155 C   0  0  0  0  0  0  0  0  0  0  0  0
   48.0421   49.8606   36.6765 C   0  0  0  0  0  0  0  0  0  0  0  0
   45.8685   51.2905   35.2158 C   0  0  0  0  0  0  0  0  0  0  0  0
   45.9667   52.4775   36.0622 N   0  3  0  0  0  0  0  0  0  0  0  0
   47.5000   48.6069   36.9520 C   0  0  0  0  0  0  0  0  0  0  0  0
   47.4361   48.1763   38.2741 C   0  0  0  0  0  0  0  0  0  0  0  0
   47.9151   48.9871   39.3072 C   0  0  0  0  0  0  0  0  0  0  0  0
   48.4455   50.2409   39.0495 C   0  0  0  0  0  0  0  0  0  0  0  0
   48.5198   50.6556   37.7347 C   0  0  0  0  0  0  0  0  0  0  0  0
   49.2047   52.2040   37.4366 Cl  0  0  0  0  0  0  0  0  0  0  0  0
   47.8858   48.4500   40.9235 Cl  0  0  0  0  0  0  0  0  0  0  0  0
   53.7073   50.4331   35.6877 C   0  0  0  0  0  0  0  0  0  0  0  0
   55.0448   51.0271   35.1906 C   0  0  0  0  0  0  0  0  0  0  0  0
   56.1525   50.1206   35.3205 O   0  0  0  0  0  0  0  0  0  0  0  0
   55.9159   48.7791   34.8524 C   0  0  0  0  0  0  0  0  0  0  0  0
   54.6111   48.1840   35.3901 C   0  0  0  0  0  0  0  0  0  0  0  0
   50.5994   48.9698   36.0192 H   0  0  0  0  0  0  0  0  0  0  0  0
   46.8576   52.4732   31.5210 H   0  0  0  0  0  0  0  0  0  0  0  0
   46.2735   53.1861   33.0474 H   0  0  0  0  0  0  0  0  0  0  0  0
   45.5492   51.6716   32.4205 H   0  0  0  0  0  0  0  0  0  0  0  0
   45.5232   50.4692   35.8429 H   0  0  0  0  0  0  0  0  0  0  0  0
   45.1045   51.4969   34.4671 H   0  0  0  0  0  0  0  0  0  0  0  0
   45.0669   52.7039   36.5068 H   0  0  0  0  0  0  0  0  0  0  0  0
   46.6605   52.3345   36.8151 H   0  0  0  0  0  0  0  0  0  0  0  0
   47.1442   47.9632   36.1501 H   0  0  0  0  0  0  0  0  0  0  0  0
   47.0178   47.1982   38.5116 H   0  0  0  0  0  0  0  0  0  0  0  0
   48.8045   50.8685   39.8651 H   0  0  0  0  0  0  0  0  0  0  0  0
   53.7285   50.3241   36.7824 H   0  0  0  0  0  0  0  0  0  0  0  0
   52.8786   51.0947   35.4238 H   0  0  0  0  0  0  0  0  0  0  0  0
   55.2850   51.9284   35.7773 H   0  0  0  0  0  0  0  0  0  0  0  0
   54.9484   51.3295   34.1418 H   0  0  0  0  0  0  0  0  0  0  0  0
   56.7586   48.1544   35.1822 H   0  0  0  0  0  0  0  0  0  0  0  0
   55.8899   48.7744   33.7596 H   0  0  0  0  0  0  0  0  0  0  0  0
   54.4228   47.2005   34.9429 H   0  0  0  0  0  0  0  0  0  0  0  0
   54.6736   48.0466   36.4822 H   0  0  0  0  0  0  0  0  0  0  0  0
   51.2167   50.2953   32.0212 H   0  0  0  0  0  0  0  0  0  0  0  0
   46.2698   53.2980   35.5136 H   0  0  0  0  0  0  0  0  0  0  0  0
  1  2  1  0  0  0  0
  1  5  2  0  0  0  0
  1 14  1  0  0  0  0
  2  3  2  0  0  0  0
  2 15  1  0  0  0  0
  3  4  1  0  0  0  0
  3 13  1  0  0  0  0
  4  6  1  0  0  0  0
  5  6  1  0  0  0  0
  5  9  1  0  0  0  0
  6  7  2  0  0  0  0
  7  8  1  0  0  0  0
  7 48  1  0  0  0  0
  8  9  2  0  0  0  0
  8 10  1  0  0  0  0
  9 29  1  0  0  0  0
 10 11  2  0  0  0  0
 10 12  1  0  0  0  0
 12 24  1  0  0  0  0
 12 28  1  0  0  0  0
 13 30  1  0  0  0  0
 13 31  1  0  0  0  0
 13 32  1  0  0  0  0
 14 17  2  0  0  0  0
 14 21  1  0  0  0  0
 15 16  1  0  0  0  0
 15 33  1  0  0  0  0
 15 34  1  0  0  0  0
 16 35  1  0  0  0  0
 16 36  1  0  0  0  0
 16 49  1  0  0  0  0
 17 18  1  0  0  0  0
 17 37  1  0  0  0  0
 18 19  2  0  0  0  0
 18 38  1  0  0  0  0
 19 20  1  0  0  0  0
 19 23  1  0  0  0  0
 20 21  2  0  0  0  0
 20 39  1  0  0  0  0
 21 22  1  0  0  0  0
 24 25  1  0  0  0  0
 24 40  1  0  0  0  0
 24 41  1  0  0  0  0
 25 26  1  0  0  0  0
 25 42  1  0  0  0  0
 25 43  1  0  0  0  0
 26 27  1  0  0  0  0
 27 28  1  0  0  0  0
 27 44  1  0  0  0  0
 27 45  1  0  0  0  0
 28 46  1  0  0  0  0
 28 47  1  0  0  0  0
M  CHG  3   5   1   7   1  16   1
M  END
$$$$
