6HN
 OpenBabel04091912263D

 24 23  0  0  1  0  0  0  0  0999 V2000
   26.1541  -12.9418    6.5837 N   0  0  0  0  0  0  0  0  0  0  0  0
   21.7451  -17.4145    5.5483 N   0  3  0  0  0  0  0  0  0  0  0  0
   21.6222  -17.0770    7.0187 C   0  0  2  0  0  0  0  0  0  0  0  0
   20.4636  -16.0706    7.2837 C   0  0  0  0  0  0  0  0  0  0  0  0
   19.8943  -15.7353    6.2045 O   0  0  0  0  0  0  0  0  0  0  0  0
   20.2989  -15.7245    8.4915 O   0  0  0  0  0  0  0  0  0  0  0  0
   22.9883  -16.5900    7.4964 C   0  0  0  0  0  0  0  0  0  0  0  0
   23.2802  -15.1525    7.0828 C   0  0  0  0  0  0  0  0  0  0  0  0
   24.6472  -14.6781    7.5806 C   0  0  0  0  0  0  0  0  0  0  0  0
   24.8116  -13.2157    7.1932 C   0  0  0  0  0  0  0  0  0  0  0  0
   26.6734  -11.8522    6.8538 O   0  0  0  0  0  0  0  0  0  0  0  0
   26.6214  -13.7829    5.8015 O   0  0  0  0  0  0  0  0  0  0  0  0
   22.4784  -18.0917    5.3316 H   0  0  0  0  0  0  0  0  0  0  0  0
   20.8134  -17.7331    5.2386 H   0  0  0  0  0  0  0  0  0  0  0  0
   21.3871  -18.0256    7.5130 H   0  0  0  0  0  0  0  0  0  0  0  0
   23.7828  -17.2349    7.0986 H   0  0  0  0  0  0  0  0  0  0  0  0
   23.0466  -16.6640    8.5864 H   0  0  0  0  0  0  0  0  0  0  0  0
   22.5152  -14.4822    7.4934 H   0  0  0  0  0  0  0  0  0  0  0  0
   23.2487  -15.0573    5.9930 H   0  0  0  0  0  0  0  0  0  0  0  0
   25.4266  -15.3324    7.1752 H   0  0  0  0  0  0  0  0  0  0  0  0
   24.6924  -14.7760    8.6734 H   0  0  0  0  0  0  0  0  0  0  0  0
   24.0831  -12.9020    6.4375 H   0  0  0  0  0  0  0  0  0  0  0  0
   24.7121  -12.5718    8.0737 H   0  0  0  0  0  0  0  0  0  0  0  0
   21.8605  -16.5311    5.0371 H   0  0  0  0  0  0  0  0  0  0  0  0
  1 10  1  0  0  0  0
  1 11  2  0  0  0  0
  1 12  2  0  0  0  0
  2  3  1  0  0  0  0
  2 13  1  0  0  0  0
  2 14  1  0  0  0  0
  2 24  1  0  0  0  0
  3  4  1  0  0  0  0
  3  7  1  0  0  0  0
  3 15  1  1  0  0  0
  4  5  2  0  0  0  0
  4  6  1  0  0  0  0
  7  8  1  0  0  0  0
  7 16  1  0  0  0  0
  7 17  1  0  0  0  0
  8  9  1  0  0  0  0
  8 18  1  0  0  0  0
  8 19  1  0  0  0  0
  9 10  1  0  0  0  0
  9 20  1  0  0  0  0
  9 21  1  0  0  0  0
 10 22  1  0  0  0  0
 10 23  1  0  0  0  0
M  CHG  1   2   1
M  END
$$$$
