6XE
 OpenBabel04091916393D

 40 44  0  0  0  0  0  0  0  0999 V2000
   22.4134    8.7542   41.5632 C   0  0  0  0  0  0  0  0  0  0  0  0
   23.4592    8.6342   40.6246 C   0  0  0  0  0  0  0  0  0  0  0  0
   24.7566    8.7313   40.9874 N   0  0  0  0  0  0  0  0  0  0  0  0
   25.0430    8.9514   42.2917 C   0  0  0  0  0  0  0  0  0  0  0  0
   24.0904    9.0867   43.2830 C   0  0  0  0  0  0  0  0  0  0  0  0
   22.7549    8.9858   42.9075 C   0  0  0  0  0  0  0  0  0  0  0  0
   20.7462    8.4236   39.8013 C   0  0  0  0  0  0  0  0  0  0  0  0
   21.7846    8.3050   38.8749 C   0  0  0  0  0  0  0  0  0  0  0  0
   23.1182    8.4093   39.2934 C   0  0  0  0  0  0  0  0  0  0  0  0
   21.0732    8.6441   41.1455 C   0  0  0  0  0  0  0  0  0  0  0  0
   18.2699   12.1140   41.3896 C   0  0  0  0  0  0  0  0  0  0  0  0
   17.6958   13.1279   40.4091 C   0  0  0  0  0  0  0  0  0  0  0  0
   17.5338   12.8926   39.1457 N   0  0  0  0  0  0  0  0  0  0  0  0
   18.6294   10.9229   40.9744 N   0  0  0  0  0  0  0  0  0  0  0  0
   18.7986   13.0175   45.5809 C   0  0  0  0  0  0  0  0  0  0  0  0
   18.2407   13.9899   44.7589 C   0  0  0  0  0  0  0  0  0  0  0  0
   18.0526   13.7276   43.3962 C   0  0  0  0  0  0  0  0  0  0  0  0
   18.4266   12.4826   42.8431 C   0  0  0  0  0  0  0  0  0  0  0  0
   18.9883   11.5237   43.7032 C   0  0  0  0  0  0  0  0  0  0  0  0
   19.1742   11.7868   45.0645 C   0  0  0  0  0  0  0  0  0  0  0  0
   18.9762   13.2710   46.8839 F   0  0  0  0  0  0  0  0  0  0  0  0
   18.4533   10.7292   39.6206 N   0  3  0  0  0  0  0  0  0  0  0  0
   17.9264   11.6592   38.7326 C   0  0  0  0  0  0  0  0  0  0  0  0
   17.8885   11.1226   37.5313 N   0  0  0  0  0  0  0  0  0  0  0  0
   18.3826    9.8428   37.6081 N   0  0  0  0  0  0  0  0  0  0  0  0
   18.7345    9.6110   38.8594 C   0  0  0  0  0  0  0  0  0  0  0  0
   19.3005    8.3316   39.3691 C   0  0  0  0  0  0  0  0  0  0  0  0
   26.1028    9.0184   42.5299 H   0  0  0  0  0  0  0  0  0  0  0  0
   24.3766    9.2625   44.3129 H   0  0  0  0  0  0  0  0  0  0  0  0
   21.9858    9.0880   43.6694 H   0  0  0  0  0  0  0  0  0  0  0  0
   21.5691    8.1305   37.8209 H   0  0  0  0  0  0  0  0  0  0  0  0
   23.9101    8.3149   38.5530 H   0  0  0  0  0  0  0  0  0  0  0  0
   20.2700    8.7346   41.8736 H   0  0  0  0  0  0  0  0  0  0  0  0
   17.4032   14.1064   40.8089 H   0  0  0  0  0  0  0  0  0  0  0  0
   17.9540   14.9456   45.1873 H   0  0  0  0  0  0  0  0  0  0  0  0
   17.6161   14.5237   42.8004 H   0  0  0  0  0  0  0  0  0  0  0  0
   19.2873   10.5532   43.3192 H   0  0  0  0  0  0  0  0  0  0  0  0
   19.6067   11.0359   45.7177 H   0  0  0  0  0  0  0  0  0  0  0  0
   18.6848    7.9386   40.1866 H   0  0  0  0  0  0  0  0  0  0  0  0
   19.2329    7.5717   38.5754 H   0  0  0  0  0  0  0  0  0  0  0  0
  1  2  2  0  0  0  0
  1  6  1  0  0  0  0
  1 10  1  0  0  0  0
  2  3  1  0  0  0  0
  2  9  1  0  0  0  0
  3  4  2  0  0  0  0
  4  5  1  0  0  0  0
  4 28  1  0  0  0  0
  5  6  2  0  0  0  0
  5 29  1  0  0  0  0
  6 30  1  0  0  0  0
  7  8  1  0  0  0  0
  7 10  2  0  0  0  0
  7 27  1  0  0  0  0
  8  9  2  0  0  0  0
  8 31  1  0  0  0  0
  9 32  1  0  0  0  0
 10 33  1  0  0  0  0
 11 12  2  0  0  0  0
 11 14  1  0  0  0  0
 11 18  1  0  0  0  0
 12 13  1  0  0  0  0
 12 34  1  0  0  0  0
 13 23  2  0  0  0  0
 14 22  2  0  0  0  0
 15 16  2  0  0  0  0
 15 20  1  0  0  0  0
 15 21  1  0  0  0  0
 16 17  1  0  0  0  0
 16 35  1  0  0  0  0
 17 18  2  0  0  0  0
 17 36  1  0  0  0  0
 18 19  1  0  0  0  0
 19 20  2  0  0  0  0
 19 37  1  0  0  0  0
 20 38  1  0  0  0  0
 22 23  1  0  0  0  0
 22 26  1  0  0  0  0
 23 24  1  0  0  0  0
 24 25  1  0  0  0  0
 25 26  2  0  0  0  0
 26 27  1  0  0  0  0
 27 39  1  0  0  0  0
 27 40  1  0  0  0  0
M  CHG  1  22   1
M  END
$$$$
