722
 OpenBabel04091911413D

 46 46  0  0  0  0  0  0  0  0999 V2000
   25.6960  -12.7458    7.5883 O   0  0  0  0  0  0  0  0  0  0  0  0
   26.3172  -14.0900    7.9241 P   0  0  0  0  0  0  0  0  0  0  0  0
   25.4517  -15.3400    7.7762 O   0  0  0  0  0  0  0  0  0  0  0  0
   27.6786  -14.2859    7.2219 O   0  0  0  0  0  0  0  0  0  0  0  0
   26.8340  -14.0420    9.7831 C   0  0  0  0  0  0  0  0  0  0  0  0
   25.5297  -13.8958   11.1599 P   0  0  0  0  0  0  0  0  0  0  0  0
   24.6592  -12.6810   10.9116 O   0  0  0  0  0  0  0  0  0  0  0  0
   26.4120  -13.7121   12.4166 O   0  0  0  0  0  0  0  0  0  0  0  0
   24.8337  -15.2744   11.2264 O   0  0  0  0  0  0  0  0  0  0  0  0
   27.5981  -15.3540    9.9110 C   0  0  0  0  0  0  0  0  0  0  0  0
   28.2908  -15.6356   11.2279 N   0  3  0  0  0  0  0  0  0  0  0  0
   28.2557  -16.9008   11.6486 C   0  0  0  0  0  0  0  0  0  0  0  0
   28.8559  -17.2835   12.8647 C   0  0  0  0  0  0  0  0  0  0  0  0
   29.4915  -16.3069   13.6237 C   0  0  0  0  0  0  0  0  0  0  0  0
   29.5467  -15.0094   13.1473 C   0  0  0  0  0  0  0  0  0  0  0  0
   28.9219  -14.6883   11.9220 C   0  0  0  0  0  0  0  0  0  0  0  0
   28.7454  -18.6109   13.1873 O   0  0  0  0  0  0  0  0  0  0  0  0
   29.3120  -18.9960   14.4293 C   0  0  0  0  0  0  0  0  0  0  0  0
   29.0052  -20.4579   14.6912 C   0  0  0  0  0  0  0  0  0  0  0  0
   29.8200  -20.9364   15.9044 C   0  0  0  0  0  0  0  0  0  0  0  0
   29.3344  -22.2478   16.4917 C   0  0  0  0  0  0  0  0  0  0  0  0
   29.1483  -23.3361   15.4593 C   0  0  0  0  0  0  0  0  0  0  0  0
   27.7807  -24.0004   15.6138 C   0  0  0  0  0  0  0  0  0  0  0  0
   27.8702  -25.5118   15.5624 C   0  0  0  0  0  0  0  0  0  0  0  0
   27.5456  -13.2058    9.8816 H   0  0  0  0  0  0  0  0  0  0  0  0
   28.4284  -15.4391    9.1944 H   0  0  0  0  0  0  0  0  0  0  0  0
   26.9316  -16.2009    9.7115 H   0  0  0  0  0  0  0  0  0  0  0  0
   27.7274  -17.6232   11.0516 H   0  0  0  0  0  0  0  0  0  0  0  0
   29.9469  -16.5281   14.5918 H   0  0  0  0  0  0  0  0  0  0  0  0
   29.9864  -14.2137   13.7152 H   0  0  0  0  0  0  0  0  0  0  0  0
   28.9154  -13.6676   11.5345 H   0  0  0  0  0  0  0  0  0  0  0  0
   28.8984  -18.4018   15.2550 H   0  0  0  0  0  0  0  0  0  0  0  0
   30.4019  -18.8729   14.3808 H   0  0  0  0  0  0  0  0  0  0  0  0
   29.2620  -21.0356   13.8026 H   0  0  0  0  0  0  0  0  0  0  0  0
   27.9287  -20.5962   14.8566 H   0  0  0  0  0  0  0  0  0  0  0  0
   29.7613  -20.1745   16.6865 H   0  0  0  0  0  0  0  0  0  0  0  0
   30.8707  -20.9883   15.6269 H   0  0  0  0  0  0  0  0  0  0  0  0
   28.4079  -22.0432   17.0381 H   0  0  0  0  0  0  0  0  0  0  0  0
   30.0554  -22.5704   17.2521 H   0  0  0  0  0  0  0  0  0  0  0  0
   29.9637  -24.0798   15.5683 H   0  0  0  0  0  0  0  0  0  0  0  0
   29.2436  -22.9841   14.4307 H   0  0  0  0  0  0  0  0  0  0  0  0
   27.1210  -23.6404   14.8154 H   0  0  0  0  0  0  0  0  0  0  0  0
   27.3069  -23.7244   16.5618 H   0  0  0  0  0  0  0  0  0  0  0  0
   26.8772  -25.9443   15.6864 H   0  0  0  0  0  0  0  0  0  0  0  0
   28.5108  -25.8792   16.3716 H   0  0  0  0  0  0  0  0  0  0  0  0
   28.2876  -25.8442   14.6076 H   0  0  0  0  0  0  0  0  0  0  0  0
  1  2  2  0  0  0  0
  2  3  1  0  0  0  0
  2  4  1  0  0  0  0
  2  5  1  0  0  0  0
  5  6  1  0  0  0  0
  5 10  1  0  0  0  0
  5 25  1  0  0  0  0
  6  7  2  0  0  0  0
  6  8  1  0  0  0  0
  6  9  1  0  0  0  0
 10 11  1  0  0  0  0
 10 26  1  0  0  0  0
 10 27  1  0  0  0  0
 11 12  2  0  0  0  0
 11 16  1  0  0  0  0
 12 13  1  0  0  0  0
 12 28  1  0  0  0  0
 13 14  2  0  0  0  0
 13 17  1  0  0  0  0
 14 15  1  0  0  0  0
 14 29  1  0  0  0  0
 15 16  2  0  0  0  0
 15 30  1  0  0  0  0
 16 31  1  0  0  0  0
 17 18  1  0  0  0  0
 18 19  1  0  0  0  0
 18 32  1  0  0  0  0
 18 33  1  0  0  0  0
 19 20  1  0  0  0  0
 19 34  1  0  0  0  0
 19 35  1  0  0  0  0
 20 21  1  0  0  0  0
 20 36  1  0  0  0  0
 20 37  1  0  0  0  0
 21 22  1  0  0  0  0
 21 38  1  0  0  0  0
 21 39  1  0  0  0  0
 22 23  1  0  0  0  0
 22 40  1  0  0  0  0
 22 41  1  0  0  0  0
 23 24  1  0  0  0  0
 23 42  1  0  0  0  0
 23 43  1  0  0  0  0
 24 44  1  0  0  0  0
 24 45  1  0  0  0  0
 24 46  1  0  0  0  0
M  CHG  1  11   1
M  END
$$$$
