724
 OpenBabel04091913313D

 35 37  0  0  1  0  0  0  0  0999 V2000
    6.2821    8.6839   23.9438 N   0  3  0  0  0  0  0  0  0  0  0  0
    7.6651    8.7081   24.1619 N   0  3  0  0  0  0  0  0  0  0  0  0
    5.5759    8.8086   25.1371 C   0  0  0  0  0  0  0  0  0  0  0  0
    7.5934   11.7587   23.2915 N   0  0  0  0  0  0  0  0  0  0  0  0
    7.3203   10.9170   22.2575 C   0  0  0  0  0  0  0  0  0  0  0  0
    5.8296   10.5351   22.3224 C   0  0  1  0  0  0  0  0  0  0  0  0
    5.4097   11.4247   23.3899 N   0  0  0  0  0  0  0  0  0  0  0  0
    6.4672   12.0983   23.9581 C   0  0  0  0  0  0  0  0  0  0  0  0
    6.3932   12.8825   24.8827 O   0  0  0  0  0  0  0  0  0  0  0  0
    8.1368   10.4842   21.4679 O   0  0  0  0  0  0  0  0  0  0  0  0
    5.1083   10.8805   21.0274 C   0  0  0  0  0  0  0  0  0  0  0  0
    5.7351    9.0337   22.6547 C   0  0  0  0  0  0  0  0  0  0  0  0
    6.5911    8.7539   26.1838 C   0  0  0  0  0  0  0  0  0  0  0  0
    7.8214    8.6689   25.5345 C   0  0  0  0  0  0  0  0  0  0  0  0
    8.9799    8.5917   26.2740 C   0  0  0  0  0  0  0  0  0  0  0  0
    8.8657    8.5961   27.6730 C   0  0  0  0  0  0  0  0  0  0  0  0
    7.6054    8.6852   28.3051 C   0  0  0  0  0  0  0  0  0  0  0  0
    6.4423    8.7807   27.5454 C   0  0  0  0  0  0  0  0  0  0  0  0
    4.3847    8.9748   25.3030 O   0  0  0  0  0  0  0  0  0  0  0  0
    7.3723    8.7201   29.6460 O   0  0  0  0  0  0  0  0  0  0  0  0
    8.3960    8.2096   30.4814 C   0  0  0  0  0  0  0  0  0  0  0  0
    8.3715    8.6020   23.4446 H   0  0  0  0  0  0  0  0  0  0  0  0
    8.5114   12.0916   23.5376 H   0  0  0  0  0  0  0  0  0  0  0  0
    4.4857   11.4533   23.8077 H   0  0  0  0  0  0  0  0  0  0  0  0
    5.4396   10.2468   20.2002 H   0  0  0  0  0  0  0  0  0  0  0  0
    5.2923   11.9224   20.7403 H   0  0  0  0  0  0  0  0  0  0  0  0
    4.0251   10.7588   21.1409 H   0  0  0  0  0  0  0  0  0  0  0  0
    4.6839    8.7211   22.6671 H   0  0  0  0  0  0  0  0  0  0  0  0
    6.2558    8.4149   21.9145 H   0  0  0  0  0  0  0  0  0  0  0  0
    9.9518    8.5281   25.7920 H   0  0  0  0  0  0  0  0  0  0  0  0
    9.7831    8.5428   28.2530 H   0  0  0  0  0  0  0  0  0  0  0  0
    5.4651    8.8597   28.0014 H   0  0  0  0  0  0  0  0  0  0  0  0
    8.0331    8.2706   31.5114 H   0  0  0  0  0  0  0  0  0  0  0  0
    9.3023    8.8162   30.4111 H   0  0  0  0  0  0  0  0  0  0  0  0
    8.5986    7.1580   30.2541 H   0  0  0  0  0  0  0  0  0  0  0  0
  1  2  2  0  0  0  0
  1  3  1  0  0  0  0
  1 12  1  0  0  0  0
  2 14  1  0  0  0  0
  2 22  1  0  0  0  0
  3 13  1  0  0  0  0
  3 19  2  0  0  0  0
  4  5  1  0  0  0  0
  4  8  1  0  0  0  0
  4 23  1  0  0  0  0
  5  6  1  0  0  0  0
  5 10  2  0  0  0  0
  6  7  1  0  0  0  0
  6 11  1  6  0  0  0
  6 12  1  0  0  0  0
  7  8  1  0  0  0  0
  7 24  1  0  0  0  0
  8  9  2  0  0  0  0
 11 25  1  0  0  0  0
 11 26  1  0  0  0  0
 11 27  1  0  0  0  0
 12 28  1  0  0  0  0
 12 29  1  0  0  0  0
 13 14  2  0  0  0  0
 13 18  1  0  0  0  0
 14 15  1  0  0  0  0
 15 16  2  0  0  0  0
 15 30  1  0  0  0  0
 16 17  1  0  0  0  0
 16 31  1  0  0  0  0
 17 18  2  0  0  0  0
 17 20  1  0  0  0  0
 18 32  1  0  0  0  0
 20 21  1  0  0  0  0
 21 33  1  0  0  0  0
 21 34  1  0  0  0  0
 21 35  1  0  0  0  0
M  CHG  2   1   1   2   1
M  END
$$$$
