78P
 OpenBabel04091913273D

 35 37  0  0  1  0  0  0  0  0999 V2000
   -4.5408   34.2514   39.6394 C   0  0  0  0  0  0  0  0  0  0  0  0
   -4.6068   33.8156   40.9610 C   0  0  0  0  0  0  0  0  0  0  0  0
   -5.8517   33.3526   41.4193 C   0  0  0  0  0  0  0  0  0  0  0  0
   -4.0390   34.9628   37.5898 C   0  0  0  0  0  0  0  0  0  0  0  0
   -3.4487   33.7751   41.8692 C   0  0  0  0  0  0  0  0  0  0  0  0
   -3.3010   35.6009   36.5005 C   0  0  1  0  0  0  0  0  0  0  0  0
   -1.8059   37.2068   37.5042 C   0  0  0  0  0  0  0  0  0  0  0  0
   -3.8658   36.9833   36.2405 C   0  0  0  0  0  0  0  0  0  0  0  0
   -6.9855   33.3363   40.6128 C   0  0  0  0  0  0  0  0  0  0  0  0
   -6.8834   33.7782   39.2989 C   0  0  0  0  0  0  0  0  0  0  0  0
   -5.6512   34.2193   38.8124 C   0  0  0  0  0  0  0  0  0  0  0  0
   -5.3195   34.6636   37.5700 N   0  0  0  0  0  0  0  0  0  0  0  0
   -3.5373   34.7676   38.8599 N   0  3  0  0  0  0  0  0  0  0  0  0
   -2.2681   34.2465   41.3827 N   0  0  0  0  0  0  0  0  0  0  0  0
   -3.5047   33.3250   42.9971 O   0  0  0  0  0  0  0  0  0  0  0  0
   -1.8743   35.8542   36.8726 N   0  3  0  0  0  0  0  0  0  0  0  0
   -3.1138   37.8955   37.1794 C   0  0  0  0  0  0  0  0  0  0  0  0
   -3.4264   34.7922   35.2216 C   0  0  0  0  0  0  0  0  0  0  0  0
   -5.9246   32.9951   42.4425 H   0  0  0  0  0  0  0  0  0  0  0  0
   -0.9470   37.7312   37.0891 H   0  0  0  0  0  0  0  0  0  0  0  0
   -1.6805   37.0685   38.5836 H   0  0  0  0  0  0  0  0  0  0  0  0
   -4.9423   36.9988   36.4460 H   0  0  0  0  0  0  0  0  0  0  0  0
   -3.7077   37.2848   35.1980 H   0  0  0  0  0  0  0  0  0  0  0  0
   -7.9403   32.9813   40.9976 H   0  0  0  0  0  0  0  0  0  0  0  0
   -7.7588   33.7746   38.6601 H   0  0  0  0  0  0  0  0  0  0  0  0
   -2.6050   34.9878   39.0981 H   0  0  0  0  0  0  0  0  0  0  0  0
   -1.4410   34.2350   41.9814 H   0  0  0  0  0  0  0  0  0  0  0  0
   -2.1628   34.5450   40.4773 H   0  0  0  0  0  0  0  0  0  0  0  0
   -1.5355   35.1207   37.5041 H   0  0  0  0  0  0  0  0  0  0  0  0
   -2.9277   38.8610   36.7026 H   0  0  0  0  0  0  0  0  0  0  0  0
   -3.6975   38.0619   38.0928 H   0  0  0  0  0  0  0  0  0  0  0  0
   -4.4931   34.6572   34.9822 H   0  0  0  0  0  0  0  0  0  0  0  0
   -2.9651   33.8087   35.3286 H   0  0  0  0  0  0  0  0  0  0  0  0
   -2.9580   35.3187   34.3786 H   0  0  0  0  0  0  0  0  0  0  0  0
   -1.2709   35.8081   36.0418 H   0  0  0  0  0  0  0  0  0  0  0  0
  1  2  2  0  0  0  0
  1 11  1  0  0  0  0
  1 13  1  0  0  0  0
  2  3  1  0  0  0  0
  2  5  1  0  0  0  0
  3  9  2  0  0  0  0
  3 19  1  0  0  0  0
  4 12  1  0  0  0  0
  4 13  2  0  0  0  0
  5 14  1  0  0  0  0
  5 15  2  0  0  0  0
  6  4  1  1  0  0  0
  6  8  1  0  0  0  0
  6 16  1  0  0  0  0
  6 18  1  0  0  0  0
  7 16  1  0  0  0  0
  7 17  1  0  0  0  0
  7 20  1  0  0  0  0
  7 21  1  0  0  0  0
  8 17  1  0  0  0  0
  8 22  1  0  0  0  0
  8 23  1  0  0  0  0
  9 10  1  0  0  0  0
  9 24  1  0  0  0  0
 10 11  2  0  0  0  0
 10 25  1  0  0  0  0
 11 12  1  0  0  0  0
 13 26  1  0  0  0  0
 14 27  1  0  0  0  0
 14 28  1  0  0  0  0
 16 29  1  0  0  0  0
 16 35  1  0  0  0  0
 17 30  1  0  0  0  0
 17 31  1  0  0  0  0
 18 32  1  0  0  0  0
 18 33  1  0  0  0  0
 18 34  1  0  0  0  0
M  CHG  2  13   1  16   1
M  END
$$$$
