79Z
 OpenBabel04091912323D

 54 57  0  0  0  0  0  0  0  0999 V2000
  -14.2377   -9.6208   12.1572 C   0  0  0  0  0  0  0  0  0  0  0  0
  -14.4153   -9.7480   10.6584 C   0  0  0  0  0  0  0  0  0  0  0  0
  -13.1248  -10.1686   11.3151 C   0  0  0  0  0  0  0  0  0  0  0  0
  -18.3552  -15.9918    9.0775 C   0  0  0  0  0  0  0  0  0  0  0  0
  -17.6685  -17.2137    9.1671 C   0  0  0  0  0  0  0  0  0  0  0  0
  -18.2855  -18.4169    8.8319 C   0  0  0  0  0  0  0  0  0  0  0  0
  -19.5951  -18.4088    8.3792 C   0  0  0  0  0  0  0  0  0  0  0  0
  -20.2976  -17.2163    8.2570 C   0  0  0  0  0  0  0  0  0  0  0  0
  -19.6775  -16.0074    8.6018 C   0  0  0  0  0  0  0  0  0  0  0  0
  -15.4297  -10.7559   10.1195 C   0  0  0  0  0  0  0  0  0  0  0  0
  -16.4396  -10.3796    9.1944 C   0  0  0  0  0  0  0  0  0  0  0  0
  -17.4062  -11.2807    8.7150 C   0  0  0  0  0  0  0  0  0  0  0  0
  -15.4101  -12.1051   10.5375 C   0  0  0  0  0  0  0  0  0  0  0  0
  -16.3485  -13.0342   10.0544 C   0  0  0  0  0  0  0  0  0  0  0  0
  -17.3132  -12.5914    9.1699 C   0  0  0  0  0  0  0  0  0  0  0  0
  -18.1299  -13.6229    8.8185 O   0  0  0  0  0  0  0  0  0  0  0  0
  -17.6727  -14.7506    9.4508 C   0  0  0  0  0  0  0  0  0  0  0  0
  -16.5828  -14.4275   10.2551 C   0  0  0  0  0  0  0  0  0  0  0  0
  -15.7515  -15.3056   11.0587 C   0  0  0  0  0  0  0  0  0  0  0  0
  -14.5323  -15.3534   10.9007 O   0  0  0  0  0  0  0  0  0  0  0  0
  -16.3956  -16.0349   12.0339 N   0  0  0  0  0  0  0  0  0  0  0  0
  -15.6457  -16.8895   12.9262 C   0  0  0  0  0  0  0  0  0  0  0  0
  -16.4645   -9.0312    8.7040 N   0  0  0  0  0  0  0  0  0  0  0  0
  -15.7796   -8.7360    7.1871 S   0  0  0  0  0  0  0  0  0  0  0  0
  -15.2142   -7.4025    7.2067 O   0  0  0  0  0  0  0  0  0  0  0  0
  -14.9940   -9.8775    6.7711 O   0  0  0  0  0  0  0  0  0  0  0  0
  -17.2301   -8.6700    6.1565 C   0  0  0  0  0  0  0  0  0  0  0  0
  -20.1875  -19.5652    8.0571 F   0  0  0  0  0  0  0  0  0  0  0  0
  -17.2426   -7.9562    9.3513 C   0  0  0  0  0  0  0  0  0  0  0  0
  -17.6081   -8.2270   10.8103 C   0  0  0  0  0  0  0  0  0  0  0  0
  -18.0755   -7.0445   11.4525 O   0  0  0  0  0  0  0  0  0  0  0  0
  -14.7847  -10.2974   12.8039 H   0  0  0  0  0  0  0  0  0  0  0  0
  -14.1231   -8.6250   12.5711 H   0  0  0  0  0  0  0  0  0  0  0  0
  -14.3397   -8.8141   10.1012 H   0  0  0  0  0  0  0  0  0  0  0  0
  -12.8759  -11.2201   11.3786 H   0  0  0  0  0  0  0  0  0  0  0  0
  -12.2536   -9.5422   11.1480 H   0  0  0  0  0  0  0  0  0  0  0  0
  -16.6292  -17.2447    9.4769 H   0  0  0  0  0  0  0  0  0  0  0  0
  -17.7431  -19.3538    8.9092 H   0  0  0  0  0  0  0  0  0  0  0  0
  -21.3176  -17.2340    7.8897 H   0  0  0  0  0  0  0  0  0  0  0  0
  -20.2412  -15.0826    8.4876 H   0  0  0  0  0  0  0  0  0  0  0  0
  -18.1681  -10.9944    8.0051 H   0  0  0  0  0  0  0  0  0  0  0  0
  -14.6584  -12.4531   11.2410 H   0  0  0  0  0  0  0  0  0  0  0  0
  -17.3858  -15.8984   12.1918 H   0  0  0  0  0  0  0  0  0  0  0  0
  -16.3275  -17.3445   13.6488 H   0  0  0  0  0  0  0  0  0  0  0  0
  -14.8856  -16.3048   13.4555 H   0  0  0  0  0  0  0  0  0  0  0  0
  -15.1479  -17.6706   12.3445 H   0  0  0  0  0  0  0  0  0  0  0  0
  -16.8993   -8.4939    5.1325 H   0  0  0  0  0  0  0  0  0  0  0  0
  -17.8672   -7.8455    6.4814 H   0  0  0  0  0  0  0  0  0  0  0  0
  -17.7629   -9.6195    6.2107 H   0  0  0  0  0  0  0  0  0  0  0  0
  -18.1671   -7.7785    8.7895 H   0  0  0  0  0  0  0  0  0  0  0  0
  -16.6715   -7.0209    9.3094 H   0  0  0  0  0  0  0  0  0  0  0  0
  -16.7436   -8.5680   11.3793 H   0  0  0  0  0  0  0  0  0  0  0  0
  -18.3860   -8.9940   10.8810 H   0  0  0  0  0  0  0  0  0  0  0  0
  -18.8432   -6.7108   10.9592 H   0  0  0  0  0  0  0  0  0  0  0  0
  1  2  1  0  0  0  0
  1  3  1  0  0  0  0
  1 32  1  0  0  0  0
  1 33  1  0  0  0  0
  2  3  1  0  0  0  0
  2 10  1  0  0  0  0
  2 34  1  0  0  0  0
  3 35  1  0  0  0  0
  3 36  1  0  0  0  0
  4  5  2  0  0  0  0
  4  9  1  0  0  0  0
  4 17  1  0  0  0  0
  5  6  1  0  0  0  0
  5 37  1  0  0  0  0
  6  7  2  0  0  0  0
  6 38  1  0  0  0  0
  7  8  1  0  0  0  0
  7 28  1  0  0  0  0
  8  9  2  0  0  0  0
  8 39  1  0  0  0  0
  9 40  1  0  0  0  0
 10 11  2  0  0  0  0
 10 13  1  0  0  0  0
 11 12  1  0  0  0  0
 11 23  1  0  0  0  0
 12 15  2  0  0  0  0
 12 41  1  0  0  0  0
 13 14  2  0  0  0  0
 13 42  1  0  0  0  0
 14 15  1  0  0  0  0
 14 18  1  0  0  0  0
 15 16  1  0  0  0  0
 16 17  1  0  0  0  0
 17 18  2  0  0  0  0
 18 19  1  0  0  0  0
 19 20  2  0  0  0  0
 19 21  1  0  0  0  0
 21 22  1  0  0  0  0
 21 43  1  0  0  0  0
 22 44  1  0  0  0  0
 22 45  1  0  0  0  0
 22 46  1  0  0  0  0
 23 24  1  0  0  0  0
 23 29  1  0  0  0  0
 24 25  2  0  0  0  0
 24 26  2  0  0  0  0
 24 27  1  0  0  0  0
 27 47  1  0  0  0  0
 27 48  1  0  0  0  0
 27 49  1  0  0  0  0
 29 30  1  0  0  0  0
 29 50  1  0  0  0  0
 29 51  1  0  0  0  0
 30 31  1  0  0  0  0
 30 52  1  0  0  0  0
 30 53  1  0  0  0  0
 31 54  1  0  0  0  0
M  END
$$$$
