7HI
 OpenBabel04091911123D

 75 78  0  0  1  0  0  0  0  0999 V2000
   14.1139    6.7849   45.3621 N   0  3  2  0  0  0  0  0  0  0  0  0
   13.8734    3.2400   46.7900 C   0  0  0  0  0  0  0  0  0  0  0  0
   14.3856    5.5774   45.9843 C   0  0  1  0  0  0  0  0  0  0  0  0
   15.2160    9.0824   45.1187 C   0  0  0  0  0  0  0  0  0  0  0  0
   12.9480    7.0393   44.5160 C   0  0  0  0  0  0  0  0  0  0  0  0
   13.2553    6.5595   43.1100 C   0  0  0  0  0  0  0  0  0  0  0  0
   12.5104    6.3001   40.7276 C   0  0  0  0  0  0  0  0  0  0  0  0
   16.0544    9.2249   43.8638 C   0  0  0  0  0  0  0  0  0  0  0  0
   22.6407    9.8611   51.5306 C   0  0  0  0  0  0  0  0  0  0  0  0
   19.8830    8.1041   48.4798 C   0  0  0  0  0  0  0  0  0  0  0  0
   20.8865    8.8235   49.1347 C   0  0  0  0  0  0  0  0  0  0  0  0
   23.5913   11.9796   52.1973 C   0  0  0  0  0  0  0  0  0  0  0  0
   21.6129   10.5136   50.8374 C   0  0  0  0  0  0  0  0  0  0  0  0
   22.5732   12.6470   51.5224 C   0  0  0  0  0  0  0  0  0  0  0  0
   18.2214    9.1878   49.8515 C   0  0  0  0  0  0  0  0  0  0  0  0
   18.0561    8.1674   46.1084 O   0  0  0  0  0  0  0  0  0  0  0  0
   17.2912    7.6220   46.8619 C   0  0  0  0  0  0  0  0  0  0  0  0
   17.5247    7.5615   48.2401 N   0  0  0  0  0  0  0  0  0  0  0  0
   18.5536    8.2912   48.8450 C   0  0  2  0  0  0  0  0  0  0  0  0
   19.2253    9.9244   50.4801 C   0  0  0  0  0  0  0  0  0  0  0  0
   20.5721    9.7487   50.1393 C   0  0  2  0  0  0  0  0  0  0  0  0
   21.5905   11.9170   50.8502 C   0  0  0  0  0  0  0  0  0  0  0  0
   23.6244   10.5877   52.2047 C   0  0  0  0  0  0  0  0  0  0  0  0
   16.0640    7.0076   46.4218 C   0  0  1  0  0  0  0  0  0  0  0  0
   15.1461    7.6645   45.6106 C   0  0  1  0  0  0  0  0  0  0  0  0
   13.4743    4.3963   45.8827 C   0  0  0  0  0  0  0  0  0  0  0  0
   15.1943    2.6487   46.3763 C   0  0  0  0  0  0  0  0  0  0  0  0
   16.4337    3.3696   46.7385 C   0  0  0  0  0  0  0  0  0  0  0  0
   16.3082    4.6718   47.4687 C   0  0  0  0  0  0  0  0  0  0  0  0
   15.5945    5.6985   46.6564 C   0  0  2  0  0  0  0  0  0  0  0  0
   12.1224    6.7827   42.1248 C   0  0  2  0  0  0  0  0  0  0  0  0
   11.8579    8.1844   42.0106 O   0  0  0  0  0  0  0  0  0  0  0  0
   12.6399    4.7818   40.5918 C   0  0  1  0  0  0  0  0  0  0  0  0
   11.3564    4.2023   40.8464 O   0  0  0  0  0  0  0  0  0  0  0  0
   13.0942    4.4247   39.1890 C   0  0  0  0  0  0  0  0  0  0  0  0
   13.6828    2.9949   39.2043 C   0  0  0  0  0  0  0  0  0  0  0  0
   12.9075    2.1172   38.7750 O   0  0  0  0  0  0  0  0  0  0  0  0
   14.8721    2.8751   39.6063 O   0  0  0  0  0  0  0  0  0  0  0  0
   13.1429    2.4315   46.6995 H   0  0  0  0  0  0  0  0  0  0  0  0
   13.9114    3.5684   47.8311 H   0  0  0  0  0  0  0  0  0  0  0  0
   14.2162    9.4726   44.9169 H   0  0  0  0  0  0  0  0  0  0  0  0
   15.6702    9.6988   45.9078 H   0  0  0  0  0  0  0  0  0  0  0  0
   12.7243    8.1113   44.5339 H   0  0  0  0  0  0  0  0  0  0  0  0
   12.0840    6.5067   44.9351 H   0  0  0  0  0  0  0  0  0  0  0  0
   13.4811    5.4912   43.1518 H   0  0  0  0  0  0  0  0  0  0  0  0
   14.1458    7.0894   42.7531 H   0  0  0  0  0  0  0  0  0  0  0  0
   13.4729    6.7560   40.4612 H   0  0  0  0  0  0  0  0  0  0  0  0
   11.7504    6.6576   40.0187 H   0  0  0  0  0  0  0  0  0  0  0  0
   16.0974   10.2779   43.5581 H   0  0  0  0  0  0  0  0  0  0  0  0
   15.6170    8.6394   43.0518 H   0  0  0  0  0  0  0  0  0  0  0  0
   17.0740    8.8710   44.0423 H   0  0  0  0  0  0  0  0  0  0  0  0
   22.6682    8.7739   51.5489 H   0  0  0  0  0  0  0  0  0  0  0  0
   20.1455    7.3894   47.7043 H   0  0  0  0  0  0  0  0  0  0  0  0
   21.9244    8.6676   48.8509 H   0  0  0  0  0  0  0  0  0  0  0  0
   24.3593   12.5449   52.7186 H   0  0  0  0  0  0  0  0  0  0  0  0
   22.5421   13.7326   51.5174 H   0  0  0  0  0  0  0  0  0  0  0  0
   17.1845    9.3438   50.1253 H   0  0  0  0  0  0  0  0  0  0  0  0
   16.8742    7.0767   48.8357 H   0  0  0  0  0  0  0  0  0  0  0  0
   18.9591   10.6267   51.2620 H   0  0  0  0  0  0  0  0  0  0  0  0
   20.7968   12.4436   50.3244 H   0  0  0  0  0  0  0  0  0  0  0  0
   24.4159   10.0649   52.7331 H   0  0  0  0  0  0  0  0  0  0  0  0
   12.4621    4.6999   46.1679 H   0  0  0  0  0  0  0  0  0  0  0  0
   13.4590    4.0353   44.8463 H   0  0  0  0  0  0  0  0  0  0  0  0
   15.2324    2.5774   45.2890 H   0  0  0  0  0  0  0  0  0  0  0  0
   15.3095    1.6691   46.8363 H   0  0  0  0  0  0  0  0  0  0  0  0
   16.9336    3.5418   45.7852 H   0  0  0  0  0  0  0  0  0  0  0  0
   16.9896    2.6601   47.3507 H   0  0  0  0  0  0  0  0  0  0  0  0
   17.3376    4.9872   47.6816 H   0  0  0  0  0  0  0  0  0  0  0  0
   15.7915    4.5214   48.4217 H   0  0  0  0  0  0  0  0  0  0  0  0
   11.2179    6.2685   42.4653 H   0  0  0  0  0  0  0  0  0  0  0  0
   11.6063    8.5234   42.8817 H   0  0  0  0  0  0  0  0  0  0  0  0
   13.3470    4.4031   41.3311 H   0  0  0  0  0  0  0  0  0  0  0  0
   10.7466    4.5229   40.1589 H   0  0  0  0  0  0  0  0  0  0  0  0
   13.8632    5.1348   38.8595 H   0  0  0  0  0  0  0  0  0  0  0  0
   12.2392    4.4888   38.4980 H   0  0  0  0  0  0  0  0  0  0  0  0
  1  3  1  0  0  0  0
  1  5  1  6  0  0  0
  1 25  1  0  0  0  0
  2 26  1  0  0  0  0
  2 27  1  0  0  0  0
  2 39  1  0  0  0  0
  2 40  1  0  0  0  0
  3 26  1  6  0  0  0
  3 30  1  0  0  0  0
  4  8  1  0  0  0  0
  4 41  1  0  0  0  0
  4 42  1  0  0  0  0
  5  6  1  0  0  0  0
  5 43  1  0  0  0  0
  5 44  1  0  0  0  0
  6 31  1  0  0  0  0
  6 45  1  0  0  0  0
  6 46  1  0  0  0  0
  7 31  1  0  0  0  0
  7 33  1  0  0  0  0
  7 47  1  0  0  0  0
  7 48  1  0  0  0  0
  8 49  1  0  0  0  0
  8 50  1  0  0  0  0
  8 51  1  0  0  0  0
  9 13  1  0  0  0  0
  9 23  1  0  0  0  0
  9 52  1  0  0  0  0
 10 11  1  0  0  0  0
 10 19  1  0  0  0  0
 10 53  1  0  0  0  0
 11 21  1  0  0  0  0
 11 54  1  0  0  0  0
 12 14  1  0  0  0  0
 12 23  1  0  0  0  0
 12 55  1  0  0  0  0
 13 22  1  0  0  0  0
 14 22  1  0  0  0  0
 14 56  1  0  0  0  0
 15 19  1  0  0  0  0
 15 20  1  0  0  0  0
 15 57  1  0  0  0  0
 16 17  2  0  0  0  0
 17 18  1  0  0  0  0
 18 58  1  0  0  0  0
 19 18  1  1  0  0  0
 20 21  1  0  0  0  0
 20 59  1  0  0  0  0
 21 13  1  1  0  0  0
 22 60  1  0  0  0  0
 23 61  1  0  0  0  0
 24 17  1  6  0  0  0
 24 25  1  0  0  0  0
 24 30  1  0  0  0  0
 25  4  1  1  0  0  0
 26 62  1  0  0  0  0
 26 63  1  0  0  0  0
 27 28  1  0  0  0  0
 27 64  1  0  0  0  0
 27 65  1  0  0  0  0
 28 29  1  0  0  0  0
 28 66  1  0  0  0  0
 28 67  1  0  0  0  0
 29 68  1  0  0  0  0
 29 69  1  0  0  0  0
 30 29  1  6  0  0  0
 31 32  1  0  0  0  0
 31 70  1  1  0  0  0
 32 71  1  0  0  0  0
 33 34  1  0  0  0  0
 33 35  1  0  0  0  0
 33 72  1  1  0  0  0
 34 73  1  0  0  0  0
 35 36  1  0  0  0  0
 35 74  1  0  0  0  0
 35 75  1  0  0  0  0
 36 37  2  0  0  0  0
 36 38  1  0  0  0  0
M  CHG  1   1   1
M  END
$$$$
