833
 OpenBabel04091910533D

 27 29  0  0  0  0  0  0  0  0999 V2000
   -0.6915   11.6522   -6.5143 C   0  0  0  0  0  0  0  0  0  0  0  0
   -0.8510   10.4531   -5.7973 C   0  0  0  0  0  0  0  0  0  0  0  0
   -1.5860   10.5013   -4.5800 C   0  0  0  0  0  0  0  0  0  0  0  0
   -2.1381   11.6914   -4.0838 C   0  0  0  0  0  0  0  0  0  0  0  0
   -1.9570   12.8331   -4.8200 C   0  0  0  0  0  0  0  0  0  0  0  0
   -1.2594   12.8202   -6.0046 C   0  0  0  0  0  0  0  0  0  0  0  0
   -1.2107   14.0640   -6.5696 O   0  0  0  0  0  0  0  0  0  0  0  0
   -2.0310   14.8209   -5.6543 C   0  0  0  0  0  0  0  0  0  0  0  0
   -2.4284   14.0691   -4.4927 O   0  0  0  0  0  0  0  0  0  0  0  0
   -0.2721    9.1602   -6.2428 C   0  0  0  0  0  0  0  0  0  0  0  0
   -0.0440    8.0249   -5.4184 C   0  0  0  0  0  0  0  0  0  0  0  0
    0.4680    7.0304   -6.2249 C   0  0  0  0  0  0  0  0  0  0  0  0
    0.5458    7.5938   -7.4722 N   0  3  0  0  0  0  0  0  0  0  0  0
    0.1147    8.8932   -7.5078 N   0  0  0  0  0  0  0  0  0  0  0  0
    0.8261    5.7804   -5.8907 N   0  0  0  0  0  0  0  0  0  0  0  0
    1.0205    6.9651   -8.6826 C   0  0  0  0  0  0  0  0  0  0  0  0
   -0.1298   11.6785   -7.4444 H   0  0  0  0  0  0  0  0  0  0  0  0
   -1.7460    9.5968   -3.9967 H   0  0  0  0  0  0  0  0  0  0  0  0
   -2.6908   11.7061   -3.1500 H   0  0  0  0  0  0  0  0  0  0  0  0
   -2.9392   15.1533   -6.1750 H   0  0  0  0  0  0  0  0  0  0  0  0
   -1.4853   15.7167   -5.3271 H   0  0  0  0  0  0  0  0  0  0  0  0
   -0.2375    7.9326   -4.3583 H   0  0  0  0  0  0  0  0  0  0  0  0
    0.7472    5.4590   -4.9208 H   0  0  0  0  0  0  0  0  0  0  0  0
    1.2126    5.0901   -6.5243 H   0  0  0  0  0  0  0  0  0  0  0  0
    0.9349    7.6636   -9.5258 H   0  0  0  0  0  0  0  0  0  0  0  0
    0.4186    6.0743   -8.8908 H   0  0  0  0  0  0  0  0  0  0  0  0
    2.0705    6.6850   -8.5507 H   0  0  0  0  0  0  0  0  0  0  0  0
  1  2  2  0  0  0  0
  1  6  1  0  0  0  0
  1 17  1  0  0  0  0
  2  3  1  0  0  0  0
  2 10  1  0  0  0  0
  3  4  2  0  0  0  0
  3 18  1  0  0  0  0
  4  5  1  0  0  0  0
  4 19  1  0  0  0  0
  5  6  2  0  0  0  0
  5  9  1  0  0  0  0
  6  7  1  0  0  0  0
  7  8  1  0  0  0  0
  8  9  1  0  0  0  0
  8 20  1  0  0  0  0
  8 21  1  0  0  0  0
 10 11  2  0  0  0  0
 10 14  1  0  0  0  0
 11 12  1  0  0  0  0
 11 22  1  0  0  0  0
 12 13  2  0  0  0  0
 12 15  1  0  0  0  0
 13 14  1  0  0  0  0
 13 16  1  0  0  0  0
 15 23  1  0  0  0  0
 15 24  1  0  0  0  0
 16 25  1  0  0  0  0
 16 26  1  0  0  0  0
 16 27  1  0  0  0  0
M  CHG  1  13   1
M  END
$$$$
