851
 OpenBabel04091912483D

 73 77  0  0  1  0  0  0  0  0999 V2000
   80.5162   61.7667   15.4747 O   0  0  0  0  0  0  0  0  0  0  0  0
   80.7976   62.1118   14.3206 C   0  0  0  0  0  0  0  0  0  0  0  0
   81.9788   61.4033   13.6003 C   0  0  2  0  0  0  0  0  0  0  0  0
   81.4911   60.2798   12.6481 C   0  0  0  0  0  0  0  0  0  0  0  0
   82.6511   59.6510   11.8465 C   0  0  0  0  0  0  0  0  0  0  0  0
   82.1484   58.5743   10.8842 C   0  0  0  0  0  0  0  0  0  0  0  0
   81.3868   57.4809   11.6247 C   0  0  0  0  0  0  0  0  0  0  0  0
   80.2385   58.0608   12.4416 C   0  0  0  0  0  0  0  0  0  0  0  0
   80.7014   59.1737   13.3812 C   0  0  0  0  0  0  0  0  0  0  0  0
   82.8774   60.8750   14.6419 N   0  0  0  0  0  0  0  0  0  0  0  0
   84.2332   61.0492   14.6066 C   0  0  0  0  0  0  0  0  0  0  0  0
   84.8368   61.5736   13.6707 O   0  0  0  0  0  0  0  0  0  0  0  0
   85.0233   60.4948   15.8040 C   0  0  2  0  0  0  0  0  0  0  0  0
   85.0487   61.5080   16.9434 C   0  0  0  0  0  0  0  0  0  0  0  0
   86.4494   60.1826   15.3797 N   0  3  0  0  0  0  0  0  0  0  0  0
   86.5835   59.0012   14.4786 C   0  0  0  0  0  0  0  0  0  0  0  0
   80.0611   63.0650   13.6453 N   0  0  0  0  0  0  0  0  0  0  0  0
   80.4091   63.7437   12.4033 C   0  0  0  0  0  0  0  0  0  0  0  0
   79.7457   65.1112   12.5133 C   0  0  0  0  0  0  0  0  0  0  0  0
   78.4785   64.8260   13.3074 C   0  0  0  0  0  0  0  0  0  0  0  0
   78.8994   63.7159   14.2828 C   0  0  1  0  0  0  0  0  0  0  0  0
   77.7640   62.7612   14.5809 C   0  0  0  0  0  0  0  0  0  0  0  0
   77.0748   62.7852   15.7012 N   0  0  0  0  0  0  0  0  0  0  0  0
   76.1160   61.7749   15.7258 C   0  0  0  0  0  0  0  0  0  0  0  0
   75.2034   61.4734   16.7843 C   0  0  0  0  0  0  0  0  0  0  0  0
   74.2963   60.4107   16.5967 C   0  0  0  0  0  0  0  0  0  0  0  0
   74.2709   59.6648   15.4229 C   0  0  0  0  0  0  0  0  0  0  0  0
   75.1617   59.9499   14.3870 C   0  0  0  0  0  0  0  0  0  0  0  0
   76.0690   61.0050   14.5604 C   0  0  0  0  0  0  0  0  0  0  0  0
   77.2643   61.5645   13.4515 S   0  0  0  0  0  0  0  0  0  0  0  0
   75.2244   62.2497   18.0356 C   0  0  0  0  0  0  0  0  0  0  0  0
   76.4289   62.5565   18.6935 C   0  0  0  0  0  0  0  0  0  0  0  0
   76.4409   63.2752   19.8888 C   0  0  0  0  0  0  0  0  0  0  0  0
   75.2418   63.7001   20.4626 C   0  0  0  0  0  0  0  0  0  0  0  0
   74.0396   63.4015   19.8331 C   0  0  0  0  0  0  0  0  0  0  0  0
   74.0252   62.6897   18.6376 C   0  0  0  0  0  0  0  0  0  0  0  0
   82.5393   62.1522   13.0356 H   0  0  0  0  0  0  0  0  0  0  0  0
   80.8097   60.7430   11.9241 H   0  0  0  0  0  0  0  0  0  0  0  0
   83.3872   59.1955   12.5211 H   0  0  0  0  0  0  0  0  0  0  0  0
   83.1772   60.4255   11.2767 H   0  0  0  0  0  0  0  0  0  0  0  0
   82.9937   58.1312   10.3452 H   0  0  0  0  0  0  0  0  0  0  0  0
   81.4946   59.0320   10.1318 H   0  0  0  0  0  0  0  0  0  0  0  0
   82.0734   56.9405   12.2881 H   0  0  0  0  0  0  0  0  0  0  0  0
   80.9964   56.7495   10.9076 H   0  0  0  0  0  0  0  0  0  0  0  0
   79.7669   57.2625   13.0263 H   0  0  0  0  0  0  0  0  0  0  0  0
   79.4708   58.4533   11.7637 H   0  0  0  0  0  0  0  0  0  0  0  0
   79.8180   59.6016   13.8665 H   0  0  0  0  0  0  0  0  0  0  0  0
   81.3137   58.7285   14.1751 H   0  0  0  0  0  0  0  0  0  0  0  0
   82.4068   60.4611   15.4454 H   0  0  0  0  0  0  0  0  0  0  0  0
   84.5853   59.5520   16.1459 H   0  0  0  0  0  0  0  0  0  0  0  0
   85.6421   61.1427   17.7888 H   0  0  0  0  0  0  0  0  0  0  0  0
   84.0336   61.6972   17.3095 H   0  0  0  0  0  0  0  0  0  0  0  0
   85.4624   62.4736   16.6297 H   0  0  0  0  0  0  0  0  0  0  0  0
   86.7862   61.0080   14.8562 H   0  0  0  0  0  0  0  0  0  0  0  0
   87.6426   58.8968   14.2318 H   0  0  0  0  0  0  0  0  0  0  0  0
   86.0012   59.1695   13.5695 H   0  0  0  0  0  0  0  0  0  0  0  0
   86.2291   58.1174   15.0149 H   0  0  0  0  0  0  0  0  0  0  0  0
   79.9783   63.1693   11.5766 H   0  0  0  0  0  0  0  0  0  0  0  0
   81.4883   63.8289   12.2608 H   0  0  0  0  0  0  0  0  0  0  0  0
   79.5391   65.5613   11.5371 H   0  0  0  0  0  0  0  0  0  0  0  0
   80.3871   65.8018   13.0745 H   0  0  0  0  0  0  0  0  0  0  0  0
   77.6846   64.5036   12.6239 H   0  0  0  0  0  0  0  0  0  0  0  0
   78.1127   65.7163   13.8323 H   0  0  0  0  0  0  0  0  0  0  0  0
   79.2496   64.1623   15.2226 H   0  0  0  0  0  0  0  0  0  0  0  0
   73.5980   60.1492   17.3934 H   0  0  0  0  0  0  0  0  0  0  0  0
   73.5537   58.8556   15.3117 H   0  0  0  0  0  0  0  0  0  0  0  0
   75.1450   59.3680   13.4706 H   0  0  0  0  0  0  0  0  0  0  0  0
   77.3769   62.2307   18.2693 H   0  0  0  0  0  0  0  0  0  0  0  0
   77.3855   63.5051   20.3720 H   0  0  0  0  0  0  0  0  0  0  0  0
   75.2536   64.2588   21.3960 H   0  0  0  0  0  0  0  0  0  0  0  0
   73.0993   63.7322   20.2800 H   0  0  0  0  0  0  0  0  0  0  0  0
   73.0685   62.4814   18.1652 H   0  0  0  0  0  0  0  0  0  0  0  0
   87.0593   60.0676   16.1969 H   0  0  0  0  0  0  0  0  0  0  0  0
  1  2  2  0  0  0  0
  2  3  1  0  0  0  0
  2 17  1  0  0  0  0
  3  4  1  0  0  0  0
  3 10  1  0  0  0  0
  3 37  1  6  0  0  0
  4  5  1  0  0  0  0
  4  9  1  0  0  0  0
  4 38  1  0  0  0  0
  5  6  1  0  0  0  0
  5 39  1  0  0  0  0
  5 40  1  0  0  0  0
  6  7  1  0  0  0  0
  6 41  1  0  0  0  0
  6 42  1  0  0  0  0
  7  8  1  0  0  0  0
  7 43  1  0  0  0  0
  7 44  1  0  0  0  0
  8  9  1  0  0  0  0
  8 45  1  0  0  0  0
  8 46  1  0  0  0  0
  9 47  1  0  0  0  0
  9 48  1  0  0  0  0
 10 11  1  0  0  0  0
 10 49  1  0  0  0  0
 11 12  2  0  0  0  0
 11 13  1  0  0  0  0
 13 14  1  0  0  0  0
 13 15  1  0  0  0  0
 13 50  1  1  0  0  0
 14 51  1  0  0  0  0
 14 52  1  0  0  0  0
 14 53  1  0  0  0  0
 15 16  1  0  0  0  0
 15 54  1  0  0  0  0
 15 73  1  0  0  0  0
 16 55  1  0  0  0  0
 16 56  1  0  0  0  0
 16 57  1  0  0  0  0
 17 18  1  0  0  0  0
 17 21  1  0  0  0  0
 18 19  1  0  0  0  0
 18 58  1  0  0  0  0
 18 59  1  0  0  0  0
 19 20  1  0  0  0  0
 19 60  1  0  0  0  0
 19 61  1  0  0  0  0
 20 21  1  0  0  0  0
 20 62  1  0  0  0  0
 20 63  1  0  0  0  0
 21 22  1  0  0  0  0
 21 64  1  1  0  0  0
 22 23  2  0  0  0  0
 22 30  1  0  0  0  0
 23 24  1  0  0  0  0
 24 25  2  0  0  0  0
 24 29  1  0  0  0  0
 25 26  1  0  0  0  0
 25 31  1  0  0  0  0
 26 27  2  0  0  0  0
 26 65  1  0  0  0  0
 27 28  1  0  0  0  0
 27 66  1  0  0  0  0
 28 29  2  0  0  0  0
 28 67  1  0  0  0  0
 29 30  1  0  0  0  0
 31 32  2  0  0  0  0
 31 36  1  0  0  0  0
 32 33  1  0  0  0  0
 32 68  1  0  0  0  0
 33 34  2  0  0  0  0
 33 69  1  0  0  0  0
 34 35  1  0  0  0  0
 34 70  1  0  0  0  0
 35 36  2  0  0  0  0
 35 71  1  0  0  0  0
 36 72  1  0  0  0  0
M  CHG  1  15   1
M  END
$$$$
