882
 OpenBabel04091911123D

 75 78  0  0  1  0  0  0  0  0999 V2000
   -4.4288  -16.1672    5.9663 N   0  3  1  0  0  0  0  0  0  0  0  0
   -4.3482  -16.2183    7.3535 C   0  0  2  0  0  0  0  0  0  0  0  0
   -5.6097  -15.9400    7.8441 C   0  0  1  0  0  0  0  0  0  0  0  0
   -3.2881  -16.4029    5.0693 C   0  0  0  0  0  0  0  0  0  0  0  0
   -3.1065  -16.4881    8.1507 C   0  0  0  0  0  0  0  0  0  0  0  0
   -2.1505  -15.2996    8.1555 C   0  0  0  0  0  0  0  0  0  0  0  0
   -0.5851  -14.0695    9.6893 C   0  0  0  0  0  0  0  0  0  0  0  0
   -2.8178  -15.1563    4.3205 C   0  0  0  0  0  0  0  0  0  0  0  0
   -7.1003  -16.4471   11.2366 C   0  0  0  0  0  0  0  0  0  0  0  0
   -7.8497  -15.3657    1.7427 C   0  0  0  0  0  0  0  0  0  0  0  0
   -8.2585  -15.3101    0.4091 C   0  0  0  0  0  0  0  0  0  0  0  0
   -5.3930  -14.6689    9.9321 C   0  0  0  0  0  0  0  0  0  0  0  0
   -9.7145  -14.1378    7.7070 C   0  0  0  0  0  0  0  0  0  0  0  0
   -5.7049  -14.4655   11.2749 C   0  0  0  0  0  0  0  0  0  0  0  0
   -7.4962  -17.7422    1.5519 C   0  0  0  0  0  0  0  0  0  0  0  0
  -10.6108  -15.0922    7.2448 C   0  0  2  0  0  0  0  0  0  0  0  0
   -1.9408  -10.9055   12.8422 O   0  0  0  0  0  0  0  0  0  0  0  0
   -2.1654  -11.1505   11.6239 C   0  0  0  0  0  0  0  0  0  0  0  0
   -3.1272  -10.7883   10.8881 O   0  0  0  0  0  0  0  0  0  0  0  0
   -1.0745  -11.9420   10.9157 C   0  0  0  0  0  0  0  0  0  0  0  0
   -1.5369  -13.3672   10.6708 C   0  0  2  0  0  0  0  0  0  0  0  0
   -1.5195  -14.1481   11.8718 O   0  0  0  0  0  0  0  0  0  0  0  0
   -1.1323  -15.4398    9.2899 C   0  0  2  0  0  0  0  0  0  0  0  0
   -0.0559  -16.2639    8.8300 O   0  0  0  0  0  0  0  0  0  0  0  0
   -5.9124  -15.7780    9.2503 C   0  0  1  0  0  0  0  0  0  0  0  0
   -6.5552  -15.3548   11.9123 C   0  0  1  0  0  0  0  0  0  0  0  0
   -6.8778  -15.1622   13.1950 F   0  0  0  0  0  0  0  0  0  0  0  0
   -6.7812  -16.6579    9.8997 C   0  0  0  0  0  0  0  0  0  0  0  0
   -3.5372  -17.5898    4.1429 C   0  0  0  0  0  0  0  0  0  0  0  0
   -5.7483  -15.9158    5.5803 C   0  0  1  0  0  0  0  0  0  0  0  0
   -6.4903  -15.7900    6.7491 C   0  0  2  0  0  0  0  0  0  0  0  0
   -7.8944  -15.4826    6.8283 C   0  0  2  0  0  0  0  0  0  0  0  0
   -8.3462  -14.3332    7.4995 C   0  0  0  0  0  0  0  0  0  0  0  0
  -11.9243  -14.9171    7.4649 F   0  0  0  0  0  0  0  0  0  0  0  0
  -10.1784  -16.2331    6.5801 C   0  0  0  0  0  0  0  0  0  0  0  0
   -8.8231  -16.4417    6.3862 C   0  0  0  0  0  0  0  0  0  0  0  0
   -6.2103  -15.6469    4.2315 C   0  0  0  0  0  0  0  0  0  0  0  0
   -5.8632  -14.6282    3.6329 O   0  0  0  0  0  0  0  0  0  0  0  0
   -6.9929  -16.6413    3.6554 N   0  0  0  0  0  0  0  0  0  0  0  0
   -7.4534  -16.5765    2.3211 C   0  0  0  0  0  0  0  0  0  0  0  0
   -7.8786  -17.6812    0.2052 C   0  0  0  0  0  0  0  0  0  0  0  0
   -8.2639  -16.4669   -0.3636 C   0  0  0  0  0  0  0  0  0  0  0  0
   -2.4454  -16.7057    5.6993 H   0  0  0  0  0  0  0  0  0  0  0  0
   -2.6076  -17.4003    7.8057 H   0  0  0  0  0  0  0  0  0  0  0  0
   -3.4018  -16.7015    9.1856 H   0  0  0  0  0  0  0  0  0  0  0  0
   -2.7166  -14.3669    8.2533 H   0  0  0  0  0  0  0  0  0  0  0  0
   -1.6191  -15.2420    7.1982 H   0  0  0  0  0  0  0  0  0  0  0  0
    0.3995  -14.1976   10.1571 H   0  0  0  0  0  0  0  0  0  0  0  0
   -0.4290  -13.4577    8.7923 H   0  0  0  0  0  0  0  0  0  0  0  0
   -1.9264  -15.3785    3.7233 H   0  0  0  0  0  0  0  0  0  0  0  0
   -2.5627  -14.3490    5.0155 H   0  0  0  0  0  0  0  0  0  0  0  0
   -3.5672  -14.7735    3.6299 H   0  0  0  0  0  0  0  0  0  0  0  0
   -7.7729  -17.1135   11.7594 H   0  0  0  0  0  0  0  0  0  0  0  0
   -7.8613  -14.4487    2.3275 H   0  0  0  0  0  0  0  0  0  0  0  0
   -8.5604  -14.3580   -0.0194 H   0  0  0  0  0  0  0  0  0  0  0  0
   -4.7506  -13.9519    9.4225 H   0  0  0  0  0  0  0  0  0  0  0  0
  -10.0669  -13.2782    8.2639 H   0  0  0  0  0  0  0  0  0  0  0  0
   -5.2844  -13.6135   11.8061 H   0  0  0  0  0  0  0  0  0  0  0  0
   -7.1669  -18.6933    1.9597 H   0  0  0  0  0  0  0  0  0  0  0  0
   -0.1476  -11.9146   11.4977 H   0  0  0  0  0  0  0  0  0  0  0  0
   -0.8852  -11.4397    9.9582 H   0  0  0  0  0  0  0  0  0  0  0  0
   -2.5646  -13.3811   10.2951 H   0  0  0  0  0  0  0  0  0  0  0  0
   -0.6520  -14.0100   12.2890 H   0  0  0  0  0  0  0  0  0  0  0  0
   -1.5688  -15.9375   10.1637 H   0  0  0  0  0  0  0  0  0  0  0  0
   -0.4260  -17.1509    8.6879 H   0  0  0  0  0  0  0  0  0  0  0  0
   -7.2188  -17.5015    9.3634 H   0  0  0  0  0  0  0  0  0  0  0  0
   -2.6565  -17.7977    3.5278 H   0  0  0  0  0  0  0  0  0  0  0  0
   -4.3753  -17.4147    3.4671 H   0  0  0  0  0  0  0  0  0  0  0  0
   -3.7609  -18.4878    4.7299 H   0  0  0  0  0  0  0  0  0  0  0  0
   -7.6387  -13.6140    7.8952 H   0  0  0  0  0  0  0  0  0  0  0  0
  -10.9005  -16.9806    6.2525 H   0  0  0  0  0  0  0  0  0  0  0  0
   -8.4783  -17.3597    5.9387 H   0  0  0  0  0  0  0  0  0  0  0  0
   -7.0343  -17.5300    4.1345 H   0  0  0  0  0  0  0  0  0  0  0  0
   -7.8595  -18.5779   -0.4094 H   0  0  0  0  0  0  0  0  0  0  0  0
   -8.5636  -16.4180   -1.4073 H   0  0  0  0  0  0  0  0  0  0  0  0
  1  2  1  0  0  0  0
  1  4  1  6  0  0  0
  1 30  1  0  0  0  0
  2  3  1  0  0  0  0
  2  5  1  1  0  0  0
  3 25  1  6  0  0  0
  3 31  1  0  0  0  0
  4  8  1  0  0  0  0
  4 29  1  0  0  0  0
  4 43  1  0  0  0  0
  5  6  1  0  0  0  0
  5 44  1  0  0  0  0
  5 45  1  0  0  0  0
  6 23  1  0  0  0  0
  6 46  1  0  0  0  0
  6 47  1  0  0  0  0
  7 21  1  0  0  0  0
  7 23  1  0  0  0  0
  7 48  1  0  0  0  0
  7 49  1  0  0  0  0
  8 50  1  0  0  0  0
  8 51  1  0  0  0  0
  8 52  1  0  0  0  0
  9 26  1  0  0  0  0
  9 28  1  0  0  0  0
  9 53  1  0  0  0  0
 10 11  1  0  0  0  0
 10 40  1  0  0  0  0
 10 54  1  0  0  0  0
 11 42  1  0  0  0  0
 11 55  1  0  0  0  0
 12 14  1  0  0  0  0
 12 56  1  0  0  0  0
 13 16  1  0  0  0  0
 13 33  1  0  0  0  0
 13 57  1  0  0  0  0
 14 26  1  0  0  0  0
 14 58  1  0  0  0  0
 15 40  1  0  0  0  0
 15 41  1  0  0  0  0
 15 59  1  0  0  0  0
 16 34  1  1  0  0  0
 16 35  1  0  0  0  0
 17 18  2  0  0  0  0
 18 19  1  0  0  0  0
 18 20  1  0  0  0  0
 20 21  1  0  0  0  0
 20 60  1  0  0  0  0
 20 61  1  0  0  0  0
 21 22  1  0  0  0  0
 21 62  1  6  0  0  0
 22 63  1  0  0  0  0
 23 24  1  0  0  0  0
 23 64  1  1  0  0  0
 24 65  1  0  0  0  0
 25 12  1  6  0  0  0
 25 28  1  0  0  0  0
 26 27  1  6  0  0  0
 28 66  1  0  0  0  0
 29 67  1  0  0  0  0
 29 68  1  0  0  0  0
 29 69  1  0  0  0  0
 30 31  1  0  0  0  0
 30 37  1  1  0  0  0
 31 32  1  1  0  0  0
 32 33  1  1  0  0  0
 32 36  1  0  0  0  0
 33 70  1  0  0  0  0
 35 36  1  0  0  0  0
 35 71  1  0  0  0  0
 36 72  1  0  0  0  0
 37 38  2  0  0  0  0
 37 39  1  0  0  0  0
 39 40  1  0  0  0  0
 39 73  1  0  0  0  0
 41 42  1  0  0  0  0
 41 74  1  0  0  0  0
 42 75  1  0  0  0  0
M  CHG  1   1   1
M  END
$$$$
