8DX
 OpenBabel04091912343D

 35 36  0  0  1  0  0  0  0  0999 V2000
   -3.4608   16.2399   18.6048 O   0  0  0  0  0  0  0  0  0  0  0  0
   -4.0591   15.2463   18.1357 C   0  0  0  0  0  0  0  0  0  0  0  0
   -3.6149   14.2520   17.4666 O   0  0  0  0  0  0  0  0  0  0  0  0
   -5.5873   15.0941   18.4068 C   0  0  1  0  0  0  0  0  0  0  0  0
   -6.0823   13.7511   17.8764 N   0  3  0  0  0  0  0  0  0  0  0  0
   -5.8614   15.1664   19.9125 C   0  0  0  0  0  0  0  0  0  0  0  0
   -7.3398   15.3498   20.2613 C   0  0  1  0  0  0  0  0  0  0  0  0
   -7.5628   15.4399   21.7801 C   0  0  0  0  0  0  0  0  0  0  0  0
   -7.9635   16.6445   19.6450 C   0  0  0  0  0  0  0  0  0  0  0  0
   -9.1697   16.5212   19.2915 O   0  0  0  0  0  0  0  0  0  0  0  0
   -7.1791   17.6366   19.5411 O   0  0  0  0  0  0  0  0  0  0  0  0
   -8.0275   14.1553   19.7748 O   0  0  0  0  0  0  0  0  0  0  0  0
   -8.4653   13.4141   20.9205 C   0  0  1  0  0  0  0  0  0  0  0  0
   -8.6233   14.3994   22.0766 C   0  0  2  0  0  0  0  0  0  0  0  0
   -9.7170   12.6233   20.5659 C   0  0  0  0  0  0  0  0  0  0  0  0
  -10.9642   13.4917   20.6536 C   0  0  2  0  0  0  0  0  0  0  0  0
  -11.0050   14.4312   19.5862 O   0  0  0  0  0  0  0  0  0  0  0  0
  -11.0002   14.1809   22.0146 C   0  0  0  0  0  0  0  0  0  0  0  0
   -9.8868   15.0563   22.1539 O   0  0  0  0  0  0  0  0  0  0  0  0
   -6.1381   15.8406   17.8302 H   0  0  0  0  0  0  0  0  0  0  0  0
   -7.0827   13.6197   18.0629 H   0  0  0  0  0  0  0  0  0  0  0  0
   -5.8260   13.7357   16.8831 H   0  0  0  0  0  0  0  0  0  0  0  0
   -5.2779   15.9708   20.3700 H   0  0  0  0  0  0  0  0  0  0  0  0
   -5.5122   14.2278   20.3714 H   0  0  0  0  0  0  0  0  0  0  0  0
   -7.8625   16.4414   22.1147 H   0  0  0  0  0  0  0  0  0  0  0  0
   -6.6396   15.1898   22.3157 H   0  0  0  0  0  0  0  0  0  0  0  0
   -7.6475   12.7177   21.1397 H   0  0  0  0  0  0  0  0  0  0  0  0
   -8.4523   13.9112   23.0423 H   0  0  0  0  0  0  0  0  0  0  0  0
   -9.8187   11.7955   21.2776 H   0  0  0  0  0  0  0  0  0  0  0  0
   -9.6228   12.2038   19.5589 H   0  0  0  0  0  0  0  0  0  0  0  0
  -11.8521   12.8577   20.5404 H   0  0  0  0  0  0  0  0  0  0  0  0
  -10.2939   15.1179   19.7009 H   0  0  0  0  0  0  0  0  0  0  0  0
  -10.9866   13.4435   22.8280 H   0  0  0  0  0  0  0  0  0  0  0  0
  -11.9088   14.7801   22.1189 H   0  0  0  0  0  0  0  0  0  0  0  0
   -5.4871   13.0313   18.2975 H   0  0  0  0  0  0  0  0  0  0  0  0
  1  2  2  0  0  0  0
  2  3  1  0  0  0  0
  2  4  1  0  0  0  0
  4  5  1  0  0  0  0
  4  6  1  0  0  0  0
  4 20  1  6  0  0  0
  5 21  1  0  0  0  0
  5 22  1  0  0  0  0
  5 35  1  0  0  0  0
  6 23  1  0  0  0  0
  6 24  1  0  0  0  0
  7  6  1  6  0  0  0
  7  8  1  0  0  0  0
  7  9  1  0  0  0  0
  7 12  1  0  0  0  0
  8 14  1  0  0  0  0
  8 25  1  0  0  0  0
  8 26  1  0  0  0  0
  9 10  2  0  0  0  0
  9 11  1  0  0  0  0
 12 13  1  0  0  0  0
 13 14  1  0  0  0  0
 13 15  1  0  0  0  0
 13 27  1  1  0  0  0
 14 19  1  0  0  0  0
 14 28  1  1  0  0  0
 15 16  1  0  0  0  0
 15 29  1  0  0  0  0
 15 30  1  0  0  0  0
 16 17  1  0  0  0  0
 16 18  1  0  0  0  0
 16 31  1  6  0  0  0
 17 32  1  0  0  0  0
 18 19  1  0  0  0  0
 18 33  1  0  0  0  0
 18 34  1  0  0  0  0
M  CHG  1   5   1
M  END
$$$$
