8HI
 OpenBabel04091911123D

 80 83  0  0  1  0  0  0  0  0999 V2000
   21.7576   26.0857   14.2187 N   0  0  0  0  0  0  0  0  0  0  0  0
   16.5331   24.4218   17.1741 C   0  0  0  0  0  0  0  0  0  0  0  0
   15.5714   24.0473   18.1183 C   0  0  0  0  0  0  0  0  0  0  0  0
   18.1451   23.7677   15.3872 C   0  0  1  0  0  0  0  0  0  0  0  0
   17.9795   23.5893   14.0287 C   0  0  1  0  0  0  0  0  0  0  0  0
   20.0779   24.3732   14.3803 C   0  0  1  0  0  0  0  0  0  0  0  0
   20.0143   24.5720   16.9249 C   0  0  0  0  0  0  0  0  0  0  0  0
   20.9456   25.3605   19.4526 C   0  0  0  0  0  0  0  0  0  0  0  0
   20.0968   23.6397   17.9698 C   0  0  0  0  0  0  0  0  0  0  0  0
   22.9845   26.6572   13.8314 C   0  0  2  0  0  0  0  0  0  0  0  0
   25.2980   27.9365   13.1004 C   0  0  2  0  0  0  0  0  0  0  0  0
   25.3881   26.6334   13.5751 C   0  0  0  0  0  0  0  0  0  0  0  0
   24.2107   25.9824   13.9282 C   0  0  0  0  0  0  0  0  0  0  0  0
   19.8550   25.2678   11.4208 C   0  0  0  0  0  0  0  0  0  0  0  0
   16.7554   23.1182   13.3085 C   0  0  0  0  0  0  0  0  0  0  0  0
   15.5325   21.1681   12.3342 C   0  0  2  0  0  0  0  0  0  0  0  0
   16.8451   17.6628   16.0473 O   0  0  0  0  0  0  0  0  0  0  0  0
   15.7498   17.3651   15.5181 C   0  0  0  0  0  0  0  0  0  0  0  0
   14.7534   16.7593   15.9869 O   0  0  0  0  0  0  0  0  0  0  0  0
   15.6727   17.7114   14.0311 C   0  0  0  0  0  0  0  0  0  0  0  0
   15.4506   19.2059   13.9110 C   0  0  2  0  0  0  0  0  0  0  0  0
   14.1549   19.5862   14.3781 O   0  0  0  0  0  0  0  0  0  0  0  0
   15.5345   19.6472   12.4469 C   0  0  0  0  0  0  0  0  0  0  0  0
   15.2572   21.5090   10.9715 O   0  0  0  0  0  0  0  0  0  0  0  0
   16.9005   21.7196   12.7325 C   0  0  0  0  0  0  0  0  0  0  0  0
   17.1318   23.4431   16.3734 C   0  0  0  0  0  0  0  0  0  0  0  0
   16.7911   22.0984   16.5497 C   0  0  0  0  0  0  0  0  0  0  0  0
   15.8392   21.7275   17.4909 C   0  0  0  0  0  0  0  0  0  0  0  0
   15.2318   22.7023   18.2683 C   0  0  0  0  0  0  0  0  0  0  0  0
   14.3112   22.3464   19.1737 F   0  0  0  0  0  0  0  0  0  0  0  0
   19.1682   23.9428   13.4070 N   0  3  2  0  0  0  0  0  0  0  0  0
   19.3724   23.9234   11.9501 C   0  0  0  0  0  0  0  0  0  0  0  0
   20.2470   22.7661   11.4812 C   0  0  0  0  0  0  0  0  0  0  0  0
   19.4562   24.2377   15.6218 C   0  0  1  0  0  0  0  0  0  0  0  0
   20.3534   25.8998   17.1801 C   0  0  0  0  0  0  0  0  0  0  0  0
   20.8334   26.2932   18.4280 C   0  0  0  0  0  0  0  0  0  0  0  0
   20.5734   24.0347   19.2268 C   0  0  0  0  0  0  0  0  0  0  0  0
   21.4510   24.7479   14.0875 C   0  0  0  0  0  0  0  0  0  0  0  0
   22.2481   23.9273   13.6014 O   0  0  0  0  0  0  0  0  0  0  0  0
   22.9316   27.9715   13.3629 C   0  0  0  0  0  0  0  0  0  0  0  0
   24.0836   28.6238   12.9835 C   0  0  0  0  0  0  0  0  0  0  0  0
   26.7318   28.7862   12.5606 S   0  0  0  0  0  0  0  0  0  0  0  0
   27.8043   27.8310   12.3624 O   0  0  0  0  0  0  0  0  0  0  0  0
   26.3276   29.7049   11.5315 O   0  0  0  0  0  0  0  0  0  0  0  0
   27.0881   29.6874   13.9054 N   0  0  0  0  0  0  0  0  0  0  0  0
   20.9951   26.7251   14.3962 H   0  0  0  0  0  0  0  0  0  0  0  0
   16.8075   25.4680   17.0706 H   0  0  0  0  0  0  0  0  0  0  0  0
   15.0818   24.7939   18.7341 H   0  0  0  0  0  0  0  0  0  0  0  0
   21.3189   25.6645   20.4271 H   0  0  0  0  0  0  0  0  0  0  0  0
   19.7898   22.6046   17.8228 H   0  0  0  0  0  0  0  0  0  0  0  0
   26.3506   26.1206   13.6529 H   0  0  0  0  0  0  0  0  0  0  0  0
   24.2699   24.9745   14.3191 H   0  0  0  0  0  0  0  0  0  0  0  0
   19.9923   25.2492   10.3361 H   0  0  0  0  0  0  0  0  0  0  0  0
   20.8119   25.5424   11.8580 H   0  0  0  0  0  0  0  0  0  0  0  0
   19.1309   26.0504   11.6691 H   0  0  0  0  0  0  0  0  0  0  0  0
   16.4840   23.8206   12.5173 H   0  0  0  0  0  0  0  0  0  0  0  0
   15.9256   23.1155   14.0248 H   0  0  0  0  0  0  0  0  0  0  0  0
   14.7403   21.5924   12.9619 H   0  0  0  0  0  0  0  0  0  0  0  0
   14.8610   17.1609   13.5438 H   0  0  0  0  0  0  0  0  0  0  0  0
   16.6150   17.4449   13.5193 H   0  0  0  0  0  0  0  0  0  0  0  0
   16.1906   19.7425   14.5083 H   0  0  0  0  0  0  0  0  0  0  0  0
   13.5046   19.0609   13.8815 H   0  0  0  0  0  0  0  0  0  0  0  0
   16.4482   19.2573   11.9834 H   0  0  0  0  0  0  0  0  0  0  0  0
   14.6792   19.2503   11.8856 H   0  0  0  0  0  0  0  0  0  0  0  0
   15.2477   22.4763   10.9025 H   0  0  0  0  0  0  0  0  0  0  0  0
   17.3777   21.0737   13.4748 H   0  0  0  0  0  0  0  0  0  0  0  0
   17.5525   21.7450   11.8552 H   0  0  0  0  0  0  0  0  0  0  0  0
   17.2749   21.3376   15.9437 H   0  0  0  0  0  0  0  0  0  0  0  0
   15.5734   20.6779   17.6051 H   0  0  0  0  0  0  0  0  0  0  0  0
   18.3953   23.7644   11.4780 H   0  0  0  0  0  0  0  0  0  0  0  0
   19.8602   21.8143   11.8571 H   0  0  0  0  0  0  0  0  0  0  0  0
   21.2705   22.8744   11.8322 H   0  0  0  0  0  0  0  0  0  0  0  0
   20.2780   22.7129   10.3865 H   0  0  0  0  0  0  0  0  0  0  0  0
   20.2281   26.6387   16.4004 H   0  0  0  0  0  0  0  0  0  0  0  0
   21.1171   27.3274   18.5914 H   0  0  0  0  0  0  0  0  0  0  0  0
   20.6604   23.3063   20.0298 H   0  0  0  0  0  0  0  0  0  0  0  0
   21.9659   28.4812   13.2326 H   0  0  0  0  0  0  0  0  0  0  0  0
   24.0395   29.6368   12.5800 H   0  0  0  0  0  0  0  0  0  0  0  0
   27.8841   30.3069   13.8268 H   0  0  0  0  0  0  0  0  0  0  0  0
   26.4879   29.6810   14.7293 H   0  0  0  0  0  0  0  0  0  0  0  0
  1 38  1  0  0  0  0
  1 46  1  0  0  0  0
  2  3  2  0  0  0  0
  2 26  1  0  0  0  0
  2 47  1  0  0  0  0
  3 29  1  0  0  0  0
  3 48  1  0  0  0  0
  4  5  1  0  0  0  0
  4 26  1  1  0  0  0
  4 34  1  0  0  0  0
  5 15  1  6  0  0  0
  5 31  1  0  0  0  0
  6 31  1  0  0  0  0
  6 34  1  0  0  0  0
  6 38  1  1  0  0  0
  7  9  1  0  0  0  0
  7 35  1  0  0  0  0
  8 36  1  0  0  0  0
  8 37  1  0  0  0  0
  8 49  1  0  0  0  0
  9 37  1  0  0  0  0
  9 50  1  0  0  0  0
 10  1  1  1  0  0  0
 10 13  1  0  0  0  0
 10 40  1  0  0  0  0
 11 12  1  0  0  0  0
 11 41  1  0  0  0  0
 11 42  1  6  0  0  0
 12 13  1  0  0  0  0
 12 51  1  0  0  0  0
 13 52  1  0  0  0  0
 14 32  1  0  0  0  0
 14 53  1  0  0  0  0
 14 54  1  0  0  0  0
 14 55  1  0  0  0  0
 15 25  1  0  0  0  0
 15 56  1  0  0  0  0
 15 57  1  0  0  0  0
 16 23  1  0  0  0  0
 16 24  1  0  0  0  0
 16 25  1  0  0  0  0
 16 58  1  1  0  0  0
 17 18  2  0  0  0  0
 18 19  1  0  0  0  0
 18 20  1  0  0  0  0
 20 21  1  0  0  0  0
 20 59  1  0  0  0  0
 20 60  1  0  0  0  0
 21 22  1  0  0  0  0
 21 23  1  0  0  0  0
 21 61  1  1  0  0  0
 22 62  1  0  0  0  0
 23 63  1  0  0  0  0
 23 64  1  0  0  0  0
 24 65  1  0  0  0  0
 25 66  1  0  0  0  0
 25 67  1  0  0  0  0
 26 27  2  0  0  0  0
 27 28  1  0  0  0  0
 27 68  1  0  0  0  0
 28 29  2  0  0  0  0
 28 69  1  0  0  0  0
 29 30  1  0  0  0  0
 31 32  1  6  0  0  0
 32 33  1  0  0  0  0
 32 70  1  0  0  0  0
 33 71  1  0  0  0  0
 33 72  1  0  0  0  0
 33 73  1  0  0  0  0
 34  7  1  6  0  0  0
 35 36  1  0  0  0  0
 35 74  1  0  0  0  0
 36 75  1  0  0  0  0
 37 76  1  0  0  0  0
 38 39  2  0  0  0  0
 40 41  1  0  0  0  0
 40 77  1  0  0  0  0
 41 78  1  0  0  0  0
 42 43  2  0  0  0  0
 42 44  2  0  0  0  0
 42 45  1  0  0  0  0
 45 79  1  0  0  0  0
 45 80  1  0  0  0  0
M  CHG  1  31   1
M  END
$$$$
