8NA
 OpenBabel04091916323D

 71 75  0  0  1  0  0  0  0  0999 V2000
    4.5960   27.0912   13.9889 P   0  0  2  0  0  0  0  0  0  0  0  0
    3.3760   27.4357   14.8401 O   0  0  0  0  0  0  0  0  0  0  0  0
    5.1937   28.1572   13.1225 O   0  0  0  0  0  0  0  0  0  0  0  0
    4.1362   25.8439   13.0510 O   0  0  0  0  0  0  0  0  0  0  0  0
    3.4833   24.6868   13.5302 C   0  0  0  0  0  0  0  0  0  0  0  0
    2.5902   24.2464   12.3782 C   0  0  1  0  0  0  0  0  0  0  0  0
    2.0589   22.9230   12.5302 O   0  0  0  0  0  0  0  0  0  0  0  0
    1.4051   25.1957   12.2042 C   0  0  1  0  0  0  0  0  0  0  0  0
    1.4222   25.5698   10.8209 O   0  0  0  0  0  0  0  0  0  0  0  0
    0.1812   24.3365   12.5067 C   0  0  1  0  0  0  0  0  0  0  0  0
   -0.9557   24.6738   11.7082 O   0  0  0  0  0  0  0  0  0  0  0  0
    0.6959   22.9585   12.1272 C   0  0  2  0  0  0  0  0  0  0  0  0
    0.0564   21.8584   12.7685 N   0  3  0  0  0  0  0  0  0  0  0  0
   -0.3787   21.7420   14.0653 C   0  0  0  0  0  0  0  0  0  0  0  0
   -0.8057   20.5046   14.3323 N   0  0  0  0  0  0  0  0  0  0  0  0
   -0.6228   19.8199   13.1213 C   0  0  0  0  0  0  0  0  0  0  0  0
   -0.8774   18.5041   12.7112 C   0  0  0  0  0  0  0  0  0  0  0  0
   -1.4265   17.5762   13.5585 N   0  0  0  0  0  0  0  0  0  0  0  0
   -0.5964   18.1258   11.4299 N   0  0  0  0  0  0  0  0  0  0  0  0
   -0.0875   19.0530   10.5829 C   0  0  0  0  0  0  0  0  0  0  0  0
    0.1658   20.3377   10.8544 N   0  0  0  0  0  0  0  0  0  0  0  0
   -0.1162   20.6314   12.1527 C   0  0  0  0  0  0  0  0  0  0  0  0
    5.7008   26.3852   14.9234 O   0  0  0  0  0  0  0  0  0  0  0  0
    7.2040   26.1883   14.3677 P   0  0  2  0  0  0  0  0  0  0  0  0
    8.0695   27.3878   14.7132 O   0  0  0  0  0  0  0  0  0  0  0  0
    7.1835   25.6150   12.9758 O   0  0  0  0  0  0  0  0  0  0  0  0
    7.7277   25.0246   15.4058 O   0  0  0  0  0  0  0  0  0  0  0  0
    7.3026   23.6753   15.3855 C   0  0  0  0  0  0  0  0  0  0  0  0
    7.9337   22.9044   16.5715 C   0  0  1  0  0  0  0  0  0  0  0  0
    9.2443   23.4500   16.8515 O   0  0  0  0  0  0  0  0  0  0  0  0
    7.1486   22.9695   17.8718 C   0  0  1  0  0  0  0  0  0  0  0  0
    7.3407   21.7185   18.5984 O   0  0  0  0  0  0  0  0  0  0  0  0
    7.8174   24.0723   18.6662 C   0  0  1  0  0  0  0  0  0  0  0  0
    7.6485   23.7675   20.0555 O   0  0  0  0  0  0  0  0  0  0  0  0
    9.2758   24.0525   18.1608 C   0  0  1  0  0  0  0  0  0  0  0  0
   10.2018   23.2423   19.0138 N   0  0  0  0  0  0  0  0  0  0  0  0
   10.7719   23.7594   20.1819 C   0  0  0  0  0  0  0  0  0  0  0  0
   11.6281   23.0708   20.9537 C   0  0  0  0  0  0  0  0  0  0  0  0
   12.1146   23.7625   22.1534 C   0  0  0  0  0  0  0  0  0  0  0  0
   11.6072   24.7890   22.6037 O   0  0  0  0  0  0  0  0  0  0  0  0
   13.1656   23.1902   22.7869 N   0  0  0  0  0  0  0  0  0  0  0  0
   12.0665   21.6871   20.5910 C   0  0  0  0  0  0  0  0  0  0  0  0
   11.4643   21.2161   19.2923 C   0  0  0  0  0  0  0  0  0  0  0  0
   10.6153   21.9683   18.6314 C   0  0  0  0  0  0  0  0  0  0  0  0
    2.8809   24.8778   14.4254 H   0  0  0  0  0  0  0  0  0  0  0  0
    4.2056   23.8934   13.7632 H   0  0  0  0  0  0  0  0  0  0  0  0
    3.1899   24.2423   11.4552 H   0  0  0  0  0  0  0  0  0  0  0  0
    1.4617   26.0747   12.8588 H   0  0  0  0  0  0  0  0  0  0  0  0
    0.7237   26.2312   10.6816 H   0  0  0  0  0  0  0  0  0  0  0  0
   -0.0854   24.3727   13.5733 H   0  0  0  0  0  0  0  0  0  0  0  0
   -0.6864   24.5220   10.7750 H   0  0  0  0  0  0  0  0  0  0  0  0
    0.5836   22.8288   11.0295 H   0  0  0  0  0  0  0  0  0  0  0  0
   -0.3911   22.5551   14.7934 H   0  0  0  0  0  0  0  0  0  0  0  0
   -1.5920   16.6481   13.2136 H   0  0  0  0  0  0  0  0  0  0  0  0
   -1.6406   17.8585   14.5028 H   0  0  0  0  0  0  0  0  0  0  0  0
    0.1285   18.7092    9.5669 H   0  0  0  0  0  0  0  0  0  0  0  0
    7.6247   23.1847   14.4582 H   0  0  0  0  0  0  0  0  0  0  0  0
    6.2162   23.6176   15.4558 H   0  0  0  0  0  0  0  0  0  0  0  0
    8.0412   21.8422   16.2902 H   0  0  0  0  0  0  0  0  0  0  0  0
    6.0747   23.1282   17.7209 H   0  0  0  0  0  0  0  0  0  0  0  0
    6.8497   21.7941   19.4378 H   0  0  0  0  0  0  0  0  0  0  0  0
    7.3597   25.0460   18.4330 H   0  0  0  0  0  0  0  0  0  0  0  0
    8.1242   22.9123   20.1581 H   0  0  0  0  0  0  0  0  0  0  0  0
    9.6645   25.0826   18.1090 H   0  0  0  0  0  0  0  0  0  0  0  0
   10.4770   24.7767   20.4351 H   0  0  0  0  0  0  0  0  0  0  0  0
   13.5451   23.6322   23.6160 H   0  0  0  0  0  0  0  0  0  0  0  0
   13.6076   22.3677   22.4196 H   0  0  0  0  0  0  0  0  0  0  0  0
   11.7790   20.9922   21.3889 H   0  0  0  0  0  0  0  0  0  0  0  0
   13.1586   21.6677   20.4954 H   0  0  0  0  0  0  0  0  0  0  0  0
   11.7281   20.2348   18.9071 H   0  0  0  0  0  0  0  0  0  0  0  0
   10.2039   21.6061   17.6554 H   0  0  0  0  0  0  0  0  0  0  0  0
  1  2  2  1  0  0  0
  1  3  1  0  0  0  0
  1  4  1  0  0  0  0
  1 23  1  0  0  0  0
  4  5  1  0  0  0  0
  5  6  1  0  0  0  0
  5 45  1  0  0  0  0
  5 46  1  0  0  0  0
  6  7  1  0  0  0  0
  6  8  1  0  0  0  0
  6 47  1  6  0  0  0
  7 12  1  0  0  0  0
  8  9  1  0  0  0  0
  8 10  1  0  0  0  0
  8 48  1  1  0  0  0
  9 49  1  0  0  0  0
 10 11  1  0  0  0  0
 10 12  1  0  0  0  0
 10 50  1  1  0  0  0
 11 51  1  0  0  0  0
 12 13  1  0  0  0  0
 12 52  1  6  0  0  0
 13 14  2  0  0  0  0
 13 22  1  0  0  0  0
 14 15  1  0  0  0  0
 14 53  1  0  0  0  0
 15 16  1  0  0  0  0
 16 17  2  0  0  0  0
 16 22  1  0  0  0  0
 17 18  1  0  0  0  0
 17 19  1  0  0  0  0
 18 54  1  0  0  0  0
 18 55  1  0  0  0  0
 19 20  2  0  0  0  0
 20 21  1  0  0  0  0
 20 56  1  0  0  0  0
 21 22  2  0  0  0  0
 24 23  1  1  0  0  0
 24 25  2  0  0  0  0
 24 26  1  0  0  0  0
 24 27  1  0  0  0  0
 27 28  1  0  0  0  0
 28 29  1  0  0  0  0
 28 57  1  0  0  0  0
 28 58  1  0  0  0  0
 29 30  1  0  0  0  0
 29 31  1  0  0  0  0
 29 59  1  6  0  0  0
 30 35  1  0  0  0  0
 31 32  1  0  0  0  0
 31 33  1  0  0  0  0
 31 60  1  6  0  0  0
 32 61  1  0  0  0  0
 33 34  1  0  0  0  0
 33 35  1  0  0  0  0
 33 62  1  6  0  0  0
 34 63  1  0  0  0  0
 35 36  1  0  0  0  0
 35 64  1  6  0  0  0
 36 37  1  0  0  0  0
 36 44  1  0  0  0  0
 37 38  2  0  0  0  0
 37 65  1  0  0  0  0
 38 39  1  0  0  0  0
 38 42  1  0  0  0  0
 39 40  2  0  0  0  0
 39 41  1  0  0  0  0
 41 66  1  0  0  0  0
 41 67  1  0  0  0  0
 42 43  1  0  0  0  0
 42 68  1  0  0  0  0
 42 69  1  0  0  0  0
 43 44  2  0  0  0  0
 43 70  1  0  0  0  0
 44 71  1  0  0  0  0
M  CHG  1  13   1
M  END
$$$$
