8OG
 OpenBabel04091910503D

 36 38  0  0  1  0  0  0  0  0999 V2000
  -11.5400    0.4778   23.4675 O   0  0  0  0  0  0  0  0  0  0  0  0
  -10.0702    0.8352   23.4988 P   0  0  0  0  0  0  0  0  0  0  0  0
   -9.6623    1.9410   24.4661 O   0  0  0  0  0  0  0  0  0  0  0  0
   -9.3443    0.9218   22.1649 O   0  0  0  0  0  0  0  0  0  0  0  0
   -9.4015   -0.4897   24.1918 O   0  0  0  0  0  0  0  0  0  0  0  0
   -8.0802   -0.3910   24.6475 C   0  0  0  0  0  0  0  0  0  0  0  0
   -7.9560   -1.1250   25.9799 C   0  0  1  0  0  0  0  0  0  0  0  0
   -6.5392   -1.3801   26.2469 O   0  0  0  0  0  0  0  0  0  0  0  0
   -8.4829   -0.2901   27.1480 C   0  0  1  0  0  0  0  0  0  0  0  0
   -9.1125   -1.1470   28.1027 O   0  0  0  0  0  0  0  0  0  0  0  0
   -7.2290    0.2699   27.7870 C   0  0  0  0  0  0  0  0  0  0  0  0
   -6.1994   -0.7963   27.5010 C   0  0  2  0  0  0  0  0  0  0  0  0
   -4.8656   -0.2252   27.3531 N   0  3  0  0  0  0  0  0  0  0  0  0
   -3.8569   -0.4433   28.3389 C   0  0  0  0  0  0  0  0  0  0  0  0
   -2.6939    0.1902   27.9537 N   0  0  0  0  0  0  0  0  0  0  0  0
   -2.9793    0.7573   26.8380 C   0  0  1  0  0  0  0  0  0  0  0  0
   -2.1266    1.5682   25.9381 C   0  0  0  0  0  0  0  0  0  0  0  0
   -0.9623    1.8334   26.1561 O   0  0  0  0  0  0  0  0  0  0  0  0
   -2.7906    2.0119   24.7637 N   0  3  0  0  0  0  0  0  0  0  0  0
   -4.0583    1.7258   24.4440 C   0  0  0  0  0  0  0  0  0  0  0  0
   -4.5471    2.1925   23.2962 N   0  0  0  0  0  0  0  0  0  0  0  0
   -4.7630    0.9956   25.2513 N   0  3  0  0  0  0  0  0  0  0  0  0
   -4.3269    0.5107   26.3861 C   0  0  2  0  0  0  0  0  0  0  0  0
   -4.0746   -1.0726   29.3453 O   0  0  0  0  0  0  0  0  0  0  0  0
   -7.7615    0.6487   24.7735 H   0  0  0  0  0  0  0  0  0  0  0  0
   -7.4023   -0.8380   23.9143 H   0  0  0  0  0  0  0  0  0  0  0  0
   -8.4831   -2.0879   25.9262 H   0  0  0  0  0  0  0  0  0  0  0  0
   -9.1863    0.4965   26.8619 H   0  0  0  0  0  0  0  0  0  0  0  0
   -9.9313   -1.4623   27.6592 H   0  0  0  0  0  0  0  0  0  0  0  0
   -7.3244    0.4526   28.8624 H   0  0  0  0  0  0  0  0  0  0  0  0
   -6.9446    1.2081   27.3004 H   0  0  0  0  0  0  0  0  0  0  0  0
   -6.1998   -1.5731   28.2780 H   0  0  0  0  0  0  0  0  0  0  0  0
   -2.2217    2.5781   24.1395 H   0  0  0  0  0  0  0  0  0  0  0  0
   -5.5172    2.0427   22.9907 H   0  0  0  0  0  0  0  0  0  0  0  0
   -4.0014    2.7745   22.6674 H   0  0  0  0  0  0  0  0  0  0  0  0
   -5.7329    0.8017   24.9733 H   0  0  0  0  0  0  0  0  0  0  0  0
  1  2  2  0  0  0  0
  2  3  1  0  0  0  0
  2  4  1  0  0  0  0
  2  5  1  0  0  0  0
  5  6  1  0  0  0  0
  6  7  1  0  0  0  0
  6 25  1  0  0  0  0
  6 26  1  0  0  0  0
  7  8  1  0  0  0  0
  7  9  1  0  0  0  0
  7 27  1  6  0  0  0
  8 12  1  0  0  0  0
  9 10  1  0  0  0  0
  9 11  1  0  0  0  0
  9 28  1  6  0  0  0
 10 29  1  0  0  0  0
 11 12  1  0  0  0  0
 11 30  1  0  0  0  0
 11 31  1  0  0  0  0
 12 13  1  0  0  0  0
 12 32  1  1  0  0  0
 13 14  1  0  0  0  0
 14 15  1  0  0  0  0
 14 24  2  0  0  0  0
 16 15  1  6  0  0  0
 16 17  1  0  0  0  0
 16 23  1  0  0  0  0
 17 18  2  0  0  0  0
 17 19  1  0  0  0  0
 19 20  1  0  0  0  0
 19 33  1  0  0  0  0
 20 21  2  0  0  0  0
 20 22  1  0  0  0  0
 21 34  1  0  0  0  0
 21 35  1  0  0  0  0
 22 23  1  0  0  0  0
 22 36  1  0  0  0  0
 23 13  1  1  0  0  0
M  CHG  3  13   1  19   1  22   1
M  END
$$$$
