8PA
 OpenBabel04091912243D

 59 61  0  0  1  0  0  0  0  0999 V2000
   64.3724   57.8121  157.5294 C   0  0  0  0  0  0  0  0  0  0  0  0
   63.8821   59.0788  157.3996 C   0  0  0  0  0  0  0  0  0  0  0  0
   64.2149   60.0433  158.3316 C   0  0  0  0  0  0  0  0  0  0  0  0
   65.0091   59.7874  159.4172 N   0  0  0  0  0  0  0  0  0  0  0  0
   65.4575   58.5255  159.5478 C   0  0  0  0  0  0  0  0  0  0  0  0
   65.1616   57.5107  158.6380 C   0  0  0  0  0  0  0  0  0  0  0  0
   65.7864   56.2192  158.7914 C   0  0  0  0  0  0  0  0  0  0  0  0
   65.1295   55.0675  158.9827 C   0  0  0  0  0  0  0  0  0  0  0  0
   65.9241   53.8263  159.1393 C   0  0  2  0  0  0  0  0  0  0  0  0
   65.3927   52.8031  158.3014 O   0  0  0  0  0  0  0  0  0  0  0  0
   66.2341   53.2800  160.5180 C   0  0  0  0  0  0  0  0  0  0  0  0
   65.9193   54.1964  161.9448 S   0  0  0  0  0  0  0  0  0  0  0  0
   66.4429   52.9315  162.9728 C   0  0  0  0  0  0  0  0  0  0  0  0
   66.2123   53.0021  164.4639 C   0  0  0  0  0  0  0  0  0  0  0  0
   67.1965   53.8410  165.2646 C   0  0  0  0  0  0  0  0  0  0  0  0
   66.9167   53.5709  166.6228 O   0  0  0  0  0  0  0  0  0  0  0  0
   67.4845   54.6123  167.7409 P   0  0  1  0  0  0  0  0  0  0  0  0
   67.4980   53.8607  169.0660 O   0  0  0  0  0  0  0  0  0  0  0  0
   68.8331   55.0653  167.2126 O   0  0  0  0  0  0  0  0  0  0  0  0
   66.4404   55.8266  167.6848 O   0  0  0  0  0  0  0  0  0  0  0  0
   64.8341   56.0063  167.7252 P   0  0  0  0  0  0  0  0  0  0  0  0
   64.3571   55.6216  166.3130 O   0  0  0  0  0  0  0  0  0  0  0  0
   64.2858   55.1093  168.8172 O   0  0  0  0  0  0  0  0  0  0  0  0
   64.6311   57.4940  168.0105 O   0  0  0  0  0  0  0  0  0  0  0  0
   66.9397   51.8913  162.2098 C   0  0  0  0  0  0  0  0  0  0  0  0
   67.4010   50.5639  162.6973 C   0  0  0  0  0  0  0  0  0  0  0  0
   66.9049   52.1664  160.8306 N   0  3  0  0  0  0  0  0  0  0  0  0
   67.4477   51.2398  159.8166 C   0  0  0  0  0  0  0  0  0  0  0  0
   68.9402   51.3133  159.6577 C   0  0  0  0  0  0  0  0  0  0  0  0
   69.7015   50.1710  159.8312 C   0  0  0  0  0  0  0  0  0  0  0  0
   71.0288   50.1039  159.6375 N   0  0  0  0  0  0  0  0  0  0  0  0
   71.6335   51.2363  159.2594 C   0  0  0  0  0  0  0  0  0  0  0  0
   73.1099   51.2054  159.0264 C   0  0  0  0  0  0  0  0  0  0  0  0
   70.9861   52.3873  159.0172 N   0  0  0  0  0  0  0  0  0  0  0  0
   69.6595   52.4008  159.1983 C   0  0  0  0  0  0  0  0  0  0  0  0
   69.0567   53.5783  158.7753 N   0  0  0  0  0  0  0  0  0  0  0  0
   64.1505   57.0484  156.7894 H   0  0  0  0  0  0  0  0  0  0  0  0
   63.2504   59.3685  156.5566 H   0  0  0  0  0  0  0  0  0  0  0  0
   63.8625   61.0558  158.2839 H   0  0  0  0  0  0  0  0  0  0  0  0
   66.0766   58.3509  160.4287 H   0  0  0  0  0  0  0  0  0  0  0  0
   66.8786   56.2542  158.7914 H   0  0  0  0  0  0  0  0  0  0  0  0
   64.0359   55.0304  159.0323 H   0  0  0  0  0  0  0  0  0  0  0  0
   66.8706   54.0592  158.6671 H   0  0  0  0  0  0  0  0  0  0  0  0
   65.6403   53.0711  157.3956 H   0  0  0  0  0  0  0  0  0  0  0  0
   66.2449   51.9821  164.8693 H   0  0  0  0  0  0  0  0  0  0  0  0
   65.1911   53.3377  164.6703 H   0  0  0  0  0  0  0  0  0  0  0  0
   67.1159   54.9073  165.0303 H   0  0  0  0  0  0  0  0  0  0  0  0
   68.2279   53.5190  165.0639 H   0  0  0  0  0  0  0  0  0  0  0  0
   67.2985   50.4623  163.7809 H   0  0  0  0  0  0  0  0  0  0  0  0
   68.4532   50.3976  162.4588 H   0  0  0  0  0  0  0  0  0  0  0  0
   66.7992   49.7620  162.2554 H   0  0  0  0  0  0  0  0  0  0  0  0
   66.9973   51.3716  158.8333 H   0  0  0  0  0  0  0  0  0  0  0  0
   67.1507   50.2257  160.1085 H   0  0  0  0  0  0  0  0  0  0  0  0
   69.2559   49.2207  160.1142 H   0  0  0  0  0  0  0  0  0  0  0  0
   73.5165   50.2158  159.2559 H   0  0  0  0  0  0  0  0  0  0  0  0
   73.6076   51.9434  159.6613 H   0  0  0  0  0  0  0  0  0  0  0  0
   73.3249   51.4326  157.9778 H   0  0  0  0  0  0  0  0  0  0  0  0
   69.8143   54.2245  158.5351 H   0  0  0  0  0  0  0  0  0  0  0  0
   68.5193   54.0069  159.5140 H   0  0  0  0  0  0  0  0  0  0  0  0
  1  2  2  0  0  0  0
  1  6  1  0  0  0  0
  1 37  1  0  0  0  0
  2  3  1  0  0  0  0
  2 38  1  0  0  0  0
  3  4  2  0  0  0  0
  3 39  1  0  0  0  0
  4  5  1  0  0  0  0
  5  6  2  0  0  0  0
  5 40  1  0  0  0  0
  6  7  1  0  0  0  0
  7  8  2  0  0  0  0
  7 41  1  0  0  0  0
  8  9  1  0  0  0  0
  8 42  1  0  0  0  0
  9 10  1  0  0  0  0
  9 11  1  0  0  0  0
  9 43  1  6  0  0  0
 10 44  1  0  0  0  0
 11 12  1  0  0  0  0
 11 27  2  0  0  0  0
 12 13  1  0  0  0  0
 13 14  1  0  0  0  0
 13 25  2  0  0  0  0
 14 15  1  0  0  0  0
 14 45  1  0  0  0  0
 14 46  1  0  0  0  0
 15 16  1  0  0  0  0
 15 47  1  0  0  0  0
 15 48  1  0  0  0  0
 17 16  1  6  0  0  0
 17 18  2  0  0  0  0
 17 19  1  0  0  0  0
 17 20  1  0  0  0  0
 20 21  1  0  0  0  0
 21 22  2  0  0  0  0
 21 23  1  0  0  0  0
 21 24  1  0  0  0  0
 25 26  1  0  0  0  0
 25 27  1  0  0  0  0
 26 49  1  0  0  0  0
 26 50  1  0  0  0  0
 26 51  1  0  0  0  0
 27 28  1  0  0  0  0
 28 29  1  0  0  0  0
 28 52  1  0  0  0  0
 28 53  1  0  0  0  0
 29 30  2  0  0  0  0
 29 35  1  0  0  0  0
 30 31  1  0  0  0  0
 30 54  1  0  0  0  0
 31 32  2  0  0  0  0
 32 33  1  0  0  0  0
 32 34  1  0  0  0  0
 33 55  1  0  0  0  0
 33 56  1  0  0  0  0
 33 57  1  0  0  0  0
 34 35  2  0  0  0  0
 35 36  1  0  0  0  0
 36 58  1  0  0  0  0
 36 59  1  0  0  0  0
M  CHG  1  27   1
M  END
$$$$
