91U
 OpenBabel04091912233D

 62 64  0  0  1  0  0  0  0  0999 V2000
   18.0953  -14.3985   24.6817 C   0  0  0  0  0  0  0  0  0  0  0  0
   16.8742  -15.9062   23.1814 N   0  0  0  0  0  0  0  0  0  0  0  0
   17.2608  -17.0966   23.7368 C   0  0  0  0  0  0  0  0  0  0  0  0
   16.6533  -17.5004   25.0655 C   0  0  0  0  0  0  0  0  0  0  0  0
   18.1299  -17.8001   23.2200 O   0  0  0  0  0  0  0  0  0  0  0  0
   17.7834  -14.7655   23.2111 C   0  0  1  0  0  0  0  0  0  0  0  0
   17.2448  -13.5254   22.4936 C   0  0  0  0  0  0  0  0  0  0  0  0
   16.1811  -13.0071   22.9006 O   0  0  0  0  0  0  0  0  0  0  0  0
   17.9292  -13.0254   21.4204 N   0  0  0  0  0  0  0  0  0  0  0  0
   19.0792  -13.6462   20.7645 C   0  0  0  0  0  0  0  0  0  0  0  0
   19.5643  -12.6071   19.7850 C   0  0  0  0  0  0  0  0  0  0  0  0
   18.2693  -11.8919   19.4011 C   0  0  0  0  0  0  0  0  0  0  0  0
   17.4983  -11.7827   20.7280 C   0  0  1  0  0  0  0  0  0  0  0  0
   15.9944  -11.7580   20.4572 C   0  0  0  0  0  0  0  0  0  0  0  0
   15.3034  -10.5869   20.6266 N   0  0  0  0  0  0  0  0  0  0  0  0
   13.8682  -10.5861   20.3689 C   0  0  0  0  0  0  0  0  0  0  0  0
   13.0254  -10.4818   21.6172 C   0  0  0  0  0  0  0  0  0  0  0  0
   13.0754   -9.3446   22.4317 C   0  0  0  0  0  0  0  0  0  0  0  0
   12.3131   -9.2605   23.5973 C   0  0  0  0  0  0  0  0  0  0  0  0
   11.4359  -10.2962   23.9388 C   0  0  0  0  0  0  0  0  0  0  0  0
   11.3718  -11.4351   23.1350 C   0  0  0  0  0  0  0  0  0  0  0  0
   12.1463  -11.5269   21.9754 C   0  0  0  0  0  0  0  0  0  0  0  0
   15.4506  -12.8081   20.0260 O   0  0  0  0  0  0  0  0  0  0  0  0
   19.6049  -14.3709   25.0016 C   0  0  0  0  0  0  0  0  0  0  0  0
   20.4613  -14.4705   23.7412 C   0  0  0  0  0  0  0  0  0  0  0  0
   21.9366  -14.6553   24.0656 C   0  0  0  0  0  0  0  0  0  0  0  0
   22.4289  -13.5302   24.9591 C   0  0  0  0  0  0  0  0  0  0  0  0
   21.5253  -13.2604   26.1674 C   0  0  0  0  0  0  0  0  0  0  0  0
   20.0443  -13.1152   25.7776 C   0  0  0  0  0  0  0  0  0  0  0  0
   12.4502   -7.8750   24.6151 Cl  0  0  0  0  0  0  0  0  0  0  0  0
   17.6348  -15.1380   25.3315 H   0  0  0  0  0  0  0  0  0  0  0  0
   17.6170  -13.4545   24.9615 H   0  0  0  0  0  0  0  0  0  0  0  0
   16.0117  -15.8217   22.6624 H   0  0  0  0  0  0  0  0  0  0  0  0
   17.1007  -18.4583   25.3641 H   0  0  0  0  0  0  0  0  0  0  0  0
   15.5754  -17.6194   24.9868 H   0  0  0  0  0  0  0  0  0  0  0  0
   16.8862  -16.7899   25.8631 H   0  0  0  0  0  0  0  0  0  0  0  0
   18.6310  -15.0684   22.6593 H   0  0  0  0  0  0  0  0  0  0  0  0
   18.7841  -14.5861   20.2922 H   0  0  0  0  0  0  0  0  0  0  0  0
   19.8493  -13.8947   21.4803 H   0  0  0  0  0  0  0  0  0  0  0  0
   20.0733  -13.0598   18.9328 H   0  0  0  0  0  0  0  0  0  0  0  0
   20.2586  -11.9040   20.2748 H   0  0  0  0  0  0  0  0  0  0  0  0
   17.7105  -12.5110   18.6799 H   0  0  0  0  0  0  0  0  0  0  0  0
   18.4541  -10.9192   18.9477 H   0  0  0  0  0  0  0  0  0  0  0  0
   17.7932  -10.8994   21.3134 H   0  0  0  0  0  0  0  0  0  0  0  0
   15.7596   -9.7485   20.9788 H   0  0  0  0  0  0  0  0  0  0  0  0
   13.6073  -11.5061   19.8304 H   0  0  0  0  0  0  0  0  0  0  0  0
   13.6423   -9.7481   19.7035 H   0  0  0  0  0  0  0  0  0  0  0  0
   13.7060   -8.5077   22.1369 H   0  0  0  0  0  0  0  0  0  0  0  0
   10.7968  -10.2048   24.8141 H   0  0  0  0  0  0  0  0  0  0  0  0
   10.7207  -12.2683   23.4131 H   0  0  0  0  0  0  0  0  0  0  0  0
   12.0671  -12.4062   21.3410 H   0  0  0  0  0  0  0  0  0  0  0  0
   19.8229  -15.2398   25.6376 H   0  0  0  0  0  0  0  0  0  0  0  0
   20.3419  -13.5533   23.1736 H   0  0  0  0  0  0  0  0  0  0  0  0
   20.2197  -15.3506   23.1553 H   0  0  0  0  0  0  0  0  0  0  0  0
   22.5138  -14.6841   23.1313 H   0  0  0  0  0  0  0  0  0  0  0  0
   22.0632  -15.6245   24.5627 H   0  0  0  0  0  0  0  0  0  0  0  0
   22.4943  -12.6155   24.3604 H   0  0  0  0  0  0  0  0  0  0  0  0
   23.4358  -13.7807   25.3070 H   0  0  0  0  0  0  0  0  0  0  0  0
   21.8709  -12.3504   26.6727 H   0  0  0  0  0  0  0  0  0  0  0  0
   21.6265  -14.0923   26.8773 H   0  0  0  0  0  0  0  0  0  0  0  0
   19.4348  -12.9756   26.6788 H   0  0  0  0  0  0  0  0  0  0  0  0
   19.9197  -12.2196   25.1513 H   0  0  0  0  0  0  0  0  0  0  0  0
  1  6  1  0  0  0  0
  1 24  1  0  0  0  0
  1 31  1  0  0  0  0
  1 32  1  0  0  0  0
  2  3  1  0  0  0  0
  2  6  1  0  0  0  0
  2 33  1  0  0  0  0
  3  4  1  0  0  0  0
  3  5  2  0  0  0  0
  4 34  1  0  0  0  0
  4 35  1  0  0  0  0
  4 36  1  0  0  0  0
  6  7  1  0  0  0  0
  6 37  1  6  0  0  0
  7  8  2  0  0  0  0
  7  9  1  0  0  0  0
  9 10  1  0  0  0  0
  9 13  1  0  0  0  0
 10 11  1  0  0  0  0
 10 38  1  0  0  0  0
 10 39  1  0  0  0  0
 11 12  1  0  0  0  0
 11 40  1  0  0  0  0
 11 41  1  0  0  0  0
 12 13  1  0  0  0  0
 12 42  1  0  0  0  0
 12 43  1  0  0  0  0
 13 14  1  0  0  0  0
 13 44  1  1  0  0  0
 14 15  1  0  0  0  0
 14 23  2  0  0  0  0
 15 16  1  0  0  0  0
 15 45  1  0  0  0  0
 16 17  1  0  0  0  0
 16 46  1  0  0  0  0
 16 47  1  0  0  0  0
 17 18  2  0  0  0  0
 17 22  1  0  0  0  0
 18 19  1  0  0  0  0
 18 48  1  0  0  0  0
 19 20  2  0  0  0  0
 19 30  1  0  0  0  0
 20 21  1  0  0  0  0
 20 49  1  0  0  0  0
 21 22  2  0  0  0  0
 21 50  1  0  0  0  0
 22 51  1  0  0  0  0
 24 25  1  0  0  0  0
 24 29  1  0  0  0  0
 24 52  1  0  0  0  0
 25 26  1  0  0  0  0
 25 53  1  0  0  0  0
 25 54  1  0  0  0  0
 26 27  1  0  0  0  0
 26 55  1  0  0  0  0
 26 56  1  0  0  0  0
 27 28  1  0  0  0  0
 27 57  1  0  0  0  0
 27 58  1  0  0  0  0
 28 29  1  0  0  0  0
 28 59  1  0  0  0  0
 28 60  1  0  0  0  0
 29 61  1  0  0  0  0
 29 62  1  0  0  0  0
M  END
$$$$
