965
 OpenBabel04091913133D

 72 75  0  0  1  0  0  0  0  0999 V2000
   50.0765   16.3744   -5.4153 O   0  0  0  0  0  0  0  0  0  0  0  0
   50.4159   16.3288   -4.2412 C   0  0  0  0  0  0  0  0  0  0  0  0
   51.5430   16.5769   -3.6684 O   0  0  0  0  0  0  0  0  0  0  0  0
   49.3626   15.8996   -3.1886 C   0  0  0  0  0  0  0  0  0  0  0  0
   47.9910   16.4338   -3.4962 C   0  0  0  0  0  0  0  0  0  0  0  0
   47.7490   17.8072   -3.4479 C   0  0  0  0  0  0  0  0  0  0  0  0
   46.4903   18.2971   -3.7652 C   0  0  0  0  0  0  0  0  0  0  0  0
   45.4506   17.4179   -4.1034 C   0  0  0  0  0  0  0  0  0  0  0  0
   45.6750   16.0439   -4.1585 C   0  0  0  0  0  0  0  0  0  0  0  0
   44.7601   15.0839   -4.4749 O   0  0  0  0  0  0  0  0  0  0  0  0
   43.4500   15.4378   -4.8999 C   0  0  0  0  0  0  0  0  0  0  0  0
   42.9282   14.2742   -5.7498 C   0  0  0  0  0  0  0  0  0  0  0  0
   41.8533   14.6863   -6.7434 C   0  0  0  0  0  0  0  0  0  0  0  0
   40.5374   15.0410   -6.0737 N   0  3  2  0  0  0  0  0  0  0  0  0
   40.0718   14.1802   -4.9301 C   0  0  0  0  0  0  0  0  0  0  0  0
   39.0014   14.8002   -4.1037 C   0  0  0  0  0  0  0  0  0  0  0  0
   39.2854   16.0153   -3.4341 C   0  0  0  0  0  0  0  0  0  0  0  0
   38.3190   16.6274   -2.6507 C   0  0  0  0  0  0  0  0  0  0  0  0
   37.0658   16.0463   -2.5119 C   0  0  0  0  0  0  0  0  0  0  0  0
   36.7583   14.8495   -3.1735 C   0  0  0  0  0  0  0  0  0  0  0  0
   37.7294   14.2239   -3.9586 C   0  0  0  0  0  0  0  0  0  0  0  0
   37.3792   12.7200   -4.7608 Cl  0  0  0  0  0  0  0  0  0  0  0  0
   35.4109   14.2231   -2.9922 C   0  0  0  0  0  0  0  0  0  0  0  0
   35.5312   12.9307   -2.6007 F   0  0  0  0  0  0  0  0  0  0  0  0
   34.6389   14.8284   -2.0506 F   0  0  0  0  0  0  0  0  0  0  0  0
   34.6791   14.2374   -4.1387 F   0  0  0  0  0  0  0  0  0  0  0  0
   39.5273   15.7527   -6.9509 C   0  0  0  0  0  0  0  0  0  0  0  0
   40.0960   17.1335   -7.3561 C   0  0  0  0  0  0  0  0  0  0  0  0
   40.0152   18.1005   -6.1985 C   0  0  0  0  0  0  0  0  0  0  0  0
   41.1810   18.6191   -5.6543 C   0  0  0  0  0  0  0  0  0  0  0  0
   41.0971   19.5244   -4.6021 C   0  0  0  0  0  0  0  0  0  0  0  0
   39.8550   19.9140   -4.1079 C   0  0  0  0  0  0  0  0  0  0  0  0
   38.6874   19.4102   -4.6847 C   0  0  0  0  0  0  0  0  0  0  0  0
   38.7661   18.5170   -5.7213 C   0  0  0  0  0  0  0  0  0  0  0  0
   39.4530   17.6810   -8.5822 C   0  0  0  0  0  0  0  0  0  0  0  0
   40.2166   18.4885   -9.4219 C   0  0  0  0  0  0  0  0  0  0  0  0
   39.6523   19.0147  -10.5791 C   0  0  0  0  0  0  0  0  0  0  0  0
   38.3136   18.7663  -10.8639 C   0  0  0  0  0  0  0  0  0  0  0  0
   37.5416   17.9889  -10.0069 C   0  0  0  0  0  0  0  0  0  0  0  0
   38.1086   17.4363   -8.8753 C   0  0  0  0  0  0  0  0  0  0  0  0
   46.9471   15.5587   -3.8471 C   0  0  0  0  0  0  0  0  0  0  0  0
   49.6454   16.2524   -2.1837 H   0  0  0  0  0  0  0  0  0  0  0  0
   49.3304   14.8038   -3.1438 H   0  0  0  0  0  0  0  0  0  0  0  0
   48.5598   18.4869   -3.1747 H   0  0  0  0  0  0  0  0  0  0  0  0
   46.3238   19.3730   -3.7460 H   0  0  0  0  0  0  0  0  0  0  0  0
   44.4781   17.8335   -4.2986 H   0  0  0  0  0  0  0  0  0  0  0  0
   43.4359   16.3535   -5.4969 H   0  0  0  0  0  0  0  0  0  0  0  0
   42.8000   15.5593   -4.0241 H   0  0  0  0  0  0  0  0  0  0  0  0
   42.5510   13.4760   -5.1097 H   0  0  0  0  0  0  0  0  0  0  0  0
   43.7446   13.8447   -6.3271 H   0  0  0  0  0  0  0  0  0  0  0  0
   41.6871   13.9247   -7.5183 H   0  0  0  0  0  0  0  0  0  0  0  0
   42.1896   15.5968   -7.2094 H   0  0  0  0  0  0  0  0  0  0  0  0
   40.9284   14.0901   -4.2592 H   0  0  0  0  0  0  0  0  0  0  0  0
   39.7952   13.1837   -5.2852 H   0  0  0  0  0  0  0  0  0  0  0  0
   40.2626   16.4881   -3.5215 H   0  0  0  0  0  0  0  0  0  0  0  0
   38.5401   17.5661   -2.1491 H   0  0  0  0  0  0  0  0  0  0  0  0
   36.3251   16.5225   -1.8719 H   0  0  0  0  0  0  0  0  0  0  0  0
   38.6357   15.8906   -6.3331 H   0  0  0  0  0  0  0  0  0  0  0  0
   39.2742   15.1325   -7.8230 H   0  0  0  0  0  0  0  0  0  0  0  0
   41.1534   17.0260   -7.6107 H   0  0  0  0  0  0  0  0  0  0  0  0
   42.1542   18.3320   -6.0416 H   0  0  0  0  0  0  0  0  0  0  0  0
   42.0037   19.9353   -4.1731 H   0  0  0  0  0  0  0  0  0  0  0  0
   39.8016   20.6291   -3.2835 H   0  0  0  0  0  0  0  0  0  0  0  0
   37.7186   19.7207   -4.2796 H   0  0  0  0  0  0  0  0  0  0  0  0
   37.8458   18.1399   -6.1616 H   0  0  0  0  0  0  0  0  0  0  0  0
   41.2563   18.7069   -9.1844 H   0  0  0  0  0  0  0  0  0  0  0  0
   40.2595   19.6100  -11.2438 H   0  0  0  0  0  0  0  0  0  0  0  0
   37.8718   19.1875  -11.7630 H   0  0  0  0  0  0  0  0  0  0  0  0
   36.4930   17.8110  -10.2316 H   0  0  0  0  0  0  0  0  0  0  0  0
   37.4980   16.8229   -8.2169 H   0  0  0  0  0  0  0  0  0  0  0  0
   47.1486   14.4896   -3.8638 H   0  0  0  0  0  0  0  0  0  0  0  0
   40.8427   15.8107   -5.5419 H   0  0  0  0  0  0  0  0  0  0  0  0
  1  2  2  0  0  0  0
  2  3  1  0  0  0  0
  2  4  1  0  0  0  0
  4  5  1  0  0  0  0
  4 42  1  0  0  0  0
  4 43  1  0  0  0  0
  5  6  2  0  0  0  0
  5 41  1  0  0  0  0
  6  7  1  0  0  0  0
  6 44  1  0  0  0  0
  7  8  2  0  0  0  0
  7 45  1  0  0  0  0
  8  9  1  0  0  0  0
  8 46  1  0  0  0  0
  9 10  1  0  0  0  0
  9 41  2  0  0  0  0
 10 11  1  0  0  0  0
 11 12  1  0  0  0  0
 11 47  1  0  0  0  0
 11 48  1  0  0  0  0
 12 13  1  0  0  0  0
 12 49  1  0  0  0  0
 12 50  1  0  0  0  0
 13 14  1  0  0  0  0
 13 51  1  0  0  0  0
 13 52  1  0  0  0  0
 14 15  1  0  0  0  0
 14 27  1  0  0  0  0
 14 72  1  1  0  0  0
 15 16  1  0  0  0  0
 15 53  1  0  0  0  0
 15 54  1  0  0  0  0
 16 17  2  0  0  0  0
 16 21  1  0  0  0  0
 17 18  1  0  0  0  0
 17 55  1  0  0  0  0
 18 19  2  0  0  0  0
 18 56  1  0  0  0  0
 19 20  1  0  0  0  0
 19 57  1  0  0  0  0
 20 21  2  0  0  0  0
 20 23  1  0  0  0  0
 21 22  1  0  0  0  0
 23 24  1  0  0  0  0
 23 25  1  0  0  0  0
 23 26  1  0  0  0  0
 27 28  1  0  0  0  0
 27 58  1  0  0  0  0
 27 59  1  0  0  0  0
 28 29  1  0  0  0  0
 28 35  1  0  0  0  0
 28 60  1  0  0  0  0
 29 30  2  0  0  0  0
 29 34  1  0  0  0  0
 30 31  1  0  0  0  0
 30 61  1  0  0  0  0
 31 32  2  0  0  0  0
 31 62  1  0  0  0  0
 32 33  1  0  0  0  0
 32 63  1  0  0  0  0
 33 34  2  0  0  0  0
 33 64  1  0  0  0  0
 34 65  1  0  0  0  0
 35 36  2  0  0  0  0
 35 40  1  0  0  0  0
 36 37  1  0  0  0  0
 36 66  1  0  0  0  0
 37 38  2  0  0  0  0
 37 67  1  0  0  0  0
 38 39  1  0  0  0  0
 38 68  1  0  0  0  0
 39 40  2  0  0  0  0
 39 69  1  0  0  0  0
 40 70  1  0  0  0  0
 41 71  1  0  0  0  0
M  CHG  1  14   1
M  END
$$$$
