98P
 OpenBabel04091914543D

 55 57  0  0  1  0  0  0  0  0999 V2000
   16.3911  -15.4108   23.1882 N   0  3  0  0  0  0  0  0  0  0  0  0
   17.6565  -14.5970   23.3098 C   0  0  1  0  0  0  0  0  0  0  0  0
   17.3826  -13.2067   22.7207 C   0  0  0  0  0  0  0  0  0  0  0  0
   16.3149  -12.6572   23.0061 O   0  0  0  0  0  0  0  0  0  0  0  0
   18.0295  -14.4802   24.7892 C   0  0  0  0  0  0  0  0  0  0  0  0
   19.4429  -13.9908   24.9523 C   0  0  0  0  0  0  0  0  0  0  0  0
   20.5148  -14.7419   24.4443 C   0  0  0  0  0  0  0  0  0  0  0  0
   19.7041  -12.7687   25.5835 C   0  0  0  0  0  0  0  0  0  0  0  0
   21.8171  -14.2556   24.5223 C   0  0  0  0  0  0  0  0  0  0  0  0
   21.0130  -12.2996   25.6844 C   0  0  0  0  0  0  0  0  0  0  0  0
   22.0661  -13.0372   25.1466 C   0  0  0  0  0  0  0  0  0  0  0  0
   18.2722  -12.7133   21.7928 N   0  0  0  0  0  0  0  0  0  0  0  0
   18.0557  -11.4107   21.1591 C   0  0  2  0  0  0  0  0  0  0  0  0
   16.7017  -11.4514   20.4331 C   0  0  0  0  0  0  0  0  0  0  0  0
   16.3071  -12.4443   19.8227 O   0  0  0  0  0  0  0  0  0  0  0  0
   19.1843  -11.2642   20.1379 C   0  0  0  0  0  0  0  0  0  0  0  0
   20.2307  -12.2957   20.5313 C   0  0  0  0  0  0  0  0  0  0  0  0
   19.4617  -13.3629   21.2788 C   0  0  0  0  0  0  0  0  0  0  0  0
   14.5965  -10.2387   20.0434 C   0  0  0  0  0  0  0  0  0  0  0  0
   13.5835  -10.9592   20.9001 C   0  0  0  0  0  0  0  0  0  0  0  0
   13.3906  -12.3341   20.7244 C   0  0  0  0  0  0  0  0  0  0  0  0
   12.3613  -14.4782   21.2784 C   0  0  0  0  0  0  0  0  0  0  0  0
   11.7978  -12.4063   22.4524 C   0  0  0  0  0  0  0  0  0  0  0  0
   11.9501  -11.0472   22.6769 C   0  0  0  0  0  0  0  0  0  0  0  0
   12.8519  -10.3253   21.9041 C   0  0  0  0  0  0  0  0  0  0  0  0
   15.9228  -10.3306   20.6019 N   0  0  0  0  0  0  0  0  0  0  0  0
   12.5200  -13.0286   21.4965 N   0  3  0  0  0  0  0  0  0  0  0  0
   13.0262   -8.6458   22.2411 Cl  0  0  0  0  0  0  0  0  0  0  0  0
   16.4996  -16.3501   23.5897 H   0  0  0  0  0  0  0  0  0  0  0  0
   15.6326  -14.9081   23.6680 H   0  0  0  0  0  0  0  0  0  0  0  0
   18.3854  -15.1552   22.7234 H   0  0  0  0  0  0  0  0  0  0  0  0
   17.9432  -15.4529   25.2885 H   0  0  0  0  0  0  0  0  0  0  0  0
   17.3336  -13.8057   25.3076 H   0  0  0  0  0  0  0  0  0  0  0  0
   20.3566  -15.7002   23.9542 H   0  0  0  0  0  0  0  0  0  0  0  0
   18.9027  -12.1673   26.0099 H   0  0  0  0  0  0  0  0  0  0  0  0
   22.6420  -14.8271   24.1016 H   0  0  0  0  0  0  0  0  0  0  0  0
   21.2193  -11.3580   26.1900 H   0  0  0  0  0  0  0  0  0  0  0  0
   23.0860  -12.6682   25.2279 H   0  0  0  0  0  0  0  0  0  0  0  0
   18.0841  -10.6391   21.9350 H   0  0  0  0  0  0  0  0  0  0  0  0
   19.6043  -10.2527   20.1439 H   0  0  0  0  0  0  0  0  0  0  0  0
   18.8382  -11.4621   19.1164 H   0  0  0  0  0  0  0  0  0  0  0  0
   20.9789  -11.8425   21.1923 H   0  0  0  0  0  0  0  0  0  0  0  0
   20.7588  -12.7108   19.6665 H   0  0  0  0  0  0  0  0  0  0  0  0
   19.1487  -14.1846   20.6249 H   0  0  0  0  0  0  0  0  0  0  0  0
   20.0606  -13.7733   22.0867 H   0  0  0  0  0  0  0  0  0  0  0  0
   14.3575   -9.1777   19.9296 H   0  0  0  0  0  0  0  0  0  0  0  0
   14.6048  -10.6642   19.0329 H   0  0  0  0  0  0  0  0  0  0  0  0
   13.9353  -12.9021   19.9741 H   0  0  0  0  0  0  0  0  0  0  0  0
   11.6281  -14.8859   21.9787 H   0  0  0  0  0  0  0  0  0  0  0  0
   13.3336  -14.9478   21.4598 H   0  0  0  0  0  0  0  0  0  0  0  0
   12.0348  -14.6394   20.2490 H   0  0  0  0  0  0  0  0  0  0  0  0
   11.1025  -13.0027   23.0371 H   0  0  0  0  0  0  0  0  0  0  0  0
   11.3654  -10.5546   23.4515 H   0  0  0  0  0  0  0  0  0  0  0  0
   16.2277   -9.5923   21.2319 H   0  0  0  0  0  0  0  0  0  0  0  0
   16.1453  -15.4980   22.1955 H   0  0  0  0  0  0  0  0  0  0  0  0
  1  2  1  0  0  0  0
  1 29  1  0  0  0  0
  1 30  1  0  0  0  0
  1 55  1  0  0  0  0
  2  3  1  0  0  0  0
  2  5  1  0  0  0  0
  2 31  1  6  0  0  0
  3  4  2  0  0  0  0
  3 12  1  0  0  0  0
  5  6  1  0  0  0  0
  5 32  1  0  0  0  0
  5 33  1  0  0  0  0
  6  7  2  0  0  0  0
  6  8  1  0  0  0  0
  7  9  1  0  0  0  0
  7 34  1  0  0  0  0
  8 10  2  0  0  0  0
  8 35  1  0  0  0  0
  9 11  2  0  0  0  0
  9 36  1  0  0  0  0
 10 11  1  0  0  0  0
 10 37  1  0  0  0  0
 11 38  1  0  0  0  0
 12 13  1  0  0  0  0
 12 18  1  0  0  0  0
 13 14  1  0  0  0  0
 13 16  1  0  0  0  0
 13 39  1  1  0  0  0
 14 15  2  0  0  0  0
 14 26  1  0  0  0  0
 16 17  1  0  0  0  0
 16 40  1  0  0  0  0
 16 41  1  0  0  0  0
 17 18  1  0  0  0  0
 17 42  1  0  0  0  0
 17 43  1  0  0  0  0
 18 44  1  0  0  0  0
 18 45  1  0  0  0  0
 19 20  1  0  0  0  0
 19 26  1  0  0  0  0
 19 46  1  0  0  0  0
 19 47  1  0  0  0  0
 20 21  2  0  0  0  0
 20 25  1  0  0  0  0
 21 27  1  0  0  0  0
 21 48  1  0  0  0  0
 22 27  1  0  0  0  0
 22 49  1  0  0  0  0
 22 50  1  0  0  0  0
 22 51  1  0  0  0  0
 23 24  1  0  0  0  0
 23 27  2  0  0  0  0
 23 52  1  0  0  0  0
 24 25  2  0  0  0  0
 24 53  1  0  0  0  0
 25 28  1  0  0  0  0
 26 54  1  0  0  0  0
M  CHG  2   1   1  27   1
M  END
$$$$
