9D9
 OpenBabel04091912333D

 35 36  0  0  0  0  0  0  0  0999 V2000
   32.4003  -14.8915   24.9152 O   0  0  0  0  0  0  0  0  0  0  0  0
   31.2781  -14.1541   24.1715 P   0  0  0  0  0  0  0  0  0  0  0  0
   30.0562  -13.8869   25.0610 O   0  0  0  0  0  0  0  0  0  0  0  0
   30.9415  -14.7394   22.7986 O   0  0  0  0  0  0  0  0  0  0  0  0
   32.0010  -12.4320   23.8577 C   0  0  0  0  0  0  0  0  0  0  0  0
   32.9213  -12.5499   22.8658 F   0  0  0  0  0  0  0  0  0  0  0  0
   30.9686  -11.6814   23.3865 F   0  0  0  0  0  0  0  0  0  0  0  0
   32.6085  -11.8249   25.0984 C   0  0  0  0  0  0  0  0  0  0  0  0
   32.8057  -10.3188   24.9676 C   0  0  0  0  0  0  0  0  0  0  0  0
   33.3966   -9.7012   26.2338 C   0  0  0  0  0  0  0  0  0  0  0  0
   32.6332  -10.1234   27.4905 C   0  0  0  0  0  0  0  0  0  0  0  0
   33.0324   -9.3270   28.6790 C   0  0  0  0  0  0  0  0  0  0  0  0
   34.1090   -9.5527   29.5214 C   0  0  0  0  0  0  0  0  0  0  0  0
   34.1051   -8.5853   30.4988 N   0  3  0  0  0  0  0  0  0  0  0  0
   33.0492   -7.7421   30.2861 C   0  0  0  0  0  0  0  0  0  0  0  0
   32.6342   -6.5900   31.0247 C   0  0  0  0  0  0  0  0  0  0  0  0
   33.2086   -6.1505   32.0203 O   0  0  0  0  0  0  0  0  0  0  0  0
   31.4982   -6.0058   30.4957 N   0  3  0  0  0  0  0  0  0  0  0  0
   30.8219   -6.4750   29.3989 C   0  0  0  0  0  0  0  0  0  0  0  0
   29.7674   -5.8100   29.0777 N   0  0  0  0  0  0  0  0  0  0  0  0
   31.2733   -7.5768   28.7228 N   0  3  0  0  0  0  0  0  0  0  0  0
   32.3778   -8.1927   29.1801 C   0  0  0  0  0  0  0  0  0  0  0  0
   33.5695  -12.3062   25.3153 H   0  0  0  0  0  0  0  0  0  0  0  0
   31.9377  -12.0436   25.9344 H   0  0  0  0  0  0  0  0  0  0  0  0
   31.8391   -9.8412   24.7627 H   0  0  0  0  0  0  0  0  0  0  0  0
   33.4581  -10.0944   24.1161 H   0  0  0  0  0  0  0  0  0  0  0  0
   33.3831   -8.6082   26.1259 H   0  0  0  0  0  0  0  0  0  0  0  0
   34.4502   -9.9904   26.3296 H   0  0  0  0  0  0  0  0  0  0  0  0
   32.8044  -11.1824   27.7133 H   0  0  0  0  0  0  0  0  0  0  0  0
   31.5552  -10.0057   27.3217 H   0  0  0  0  0  0  0  0  0  0  0  0
   34.8642  -10.3291   29.5003 H   0  0  0  0  0  0  0  0  0  0  0  0
   34.7732   -8.5122   31.2559 H   0  0  0  0  0  0  0  0  0  0  0  0
   31.1204   -5.1926   30.9472 H   0  0  0  0  0  0  0  0  0  0  0  0
   29.3411   -6.2545   28.2562 H   0  0  0  0  0  0  0  0  0  0  0  0
   30.7625   -7.9321   27.9237 H   0  0  0  0  0  0  0  0  0  0  0  0
  1  2  2  0  0  0  0
  2  3  1  0  0  0  0
  2  4  1  0  0  0  0
  2  5  1  0  0  0  0
  5  6  1  0  0  0  0
  5  7  1  0  0  0  0
  5  8  1  0  0  0  0
  8  9  1  0  0  0  0
  8 23  1  0  0  0  0
  8 24  1  0  0  0  0
  9 10  1  0  0  0  0
  9 25  1  0  0  0  0
  9 26  1  0  0  0  0
 10 11  1  0  0  0  0
 10 27  1  0  0  0  0
 10 28  1  0  0  0  0
 11 12  1  0  0  0  0
 11 29  1  0  0  0  0
 11 30  1  0  0  0  0
 12 13  2  0  0  0  0
 12 22  1  0  0  0  0
 13 14  1  0  0  0  0
 13 31  1  0  0  0  0
 14 15  2  0  0  0  0
 14 32  1  0  0  0  0
 15 16  1  0  0  0  0
 15 22  1  0  0  0  0
 16 17  2  0  0  0  0
 16 18  1  0  0  0  0
 18 19  1  0  0  0  0
 18 33  1  0  0  0  0
 19 20  2  0  0  0  0
 19 21  1  0  0  0  0
 20 34  1  0  0  0  0
 21 22  2  0  0  0  0
 21 35  1  0  0  0  0
M  CHG  3  14   1  18   1  21   1
M  END
$$$$
