9JZ
 OpenBabel04091912563D

 76 79  0  0  1  0  0  0  0  0999 V2000
    9.7699   12.4677  -19.6537 O   0  0  0  0  0  0  0  0  0  0  0  0
    8.7542   12.3801  -20.3455 C   0  0  0  0  0  0  0  0  0  0  0  0
    8.2501   13.5969  -21.1342 C   0  0  2  0  0  0  0  0  0  0  0  0
    8.7515   13.5321  -22.5768 C   0  0  0  0  0  0  0  0  0  0  0  0
   10.2792   13.6618  -22.7047 C   0  0  0  0  0  0  0  0  0  0  0  0
   10.7243   13.5244  -24.1578 C   0  0  0  0  0  0  0  0  0  0  0  0
    9.9773   14.4812  -25.0806 C   0  0  0  0  0  0  0  0  0  0  0  0
    8.4663   14.3650  -24.9163 C   0  0  0  0  0  0  0  0  0  0  0  0
    8.0552   14.5675  -23.4647 C   0  0  0  0  0  0  0  0  0  0  0  0
    8.6737   14.8108  -20.4661 N   0  0  0  0  0  0  0  0  0  0  0  0
    7.8289   15.8783  -20.3267 C   0  0  0  0  0  0  0  0  0  0  0  0
    6.6772   15.9363  -20.7212 O   0  0  0  0  0  0  0  0  0  0  0  0
    8.4754   17.0655  -19.6349 C   0  0  2  0  0  0  0  0  0  0  0  0
    8.4089   16.8657  -18.1305 C   0  0  0  0  0  0  0  0  0  0  0  0
    7.7523   18.3304  -19.9946 N   0  3  0  0  0  0  0  0  0  0  0  0
    7.9325   18.8103  -21.3886 C   0  0  0  0  0  0  0  0  0  0  0  0
    8.0781   11.1990  -20.5517 N   0  0  0  0  0  0  0  0  0  0  0  0
    6.8341   11.0139  -21.2860 C   0  0  0  0  0  0  0  0  0  0  0  0
    6.2837    9.6904  -20.8084 C   0  0  0  0  0  0  0  0  0  0  0  0
    7.5343    8.9118  -20.4260 C   0  0  2  0  0  0  0  0  0  0  0  0
    7.2612    7.7803  -19.4570 C   0  0  0  0  0  0  0  0  0  0  0  0
    8.4840    9.9768  -19.8626 C   0  0  1  0  0  0  0  0  0  0  0  0
    9.9113    9.5441  -20.1666 C   0  0  0  0  0  0  0  0  0  0  0  0
   10.5128    8.8635  -19.3394 O   0  0  0  0  0  0  0  0  0  0  0  0
   10.3246    9.7612  -21.4646 N   0  0  0  0  0  0  0  0  0  0  0  0
   11.5300    9.2594  -21.9906 C   0  0  0  0  0  0  0  0  0  0  0  0
   12.6567    9.1898  -21.1513 C   0  0  0  0  0  0  0  0  0  0  0  0
   13.8723    8.7121  -21.6234 C   0  0  0  0  0  0  0  0  0  0  0  0
   13.9630    8.2861  -22.9412 C   0  0  0  0  0  0  0  0  0  0  0  0
   12.8420    8.3403  -23.7803 C   0  0  0  0  0  0  0  0  0  0  0  0
   11.5994    8.8491  -23.3371 C   0  0  0  0  0  0  0  0  0  0  0  0
   10.4478    8.8735  -24.2555 C   0  0  0  0  0  0  0  0  0  0  0  0
   10.4170    7.9580  -25.2456 N   0  0  0  0  0  0  0  0  0  0  0  0
    9.3734    8.0083  -26.0873 C   0  0  0  0  0  0  0  0  0  0  0  0
    8.3737    8.9364  -25.9916 C   0  0  0  0  0  0  0  0  0  0  0  0
    8.4882    9.8246  -24.9564 C   0  0  0  0  0  0  0  0  0  0  0  0
    9.4902    9.8185  -24.0611 N   0  0  0  0  0  0  0  0  0  0  0  0
    7.1554   13.5770  -21.1091 H   0  0  0  0  0  0  0  0  0  0  0  0
    8.4885   12.5448  -22.9702 H   0  0  0  0  0  0  0  0  0  0  0  0
   10.7734   12.8840  -22.1125 H   0  0  0  0  0  0  0  0  0  0  0  0
   10.6180   14.6313  -22.3183 H   0  0  0  0  0  0  0  0  0  0  0  0
   10.5494   12.4947  -24.4904 H   0  0  0  0  0  0  0  0  0  0  0  0
   11.8013   13.7104  -24.2302 H   0  0  0  0  0  0  0  0  0  0  0  0
   10.2485   14.2721  -26.1208 H   0  0  0  0  0  0  0  0  0  0  0  0
   10.2864   15.5099  -24.8602 H   0  0  0  0  0  0  0  0  0  0  0  0
    8.1394   13.3715  -25.2473 H   0  0  0  0  0  0  0  0  0  0  0  0
    7.9653   15.1044  -25.5484 H   0  0  0  0  0  0  0  0  0  0  0  0
    8.3192   15.5870  -23.1532 H   0  0  0  0  0  0  0  0  0  0  0  0
    6.9681   14.4656  -23.3735 H   0  0  0  0  0  0  0  0  0  0  0  0
    9.6262   14.8189  -20.1060 H   0  0  0  0  0  0  0  0  0  0  0  0
    9.5157   17.1767  -19.9586 H   0  0  0  0  0  0  0  0  0  0  0  0
    8.8365   17.7214  -17.6059 H   0  0  0  0  0  0  0  0  0  0  0  0
    8.9728   15.9708  -17.8417 H   0  0  0  0  0  0  0  0  0  0  0  0
    7.3754   16.7253  -17.7875 H   0  0  0  0  0  0  0  0  0  0  0  0
    6.7456   18.1342  -19.8650 H   0  0  0  0  0  0  0  0  0  0  0  0
    7.3413   19.7239  -21.4797 H   0  0  0  0  0  0  0  0  0  0  0  0
    7.5704   18.0537  -22.0896 H   0  0  0  0  0  0  0  0  0  0  0  0
    8.9918   19.0238  -21.5422 H   0  0  0  0  0  0  0  0  0  0  0  0
    7.0710   10.9829  -22.3537 H   0  0  0  0  0  0  0  0  0  0  0  0
    6.1255   11.8288  -21.1059 H   0  0  0  0  0  0  0  0  0  0  0  0
    5.7153    9.1854  -21.5946 H   0  0  0  0  0  0  0  0  0  0  0  0
    5.6280    9.8446  -19.9437 H   0  0  0  0  0  0  0  0  0  0  0  0
    7.9565    8.4787  -21.3425 H   0  0  0  0  0  0  0  0  0  0  0  0
    8.1923    7.2619  -19.2096 H   0  0  0  0  0  0  0  0  0  0  0  0
    6.5774    7.0566  -19.9099 H   0  0  0  0  0  0  0  0  0  0  0  0
    6.8145    8.1475  -18.5277 H   0  0  0  0  0  0  0  0  0  0  0  0
    8.3940   10.1210  -18.7788 H   0  0  0  0  0  0  0  0  0  0  0  0
    9.6684   10.1574  -22.1378 H   0  0  0  0  0  0  0  0  0  0  0  0
   12.6042    9.5318  -20.1198 H   0  0  0  0  0  0  0  0  0  0  0  0
   14.7327    8.6723  -20.9664 H   0  0  0  0  0  0  0  0  0  0  0  0
   14.9053    7.9012  -23.3207 H   0  0  0  0  0  0  0  0  0  0  0  0
   12.9375    7.9778  -24.8004 H   0  0  0  0  0  0  0  0  0  0  0  0
    9.3648    7.2597  -26.8715 H   0  0  0  0  0  0  0  0  0  0  0  0
    7.5482    8.9554  -26.6901 H   0  0  0  0  0  0  0  0  0  0  0  0
    7.7496   10.6109  -24.8015 H   0  0  0  0  0  0  0  0  0  0  0  0
    8.0311   19.0664  -19.3427 H   0  0  0  0  0  0  0  0  0  0  0  0
  1  2  2  0  0  0  0
  2  3  1  0  0  0  0
  2 17  1  0  0  0  0
  3  4  1  0  0  0  0
  3 10  1  0  0  0  0
  3 38  1  6  0  0  0
  4  5  1  0  0  0  0
  4  9  1  0  0  0  0
  4 39  1  0  0  0  0
  5  6  1  0  0  0  0
  5 40  1  0  0  0  0
  5 41  1  0  0  0  0
  6  7  1  0  0  0  0
  6 42  1  0  0  0  0
  6 43  1  0  0  0  0
  7  8  1  0  0  0  0
  7 44  1  0  0  0  0
  7 45  1  0  0  0  0
  8  9  1  0  0  0  0
  8 46  1  0  0  0  0
  8 47  1  0  0  0  0
  9 48  1  0  0  0  0
  9 49  1  0  0  0  0
 10 11  1  0  0  0  0
 10 50  1  0  0  0  0
 11 12  2  0  0  0  0
 11 13  1  0  0  0  0
 13 14  1  0  0  0  0
 13 15  1  0  0  0  0
 13 51  1  6  0  0  0
 14 52  1  0  0  0  0
 14 53  1  0  0  0  0
 14 54  1  0  0  0  0
 15 16  1  0  0  0  0
 15 55  1  0  0  0  0
 15 76  1  0  0  0  0
 16 56  1  0  0  0  0
 16 57  1  0  0  0  0
 16 58  1  0  0  0  0
 17 18  1  0  0  0  0
 17 22  1  0  0  0  0
 18 19  1  0  0  0  0
 18 59  1  0  0  0  0
 18 60  1  0  0  0  0
 19 20  1  0  0  0  0
 19 61  1  0  0  0  0
 19 62  1  0  0  0  0
 20 21  1  0  0  0  0
 20 22  1  0  0  0  0
 20 63  1  6  0  0  0
 21 64  1  0  0  0  0
 21 65  1  0  0  0  0
 21 66  1  0  0  0  0
 22 23  1  0  0  0  0
 22 67  1  1  0  0  0
 23 24  2  0  0  0  0
 23 25  1  0  0  0  0
 25 26  1  0  0  0  0
 25 68  1  0  0  0  0
 26 27  2  0  0  0  0
 26 31  1  0  0  0  0
 27 28  1  0  0  0  0
 27 69  1  0  0  0  0
 28 29  2  0  0  0  0
 28 70  1  0  0  0  0
 29 30  1  0  0  0  0
 29 71  1  0  0  0  0
 30 31  2  0  0  0  0
 30 72  1  0  0  0  0
 31 32  1  0  0  0  0
 32 33  2  0  0  0  0
 32 37  1  0  0  0  0
 33 34  1  0  0  0  0
 34 35  2  0  0  0  0
 34 73  1  0  0  0  0
 35 36  1  0  0  0  0
 35 74  1  0  0  0  0
 36 37  2  0  0  0  0
 36 75  1  0  0  0  0
M  CHG  1  15   1
M  END
$$$$
