9Y9
 OpenBabel04091915453D

 67 69  0  0  1  0  0  0  0  0999 V2000
   16.3475   18.5606    2.0582 C   0  0  0  0  0  0  0  0  0  0  0  0
   17.4384   18.3692    2.9034 C   0  0  0  0  0  0  0  0  0  0  0  0
   17.4326   18.7223    4.2658 C   0  0  0  0  0  0  0  0  0  0  0  0
   15.2152   19.1414    2.6118 C   0  0  0  0  0  0  0  0  0  0  0  0
   18.5524   17.8091    2.3998 F   0  0  0  0  0  0  0  0  0  0  0  0
   16.3026   19.3141    4.8439 C   0  0  0  0  0  0  0  0  0  0  0  0
   15.2055   19.5140    3.9777 C   0  0  0  0  0  0  0  0  0  0  0  0
   13.7062   20.2405    4.5860 S   0  0  0  0  0  0  0  0  0  0  0  0
   16.3314   19.6818    6.3324 C   0  0  0  0  0  0  0  0  0  0  0  0
   14.2203   21.6704    5.2580 N   0  0  0  0  0  0  0  0  0  0  0  0
   16.1995   21.1845    6.6740 C   0  0  1  0  0  0  0  0  0  0  0  0
   14.7667   21.6938    6.6086 C   0  0  0  0  0  0  0  0  0  0  0  0
   16.6680   21.5027    8.1058 C   0  0  0  0  0  0  0  0  0  0  0  0
   14.4623   22.8262    4.3952 C   0  0  0  0  0  0  0  0  0  0  0  0
   13.2337   19.3601    5.6421 O   0  0  0  0  0  0  0  0  0  0  0  0
   12.8524   20.5729    3.4817 O   0  0  0  0  0  0  0  0  0  0  0  0
   13.4597   23.9400    4.7283 C   0  0  2  0  0  0  0  0  0  0  0  0
   11.9715   23.6851    4.4523 C   0  0  1  0  0  0  0  0  0  0  0  0
   11.1742   24.7018    5.1651 N   0  0  0  0  0  0  0  0  0  0  0  0
   11.6076   23.6162    2.9668 C   0  0  0  0  0  0  0  0  0  0  0  0
   10.1396   23.3207    2.8168 C   0  0  0  0  0  0  0  0  0  0  0  0
    9.6727   22.0093    2.9996 C   0  0  0  0  0  0  0  0  0  0  0  0
    8.3089   21.7576    2.9017 C   0  0  0  0  0  0  0  0  0  0  0  0
    7.4204   22.8109    2.6497 C   0  0  0  0  0  0  0  0  0  0  0  0
    7.8891   24.1180    2.4752 C   0  0  0  0  0  0  0  0  0  0  0  0
    9.2506   24.3780    2.5593 C   0  0  0  0  0  0  0  0  0  0  0  0
   10.7002   24.4588    6.4365 C   0  0  0  0  0  0  0  0  0  0  0  0
   10.8951   23.4415    7.0558 O   0  0  0  0  0  0  0  0  0  0  0  0
   10.0187   25.5616    6.8657 O   0  0  0  0  0  0  0  0  0  0  0  0
   13.8777   25.1769    4.1407 O   0  0  0  0  0  0  0  0  0  0  0  0
    9.5372   25.6623    8.2317 C   0  0  0  0  0  0  0  0  0  0  0  0
   10.7052   25.6564    9.2170 C   0  0  0  0  0  0  0  0  0  0  0  0
    8.8267   27.0179    8.3131 C   0  0  0  0  0  0  0  0  0  0  0  0
    8.5178   24.5769    8.5534 C   0  0  0  0  0  0  0  0  0  0  0  0
   16.3897   18.2602    1.0091 H   0  0  0  0  0  0  0  0  0  0  0  0
   18.3284   18.5306    4.8532 H   0  0  0  0  0  0  0  0  0  0  0  0
   14.3372   19.3076    1.9899 H   0  0  0  0  0  0  0  0  0  0  0  0
   17.2958   19.3426    6.7485 H   0  0  0  0  0  0  0  0  0  0  0  0
   15.5418   19.1291    6.8561 H   0  0  0  0  0  0  0  0  0  0  0  0
   16.8123   21.7412    5.9614 H   0  0  0  0  0  0  0  0  0  0  0  0
   14.1305   21.0990    7.2776 H   0  0  0  0  0  0  0  0  0  0  0  0
   14.7503   22.7272    6.9806 H   0  0  0  0  0  0  0  0  0  0  0  0
   17.6953   21.1699    8.2677 H   0  0  0  0  0  0  0  0  0  0  0  0
   16.0190   21.0188    8.8517 H   0  0  0  0  0  0  0  0  0  0  0  0
   16.6256   22.5893    8.2853 H   0  0  0  0  0  0  0  0  0  0  0  0
   14.3920   22.5472    3.3410 H   0  0  0  0  0  0  0  0  0  0  0  0
   15.4826   23.2038    4.5671 H   0  0  0  0  0  0  0  0  0  0  0  0
   13.5339   24.0715    5.8069 H   0  0  0  0  0  0  0  0  0  0  0  0
   11.7184   22.7182    4.8843 H   0  0  0  0  0  0  0  0  0  0  0  0
   10.9893   25.6065    4.7622 H   0  0  0  0  0  0  0  0  0  0  0  0
   12.1686   22.8168    2.4674 H   0  0  0  0  0  0  0  0  0  0  0  0
   11.8264   24.5578    2.4502 H   0  0  0  0  0  0  0  0  0  0  0  0
   10.3705   21.1957    3.2162 H   0  0  0  0  0  0  0  0  0  0  0  0
    7.9405   20.7417    3.0207 H   0  0  0  0  0  0  0  0  0  0  0  0
    6.3521   22.6148    2.5888 H   0  0  0  0  0  0  0  0  0  0  0  0
    7.1903   24.9260    2.2713 H   0  0  0  0  0  0  0  0  0  0  0  0
    9.6287   25.3930    2.4301 H   0  0  0  0  0  0  0  0  0  0  0  0
   13.7076   25.1404    3.1865 H   0  0  0  0  0  0  0  0  0  0  0  0
   10.3519   25.7344   10.2525 H   0  0  0  0  0  0  0  0  0  0  0  0
   11.3749   26.5020    9.0119 H   0  0  0  0  0  0  0  0  0  0  0  0
   11.2894   24.7356    9.1192 H   0  0  0  0  0  0  0  0  0  0  0  0
    8.4217   27.1937    9.3163 H   0  0  0  0  0  0  0  0  0  0  0  0
    8.0022   27.0579    7.5880 H   0  0  0  0  0  0  0  0  0  0  0  0
    9.5281   27.8243    8.0668 H   0  0  0  0  0  0  0  0  0  0  0  0
    8.1645   24.6701    9.5871 H   0  0  0  0  0  0  0  0  0  0  0  0
    8.9588   23.5866    8.4235 H   0  0  0  0  0  0  0  0  0  0  0  0
    7.6570   24.6589    7.8778 H   0  0  0  0  0  0  0  0  0  0  0  0
  1  2  2  0  0  0  0
  1  4  1  0  0  0  0
  1 35  1  0  0  0  0
  2  3  1  0  0  0  0
  2  5  1  0  0  0  0
  3  6  2  0  0  0  0
  3 36  1  0  0  0  0
  4  7  2  0  0  0  0
  4 37  1  0  0  0  0
  6  7  1  0  0  0  0
  6  9  1  0  0  0  0
  7  8  1  0  0  0  0
  8 10  1  0  0  0  0
  8 15  2  0  0  0  0
  8 16  2  0  0  0  0
  9 11  1  0  0  0  0
  9 38  1  0  0  0  0
  9 39  1  0  0  0  0
 10 12  1  0  0  0  0
 10 14  1  0  0  0  0
 11 12  1  0  0  0  0
 11 13  1  0  0  0  0
 11 40  1  6  0  0  0
 12 41  1  0  0  0  0
 12 42  1  0  0  0  0
 13 43  1  0  0  0  0
 13 44  1  0  0  0  0
 13 45  1  0  0  0  0
 14 17  1  0  0  0  0
 14 46  1  0  0  0  0
 14 47  1  0  0  0  0
 17 18  1  0  0  0  0
 17 30  1  0  0  0  0
 17 48  1  1  0  0  0
 18 19  1  0  0  0  0
 18 20  1  0  0  0  0
 18 49  1  1  0  0  0
 19 27  1  0  0  0  0
 19 50  1  0  0  0  0
 20 21  1  0  0  0  0
 20 51  1  0  0  0  0
 20 52  1  0  0  0  0
 21 22  2  0  0  0  0
 21 26  1  0  0  0  0
 22 23  1  0  0  0  0
 22 53  1  0  0  0  0
 23 24  2  0  0  0  0
 23 54  1  0  0  0  0
 24 25  1  0  0  0  0
 24 55  1  0  0  0  0
 25 26  2  0  0  0  0
 25 56  1  0  0  0  0
 26 57  1  0  0  0  0
 27 28  2  0  0  0  0
 27 29  1  0  0  0  0
 29 31  1  0  0  0  0
 30 58  1  0  0  0  0
 31 32  1  0  0  0  0
 31 33  1  0  0  0  0
 31 34  1  0  0  0  0
 32 59  1  0  0  0  0
 32 60  1  0  0  0  0
 32 61  1  0  0  0  0
 33 62  1  0  0  0  0
 33 63  1  0  0  0  0
 33 64  1  0  0  0  0
 34 65  1  0  0  0  0
 34 66  1  0  0  0  0
 34 67  1  0  0  0  0
M  END
$$$$
