A02
 OpenBabel04091910513D

140142  0  0  1  0  0  0  0  0999 V2000
    8.1397    4.1003   17.1974 N   0  0  0  0  0  0  0  0  0  0  0  0
    7.3676    4.7696   16.3137 C   0  0  0  0  0  0  0  0  0  0  0  0
    7.6778    5.1732   15.0554 N   0  0  0  0  0  0  0  0  0  0  0  0
    8.9246    4.7966   14.7221 C   0  0  0  0  0  0  0  0  0  0  0  0
    9.8211    4.1205   15.5367 C   0  0  0  0  0  0  0  0  0  0  0  0
    9.3903    3.7700   16.8245 C   0  0  0  0  0  0  0  0  0  0  0  0
   10.2145    3.1294   17.7173 N   0  0  0  0  0  0  0  0  0  0  0  0
   11.0230    3.9352   14.8963 N   0  0  0  0  0  0  0  0  0  0  0  0
   10.8508    4.4539   13.7085 C   0  0  0  0  0  0  0  0  0  0  0  0
    9.6013    4.9976   13.5407 N   0  3  0  0  0  0  0  0  0  0  0  0
   11.5649    4.3486   10.5089 O   0  0  0  0  0  0  0  0  0  0  0  0
    8.4049    7.5940   10.2019 O   0  0  0  0  0  0  0  0  0  0  0  0
    9.7667    8.1151   12.4677 O   0  0  0  0  0  0  0  0  0  0  0  0
    8.9349    4.7999   11.2528 O   0  0  0  0  0  0  0  0  0  0  0  0
   10.8276    4.8165    9.6833 C   0  0  0  0  0  0  0  0  0  0  0  0
    9.6476    6.8977   10.3890 C   0  0  1  0  0  0  0  0  0  0  0  0
   10.0073    6.8443   11.8659 C   0  0  2  0  0  0  0  0  0  0  0  0
    9.4587    5.4270   10.0564 C   0  0  2  0  0  0  0  0  0  0  0  0
    9.1062    5.7102   12.3753 C   0  0  2  0  0  0  0  0  0  0  0  0
   16.3248    1.5540    5.8161 C   0  0  0  0  0  0  0  0  0  0  0  0
   15.9825    1.2934    4.6684 O   0  0  0  0  0  0  0  0  0  0  0  0
   15.7795    0.8189    7.0307 C   0  0  0  0  0  0  0  0  0  0  0  0
   14.2905    1.0880    7.2653 C   0  0  0  0  0  0  0  0  0  0  0  0
   13.9737    2.5801    7.2412 C   0  0  0  0  0  0  0  0  0  0  0  0
   12.5917    2.9263    7.7976 C   0  0  0  0  0  0  0  0  0  0  0  0
   12.4525    4.4481    7.8391 C   0  0  0  0  0  0  0  0  0  0  0  0
   11.1801    4.9342    8.3496 N   0  0  0  0  0  0  0  0  0  0  0  0
   17.2058    2.5755    6.1166 N   0  0  0  0  0  0  0  0  0  0  0  0
   17.7810    3.3975    5.0559 C   0  0  1  0  0  0  0  0  0  0  0  0
   16.6997    4.3058    4.4117 C   0  0  0  0  0  0  0  0  0  0  0  0
   15.7384    4.7444    5.0443 O   0  0  0  0  0  0  0  0  0  0  0  0
   18.9929    4.2063    5.5645 C   0  0  0  0  0  0  0  0  0  0  0  0
   18.6758    5.3396    6.5475 C   0  0  0  0  0  0  0  0  0  0  0  0
   19.9491    6.1029    6.9447 C   0  0  0  0  0  0  0  0  0  0  0  0
   19.7990    6.7556    8.3135 C   0  0  0  0  0  0  0  0  0  0  0  0
   20.2064    8.1775    8.2295 N   0  3  0  0  0  0  0  0  0  0  0  0
   16.3715   11.1278    1.3914 C   0  0  0  0  0  0  0  0  0  0  0  0
   17.5618   11.4026    1.3033 O   0  0  0  0  0  0  0  0  0  0  0  0
   15.6482   10.1531    0.4686 C   0  0  0  0  0  0  0  0  0  0  0  0
   16.3602    8.8053    0.4665 C   0  0  0  0  0  0  0  0  0  0  0  0
   15.6360    7.7707    1.3351 C   0  0  0  0  0  0  0  0  0  0  0  0
   16.6171    6.8739    2.0887 C   0  0  0  0  0  0  0  0  0  0  0  0
   16.0362    5.4883    2.3375 C   0  0  0  0  0  0  0  0  0  0  0  0
   16.9684    4.6866    3.1098 N   0  0  0  0  0  0  0  0  0  0  0  0
   15.5593   11.6636    2.3520 N   0  0  0  0  0  0  0  0  0  0  0  0
   16.0138   12.6462    3.3332 C   0  0  2  0  0  0  0  0  0  0  0  0
   14.9812   12.8520    4.4732 C   0  0  0  0  0  0  0  0  0  0  0  0
   13.5131   12.6088    4.1030 C   0  0  0  0  0  0  0  0  0  0  0  0
   12.9239   13.7478    3.2757 C   0  0  0  0  0  0  0  0  0  0  0  0
   12.7479   13.3213    1.8833 N   0  0  0  0  0  0  0  0  0  0  0  0
   12.4448   14.1389    0.8682 C   0  0  0  0  0  0  0  0  0  0  0  0
   12.2468   15.4409    1.0396 N   0  0  0  0  0  0  0  0  0  0  0  0
   12.3107   13.6189   -0.3547 N   0  0  0  0  0  0  0  0  0  0  0  0
   16.3599   13.9877    2.6378 C   0  0  0  0  0  0  0  0  0  0  0  0
   16.2016   14.2014    1.4384 O   0  0  0  0  0  0  0  0  0  0  0  0
   16.8157   14.9605    3.4883 N   0  0  0  0  0  0  0  0  0  0  0  0
   17.1518   16.3090    3.0403 C   0  0  2  0  0  0  0  0  0  0  0  0
   17.8291   17.0893    4.1782 C   0  0  0  0  0  0  0  0  0  0  0  0
   17.0826   16.9461    5.5169 C   0  0  0  0  0  0  0  0  0  0  0  0
   18.0473   16.7608    6.6710 C   0  0  0  0  0  0  0  0  0  0  0  0
   18.3734   18.0647    7.2214 N   0  0  0  0  0  0  0  0  0  0  0  0
   17.8398   18.5939    8.3305 C   0  0  0  0  0  0  0  0  0  0  0  0
   16.9724   17.9285    9.0964 N   0  0  0  0  0  0  0  0  0  0  0  0
   18.1832   19.8296    8.6646 N   0  0  0  0  0  0  0  0  0  0  0  0
   15.9125   17.0916    2.5638 C   0  0  0  0  0  0  0  0  0  0  0  0
   14.8008   16.9989    3.0824 O   0  0  0  0  0  0  0  0  0  0  0  0
   16.1614   17.9775    1.5511 N   0  0  0  0  0  0  0  0  0  0  0  0
    6.3625    5.0091   16.6632 H   0  0  0  0  0  0  0  0  0  0  0  0
   11.1420    2.8690   17.4092 H   0  0  0  0  0  0  0  0  0  0  0  0
    9.8492    2.8730   18.6190 H   0  0  0  0  0  0  0  0  0  0  0  0
   11.6093    4.4634   12.9340 H   0  0  0  0  0  0  0  0  0  0  0  0
    8.5053    8.4997   10.5464 H   0  0  0  0  0  0  0  0  0  0  0  0
    8.8000    8.2508   12.4723 H   0  0  0  0  0  0  0  0  0  0  0  0
   10.4051    7.4070    9.7788 H   0  0  0  0  0  0  0  0  0  0  0  0
   11.0701    6.5996   11.9828 H   0  0  0  0  0  0  0  0  0  0  0  0
    8.7522    5.2826    9.2362 H   0  0  0  0  0  0  0  0  0  0  0  0
    8.1177    6.1180   12.6298 H   0  0  0  0  0  0  0  0  0  0  0  0
   16.3445    1.1037    7.9262 H   0  0  0  0  0  0  0  0  0  0  0  0
   15.9457   -0.2530    6.8810 H   0  0  0  0  0  0  0  0  0  0  0  0
   14.0035    0.6615    8.2349 H   0  0  0  0  0  0  0  0  0  0  0  0
   13.6967    0.5753    6.4996 H   0  0  0  0  0  0  0  0  0  0  0  0
   14.0323    2.9367    6.2058 H   0  0  0  0  0  0  0  0  0  0  0  0
   14.7360    3.1166    7.8184 H   0  0  0  0  0  0  0  0  0  0  0  0
   12.4816    2.5052    8.8029 H   0  0  0  0  0  0  0  0  0  0  0  0
   11.8093    2.4857    7.1690 H   0  0  0  0  0  0  0  0  0  0  0  0
   12.5606    4.8508    6.8280 H   0  0  0  0  0  0  0  0  0  0  0  0
   13.2507    4.8721    8.4587 H   0  0  0  0  0  0  0  0  0  0  0  0
   10.4961    5.2672    7.6819 H   0  0  0  0  0  0  0  0  0  0  0  0
   17.3882    2.7869    7.0866 H   0  0  0  0  0  0  0  0  0  0  0  0
   18.1456    2.7109    4.2819 H   0  0  0  0  0  0  0  0  0  0  0  0
   19.5338    4.6316    4.7117 H   0  0  0  0  0  0  0  0  0  0  0  0
   19.6809    3.5135    6.0683 H   0  0  0  0  0  0  0  0  0  0  0  0
   18.1952    4.9260    7.4405 H   0  0  0  0  0  0  0  0  0  0  0  0
   17.9751    6.0518    6.0961 H   0  0  0  0  0  0  0  0  0  0  0  0
   20.1796    6.8446    6.1681 H   0  0  0  0  0  0  0  0  0  0  0  0
   20.8029    5.4153    6.9831 H   0  0  0  0  0  0  0  0  0  0  0  0
   20.4516    6.2845    9.0546 H   0  0  0  0  0  0  0  0  0  0  0  0
   18.7670    6.7515    8.6745 H   0  0  0  0  0  0  0  0  0  0  0  0
   20.1173    8.6383    9.1446 H   0  0  0  0  0  0  0  0  0  0  0  0
   21.1888    8.2682    7.9335 H   0  0  0  0  0  0  0  0  0  0  0  0
   15.6469   10.5890   -0.5360 H   0  0  0  0  0  0  0  0  0  0  0  0
   14.5951   10.0378    0.7590 H   0  0  0  0  0  0  0  0  0  0  0  0
   17.3967    8.9229    0.7986 H   0  0  0  0  0  0  0  0  0  0  0  0
   16.3976    8.4230   -0.5614 H   0  0  0  0  0  0  0  0  0  0  0  0
   14.9876    7.1646    0.6900 H   0  0  0  0  0  0  0  0  0  0  0  0
   14.9855    8.2643    2.0670 H   0  0  0  0  0  0  0  0  0  0  0  0
   16.8652    7.3452    3.0490 H   0  0  0  0  0  0  0  0  0  0  0  0
   17.5561    6.7722    1.5324 H   0  0  0  0  0  0  0  0  0  0  0  0
   15.8579    4.9805    1.3821 H   0  0  0  0  0  0  0  0  0  0  0  0
   15.0758    5.5684    2.8577 H   0  0  0  0  0  0  0  0  0  0  0  0
   17.7649    4.2834    2.6288 H   0  0  0  0  0  0  0  0  0  0  0  0
   14.6042   11.3734    2.3222 H   0  0  0  0  0  0  0  0  0  0  0  0
   16.9487   12.2695    3.7725 H   0  0  0  0  0  0  0  0  0  0  0  0
   15.0506   13.8606    4.9027 H   0  0  0  0  0  0  0  0  0  0  0  0
   15.2373   12.1722    5.2952 H   0  0  0  0  0  0  0  0  0  0  0  0
   12.9321   12.4809    5.0209 H   0  0  0  0  0  0  0  0  0  0  0  0
   13.3889   11.6543    3.5882 H   0  0  0  0  0  0  0  0  0  0  0  0
   13.5732   14.6274    3.3025 H   0  0  0  0  0  0  0  0  0  0  0  0
   11.9408   14.0127    3.6754 H   0  0  0  0  0  0  0  0  0  0  0  0
   12.8583   12.3518    1.6355 H   0  0  0  0  0  0  0  0  0  0  0  0
   12.0238   16.0469    0.2642 H   0  0  0  0  0  0  0  0  0  0  0  0
   12.4416   12.6357   -0.5414 H   0  0  0  0  0  0  0  0  0  0  0  0
   12.0815   14.2036   -1.1475 H   0  0  0  0  0  0  0  0  0  0  0  0
   16.8772   14.7236    4.4632 H   0  0  0  0  0  0  0  0  0  0  0  0
   17.8477   16.2190    2.2000 H   0  0  0  0  0  0  0  0  0  0  0  0
   17.9119   18.1564    3.9338 H   0  0  0  0  0  0  0  0  0  0  0  0
   18.8566   16.7149    4.2750 H   0  0  0  0  0  0  0  0  0  0  0  0
   16.3929   16.1025    5.5323 H   0  0  0  0  0  0  0  0  0  0  0  0
   16.4457   17.8228    5.6764 H   0  0  0  0  0  0  0  0  0  0  0  0
   18.9785   16.2696    6.3682 H   0  0  0  0  0  0  0  0  0  0  0  0
   17.6114   16.1131    7.4364 H   0  0  0  0  0  0  0  0  0  0  0  0
   19.0252   18.6449    6.7061 H   0  0  0  0  0  0  0  0  0  0  0  0
   16.5969   18.3422    9.9422 H   0  0  0  0  0  0  0  0  0  0  0  0
   18.8191   20.3743    8.0945 H   0  0  0  0  0  0  0  0  0  0  0  0
   17.8205   20.2779    9.4986 H   0  0  0  0  0  0  0  0  0  0  0  0
   15.4046   18.5277    1.1583 H   0  0  0  0  0  0  0  0  0  0  0  0
   17.0602   18.0295    1.0817 H   0  0  0  0  0  0  0  0  0  0  0  0
   19.6231    8.6889    7.5578 H   0  0  0  0  0  0  0  0  0  0  0  0
   12.3614   15.8783    1.9483 H   0  0  0  0  0  0  0  0  0  0  0  0
   16.6679   16.9905    8.8863 H   0  0  0  0  0  0  0  0  0  0  0  0
  1  2  2  0  0  0  0
  1  6  1  0  0  0  0
  2  3  1  0  0  0  0
  2 68  1  0  0  0  0
  3  4  2  0  0  0  0
  4  5  1  0  0  0  0
  4 10  1  0  0  0  0
  5  6  2  0  0  0  0
  5  8  1  0  0  0  0
  6  7  1  0  0  0  0
  7 69  1  0  0  0  0
  7 70  1  0  0  0  0
  8  9  1  0  0  0  0
  9 10  2  0  0  0  0
  9 71  1  0  0  0  0
 10 19  1  0  0  0  0
 11 15  2  0  0  0  0
 12 16  1  0  0  0  0
 12 72  1  0  0  0  0
 13 17  1  0  0  0  0
 13 73  1  0  0  0  0
 14 18  1  0  0  0  0
 14 19  1  0  0  0  0
 15 18  1  0  0  0  0
 15 27  1  0  0  0  0
 16 17  1  0  0  0  0
 16 18  1  0  0  0  0
 16 74  1  6  0  0  0
 17 19  1  0  0  0  0
 17 75  1  1  0  0  0
 18 76  1  6  0  0  0
 19 77  1  1  0  0  0
 20 21  2  0  0  0  0
 20 22  1  0  0  0  0
 20 28  1  0  0  0  0
 22 23  1  0  0  0  0
 22 78  1  0  0  0  0
 22 79  1  0  0  0  0
 23 24  1  0  0  0  0
 23 80  1  0  0  0  0
 23 81  1  0  0  0  0
 24 25  1  0  0  0  0
 24 82  1  0  0  0  0
 24 83  1  0  0  0  0
 25 26  1  0  0  0  0
 25 84  1  0  0  0  0
 25 85  1  0  0  0  0
 26 27  1  0  0  0  0
 26 86  1  0  0  0  0
 26 87  1  0  0  0  0
 27 88  1  0  0  0  0
 28 29  1  0  0  0  0
 28 89  1  0  0  0  0
 29 30  1  0  0  0  0
 29 32  1  0  0  0  0
 29 90  1  6  0  0  0
 30 31  2  0  0  0  0
 30 44  1  0  0  0  0
 32 33  1  0  0  0  0
 32 91  1  0  0  0  0
 32 92  1  0  0  0  0
 33 34  1  0  0  0  0
 33 93  1  0  0  0  0
 33 94  1  0  0  0  0
 34 35  1  0  0  0  0
 34 95  1  0  0  0  0
 34 96  1  0  0  0  0
 35 36  1  0  0  0  0
 35 97  1  0  0  0  0
 35 98  1  0  0  0  0
 36 99  1  0  0  0  0
 36100  1  0  0  0  0
 36138  1  0  0  0  0
 37 38  2  0  0  0  0
 37 39  1  0  0  0  0
 37 45  1  0  0  0  0
 39 40  1  0  0  0  0
 39101  1  0  0  0  0
 39102  1  0  0  0  0
 40 41  1  0  0  0  0
 40103  1  0  0  0  0
 40104  1  0  0  0  0
 41 42  1  0  0  0  0
 41105  1  0  0  0  0
 41106  1  0  0  0  0
 42 43  1  0  0  0  0
 42107  1  0  0  0  0
 42108  1  0  0  0  0
 43 44  1  0  0  0  0
 43109  1  0  0  0  0
 43110  1  0  0  0  0
 44111  1  0  0  0  0
 45 46  1  0  0  0  0
 45112  1  0  0  0  0
 46 47  1  0  0  0  0
 46 54  1  0  0  0  0
 46113  1  1  0  0  0
 47 48  1  0  0  0  0
 47114  1  0  0  0  0
 47115  1  0  0  0  0
 48 49  1  0  0  0  0
 48116  1  0  0  0  0
 48117  1  0  0  0  0
 49 50  1  0  0  0  0
 49118  1  0  0  0  0
 49119  1  0  0  0  0
 50 51  1  0  0  0  0
 50120  1  0  0  0  0
 51 52  2  0  0  0  0
 51 53  1  0  0  0  0
 52121  1  0  0  0  0
 52139  1  0  0  0  0
 53122  1  0  0  0  0
 53123  1  0  0  0  0
 54 55  2  0  0  0  0
 54 56  1  0  0  0  0
 56 57  1  0  0  0  0
 56124  1  0  0  0  0
 57 58  1  0  0  0  0
 57 65  1  0  0  0  0
 57125  1  6  0  0  0
 58 59  1  0  0  0  0
 58126  1  0  0  0  0
 58127  1  0  0  0  0
 59 60  1  0  0  0  0
 59128  1  0  0  0  0
 59129  1  0  0  0  0
 60 61  1  0  0  0  0
 60130  1  0  0  0  0
 60131  1  0  0  0  0
 61 62  1  0  0  0  0
 61132  1  0  0  0  0
 62 63  2  0  0  0  0
 62 64  1  0  0  0  0
 63133  1  0  0  0  0
 63140  1  0  0  0  0
 64134  1  0  0  0  0
 64135  1  0  0  0  0
 65 66  2  0  0  0  0
 65 67  1  0  0  0  0
 67136  1  0  0  0  0
 67137  1  0  0  0  0
M  CHG  2  10   1  36   1
M  END
$$$$
