A03
 OpenBabel04091910513D

128130  0  0  1  0  0  0  0  0999 V2000
  -18.4120    5.2085   -0.1932 N   0  0  0  0  0  0  0  0  0  0  0  0
  -19.5733    5.2381    0.4982 C   0  0  0  0  0  0  0  0  0  0  0  0
  -19.7713    5.5269    1.8070 N   0  0  0  0  0  0  0  0  0  0  0  0
  -18.6082    5.8409    2.4052 C   0  0  0  0  0  0  0  0  0  0  0  0
  -17.3494    5.8413    1.8237 C   0  0  0  0  0  0  0  0  0  0  0  0
  -17.2697    5.5052    0.4633 C   0  0  0  0  0  0  0  0  0  0  0  0
  -16.0715    5.4496   -0.2108 N   0  0  0  0  0  0  0  0  0  0  0  0
  -16.3828    6.1688    2.7468 N   0  0  0  0  0  0  0  0  0  0  0  0
  -17.0446    6.4070    3.8569 C   0  0  0  0  0  0  0  0  0  0  0  0
  -18.3934    6.2219    3.7075 N   0  3  0  0  0  0  0  0  0  0  0  0
  -16.5456    7.5228    7.0102 O   0  0  0  0  0  0  0  0  0  0  0  0
  -19.1351    4.6161    7.9330 O   0  0  0  0  0  0  0  0  0  0  0  0
  -20.9721    5.0353    6.0277 O   0  0  0  0  0  0  0  0  0  0  0  0
  -19.0868    7.4208    5.6499 O   0  0  0  0  0  0  0  0  0  0  0  0
  -17.6251    7.4850    7.5949 C   0  0  0  0  0  0  0  0  0  0  0  0
  -18.7022    5.3637    6.7820 C   0  0  1  0  0  0  0  0  0  0  0  0
  -19.6024    5.0966    5.5808 C   0  0  2  0  0  0  0  0  0  0  0  0
  -18.8767    6.8675    6.9619 C   0  0  2  0  0  0  0  0  0  0  0  0
  -19.4169    6.3503    4.7275 C   0  0  2  0  0  0  0  0  0  0  0  0
  -14.0406   12.7492   11.5422 C   0  0  0  0  0  0  0  0  0  0  0  0
  -14.7340   13.5405   12.1709 O   0  0  0  0  0  0  0  0  0  0  0  0
  -13.9274   12.7993   10.0302 C   0  0  0  0  0  0  0  0  0  0  0  0
  -15.1954   12.2659    9.3579 C   0  0  0  0  0  0  0  0  0  0  0  0
  -15.3652   10.7760    9.6372 C   0  0  0  0  0  0  0  0  0  0  0  0
  -16.6902   10.1911    9.1613 C   0  0  0  0  0  0  0  0  0  0  0  0
  -16.7149    8.7033    9.5221 C   0  0  0  0  0  0  0  0  0  0  0  0
  -17.7890    7.9799    8.8756 N   0  0  0  0  0  0  0  0  0  0  0  0
  -13.3788   11.6895   12.1313 N   0  0  0  0  0  0  0  0  0  0  0  0
  -13.3584   11.5521   13.5882 C   0  0  2  0  0  0  0  0  0  0  0  0
  -12.2853   10.5520   14.0125 C   0  0  0  0  0  0  0  0  0  0  0  0
  -14.7459   11.0960   14.0956 C   0  0  0  0  0  0  0  0  0  0  0  0
  -15.2775   11.5728   15.0896 O   0  0  0  0  0  0  0  0  0  0  0  0
  -19.7464    6.4566   17.3527 C   0  0  0  0  0  0  0  0  0  0  0  0
  -19.4463    5.2924   17.5956 O   0  0  0  0  0  0  0  0  0  0  0  0
  -18.8153    7.6291   17.5991 C   0  0  0  0  0  0  0  0  0  0  0  0
  -18.3519    8.2068   16.2606 C   0  0  0  0  0  0  0  0  0  0  0  0
  -16.8638    8.5622   16.2583 C   0  0  0  0  0  0  0  0  0  0  0  0
  -16.2314    8.2813   14.8927 C   0  0  0  0  0  0  0  0  0  0  0  0
  -16.5052    9.3848   13.8744 C   0  0  0  0  0  0  0  0  0  0  0  0
  -15.2724    9.9962   13.4347 N   0  0  0  0  0  0  0  0  0  0  0  0
  -20.9429    6.8253   16.7818 N   0  0  0  0  0  0  0  0  0  0  0  0
  -21.9858    5.8629   16.4435 C   0  0  2  0  0  0  0  0  0  0  0  0
  -23.2526    6.6207   16.0167 C   0  0  0  0  0  0  0  0  0  0  0  0
  -23.1397    7.1385   14.5846 C   0  0  0  0  0  0  0  0  0  0  0  0
  -23.4716    6.0282   13.5941 C   0  0  0  0  0  0  0  0  0  0  0  0
  -22.5171    6.0211   12.4855 N   0  0  0  0  0  0  0  0  0  0  0  0
  -22.3979    5.0153   11.6100 C   0  0  0  0  0  0  0  0  0  0  0  0
  -21.4931    5.1108   10.6361 N   0  0  0  0  0  0  0  0  0  0  0  0
  -23.1476    3.9138   11.7013 N   0  0  0  0  0  0  0  0  0  0  0  0
  -22.3531    4.9701   17.6438 C   0  0  0  0  0  0  0  0  0  0  0  0
  -22.4181    5.3831   18.7892 O   0  0  0  0  0  0  0  0  0  0  0  0
  -22.6039    3.6503   17.3001 N   0  0  0  0  0  0  0  0  0  0  0  0
  -22.9063    2.6604   18.3211 C   0  0  2  0  0  0  0  0  0  0  0  0
  -22.0113    1.4328   18.1583 C   0  0  0  0  0  0  0  0  0  0  0  0
  -20.5206    1.7723   18.0747 C   0  0  0  0  0  0  0  0  0  0  0  0
  -19.6982    0.5162   18.3065 C   0  0  0  0  0  0  0  0  0  0  0  0
  -19.5963   -0.2864   17.0751 N   0  0  0  0  0  0  0  0  0  0  0  0
  -19.8641   -1.5940   16.9749 C   0  0  0  0  0  0  0  0  0  0  0  0
  -20.2873   -2.3098   18.0299 N   0  0  0  0  0  0  0  0  0  0  0  0
  -19.7259   -2.2192   15.8180 N   0  0  0  0  0  0  0  0  0  0  0  0
  -24.3659    2.1948   18.2025 C   0  0  0  0  0  0  0  0  0  0  0  0
  -25.0457    2.3686   17.1964 O   0  0  0  0  0  0  0  0  0  0  0  0
  -24.8084    1.4336   19.2524 N   0  0  0  0  0  0  0  0  0  0  0  0
  -20.4620    4.9949   -0.0800 H   0  0  0  0  0  0  0  0  0  0  0  0
  -15.2324    5.7369    0.2749 H   0  0  0  0  0  0  0  0  0  0  0  0
  -16.0804    5.2810   -1.2038 H   0  0  0  0  0  0  0  0  0  0  0  0
  -16.5844    6.7089    4.7860 H   0  0  0  0  0  0  0  0  0  0  0  0
  -18.9536    3.6804    7.7205 H   0  0  0  0  0  0  0  0  0  0  0  0
  -21.0460    4.2858    6.6397 H   0  0  0  0  0  0  0  0  0  0  0  0
  -17.6587    5.1053    6.5597 H   0  0  0  0  0  0  0  0  0  0  0  0
  -19.3746    4.1561    5.0694 H   0  0  0  0  0  0  0  0  0  0  0  0
  -19.7521    7.0832    7.5861 H   0  0  0  0  0  0  0  0  0  0  0  0
  -20.3497    6.6322    4.2265 H   0  0  0  0  0  0  0  0  0  0  0  0
  -13.0531   12.2276    9.6991 H   0  0  0  0  0  0  0  0  0  0  0  0
  -13.7552   13.8423    9.7442 H   0  0  0  0  0  0  0  0  0  0  0  0
  -15.1195   12.4260    8.2752 H   0  0  0  0  0  0  0  0  0  0  0  0
  -16.0725   12.8227    9.7080 H   0  0  0  0  0  0  0  0  0  0  0  0
  -15.2951   10.5914   10.7111 H   0  0  0  0  0  0  0  0  0  0  0  0
  -14.5363   10.2355    9.1638 H   0  0  0  0  0  0  0  0  0  0  0  0
  -16.8042   10.3400    8.0821 H   0  0  0  0  0  0  0  0  0  0  0  0
  -17.5296   10.7040    9.6487 H   0  0  0  0  0  0  0  0  0  0  0  0
  -16.8433    8.5814   10.6024 H   0  0  0  0  0  0  0  0  0  0  0  0
  -15.7622    8.2350    9.2489 H   0  0  0  0  0  0  0  0  0  0  0  0
  -18.7039    8.0049    9.2959 H   0  0  0  0  0  0  0  0  0  0  0  0
  -12.7921   11.0935   11.5630 H   0  0  0  0  0  0  0  0  0  0  0  0
  -13.1492   12.5334   14.0282 H   0  0  0  0  0  0  0  0  0  0  0  0
  -12.2875   10.4065   15.0978 H   0  0  0  0  0  0  0  0  0  0  0  0
  -11.2906   10.9038   13.7163 H   0  0  0  0  0  0  0  0  0  0  0  0
  -12.4340    9.5702   13.5472 H   0  0  0  0  0  0  0  0  0  0  0  0
  -17.9793    7.2649   18.2050 H   0  0  0  0  0  0  0  0  0  0  0  0
  -19.3336    8.3933   18.1903 H   0  0  0  0  0  0  0  0  0  0  0  0
  -18.9403    9.1025   16.0234 H   0  0  0  0  0  0  0  0  0  0  0  0
  -18.5636    7.4881   15.4596 H   0  0  0  0  0  0  0  0  0  0  0  0
  -16.3246    7.9684   17.0044 H   0  0  0  0  0  0  0  0  0  0  0  0
  -16.7303    9.6134   16.5419 H   0  0  0  0  0  0  0  0  0  0  0  0
  -16.6139    7.3289   14.5026 H   0  0  0  0  0  0  0  0  0  0  0  0
  -15.1534    8.1363   15.0295 H   0  0  0  0  0  0  0  0  0  0  0  0
  -17.1677   10.1588   14.2771 H   0  0  0  0  0  0  0  0  0  0  0  0
  -16.9886    8.9680   12.9863 H   0  0  0  0  0  0  0  0  0  0  0  0
  -14.7116    9.5531   12.7201 H   0  0  0  0  0  0  0  0  0  0  0  0
  -21.0783    7.8040   16.5565 H   0  0  0  0  0  0  0  0  0  0  0  0
  -21.6006    5.2347   15.6281 H   0  0  0  0  0  0  0  0  0  0  0  0
  -23.4117    7.4700   16.6928 H   0  0  0  0  0  0  0  0  0  0  0  0
  -24.1424    5.9838   16.1089 H   0  0  0  0  0  0  0  0  0  0  0  0
  -22.1339    7.5374   14.4068 H   0  0  0  0  0  0  0  0  0  0  0  0
  -23.8341    7.9729   14.4336 H   0  0  0  0  0  0  0  0  0  0  0  0
  -24.4760    6.1773   13.1852 H   0  0  0  0  0  0  0  0  0  0  0  0
  -23.4262    5.0511   14.0866 H   0  0  0  0  0  0  0  0  0  0  0  0
  -21.9062    6.8199   12.3640 H   0  0  0  0  0  0  0  0  0  0  0  0
  -21.3815    4.3937    9.9313 H   0  0  0  0  0  0  0  0  0  0  0  0
  -23.8632    3.8209   12.4113 H   0  0  0  0  0  0  0  0  0  0  0  0
  -23.0918    3.1716   11.0176 H   0  0  0  0  0  0  0  0  0  0  0  0
  -22.7091    3.3760   16.3371 H   0  0  0  0  0  0  0  0  0  0  0  0
  -22.7668    3.0970   19.3168 H   0  0  0  0  0  0  0  0  0  0  0  0
  -22.3016    0.8660   17.2641 H   0  0  0  0  0  0  0  0  0  0  0  0
  -22.1907    0.7653   19.0116 H   0  0  0  0  0  0  0  0  0  0  0  0
  -20.2645    2.5123   18.8397 H   0  0  0  0  0  0  0  0  0  0  0  0
  -20.2867    2.2034   17.0936 H   0  0  0  0  0  0  0  0  0  0  0  0
  -20.1612   -0.0614   19.1077 H   0  0  0  0  0  0  0  0  0  0  0  0
  -18.6823    0.7577   18.6262 H   0  0  0  0  0  0  0  0  0  0  0  0
  -19.2538    0.1843   16.2450 H   0  0  0  0  0  0  0  0  0  0  0  0
  -20.4765   -3.2973   17.9590 H   0  0  0  0  0  0  0  0  0  0  0  0
  -19.3963   -1.7582   14.9708 H   0  0  0  0  0  0  0  0  0  0  0  0
  -19.9183   -3.2155   15.7377 H   0  0  0  0  0  0  0  0  0  0  0  0
  -25.7728    1.1216   19.2566 H   0  0  0  0  0  0  0  0  0  0  0  0
  -24.2846    1.3236   20.1127 H   0  0  0  0  0  0  0  0  0  0  0  0
  -20.9076    5.9291   10.5345 H   0  0  0  0  0  0  0  0  0  0  0  0
  -20.3917   -1.9039   18.9474 H   0  0  0  0  0  0  0  0  0  0  0  0
  1  2  2  0  0  0  0
  1  6  1  0  0  0  0
  2  3  1  0  0  0  0
  2 64  1  0  0  0  0
  3  4  2  0  0  0  0
  4  5  1  0  0  0  0
  4 10  1  0  0  0  0
  5  6  2  0  0  0  0
  5  8  1  0  0  0  0
  6  7  1  0  0  0  0
  7 65  1  0  0  0  0
  7 66  1  0  0  0  0
  8  9  1  0  0  0  0
  9 10  2  0  0  0  0
  9 67  1  0  0  0  0
 10 19  1  0  0  0  0
 11 15  2  0  0  0  0
 12 16  1  0  0  0  0
 12 68  1  0  0  0  0
 13 17  1  0  0  0  0
 13 69  1  0  0  0  0
 14 18  1  0  0  0  0
 14 19  1  0  0  0  0
 15 18  1  0  0  0  0
 15 27  1  0  0  0  0
 16 17  1  0  0  0  0
 16 18  1  0  0  0  0
 16 70  1  6  0  0  0
 17 19  1  0  0  0  0
 17 71  1  6  0  0  0
 18 72  1  1  0  0  0
 19 73  1  6  0  0  0
 20 21  2  0  0  0  0
 20 22  1  0  0  0  0
 20 28  1  0  0  0  0
 22 23  1  0  0  0  0
 22 74  1  0  0  0  0
 22 75  1  0  0  0  0
 23 24  1  0  0  0  0
 23 76  1  0  0  0  0
 23 77  1  0  0  0  0
 24 25  1  0  0  0  0
 24 78  1  0  0  0  0
 24 79  1  0  0  0  0
 25 26  1  0  0  0  0
 25 80  1  0  0  0  0
 25 81  1  0  0  0  0
 26 27  1  0  0  0  0
 26 82  1  0  0  0  0
 26 83  1  0  0  0  0
 27 84  1  0  0  0  0
 28 29  1  0  0  0  0
 28 85  1  0  0  0  0
 29 30  1  0  0  0  0
 29 31  1  0  0  0  0
 29 86  1  1  0  0  0
 30 87  1  0  0  0  0
 30 88  1  0  0  0  0
 30 89  1  0  0  0  0
 31 32  2  0  0  0  0
 31 40  1  0  0  0  0
 33 34  2  0  0  0  0
 33 35  1  0  0  0  0
 33 41  1  0  0  0  0
 35 36  1  0  0  0  0
 35 90  1  0  0  0  0
 35 91  1  0  0  0  0
 36 37  1  0  0  0  0
 36 92  1  0  0  0  0
 36 93  1  0  0  0  0
 37 38  1  0  0  0  0
 37 94  1  0  0  0  0
 37 95  1  0  0  0  0
 38 39  1  0  0  0  0
 38 96  1  0  0  0  0
 38 97  1  0  0  0  0
 39 40  1  0  0  0  0
 39 98  1  0  0  0  0
 39 99  1  0  0  0  0
 40100  1  0  0  0  0
 41 42  1  0  0  0  0
 41101  1  0  0  0  0
 42 43  1  0  0  0  0
 42 50  1  0  0  0  0
 42102  1  6  0  0  0
 43 44  1  0  0  0  0
 43103  1  0  0  0  0
 43104  1  0  0  0  0
 44 45  1  0  0  0  0
 44105  1  0  0  0  0
 44106  1  0  0  0  0
 45 46  1  0  0  0  0
 45107  1  0  0  0  0
 45108  1  0  0  0  0
 46 47  1  0  0  0  0
 46109  1  0  0  0  0
 47 48  2  0  0  0  0
 47 49  1  0  0  0  0
 48110  1  0  0  0  0
 48127  1  0  0  0  0
 49111  1  0  0  0  0
 49112  1  0  0  0  0
 50 51  2  0  0  0  0
 50 52  1  0  0  0  0
 52 53  1  0  0  0  0
 52113  1  0  0  0  0
 53 54  1  0  0  0  0
 53 61  1  0  0  0  0
 53114  1  1  0  0  0
 54 55  1  0  0  0  0
 54115  1  0  0  0  0
 54116  1  0  0  0  0
 55 56  1  0  0  0  0
 55117  1  0  0  0  0
 55118  1  0  0  0  0
 56 57  1  0  0  0  0
 56119  1  0  0  0  0
 56120  1  0  0  0  0
 57 58  1  0  0  0  0
 57121  1  0  0  0  0
 58 59  2  0  0  0  0
 58 60  1  0  0  0  0
 59122  1  0  0  0  0
 59128  1  0  0  0  0
 60123  1  0  0  0  0
 60124  1  0  0  0  0
 61 62  2  0  0  0  0
 61 63  1  0  0  0  0
 63125  1  0  0  0  0
 63126  1  0  0  0  0
M  CHG  1  10   1
M  END
$$$$
