A09
 OpenBabel04091915403D

 18 18  0  0  0  0  0  0  0  0999 V2000
   -5.7269    2.5079   16.0531 C   0  0  0  0  0  0  0  0  0  0  0  0
   -5.3291   -0.1972   15.8775 N   0  3  0  0  0  0  0  0  0  0  0  0
   -7.4483    0.7329   16.8540 O   0  0  0  0  0  0  0  0  0  0  0  0
   -6.0124    0.9587   16.8733 S   0  0  0  0  0  0  0  0  0  0  0  0
   -6.1391    3.6709   16.7032 C   0  0  0  0  0  0  0  0  0  0  0  0
   -5.2525    0.9660   18.1116 O   0  0  0  0  0  0  0  0  0  0  0  0
   -5.9394    4.9117   16.0992 C   0  0  0  0  0  0  0  0  0  0  0  0
   -3.9023   -0.2536   15.9494 O   0  0  0  0  0  0  0  0  0  0  0  0
   -5.3298    4.9832   14.8463 C   0  0  0  0  0  0  0  0  0  0  0  0
   -4.9178    3.8173   14.1996 C   0  0  0  0  0  0  0  0  0  0  0  0
   -5.1164    2.5744   14.7987 C   0  0  0  0  0  0  0  0  0  0  0  0
   -5.8642   -0.9117   15.3849 H   0  0  0  0  0  0  0  0  0  0  0  0
   -6.6198    3.6195   17.6826 H   0  0  0  0  0  0  0  0  0  0  0  0
   -6.2611    5.8242   16.5992 H   0  0  0  0  0  0  0  0  0  0  0  0
   -3.6768   -0.3192   16.9022 H   0  0  0  0  0  0  0  0  0  0  0  0
   -5.1761    5.9494   14.3736 H   0  0  0  0  0  0  0  0  0  0  0  0
   -4.4421    3.8817   13.2227 H   0  0  0  0  0  0  0  0  0  0  0  0
   -4.7876    1.6782   14.2797 H   0  0  0  0  0  0  0  0  0  0  0  0
  1  4  1  0  0  0  0
  1  5  2  0  0  0  0
  1 11  1  0  0  0  0
  2  4  1  0  0  0  0
  2  8  1  0  0  0  0
  2 12  1  0  0  0  0
  3  4  2  0  0  0  0
  4  6  2  0  0  0  0
  5  7  1  0  0  0  0
  5 13  1  0  0  0  0
  7  9  2  0  0  0  0
  7 14  1  0  0  0  0
  8 15  1  0  0  0  0
  9 10  1  0  0  0  0
  9 16  1  0  0  0  0
 10 11  2  0  0  0  0
 10 17  1  0  0  0  0
 11 18  1  0  0  0  0
M  CHG  1   2   1
M  END
$$$$
