A2G
 OpenBabel04091913573D

 30 30  0  0  1  0  0  0  0  0999 V2000
  -38.1372  -31.0269   -4.5351 O   0  0  0  0  0  0  0  0  0  0  0  0
  -39.5526  -31.0381   -4.4950 C   0  0  2  0  0  0  0  0  0  0  0  0
  -40.0563  -31.3779   -5.7935 O   0  0  0  0  0  0  0  0  0  0  0  0
  -40.1157  -29.6707   -4.0780 C   0  0  2  0  0  0  0  0  0  0  0  0
  -41.5747  -29.7106   -4.1900 N   0  0  0  0  0  0  0  0  0  0  0  0
  -39.5756  -28.5810   -5.0135 C   0  0  1  0  0  0  0  0  0  0  0  0
  -39.9438  -27.2885   -4.5241 O   0  0  0  0  0  0  0  0  0  0  0  0
  -38.0561  -28.6630   -5.1389 C   0  0  1  0  0  0  0  0  0  0  0  0
  -37.4311  -28.2997   -3.8996 O   0  0  0  0  0  0  0  0  0  0  0  0
  -37.6413  -30.0812   -5.5009 C   0  0  1  0  0  0  0  0  0  0  0  0
  -36.1299  -30.2204   -5.5555 C   0  0  0  0  0  0  0  0  0  0  0  0
  -35.8371  -31.0348   -6.6945 O   0  0  0  0  0  0  0  0  0  0  0  0
  -42.3873  -29.1834   -3.2440 C   0  0  0  0  0  0  0  0  0  0  0  0
  -41.9796  -28.6939   -2.1810 O   0  0  0  0  0  0  0  0  0  0  0  0
  -43.8434  -29.2932   -3.5555 C   0  0  0  0  0  0  0  0  0  0  0  0
  -39.8925  -31.8018   -3.7885 H   0  0  0  0  0  0  0  0  0  0  0  0
  -39.6461  -32.2312   -6.0215 H   0  0  0  0  0  0  0  0  0  0  0  0
  -39.8223  -29.4365   -3.0454 H   0  0  0  0  0  0  0  0  0  0  0  0
  -41.9440  -30.0810   -5.0646 H   0  0  0  0  0  0  0  0  0  0  0  0
  -40.0313  -28.7085   -6.0051 H   0  0  0  0  0  0  0  0  0  0  0  0
  -39.6293  -26.6232   -5.1574 H   0  0  0  0  0  0  0  0  0  0  0  0
  -37.7092  -27.9568   -5.9063 H   0  0  0  0  0  0  0  0  0  0  0  0
  -37.7836  -27.4273   -3.6458 H   0  0  0  0  0  0  0  0  0  0  0  0
  -38.0564  -30.3440   -6.4825 H   0  0  0  0  0  0  0  0  0  0  0  0
  -35.7368  -30.7091   -4.6584 H   0  0  0  0  0  0  0  0  0  0  0  0
  -35.6360  -29.2527   -5.6919 H   0  0  0  0  0  0  0  0  0  0  0  0
  -34.8723  -31.1408   -6.7408 H   0  0  0  0  0  0  0  0  0  0  0  0
  -44.4122  -28.8697   -2.7209 H   0  0  0  0  0  0  0  0  0  0  0  0
  -44.1186  -30.3418   -3.6778 H   0  0  0  0  0  0  0  0  0  0  0  0
  -44.0728  -28.7344   -4.4654 H   0  0  0  0  0  0  0  0  0  0  0  0
  1  2  1  0  0  0  0
  1 10  1  0  0  0  0
  2  3  1  0  0  0  0
  2  4  1  0  0  0  0
  2 16  1  1  0  0  0
  3 17  1  0  0  0  0
  4  5  1  0  0  0  0
  4  6  1  0  0  0  0
  4 18  1  1  0  0  0
  5 13  1  0  0  0  0
  5 19  1  0  0  0  0
  6  7  1  0  0  0  0
  6  8  1  0  0  0  0
  6 20  1  6  0  0  0
  7 21  1  0  0  0  0
  8  9  1  0  0  0  0
  8 10  1  0  0  0  0
  8 22  1  6  0  0  0
  9 23  1  0  0  0  0
 10 11  1  0  0  0  0
 10 24  1  6  0  0  0
 11 12  1  0  0  0  0
 11 25  1  0  0  0  0
 11 26  1  0  0  0  0
 12 27  1  0  0  0  0
 13 14  2  0  0  0  0
 13 15  1  0  0  0  0
 15 28  1  0  0  0  0
 15 29  1  0  0  0  0
 15 30  1  0  0  0  0
M  END
$$$$
