A33
 OpenBabel04091910573D

 20 19  0  0  1  0  0  0  0  0999 V2000
   52.2478   45.7471  -18.0064 C   0  0  0  0  0  0  0  0  0  0  0  0
   50.7991   46.0947  -18.4769 C   0  0  0  0  0  0  0  0  0  0  0  0
   50.0567   47.1149  -17.5825 C   0  0  2  0  0  0  0  0  0  0  0  0
   50.6532   48.5273  -17.5682 C   0  0  0  0  0  0  0  0  0  0  0  0
   49.8231   49.7044  -18.1352 C   0  0  0  0  0  0  0  0  0  0  0  0
   49.9518   47.0241  -15.1779 O   0  0  0  0  0  0  0  0  0  0  0  0
   50.0013   46.3447  -16.2131 C   0  0  0  0  0  0  0  0  0  0  0  0
   49.6591   45.1227  -16.3649 O   0  0  0  0  0  0  0  0  0  0  0  0
   52.4537   45.4209  -16.8302 O   0  0  0  0  0  0  0  0  0  0  0  0
   53.1310   45.8319  -18.9536 O   0  0  0  0  0  0  0  0  0  0  0  0
   48.6271   47.3022  -18.0714 N   0  3  0  0  0  0  0  0  0  0  0  0
   49.5415   49.6120  -19.3740 O   0  0  0  0  0  0  0  0  0  0  0  0
   49.3813   50.5544  -17.3274 O   0  0  0  0  0  0  0  0  0  0  0  0
   50.2373   45.1452  -18.5120 H   0  0  0  0  0  0  0  0  0  0  0  0
   50.8309   46.4637  -19.5103 H   0  0  0  0  0  0  0  0  0  0  0  0
   51.5847   48.4839  -18.1341 H   0  0  0  0  0  0  0  0  0  0  0  0
   50.9063   48.7553  -16.5300 H   0  0  0  0  0  0  0  0  0  0  0  0
   48.1997   47.9885  -17.4382 H   0  0  0  0  0  0  0  0  0  0  0  0
   48.6517   47.6841  -19.0272 H   0  0  0  0  0  0  0  0  0  0  0  0
   48.1414   46.4084  -17.9881 H   0  0  0  0  0  0  0  0  0  0  0  0
  1  2  1  0  0  0  0
  1  9  2  0  0  0  0
  1 10  1  0  0  0  0
  2 14  1  0  0  0  0
  2 15  1  0  0  0  0
  3  2  1  6  0  0  0
  3  4  1  0  0  0  0
  3  7  1  0  0  0  0
  3 11  1  0  0  0  0
  4  5  1  0  0  0  0
  4 16  1  0  0  0  0
  4 17  1  0  0  0  0
  5 12  2  0  0  0  0
  5 13  1  0  0  0  0
  6  7  2  0  0  0  0
  7  8  1  0  0  0  0
 11 18  1  0  0  0  0
 11 19  1  0  0  0  0
 11 20  1  0  0  0  0
M  CHG  1  11   1
M  END
$$$$
