A5D
 OpenBabel04091913103D

 46 49  0  0  1  0  0  0  0  0999 V2000
   14.0185    9.7862   -5.5977 N   0  0  0  0  0  0  0  0  0  0  0  0
   13.0927    9.3236   -4.7352 C   0  0  0  0  0  0  0  0  0  0  0  0
   13.0801    9.4148   -3.3802 N   0  0  0  0  0  0  0  0  0  0  0  0
   14.1810   10.0548   -2.9308 C   0  0  0  0  0  0  0  0  0  0  0  0
   15.2039   10.5727   -3.6971 C   0  0  0  0  0  0  0  0  0  0  0  0
   15.1032   10.4237   -5.0963 C   0  0  0  0  0  0  0  0  0  0  0  0
   16.0480   10.8607   -5.9807 N   0  0  0  0  0  0  0  0  0  0  0  0
   16.1745   11.1578   -2.8912 N   0  0  0  0  0  0  0  0  0  0  0  0
   15.7343   10.9968   -1.6657 C   0  0  0  0  0  0  0  0  0  0  0  0
   14.5368   10.3347   -1.6370 N   0  3  0  0  0  0  0  0  0  0  0  0
   12.7076    7.9665    1.7360 O   0  0  0  0  0  0  0  0  0  0  0  0
   14.4482    7.5395   -0.3726 O   0  0  0  0  0  0  0  0  0  0  0  0
   13.9131    9.6370    9.5096 C   0  0  0  0  0  0  0  0  0  0  0  0
   13.5671   10.6362    8.6027 C   0  0  0  0  0  0  0  0  0  0  0  0
   14.3143    8.3772    9.0701 C   0  0  0  0  0  0  0  0  0  0  0  0
   13.6366   10.3735    7.2405 C   0  0  0  0  0  0  0  0  0  0  0  0
   14.3768    8.1104    7.7076 C   0  0  0  0  0  0  0  0  0  0  0  0
   14.1680    8.8333    5.3322 C   0  0  0  0  0  0  0  0  0  0  0  0
   13.5592   11.0767    3.0315 C   0  0  0  0  0  0  0  0  0  0  0  0
   13.8346   10.9773    0.5534 O   0  0  0  0  0  0  0  0  0  0  0  0
   15.7173    9.4837    4.6160 S   0  0  0  0  0  0  0  0  0  0  0  0
   15.2244   11.2891    3.7514 S   0  0  0  0  0  0  0  0  0  0  0  0
   14.0421    9.1101    6.7898 C   0  0  0  0  0  0  0  0  0  0  0  0
   13.8271    8.8509    1.6619 C   0  0  1  0  0  0  0  0  0  0  0  0
   14.5264    8.7848    0.2982 C   0  0  2  0  0  0  0  0  0  0  0  0
   13.3429   10.3081    1.7329 C   0  0  1  0  0  0  0  0  0  0  0  0
   13.8358    9.9173   -0.4472 C   0  0  2  0  0  0  0  0  0  0  0  0
   12.2425    8.8241   -5.1932 H   0  0  0  0  0  0  0  0  0  0  0  0
   16.8599   11.3554   -5.6213 H   0  0  0  0  0  0  0  0  0  0  0  0
   15.9008   10.7422   -6.9506 H   0  0  0  0  0  0  0  0  0  0  0  0
   16.2413   11.3208   -0.7646 H   0  0  0  0  0  0  0  0  0  0  0  0
   12.2843    8.0679    2.6064 H   0  0  0  0  0  0  0  0  0  0  0  0
   14.8765    6.8652    0.1800 H   0  0  0  0  0  0  0  0  0  0  0  0
   13.8720    9.8478   10.5693 H   0  0  0  0  0  0  0  0  0  0  0  0
   13.2729   11.6190    8.9543 H   0  0  0  0  0  0  0  0  0  0  0  0
   14.5975    7.6116    9.7862 H   0  0  0  0  0  0  0  0  0  0  0  0
   13.3928   11.1641    6.5310 H   0  0  0  0  0  0  0  0  0  0  0  0
   14.7114    7.1363    7.3575 H   0  0  0  0  0  0  0  0  0  0  0  0
   14.1421    7.7577    5.1294 H   0  0  0  0  0  0  0  0  0  0  0  0
   13.2682    9.1907    4.8397 H   0  0  0  0  0  0  0  0  0  0  0  0
   13.1580   12.0878    2.9232 H   0  0  0  0  0  0  0  0  0  0  0  0
   12.9180   10.6366    3.7907 H   0  0  0  0  0  0  0  0  0  0  0  0
   14.5118    8.5500    2.4480 H   0  0  0  0  0  0  0  0  0  0  0  0
   15.5883    9.0348    0.4414 H   0  0  0  0  0  0  0  0  0  0  0  0
   12.2516   10.3059    1.6026 H   0  0  0  0  0  0  0  0  0  0  0  0
   12.7979    9.6839   -0.7113 H   0  0  0  0  0  0  0  0  0  0  0  0
  1  2  2  0  0  0  0
  1  6  1  0  0  0  0
  2  3  1  0  0  0  0
  2 28  1  0  0  0  0
  3  4  2  0  0  0  0
  4  5  1  0  0  0  0
  4 10  1  0  0  0  0
  5  6  2  0  0  0  0
  5  8  1  0  0  0  0
  6  7  1  0  0  0  0
  7 29  1  0  0  0  0
  7 30  1  0  0  0  0
  8  9  1  0  0  0  0
  9 10  2  0  0  0  0
  9 31  1  0  0  0  0
 10 27  1  0  0  0  0
 11 24  1  0  0  0  0
 11 32  1  0  0  0  0
 12 25  1  0  0  0  0
 12 33  1  0  0  0  0
 13 14  2  0  0  0  0
 13 15  1  0  0  0  0
 13 34  1  0  0  0  0
 14 16  1  0  0  0  0
 14 35  1  0  0  0  0
 15 17  2  0  0  0  0
 15 36  1  0  0  0  0
 16 23  2  0  0  0  0
 16 37  1  0  0  0  0
 17 23  1  0  0  0  0
 17 38  1  0  0  0  0
 18 21  1  0  0  0  0
 18 23  1  0  0  0  0
 18 39  1  0  0  0  0
 18 40  1  0  0  0  0
 19 22  1  0  0  0  0
 19 26  1  0  0  0  0
 19 41  1  0  0  0  0
 19 42  1  0  0  0  0
 20 26  1  0  0  0  0
 20 27  1  0  0  0  0
 21 22  1  0  0  0  0
 24 25  1  0  0  0  0
 24 26  1  0  0  0  0
 24 43  1  1  0  0  0
 25 27  1  0  0  0  0
 25 44  1  1  0  0  0
 26 45  1  6  0  0  0
 27 46  1  6  0  0  0
M  CHG  1  10   1
M  END
$$$$
