A61
 OpenBabel04091914163D

 81 85  0  0  1  0  0  0  0  0999 V2000
   15.3281   36.5053   18.5333 C   0  0  0  0  0  0  0  0  0  0  0  0
   14.8751   35.2838   18.6272 N   0  0  0  0  0  0  0  0  0  0  0  0
   16.5428   36.7819   17.3582 S   0  0  0  0  0  0  0  0  0  0  0  0
   15.5110   34.4743   17.6970 C   0  0  0  0  0  0  0  0  0  0  0  0
   16.4661   35.1249   16.9097 C   0  0  0  0  0  0  0  0  0  0  0  0
   17.1997   34.4492   15.9297 C   0  0  0  0  0  0  0  0  0  0  0  0
   16.9628   33.0746   15.7736 C   0  0  0  0  0  0  0  0  0  0  0  0
   16.0058   32.3991   16.5206 C   0  0  0  0  0  0  0  0  0  0  0  0
   15.2764   33.0954   17.4877 C   0  0  0  0  0  0  0  0  0  0  0  0
   17.9203   32.1640   14.5850 S   0  0  0  0  0  0  0  0  0  0  0  0
   18.4965   33.1311   13.6718 O   0  0  0  0  0  0  0  0  0  0  0  0
   17.1110   31.0624   14.1166 O   0  0  0  0  0  0  0  0  0  0  0  0
   19.1768   31.5544   15.5621 N   0  0  0  0  0  0  0  0  0  0  0  0
   19.9366   32.5659   16.3427 C   0  0  0  0  0  0  0  0  0  0  0  0
   21.4534   32.3600   16.2989 C   0  0  0  0  0  0  0  0  0  0  0  0
   22.0190   32.4579   14.8683 C   0  0  0  0  0  0  0  0  0  0  0  0
   22.1119   33.3655   17.2706 C   0  0  0  0  0  0  0  0  0  0  0  0
   18.9308   30.2787   16.2684 C   0  0  0  0  0  0  0  0  0  0  0  0
   19.8563   29.1874   15.7129 C   0  0  1  0  0  0  0  0  0  0  0  0
   21.9858   34.8308   16.8667 C   0  0  0  0  0  0  0  0  0  0  0  0
   19.8569   28.0619   16.6058 O   0  0  0  0  0  0  0  0  0  0  0  0
   19.5191   28.7468   14.2704 C   0  0  1  0  0  0  0  0  0  0  0  0
   23.4745   32.0157   14.8015 C   0  0  0  0  0  0  0  0  0  0  0  0
   20.6186   27.9182   13.7898 N   0  0  0  0  0  0  0  0  0  0  0  0
   21.5244   28.3234   12.8704 C   0  0  0  0  0  0  0  0  0  0  0  0
   21.5645   29.4133   12.3193 O   0  0  0  0  0  0  0  0  0  0  0  0
   22.3527   27.2890   12.6312 O   0  0  0  0  0  0  0  0  0  0  0  0
   23.2321   27.3973   11.4990 C   0  0  1  0  0  0  0  0  0  0  0  0
   24.5664   26.8255   11.9261 C   0  0  0  0  0  0  0  0  0  0  0  0
   24.4355   25.4025   11.8042 O   0  0  0  0  0  0  0  0  0  0  0  0
   23.4875   25.1385   10.7655 C   0  0  1  0  0  0  0  0  0  0  0  0
   22.5000   24.1952   11.1783 O   0  0  0  0  0  0  0  0  0  0  0  0
   21.2254   24.8366   11.2095 C   0  0  0  0  0  0  0  0  0  0  0  0
   21.3256   26.0944   10.3740 C   0  0  0  0  0  0  0  0  0  0  0  0
   22.7943   26.4409   10.4023 C   0  0  1  0  0  0  0  0  0  0  0  0
   18.2048   27.9485   14.1601 C   0  0  0  0  0  0  0  0  0  0  0  0
   18.0187   26.1872   12.3629 C   0  0  0  0  0  0  0  0  0  0  0  0
   17.8127   25.8104   11.0373 C   0  0  0  0  0  0  0  0  0  0  0  0
   17.4858   26.7704   10.0815 C   0  0  0  0  0  0  0  0  0  0  0  0
   17.3685   28.1094   10.4497 C   0  0  0  0  0  0  0  0  0  0  0  0
   17.5807   28.4894   11.7722 C   0  0  0  0  0  0  0  0  0  0  0  0
   17.9121   27.5319   12.7387 C   0  0  0  0  0  0  0  0  0  0  0  0
   14.9649   37.3100   19.1603 H   0  0  0  0  0  0  0  0  0  0  0  0
   17.9424   34.9782   15.3350 H   0  0  0  0  0  0  0  0  0  0  0  0
   15.8202   31.3409   16.3572 H   0  0  0  0  0  0  0  0  0  0  0  0
   14.5266   32.5781   18.0739 H   0  0  0  0  0  0  0  0  0  0  0  0
   19.5900   32.5452   17.3853 H   0  0  0  0  0  0  0  0  0  0  0  0
   19.7226   33.5639   15.9606 H   0  0  0  0  0  0  0  0  0  0  0  0
   21.6735   31.3571   16.6819 H   0  0  0  0  0  0  0  0  0  0  0  0
   21.9355   33.4793   14.4815 H   0  0  0  0  0  0  0  0  0  0  0  0
   21.4400   31.8255   14.1863 H   0  0  0  0  0  0  0  0  0  0  0  0
   23.1724   33.1228   17.3879 H   0  0  0  0  0  0  0  0  0  0  0  0
   21.6594   33.2431   18.2627 H   0  0  0  0  0  0  0  0  0  0  0  0
   17.8902   29.9557   16.1818 H   0  0  0  0  0  0  0  0  0  0  0  0
   19.0916   30.3848   17.3476 H   0  0  0  0  0  0  0  0  0  0  0  0
   20.8850   29.5647   15.7119 H   0  0  0  0  0  0  0  0  0  0  0  0
   22.4671   35.4658   17.6141 H   0  0  0  0  0  0  0  0  0  0  0  0
   20.9397   35.1442   16.7947 H   0  0  0  0  0  0  0  0  0  0  0  0
   22.4709   35.0274   15.9067 H   0  0  0  0  0  0  0  0  0  0  0  0
   18.9489   27.7227   16.6731 H   0  0  0  0  0  0  0  0  0  0  0  0
   19.4623   29.6356   13.6308 H   0  0  0  0  0  0  0  0  0  0  0  0
   23.8476   32.0900   13.7762 H   0  0  0  0  0  0  0  0  0  0  0  0
   23.5752   30.9754   15.1276 H   0  0  0  0  0  0  0  0  0  0  0  0
   24.1151   32.6380   15.4326 H   0  0  0  0  0  0  0  0  0  0  0  0
   20.7370   26.9854   14.1594 H   0  0  0  0  0  0  0  0  0  0  0  0
   23.3261   28.4287   11.1440 H   0  0  0  0  0  0  0  0  0  0  0  0
   24.8146   27.0753   12.9621 H   0  0  0  0  0  0  0  0  0  0  0  0
   25.3820   27.1457   11.2698 H   0  0  0  0  0  0  0  0  0  0  0  0
   24.0279   24.7112    9.9147 H   0  0  0  0  0  0  0  0  0  0  0  0
   20.9718   25.0554   12.2518 H   0  0  0  0  0  0  0  0  0  0  0  0
   20.4691   24.1495   10.8187 H   0  0  0  0  0  0  0  0  0  0  0  0
   20.6814   26.8934   10.7486 H   0  0  0  0  0  0  0  0  0  0  0  0
   21.0038   25.8835    9.3494 H   0  0  0  0  0  0  0  0  0  0  0  0
   23.1440   26.8035    9.4276 H   0  0  0  0  0  0  0  0  0  0  0  0
   17.3530   28.5233   14.5353 H   0  0  0  0  0  0  0  0  0  0  0  0
   18.2607   27.0472   14.7833 H   0  0  0  0  0  0  0  0  0  0  0  0
   18.2799   25.4294   13.0978 H   0  0  0  0  0  0  0  0  0  0  0  0
   17.9188   24.7689   10.7472 H   0  0  0  0  0  0  0  0  0  0  0  0
   17.3223   26.4769    9.0496 H   0  0  0  0  0  0  0  0  0  0  0  0
   17.1136   28.8611    9.7074 H   0  0  0  0  0  0  0  0  0  0  0  0
   17.4972   29.5406   12.0422 H   0  0  0  0  0  0  0  0  0  0  0  0
  1  2  2  0  0  0  0
  1  3  1  0  0  0  0
  1 43  1  0  0  0  0
  2  4  1  0  0  0  0
  3  5  1  0  0  0  0
  4  5  2  0  0  0  0
  4  9  1  0  0  0  0
  5  6  1  0  0  0  0
  6  7  2  0  0  0  0
  6 44  1  0  0  0  0
  7  8  1  0  0  0  0
  7 10  1  0  0  0  0
  8  9  2  0  0  0  0
  8 45  1  0  0  0  0
  9 46  1  0  0  0  0
 10 11  2  0  0  0  0
 10 12  2  0  0  0  0
 10 13  1  0  0  0  0
 13 14  1  0  0  0  0
 13 18  1  0  0  0  0
 14 15  1  0  0  0  0
 14 47  1  0  0  0  0
 14 48  1  0  0  0  0
 15 16  1  0  0  0  0
 15 17  1  0  0  0  0
 15 49  1  0  0  0  0
 16 23  1  0  0  0  0
 16 50  1  0  0  0  0
 16 51  1  0  0  0  0
 17 20  1  0  0  0  0
 17 52  1  0  0  0  0
 17 53  1  0  0  0  0
 18 19  1  0  0  0  0
 18 54  1  0  0  0  0
 18 55  1  0  0  0  0
 19 21  1  0  0  0  0
 19 22  1  0  0  0  0
 19 56  1  6  0  0  0
 20 57  1  0  0  0  0
 20 58  1  0  0  0  0
 20 59  1  0  0  0  0
 21 60  1  0  0  0  0
 22 24  1  0  0  0  0
 22 36  1  0  0  0  0
 22 61  1  6  0  0  0
 23 62  1  0  0  0  0
 23 63  1  0  0  0  0
 23 64  1  0  0  0  0
 24 25  1  0  0  0  0
 24 65  1  0  0  0  0
 25 26  2  0  0  0  0
 25 27  1  0  0  0  0
 27 28  1  0  0  0  0
 28 29  1  0  0  0  0
 28 35  1  0  0  0  0
 28 66  1  6  0  0  0
 29 30  1  0  0  0  0
 29 67  1  0  0  0  0
 29 68  1  0  0  0  0
 30 31  1  0  0  0  0
 31 32  1  0  0  0  0
 31 35  1  0  0  0  0
 31 69  1  6  0  0  0
 32 33  1  0  0  0  0
 33 34  1  0  0  0  0
 33 70  1  0  0  0  0
 33 71  1  0  0  0  0
 34 35  1  0  0  0  0
 34 72  1  0  0  0  0
 34 73  1  0  0  0  0
 35 74  1  6  0  0  0
 36 42  1  0  0  0  0
 36 75  1  0  0  0  0
 36 76  1  0  0  0  0
 37 38  2  0  0  0  0
 37 42  1  0  0  0  0
 37 77  1  0  0  0  0
 38 39  1  0  0  0  0
 38 78  1  0  0  0  0
 39 40  2  0  0  0  0
 39 79  1  0  0  0  0
 40 41  1  0  0  0  0
 40 80  1  0  0  0  0
 41 42  2  0  0  0  0
 41 81  1  0  0  0  0
M  END
$$$$
