A7D
 OpenBabel04091913113D

 46 48  0  0  1  0  0  0  0  0999 V2000
   13.7748    9.5505   -5.3306 N   0  0  0  0  0  0  0  0  0  0  0  0
   12.8187    9.2352   -4.4254 C   0  0  0  0  0  0  0  0  0  0  0  0
   12.8802    9.3081   -3.0778 N   0  0  0  0  0  0  0  0  0  0  0  0
   14.0810    9.7639   -2.6821 C   0  0  0  0  0  0  0  0  0  0  0  0
   15.1501   10.1156   -3.4882 C   0  0  0  0  0  0  0  0  0  0  0  0
   14.9682    9.9924   -4.8726 C   0  0  0  0  0  0  0  0  0  0  0  0
   15.9695   10.2901   -5.7695 N   0  0  0  0  0  0  0  0  0  0  0  0
   16.2389   10.5254   -2.7370 N   0  0  0  0  0  0  0  0  0  0  0  0
   15.8303   10.4176   -1.4929 C   0  0  0  0  0  0  0  0  0  0  0  0
   14.5410    9.9627   -1.4029 N   0  3  0  0  0  0  0  0  0  0  0  0
   14.8872    9.8545    9.5108 O   0  0  0  0  0  0  0  0  0  0  0  0
   16.3219    7.9745    7.4656 O   0  0  0  0  0  0  0  0  0  0  0  0
   12.5370    8.0983    1.8374 O   0  0  0  0  0  0  0  0  0  0  0  0
   14.4452    7.1824   -0.0466 O   0  0  0  0  0  0  0  0  0  0  0  0
   14.6669    8.4871    9.1646 C   0  0  0  0  0  0  0  0  0  0  0  0
   14.7540    9.2815    5.2995 C   0  0  0  0  0  0  0  0  0  0  0  0
   14.4636    9.4132    6.7964 C   0  0  0  0  0  0  0  0  0  0  0  0
   15.1933   10.5502    2.7958 C   0  0  0  0  0  0  0  0  0  0  0  0
   13.8509   10.6849    0.7550 O   0  0  0  0  0  0  0  0  0  0  0  0
   14.9319   10.9496    4.5587 S   0  0  0  0  0  0  0  0  0  0  0  0
   14.9245    8.2246    7.6595 C   0  0  1  0  0  0  0  0  0  0  0  0
   13.8739    8.5828    1.9098 C   0  0  1  0  0  0  0  0  0  0  0  0
   14.5572    8.4601    0.5551 C   0  0  2  0  0  0  0  0  0  0  0  0
   13.8956   10.1094    2.0991 C   0  0  1  0  0  0  0  0  0  0  0  0
   13.8475    9.5815   -0.1924 C   0  0  2  0  0  0  0  0  0  0  0  0
   11.8811    8.8723   -4.8399 H   0  0  0  0  0  0  0  0  0  0  0  0
   16.8342   10.6683   -5.4117 H   0  0  0  0  0  0  0  0  0  0  0  0
   15.7549   10.2620   -6.7485 H   0  0  0  0  0  0  0  0  0  0  0  0
   16.4354   10.6323   -0.6208 H   0  0  0  0  0  0  0  0  0  0  0  0
   14.6942    9.9570   10.4572 H   0  0  0  0  0  0  0  0  0  0  0  0
   16.4667    7.6291    6.5795 H   0  0  0  0  0  0  0  0  0  0  0  0
   12.0986    8.2583    2.6913 H   0  0  0  0  0  0  0  0  0  0  0  0
   14.8735    6.5393    0.5379 H   0  0  0  0  0  0  0  0  0  0  0  0
   13.6250    8.2567    9.4086 H   0  0  0  0  0  0  0  0  0  0  0  0
   15.3283    7.8762    9.7871 H   0  0  0  0  0  0  0  0  0  0  0  0
   13.9189    8.7564    4.8248 H   0  0  0  0  0  0  0  0  0  0  0  0
   15.6737    8.7285    5.1012 H   0  0  0  0  0  0  0  0  0  0  0  0
   13.3816    9.5425    6.9405 H   0  0  0  0  0  0  0  0  0  0  0  0
   14.9502   10.3191    7.1755 H   0  0  0  0  0  0  0  0  0  0  0  0
   15.9759    9.7856    2.7222 H   0  0  0  0  0  0  0  0  0  0  0  0
   15.5982   11.4449    2.3106 H   0  0  0  0  0  0  0  0  0  0  0  0
   14.3946    7.3086    7.3762 H   0  0  0  0  0  0  0  0  0  0  0  0
   14.3876    8.0231    2.6899 H   0  0  0  0  0  0  0  0  0  0  0  0
   15.6269    8.6882    0.6666 H   0  0  0  0  0  0  0  0  0  0  0  0
   13.0044   10.4783    2.6217 H   0  0  0  0  0  0  0  0  0  0  0  0
   12.8137    9.3339   -0.4469 H   0  0  0  0  0  0  0  0  0  0  0  0
  1  2  2  0  0  0  0
  1  6  1  0  0  0  0
  2  3  1  0  0  0  0
  2 26  1  0  0  0  0
  3  4  2  0  0  0  0
  4  5  1  0  0  0  0
  4 10  1  0  0  0  0
  5  6  2  0  0  0  0
  5  8  1  0  0  0  0
  6  7  1  0  0  0  0
  7 27  1  0  0  0  0
  7 28  1  0  0  0  0
  8  9  1  0  0  0  0
  9 10  2  0  0  0  0
  9 29  1  0  0  0  0
 10 25  1  0  0  0  0
 11 15  1  0  0  0  0
 11 30  1  0  0  0  0
 12 21  1  0  0  0  0
 12 31  1  0  0  0  0
 13 22  1  0  0  0  0
 13 32  1  0  0  0  0
 14 23  1  0  0  0  0
 14 33  1  0  0  0  0
 15 21  1  0  0  0  0
 15 34  1  0  0  0  0
 15 35  1  0  0  0  0
 16 17  1  0  0  0  0
 16 20  1  0  0  0  0
 16 36  1  0  0  0  0
 16 37  1  0  0  0  0
 17 21  1  0  0  0  0
 17 38  1  0  0  0  0
 17 39  1  0  0  0  0
 18 20  1  0  0  0  0
 18 24  1  0  0  0  0
 18 40  1  0  0  0  0
 18 41  1  0  0  0  0
 19 24  1  0  0  0  0
 19 25  1  0  0  0  0
 21 42  1  6  0  0  0
 22 23  1  0  0  0  0
 22 24  1  0  0  0  0
 22 43  1  1  0  0  0
 23 25  1  0  0  0  0
 23 44  1  1  0  0  0
 24 45  1  1  0  0  0
 25 46  1  6  0  0  0
M  CHG  1  10   1
M  END
$$$$
