A8D
 OpenBabel04091913133D

 30 31  0  0  1  0  0  0  0  0999 V2000
   11.0695    9.5719   -5.1809 C   0  0  0  0  0  0  0  0  0  0  0  0
   14.2832   10.5563    4.6877 C   0  0  0  0  0  0  0  0  0  0  0  0
   17.0340   11.3724    1.0785 O   0  0  0  0  0  0  0  0  0  0  0  0
   16.7697   10.4450    3.8270 O   0  0  0  0  0  0  0  0  0  0  0  0
   15.6486   12.6633    3.6485 O   0  0  0  0  0  0  0  0  0  0  0  0
   14.6741   10.1554   -4.7697 C   0  0  0  0  0  0  0  0  0  0  0  0
   15.7033   10.4566   -3.8806 C   0  0  0  0  0  0  0  0  0  0  0  0
   13.0619    9.9611   -3.0026 C   0  0  0  0  0  0  0  0  0  0  0  0
   14.1183   10.3922   -0.7048 C   0  0  0  0  0  0  0  0  0  0  0  0
   15.0113   10.8149    2.0193 N   0  0  0  0  0  0  0  0  0  0  0  0
   16.1746   10.7805   -1.4623 N   0  3  0  0  0  0  0  0  0  0  0  0
   12.4892    9.5914   -5.3606 O   0  0  0  0  0  0  0  0  0  0  0  0
   15.9163   10.9982    0.9578 C   0  0  0  0  0  0  0  0  0  0  0  0
   13.3544    9.9093   -4.3522 C   0  0  2  0  0  0  0  0  0  0  0  0
   15.3891   10.7150   -0.3402 C   0  0  1  0  0  0  0  0  0  0  0  0
   14.0913   10.2530   -2.0894 C   0  0  2  0  0  0  0  0  0  0  0  0
   15.3800   10.4996   -2.5360 C   0  0  1  0  0  0  0  0  0  0  0  0
   15.5739   11.2179    3.5521 S   0  0  0  0  0  0  0  0  0  0  0  0
   10.5999    9.2743   -6.1418 H   0  0  0  0  0  0  0  0  0  0  0  0
   10.6882   10.5657   -4.9278 H   0  0  0  0  0  0  0  0  0  0  0  0
   10.7607    8.8442   -4.4273 H   0  0  0  0  0  0  0  0  0  0  0  0
   14.2163    9.4627    4.5757 H   0  0  0  0  0  0  0  0  0  0  0  0
   13.3135   11.0092    4.4796 H   0  0  0  0  0  0  0  0  0  0  0  0
   14.5727   10.7743    5.7275 H   0  0  0  0  0  0  0  0  0  0  0  0
   14.9296   10.1178   -5.8231 H   0  0  0  0  0  0  0  0  0  0  0  0
   16.7174   10.6539   -4.1753 H   0  0  0  0  0  0  0  0  0  0  0  0
   12.0807    9.7921   -2.5954 H   0  0  0  0  0  0  0  0  0  0  0  0
   13.2681   10.2857   -0.0542 H   0  0  0  0  0  0  0  0  0  0  0  0
   14.0664   10.4832    1.8181 H   0  0  0  0  0  0  0  0  0  0  0  0
   17.1660   11.0055   -1.4950 H   0  0  0  0  0  0  0  0  0  0  0  0
  1 12  1  0  0  0  0
  1 19  1  0  0  0  0
  1 20  1  0  0  0  0
  1 21  1  0  0  0  0
  2 18  1  0  0  0  0
  2 22  1  0  0  0  0
  2 23  1  0  0  0  0
  2 24  1  0  0  0  0
  3 13  2  0  0  0  0
  4 18  2  0  0  0  0
  5 18  2  0  0  0  0
  6  7  1  0  0  0  0
  6 14  1  0  0  0  0
  6 25  1  0  0  0  0
  7 26  1  0  0  0  0
  8 14  1  0  0  0  0
  8 27  1  0  0  0  0
  9 15  1  0  0  0  0
  9 16  1  0  0  0  0
  9 28  1  0  0  0  0
 10 13  1  0  0  0  0
 10 18  1  0  0  0  0
 10 29  1  0  0  0  0
 11 15  1  0  0  0  0
 11 17  1  0  0  0  0
 11 30  1  0  0  0  0
 14 12  1  1  0  0  0
 15 13  1  6  0  0  0
 16  8  1  6  0  0  0
 16 17  1  0  0  0  0
 17  7  1  6  0  0  0
M  CHG  1  11   1
M  END
$$$$
