A8S
 OpenBabel04091913163D

 40 40  0  0  1  0  0  0  0  0999 V2000
   30.4650  -14.7421   22.5796 C   0  0  0  0  0  0  0  0  0  0  0  0
   31.7793  -15.4778   22.8774 C   0  0  0  0  0  0  0  0  0  0  0  0
   32.0010  -16.8288   22.2081 C   0  0  1  0  0  0  0  0  0  0  0  0
   31.8612  -16.9394   20.7175 C   0  0  0  0  0  0  0  0  0  0  0  0
   32.1919  -18.0525   20.0530 C   0  0  0  0  0  0  0  0  0  0  0  0
   33.2815  -17.4817   22.7395 C   0  0  0  0  0  0  0  0  0  0  0  0
   31.8265  -18.2411   18.6062 C   0  0  1  0  0  0  0  0  0  0  0  0
   30.8203  -17.3256   18.1968 O   0  0  0  0  0  0  0  0  0  0  0  0
   33.0362  -18.0493   17.7321 C   0  0  0  0  0  0  0  0  0  0  0  0
   33.7229  -19.1243   17.3161 C   0  0  0  0  0  0  0  0  0  0  0  0
   33.4519  -20.4521   17.7313 C   0  0  0  0  0  0  0  0  0  0  0  0
   34.3649  -21.4203   17.3040 O   0  0  0  0  0  0  0  0  0  0  0  0
   32.4266  -20.6736   18.4850 C   0  0  0  0  0  0  0  0  0  0  0  0
   29.9988  -14.0798   23.5503 O   0  0  0  0  0  0  0  0  0  0  0  0
   31.2674  -19.6920   18.4141 C   0  0  0  0  0  0  0  0  0  0  0  0
   30.0170  -14.8088   21.4036 O   0  0  0  0  0  0  0  0  0  0  0  0
   33.4324  -16.6660   17.2508 C   0  0  0  0  0  0  0  0  0  0  0  0
   30.6327  -19.9049   17.0088 C   0  0  0  0  0  0  0  0  0  0  0  0
   30.1585  -19.9841   19.4243 C   0  0  0  0  0  0  0  0  0  0  0  0
   31.8144  -15.6520   23.9701 H   0  0  0  0  0  0  0  0  0  0  0  0
   32.5981  -14.7997   22.6192 H   0  0  0  0  0  0  0  0  0  0  0  0
   31.1936  -17.4505   22.5967 H   0  0  0  0  0  0  0  0  0  0  0  0
   31.4051  -16.1284   20.1399 H   0  0  0  0  0  0  0  0  0  0  0  0
   32.6645  -18.8854   20.5912 H   0  0  0  0  0  0  0  0  0  0  0  0
   33.4542  -18.4448   22.2556 H   0  0  0  0  0  0  0  0  0  0  0  0
   33.1743  -17.6801   23.8126 H   0  0  0  0  0  0  0  0  0  0  0  0
   34.1571  -16.8490   22.5757 H   0  0  0  0  0  0  0  0  0  0  0  0
   30.0385  -17.4996   18.7458 H   0  0  0  0  0  0  0  0  0  0  0  0
   34.5249  -19.0280   16.6612 H   0  0  0  0  0  0  0  0  0  0  0  0
   33.9990  -22.2614   17.6336 H   0  0  0  0  0  0  0  0  0  0  0  0
   32.3573  -21.5437   19.1379 H   0  0  0  0  0  0  0  0  0  0  0  0
   34.3370  -16.6935   16.6186 H   0  0  0  0  0  0  0  0  0  0  0  0
   33.6353  -16.0184   18.1053 H   0  0  0  0  0  0  0  0  0  0  0  0
   32.6208  -16.2395   16.6562 H   0  0  0  0  0  0  0  0  0  0  0  0
   30.2397  -20.9299   16.9353 H   0  0  0  0  0  0  0  0  0  0  0  0
   31.3715  -19.7735   16.2088 H   0  0  0  0  0  0  0  0  0  0  0  0
   29.8097  -19.2053   16.8331 H   0  0  0  0  0  0  0  0  0  0  0  0
   30.5216  -19.8419   20.4459 H   0  0  0  0  0  0  0  0  0  0  0  0
   29.8184  -21.0197   19.3252 H   0  0  0  0  0  0  0  0  0  0  0  0
   29.2960  -19.3230   19.2696 H   0  0  0  0  0  0  0  0  0  0  0  0
  1  2  1  0  0  0  0
  1 14  2  0  0  0  0
  1 16  1  0  0  0  0
  2  3  1  0  0  0  0
  2 20  1  0  0  0  0
  2 21  1  0  0  0  0
  3  4  1  0  0  0  0
  3  6  1  0  0  0  0
  3 22  1  1  0  0  0
  4  5  2  0  0  0  0
  4 23  1  0  0  0  0
  5 24  1  0  0  0  0
  6 25  1  0  0  0  0
  6 26  1  0  0  0  0
  6 27  1  0  0  0  0
  7  5  1  1  0  0  0
  7  8  1  0  0  0  0
  7  9  1  0  0  0  0
  7 15  1  0  0  0  0
  8 28  1  0  0  0  0
  9 10  2  0  0  0  0
  9 17  1  0  0  0  0
 10 11  1  0  0  0  0
 10 29  1  0  0  0  0
 11 12  1  0  0  0  0
 11 13  2  0  0  0  0
 12 30  1  0  0  0  0
 13 15  1  0  0  0  0
 13 31  1  0  0  0  0
 15 18  1  0  0  0  0
 15 19  1  0  0  0  0
 17 32  1  0  0  0  0
 17 33  1  0  0  0  0
 17 34  1  0  0  0  0
 18 35  1  0  0  0  0
 18 36  1  0  0  0  0
 18 37  1  0  0  0  0
 19 38  1  0  0  0  0
 19 39  1  0  0  0  0
 19 40  1  0  0  0  0
M  END
$$$$
