AAQ
 OpenBabel04091912423D

 49 52  0  0  0  0  0  0  0  0999 V2000
   19.2042   17.7986   18.0766 N   0  0  0  0  0  0  0  0  0  0  0  0
   18.4559   17.4206   19.1540 C   0  0  0  0  0  0  0  0  0  0  0  0
   18.7348   17.4403   20.5329 C   0  0  0  0  0  0  0  0  0  0  0  0
   17.6859   17.0779   21.3973 C   0  0  0  0  0  0  0  0  0  0  0  0
   16.4436   16.6248   20.9101 C   0  0  0  0  0  0  0  0  0  0  0  0
   16.2078   16.5405   19.5259 C   0  0  0  0  0  0  0  0  0  0  0  0
   14.9180   16.1378   18.9086 C   0  0  0  0  0  0  0  0  0  0  0  0
   15.0586   14.7240   18.3828 C   0  0  0  0  0  0  0  0  0  0  0  0
   14.1687   14.4969   17.2178 N   0  3  0  0  0  0  0  0  0  0  0  0
   12.7297   14.3252   17.5733 C   0  0  0  0  0  0  0  0  0  0  0  0
   11.9398   15.4689   17.0392 C   0  0  0  0  0  0  0  0  0  0  0  0
   11.7087   16.5931   17.8403 C   0  0  0  0  0  0  0  0  0  0  0  0
   10.9836   17.6743   17.3593 C   0  0  0  0  0  0  0  0  0  0  0  0
   10.4950   17.6298   16.0590 C   0  0  0  0  0  0  0  0  0  0  0  0
   10.7356   16.5184   15.2480 C   0  0  0  0  0  0  0  0  0  0  0  0
   11.4648   15.4379   15.7306 C   0  0  0  0  0  0  0  0  0  0  0  0
   17.2385   16.9600   18.6885 C   0  0  0  0  0  0  0  0  0  0  0  0
   17.2624   17.0622   17.3072 N   0  3  0  0  0  0  0  0  0  0  0  0
   18.4752   17.6416   17.0081 C   0  0  0  0  0  0  0  0  0  0  0  0
   18.9043   17.8613   15.7633 N   0  0  0  0  0  0  0  0  0  0  0  0
   18.0776   17.7264   14.5951 C   0  0  0  0  0  0  0  0  0  0  0  0
   15.4157   16.3272   21.8178 N   0  3  0  0  0  0  0  0  0  0  0  0
   15.5659   16.4537   23.1672 C   0  0  0  0  0  0  0  0  0  0  0  0
   14.6568   16.1120   23.9940 N   0  0  0  0  0  0  0  0  0  0  0  0
   16.7463   16.9449   23.6420 N   0  3  0  0  0  0  0  0  0  0  0  0
   17.8678   17.2059   22.8645 C   0  0  0  0  0  0  0  0  0  0  0  0
   18.9609   17.5140   23.3308 O   0  0  0  0  0  0  0  0  0  0  0  0
   19.7109   17.7344   20.9311 H   0  0  0  0  0  0  0  0  0  0  0  0
   14.6733   16.8373   18.0932 H   0  0  0  0  0  0  0  0  0  0  0  0
   14.1170   16.1890   19.6420 H   0  0  0  0  0  0  0  0  0  0  0  0
   14.7846   14.0046   19.1528 H   0  0  0  0  0  0  0  0  0  0  0  0
   16.0824   14.5353   18.0479 H   0  0  0  0  0  0  0  0  0  0  0  0
   14.2452   15.2896   16.5634 H   0  0  0  0  0  0  0  0  0  0  0  0
   12.6433   14.2763   18.6633 H   0  0  0  0  0  0  0  0  0  0  0  0
   12.3702   13.3815   17.1470 H   0  0  0  0  0  0  0  0  0  0  0  0
   12.0845   16.6187   18.8569 H   0  0  0  0  0  0  0  0  0  0  0  0
   10.7955   18.5424   17.9905 H   0  0  0  0  0  0  0  0  0  0  0  0
    9.9205   18.4653   15.6686 H   0  0  0  0  0  0  0  0  0  0  0  0
   10.3456   16.5010   14.2350 H   0  0  0  0  0  0  0  0  0  0  0  0
   11.6421   14.5724   15.0946 H   0  0  0  0  0  0  0  0  0  0  0  0
   16.5713   16.7716   16.6529 H   0  0  0  0  0  0  0  0  0  0  0  0
   19.8814   18.1210   15.6595 H   0  0  0  0  0  0  0  0  0  0  0  0
   18.6617   17.9295   13.6949 H   0  0  0  0  0  0  0  0  0  0  0  0
   17.2418   18.4325   14.6510 H   0  0  0  0  0  0  0  0  0  0  0  0
   17.6798   16.7060   14.5408 H   0  0  0  0  0  0  0  0  0  0  0  0
   14.5411   15.9458   21.5095 H   0  0  0  0  0  0  0  0  0  0  0  0
   14.9404   16.1670   24.9677 H   0  0  0  0  0  0  0  0  0  0  0  0
   16.8548   17.0747   24.6371 H   0  0  0  0  0  0  0  0  0  0  0  0
   14.4858   13.6650   16.7056 H   0  0  0  0  0  0  0  0  0  0  0  0
  1  2  2  0  0  0  0
  1 19  1  0  0  0  0
  2  3  1  0  0  0  0
  2 17  1  0  0  0  0
  3  4  2  0  0  0  0
  3 28  1  0  0  0  0
  4  5  1  0  0  0  0
  4 26  1  0  0  0  0
  5  6  1  0  0  0  0
  5 22  2  0  0  0  0
  6  7  1  0  0  0  0
  6 17  2  0  0  0  0
  7  8  1  0  0  0  0
  7 29  1  0  0  0  0
  7 30  1  0  0  0  0
  8  9  1  0  0  0  0
  8 31  1  0  0  0  0
  8 32  1  0  0  0  0
  9 10  1  0  0  0  0
  9 33  1  0  0  0  0
  9 49  1  0  0  0  0
 10 11  1  0  0  0  0
 10 34  1  0  0  0  0
 10 35  1  0  0  0  0
 11 12  2  0  0  0  0
 11 16  1  0  0  0  0
 12 13  1  0  0  0  0
 12 36  1  0  0  0  0
 13 14  2  0  0  0  0
 13 37  1  0  0  0  0
 14 15  1  0  0  0  0
 14 38  1  0  0  0  0
 15 16  2  0  0  0  0
 15 39  1  0  0  0  0
 16 40  1  0  0  0  0
 17 18  1  0  0  0  0
 18 19  2  0  0  0  0
 18 41  1  0  0  0  0
 19 20  1  0  0  0  0
 20 21  1  0  0  0  0
 20 42  1  0  0  0  0
 21 43  1  0  0  0  0
 21 44  1  0  0  0  0
 21 45  1  0  0  0  0
 22 23  1  0  0  0  0
 22 46  1  0  0  0  0
 23 24  2  0  0  0  0
 23 25  1  0  0  0  0
 24 47  1  0  0  0  0
 25 26  1  0  0  0  0
 25 48  1  0  0  0  0
 26 27  2  0  0  0  0
M  CHG  4   9   1  18   1  22   1  25   1
M  END
$$$$
