ACR
 OpenBabel04091916303D

 88 91  0  0  1  0  0  0  0  0999 V2000
   -0.3540   -7.3459  -21.4495 C   0  0  2  0  0  0  0  0  0  0  0  0
    0.0635   -8.5121  -22.3939 C   0  0  1  0  0  0  0  0  0  0  0  0
   -1.0899   -8.9418  -23.3247 C   0  0  2  0  0  0  0  0  0  0  0  0
   -2.2965   -9.4074  -22.4744 C   0  0  1  0  0  0  0  0  0  0  0  0
   -2.5889   -8.4611  -21.3293 C   0  0  0  0  0  0  0  0  0  0  0  0
   -3.9144   -8.6538  -20.6434 C   0  0  0  0  0  0  0  0  0  0  0  0
   -1.7014   -7.5322  -20.8789 C   0  0  0  0  0  0  0  0  0  0  0  0
    1.2617   -8.1520  -23.0981 O   0  0  0  0  0  0  0  0  0  0  0  0
   -0.6743  -10.0182  -24.1739 O   0  0  0  0  0  0  0  0  0  0  0  0
   -3.4357   -9.4656  -23.3242 O   0  0  0  0  0  0  0  0  0  0  0  0
   -3.7895   -9.7675  -19.7829 O   0  0  0  0  0  0  0  0  0  0  0  0
   -0.5988   -1.9189  -20.8482 C   0  0  2  0  0  0  0  0  0  0  0  0
    0.3571   -2.8509  -20.0737 C   0  0  1  0  0  0  0  0  0  0  0  0
    0.7173   -4.0614  -20.9522 C   0  0  2  0  0  0  0  0  0  0  0  0
   -0.5798   -4.7707  -21.3856 C   0  0  1  0  0  0  0  0  0  0  0  0
   -1.4718   -3.7689  -22.1345 C   0  0  1  0  0  0  0  0  0  0  0  0
   -2.8202   -4.3736  -22.5042 C   0  0  0  0  0  0  0  0  0  0  0  0
   -0.2816   -6.0136  -22.2053 N   0  3  0  0  0  0  0  0  0  0  0  0
    1.5642   -2.1700  -19.7128 O   0  0  0  0  0  0  0  0  0  0  0  0
    1.5388   -4.9851  -20.2269 O   0  0  0  0  0  0  0  0  0  0  0  0
   -1.7505   -2.6389  -21.3004 O   0  0  0  0  0  0  0  0  0  0  0  0
   -0.3593    2.0656  -24.2981 C   0  0  2  0  0  0  0  0  0  0  0  0
   -1.1196    2.0482  -22.9612 C   0  0  1  0  0  0  0  0  0  0  0  0
   -0.4905    1.0195  -22.0159 C   0  0  2  0  0  0  0  0  0  0  0  0
   -0.5355   -0.3610  -22.6845 C   0  0  1  0  0  0  0  0  0  0  0  0
    0.2336   -0.2611  -24.0061 C   0  0  1  0  0  0  0  0  0  0  0  0
    0.2584   -1.5947  -24.7613 C   0  0  0  0  0  0  0  0  0  0  0  0
   -1.0790    3.3283  -22.3099 O   0  0  0  0  0  0  0  0  0  0  0  0
   -1.2136    1.0334  -20.7808 O   0  0  0  0  0  0  0  0  0  0  0  0
    0.1388   -1.3761  -21.9357 O   0  0  0  0  0  0  0  0  0  0  0  0
   -0.2569    0.7585  -24.8791 O   0  0  0  0  0  0  0  0  0  0  0  0
   -1.0493   -1.9592  -25.1868 O   0  0  0  0  0  0  0  0  0  0  0  0
    3.8745    4.6776  -26.1037 C   0  0  1  0  0  0  0  0  0  0  0  0
    2.4366    5.0012  -26.5604 C   0  0  1  0  0  0  0  0  0  0  0  0
    1.3965    4.4955  -25.5489 C   0  0  2  0  0  0  0  0  0  0  0  0
    1.6782    3.0360  -25.1556 C   0  0  1  0  0  0  0  0  0  0  0  0
    3.1556    2.8694  -24.7730 C   0  0  1  0  0  0  0  0  0  0  0  0
    3.4301    1.3987  -24.4812 C   0  0  0  0  0  0  0  0  0  0  0  0
    4.2407    5.4034  -24.9417 O   0  0  0  0  0  0  0  0  0  0  0  0
    2.2734    6.4072  -26.7825 O   0  0  0  0  0  0  0  0  0  0  0  0
    0.0901    4.5539  -26.1540 O   0  0  0  0  0  0  0  0  0  0  0  0
    0.9148    2.6427  -24.0061 O   0  0  0  0  0  0  0  0  0  0  0  0
    4.0116    3.2893  -25.8379 O   0  0  0  0  0  0  0  0  0  0  0  0
    4.6735    1.1972  -23.8319 O   0  0  0  0  0  0  0  0  0  0  0  0
    0.3871   -7.2547  -20.6579 H   0  0  0  0  0  0  0  0  0  0  0  0
    0.3225   -9.3758  -21.7708 H   0  0  0  0  0  0  0  0  0  0  0  0
   -1.3864   -8.1170  -23.9872 H   0  0  0  0  0  0  0  0  0  0  0  0
   -2.1028  -10.4224  -22.0977 H   0  0  0  0  0  0  0  0  0  0  0  0
   -4.7305   -8.8420  -21.3473 H   0  0  0  0  0  0  0  0  0  0  0  0
   -4.2036   -7.7723  -20.0667 H   0  0  0  0  0  0  0  0  0  0  0  0
   -1.9825   -6.9580  -20.0138 H   0  0  0  0  0  0  0  0  0  0  0  0
    1.0646   -7.7214  -23.9434 H   0  0  0  0  0  0  0  0  0  0  0  0
    0.0605   -9.7306  -24.7412 H   0  0  0  0  0  0  0  0  0  0  0  0
   -4.0495  -10.1176  -22.9310 H   0  0  0  0  0  0  0  0  0  0  0  0
   -3.1256   -9.5433  -19.1083 H   0  0  0  0  0  0  0  0  0  0  0  0
   -0.9287   -1.1307  -20.1681 H   0  0  0  0  0  0  0  0  0  0  0  0
   -0.1351   -3.1906  -19.1539 H   0  0  0  0  0  0  0  0  0  0  0  0
    1.3027   -3.7452  -21.8256 H   0  0  0  0  0  0  0  0  0  0  0  0
   -1.0956   -5.0892  -20.4761 H   0  0  0  0  0  0  0  0  0  0  0  0
   -0.9788   -3.4384  -23.0507 H   0  0  0  0  0  0  0  0  0  0  0  0
   -3.4454   -3.6298  -23.0078 H   0  0  0  0  0  0  0  0  0  0  0  0
   -3.3554   -4.6859  -21.6015 H   0  0  0  0  0  0  0  0  0  0  0  0
   -2.7256   -5.2355  -23.1693 H   0  0  0  0  0  0  0  0  0  0  0  0
    0.6796   -5.9507  -22.5798 H   0  0  0  0  0  0  0  0  0  0  0  0
    2.0149   -2.6658  -19.0097 H   0  0  0  0  0  0  0  0  0  0  0  0
    2.3446   -4.4978  -19.9600 H   0  0  0  0  0  0  0  0  0  0  0  0
   -0.9009    2.7023  -25.0017 H   0  0  0  0  0  0  0  0  0  0  0  0
   -2.1727    1.7949  -23.1289 H   0  0  0  0  0  0  0  0  0  0  0  0
    0.5420    1.2929  -21.7600 H   0  0  0  0  0  0  0  0  0  0  0  0
   -1.5760   -0.6509  -22.8685 H   0  0  0  0  0  0  0  0  0  0  0  0
    1.2740   -0.0806  -23.7640 H   0  0  0  0  0  0  0  0  0  0  0  0
    0.6561   -2.3999  -24.1349 H   0  0  0  0  0  0  0  0  0  0  0  0
    0.8956   -1.5295  -25.6477 H   0  0  0  0  0  0  0  0  0  0  0  0
   -0.1494    3.6304  -22.3624 H   0  0  0  0  0  0  0  0  0  0  0  0
   -1.2509    1.9739  -20.5105 H   0  0  0  0  0  0  0  0  0  0  0  0
   -1.3694   -1.1913  -25.7038 H   0  0  0  0  0  0  0  0  0  0  0  0
    4.5729    4.9462  -26.9033 H   0  0  0  0  0  0  0  0  0  0  0  0
    2.2541    4.5000  -27.5192 H   0  0  0  0  0  0  0  0  0  0  0  0
    1.3562    5.1368  -24.6588 H   0  0  0  0  0  0  0  0  0  0  0  0
    1.4385    2.3821  -26.0048 H   0  0  0  0  0  0  0  0  0  0  0  0
    3.3833    3.4326  -23.8575 H   0  0  0  0  0  0  0  0  0  0  0  0
    3.4028    0.8031  -25.3991 H   0  0  0  0  0  0  0  0  0  0  0  0
    2.6885    1.0440  -23.7774 H   0  0  0  0  0  0  0  0  0  0  0  0
    5.1916    5.2265  -24.8319 H   0  0  0  0  0  0  0  0  0  0  0  0
    1.3873    6.5621  -27.1441 H   0  0  0  0  0  0  0  0  0  0  0  0
   -0.1243    5.4877  -26.3177 H   0  0  0  0  0  0  0  0  0  0  0  0
    4.7219    0.2479  -23.6284 H   0  0  0  0  0  0  0  0  0  0  0  0
   -0.8917   -6.0802  -23.0295 H   0  0  0  0  0  0  0  0  0  0  0  0
  1  2  1  0  0  0  0
  1  7  1  0  0  0  0
  1 18  1  0  0  0  0
  1 45  1  1  0  0  0
  2  3  1  0  0  0  0
  2  8  1  0  0  0  0
  2 46  1  1  0  0  0
  3  4  1  0  0  0  0
  3  9  1  0  0  0  0
  3 47  1  6  0  0  0
  4  5  1  0  0  0  0
  4 10  1  0  0  0  0
  4 48  1  1  0  0  0
  5  6  1  0  0  0  0
  5  7  2  0  0  0  0
  6 11  1  0  0  0  0
  6 49  1  0  0  0  0
  6 50  1  0  0  0  0
  7 51  1  0  0  0  0
  8 52  1  0  0  0  0
  9 53  1  0  0  0  0
 10 54  1  0  0  0  0
 11 55  1  0  0  0  0
 12 13  1  0  0  0  0
 12 21  1  0  0  0  0
 12 30  1  0  0  0  0
 12 56  1  1  0  0  0
 13 14  1  0  0  0  0
 13 19  1  0  0  0  0
 13 57  1  1  0  0  0
 14 15  1  0  0  0  0
 14 20  1  0  0  0  0
 14 58  1  6  0  0  0
 15 16  1  0  0  0  0
 15 18  1  0  0  0  0
 15 59  1  1  0  0  0
 16 17  1  0  0  0  0
 16 21  1  0  0  0  0
 16 60  1  6  0  0  0
 17 61  1  0  0  0  0
 17 62  1  0  0  0  0
 17 63  1  0  0  0  0
 18 64  1  0  0  0  0
 18 88  1  0  0  0  0
 19 65  1  0  0  0  0
 20 66  1  0  0  0  0
 22 23  1  0  0  0  0
 22 31  1  0  0  0  0
 22 42  1  0  0  0  0
 22 67  1  6  0  0  0
 23 24  1  0  0  0  0
 23 28  1  0  0  0  0
 23 68  1  6  0  0  0
 24 25  1  0  0  0  0
 24 29  1  0  0  0  0
 24 69  1  1  0  0  0
 25 26  1  0  0  0  0
 25 30  1  0  0  0  0
 25 70  1  6  0  0  0
 26 27  1  0  0  0  0
 26 31  1  0  0  0  0
 26 71  1  1  0  0  0
 27 32  1  0  0  0  0
 27 72  1  0  0  0  0
 27 73  1  0  0  0  0
 28 74  1  0  0  0  0
 29 75  1  0  0  0  0
 32 76  1  0  0  0  0
 33 34  1  0  0  0  0
 33 39  1  0  0  0  0
 33 43  1  0  0  0  0
 33 77  1  6  0  0  0
 34 35  1  0  0  0  0
 34 40  1  0  0  0  0
 34 78  1  6  0  0  0
 35 36  1  0  0  0  0
 35 41  1  0  0  0  0
 35 79  1  1  0  0  0
 36 37  1  0  0  0  0
 36 42  1  0  0  0  0
 36 80  1  6  0  0  0
 37 38  1  0  0  0  0
 37 43  1  0  0  0  0
 37 81  1  1  0  0  0
 38 44  1  0  0  0  0
 38 82  1  0  0  0  0
 38 83  1  0  0  0  0
 39 84  1  0  0  0  0
 40 85  1  0  0  0  0
 41 86  1  0  0  0  0
 44 87  1  0  0  0  0
M  CHG  1  18   1
M  END
$$$$
