ACR
 OpenBabel04091913193D

 88 91  0  0  1  0  0  0  0  0999 V2000
   -6.0462  -11.7179   22.0950 C   0  0  2  0  0  0  0  0  0  0  0  0
   -5.2539  -12.6541   21.1519 C   0  0  1  0  0  0  0  0  0  0  0  0
   -5.6802  -12.3909   19.7004 C   0  0  2  0  0  0  0  0  0  0  0  0
   -7.1823  -12.7188   19.5124 C   0  0  1  0  0  0  0  0  0  0  0  0
   -8.0538  -12.1996   20.6460 C   0  0  0  0  0  0  0  0  0  0  0  0
   -9.5352  -12.1820   20.3771 C   0  0  0  0  0  0  0  0  0  0  0  0
   -7.5171  -11.8079   21.8277 C   0  0  0  0  0  0  0  0  0  0  0  0
   -3.8515  -12.4131   21.3061 O   0  0  0  0  0  0  0  0  0  0  0  0
   -4.8372  -13.1056   18.8048 O   0  0  0  0  0  0  0  0  0  0  0  0
   -7.5941  -12.1507   18.2893 O   0  0  0  0  0  0  0  0  0  0  0  0
  -10.2946  -11.7297   21.4729 O   0  0  0  0  0  0  0  0  0  0  0  0
   -4.6007   -6.7474   23.9182 C   0  0  2  0  0  0  0  0  0  0  0  0
   -3.7776   -7.9836   24.3399 C   0  0  1  0  0  0  0  0  0  0  0  0
   -3.8859   -9.0009   23.1838 C   0  0  2  0  0  0  0  0  0  0  0  0
   -5.3574   -9.4269   23.0734 C   0  0  1  0  0  0  0  0  0  0  0  0
   -6.2540   -8.1934   22.9234 C   0  0  1  0  0  0  0  0  0  0  0  0
   -7.7127   -8.5684   23.1407 C   0  0  0  0  0  0  0  0  0  0  0  0
   -5.5492  -10.3136   21.8793 N   0  3  0  0  0  0  0  0  0  0  0  0
   -2.4282   -7.6818   24.6278 O   0  0  0  0  0  0  0  0  0  0  0  0
   -3.1160  -10.1774   23.3834 O   0  0  0  0  0  0  0  0  0  0  0  0
   -5.9572   -7.1835   23.8879 O   0  0  0  0  0  0  0  0  0  0  0  0
   -4.2224   -2.6804   20.4464 C   0  0  2  0  0  0  0  0  0  0  0  0
   -3.0102   -2.9361   21.3338 C   0  0  1  0  0  0  0  0  0  0  0  0
   -2.9364   -4.4328   21.6904 C   0  0  2  0  0  0  0  0  0  0  0  0
   -4.2394   -4.8654   22.3980 C   0  0  1  0  0  0  0  0  0  0  0  0
   -5.4037   -4.5062   21.4574 C   0  0  1  0  0  0  0  0  0  0  0  0
   -6.7433   -4.7639   22.1350 C   0  0  0  0  0  0  0  0  0  0  0  0
   -1.8036   -2.5235   20.6980 O   0  0  0  0  0  0  0  0  0  0  0  0
   -1.8336   -4.6119   22.5874 O   0  0  0  0  0  0  0  0  0  0  0  0
   -4.1356   -6.2861   22.6418 O   0  0  0  0  0  0  0  0  0  0  0  0
   -5.4006   -3.1083   21.1167 O   0  0  0  0  0  0  0  0  0  0  0  0
   -7.7919   -4.6653   21.1973 O   0  0  0  0  0  0  0  0  0  0  0  0
   -4.1129   -2.6566   15.1677 C   0  0  1  0  0  0  0  0  0  0  0  0
   -3.3332   -1.6285   15.9912 C   0  0  1  0  0  0  0  0  0  0  0  0
   -3.0474   -2.2284   17.3709 C   0  0  2  0  0  0  0  0  0  0  0  0
   -4.3680   -2.6129   18.0526 C   0  0  1  0  0  0  0  0  0  0  0  0
   -5.2167   -3.4938   17.1223 C   0  0  1  0  0  0  0  0  0  0  0  0
   -6.6265   -3.6815   17.6928 C   0  0  0  0  0  0  0  0  0  0  0  0
   -3.3205   -3.8194   15.0789 O   0  0  0  0  0  0  0  0  0  0  0  0
   -2.0907   -1.2402   15.3915 O   0  0  0  0  0  0  0  0  0  0  0  0
   -2.3805   -1.2436   18.1894 O   0  0  0  0  0  0  0  0  0  0  0  0
   -4.0719   -3.3933   19.2197 O   0  0  0  0  0  0  0  0  0  0  0  0
   -5.3595   -2.9503   15.7899 O   0  0  0  0  0  0  0  0  0  0  0  0
   -7.3233   -2.4315   17.6773 O   0  0  0  0  0  0  0  0  0  0  0  0
   -5.8380  -11.9854   23.1339 H   0  0  0  0  0  0  0  0  0  0  0  0
   -5.4702  -13.6875   21.4435 H   0  0  0  0  0  0  0  0  0  0  0  0
   -5.5113  -11.3291   19.4700 H   0  0  0  0  0  0  0  0  0  0  0  0
   -7.2880  -13.8046   19.4611 H   0  0  0  0  0  0  0  0  0  0  0  0
   -9.8676  -13.1782   20.0811 H   0  0  0  0  0  0  0  0  0  0  0  0
   -9.7207  -11.4781   19.5550 H   0  0  0  0  0  0  0  0  0  0  0  0
   -8.1861  -11.5913   22.6500 H   0  0  0  0  0  0  0  0  0  0  0  0
   -3.3767  -13.0386   20.7161 H   0  0  0  0  0  0  0  0  0  0  0  0
   -4.9841  -14.0687   18.8894 H   0  0  0  0  0  0  0  0  0  0  0  0
   -8.5044  -12.4361   18.0745 H   0  0  0  0  0  0  0  0  0  0  0  0
  -10.2145  -12.3660   22.2148 H   0  0  0  0  0  0  0  0  0  0  0  0
   -4.4879   -5.9741   24.6798 H   0  0  0  0  0  0  0  0  0  0  0  0
   -4.2173   -8.4326   25.2358 H   0  0  0  0  0  0  0  0  0  0  0  0
   -3.5441   -8.5369   22.2467 H   0  0  0  0  0  0  0  0  0  0  0  0
   -5.6286   -9.9989   23.9700 H   0  0  0  0  0  0  0  0  0  0  0  0
   -6.1302   -7.7832   21.9096 H   0  0  0  0  0  0  0  0  0  0  0  0
   -8.3488   -7.6849   23.0391 H   0  0  0  0  0  0  0  0  0  0  0  0
   -7.8496   -8.9601   24.1554 H   0  0  0  0  0  0  0  0  0  0  0  0
   -8.0549   -9.3165   22.4273 H   0  0  0  0  0  0  0  0  0  0  0  0
   -4.6130  -10.4086   21.4301 H   0  0  0  0  0  0  0  0  0  0  0  0
   -2.0229   -7.2732   23.8507 H   0  0  0  0  0  0  0  0  0  0  0  0
   -2.1760   -9.9227   23.4987 H   0  0  0  0  0  0  0  0  0  0  0  0
   -4.2865   -1.6003   20.2784 H   0  0  0  0  0  0  0  0  0  0  0  0
   -3.1046   -2.3877   22.2809 H   0  0  0  0  0  0  0  0  0  0  0  0
   -2.7628   -5.0515   20.7984 H   0  0  0  0  0  0  0  0  0  0  0  0
   -4.3308   -4.3108   23.3384 H   0  0  0  0  0  0  0  0  0  0  0  0
   -5.3344   -5.1126   20.5445 H   0  0  0  0  0  0  0  0  0  0  0  0
   -6.8926   -4.0617   22.9563 H   0  0  0  0  0  0  0  0  0  0  0  0
   -6.7723   -5.7650   22.5244 H   0  0  0  0  0  0  0  0  0  0  0  0
   -1.9348   -1.5745   20.4553 H   0  0  0  0  0  0  0  0  0  0  0  0
   -1.7934   -5.5555   22.8195 H   0  0  0  0  0  0  0  0  0  0  0  0
   -8.6526   -4.8013   21.6484 H   0  0  0  0  0  0  0  0  0  0  0  0
   -4.2821   -2.2482   14.1572 H   0  0  0  0  0  0  0  0  0  0  0  0
   -3.9478   -0.7324   16.1244 H   0  0  0  0  0  0  0  0  0  0  0  0
   -2.3869   -3.1084   17.2919 H   0  0  0  0  0  0  0  0  0  0  0  0
   -4.9082   -1.6929   18.2978 H   0  0  0  0  0  0  0  0  0  0  0  0
   -4.7556   -4.4846   17.0669 H   0  0  0  0  0  0  0  0  0  0  0  0
   -6.6107   -4.0549   18.7275 H   0  0  0  0  0  0  0  0  0  0  0  0
   -7.2022   -4.4024   17.0949 H   0  0  0  0  0  0  0  0  0  0  0  0
   -3.8423   -4.4640   14.5363 H   0  0  0  0  0  0  0  0  0  0  0  0
   -2.2877   -0.8849   14.5045 H   0  0  0  0  0  0  0  0  0  0  0  0
   -1.5464   -1.0254   17.7058 H   0  0  0  0  0  0  0  0  0  0  0  0
   -7.3025   -2.1226   16.7402 H   0  0  0  0  0  0  0  0  0  0  0  0
   -6.1711   -9.8444   21.2186 H   0  0  0  0  0  0  0  0  0  0  0  0
  1  2  1  0  0  0  0
  1  7  1  0  0  0  0
  1 18  1  0  0  0  0
  1 45  1  1  0  0  0
  2  3  1  0  0  0  0
  2  8  1  0  0  0  0
  2 46  1  1  0  0  0
  3  4  1  0  0  0  0
  3  9  1  0  0  0  0
  3 47  1  6  0  0  0
  4  5  1  0  0  0  0
  4 10  1  0  0  0  0
  4 48  1  6  0  0  0
  5  6  1  0  0  0  0
  5  7  2  0  0  0  0
  6 11  1  0  0  0  0
  6 49  1  0  0  0  0
  6 50  1  0  0  0  0
  7 51  1  0  0  0  0
  8 52  1  0  0  0  0
  9 53  1  0  0  0  0
 10 54  1  0  0  0  0
 11 55  1  0  0  0  0
 12 13  1  0  0  0  0
 12 21  1  0  0  0  0
 12 30  1  0  0  0  0
 12 56  1  1  0  0  0
 13 14  1  0  0  0  0
 13 19  1  0  0  0  0
 13 57  1  1  0  0  0
 14 15  1  0  0  0  0
 14 20  1  0  0  0  0
 14 58  1  6  0  0  0
 15 16  1  0  0  0  0
 15 18  1  0  0  0  0
 15 59  1  1  0  0  0
 16 17  1  0  0  0  0
 16 21  1  0  0  0  0
 16 60  1  6  0  0  0
 17 61  1  0  0  0  0
 17 62  1  0  0  0  0
 17 63  1  0  0  0  0
 18 64  1  0  0  0  0
 18 88  1  0  0  0  0
 19 65  1  0  0  0  0
 20 66  1  0  0  0  0
 22 23  1  0  0  0  0
 22 31  1  0  0  0  0
 22 42  1  0  0  0  0
 22 67  1  6  0  0  0
 23 24  1  0  0  0  0
 23 28  1  0  0  0  0
 23 68  1  1  0  0  0
 24 25  1  0  0  0  0
 24 29  1  0  0  0  0
 24 69  1  6  0  0  0
 25 26  1  0  0  0  0
 25 30  1  0  0  0  0
 25 70  1  1  0  0  0
 26 27  1  0  0  0  0
 26 31  1  0  0  0  0
 26 71  1  6  0  0  0
 27 32  1  0  0  0  0
 27 72  1  0  0  0  0
 27 73  1  0  0  0  0
 28 74  1  0  0  0  0
 29 75  1  0  0  0  0
 32 76  1  0  0  0  0
 33 34  1  0  0  0  0
 33 39  1  0  0  0  0
 33 43  1  0  0  0  0
 33 77  1  6  0  0  0
 34 35  1  0  0  0  0
 34 40  1  0  0  0  0
 34 78  1  1  0  0  0
 35 36  1  0  0  0  0
 35 41  1  0  0  0  0
 35 79  1  6  0  0  0
 36 37  1  0  0  0  0
 36 42  1  0  0  0  0
 36 80  1  1  0  0  0
 37 38  1  0  0  0  0
 37 43  1  0  0  0  0
 37 81  1  6  0  0  0
 38 44  1  0  0  0  0
 38 82  1  0  0  0  0
 38 83  1  0  0  0  0
 39 84  1  0  0  0  0
 40 85  1  0  0  0  0
 41 86  1  0  0  0  0
 44 87  1  0  0  0  0
M  CHG  1  18   1
M  END
$$$$
