ACR
 OpenBabel04091913193D

 88 91  0  0  1  0  0  0  0  0999 V2000
   22.3960   -8.8496   17.0715 C   0  0  2  0  0  0  0  0  0  0  0  0
   23.4408   -7.7347   17.3662 C   0  0  1  0  0  0  0  0  0  0  0  0
   24.6733   -7.8510   16.4762 C   0  0  2  0  0  0  0  0  0  0  0  0
   25.3201   -9.2440   16.5860 C   0  0  1  0  0  0  0  0  0  0  0  0
   24.2924  -10.3333   16.4403 C   0  0  0  0  0  0  0  0  0  0  0  0
   24.8021  -11.7232   16.1044 C   0  0  0  0  0  0  0  0  0  0  0  0
   22.9924  -10.1336   16.6376 C   0  0  0  0  0  0  0  0  0  0  0  0
   22.8355   -6.4409   17.1052 O   0  0  0  0  0  0  0  0  0  0  0  0
   25.6363   -6.8525   16.8362 O   0  0  0  0  0  0  0  0  0  0  0  0
   26.2720   -9.3380   15.5173 O   0  0  0  0  0  0  0  0  0  0  0  0
   24.9749  -12.4200   17.3295 O   0  0  0  0  0  0  0  0  0  0  0  0
   17.3177   -8.1542   15.2207 C   0  0  2  0  0  0  0  0  0  0  0  0
   17.6651   -8.0341   16.7160 C   0  0  1  0  0  0  0  0  0  0  0  0
   19.1704   -7.8107   16.8809 C   0  0  2  0  0  0  0  0  0  0  0  0
   19.9977   -8.8397   16.1039 C   0  0  1  0  0  0  0  0  0  0  0  0
   19.4831   -9.0222   14.6725 C   0  0  1  0  0  0  0  0  0  0  0  0
   20.1470  -10.2406   14.0255 C   0  0  0  0  0  0  0  0  0  0  0  0
   21.4377   -8.3564   16.0335 N   0  3  0  0  0  0  0  0  0  0  0  0
   16.9760   -6.9473   17.3460 O   0  0  0  0  0  0  0  0  0  0  0  0
   19.5045   -7.9109   18.2793 O   0  0  0  0  0  0  0  0  0  0  0  0
   18.0683   -9.2186   14.6251 O   0  0  0  0  0  0  0  0  0  0  0  0
   15.6635   -4.1828   12.1320 C   0  0  2  0  0  0  0  0  0  0  0  0
   14.8649   -4.6363   13.3560 C   0  0  1  0  0  0  0  0  0  0  0  0
   15.8453   -5.2758   14.3496 C   0  0  2  0  0  0  0  0  0  0  0  0
   16.5574   -6.4670   13.6854 C   0  0  1  0  0  0  0  0  0  0  0  0
   17.1971   -6.0135   12.3708 C   0  0  1  0  0  0  0  0  0  0  0  0
   17.7148   -7.2299   11.5843 C   0  0  0  0  0  0  0  0  0  0  0  0
   14.1804   -3.5135   13.9251 O   0  0  0  0  0  0  0  0  0  0  0  0
   15.1627   -5.6922   15.5463 O   0  0  0  0  0  0  0  0  0  0  0  0
   17.6137   -6.9343   14.5511 O   0  0  0  0  0  0  0  0  0  0  0  0
   16.2895   -5.3061   11.5196 O   0  0  0  0  0  0  0  0  0  0  0  0
   18.7111   -6.8400   10.6477 O   0  0  0  0  0  0  0  0  0  0  0  0
   17.9240    0.5616   11.5122 C   0  0  1  0  0  0  0  0  0  0  0  0
   16.4024    0.3917   11.6295 C   0  0  1  0  0  0  0  0  0  0  0  0
   16.0865   -0.8931   12.3972 C   0  0  2  0  0  0  0  0  0  0  0  0
   16.7847   -2.0920   11.7209 C   0  0  1  0  0  0  0  0  0  0  0  0
   18.2858   -1.7800   11.5943 C   0  0  1  0  0  0  0  0  0  0  0  0
   19.0146   -2.9205   10.8613 C   0  0  0  0  0  0  0  0  0  0  0  0
   18.4944    0.7344   12.8042 O   0  0  0  0  0  0  0  0  0  0  0  0
   15.8754    1.5480   12.2601 O   0  0  0  0  0  0  0  0  0  0  0  0
   14.6698   -1.1250   12.4225 O   0  0  0  0  0  0  0  0  0  0  0  0
   16.6545   -3.2476   12.5548 O   0  0  0  0  0  0  0  0  0  0  0  0
   18.5221   -0.5613   10.8913 O   0  0  0  0  0  0  0  0  0  0  0  0
   20.4359   -2.8156   11.0003 O   0  0  0  0  0  0  0  0  0  0  0  0
   21.8171   -9.0034   17.9841 H   0  0  0  0  0  0  0  0  0  0  0  0
   23.7414   -7.7811   18.4257 H   0  0  0  0  0  0  0  0  0  0  0  0
   24.4003   -7.6456   15.4316 H   0  0  0  0  0  0  0  0  0  0  0  0
   25.8673   -9.3424   17.5382 H   0  0  0  0  0  0  0  0  0  0  0  0
   25.7441  -11.7119   15.5631 H   0  0  0  0  0  0  0  0  0  0  0  0
   24.0817  -12.2463   15.4933 H   0  0  0  0  0  0  0  0  0  0  0  0
   22.2932  -10.9901   16.5027 H   0  0  0  0  0  0  0  0  0  0  0  0
   22.2016   -6.2161   17.7974 H   0  0  0  0  0  0  0  0  0  0  0  0
   25.1893   -5.9837   16.7999 H   0  0  0  0  0  0  0  0  0  0  0  0
   26.9244   -8.6229   15.6496 H   0  0  0  0  0  0  0  0  0  0  0  0
   24.1172  -12.4934   17.7766 H   0  0  0  0  0  0  0  0  0  0  0  0
   16.2552   -8.4069   15.1380 H   0  0  0  0  0  0  0  0  0  0  0  0
   17.3712   -8.9517   17.2420 H   0  0  0  0  0  0  0  0  0  0  0  0
   19.4216   -6.7845   16.5476 H   0  0  0  0  0  0  0  0  0  0  0  0
   20.0010   -9.7991   16.6408 H   0  0  0  0  0  0  0  0  0  0  0  0
   19.7494   -8.1396   14.0748 H   0  0  0  0  0  0  0  0  0  0  0  0
   19.7761  -10.3857   13.0097 H   0  0  0  0  0  0  0  0  0  0  0  0
   19.9158  -11.1475   14.5933 H   0  0  0  0  0  0  0  0  0  0  0  0
   21.2358  -10.1452   13.9753 H   0  0  0  0  0  0  0  0  0  0  0  0
   21.4675   -7.3147   16.0173 H   0  0  0  0  0  0  0  0  0  0  0  0
   16.0197   -7.0202   17.1815 H   0  0  0  0  0  0  0  0  0  0  0  0
   20.3892   -7.5805   18.4546 H   0  0  0  0  0  0  0  0  0  0  0  0
   14.9735   -3.7274   11.4113 H   0  0  0  0  0  0  0  0  0  0  0  0
   14.1051   -5.3728   13.0641 H   0  0  0  0  0  0  0  0  0  0  0  0
   16.5900   -4.5359   14.6782 H   0  0  0  0  0  0  0  0  0  0  0  0
   15.8320   -7.2654   13.4855 H   0  0  0  0  0  0  0  0  0  0  0  0
   18.0597   -5.3751   12.6019 H   0  0  0  0  0  0  0  0  0  0  0  0
   16.8926   -7.6928   11.0270 H   0  0  0  0  0  0  0  0  0  0  0  0
   18.1611   -7.9843   12.2292 H   0  0  0  0  0  0  0  0  0  0  0  0
   13.7491   -3.8198   14.7434 H   0  0  0  0  0  0  0  0  0  0  0  0
   14.4597   -6.3146   15.2974 H   0  0  0  0  0  0  0  0  0  0  0  0
   19.4276   -6.3813   11.1081 H   0  0  0  0  0  0  0  0  0  0  0  0
   18.1255    1.4584   10.9159 H   0  0  0  0  0  0  0  0  0  0  0  0
   15.9505    0.3289   10.6385 H   0  0  0  0  0  0  0  0  0  0  0  0
   16.4007   -0.8221   13.4441 H   0  0  0  0  0  0  0  0  0  0  0  0
   16.3533   -2.2678   10.7238 H   0  0  0  0  0  0  0  0  0  0  0  0
   18.7247   -1.7037   12.6024 H   0  0  0  0  0  0  0  0  0  0  0  0
   18.7808   -2.9107    9.8005 H   0  0  0  0  0  0  0  0  0  0  0  0
   18.7423   -3.8859   11.2687 H   0  0  0  0  0  0  0  0  0  0  0  0
   19.4083    0.9955   12.6464 H   0  0  0  0  0  0  0  0  0  0  0  0
   14.9228    1.3509   12.4059 H   0  0  0  0  0  0  0  0  0  0  0  0
   14.5054   -1.9302   12.9621 H   0  0  0  0  0  0  0  0  0  0  0  0
   20.6468   -2.7673   11.9461 H   0  0  0  0  0  0  0  0  0  0  0  0
   21.8495   -8.6058   15.1225 H   0  0  0  0  0  0  0  0  0  0  0  0
  1  2  1  0  0  0  0
  1  7  1  0  0  0  0
  1 18  1  0  0  0  0
  1 45  1  1  0  0  0
  2  3  1  0  0  0  0
  2  8  1  0  0  0  0
  2 46  1  1  0  0  0
  3  4  1  0  0  0  0
  3  9  1  0  0  0  0
  3 47  1  6  0  0  0
  4  5  1  0  0  0  0
  4 10  1  0  0  0  0
  4 48  1  1  0  0  0
  5  6  1  0  0  0  0
  5  7  2  0  0  0  0
  6 11  1  0  0  0  0
  6 49  1  0  0  0  0
  6 50  1  0  0  0  0
  7 51  1  0  0  0  0
  8 52  1  0  0  0  0
  9 53  1  0  0  0  0
 10 54  1  0  0  0  0
 11 55  1  0  0  0  0
 12 13  1  0  0  0  0
 12 21  1  0  0  0  0
 12 30  1  0  0  0  0
 12 56  1  6  0  0  0
 13 14  1  0  0  0  0
 13 19  1  0  0  0  0
 13 57  1  1  0  0  0
 14 15  1  0  0  0  0
 14 20  1  0  0  0  0
 14 58  1  6  0  0  0
 15 16  1  0  0  0  0
 15 18  1  0  0  0  0
 15 59  1  1  0  0  0
 16 17  1  0  0  0  0
 16 21  1  0  0  0  0
 16 60  1  6  0  0  0
 17 61  1  0  0  0  0
 17 62  1  0  0  0  0
 17 63  1  0  0  0  0
 18 64  1  0  0  0  0
 18 88  1  0  0  0  0
 19 65  1  0  0  0  0
 20 66  1  0  0  0  0
 22 23  1  0  0  0  0
 22 31  1  0  0  0  0
 22 42  1  0  0  0  0
 22 67  1  6  0  0  0
 23 24  1  0  0  0  0
 23 28  1  0  0  0  0
 23 68  1  6  0  0  0
 24 25  1  0  0  0  0
 24 29  1  0  0  0  0
 24 69  1  1  0  0  0
 25 26  1  0  0  0  0
 25 30  1  0  0  0  0
 25 70  1  6  0  0  0
 26 27  1  0  0  0  0
 26 31  1  0  0  0  0
 26 71  1  1  0  0  0
 27 32  1  0  0  0  0
 27 72  1  0  0  0  0
 27 73  1  0  0  0  0
 28 74  1  0  0  0  0
 29 75  1  0  0  0  0
 32 76  1  0  0  0  0
 33 34  1  0  0  0  0
 33 39  1  0  0  0  0
 33 43  1  0  0  0  0
 33 77  1  6  0  0  0
 34 35  1  0  0  0  0
 34 40  1  0  0  0  0
 34 78  1  6  0  0  0
 35 36  1  0  0  0  0
 35 41  1  0  0  0  0
 35 79  1  1  0  0  0
 36 37  1  0  0  0  0
 36 42  1  0  0  0  0
 36 80  1  6  0  0  0
 37 38  1  0  0  0  0
 37 43  1  0  0  0  0
 37 81  1  1  0  0  0
 38 44  1  0  0  0  0
 38 82  1  0  0  0  0
 38 83  1  0  0  0  0
 39 84  1  0  0  0  0
 40 85  1  0  0  0  0
 41 86  1  0  0  0  0
 44 87  1  0  0  0  0
M  CHG  1  18   1
M  END
$$$$
