ADN
 OpenBabel04091910553D

 32 34  0  0  1  0  0  0  0  0999 V2000
   44.2583    6.5474   11.2052 O   0  0  0  0  0  0  0  0  0  0  0  0
   42.9810    6.0402   11.5661 C   0  0  0  0  0  0  0  0  0  0  0  0
   42.9833    4.5074   11.5595 C   0  0  1  0  0  0  0  0  0  0  0  0
   43.3738    4.0479   10.2321 O   0  0  0  0  0  0  0  0  0  0  0  0
   43.9943    3.9108   12.5478 C   0  0  1  0  0  0  0  0  0  0  0  0
   43.5321    2.6493   13.0612 O   0  0  0  0  0  0  0  0  0  0  0  0
   45.2285    3.7045   11.6822 C   0  0  1  0  0  0  0  0  0  0  0  0
   46.1512    2.7650   12.2169 O   0  0  0  0  0  0  0  0  0  0  0  0
   44.5869    3.2695   10.3667 C   0  0  2  0  0  0  0  0  0  0  0  0
   45.4399    3.4547    9.2122 N   0  3  0  0  0  0  0  0  0  0  0  0
   45.8442    4.6437    8.6729 C   0  0  0  0  0  0  0  0  0  0  0  0
   46.7026    4.4765    7.6869 N   0  0  0  0  0  0  0  0  0  0  0  0
   46.8593    3.1109    7.5972 C   0  0  0  0  0  0  0  0  0  0  0  0
   47.6554    2.3267    6.7479 C   0  0  0  0  0  0  0  0  0  0  0  0
   48.4547    2.8766    5.7808 N   0  0  0  0  0  0  0  0  0  0  0  0
   47.6106    0.9790    6.8955 N   0  0  0  0  0  0  0  0  0  0  0  0
   46.8032    0.4617    7.8451 C   0  0  0  0  0  0  0  0  0  0  0  0
   45.9949    1.1226    8.7202 N   0  0  0  0  0  0  0  0  0  0  0  0
   46.0819    2.4496    8.5309 C   0  0  0  0  0  0  0  0  0  0  0  0
   44.3497    6.3351   10.2637 H   0  0  0  0  0  0  0  0  0  0  0  0
   42.2581    6.4348   10.8444 H   0  0  0  0  0  0  0  0  0  0  0  0
   42.7356    6.4287   12.5582 H   0  0  0  0  0  0  0  0  0  0  0  0
   41.9661    4.1487   11.7551 H   0  0  0  0  0  0  0  0  0  0  0  0
   44.1766    4.5526   13.4145 H   0  0  0  0  0  0  0  0  0  0  0  0
   43.2915    2.0524   12.3330 H   0  0  0  0  0  0  0  0  0  0  0  0
   45.7613    4.6531   11.5610 H   0  0  0  0  0  0  0  0  0  0  0  0
   45.6727    1.9420   12.4198 H   0  0  0  0  0  0  0  0  0  0  0  0
   44.2952    2.2121   10.3952 H   0  0  0  0  0  0  0  0  0  0  0  0
   45.5294    5.6096    9.0179 H   0  0  0  0  0  0  0  0  0  0  0  0
   49.0584    2.2752    5.2460 H   0  0  0  0  0  0  0  0  0  0  0  0
   48.5398    3.8874    5.7432 H   0  0  0  0  0  0  0  0  0  0  0  0
   46.7982   -0.6220    7.9211 H   0  0  0  0  0  0  0  0  0  0  0  0
  1  2  1  0  0  0  0
  1 20  1  0  0  0  0
  2  3  1  0  0  0  0
  2 21  1  0  0  0  0
  2 22  1  0  0  0  0
  3  4  1  0  0  0  0
  3  5  1  0  0  0  0
  3 23  1  1  0  0  0
  4  9  1  0  0  0  0
  5  6  1  0  0  0  0
  5  7  1  0  0  0  0
  5 24  1  1  0  0  0
  6 25  1  0  0  0  0
  7  8  1  0  0  0  0
  7  9  1  0  0  0  0
  7 26  1  6  0  0  0
  8 27  1  0  0  0  0
  9 10  1  0  0  0  0
  9 28  1  1  0  0  0
 10 11  2  0  0  0  0
 10 19  1  0  0  0  0
 11 12  1  0  0  0  0
 11 29  1  0  0  0  0
 12 13  1  0  0  0  0
 13 14  2  0  0  0  0
 13 19  1  0  0  0  0
 14 15  1  0  0  0  0
 14 16  1  0  0  0  0
 15 30  1  0  0  0  0
 15 31  1  0  0  0  0
 16 17  2  0  0  0  0
 17 18  1  0  0  0  0
 17 32  1  0  0  0  0
 18 19  2  0  0  0  0
M  CHG  1  10   1
M  END
$$$$
