ADP
 OpenBabel04091915453D

 39 41  0  0  1  0  0  0  0  0999 V2000
   30.5991    4.8852  -12.9565 P   0  0  0  0  0  0  0  0  0  0  0  0
   29.8724    5.3453  -14.2132 O   0  0  0  0  0  0  0  0  0  0  0  0
   29.7173    4.1114  -11.9922 O   0  0  0  0  0  0  0  0  0  0  0  0
   31.4240    5.9707  -12.2426 O   0  0  0  0  0  0  0  0  0  0  0  0
   32.0316    3.4617  -15.0361 P   0  0  1  0  0  0  0  0  0  0  0  0
   31.3742    2.2214  -15.6810 O   0  0  0  0  0  0  0  0  0  0  0  0
   32.5571    4.5983  -15.8701 O   0  0  0  0  0  0  0  0  0  0  0  0
   31.6759    3.7847  -13.4855 O   0  0  0  0  0  0  0  0  0  0  0  0
   33.4581    2.7874  -14.6535 O   0  0  0  0  0  0  0  0  0  0  0  0
   33.3464    1.5248  -14.0507 C   0  0  0  0  0  0  0  0  0  0  0  0
   34.7238    0.9728  -13.7695 C   0  0  1  0  0  0  0  0  0  0  0  0
   35.3550    0.4035  -14.9445 O   0  0  0  0  0  0  0  0  0  0  0  0
   35.6693    2.0102  -13.1789 C   0  0  1  0  0  0  0  0  0  0  0  0
   36.3135    1.5372  -11.9858 O   0  0  0  0  0  0  0  0  0  0  0  0
   36.6959    2.2426  -14.2535 C   0  0  1  0  0  0  0  0  0  0  0  0
   37.9991    2.4917  -13.7195 O   0  0  0  0  0  0  0  0  0  0  0  0
   36.6712    0.9606  -15.0587 C   0  0  2  0  0  0  0  0  0  0  0  0
   36.9951    1.1610  -16.4409 N   0  3  0  0  0  0  0  0  0  0  0  0
   36.2708    1.9187  -17.3493 C   0  0  0  0  0  0  0  0  0  0  0  0
   36.8250    1.9144  -18.5495 N   0  0  0  0  0  0  0  0  0  0  0  0
   37.9649    1.1170  -18.4001 C   0  0  0  0  0  0  0  0  0  0  0  0
   38.9506    0.7490  -19.3575 C   0  0  0  0  0  0  0  0  0  0  0  0
   38.8990    1.1655  -20.6694 N   0  0  0  0  0  0  0  0  0  0  0  0
   39.9747   -0.0483  -18.9291 N   0  0  0  0  0  0  0  0  0  0  0  0
   39.9795   -0.4321  -17.6400 C   0  0  0  0  0  0  0  0  0  0  0  0
   39.0879   -0.1398  -16.6524 N   0  0  0  0  0  0  0  0  0  0  0  0
   38.0939    0.6624  -17.1528 C   0  0  0  0  0  0  0  0  0  0  0  0
   32.8291    0.8178  -14.7037 H   0  0  0  0  0  0  0  0  0  0  0  0
   32.8184    1.6212  -13.0961 H   0  0  0  0  0  0  0  0  0  0  0  0
   34.5917    0.1609  -13.0673 H   0  0  0  0  0  0  0  0  0  0  0  0
   35.1557    2.9399  -12.9441 H   0  0  0  0  0  0  0  0  0  0  0  0
   36.8251    0.7460  -12.2186 H   0  0  0  0  0  0  0  0  0  0  0  0
   36.3727    3.0924  -14.8526 H   0  0  0  0  0  0  0  0  0  0  0  0
   37.8886    3.2820  -13.1557 H   0  0  0  0  0  0  0  0  0  0  0  0
   37.3947    0.2467  -14.6516 H   0  0  0  0  0  0  0  0  0  0  0  0
   35.3446    2.4457  -17.0759 H   0  0  0  0  0  0  0  0  0  0  0  0
   39.6123    0.8839  -21.3136 H   0  0  0  0  0  0  0  0  0  0  0  0
   38.1200    1.7556  -20.9520 H   0  0  0  0  0  0  0  0  0  0  0  0
   40.8234   -1.0744  -17.3424 H   0  0  0  0  0  0  0  0  0  0  0  0
  1  2  2  0  0  0  0
  1  3  1  0  0  0  0
  1  4  1  0  0  0  0
  1  8  1  0  0  0  0
  5  6  2  6  0  0  0
  5  7  1  0  0  0  0
  5  8  1  0  0  0  0
  5  9  1  0  0  0  0
  9 10  1  0  0  0  0
 10 11  1  0  0  0  0
 10 28  1  0  0  0  0
 10 29  1  0  0  0  0
 11 12  1  0  0  0  0
 11 13  1  0  0  0  0
 11 30  1  1  0  0  0
 12 17  1  0  0  0  0
 13 14  1  0  0  0  0
 13 15  1  0  0  0  0
 13 31  1  1  0  0  0
 14 32  1  0  0  0  0
 15 16  1  0  0  0  0
 15 17  1  0  0  0  0
 15 33  1  6  0  0  0
 16 34  1  0  0  0  0
 17 18  1  0  0  0  0
 17 35  1  1  0  0  0
 18 19  2  0  0  0  0
 18 27  1  0  0  0  0
 19 20  1  0  0  0  0
 19 36  1  0  0  0  0
 20 21  1  0  0  0  0
 21 22  2  0  0  0  0
 21 27  1  0  0  0  0
 22 23  1  0  0  0  0
 22 24  1  0  0  0  0
 23 37  1  0  0  0  0
 23 38  1  0  0  0  0
 24 25  2  0  0  0  0
 25 26  1  0  0  0  0
 25 39  1  0  0  0  0
 26 27  2  0  0  0  0
M  CHG  1  18   1
M  END
$$$$
