ADP
 OpenBabel04091915433D

 39 41  0  0  1  0  0  0  0  0999 V2000
    4.5396  -14.4851  -14.7603 P   0  0  0  0  0  0  0  0  0  0  0  0
    5.2024  -15.4629  -15.7162 O   0  0  0  0  0  0  0  0  0  0  0  0
    3.5824  -15.1869  -13.7867 O   0  0  0  0  0  0  0  0  0  0  0  0
    5.5031  -13.5475  -14.0349 O   0  0  0  0  0  0  0  0  0  0  0  0
    3.8090  -12.6774  -16.9491 P   0  0  1  0  0  0  0  0  0  0  0  0
    4.4767  -13.4094  -18.0945 O   0  0  0  0  0  0  0  0  0  0  0  0
    2.5289  -11.9109  -17.3024 O   0  0  0  0  0  0  0  0  0  0  0  0
    3.5677  -13.5339  -15.6281 O   0  0  0  0  0  0  0  0  0  0  0  0
    4.8559  -11.5333  -16.4652 O   0  0  0  0  0  0  0  0  0  0  0  0
    4.5124  -10.6621  -15.4079 C   0  0  0  0  0  0  0  0  0  0  0  0
    5.2722   -9.3467  -15.6336 C   0  0  1  0  0  0  0  0  0  0  0  0
    6.7151   -9.5552  -15.6045 O   0  0  0  0  0  0  0  0  0  0  0  0
    4.9466   -8.7297  -16.9963 C   0  0  1  0  0  0  0  0  0  0  0  0
    3.7754   -7.9035  -16.9873 O   0  0  0  0  0  0  0  0  0  0  0  0
    6.2131   -7.9444  -17.3043 C   0  0  1  0  0  0  0  0  0  0  0  0
    6.1536   -6.6563  -16.6268 O   0  0  0  0  0  0  0  0  0  0  0  0
    7.3135   -8.8149  -16.6902 C   0  0  2  0  0  0  0  0  0  0  0  0
    8.0349   -9.6948  -17.5961 N   0  3  0  0  0  0  0  0  0  0  0  0
    7.7627  -11.0077  -17.9291 C   0  0  0  0  0  0  0  0  0  0  0  0
    8.6610  -11.5149  -18.7284 N   0  0  0  0  0  0  0  0  0  0  0  0
    9.5869  -10.5235  -18.9302 C   0  0  0  0  0  0  0  0  0  0  0  0
   10.7891  -10.4810  -19.6853 C   0  0  0  0  0  0  0  0  0  0  0  0
   11.2648  -11.5761  -20.3838 N   0  0  0  0  0  0  0  0  0  0  0  0
   11.4848   -9.3251  -19.7178 N   0  0  0  0  0  0  0  0  0  0  0  0
   10.9858   -8.2759  -19.0258 C   0  0  0  0  0  0  0  0  0  0  0  0
    9.8750   -8.1928  -18.2631 N   0  0  0  0  0  0  0  0  0  0  0  0
    9.2057   -9.3701  -18.2554 C   0  0  0  0  0  0  0  0  0  0  0  0
    4.8010  -11.1090  -14.4542 H   0  0  0  0  0  0  0  0  0  0  0  0
    3.4344  -10.4706  -15.4025 H   0  0  0  0  0  0  0  0  0  0  0  0
    5.0240   -8.6486  -14.8220 H   0  0  0  0  0  0  0  0  0  0  0  0
    4.8108   -9.5015  -17.7605 H   0  0  0  0  0  0  0  0  0  0  0  0
    3.0374   -8.4982  -16.7470 H   0  0  0  0  0  0  0  0  0  0  0  0
    6.3509   -7.7361  -18.3690 H   0  0  0  0  0  0  0  0  0  0  0  0
    6.9755   -6.1816  -16.8192 H   0  0  0  0  0  0  0  0  0  0  0  0
    8.0749   -8.1725  -16.2345 H   0  0  0  0  0  0  0  0  0  0  0  0
    6.9026  -11.5403  -17.5326 H   0  0  0  0  0  0  0  0  0  0  0  0
   12.1280  -11.5082  -20.8864 H   0  0  0  0  0  0  0  0  0  0  0  0
   10.7429  -12.4427  -20.3040 H   0  0  0  0  0  0  0  0  0  0  0  0
   11.5763   -7.3595  -19.0862 H   0  0  0  0  0  0  0  0  0  0  0  0
  1  2  2  0  0  0  0
  1  3  1  0  0  0  0
  1  4  1  0  0  0  0
  1  8  1  0  0  0  0
  5  6  2  6  0  0  0
  5  7  1  0  0  0  0
  5  8  1  0  0  0  0
  5  9  1  0  0  0  0
  9 10  1  0  0  0  0
 10 11  1  0  0  0  0
 10 28  1  0  0  0  0
 10 29  1  0  0  0  0
 11 12  1  0  0  0  0
 11 13  1  0  0  0  0
 11 30  1  1  0  0  0
 12 17  1  0  0  0  0
 13 14  1  0  0  0  0
 13 15  1  0  0  0  0
 13 31  1  6  0  0  0
 14 32  1  0  0  0  0
 15 16  1  0  0  0  0
 15 17  1  0  0  0  0
 15 33  1  6  0  0  0
 16 34  1  0  0  0  0
 17 18  1  0  0  0  0
 17 35  1  1  0  0  0
 18 19  2  0  0  0  0
 18 27  1  0  0  0  0
 19 20  1  0  0  0  0
 19 36  1  0  0  0  0
 20 21  1  0  0  0  0
 21 22  2  0  0  0  0
 21 27  1  0  0  0  0
 22 23  1  0  0  0  0
 22 24  1  0  0  0  0
 23 37  1  0  0  0  0
 23 38  1  0  0  0  0
 24 25  2  0  0  0  0
 25 26  1  0  0  0  0
 25 39  1  0  0  0  0
 26 27  2  0  0  0  0
M  CHG  1  18   1
M  END
$$$$
