ADP
 OpenBabel04091915053D

 39 41  0  0  1  0  0  0  0  0999 V2000
  -25.7905  -17.2338   16.6051 P   0  0  0  0  0  0  0  0  0  0  0  0
  -26.3944  -18.6216   16.3449 O   0  0  0  0  0  0  0  0  0  0  0  0
  -25.4416  -17.0273   18.0763 O   0  0  0  0  0  0  0  0  0  0  0  0
  -24.6660  -16.9369   15.6171 O   0  0  0  0  0  0  0  0  0  0  0  0
  -27.1945  -14.6710   16.0120 P   0  0  1  0  0  0  0  0  0  0  0  0
  -28.2815  -14.0857   16.9058 O   0  0  0  0  0  0  0  0  0  0  0  0
  -25.9684  -13.8201   15.7361 O   0  0  0  0  0  0  0  0  0  0  0  0
  -26.9982  -16.2298   16.2674 O   0  0  0  0  0  0  0  0  0  0  0  0
  -27.9415  -14.7625   14.5624 O   0  0  0  0  0  0  0  0  0  0  0  0
  -27.2716  -15.4555   13.5271 C   0  0  0  0  0  0  0  0  0  0  0  0
  -27.9405  -15.0854   12.2023 C   0  0  1  0  0  0  0  0  0  0  0  0
  -29.3618  -15.4178   12.2026 O   0  0  0  0  0  0  0  0  0  0  0  0
  -27.8545  -13.5950   11.8607 C   0  0  1  0  0  0  0  0  0  0  0  0
  -26.6661  -13.2156   11.1639 O   0  0  0  0  0  0  0  0  0  0  0  0
  -29.0750  -13.3990   10.9681 C   0  0  1  0  0  0  0  0  0  0  0  0
  -28.7742  -13.8055    9.6062 O   0  0  0  0  0  0  0  0  0  0  0  0
  -30.0989  -14.3319   11.6039 C   0  0  2  0  0  0  0  0  0  0  0  0
  -30.9703  -13.6560   12.5545 N   0  3  0  0  0  0  0  0  0  0  0  0
  -30.8467  -13.5676   13.9146 C   0  0  0  0  0  0  0  0  0  0  0  0
  -31.7564  -12.7673   14.4422 N   0  0  0  0  0  0  0  0  0  0  0  0
  -32.4911  -12.3160   13.3764 C   0  0  0  0  0  0  0  0  0  0  0  0
  -33.5889  -11.4312   13.3026 C   0  0  0  0  0  0  0  0  0  0  0  0
  -34.1411  -10.8452   14.4248 N   0  0  0  0  0  0  0  0  0  0  0  0
  -34.1121  -11.1597   12.0907 N   0  0  0  0  0  0  0  0  0  0  0  0
  -33.5702  -11.7766   11.0222 C   0  0  0  0  0  0  0  0  0  0  0  0
  -32.5340  -12.6436   10.9618 N   0  0  0  0  0  0  0  0  0  0  0  0
  -32.0395  -12.8699   12.1878 C   0  0  0  0  0  0  0  0  0  0  0  0
  -27.3770  -16.5317   13.7055 H   0  0  0  0  0  0  0  0  0  0  0  0
  -26.2105  -15.1916   13.5034 H   0  0  0  0  0  0  0  0  0  0  0  0
  -27.4756  -15.6826   11.4105 H   0  0  0  0  0  0  0  0  0  0  0  0
  -27.9484  -12.9716   12.7560 H   0  0  0  0  0  0  0  0  0  0  0  0
  -26.6537  -13.7051   10.3251 H   0  0  0  0  0  0  0  0  0  0  0  0
  -29.3896  -12.3508   10.9144 H   0  0  0  0  0  0  0  0  0  0  0  0
  -28.5987  -14.7675    9.6293 H   0  0  0  0  0  0  0  0  0  0  0  0
  -30.7545  -14.7828   10.8509 H   0  0  0  0  0  0  0  0  0  0  0  0
  -30.0931  -14.0886   14.4896 H   0  0  0  0  0  0  0  0  0  0  0  0
  -34.8004  -10.1031   14.2879 H   0  0  0  0  0  0  0  0  0  0  0  0
  -33.6110  -10.9465   15.2846 H   0  0  0  0  0  0  0  0  0  0  0  0
  -34.0344  -11.5431   10.0604 H   0  0  0  0  0  0  0  0  0  0  0  0
  1  2  2  0  0  0  0
  1  3  1  0  0  0  0
  1  4  1  0  0  0  0
  1  8  1  0  0  0  0
  5  6  2  1  0  0  0
  5  7  1  0  0  0  0
  5  8  1  0  0  0  0
  5  9  1  0  0  0  0
  9 10  1  0  0  0  0
 10 11  1  0  0  0  0
 10 28  1  0  0  0  0
 10 29  1  0  0  0  0
 11 12  1  0  0  0  0
 11 13  1  0  0  0  0
 11 30  1  6  0  0  0
 12 17  1  0  0  0  0
 13 14  1  0  0  0  0
 13 15  1  0  0  0  0
 13 31  1  1  0  0  0
 14 32  1  0  0  0  0
 15 16  1  0  0  0  0
 15 17  1  0  0  0  0
 15 33  1  1  0  0  0
 16 34  1  0  0  0  0
 17 18  1  0  0  0  0
 17 35  1  6  0  0  0
 18 19  2  0  0  0  0
 18 27  1  0  0  0  0
 19 20  1  0  0  0  0
 19 36  1  0  0  0  0
 20 21  1  0  0  0  0
 21 22  2  0  0  0  0
 21 27  1  0  0  0  0
 22 23  1  0  0  0  0
 22 24  1  0  0  0  0
 23 37  1  0  0  0  0
 23 38  1  0  0  0  0
 24 25  2  0  0  0  0
 25 26  1  0  0  0  0
 25 39  1  0  0  0  0
 26 27  2  0  0  0  0
M  CHG  1  18   1
M  END
$$$$
