ADP
 OpenBabel04091913203D

 39 41  0  0  1  0  0  0  0  0999 V2000
  -29.7825  -61.8237   -9.3064 P   0  0  0  0  0  0  0  0  0  0  0  0
  -29.6361  -60.8540   -8.1269 O   0  0  0  0  0  0  0  0  0  0  0  0
  -29.3537  -61.2076  -10.6305 O   0  0  0  0  0  0  0  0  0  0  0  0
  -29.1187  -63.1706   -9.0067 O   0  0  0  0  0  0  0  0  0  0  0  0
  -32.3377  -62.2966  -10.6784 P   0  0  1  0  0  0  0  0  0  0  0  0
  -32.7761  -60.9691  -11.2630 O   0  0  0  0  0  0  0  0  0  0  0  0
  -31.9776  -63.4564  -11.5911 O   0  0  0  0  0  0  0  0  0  0  0  0
  -31.3589  -62.1209   -9.3902 O   0  0  0  0  0  0  0  0  0  0  0  0
  -33.7356  -62.8098   -9.9380 O   0  0  0  0  0  0  0  0  0  0  0  0
  -34.3404  -64.0538  -10.2780 C   0  0  0  0  0  0  0  0  0  0  0  0
  -35.8635  -63.9270  -10.3477 C   0  0  1  0  0  0  0  0  0  0  0  0
  -36.3964  -63.7927   -9.0047 O   0  0  0  0  0  0  0  0  0  0  0  0
  -36.3742  -62.7342  -11.1528 C   0  0  1  0  0  0  0  0  0  0  0  0
  -36.3050  -62.9434  -12.5587 O   0  0  0  0  0  0  0  0  0  0  0  0
  -37.7711  -62.5993  -10.5569 C   0  0  1  0  0  0  0  0  0  0  0  0
  -38.6142  -63.7039  -11.0135 O   0  0  0  0  0  0  0  0  0  0  0  0
  -37.4154  -62.7879   -9.0507 C   0  0  2  0  0  0  0  0  0  0  0  0
  -36.9795  -61.6613   -8.2378 N   0  3  0  0  0  0  0  0  0  0  0  0
  -35.8288  -61.4748   -7.4949 C   0  0  0  0  0  0  0  0  0  0  0  0
  -35.9039  -60.3934   -6.7383 N   0  0  0  0  0  0  0  0  0  0  0  0
  -37.1162  -59.8231   -7.0255 C   0  0  0  0  0  0  0  0  0  0  0  0
  -37.7878  -58.6741   -6.5614 C   0  0  0  0  0  0  0  0  0  0  0  0
  -37.2798  -57.7674   -5.6457 N   0  0  0  0  0  0  0  0  0  0  0  0
  -39.0310  -58.4346   -7.0287 N   0  0  0  0  0  0  0  0  0  0  0  0
  -39.5792  -59.3234   -7.9000 C   0  0  0  0  0  0  0  0  0  0  0  0
  -39.0597  -60.4576   -8.3818 N   0  0  0  0  0  0  0  0  0  0  0  0
  -37.8169  -60.6268   -7.9126 C   0  0  0  0  0  0  0  0  0  0  0  0
  -34.1328  -64.7532   -9.4635 H   0  0  0  0  0  0  0  0  0  0  0  0
  -33.9931  -64.4884  -11.2209 H   0  0  0  0  0  0  0  0  0  0  0  0
  -36.3012  -64.8630  -10.7305 H   0  0  0  0  0  0  0  0  0  0  0  0
  -35.8331  -61.8149  -10.9167 H   0  0  0  0  0  0  0  0  0  0  0  0
  -35.3383  -62.9845  -12.7459 H   0  0  0  0  0  0  0  0  0  0  0  0
  -38.3044  -61.6835  -10.8321 H   0  0  0  0  0  0  0  0  0  0  0  0
  -39.4891  -63.6093  -10.6057 H   0  0  0  0  0  0  0  0  0  0  0  0
  -38.2991  -63.2073   -8.5541 H   0  0  0  0  0  0  0  0  0  0  0  0
  -34.9678  -62.1530   -7.5272 H   0  0  0  0  0  0  0  0  0  0  0  0
  -37.8119  -56.9372   -5.4592 H   0  0  0  0  0  0  0  0  0  0  0  0
  -36.3230  -57.8834   -5.3393 H   0  0  0  0  0  0  0  0  0  0  0  0
  -40.5794  -59.0948   -8.2528 H   0  0  0  0  0  0  0  0  0  0  0  0
  1  2  2  0  0  0  0
  1  3  1  0  0  0  0
  1  4  1  0  0  0  0
  1  8  1  0  0  0  0
  5  6  2  6  0  0  0
  5  7  1  0  0  0  0
  5  8  1  0  0  0  0
  5  9  1  0  0  0  0
  9 10  1  0  0  0  0
 10 11  1  0  0  0  0
 10 28  1  0  0  0  0
 10 29  1  0  0  0  0
 11 12  1  0  0  0  0
 11 13  1  0  0  0  0
 11 30  1  6  0  0  0
 12 17  1  0  0  0  0
 13 14  1  0  0  0  0
 13 15  1  0  0  0  0
 13 31  1  1  0  0  0
 14 32  1  0  0  0  0
 15 16  1  0  0  0  0
 15 17  1  0  0  0  0
 15 33  1  6  0  0  0
 16 34  1  0  0  0  0
 17 18  1  0  0  0  0
 17 35  1  1  0  0  0
 18 19  2  0  0  0  0
 18 27  1  0  0  0  0
 19 20  1  0  0  0  0
 19 36  1  0  0  0  0
 20 21  1  0  0  0  0
 21 22  2  0  0  0  0
 21 27  1  0  0  0  0
 22 23  1  0  0  0  0
 22 24  1  0  0  0  0
 23 37  1  0  0  0  0
 23 38  1  0  0  0  0
 24 25  2  0  0  0  0
 25 26  1  0  0  0  0
 25 39  1  0  0  0  0
 26 27  2  0  0  0  0
M  CHG  1  18   1
M  END
$$$$
