AEG
 OpenBabel04091911053D

 25 25  0  0  1  0  0  0  0  0999 V2000
  -18.4735   40.2717   93.5702 C   0  0  0  0  0  0  0  0  0  0  0  0
  -22.1459   39.3773   94.0270 C   0  0  0  0  0  0  0  0  0  0  0  0
  -22.0006   41.6276   93.1191 C   0  0  0  0  0  0  0  0  0  0  0  0
  -17.9285   39.2747   92.5484 C   0  0  2  0  0  0  0  0  0  0  0  0
  -22.7451   40.5494   93.5782 C   0  0  0  0  0  0  0  0  0  0  0  0
  -24.1102   40.6502   93.5846 O   0  0  0  0  0  0  0  0  0  0  0  0
  -20.6115   41.5309   93.1134 C   0  0  0  0  0  0  0  0  0  0  0  0
  -20.7572   39.2871   94.0194 C   0  0  0  0  0  0  0  0  0  0  0  0
  -19.9730   40.3628   93.5679 C   0  0  0  0  0  0  0  0  0  0  0  0
  -16.4727   39.0408   92.8196 N   0  3  0  0  0  0  0  0  0  0  0  0
  -18.0870   39.7872   91.1295 C   0  0  0  0  0  0  0  0  0  0  0  0
  -18.0577   41.2637   93.3660 H   0  0  0  0  0  0  0  0  0  0  0  0
  -18.1588   39.9738   94.5770 H   0  0  0  0  0  0  0  0  0  0  0  0
  -22.7433   38.5426   94.3849 H   0  0  0  0  0  0  0  0  0  0  0  0
  -22.4934   42.5336   92.7724 H   0  0  0  0  0  0  0  0  0  0  0  0
  -18.4183   38.3034   92.6502 H   0  0  0  0  0  0  0  0  0  0  0  0
  -24.4839   39.8117   93.9376 H   0  0  0  0  0  0  0  0  0  0  0  0
  -20.0184   42.3753   92.7601 H   0  0  0  0  0  0  0  0  0  0  0  0
  -20.2793   38.3776   94.3795 H   0  0  0  0  0  0  0  0  0  0  0  0
  -16.0598   38.3724   92.1509 H   0  0  0  0  0  0  0  0  0  0  0  0
  -15.9210   39.9088   92.7605 H   0  0  0  0  0  0  0  0  0  0  0  0
  -19.1456   39.9606   90.9206 H   0  0  0  0  0  0  0  0  0  0  0  0
  -17.7138   39.0573   90.4058 H   0  0  0  0  0  0  0  0  0  0  0  0
  -17.5504   40.7308   90.9876 H   0  0  0  0  0  0  0  0  0  0  0  0
  -16.3193   38.6491   93.7622 H   0  0  0  0  0  0  0  0  0  0  0  0
  1  4  1  0  0  0  0
  1  9  1  0  0  0  0
  1 12  1  0  0  0  0
  1 13  1  0  0  0  0
  2  5  2  0  0  0  0
  2  8  1  0  0  0  0
  2 14  1  0  0  0  0
  3  5  1  0  0  0  0
  3  7  2  0  0  0  0
  3 15  1  0  0  0  0
  4 10  1  0  0  0  0
  4 11  1  0  0  0  0
  4 16  1  1  0  0  0
  5  6  1  0  0  0  0
  6 17  1  0  0  0  0
  7  9  1  0  0  0  0
  7 18  1  0  0  0  0
  8  9  2  0  0  0  0
  8 19  1  0  0  0  0
 10 20  1  0  0  0  0
 10 21  1  0  0  0  0
 10 25  1  0  0  0  0
 11 22  1  0  0  0  0
 11 23  1  0  0  0  0
 11 24  1  0  0  0  0
M  CHG  1  10   1
M  END
$$$$
