AGS
 OpenBabel04091912593D

 43 45  0  0  1  0  0  0  0  0999 V2000
   18.0589   52.9927  -12.0862 P   0  0  1  0  0  0  0  0  0  0  0  0
   18.7649   54.0128  -12.9744 O   0  0  0  0  0  0  0  0  0  0  0  0
   17.7556   53.4633  -10.6683 O   0  0  0  0  0  0  0  0  0  0  0  0
   16.3250   52.4564  -12.9653 S   0  0  0  0  0  0  0  0  0  0  0  0
   20.4226   51.2480  -11.5101 P   0  0  2  0  0  0  0  0  0  0  0  0
   20.7975   51.8800  -10.1831 O   0  0  0  0  0  0  0  0  0  0  0  0
   21.4142   51.3346  -12.6672 O   0  0  0  0  0  0  0  0  0  0  0  0
   18.9483   51.6461  -12.0130 O   0  0  0  0  0  0  0  0  0  0  0  0
   20.4872   48.7258  -10.0256 P   0  0  1  0  0  0  0  0  0  0  0  0
   21.9513   48.6493   -9.6196 O   0  0  0  0  0  0  0  0  0  0  0  0
   19.4135   48.7112   -8.9561 O   0  0  0  0  0  0  0  0  0  0  0  0
   20.1695   49.6681  -11.2761 O   0  0  0  0  0  0  0  0  0  0  0  0
   20.3034   47.2975  -10.8137 O   0  0  0  0  0  0  0  0  0  0  0  0
   19.1635   46.4973  -10.5853 C   0  0  0  0  0  0  0  0  0  0  0  0
   19.6291   45.0477  -10.4288 C   0  0  1  0  0  0  0  0  0  0  0  0
   20.1571   44.5265  -11.6867 O   0  0  0  0  0  0  0  0  0  0  0  0
   20.7473   44.8932   -9.3946 C   0  0  1  0  0  0  0  0  0  0  0  0
   20.2706   44.7861   -8.0553 O   0  0  0  0  0  0  0  0  0  0  0  0
   21.4516   43.6384   -9.8836 C   0  0  1  0  0  0  0  0  0  0  0  0
   20.7239   42.4453   -9.5093 O   0  0  0  0  0  0  0  0  0  0  0  0
   21.3922   43.8245  -11.4021 C   0  0  2  0  0  0  0  0  0  0  0  0
   22.5327   44.5112  -11.9894 N   0  3  0  0  0  0  0  0  0  0  0  0
   22.5190   45.7071  -12.6594 C   0  0  0  0  0  0  0  0  0  0  0  0
   23.7066   46.0020  -13.1678 N   0  0  0  0  0  0  0  0  0  0  0  0
   24.5351   45.0084  -12.7520 C   0  0  0  0  0  0  0  0  0  0  0  0
   25.9162   44.8091  -12.9408 C   0  0  0  0  0  0  0  0  0  0  0  0
   26.7216   45.6787  -13.6706 N   0  0  0  0  0  0  0  0  0  0  0  0
   26.4802   43.6860  -12.4264 N   0  0  0  0  0  0  0  0  0  0  0  0
   25.6694   42.8232  -11.7819 C   0  0  0  0  0  0  0  0  0  0  0  0
   24.3351   42.8852  -11.5456 N   0  0  0  0  0  0  0  0  0  0  0  0
   23.8278   44.0423  -12.0454 C   0  0  0  0  0  0  0  0  0  0  0  0
   18.5004   46.6040  -11.4493 H   0  0  0  0  0  0  0  0  0  0  0  0
   18.6064   46.7832   -9.6858 H   0  0  0  0  0  0  0  0  0  0  0  0
   18.7676   44.4312  -10.1651 H   0  0  0  0  0  0  0  0  0  0  0  0
   21.4665   45.7186   -9.4357 H   0  0  0  0  0  0  0  0  0  0  0  0
   19.9491   45.6885   -7.8384 H   0  0  0  0  0  0  0  0  0  0  0  0
   22.4626   43.5419   -9.4734 H   0  0  0  0  0  0  0  0  0  0  0  0
   21.2830   41.6948   -9.7598 H   0  0  0  0  0  0  0  0  0  0  0  0
   21.3208   42.8594  -11.9169 H   0  0  0  0  0  0  0  0  0  0  0  0
   21.6236   46.3148  -12.7575 H   0  0  0  0  0  0  0  0  0  0  0  0
   27.7025   45.6043  -13.4604 H   0  0  0  0  0  0  0  0  0  0  0  0
   26.3205   46.6108  -13.7469 H   0  0  0  0  0  0  0  0  0  0  0  0
   26.1672   41.9309  -11.4010 H   0  0  0  0  0  0  0  0  0  0  0  0
  1  2  2  6  0  0  0
  1  3  1  0  0  0  0
  1  4  1  0  0  0  0
  1  8  1  0  0  0  0
  5  6  2  1  0  0  0
  5  7  1  0  0  0  0
  5  8  1  0  0  0  0
  5 12  1  0  0  0  0
  9 10  2  1  0  0  0
  9 11  1  0  0  0  0
  9 12  1  0  0  0  0
  9 13  1  0  0  0  0
 13 14  1  0  0  0  0
 14 15  1  0  0  0  0
 14 32  1  0  0  0  0
 14 33  1  0  0  0  0
 15 16  1  0  0  0  0
 15 17  1  0  0  0  0
 15 34  1  1  0  0  0
 16 21  1  0  0  0  0
 17 18  1  0  0  0  0
 17 19  1  0  0  0  0
 17 35  1  6  0  0  0
 18 36  1  0  0  0  0
 19 20  1  0  0  0  0
 19 21  1  0  0  0  0
 19 37  1  1  0  0  0
 20 38  1  0  0  0  0
 21 22  1  0  0  0  0
 21 39  1  6  0  0  0
 22 23  2  0  0  0  0
 22 31  1  0  0  0  0
 23 24  1  0  0  0  0
 23 40  1  0  0  0  0
 24 25  1  0  0  0  0
 25 26  2  0  0  0  0
 25 31  1  0  0  0  0
 26 27  1  0  0  0  0
 26 28  1  0  0  0  0
 27 41  1  0  0  0  0
 27 42  1  0  0  0  0
 28 29  2  0  0  0  0
 29 30  1  0  0  0  0
 29 43  1  0  0  0  0
 30 31  2  0  0  0  0
M  CHG  1  22   1
M  END
$$$$
