AGX
 OpenBabel04091913183D

 36 38  0  0  1  0  0  0  0  0999 V2000
   33.4862   -0.4513   17.2435 C   0  0  0  0  0  0  0  0  0  0  0  0
   31.7258   -2.2921   17.2618 N   0  3  0  0  0  0  0  0  0  0  0  0
   29.6845   -4.1870   18.3834 O   0  0  0  0  0  0  0  0  0  0  0  0
   25.4542   -3.0986   24.0096 Cl  0  0  0  0  0  0  0  0  0  0  0  0
   34.8743   -0.2838   17.3640 C   0  0  0  0  0  0  0  0  0  0  0  0
   33.0854   -4.0197   17.5250 N   0  0  0  0  0  0  0  0  0  0  0  0
   30.9090   -5.0464   20.1080 O   0  0  0  0  0  0  0  0  0  0  0  0
   27.9028   -3.3524   26.1395 Cl  0  0  0  0  0  0  0  0  0  0  0  0
   35.7253   -1.3739   17.5594 C   0  0  0  0  0  0  0  0  0  0  0  0
   28.7593   -4.1932   20.3415 N   0  0  0  0  0  0  0  0  0  0  0  0
   35.2064   -2.6727   17.6326 C   0  0  0  0  0  0  0  0  0  0  0  0
   32.9942   -1.7584   17.3225 C   0  0  0  0  0  0  0  0  0  0  0  0
   33.8198   -2.8606   17.5052 C   0  0  0  0  0  0  0  0  0  0  0  0
   31.8209   -3.6614   17.3963 C   0  0  0  0  0  0  0  0  0  0  0  0
   30.6505   -4.6056   17.4073 C   0  0  2  0  0  0  0  0  0  0  0  0
   29.8908   -4.5284   19.6703 C   0  0  0  0  0  0  0  0  0  0  0  0
   28.5822   -4.0464   21.7213 C   0  0  0  0  0  0  0  0  0  0  0  0
   29.6295   -4.1498   22.6347 C   0  0  0  0  0  0  0  0  0  0  0  0
   29.3981   -3.9289   23.9933 C   0  0  0  0  0  0  0  0  0  0  0  0
   28.1175   -3.6071   24.4465 C   0  0  0  0  0  0  0  0  0  0  0  0
   27.0657   -3.4998   23.5323 C   0  0  0  0  0  0  0  0  0  0  0  0
   27.3001   -3.7139   22.1711 C   0  0  0  0  0  0  0  0  0  0  0  0
   29.8435   -4.5976   16.1190 C   0  0  0  0  0  0  0  0  0  0  0  0
   32.8346    0.4039   17.0967 H   0  0  0  0  0  0  0  0  0  0  0  0
   30.8711   -1.7682   17.1484 H   0  0  0  0  0  0  0  0  0  0  0  0
   35.3004    0.7180   17.3085 H   0  0  0  0  0  0  0  0  0  0  0  0
   36.7974   -1.2201   17.6560 H   0  0  0  0  0  0  0  0  0  0  0  0
   27.9705   -4.0028   19.7344 H   0  0  0  0  0  0  0  0  0  0  0  0
   35.8573   -3.5257   17.7887 H   0  0  0  0  0  0  0  0  0  0  0  0
   30.9975   -5.6273   17.6092 H   0  0  0  0  0  0  0  0  0  0  0  0
   30.6435   -4.3810   22.3175 H   0  0  0  0  0  0  0  0  0  0  0  0
   30.2307   -4.0061   24.6892 H   0  0  0  0  0  0  0  0  0  0  0  0
   26.4789   -3.6132   21.4663 H   0  0  0  0  0  0  0  0  0  0  0  0
   30.4430   -4.8160   15.2337 H   0  0  0  0  0  0  0  0  0  0  0  0
   29.3380   -3.6325   15.9831 H   0  0  0  0  0  0  0  0  0  0  0  0
   29.0392   -5.3410   16.1968 H   0  0  0  0  0  0  0  0  0  0  0  0
  1  5  2  0  0  0  0
  1 12  1  0  0  0  0
  1 24  1  0  0  0  0
  2 12  1  0  0  0  0
  2 14  2  0  0  0  0
  2 25  1  0  0  0  0
  3 15  1  0  0  0  0
  3 16  1  0  0  0  0
  4 21  1  0  0  0  0
  5  9  1  0  0  0  0
  5 26  1  0  0  0  0
  6 13  1  0  0  0  0
  6 14  1  0  0  0  0
  7 16  2  0  0  0  0
  8 20  1  0  0  0  0
  9 11  2  0  0  0  0
  9 27  1  0  0  0  0
 10 16  1  0  0  0  0
 10 17  1  0  0  0  0
 10 28  1  0  0  0  0
 11 13  1  0  0  0  0
 11 29  1  0  0  0  0
 12 13  2  0  0  0  0
 14 15  1  0  0  0  0
 15 23  1  0  0  0  0
 15 30  1  1  0  0  0
 17 18  2  0  0  0  0
 17 22  1  0  0  0  0
 18 19  1  0  0  0  0
 18 31  1  0  0  0  0
 19 20  2  0  0  0  0
 19 32  1  0  0  0  0
 20 21  1  0  0  0  0
 21 22  2  0  0  0  0
 22 33  1  0  0  0  0
 23 34  1  0  0  0  0
 23 35  1  0  0  0  0
 23 36  1  0  0  0  0
M  CHG  1   2   1
M  END
$$$$
