AGY
 OpenBabel04091913183D

 52 54  0  0  0  0  0  0  0  0999 V2000
   33.9927   -2.1244   17.6041 C   0  0  0  0  0  0  0  0  0  0  0  0
   31.5257   -2.4239   17.8416 N   0  0  0  0  0  0  0  0  0  0  0  0
   31.4493   -3.6257   15.8665 O   0  0  0  0  0  0  0  0  0  0  0  0
   32.6631   -1.6143   17.5585 C   0  0  0  0  0  0  0  0  0  0  0  0
   29.7785   -3.9061   17.3584 N   0  0  0  0  0  0  0  0  0  0  0  0
   30.4625   -5.4576   19.5252 O   0  0  0  0  0  0  0  0  0  0  0  0
   35.0891   -1.2293   17.4038 C   0  0  0  0  0  0  0  0  0  0  0  0
   29.1993   -3.7447   18.6349 N   0  0  0  0  0  0  0  0  0  0  0  0
   24.8247   -4.7495   22.5794 O   0  0  0  0  0  0  0  0  0  0  0  0
   34.3013   -3.4748   17.8815 C   0  0  0  0  0  0  0  0  0  0  0  0
   25.5742   -3.7900   22.3392 N   0  0  0  0  0  0  0  0  0  0  0  0
   25.2235   -2.6523   22.0211 O   0  0  0  0  0  0  0  0  0  0  0  0
   32.4550   -0.2429   17.3389 C   0  0  0  0  0  0  0  0  0  0  0  0
   34.8401    0.1332   17.1589 C   0  0  0  0  0  0  0  0  0  0  0  0
   36.4132   -1.7089   17.4680 C   0  0  0  0  0  0  0  0  0  0  0  0
   35.6222   -3.9335   17.9373 C   0  0  0  0  0  0  0  0  0  0  0  0
   33.5336    0.6210   17.1191 C   0  0  0  0  0  0  0  0  0  0  0  0
   30.9774   -3.3337   16.9662 C   0  0  0  0  0  0  0  0  0  0  0  0
   36.6770   -3.0525   17.7271 C   0  0  0  0  0  0  0  0  0  0  0  0
   29.5907   -4.6032   19.6505 C   0  0  0  0  0  0  0  0  0  0  0  0
   28.9367   -4.4404   20.9788 C   0  0  0  0  0  0  0  0  0  0  0  0
   27.5847   -4.1467   21.0933 C   0  0  0  0  0  0  0  0  0  0  0  0
   29.6803   -4.6533   22.1448 C   0  0  0  0  0  0  0  0  0  0  0  0
   26.9978   -4.0402   22.3744 C   0  0  0  0  0  0  0  0  0  0  0  0
   29.0822   -4.5284   23.4171 C   0  0  0  0  0  0  0  0  0  0  0  0
   27.7069   -4.1896   23.5835 C   0  0  0  0  0  0  0  0  0  0  0  0
   27.1090   -4.1155   25.0192 C   0  0  0  0  0  0  0  0  0  0  0  0
   28.0660   -3.3965   26.0027 C   0  0  0  0  0  0  0  0  0  0  0  0
   25.7951   -3.3260   25.2458 C   0  0  0  0  0  0  0  0  0  0  0  0
   26.8341   -5.5591   25.4877 C   0  0  0  0  0  0  0  0  0  0  0  0
   30.9825   -2.2175   18.6641 H   0  0  0  0  0  0  0  0  0  0  0  0
   29.4541   -4.6670   16.7844 H   0  0  0  0  0  0  0  0  0  0  0  0
   28.4362   -3.0785   18.7049 H   0  0  0  0  0  0  0  0  0  0  0  0
   33.5015   -4.1921   18.0532 H   0  0  0  0  0  0  0  0  0  0  0  0
   31.4483    0.1602   17.2922 H   0  0  0  0  0  0  0  0  0  0  0  0
   35.6644    0.8321   17.0009 H   0  0  0  0  0  0  0  0  0  0  0  0
   37.2554   -1.0363   17.3130 H   0  0  0  0  0  0  0  0  0  0  0  0
   35.8214   -4.9839   18.1393 H   0  0  0  0  0  0  0  0  0  0  0  0
   33.3578    1.6758   16.9224 H   0  0  0  0  0  0  0  0  0  0  0  0
   37.7023   -3.4139   17.7661 H   0  0  0  0  0  0  0  0  0  0  0  0
   26.9658   -4.0446   20.2041 H   0  0  0  0  0  0  0  0  0  0  0  0
   30.7363   -4.9238   22.0681 H   0  0  0  0  0  0  0  0  0  0  0  0
   29.7233   -4.7272   24.2773 H   0  0  0  0  0  0  0  0  0  0  0  0
   27.6186   -3.3344   27.0051 H   0  0  0  0  0  0  0  0  0  0  0  0
   28.2411   -2.3646   25.6696 H   0  0  0  0  0  0  0  0  0  0  0  0
   29.0323   -3.8902   26.1230 H   0  0  0  0  0  0  0  0  0  0  0  0
   24.9380   -3.7176   24.7046 H   0  0  0  0  0  0  0  0  0  0  0  0
   25.9188   -2.2645   25.0078 H   0  0  0  0  0  0  0  0  0  0  0  0
   25.4951   -3.3890   26.3020 H   0  0  0  0  0  0  0  0  0  0  0  0
   27.7011   -6.2145   25.3554 H   0  0  0  0  0  0  0  0  0  0  0  0
   26.0027   -5.9961   24.9202 H   0  0  0  0  0  0  0  0  0  0  0  0
   26.5531   -5.5871   26.5470 H   0  0  0  0  0  0  0  0  0  0  0  0
  1  4  2  0  0  0  0
  1  7  1  0  0  0  0
  1 10  1  0  0  0  0
  2  4  1  0  0  0  0
  2 18  1  0  0  0  0
  2 31  1  0  0  0  0
  3 18  2  0  0  0  0
  4 13  1  0  0  0  0
  5  8  1  0  0  0  0
  5 18  1  0  0  0  0
  5 32  1  0  0  0  0
  6 20  2  0  0  0  0
  7 14  2  0  0  0  0
  7 15  1  0  0  0  0
  8 20  1  0  0  0  0
  8 33  1  0  0  0  0
  9 11  2  0  0  0  0
 10 16  2  0  0  0  0
 10 34  1  0  0  0  0
 11 12  2  0  0  0  0
 11 24  1  0  0  0  0
 13 17  2  0  0  0  0
 13 35  1  0  0  0  0
 14 17  1  0  0  0  0
 14 36  1  0  0  0  0
 15 19  2  0  0  0  0
 15 37  1  0  0  0  0
 16 19  1  0  0  0  0
 16 38  1  0  0  0  0
 17 39  1  0  0  0  0
 19 40  1  0  0  0  0
 20 21  1  0  0  0  0
 21 22  2  0  0  0  0
 21 23  1  0  0  0  0
 22 24  1  0  0  0  0
 22 41  1  0  0  0  0
 23 25  2  0  0  0  0
 23 42  1  0  0  0  0
 24 26  2  0  0  0  0
 25 26  1  0  0  0  0
 25 43  1  0  0  0  0
 26 27  1  0  0  0  0
 27 28  1  0  0  0  0
 27 29  1  0  0  0  0
 27 30  1  0  0  0  0
 28 44  1  0  0  0  0
 28 45  1  0  0  0  0
 28 46  1  0  0  0  0
 29 47  1  0  0  0  0
 29 48  1  0  0  0  0
 29 49  1  0  0  0  0
 30 50  1  0  0  0  0
 30 51  1  0  0  0  0
 30 52  1  0  0  0  0
M  END
$$$$
