AKG
 OpenBabel04091913013D

 14 13  0  0  0  0  0  0  0  0999 V2000
  -42.8065    3.0787   10.3780 C   0  0  0  0  0  0  0  0  0  0  0  0
  -42.2911    1.9168   10.0019 O   0  0  0  0  0  0  0  0  0  0  0  0
  -43.2236    3.9633    9.6310 O   0  0  0  0  0  0  0  0  0  0  0  0
  -42.8090    3.3705   11.8835 C   0  0  0  0  0  0  0  0  0  0  0  0
  -42.9687    4.5795   12.2259 O   0  0  0  0  0  0  0  0  0  0  0  0
  -42.7778    2.5684   13.0410 C   0  0  0  0  0  0  0  0  0  0  0  0
  -44.1692    2.3328   13.5368 C   0  0  0  0  0  0  0  0  0  0  0  0
  -43.8315    1.4902   14.7422 C   0  0  0  0  0  0  0  0  0  0  0  0
  -43.9703    2.0564   15.8616 O   0  0  0  0  0  0  0  0  0  0  0  0
  -43.4598    0.3069   14.5051 O   0  0  0  0  0  0  0  0  0  0  0  0
  -42.2401    3.2645   13.7050 H   0  0  0  0  0  0  0  0  0  0  0  0
  -42.1790    1.7069   12.8250 H   0  0  0  0  0  0  0  0  0  0  0  0
  -44.7597    1.8073   12.7840 H   0  0  0  0  0  0  0  0  0  0  0  0
  -44.6820    3.2698   13.8039 H   0  0  0  0  0  0  0  0  0  0  0  0
  1  2  2  0  0  0  0
  1  3  1  0  0  0  0
  1  4  1  0  0  0  0
  4  5  2  0  0  0  0
  4  6  1  0  0  0  0
  6  7  1  0  0  0  0
  6 11  1  0  0  0  0
  6 12  1  0  0  0  0
  7  8  1  0  0  0  0
  7 13  1  0  0  0  0
  7 14  1  0  0  0  0
  8  9  2  0  0  0  0
  8 10  1  0  0  0  0
M  END
$$$$
