AKG
 OpenBabel04091914193D

 14 13  0  0  0  0  0  0  0  0999 V2000
   14.2142   24.7730   -5.4840 C   0  0  0  0  0  0  0  0  0  0  0  0
   13.6189   24.3818   -6.5332 O   0  0  0  0  0  0  0  0  0  0  0  0
   15.1155   24.1345   -4.8605 O   0  0  0  0  0  0  0  0  0  0  0  0
   13.8433   26.1299   -4.8753 C   0  0  0  0  0  0  0  0  0  0  0  0
   13.1930   26.9042   -5.5928 O   0  0  0  0  0  0  0  0  0  0  0  0
   14.2635   26.4820   -3.4770 C   0  0  0  0  0  0  0  0  0  0  0  0
   13.2867   27.4984   -2.9003 C   0  0  0  0  0  0  0  0  0  0  0  0
   13.6260   27.9074   -1.4694 C   0  0  0  0  0  0  0  0  0  0  0  0
   14.4293   27.1707   -0.8344 O   0  0  0  0  0  0  0  0  0  0  0  0
   13.0517   28.9579   -1.0591 O   0  0  0  0  0  0  0  0  0  0  0  0
   15.2718   26.9072   -3.5032 H   0  0  0  0  0  0  0  0  0  0  0  0
   14.2654   25.5778   -2.8593 H   0  0  0  0  0  0  0  0  0  0  0  0
   12.2711   27.0713   -2.9216 H   0  0  0  0  0  0  0  0  0  0  0  0
   13.2836   28.3969   -3.5392 H   0  0  0  0  0  0  0  0  0  0  0  0
  1  2  2  0  0  0  0
  1  3  1  0  0  0  0
  1  4  1  0  0  0  0
  4  5  2  0  0  0  0
  4  6  1  0  0  0  0
  6  7  1  0  0  0  0
  6 11  1  0  0  0  0
  6 12  1  0  0  0  0
  7  8  1  0  0  0  0
  7 13  1  0  0  0  0
  7 14  1  0  0  0  0
  8  9  2  0  0  0  0
  8 10  1  0  0  0  0
M  END
$$$$
