ALA
 OpenBabel04091913123D

 13 12  0  0  1  0  0  0  0  0999 V2000
  -23.7282   15.9913   13.5806 N   0  3  0  0  0  0  0  0  0  0  0  0
  -24.0896   17.4497   13.5249 C   0  0  2  0  0  0  0  0  0  0  0  0
  -23.2960   18.2085   12.4274 C   0  0  0  0  0  0  0  0  0  0  0  0
  -23.5379   19.4433   12.3502 O   0  0  0  0  0  0  0  0  0  0  0  0
  -23.8486   18.0373   14.9040 C   0  0  0  0  0  0  0  0  0  0  0  0
  -22.5366   17.4384   11.7714 O   0  0  0  0  0  0  0  0  0  0  0  0
  -24.2378   15.4824   14.2967 H   0  0  0  0  0  0  0  0  0  0  0  0
  -23.8928   15.6156   12.6332 H   0  0  0  0  0  0  0  0  0  0  0  0
  -25.1588   17.4824   13.3031 H   0  0  0  0  0  0  0  0  0  0  0  0
  -24.1377   19.0935   14.9146 H   0  0  0  0  0  0  0  0  0  0  0  0
  -22.7936   17.9688   15.1863 H   0  0  0  0  0  0  0  0  0  0  0  0
  -24.4439   17.5197   15.6657 H   0  0  0  0  0  0  0  0  0  0  0  0
  -22.7051   15.9351   13.6988 H   0  0  0  0  0  0  0  0  0  0  0  0
  1  2  1  0  0  0  0
  1  7  1  0  0  0  0
  1  8  1  0  0  0  0
  1 13  1  0  0  0  0
  2  3  1  0  0  0  0
  2  5  1  0  0  0  0
  2  9  1  6  0  0  0
  3  4  2  0  0  0  0
  3  6  1  0  0  0  0
  5 10  1  0  0  0  0
  5 11  1  0  0  0  0
  5 12  1  0  0  0  0
M  CHG  1   1   1
M  END
$$$$
