AMQ
 OpenBabel04091912273D

 23 23  0  0  1  0  0  0  0  0999 V2000
   11.8673   49.7564   20.0064 N   0  3  0  0  0  0  0  0  0  0  0  0
   12.3516   51.0880   20.5379 C   0  0  2  0  0  0  0  0  0  0  0  0
   13.2785   50.8824   21.7585 C   0  0  0  0  0  0  0  0  0  0  0  0
   13.7066   51.9341   22.3031 O   0  0  0  0  0  0  0  0  0  0  0  0
   13.4633   49.6624   22.0336 O   0  0  0  0  0  0  0  0  0  0  0  0
   11.1279   51.9374   20.8882 C   0  0  0  0  0  0  0  0  0  0  0  0
   10.2710   52.2085   19.6957 C   0  0  0  0  0  0  0  0  0  0  0  0
   10.5335   53.3187   18.7783 C   0  0  0  0  0  0  0  0  0  0  0  0
    9.2013   51.5890   19.1944 C   0  0  0  0  0  0  0  0  0  0  0  0
    8.5186   50.3653   19.7385 C   0  0  0  0  0  0  0  0  0  0  0  0
   11.4433   54.1185   18.8678 O   0  0  0  0  0  0  0  0  0  0  0  0
    9.6067   53.2502   17.7941 N   0  3  0  0  0  0  0  0  0  0  0  0
    8.7136   52.1611   18.0033 O   0  0  0  0  0  0  0  0  0  0  0  0
   11.2719   49.8597   19.1931 H   0  0  0  0  0  0  0  0  0  0  0  0
   12.7014   49.1859   19.8138 H   0  0  0  0  0  0  0  0  0  0  0  0
   12.9200   51.5513   19.7241 H   0  0  0  0  0  0  0  0  0  0  0  0
   11.4507   52.8882   21.3235 H   0  0  0  0  0  0  0  0  0  0  0  0
   10.5200   51.4276   21.6423 H   0  0  0  0  0  0  0  0  0  0  0  0
    7.6609   50.0381   19.1398 H   0  0  0  0  0  0  0  0  0  0  0  0
    8.1597   50.5434   20.7596 H   0  0  0  0  0  0  0  0  0  0  0  0
    9.2073   49.5117   19.7862 H   0  0  0  0  0  0  0  0  0  0  0  0
    9.5102   53.8857   17.0122 H   0  0  0  0  0  0  0  0  0  0  0  0
   11.4039   49.2761   20.7925 H   0  0  0  0  0  0  0  0  0  0  0  0
  1  2  1  0  0  0  0
  1 14  1  0  0  0  0
  1 15  1  0  0  0  0
  1 23  1  0  0  0  0
  2  3  1  0  0  0  0
  2  6  1  0  0  0  0
  2 16  1  6  0  0  0
  3  4  2  0  0  0  0
  3  5  1  0  0  0  0
  6  7  1  0  0  0  0
  6 17  1  0  0  0  0
  6 18  1  0  0  0  0
  7  8  1  0  0  0  0
  7  9  2  0  0  0  0
  8 11  2  0  0  0  0
  8 12  1  0  0  0  0
  9 10  1  0  0  0  0
  9 13  1  0  0  0  0
 10 19  1  0  0  0  0
 10 20  1  0  0  0  0
 10 21  1  0  0  0  0
 12 13  1  0  0  0  0
 12 22  1  0  0  0  0
M  CHG  2   1   1  12   1
M  END
$$$$
