AMQ
 OpenBabel04091911303D

 23 23  0  0  1  0  0  0  0  0999 V2000
   20.9727   20.7718   13.3308 N   0  3  0  0  0  0  0  0  0  0  0  0
   20.7817   19.5255   14.1906 C   0  0  2  0  0  0  0  0  0  0  0  0
   19.2620   19.1983   14.3362 C   0  0  0  0  0  0  0  0  0  0  0  0
   18.5639   20.0500   13.6968 O   0  0  0  0  0  0  0  0  0  0  0  0
   18.9551   18.1948   15.0176 O   0  0  0  0  0  0  0  0  0  0  0  0
   21.4471   19.7635   15.5480 C   0  0  0  0  0  0  0  0  0  0  0  0
   22.9109   20.0546   15.4365 C   0  0  0  0  0  0  0  0  0  0  0  0
   23.9024   18.9742   15.2859 C   0  0  0  0  0  0  0  0  0  0  0  0
   23.6695   21.1660   15.4592 C   0  0  0  0  0  0  0  0  0  0  0  0
   23.2627   22.5919   15.5719 C   0  0  0  0  0  0  0  0  0  0  0  0
   23.6332   17.7955   15.1987 O   0  0  0  0  0  0  0  0  0  0  0  0
   25.1295   19.5590   15.2050 N   0  3  0  0  0  0  0  0  0  0  0  0
   25.0367   20.9517   15.3234 O   0  0  0  0  0  0  0  0  0  0  0  0
   21.9402   21.0406   13.1716 H   0  0  0  0  0  0  0  0  0  0  0  0
   20.4625   20.5916   12.4537 H   0  0  0  0  0  0  0  0  0  0  0  0
   21.2553   18.7110   13.6326 H   0  0  0  0  0  0  0  0  0  0  0  0
   21.3090   18.8758   16.1793 H   0  0  0  0  0  0  0  0  0  0  0  0
   20.9424   20.5811   16.0774 H   0  0  0  0  0  0  0  0  0  0  0  0
   24.1389   23.2426   15.5304 H   0  0  0  0  0  0  0  0  0  0  0  0
   22.7503   22.7861   16.5229 H   0  0  0  0  0  0  0  0  0  0  0  0
   22.6054   22.8853   14.7423 H   0  0  0  0  0  0  0  0  0  0  0  0
   26.0241   19.0925   15.1479 H   0  0  0  0  0  0  0  0  0  0  0  0
   20.4007   21.5119   13.7616 H   0  0  0  0  0  0  0  0  0  0  0  0
  1  2  1  0  0  0  0
  1 14  1  0  0  0  0
  1 15  1  0  0  0  0
  1 23  1  0  0  0  0
  2  3  1  0  0  0  0
  2  6  1  0  0  0  0
  2 16  1  6  0  0  0
  3  4  2  0  0  0  0
  3  5  1  0  0  0  0
  6  7  1  0  0  0  0
  6 17  1  0  0  0  0
  6 18  1  0  0  0  0
  7  8  1  0  0  0  0
  7  9  2  0  0  0  0
  8 11  2  0  0  0  0
  8 12  1  0  0  0  0
  9 10  1  0  0  0  0
  9 13  1  0  0  0  0
 10 19  1  0  0  0  0
 10 20  1  0  0  0  0
 10 21  1  0  0  0  0
 12 13  1  0  0  0  0
 12 22  1  0  0  0  0
M  CHG  2   1   1  12   1
M  END
$$$$
