ANP
 OpenBabel04091912403D

 14 13  0  0  0  0  0  0  0  0999 V2000
   13.5616   16.9773   15.8867 P   0  0  0  0  0  0  0  0  0  0  0  0
   13.3290   18.3666   15.2416 O   0  0  0  0  0  0  0  0  0  0  0  0
   13.7398   17.1506   17.3920 O   0  0  0  0  0  0  0  0  0  0  0  0
   14.6520   16.1804   15.2219 O   0  0  0  0  0  0  0  0  0  0  0  0
   11.4879   14.9439   14.8517 P   0  0  1  0  0  0  0  0  0  0  0  0
    9.9943   14.9658   15.2216 O   0  0  0  0  0  0  0  0  0  0  0  0
   11.7370   15.2229   13.3685 O   0  0  0  0  0  0  0  0  0  0  0  0
   12.0275   16.2473   15.7894 N   0  0  0  0  0  0  0  0  0  0  0  0
   12.6272   12.1466   14.8850 P   0  0  0  0  0  0  0  0  0  0  0  0
   13.6576   12.3080   13.7721 O   0  0  0  0  0  0  0  0  0  0  0  0
   11.3859   11.3731   14.4227 O   0  0  0  0  0  0  0  0  0  0  0  0
   12.1661   13.6051   15.4403 O   0  0  0  0  0  0  0  0  0  0  0  0
   13.2429   11.4118   16.1046 O   0  0  0  0  0  0  0  0  0  0  0  0
   11.3239   16.7211   16.2904 H   0  0  0  0  0  0  0  0  0  0  0  0
  1  2  2  0  0  0  0
  1  3  1  0  0  0  0
  1  4  1  0  0  0  0
  1  8  1  0  0  0  0
  5  6  2  1  0  0  0
  5  7  1  0  0  0  0
  5  8  1  0  0  0  0
  5 12  1  0  0  0  0
  8 14  1  0  0  0  0
  9 10  2  0  0  0  0
  9 11  1  0  0  0  0
  9 12  1  0  0  0  0
  9 13  1  0  0  0  0
M  END
$$$$
