AR6
 OpenBabel04091914473D

 57 60  0  0  1  0  0  0  0  0999 V2000
  -26.1249    7.4755  -26.1224 N   0  0  0  0  0  0  0  0  0  0  0  0
  -26.6341    7.7494  -24.8950 C   0  0  0  0  0  0  0  0  0  0  0  0
  -26.2099    8.6609  -23.9666 N   0  0  0  0  0  0  0  0  0  0  0  0
  -25.1339    9.3359  -24.4670 C   0  0  0  0  0  0  0  0  0  0  0  0
  -24.5214    9.1692  -25.6865 C   0  0  0  0  0  0  0  0  0  0  0  0
  -25.0479    8.1824  -26.5237 C   0  0  0  0  0  0  0  0  0  0  0  0
  -24.4439    7.9046  -27.7309 N   0  0  0  0  0  0  0  0  0  0  0  0
  -23.4551   10.0168  -25.8391 N   0  0  0  0  0  0  0  0  0  0  0  0
  -23.4761   10.7673  -24.7626 C   0  0  0  0  0  0  0  0  0  0  0  0
  -24.4526   10.3756  -23.8818 N   0  3  0  0  0  0  0  0  0  0  0  0
  -24.6001   16.1207  -23.9991 P   0  0  1  0  0  0  0  0  0  0  0  0
  -26.5370   17.9234  -22.7506 P   0  0  1  0  0  0  0  0  0  0  0  0
  -24.7991   11.0244  -22.6488 C   0  0  1  0  0  0  0  0  0  0  0  0
  -24.5473   15.6052  -25.4230 O   0  0  0  0  0  0  0  0  0  0  0  0
  -28.0509   17.8265  -22.6994 O   0  0  0  0  0  0  0  0  0  0  0  0
  -26.1115   22.2592  -25.5332 C   0  0  2  0  0  0  0  0  0  0  0  0
  -26.9177   23.1252  -26.3162 O   0  0  0  0  0  0  0  0  0  0  0  0
  -23.6656   11.7237  -21.9103 C   0  0  2  0  0  0  0  0  0  0  0  0
  -22.9330   10.8078  -21.0840 O   0  0  0  0  0  0  0  0  0  0  0  0
  -23.4455   16.9738  -23.5274 O   0  0  0  0  0  0  0  0  0  0  0  0
  -25.7915   17.8482  -21.4407 O   0  0  0  0  0  0  0  0  0  0  0  0
  -24.7267   22.0686  -26.1817 C   0  0  2  0  0  0  0  0  0  0  0  0
  -24.4898   22.9456  -27.2995 O   0  0  0  0  0  0  0  0  0  0  0  0
  -24.4308   12.7653  -21.1054 C   0  0  2  0  0  0  0  0  0  0  0  0
  -24.7445   12.1878  -19.8198 O   0  0  0  0  0  0  0  0  0  0  0  0
  -26.0171   16.8322  -23.7931 O   0  0  0  0  0  0  0  0  0  0  0  0
  -24.7707   20.6261  -26.6705 C   0  0  2  0  0  0  0  0  0  0  0  0
  -25.2692   20.6423  -28.0289 O   0  0  0  0  0  0  0  0  0  0  0  0
  -25.7292   12.9956  -21.8979 C   0  0  2  0  0  0  0  0  0  0  0  0
  -25.7610   12.0302  -22.9659 O   0  0  0  0  0  0  0  0  0  0  0  0
  -25.7993   19.9726  -25.7578 C   0  0  2  0  0  0  0  0  0  0  0  0
  -26.7775   21.0084  -25.5191 O   0  0  0  0  0  0  0  0  0  0  0  0
  -25.8831   14.4150  -22.4422 C   0  0  0  0  0  0  0  0  0  0  0  0
  -24.6673   14.8107  -23.0401 O   0  0  0  0  0  0  0  0  0  0  0  0
  -25.1914   19.4981  -24.4361 C   0  0  0  0  0  0  0  0  0  0  0  0
  -26.2141   19.3354  -23.4796 O   0  0  0  0  0  0  0  0  0  0  0  0
  -27.4913    7.1487  -24.6002 H   0  0  0  0  0  0  0  0  0  0  0  0
  -23.7648    8.5942  -28.0393 H   0  0  0  0  0  0  0  0  0  0  0  0
  -24.9430    7.3185  -28.3732 H   0  0  0  0  0  0  0  0  0  0  0  0
  -22.8156   11.6066  -24.5891 H   0  0  0  0  0  0  0  0  0  0  0  0
  -25.2673   10.2752  -21.9908 H   0  0  0  0  0  0  0  0  0  0  0  0
  -26.0306   22.6412  -24.5090 H   0  0  0  0  0  0  0  0  0  0  0  0
  -27.1225   22.5594  -27.0808 H   0  0  0  0  0  0  0  0  0  0  0  0
  -22.9612   12.2266  -22.5795 H   0  0  0  0  0  0  0  0  0  0  0  0
  -23.5346   10.6202  -20.3340 H   0  0  0  0  0  0  0  0  0  0  0  0
  -23.9333   22.2267  -25.4435 H   0  0  0  0  0  0  0  0  0  0  0  0
  -25.2879   22.8405  -27.8537 H   0  0  0  0  0  0  0  0  0  0  0  0
  -23.8391   13.6707  -20.9358 H   0  0  0  0  0  0  0  0  0  0  0  0
  -25.1974   12.9035  -19.3327 H   0  0  0  0  0  0  0  0  0  0  0  0
  -23.7887   20.1415  -26.6669 H   0  0  0  0  0  0  0  0  0  0  0  0
  -24.5915   21.1096  -28.5484 H   0  0  0  0  0  0  0  0  0  0  0  0
  -26.6025   12.7549  -21.2811 H   0  0  0  0  0  0  0  0  0  0  0  0
  -26.3126   19.1454  -26.2600 H   0  0  0  0  0  0  0  0  0  0  0  0
  -26.0929   15.0833  -21.6014 H   0  0  0  0  0  0  0  0  0  0  0  0
  -26.7053   14.4566  -23.1639 H   0  0  0  0  0  0  0  0  0  0  0  0
  -24.4765   20.2263  -24.0423 H   0  0  0  0  0  0  0  0  0  0  0  0
  -24.6458   18.5893  -24.6500 H   0  0  0  0  0  0  0  0  0  0  0  0
  1  2  2  0  0  0  0
  1  6  1  0  0  0  0
  2  3  1  0  0  0  0
  2 37  1  0  0  0  0
  3  4  2  0  0  0  0
  4  5  1  0  0  0  0
  4 10  1  0  0  0  0
  5  6  2  0  0  0  0
  5  8  1  0  0  0  0
  6  7  1  0  0  0  0
  7 38  1  0  0  0  0
  7 39  1  0  0  0  0
  8  9  1  0  0  0  0
  9 10  2  0  0  0  0
  9 40  1  0  0  0  0
 10 13  1  0  0  0  0
 11 14  2  6  0  0  0
 11 20  1  0  0  0  0
 11 26  1  0  0  0  0
 11 34  1  0  0  0  0
 12 15  2  1  0  0  0
 12 21  1  0  0  0  0
 12 26  1  0  0  0  0
 12 36  1  0  0  0  0
 13 18  1  0  0  0  0
 13 30  1  0  0  0  0
 13 41  1  1  0  0  0
 16 17  1  0  0  0  0
 16 22  1  0  0  0  0
 16 32  1  0  0  0  0
 16 42  1  1  0  0  0
 17 43  1  0  0  0  0
 18 19  1  0  0  0  0
 18 24  1  0  0  0  0
 18 44  1  6  0  0  0
 19 45  1  0  0  0  0
 22 23  1  0  0  0  0
 22 27  1  0  0  0  0
 22 46  1  1  0  0  0
 23 47  1  0  0  0  0
 24 25  1  0  0  0  0
 24 29  1  0  0  0  0
 24 48  1  1  0  0  0
 25 49  1  0  0  0  0
 27 28  1  0  0  0  0
 27 31  1  0  0  0  0
 27 50  1  1  0  0  0
 28 51  1  0  0  0  0
 29 30  1  0  0  0  0
 29 33  1  0  0  0  0
 29 52  1  1  0  0  0
 31 32  1  0  0  0  0
 31 35  1  0  0  0  0
 31 53  1  6  0  0  0
 33 34  1  0  0  0  0
 33 54  1  0  0  0  0
 33 55  1  0  0  0  0
 35 36  1  0  0  0  0
 35 56  1  0  0  0  0
 35 57  1  0  0  0  0
M  CHG  1  10   1
M  END
$$$$
