ARQ
 OpenBabel04091910523D

 75 77  0  0  1  0  0  0  0  0999 V2000
    1.4656    1.3223   11.3594 C   0  0  0  0  0  0  0  0  0  0  0  0
    0.5756    0.2598   12.0199 C   0  0  0  0  0  0  0  0  0  0  0  0
    0.6766    2.6268   11.4019 C   0  0  0  0  0  0  0  0  0  0  0  0
    1.8399    1.0043    9.9070 C   0  0  0  0  0  0  0  0  0  0  0  0
    2.6585    1.5805   12.1410 O   0  0  0  0  0  0  0  0  0  0  0  0
    3.5199    0.5840   12.3869 C   0  0  0  0  0  0  0  0  0  0  0  0
    3.4234   -0.5815   11.9774 O   0  0  0  0  0  0  0  0  0  0  0  0
    4.4886    0.9924   13.2323 N   0  0  0  0  0  0  0  0  0  0  0  0
    5.7121    0.2658   13.5565 C   0  0  1  0  0  0  0  0  0  0  0  0
    6.9482    1.1585   13.3538 C   0  0  0  0  0  0  0  0  0  0  0  0
    6.9736    1.8273   11.9966 C   0  0  0  0  0  0  0  0  0  0  0  0
    6.8237    1.0680   10.8234 C   0  0  0  0  0  0  0  0  0  0  0  0
    6.7940    1.7114    9.5840 C   0  0  0  0  0  0  0  0  0  0  0  0
    6.9264    3.1072    9.5244 C   0  0  0  0  0  0  0  0  0  0  0  0
    7.1153    3.2258   11.9277 C   0  0  0  0  0  0  0  0  0  0  0  0
    7.0841    3.8704   10.6888 C   0  0  0  0  0  0  0  0  0  0  0  0
    5.6496   -0.3252   14.9853 C   0  0  1  0  0  0  0  0  0  0  0  0
    5.2623    0.6405   15.9799 O   0  0  0  0  0  0  0  0  0  0  0  0
    4.6603   -1.4892   14.9755 C   0  0  0  0  0  0  0  0  0  0  0  0
    4.9940   -2.6326   15.9134 N   0  3  1  0  0  0  0  0  0  0  0  0
    5.4483   -2.2050   17.2766 C   0  0  0  0  0  0  0  0  0  0  0  0
    3.7107   -3.4819   16.0224 C   0  0  0  0  0  0  0  0  0  0  0  0
    3.7290   -4.7077   16.8857 C   0  0  0  0  0  0  0  0  0  0  0  0
    4.0588   -5.9442   16.3192 C   0  0  0  0  0  0  0  0  0  0  0  0
    4.1637   -7.0916   17.1172 C   0  0  0  0  0  0  0  0  0  0  0  0
    3.9540   -6.9940   18.4960 C   0  0  0  0  0  0  0  0  0  0  0  0
    3.3907   -4.6442   18.2463 C   0  0  0  0  0  0  0  0  0  0  0  0
    3.5084   -5.7881   19.0512 C   0  0  0  0  0  0  0  0  0  0  0  0
    6.1077   -3.3529   15.3293 N   0  0  0  0  0  0  0  0  0  0  0  0
    6.0469   -4.0439   14.1242 C   0  0  0  0  0  0  0  0  0  0  0  0
    5.0286   -4.2271   13.5119 O   0  0  0  0  0  0  0  0  0  0  0  0
    7.3690   -4.5880   13.6614 C   0  0  0  0  0  0  0  0  0  0  0  0
    7.3440   -5.4868   12.5834 C   0  0  0  0  0  0  0  0  0  0  0  0
    8.5222   -6.0872   12.1408 C   0  0  0  0  0  0  0  0  0  0  0  0
    9.7185   -5.7914   12.7994 C   0  0  0  0  0  0  0  0  0  0  0  0
    8.5868   -4.2343   14.2628 C   0  0  0  0  0  0  0  0  0  0  0  0
    9.7671   -4.8440   13.8313 C   0  0  0  0  0  0  0  0  0  0  0  0
   -0.3379    0.0951   11.4357 H   0  0  0  0  0  0  0  0  0  0  0  0
    0.2804    0.5859   13.0298 H   0  0  0  0  0  0  0  0  0  0  0  0
    1.0923   -0.6970   12.1250 H   0  0  0  0  0  0  0  0  0  0  0  0
   -0.2592    2.5285   10.8460 H   0  0  0  0  0  0  0  0  0  0  0  0
    1.2649    3.4482   10.9770 H   0  0  0  0  0  0  0  0  0  0  0  0
    0.4432    2.8864   12.4444 H   0  0  0  0  0  0  0  0  0  0  0  0
    0.9446    0.8251    9.3025 H   0  0  0  0  0  0  0  0  0  0  0  0
    2.4820    0.1189    9.8471 H   0  0  0  0  0  0  0  0  0  0  0  0
    2.3980    1.8426    9.4621 H   0  0  0  0  0  0  0  0  0  0  0  0
    4.3893    1.9452   13.5719 H   0  0  0  0  0  0  0  0  0  0  0  0
    5.8078   -0.5810   12.8638 H   0  0  0  0  0  0  0  0  0  0  0  0
    7.8575    0.5514   13.4538 H   0  0  0  0  0  0  0  0  0  0  0  0
    6.9639    1.9371   14.1262 H   0  0  0  0  0  0  0  0  0  0  0  0
    6.7136   -0.0155   10.8750 H   0  0  0  0  0  0  0  0  0  0  0  0
    6.6705    1.1327    8.6690 H   0  0  0  0  0  0  0  0  0  0  0  0
    6.9092    3.6046    8.5568 H   0  0  0  0  0  0  0  0  0  0  0  0
    7.2409    3.8072   12.8410 H   0  0  0  0  0  0  0  0  0  0  0  0
    7.1818    4.9547   10.6308 H   0  0  0  0  0  0  0  0  0  0  0  0
    6.6486   -0.6736   15.2608 H   0  0  0  0  0  0  0  0  0  0  0  0
    4.3666    0.9671   15.7767 H   0  0  0  0  0  0  0  0  0  0  0  0
    4.5983   -1.9220   13.9807 H   0  0  0  0  0  0  0  0  0  0  0  0
    3.6755   -1.1417   15.2915 H   0  0  0  0  0  0  0  0  0  0  0  0
    5.6772   -3.0914   17.8732 H   0  0  0  0  0  0  0  0  0  0  0  0
    4.6435   -1.6300   17.7247 H   0  0  0  0  0  0  0  0  0  0  0  0
    6.3435   -1.5992   17.1628 H   0  0  0  0  0  0  0  0  0  0  0  0
    3.4005   -3.7342   15.0074 H   0  0  0  0  0  0  0  0  0  0  0  0
    2.9614   -2.7799   16.4269 H   0  0  0  0  0  0  0  0  0  0  0  0
    4.2309   -6.0183   15.2450 H   0  0  0  0  0  0  0  0  0  0  0  0
    4.4036   -8.0528   16.6625 H   0  0  0  0  0  0  0  0  0  0  0  0
    4.1315   -7.8585   19.1376 H   0  0  0  0  0  0  0  0  0  0  0  0
    3.0404   -3.7095   18.6856 H   0  0  0  0  0  0  0  0  0  0  0  0
    3.2485   -5.7419   20.1090 H   0  0  0  0  0  0  0  0  0  0  0  0
    7.0039   -3.2620   15.7876 H   0  0  0  0  0  0  0  0  0  0  0  0
    6.4032   -5.7221   12.0915 H   0  0  0  0  0  0  0  0  0  0  0  0
    8.5083   -6.7795   11.2940 H   0  0  0  0  0  0  0  0  0  0  0  0
   10.6284   -6.3090   12.4991 H   0  0  0  0  0  0  0  0  0  0  0  0
    8.6560   -3.4953   15.0572 H   0  0  0  0  0  0  0  0  0  0  0  0
   10.7257   -4.5905   14.2880 H   0  0  0  0  0  0  0  0  0  0  0  0
  1  5  1  0  0  0  0
  1  4  1  0  0  0  0
  1  3  1  0  0  0  0
  1  2  1  0  0  0  0
  2 38  1  0  0  0  0
  2 39  1  0  0  0  0
  2 40  1  0  0  0  0
  3 41  1  0  0  0  0
  3 42  1  0  0  0  0
  3 43  1  0  0  0  0
  4 44  1  0  0  0  0
  4 45  1  0  0  0  0
  4 46  1  0  0  0  0
  5  6  1  0  0  0  0
  6  8  1  0  0  0  0
  6  7  2  0  0  0  0
  8  9  1  0  0  0  0
  8 47  1  0  0  0  0
  9 17  1  0  0  0  0
  9 10  1  0  0  0  0
  9 48  1  6  0  0  0
 10 11  1  0  0  0  0
 10 49  1  0  0  0  0
 10 50  1  0  0  0  0
 11 15  2  0  0  0  0
 11 12  1  0  0  0  0
 12 13  2  0  0  0  0
 12 51  1  0  0  0  0
 13 14  1  0  0  0  0
 13 52  1  0  0  0  0
 14 16  2  0  0  0  0
 14 53  1  0  0  0  0
 15 16  1  0  0  0  0
 15 54  1  0  0  0  0
 16 55  1  0  0  0  0
 17 19  1  0  0  0  0
 17 18  1  0  0  0  0
 17 56  1  1  0  0  0
 18 57  1  0  0  0  0
 19 58  1  0  0  0  0
 19 59  1  0  0  0  0
 20 19  1  6  0  0  0
 20 29  1  0  0  0  0
 20 22  1  0  0  0  0
 20 21  1  0  0  0  0
 21 60  1  0  0  0  0
 21 61  1  0  0  0  0
 21 62  1  0  0  0  0
 22 23  1  0  0  0  0
 22 63  1  0  0  0  0
 22 64  1  0  0  0  0
 23 27  2  0  0  0  0
 23 24  1  0  0  0  0
 24 25  2  0  0  0  0
 24 65  1  0  0  0  0
 25 26  1  0  0  0  0
 25 66  1  0  0  0  0
 26 28  2  0  0  0  0
 26 67  1  0  0  0  0
 27 28  1  0  0  0  0
 27 68  1  0  0  0  0
 28 69  1  0  0  0  0
 29 30  1  0  0  0  0
 29 70  1  0  0  0  0
 30 32  1  0  0  0  0
 30 31  2  0  0  0  0
 32 36  2  0  0  0  0
 32 33  1  0  0  0  0
 33 34  2  0  0  0  0
 33 71  1  0  0  0  0
 34 35  1  0  0  0  0
 34 72  1  0  0  0  0
 35 37  2  0  0  0  0
 35 73  1  0  0  0  0
 36 37  1  0  0  0  0
 36 74  1  0  0  0  0
 37 75  1  0  0  0  0
M  CHG  1  20   1
M  END
$$$$
