ARU
 OpenBabel04091910503D

 57 59  0  0  1  0  0  0  0  0999 V2000
   35.3319   25.8470   32.6397 N   0  0  0  0  0  0  0  0  0  0  0  0
   33.9997   25.7042   32.6458 C   0  0  0  0  0  0  0  0  0  0  0  0
   33.0802   26.5950   32.2826 N   0  0  0  0  0  0  0  0  0  0  0  0
   33.6344   27.7212   31.8650 C   0  0  0  0  0  0  0  0  0  0  0  0
   34.9667   28.0392   31.8012 C   0  0  0  0  0  0  0  0  0  0  0  0
   35.8351   27.0117   32.2074 C   0  0  0  0  0  0  0  0  0  0  0  0
   37.2046   27.1933   32.2522 N   0  0  0  0  0  0  0  0  0  0  0  0
   35.1591   29.3277   31.3503 N   0  0  0  0  0  0  0  0  0  0  0  0
   34.0075   29.7939   31.0946 C   0  0  0  0  0  0  0  0  0  0  0  0
   33.0044   28.8540   31.4110 N   0  3  0  0  0  0  0  0  0  0  0  0
   31.6020   28.9597   31.2794 C   0  0  1  0  0  0  0  0  0  0  0  0
   30.9834   30.3389   31.4216 C   0  0  2  0  0  0  0  0  0  0  0  0
   30.8415   30.7321   32.7851 O   0  0  0  0  0  0  0  0  0  0  0  0
   29.6350   30.1209   30.7736 C   0  0  2  0  0  0  0  0  0  0  0  0
   28.5861   29.8680   31.7125 O   0  0  0  0  0  0  0  0  0  0  0  0
   29.8273   28.8386   29.9757 C   0  0  2  0  0  0  0  0  0  0  0  0
   31.2425   28.5598   29.9715 O   0  0  0  0  0  0  0  0  0  0  0  0
   29.2538   29.1423   28.6344 C   0  0  0  0  0  0  0  0  0  0  0  0
   30.2821   29.8667   28.0115 O   0  0  0  0  0  0  0  0  0  0  0  0
   37.7862   28.7527   30.4657 C   0  0  0  0  0  0  0  0  0  0  0  0
   37.7404   28.5028   31.9481 C   0  0  0  0  0  0  0  0  0  0  0  0
   38.0310   26.0199   32.3791 C   0  0  0  0  0  0  0  0  0  0  0  0
   39.3294   26.3953   33.0460 C   0  0  0  0  0  0  0  0  0  0  0  0
   27.4757   35.8971   25.6264 O   0  0  0  0  0  0  0  0  0  0  0  0
   27.7719   33.7937   29.6104 Br  0  0  0  0  0  0  0  0  0  0  0  0
   28.1667   32.8417   25.2977 O   0  0  0  0  0  0  0  0  0  0  0  0
   31.0994   31.5948   26.5781 O   0  0  0  0  0  0  0  0  0  0  0  0
   27.8436   36.9229   27.9258 O   0  0  0  0  0  0  0  0  0  0  0  0
   27.2315   35.7633   27.1256 P   0  0  0  0  0  0  0  0  0  0  0  0
   28.1709   34.2131   27.6864 C   0  0  0  0  0  0  0  0  0  0  0  0
   27.7023   32.7184   26.7318 P   0  0  2  0  0  0  0  0  0  0  0  0
   28.6782   31.6605   27.5439 O   0  0  0  0  0  0  0  0  0  0  0  0
   29.8127   30.8257   26.7845 P   0  0  2  0  0  0  0  0  0  0  0  0
   25.7835   35.5491   27.5488 O   0  0  0  0  0  0  0  0  0  0  0  0
   30.1247   34.6186   27.5318 Br  0  0  0  0  0  0  0  0  0  0  0  0
   26.2677   32.2524   27.0049 O   0  0  0  0  0  0  0  0  0  0  0  0
   29.3593   29.7827   25.8156 O   0  0  0  0  0  0  0  0  0  0  0  0
   33.6297   24.7589   33.0006 H   0  0  0  0  0  0  0  0  0  0  0  0
   33.7441   30.7546   30.7052 H   0  0  0  0  0  0  0  0  0  0  0  0
   31.1458   28.2682   32.0087 H   0  0  0  0  0  0  0  0  0  0  0  0
   31.5595   31.0847   30.8582 H   0  0  0  0  0  0  0  0  0  0  0  0
   31.7380   30.7362   33.1450 H   0  0  0  0  0  0  0  0  0  0  0  0
   29.3734   30.9726   30.1296 H   0  0  0  0  0  0  0  0  0  0  0  0
   28.5446   30.6728   32.2561 H   0  0  0  0  0  0  0  0  0  0  0  0
   29.3396   27.9673   30.4244 H   0  0  0  0  0  0  0  0  0  0  0  0
   28.3604   29.7647   28.7770 H   0  0  0  0  0  0  0  0  0  0  0  0
   29.0014   28.2428   28.0938 H   0  0  0  0  0  0  0  0  0  0  0  0
   38.2138   29.7364   30.2702 H   0  0  0  0  0  0  0  0  0  0  0  0
   36.7879   28.7244   30.0337 H   0  0  0  0  0  0  0  0  0  0  0  0
   38.3713   27.9831   29.9645 H   0  0  0  0  0  0  0  0  0  0  0  0
   38.7416   28.5832   32.3518 H   0  0  0  0  0  0  0  0  0  0  0  0
   37.1720   29.2746   32.4723 H   0  0  0  0  0  0  0  0  0  0  0  0
   38.2233   25.5740   31.3979 H   0  0  0  0  0  0  0  0  0  0  0  0
   37.5309   25.2702   33.0066 H   0  0  0  0  0  0  0  0  0  0  0  0
   39.9677   25.5309   33.1719 H   0  0  0  0  0  0  0  0  0  0  0  0
   39.1316   26.8576   34.0221 H   0  0  0  0  0  0  0  0  0  0  0  0
   39.8801   27.1151   32.4267 H   0  0  0  0  0  0  0  0  0  0  0  0
  1  2  2  0  0  0  0
  1  6  1  0  0  0  0
  2  3  1  0  0  0  0
  2 38  1  0  0  0  0
  3  4  2  0  0  0  0
  4  5  1  0  0  0  0
  4 10  1  0  0  0  0
  5  6  2  0  0  0  0
  5  8  1  0  0  0  0
  6  7  1  0  0  0  0
  7 21  1  0  0  0  0
  7 22  1  0  0  0  0
  8  9  1  0  0  0  0
  9 10  2  0  0  0  0
  9 39  1  0  0  0  0
 10 11  1  0  0  0  0
 11 12  1  0  0  0  0
 11 17  1  0  0  0  0
 11 40  1  1  0  0  0
 12 13  1  0  0  0  0
 12 14  1  0  0  0  0
 12 41  1  6  0  0  0
 13 42  1  0  0  0  0
 14 15  1  0  0  0  0
 14 16  1  0  0  0  0
 14 43  1  6  0  0  0
 15 44  1  0  0  0  0
 16 17  1  0  0  0  0
 16 18  1  0  0  0  0
 16 45  1  1  0  0  0
 18 19  1  0  0  0  0
 18 46  1  0  0  0  0
 18 47  1  0  0  0  0
 20 21  1  0  0  0  0
 20 48  1  0  0  0  0
 20 49  1  0  0  0  0
 20 50  1  0  0  0  0
 21 51  1  0  0  0  0
 21 52  1  0  0  0  0
 22 23  1  0  0  0  0
 22 53  1  0  0  0  0
 22 54  1  0  0  0  0
 23 55  1  0  0  0  0
 23 56  1  0  0  0  0
 23 57  1  0  0  0  0
 24 29  2  0  0  0  0
 25 30  1  0  0  0  0
 27 33  2  0  0  0  0
 28 29  1  0  0  0  0
 29 30  1  0  0  0  0
 29 34  1  0  0  0  0
 30 31  1  0  0  0  0
 30 35  1  0  0  0  0
 31 26  2  6  0  0  0
 31 32  1  0  0  0  0
 31 36  1  0  0  0  0
 32 33  1  0  0  0  0
 33 19  1  1  0  0  0
 33 37  1  0  0  0  0
M  CHG  1  10   1
M  END
$$$$
