ATP
 OpenBabel04091911203D

 43 45  0  0  1  0  0  0  0  0999 V2000
   88.3142   75.8310  182.1143 P   0  0  0  0  0  0  0  0  0  0  0  0
   89.2550   75.4956  183.2803 O   0  0  0  0  0  0  0  0  0  0  0  0
   88.9207   75.3493  180.7819 O   0  0  0  0  0  0  0  0  0  0  0  0
   86.8942   75.3094  182.2890 O   0  0  0  0  0  0  0  0  0  0  0  0
   87.5324   78.6492  182.7450 P   0  0  2  0  0  0  0  0  0  0  0  0
   88.5989   79.5709  183.3583 O   0  0  0  0  0  0  0  0  0  0  0  0
   86.3762   78.2359  183.6297 O   0  0  0  0  0  0  0  0  0  0  0  0
   88.2660   77.4398  181.9755 O   0  0  0  0  0  0  0  0  0  0  0  0
   85.6161   80.3005  181.2797 P   0  0  2  0  0  0  0  0  0  0  0  0
   85.4272   81.4109  182.3005 O   0  0  0  0  0  0  0  0  0  0  0  0
   84.4385   79.4734  180.8028 O   0  0  0  0  0  0  0  0  0  0  0  0
   86.9695   79.4612  181.4525 O   0  0  0  0  0  0  0  0  0  0  0  0
   85.9885   81.1246  179.9185 O   0  0  0  0  0  0  0  0  0  0  0  0
   87.0926   81.9941  179.8414 C   0  0  0  0  0  0  0  0  0  0  0  0
   87.5288   81.9198  178.3734 C   0  0  1  0  0  0  0  0  0  0  0  0
   86.4069   82.3637  177.5140 O   0  0  0  0  0  0  0  0  0  0  0  0
   88.7220   82.8108  178.0234 C   0  0  1  0  0  0  0  0  0  0  0  0
   89.5869   82.1274  177.1015 O   0  0  0  0  0  0  0  0  0  0  0  0
   88.0768   83.9994  177.3109 C   0  0  1  0  0  0  0  0  0  0  0  0
   88.9518   84.6690  176.3936 O   0  0  0  0  0  0  0  0  0  0  0  0
   86.8898   83.3478  176.6128 C   0  0  2  0  0  0  0  0  0  0  0  0
   85.8348   84.2903  176.2896 N   0  3  0  0  0  0  0  0  0  0  0  0
   85.1311   85.0744  177.1883 C   0  0  0  0  0  0  0  0  0  0  0  0
   84.3346   85.9346  176.5978 N   0  0  0  0  0  0  0  0  0  0  0  0
   84.4734   85.6740  175.2480 C   0  0  0  0  0  0  0  0  0  0  0  0
   83.8661   86.2388  174.1101 C   0  0  0  0  0  0  0  0  0  0  0  0
   82.9285   87.2504  174.1613 N   0  0  0  0  0  0  0  0  0  0  0  0
   84.2207   85.7871  172.8825 N   0  0  0  0  0  0  0  0  0  0  0  0
   85.1653   84.8085  172.8315 C   0  0  0  0  0  0  0  0  0  0  0  0
   85.8210   84.2050  173.8343 N   0  0  0  0  0  0  0  0  0  0  0  0
   85.4121   84.6819  175.0363 C   0  0  0  0  0  0  0  0  0  0  0  0
   87.8987   81.7010  180.5223 H   0  0  0  0  0  0  0  0  0  0  0  0
   86.7676   83.0115  180.0912 H   0  0  0  0  0  0  0  0  0  0  0  0
   87.7340   80.8722  178.1216 H   0  0  0  0  0  0  0  0  0  0  0  0
   89.3272   83.0972  178.8912 H   0  0  0  0  0  0  0  0  0  0  0  0
   90.3153   82.7267  176.8728 H   0  0  0  0  0  0  0  0  0  0  0  0
   87.7486   84.7250  178.0631 H   0  0  0  0  0  0  0  0  0  0  0  0
   89.7249   84.9490  176.8925 H   0  0  0  0  0  0  0  0  0  0  0  0
   87.1987   82.8539  175.6754 H   0  0  0  0  0  0  0  0  0  0  0  0
   85.2742   84.9666  178.2618 H   0  0  0  0  0  0  0  0  0  0  0  0
   82.4442   87.4838  173.3056 H   0  0  0  0  0  0  0  0  0  0  0  0
   82.5669   87.5033  175.0726 H   0  0  0  0  0  0  0  0  0  0  0  0
   85.4179   84.4618  171.8345 H   0  0  0  0  0  0  0  0  0  0  0  0
  1  2  2  0  0  0  0
  1  3  1  0  0  0  0
  1  4  1  0  0  0  0
  1  8  1  0  0  0  0
  5  6  2  1  0  0  0
  5  7  1  0  0  0  0
  5  8  1  0  0  0  0
  5 12  1  0  0  0  0
  9 10  2  1  0  0  0
  9 11  1  0  0  0  0
  9 12  1  0  0  0  0
  9 13  1  0  0  0  0
 13 14  1  0  0  0  0
 14 15  1  0  0  0  0
 14 32  1  0  0  0  0
 14 33  1  0  0  0  0
 15 16  1  0  0  0  0
 15 17  1  0  0  0  0
 15 34  1  6  0  0  0
 16 21  1  0  0  0  0
 17 18  1  0  0  0  0
 17 19  1  0  0  0  0
 17 35  1  1  0  0  0
 18 36  1  0  0  0  0
 19 20  1  0  0  0  0
 19 21  1  0  0  0  0
 19 37  1  1  0  0  0
 20 38  1  0  0  0  0
 21 22  1  0  0  0  0
 21 39  1  6  0  0  0
 22 23  2  0  0  0  0
 22 31  1  0  0  0  0
 23 24  1  0  0  0  0
 23 40  1  0  0  0  0
 24 25  1  0  0  0  0
 25 26  2  0  0  0  0
 25 31  1  0  0  0  0
 26 27  1  0  0  0  0
 26 28  1  0  0  0  0
 27 41  1  0  0  0  0
 27 42  1  0  0  0  0
 28 29  2  0  0  0  0
 29 30  1  0  0  0  0
 29 43  1  0  0  0  0
 30 31  2  0  0  0  0
M  CHG  1  22   1
M  END
$$$$
