ATP
 OpenBabel04091910563D

 43 45  0  0  1  0  0  0  0  0999 V2000
  -25.3436  -18.1956   18.1420 P   0  0  0  0  0  0  0  0  0  0  0  0
  -23.9712  -18.1473   17.4909 O   0  0  0  0  0  0  0  0  0  0  0  0
  -26.4874  -18.3149   17.1218 O   0  0  0  0  0  0  0  0  0  0  0  0
  -25.4529  -19.3074   19.1988 O   0  0  0  0  0  0  0  0  0  0  0  0
  -24.5662  -15.5823   19.1503 P   0  0  1  0  0  0  0  0  0  0  0  0
  -23.5962  -15.9324   20.2776 O   0  0  0  0  0  0  0  0  0  0  0  0
  -24.1150  -15.0193   17.8157 O   0  0  0  0  0  0  0  0  0  0  0  0
  -25.6252  -16.7915   18.9374 O   0  0  0  0  0  0  0  0  0  0  0  0
  -25.0733  -12.8589   19.6767 P   0  0  2  0  0  0  0  0  0  0  0  0
  -25.8643  -12.0915   18.6265 O   0  0  0  0  0  0  0  0  0  0  0  0
  -23.5903  -12.5800   19.8371 O   0  0  0  0  0  0  0  0  0  0  0  0
  -25.5181  -14.4129   19.7894 O   0  0  0  0  0  0  0  0  0  0  0  0
  -25.7435  -12.3125   21.0880 O   0  0  0  0  0  0  0  0  0  0  0  0
  -24.9056  -11.5310   21.9302 C   0  0  0  0  0  0  0  0  0  0  0  0
  -25.0738  -10.0261   21.6587 C   0  0  1  0  0  0  0  0  0  0  0  0
  -26.1933   -9.5171   22.4302 O   0  0  0  0  0  0  0  0  0  0  0  0
  -23.8367   -9.2137   22.0723 C   0  0  1  0  0  0  0  0  0  0  0  0
  -23.2738   -8.4318   21.0128 O   0  0  0  0  0  0  0  0  0  0  0  0
  -24.2953   -8.2613   23.1686 C   0  0  1  0  0  0  0  0  0  0  0  0
  -24.1376   -6.8629   22.8383 O   0  0  0  0  0  0  0  0  0  0  0  0
  -25.7717   -8.5612   23.3997 C   0  0  2  0  0  0  0  0  0  0  0  0
  -26.0866   -8.9927   24.7799 N   0  3  0  0  0  0  0  0  0  0  0  0
  -25.5150   -8.4187   25.9064 C   0  0  0  0  0  0  0  0  0  0  0  0
  -25.9755   -8.9672   27.0060 N   0  0  0  0  0  0  0  0  0  0  0  0
  -26.8812   -9.9107   26.5821 C   0  0  0  0  0  0  0  0  0  0  0  0
  -27.7036  -10.8341   27.2743 C   0  0  0  0  0  0  0  0  0  0  0  0
  -27.7761  -10.9136   28.6595 N   0  0  0  0  0  0  0  0  0  0  0  0
  -28.5040  -11.6590   26.5644 N   0  0  0  0  0  0  0  0  0  0  0  0
  -28.5054  -11.5376   25.2153 C   0  0  0  0  0  0  0  0  0  0  0  0
  -27.8219  -10.6607   24.4685 N   0  0  0  0  0  0  0  0  0  0  0  0
  -26.9955   -9.9162   25.1941 C   0  0  0  0  0  0  0  0  0  0  0  0
  -23.8591  -11.8265   21.8299 H   0  0  0  0  0  0  0  0  0  0  0  0
  -25.1873  -11.7724   22.9580 H   0  0  0  0  0  0  0  0  0  0  0  0
  -25.3187   -9.8584   20.6058 H   0  0  0  0  0  0  0  0  0  0  0  0
  -23.0425   -9.8657   22.4542 H   0  0  0  0  0  0  0  0  0  0  0  0
  -24.0052   -8.0514   20.5016 H   0  0  0  0  0  0  0  0  0  0  0  0
  -23.6798   -8.4217   24.0565 H   0  0  0  0  0  0  0  0  0  0  0  0
  -24.5248   -6.7444   21.9515 H   0  0  0  0  0  0  0  0  0  0  0  0
  -26.3794   -7.6596   23.2412 H   0  0  0  0  0  0  0  0  0  0  0  0
  -24.7995   -7.6369   25.8678 H   0  0  0  0  0  0  0  0  0  0  0  0
  -28.2103  -11.7639   28.9805 H   0  0  0  0  0  0  0  0  0  0  0  0
  -27.0154  -10.4915   29.1708 H   0  0  0  0  0  0  0  0  0  0  0  0
  -29.1661  -12.2190   24.6815 H   0  0  0  0  0  0  0  0  0  0  0  0
  1  2  2  0  0  0  0
  1  3  1  0  0  0  0
  1  4  1  0  0  0  0
  1  8  1  0  0  0  0
  5  6  2  1  0  0  0
  5  7  1  0  0  0  0
  5  8  1  0  0  0  0
  5 12  1  0  0  0  0
  9 10  2  6  0  0  0
  9 11  1  0  0  0  0
  9 12  1  0  0  0  0
  9 13  1  0  0  0  0
 13 14  1  0  0  0  0
 14 15  1  0  0  0  0
 14 32  1  0  0  0  0
 14 33  1  0  0  0  0
 15 16  1  0  0  0  0
 15 17  1  0  0  0  0
 15 34  1  6  0  0  0
 16 21  1  0  0  0  0
 17 18  1  0  0  0  0
 17 19  1  0  0  0  0
 17 35  1  1  0  0  0
 18 36  1  0  0  0  0
 19 20  1  0  0  0  0
 19 21  1  0  0  0  0
 19 37  1  1  0  0  0
 20 38  1  0  0  0  0
 21 22  1  0  0  0  0
 21 39  1  6  0  0  0
 22 23  2  0  0  0  0
 22 31  1  0  0  0  0
 23 24  1  0  0  0  0
 23 40  1  0  0  0  0
 24 25  1  0  0  0  0
 25 26  2  0  0  0  0
 25 31  1  0  0  0  0
 26 27  1  0  0  0  0
 26 28  1  0  0  0  0
 27 41  1  0  0  0  0
 27 42  1  0  0  0  0
 28 29  2  0  0  0  0
 29 30  1  0  0  0  0
 29 43  1  0  0  0  0
 30 31  2  0  0  0  0
M  CHG  1  22   1
M  END
$$$$
