ATP
 OpenBabel04091915433D

 43 45  0  0  1  0  0  0  0  0999 V2000
  -57.7182  -16.7533  -15.4358 P   0  0  0  0  0  0  0  0  0  0  0  0
  -58.2924  -16.2421  -14.1239 O   0  0  0  0  0  0  0  0  0  0  0  0
  -56.1842  -16.7839  -15.4591 O   0  0  0  0  0  0  0  0  0  0  0  0
  -58.2695  -18.1304  -15.8207 O   0  0  0  0  0  0  0  0  0  0  0  0
  -59.1962  -14.5730  -16.9294 P   0  0  2  0  0  0  0  0  0  0  0  0
  -60.5455  -14.6594  -16.2184 O   0  0  0  0  0  0  0  0  0  0  0  0
  -59.3607  -14.4363  -18.4584 O   0  0  0  0  0  0  0  0  0  0  0  0
  -58.1622  -15.7565  -16.6292 O   0  0  0  0  0  0  0  0  0  0  0  0
  -57.0888  -12.8984  -15.7143 P   0  0  1  0  0  0  0  0  0  0  0  0
  -57.2431  -12.8220  -14.2107 O   0  0  0  0  0  0  0  0  0  0  0  0
  -55.8474  -13.3759  -16.4298 O   0  0  0  0  0  0  0  0  0  0  0  0
  -58.4566  -13.2124  -16.4778 O   0  0  0  0  0  0  0  0  0  0  0  0
  -57.0139  -11.2953  -16.1314 O   0  0  0  0  0  0  0  0  0  0  0  0
  -57.0540  -10.3334  -15.0971 C   0  0  0  0  0  0  0  0  0  0  0  0
  -56.3220   -9.0653  -15.5453 C   0  0  1  0  0  0  0  0  0  0  0  0
  -54.8777   -9.2273  -15.5210 O   0  0  0  0  0  0  0  0  0  0  0  0
  -56.6834   -8.6301  -16.9626 C   0  0  1  0  0  0  0  0  0  0  0  0
  -57.9107   -7.9058  -17.0334 O   0  0  0  0  0  0  0  0  0  0  0  0
  -55.4677   -7.8067  -17.3652 C   0  0  1  0  0  0  0  0  0  0  0  0
  -55.5478   -6.4592  -16.8437 O   0  0  0  0  0  0  0  0  0  0  0  0
  -54.3286   -8.5727  -16.6835 C   0  0  2  0  0  0  0  0  0  0  0  0
  -53.6438   -9.5341  -17.5328 N   0  3  0  0  0  0  0  0  0  0  0  0
  -53.9447  -10.8457  -17.7316 C   0  0  0  0  0  0  0  0  0  0  0  0
  -53.1176  -11.4233  -18.5887 N   0  0  0  0  0  0  0  0  0  0  0  0
  -52.2203  -10.4635  -18.9148 C   0  0  0  0  0  0  0  0  0  0  0  0
  -51.1022  -10.4959  -19.7608 C   0  0  0  0  0  0  0  0  0  0  0  0
  -50.7418  -11.6396  -20.4484 N   0  0  0  0  0  0  0  0  0  0  0  0
  -50.3715   -9.3635  -19.9164 N   0  0  0  0  0  0  0  0  0  0  0  0
  -50.7992   -8.2607  -19.2538 C   0  0  0  0  0  0  0  0  0  0  0  0
  -51.8545   -8.0941  -18.4375 N   0  0  0  0  0  0  0  0  0  0  0  0
  -52.5320   -9.2505  -18.2940 C   0  0  0  0  0  0  0  0  0  0  0  0
  -56.5900  -10.6842  -14.1694 H   0  0  0  0  0  0  0  0  0  0  0  0
  -58.1103  -10.1187  -14.9155 H   0  0  0  0  0  0  0  0  0  0  0  0
  -56.5589   -8.2714  -14.8251 H   0  0  0  0  0  0  0  0  0  0  0  0
  -56.7526   -9.4838  -17.6452 H   0  0  0  0  0  0  0  0  0  0  0  0
  -58.5961   -8.5589  -16.7855 H   0  0  0  0  0  0  0  0  0  0  0  0
  -55.3695   -7.7184  -18.4519 H   0  0  0  0  0  0  0  0  0  0  0  0
  -54.7688   -5.9848  -17.1740 H   0  0  0  0  0  0  0  0  0  0  0  0
  -53.5643   -7.8803  -16.3159 H   0  0  0  0  0  0  0  0  0  0  0  0
  -54.7733  -11.3587  -17.2347 H   0  0  0  0  0  0  0  0  0  0  0  0
  -49.8515  -11.6800  -20.9048 H   0  0  0  0  0  0  0  0  0  0  0  0
  -51.2445  -12.4789  -20.1702 H   0  0  0  0  0  0  0  0  0  0  0  0
  -50.1817   -7.3737  -19.4126 H   0  0  0  0  0  0  0  0  0  0  0  0
  1  2  2  0  0  0  0
  1  3  1  0  0  0  0
  1  4  1  0  0  0  0
  1  8  1  0  0  0  0
  5  6  2  1  0  0  0
  5  7  1  0  0  0  0
  5  8  1  0  0  0  0
  5 12  1  0  0  0  0
  9 10  2  1  0  0  0
  9 11  1  0  0  0  0
  9 12  1  0  0  0  0
  9 13  1  0  0  0  0
 13 14  1  0  0  0  0
 14 15  1  0  0  0  0
 14 32  1  0  0  0  0
 14 33  1  0  0  0  0
 15 16  1  0  0  0  0
 15 17  1  0  0  0  0
 15 34  1  1  0  0  0
 16 21  1  0  0  0  0
 17 18  1  0  0  0  0
 17 19  1  0  0  0  0
 17 35  1  6  0  0  0
 18 36  1  0  0  0  0
 19 20  1  0  0  0  0
 19 21  1  0  0  0  0
 19 37  1  6  0  0  0
 20 38  1  0  0  0  0
 21 22  1  0  0  0  0
 21 39  1  1  0  0  0
 22 23  2  0  0  0  0
 22 31  1  0  0  0  0
 23 24  1  0  0  0  0
 23 40  1  0  0  0  0
 24 25  1  0  0  0  0
 25 26  2  0  0  0  0
 25 31  1  0  0  0  0
 26 27  1  0  0  0  0
 26 28  1  0  0  0  0
 27 41  1  0  0  0  0
 27 42  1  0  0  0  0
 28 29  2  0  0  0  0
 29 30  1  0  0  0  0
 29 43  1  0  0  0  0
 30 31  2  0  0  0  0
M  CHG  1  22   1
M  END
$$$$
