AVX
 OpenBabel04091910533D

 27 29  0  0  0  0  0  0  0  0999 V2000
    8.5905  -22.2328   -5.7097 C   0  0  0  0  0  0  0  0  0  0  0  0
    9.7025  -22.1993   -6.5706 C   0  0  0  0  0  0  0  0  0  0  0  0
   10.6443  -21.1492   -6.4473 C   0  0  0  0  0  0  0  0  0  0  0  0
   10.5152  -20.1650   -5.4720 C   0  0  0  0  0  0  0  0  0  0  0  0
    9.4377  -20.2376   -4.6172 C   0  0  0  0  0  0  0  0  0  0  0  0
    8.5007  -21.2408   -4.7358 C   0  0  0  0  0  0  0  0  0  0  0  0
    7.5284  -21.1407   -3.7837 O   0  0  0  0  0  0  0  0  0  0  0  0
    8.0091  -20.0207   -3.0075 C   0  0  0  0  0  0  0  0  0  0  0  0
    9.1676  -19.3890   -3.5841 O   0  0  0  0  0  0  0  0  0  0  0  0
    9.9909  -23.2352   -7.5651 C   0  0  0  0  0  0  0  0  0  0  0  0
   11.2547  -23.6684   -7.7112 N   0  0  0  0  0  0  0  0  0  0  0  0
   11.2132  -24.5313   -8.7414 N   0  3  0  0  0  0  0  0  0  0  0  0
    9.9563  -24.6776   -9.2716 C   0  0  0  0  0  0  0  0  0  0  0  0
    9.1397  -23.8627   -8.5141 C   0  0  0  0  0  0  0  0  0  0  0  0
   11.8156  -18.8105   -5.3267 Br  0  0  0  0  0  0  0  0  0  0  0  0
   12.4555  -25.1473   -9.1448 C   0  0  0  0  0  0  0  0  0  0  0  0
    9.6604  -25.4631  -10.3250 N   0  0  0  0  0  0  0  0  0  0  0  0
    7.8526  -23.0206   -5.7601 H   0  0  0  0  0  0  0  0  0  0  0  0
   11.4992  -21.1317   -7.1206 H   0  0  0  0  0  0  0  0  0  0  0  0
    8.2698  -20.3710   -2.0018 H   0  0  0  0  0  0  0  0  0  0  0  0
    7.2134  -19.2734   -2.9188 H   0  0  0  0  0  0  0  0  0  0  0  0
    8.0846  -23.7002   -8.6614 H   0  0  0  0  0  0  0  0  0  0  0  0
   12.2979  -25.8254   -9.9837 H   0  0  0  0  0  0  0  0  0  0  0  0
   12.8525  -25.7035   -8.2917 H   0  0  0  0  0  0  0  0  0  0  0  0
   13.1541  -24.3584   -9.4360 H   0  0  0  0  0  0  0  0  0  0  0  0
    8.7112  -25.5356  -10.6831 H   0  0  0  0  0  0  0  0  0  0  0  0
   10.3337  -26.0408  -10.8205 H   0  0  0  0  0  0  0  0  0  0  0  0
  1  2  2  0  0  0  0
  1  6  1  0  0  0  0
  1 18  1  0  0  0  0
  2  3  1  0  0  0  0
  2 10  1  0  0  0  0
  3  4  2  0  0  0  0
  3 19  1  0  0  0  0
  4  5  1  0  0  0  0
  4 15  1  0  0  0  0
  5  6  2  0  0  0  0
  5  9  1  0  0  0  0
  6  7  1  0  0  0  0
  7  8  1  0  0  0  0
  8  9  1  0  0  0  0
  8 20  1  0  0  0  0
  8 21  1  0  0  0  0
 10 11  1  0  0  0  0
 10 14  2  0  0  0  0
 11 12  1  0  0  0  0
 12 13  2  0  0  0  0
 12 16  1  0  0  0  0
 13 14  1  0  0  0  0
 13 17  1  0  0  0  0
 14 22  1  0  0  0  0
 16 23  1  0  0  0  0
 16 24  1  0  0  0  0
 16 25  1  0  0  0  0
 17 26  1  0  0  0  0
 17 27  1  0  0  0  0
M  CHG  1  12   1
M  END
$$$$
