AYX
 OpenBabel04091913573D

 35 36  0  0  0  0  0  0  0  0999 V2000
   -5.4781    2.3850   15.9035 C   0  0  0  0  0  0  0  0  0  0  0  0
   -5.3277   -0.3158   16.0911 N   0  0  0  0  0  0  0  0  0  0  0  0
   -7.4083    0.8400   16.8174 O   0  0  0  0  0  0  0  0  0  0  0  0
   -5.9655    0.9874   16.8862 S   0  0  0  0  0  0  0  0  0  0  0  0
   -4.1698    2.5214   15.4356 C   0  0  0  0  0  0  0  0  0  0  0  0
   -5.2627    1.0878   18.1537 O   0  0  0  0  0  0  0  0  0  0  0  0
   -3.8203    3.6448   14.6696 C   0  0  0  0  0  0  0  0  0  0  0  0
   -4.7785    4.6175   14.3477 C   0  0  0  0  0  0  0  0  0  0  0  0
   -6.0800    4.4667   14.8391 C   0  0  0  0  0  0  0  0  0  0  0  0
   -6.4340    3.3611   15.6133 C   0  0  0  0  0  0  0  0  0  0  0  0
   -4.3956    5.7181   13.5463 N   0  0  0  0  0  0  0  0  0  0  0  0
   -5.2575    6.4085   12.6980 C   0  0  0  0  0  0  0  0  0  0  0  0
   -6.4505    6.1641   12.5811 O   0  0  0  0  0  0  0  0  0  0  0  0
   -4.6005    7.4070   11.9876 N   0  0  0  0  0  0  0  0  0  0  0  0
   -5.1913    8.2669   11.0316 C   0  0  0  0  0  0  0  0  0  0  0  0
   -6.3902    7.9828   10.3679 C   0  0  0  0  0  0  0  0  0  0  0  0
   -6.9093    8.8934    9.4315 C   0  0  0  0  0  0  0  0  0  0  0  0
   -6.2433   10.0945    9.1565 C   0  0  0  0  0  0  0  0  0  0  0  0
   -5.0453   10.3725    9.8106 C   0  0  0  0  0  0  0  0  0  0  0  0
   -4.5186    9.4580   10.7307 C   0  0  0  0  0  0  0  0  0  0  0  0
   -8.1484    8.5787    8.7095 N   0  0  0  0  0  0  0  0  0  0  0  0
   -8.6171    9.4523    7.9648 O   0  0  0  0  0  0  0  0  0  0  0  0
   -8.6467    7.4559    8.8699 O   0  0  0  0  0  0  0  0  0  0  0  0
   -5.4781   -1.2251   16.5206 H   0  0  0  0  0  0  0  0  0  0  0  0
   -4.8118   -0.2184   15.2189 H   0  0  0  0  0  0  0  0  0  0  0  0
   -3.4141    1.7698   15.6655 H   0  0  0  0  0  0  0  0  0  0  0  0
   -2.8031    3.7273   14.2949 H   0  0  0  0  0  0  0  0  0  0  0  0
   -6.8429    5.2190   14.6538 H   0  0  0  0  0  0  0  0  0  0  0  0
   -7.4484    3.2776   15.9936 H   0  0  0  0  0  0  0  0  0  0  0  0
   -3.4069    5.8740   13.4313 H   0  0  0  0  0  0  0  0  0  0  0  0
   -3.6684    7.6415   12.2954 H   0  0  0  0  0  0  0  0  0  0  0  0
   -6.9214    7.0512   10.5496 H   0  0  0  0  0  0  0  0  0  0  0  0
   -6.6396   10.8100    8.4397 H   0  0  0  0  0  0  0  0  0  0  0  0
   -4.5208   11.3044    9.6039 H   0  0  0  0  0  0  0  0  0  0  0  0
   -3.5882    9.7150   11.2345 H   0  0  0  0  0  0  0  0  0  0  0  0
  1  4  1  0  0  0  0
  1  5  2  0  0  0  0
  1 10  1  0  0  0  0
  2  4  1  0  0  0  0
  2 24  1  0  0  0  0
  2 25  1  0  0  0  0
  3  4  2  0  0  0  0
  4  6  2  0  0  0  0
  5  7  1  0  0  0  0
  5 26  1  0  0  0  0
  7  8  2  0  0  0  0
  7 27  1  0  0  0  0
  8  9  1  0  0  0  0
  8 11  1  0  0  0  0
  9 10  2  0  0  0  0
  9 28  1  0  0  0  0
 10 29  1  0  0  0  0
 11 12  1  0  0  0  0
 11 30  1  0  0  0  0
 12 13  2  0  0  0  0
 12 14  1  0  0  0  0
 14 15  1  0  0  0  0
 14 31  1  0  0  0  0
 15 16  2  0  0  0  0
 15 20  1  0  0  0  0
 16 17  1  0  0  0  0
 16 32  1  0  0  0  0
 17 18  2  0  0  0  0
 17 21  1  0  0  0  0
 18 19  1  0  0  0  0
 18 33  1  0  0  0  0
 19 20  2  0  0  0  0
 19 34  1  0  0  0  0
 20 35  1  0  0  0  0
 21 22  2  0  0  0  0
 21 23  2  0  0  0  0
M  END
$$$$
