AZB
 OpenBabel04091914563D

 34 35  0  0  0  0  0  0  0  0999 V2000
    1.0606   -5.4109   13.8348 C   0  0  0  0  0  0  0  0  0  0  0  0
    6.6996   -4.9524   17.1768 N   0  0  0  0  0  0  0  0  0  0  0  0
   11.7062   -4.7324   20.8731 O   0  0  0  0  0  0  0  0  0  0  0  0
    6.7779   -4.3214   18.2506 N   0  0  0  0  0  0  0  0  0  0  0  0
    2.3612   -3.6821   12.5432 C   0  0  0  0  0  0  0  0  0  0  0  0
    8.9229   -5.5330   18.6626 C   0  0  0  0  0  0  0  0  0  0  0  0
   10.1519   -5.6076   19.3330 C   0  0  0  0  0  0  0  0  0  0  0  0
   10.4999   -4.6237   20.2473 C   0  0  0  0  0  0  0  0  0  0  0  0
    9.6361   -3.5676   20.5100 C   0  0  0  0  0  0  0  0  0  0  0  0
    8.4089   -3.4991   19.8346 C   0  0  0  0  0  0  0  0  0  0  0  0
    8.0340   -4.4701   18.8923 C   0  0  0  0  0  0  0  0  0  0  0  0
    3.3272   -3.7141   16.0190 C   0  0  0  0  0  0  0  0  0  0  0  0
    4.4638   -3.8793   16.8285 C   0  0  0  0  0  0  0  0  0  0  0  0
    5.4913   -4.7601   16.4633 C   0  0  0  0  0  0  0  0  0  0  0  0
    5.3257   -5.4843   15.2753 C   0  0  0  0  0  0  0  0  0  0  0  0
    4.1920   -5.3250   14.4634 C   0  0  0  0  0  0  0  0  0  0  0  0
    3.1809   -4.4245   14.8186 C   0  0  0  0  0  0  0  0  0  0  0  0
    1.9650   -4.1799   13.9372 C   0  0  0  0  0  0  0  0  0  0  0  0
    0.1871   -5.1957   13.2083 H   0  0  0  0  0  0  0  0  0  0  0  0
    0.6938   -5.7084   14.8232 H   0  0  0  0  0  0  0  0  0  0  0  0
    1.5799   -6.2701   13.3972 H   0  0  0  0  0  0  0  0  0  0  0  0
   11.8230   -3.9717   21.4654 H   0  0  0  0  0  0  0  0  0  0  0  0
    3.0308   -2.8175   12.6102 H   0  0  0  0  0  0  0  0  0  0  0  0
    1.4732   -3.3719   11.9807 H   0  0  0  0  0  0  0  0  0  0  0  0
    2.8689   -4.4567   11.9584 H   0  0  0  0  0  0  0  0  0  0  0  0
    8.6686   -6.3169   17.9546 H   0  0  0  0  0  0  0  0  0  0  0  0
   10.8316   -6.4322   19.1373 H   0  0  0  0  0  0  0  0  0  0  0  0
    9.8928   -2.7957   21.2277 H   0  0  0  0  0  0  0  0  0  0  0  0
    7.7352   -2.6712   20.0432 H   0  0  0  0  0  0  0  0  0  0  0  0
    2.5607   -3.0087   16.3336 H   0  0  0  0  0  0  0  0  0  0  0  0
    4.5396   -3.2965   17.7422 H   0  0  0  0  0  0  0  0  0  0  0  0
    6.1046   -6.1782   14.9665 H   0  0  0  0  0  0  0  0  0  0  0  0
    4.1217   -5.9026   13.5444 H   0  0  0  0  0  0  0  0  0  0  0  0
    1.3647   -3.3819   14.3941 H   0  0  0  0  0  0  0  0  0  0  0  0
  1 18  1  0  0  0  0
  1 19  1  0  0  0  0
  1 20  1  0  0  0  0
  1 21  1  0  0  0  0
  2  4  2  0  0  0  0
  2 14  1  0  0  0  0
  3  8  1  0  0  0  0
  3 22  1  0  0  0  0
  4 11  1  0  0  0  0
  5 18  1  0  0  0  0
  5 23  1  0  0  0  0
  5 24  1  0  0  0  0
  5 25  1  0  0  0  0
  6  7  2  0  0  0  0
  6 11  1  0  0  0  0
  6 26  1  0  0  0  0
  7  8  1  0  0  0  0
  7 27  1  0  0  0  0
  8  9  2  0  0  0  0
  9 10  1  0  0  0  0
  9 28  1  0  0  0  0
 10 11  2  0  0  0  0
 10 29  1  0  0  0  0
 12 13  2  0  0  0  0
 12 17  1  0  0  0  0
 12 30  1  0  0  0  0
 13 14  1  0  0  0  0
 13 31  1  0  0  0  0
 14 15  2  0  0  0  0
 15 16  1  0  0  0  0
 15 32  1  0  0  0  0
 16 17  2  0  0  0  0
 16 33  1  0  0  0  0
 17 18  1  0  0  0  0
 18 34  1  0  0  0  0
M  END
$$$$
