AZM
 OpenBabel04091911183D

 19 19  0  0  0  0  0  0  0  0999 V2000
   33.8080   59.3656   18.1630 C   0  0  0  0  0  0  0  0  0  0  0  0
   35.4095   60.0483   19.7483 C   0  0  0  0  0  0  0  0  0  0  0  0
   36.0721   61.9046   21.1893 C   0  0  0  0  0  0  0  0  0  0  0  0
   37.3031   62.4394   21.8931 C   0  0  0  0  0  0  0  0  0  0  0  0
   33.0781   59.1195   15.5270 N   0  0  0  0  0  0  0  0  0  0  0  0
   35.6435   58.8363   19.2928 N   0  0  0  0  0  0  0  0  0  0  0  0
   34.7156   58.4353   18.3641 N   0  0  0  0  0  0  0  0  0  0  0  0
   36.2432   60.6496   20.6637 N   0  0  0  0  0  0  0  0  0  0  0  0
   31.8979   57.8527   17.3063 O   0  0  0  0  0  0  0  0  0  0  0  0
   31.6495   60.3465   17.1367 O   0  0  0  0  0  0  0  0  0  0  0  0
   35.0455   62.5625   21.1065 O   0  0  0  0  0  0  0  0  0  0  0  0
   32.4578   59.1644   17.0690 S   0  0  0  0  0  0  0  0  0  0  0  0
   34.0310   60.7957   19.0503 S   0  0  0  0  0  0  0  0  0  0  0  0
   37.0996   63.4479   22.2748 H   0  0  0  0  0  0  0  0  0  0  0  0
   38.1416   62.4932   21.1891 H   0  0  0  0  0  0  0  0  0  0  0  0
   37.5691   61.7879   22.7303 H   0  0  0  0  0  0  0  0  0  0  0  0
   32.4349   58.9977   14.7550 H   0  0  0  0  0  0  0  0  0  0  0  0
   34.0779   59.1980   15.4019 H   0  0  0  0  0  0  0  0  0  0  0  0
   37.0192   60.0841   20.9807 H   0  0  0  0  0  0  0  0  0  0  0  0
  1  7  2  0  0  0  0
  1 12  1  0  0  0  0
  1 13  1  0  0  0  0
  2  6  2  0  0  0  0
  2  8  1  0  0  0  0
  2 13  1  0  0  0  0
  3  4  1  0  0  0  0
  3  8  1  0  0  0  0
  3 11  2  0  0  0  0
  4 14  1  0  0  0  0
  4 15  1  0  0  0  0
  4 16  1  0  0  0  0
  5 12  1  0  0  0  0
  5 17  1  0  0  0  0
  5 18  1  0  0  0  0
  6  7  1  0  0  0  0
  8 19  1  0  0  0  0
  9 12  2  0  0  0  0
 10 12  2  0  0  0  0
M  END
$$$$
