AZM
 OpenBabel04091912583D

 19 19  0  0  0  0  0  0  0  0999 V2000
   -5.1051    2.1341   15.8080 C   0  0  0  0  0  0  0  0  0  0  0  0
   -4.7116    3.9579   14.3631 C   0  0  0  0  0  0  0  0  0  0  0  0
   -5.9099    5.6899   13.1037 C   0  0  0  0  0  0  0  0  0  0  0  0
   -5.6448    6.7774   12.1145 C   0  0  0  0  0  0  0  0  0  0  0  0
   -5.2631   -0.6156   16.2643 N   0  0  0  0  0  0  0  0  0  0  0  0
   -3.5976    3.3107   14.6578 N   0  0  0  0  0  0  0  0  0  0  0  0
   -3.8293    2.2245   15.4870 N   0  0  0  0  0  0  0  0  0  0  0  0
   -4.7536    5.0442   13.5204 N   0  0  0  0  0  0  0  0  0  0  0  0
   -5.3002    1.0474   18.1307 O   0  0  0  0  0  0  0  0  0  0  0  0
   -7.2572    0.8752   16.5489 O   0  0  0  0  0  0  0  0  0  0  0  0
   -7.0568    5.4328   13.4519 O   0  0  0  0  0  0  0  0  0  0  0  0
   -5.8292    0.8698   16.8001 S   0  0  0  0  0  0  0  0  0  0  0  0
   -6.1027    3.3210   15.1173 S   0  0  0  0  0  0  0  0  0  0  0  0
   -6.6011    7.2407   11.8443 H   0  0  0  0  0  0  0  0  0  0  0  0
   -5.1964    6.3602   11.2092 H   0  0  0  0  0  0  0  0  0  0  0  0
   -4.9982    7.5424   12.5482 H   0  0  0  0  0  0  0  0  0  0  0  0
   -5.8132   -1.4111   16.5811 H   0  0  0  0  0  0  0  0  0  0  0  0
   -4.8410   -0.6465   15.3403 H   0  0  0  0  0  0  0  0  0  0  0  0
   -3.8561    5.3337   13.1590 H   0  0  0  0  0  0  0  0  0  0  0  0
  1  7  2  0  0  0  0
  1 12  1  0  0  0  0
  1 13  1  0  0  0  0
  2  6  2  0  0  0  0
  2  8  1  0  0  0  0
  2 13  1  0  0  0  0
  3  4  1  0  0  0  0
  3  8  1  0  0  0  0
  3 11  2  0  0  0  0
  4 14  1  0  0  0  0
  4 15  1  0  0  0  0
  4 16  1  0  0  0  0
  5 12  1  0  0  0  0
  5 17  1  0  0  0  0
  5 18  1  0  0  0  0
  6  7  1  0  0  0  0
  8 19  1  0  0  0  0
  9 12  2  0  0  0  0
 10 12  2  0  0  0  0
M  END
$$$$
