AZM
 OpenBabel04091913503D

 19 19  0  0  0  0  0  0  0  0999 V2000
   -2.5655   -2.8354   19.5992 C   0  0  0  0  0  0  0  0  0  0  0  0
   -4.5326   -2.4374   20.8247 C   0  0  0  0  0  0  0  0  0  0  0  0
   -6.5880   -1.1080   20.8802 C   0  0  0  0  0  0  0  0  0  0  0  0
   -7.7497   -0.8365   21.8090 C   0  0  0  0  0  0  0  0  0  0  0  0
    0.1513   -2.4063   19.3390 N   0  0  0  0  0  0  0  0  0  0  0  0
   -3.7711   -3.3393   21.3976 N   0  0  0  0  0  0  0  0  0  0  0  0
   -2.6009   -3.5646   20.6947 N   0  0  0  0  0  0  0  0  0  0  0  0
   -5.7259   -2.0509   21.3837 N   0  0  0  0  0  0  0  0  0  0  0  0
   -1.0300   -4.2237   18.0738 O   0  0  0  0  0  0  0  0  0  0  0  0
   -1.4144   -1.7976   17.4992 O   0  0  0  0  0  0  0  0  0  0  0  0
   -6.4880   -0.5045   19.8182 O   0  0  0  0  0  0  0  0  0  0  0  0
   -1.2088   -2.8488   18.4705 S   0  0  0  0  0  0  0  0  0  0  0  0
   -3.8826   -1.7841   19.3790 S   0  0  0  0  0  0  0  0  0  0  0  0
   -8.3942   -0.0736   21.3617 H   0  0  0  0  0  0  0  0  0  0  0  0
   -7.3822   -0.4605   22.7682 H   0  0  0  0  0  0  0  0  0  0  0  0
   -8.3374   -1.7455   21.9630 H   0  0  0  0  0  0  0  0  0  0  0  0
    1.0440   -2.4547   18.8613 H   0  0  0  0  0  0  0  0  0  0  0  0
    0.0778   -2.2736   20.3424 H   0  0  0  0  0  0  0  0  0  0  0  0
   -5.9487   -2.5331   22.2417 H   0  0  0  0  0  0  0  0  0  0  0  0
  1  7  2  0  0  0  0
  1 12  1  0  0  0  0
  1 13  1  0  0  0  0
  2  6  2  0  0  0  0
  2  8  1  0  0  0  0
  2 13  1  0  0  0  0
  3  4  1  0  0  0  0
  3  8  1  0  0  0  0
  3 11  2  0  0  0  0
  4 14  1  0  0  0  0
  4 15  1  0  0  0  0
  4 16  1  0  0  0  0
  5 12  1  0  0  0  0
  5 17  1  0  0  0  0
  5 18  1  0  0  0  0
  6  7  1  0  0  0  0
  8 19  1  0  0  0  0
  9 12  2  0  0  0  0
 10 12  2  0  0  0  0
M  END
$$$$
