AZM
 OpenBabel04091911273D

 19 19  0  0  0  0  0  0  0  0999 V2000
   -5.2000    2.0825   16.0274 C   0  0  0  0  0  0  0  0  0  0  0  0
   -4.6649    3.9255   14.7058 C   0  0  0  0  0  0  0  0  0  0  0  0
   -5.6759    5.7230   13.3980 C   0  0  0  0  0  0  0  0  0  0  0  0
   -5.2097    6.7891   12.4567 C   0  0  0  0  0  0  0  0  0  0  0  0
   -5.5662   -0.6339   16.2425 N   0  0  0  0  0  0  0  0  0  0  0  0
   -3.5826    3.2828   15.0870 N   0  0  0  0  0  0  0  0  0  0  0  0
   -3.8950    2.1770   15.8531 N   0  0  0  0  0  0  0  0  0  0  0  0
   -4.6152    5.0868   13.9856 N   0  0  0  0  0  0  0  0  0  0  0  0
   -5.4719    0.8608   18.2653 O   0  0  0  0  0  0  0  0  0  0  0  0
   -7.4372    0.9346   16.6769 O   0  0  0  0  0  0  0  0  0  0  0  0
   -6.8755    5.4895   13.5461 O   0  0  0  0  0  0  0  0  0  0  0  0
   -6.0256    0.8225   16.9216 S   0  0  0  0  0  0  0  0  0  0  0  0
   -6.1305    3.2437   15.2193 S   0  0  0  0  0  0  0  0  0  0  0  0
   -6.0736    7.2056   11.9376 H   0  0  0  0  0  0  0  0  0  0  0  0
   -4.5282    6.3611   11.7167 H   0  0  0  0  0  0  0  0  0  0  0  0
   -4.7033    7.5695   13.0271 H   0  0  0  0  0  0  0  0  0  0  0  0
   -5.8356   -1.4699   16.7537 H   0  0  0  0  0  0  0  0  0  0  0  0
   -4.7985   -0.6388   15.5725 H   0  0  0  0  0  0  0  0  0  0  0  0
   -3.6904    5.4910   13.9281 H   0  0  0  0  0  0  0  0  0  0  0  0
  1  7  2  0  0  0  0
  1 12  1  0  0  0  0
  1 13  1  0  0  0  0
  2  6  2  0  0  0  0
  2  8  1  0  0  0  0
  2 13  1  0  0  0  0
  3  4  1  0  0  0  0
  3  8  1  0  0  0  0
  3 11  2  0  0  0  0
  4 14  1  0  0  0  0
  4 15  1  0  0  0  0
  4 16  1  0  0  0  0
  5 12  1  0  0  0  0
  5 17  1  0  0  0  0
  5 18  1  0  0  0  0
  6  7  1  0  0  0  0
  8 19  1  0  0  0  0
  9 12  2  0  0  0  0
 10 12  2  0  0  0  0
M  END
$$$$
