AZM
 OpenBabel04091915553D

 19 19  0  0  0  0  0  0  0  0999 V2000
   76.0105   52.2744  106.9972 C   0  0  0  0  0  0  0  0  0  0  0  0
   76.2820   54.2123  108.3151 C   0  0  0  0  0  0  0  0  0  0  0  0
   74.9926   55.8462  109.6014 C   0  0  0  0  0  0  0  0  0  0  0  0
   75.1223   57.2344  110.1652 C   0  0  0  0  0  0  0  0  0  0  0  0
   76.2263   49.4939  106.6034 N   0  0  0  0  0  0  0  0  0  0  0  0
   77.4379   53.6877  107.9691 N   0  0  0  0  0  0  0  0  0  0  0  0
   77.2845   52.5312  107.2174 N   0  0  0  0  0  0  0  0  0  0  0  0
   76.1671   55.3634  109.0659 N   0  0  0  0  0  0  0  0  0  0  0  0
   75.6448   51.0926  104.7326 O   0  0  0  0  0  0  0  0  0  0  0  0
   74.0223   50.6473  106.6147 O   0  0  0  0  0  0  0  0  0  0  0  0
   73.9144   55.2597  109.6459 O   0  0  0  0  0  0  0  0  0  0  0  0
   75.3669   50.8755  106.1355 S   0  0  0  0  0  0  0  0  0  0  0  0
   74.9257   53.3962  107.6736 S   0  0  0  0  0  0  0  0  0  0  0  0
   74.1418   57.5624  110.5321 H   0  0  0  0  0  0  0  0  0  0  0  0
   75.4403   57.9283  109.3799 H   0  0  0  0  0  0  0  0  0  0  0  0
   75.8294   57.2530  110.9968 H   0  0  0  0  0  0  0  0  0  0  0  0
   75.6884   48.6676  106.3381 H   0  0  0  0  0  0  0  0  0  0  0  0
   76.4477   49.4973  107.5990 H   0  0  0  0  0  0  0  0  0  0  0  0
   77.0482   55.8029  109.2982 H   0  0  0  0  0  0  0  0  0  0  0  0
  1  7  2  0  0  0  0
  1 12  1  0  0  0  0
  1 13  1  0  0  0  0
  2  6  2  0  0  0  0
  2  8  1  0  0  0  0
  2 13  1  0  0  0  0
  3  4  1  0  0  0  0
  3  8  1  0  0  0  0
  3 11  2  0  0  0  0
  4 14  1  0  0  0  0
  4 15  1  0  0  0  0
  4 16  1  0  0  0  0
  5 12  1  0  0  0  0
  5 17  1  0  0  0  0
  5 18  1  0  0  0  0
  6  7  1  0  0  0  0
  8 19  1  0  0  0  0
  9 12  2  0  0  0  0
 10 12  2  0  0  0  0
M  END
$$$$
