B2T
 OpenBabel04091910563D

 25 26  0  0  0  0  0  0  0  0999 V2000
   13.6059    4.6453   12.6995 C   0  0  0  0  0  0  0  0  0  0  0  0
   12.1807    5.4778   11.9544 S   0  0  0  0  0  0  0  0  0  0  0  0
   10.8331    4.5198   12.6154 C   0  0  0  0  0  0  0  0  0  0  0  0
   11.0646    3.2835   13.0588 N   0  0  0  0  0  0  0  0  0  0  0  0
    9.6451    5.1138   12.5617 N   0  0  0  0  0  0  0  0  0  0  0  0
    8.6242    4.3890   13.0030 C   0  0  0  0  0  0  0  0  0  0  0  0
    7.3857    4.9756   13.0380 N   0  0  0  0  0  0  0  0  0  0  0  0
    8.7304    3.1496   13.4437 N   0  0  0  0  0  0  0  0  0  0  0  0
    9.9512    2.6371   13.4343 C   0  0  0  0  0  0  0  0  0  0  0  0
   10.0936    1.2553   13.8794 C   0  0  0  0  0  0  0  0  0  0  0  0
   10.9312    0.9506   14.9731 C   0  0  0  0  0  0  0  0  0  0  0  0
   11.0615   -0.3600   15.4493 C   0  0  0  0  0  0  0  0  0  0  0  0
   10.3614   -1.3911   14.8395 C   0  0  0  0  0  0  0  0  0  0  0  0
    9.5337   -1.1226   13.7526 C   0  0  0  0  0  0  0  0  0  0  0  0
    9.3996    0.1878   13.2747 C   0  0  0  0  0  0  0  0  0  0  0  0
    8.3845    0.4114   11.8868 Cl  0  0  0  0  0  0  0  0  0  0  0  0
   14.5152    5.1576   12.3703 H   0  0  0  0  0  0  0  0  0  0  0  0
   13.6708    3.6016   12.3813 H   0  0  0  0  0  0  0  0  0  0  0  0
   13.5609    4.7005   13.7926 H   0  0  0  0  0  0  0  0  0  0  0  0
    7.2900    5.8361   12.5322 H   0  0  0  0  0  0  0  0  0  0  0  0
    6.6110    4.3464   13.1624 H   0  0  0  0  0  0  0  0  0  0  0  0
   11.4815    1.7472   15.4743 H   0  0  0  0  0  0  0  0  0  0  0  0
   11.7096   -0.5698   16.2978 H   0  0  0  0  0  0  0  0  0  0  0  0
   10.4604   -2.4146   15.2012 H   0  0  0  0  0  0  0  0  0  0  0  0
    8.9916   -1.9361   13.2711 H   0  0  0  0  0  0  0  0  0  0  0  0
  1  2  1  0  0  0  0
  1 17  1  0  0  0  0
  1 18  1  0  0  0  0
  1 19  1  0  0  0  0
  2  3  1  0  0  0  0
  3  4  2  0  0  0  0
  3  5  1  0  0  0  0
  4  9  1  0  0  0  0
  5  6  2  0  0  0  0
  6  7  1  0  0  0  0
  6  8  1  0  0  0  0
  7 20  1  0  0  0  0
  7 21  1  0  0  0  0
  8  9  2  0  0  0  0
  9 10  1  0  0  0  0
 10 11  2  0  0  0  0
 10 15  1  0  0  0  0
 11 12  1  0  0  0  0
 11 22  1  0  0  0  0
 12 13  2  0  0  0  0
 12 23  1  0  0  0  0
 13 14  1  0  0  0  0
 13 24  1  0  0  0  0
 14 15  2  0  0  0  0
 14 25  1  0  0  0  0
 15 16  1  0  0  0  0
M  END
$$$$
