B3N
 OpenBabel04091913563D

 45 45  0  0  0  0  0  0  0  0999 V2000
   -0.6803   43.5576    0.4286 O   0  0  0  0  0  0  0  0  0  0  0  0
   -0.5043   43.9651    1.5702 C   0  0  0  0  0  0  0  0  0  0  0  0
   -0.7327   45.4308    1.8734 C   0  0  0  0  0  0  0  0  0  0  0  0
    0.0229   46.1487    2.7978 C   0  0  0  0  0  0  0  0  0  0  0  0
   -0.2129   47.5345    3.0168 C   0  0  0  0  0  0  0  0  0  0  0  0
   -1.2042   48.2706    2.3411 C   0  0  0  0  0  0  0  0  0  0  0  0
   -1.4404   49.6271    2.5580 N   0  0  0  0  0  0  0  0  0  0  0  0
   -2.5437   50.3332    1.8962 C   0  0  0  0  0  0  0  0  0  0  0  0
   -0.6897   50.4570    3.5025 C   0  0  0  0  0  0  0  0  0  0  0  0
   -1.9402   47.5226    1.4024 C   0  0  0  0  0  0  0  0  0  0  0  0
   -1.7035   46.1373    1.1604 C   0  0  0  0  0  0  0  0  0  0  0  0
   -0.1159   43.1464    2.6229 N   0  0  0  0  0  0  0  0  0  0  0  0
    0.0426   41.6817    2.5836 C   0  0  0  0  0  0  0  0  0  0  0  0
    0.6402   41.0599    1.3140 C   0  0  0  0  0  0  0  0  0  0  0  0
    1.7206   40.0069    1.6023 C   0  0  0  0  0  0  0  0  0  0  0  0
    1.1790   38.6949    2.1818 C   0  0  0  0  0  0  0  0  0  0  0  0
    1.7374   37.4548    1.4603 C   0  0  0  0  0  0  0  0  0  0  0  0
    2.4072   36.4865    2.4307 C   0  0  0  0  0  0  0  0  0  0  0  0
    1.8474   35.0929    2.3267 C   0  0  0  0  0  0  0  0  0  0  0  0
    0.7398   34.7867    2.7649 O   0  0  0  0  0  0  0  0  0  0  0  0
    2.6388   34.0875    1.7159 N   0  0  0  0  0  0  0  0  0  0  0  0
    2.1324   32.9666    1.7062 O   0  0  0  0  0  0  0  0  0  0  0  0
    0.8326   45.6695    3.3402 H   0  0  0  0  0  0  0  0  0  0  0  0
    0.4325   48.0140    3.7443 H   0  0  0  0  0  0  0  0  0  0  0  0
   -2.5842   51.3896    2.2019 H   0  0  0  0  0  0  0  0  0  0  0  0
   -3.5119   49.8979    2.1650 H   0  0  0  0  0  0  0  0  0  0  0  0
   -2.4237   50.3345    0.8080 H   0  0  0  0  0  0  0  0  0  0  0  0
    0.1455   49.9604    3.9941 H   0  0  0  0  0  0  0  0  0  0  0  0
   -1.3572   50.8311    4.2887 H   0  0  0  0  0  0  0  0  0  0  0  0
   -0.2746   51.3313    2.9846 H   0  0  0  0  0  0  0  0  0  0  0  0
   -2.7221   47.9893    0.8159 H   0  0  0  0  0  0  0  0  0  0  0  0
   -2.2930   45.6343    0.4030 H   0  0  0  0  0  0  0  0  0  0  0  0
   -0.2044   43.5363    3.5517 H   0  0  0  0  0  0  0  0  0  0  0  0
   -0.9272   41.2191    2.8034 H   0  0  0  0  0  0  0  0  0  0  0  0
    0.6912   41.4540    3.4379 H   0  0  0  0  0  0  0  0  0  0  0  0
    1.0998   41.8248    0.6816 H   0  0  0  0  0  0  0  0  0  0  0  0
   -0.1579   40.5935    0.7202 H   0  0  0  0  0  0  0  0  0  0  0  0
    2.4553   40.4229    2.3039 H   0  0  0  0  0  0  0  0  0  0  0  0
    2.2677   39.8224    0.6712 H   0  0  0  0  0  0  0  0  0  0  0  0
    0.0841   38.6600    2.1379 H   0  0  0  0  0  0  0  0  0  0  0  0
    1.4338   38.6734    3.2477 H   0  0  0  0  0  0  0  0  0  0  0  0
    2.4735   37.7367    0.6982 H   0  0  0  0  0  0  0  0  0  0  0  0
    0.9224   36.9677    0.9097 H   0  0  0  0  0  0  0  0  0  0  0  0
    2.2868   36.7961    3.4783 H   0  0  0  0  0  0  0  0  0  0  0  0
    3.4898   36.4719    2.2464 H   0  0  0  0  0  0  0  0  0  0  0  0
  1  2  2  0  0  0  0
  2  3  1  0  0  0  0
  2 12  1  0  0  0  0
  3  4  2  0  0  0  0
  3 11  1  0  0  0  0
  4  5  1  0  0  0  0
  4 23  1  0  0  0  0
  5  6  2  0  0  0  0
  5 24  1  0  0  0  0
  6  7  1  0  0  0  0
  6 10  1  0  0  0  0
  7  8  1  0  0  0  0
  7  9  1  0  0  0  0
  8 25  1  0  0  0  0
  8 26  1  0  0  0  0
  8 27  1  0  0  0  0
  9 28  1  0  0  0  0
  9 29  1  0  0  0  0
  9 30  1  0  0  0  0
 10 11  2  0  0  0  0
 10 31  1  0  0  0  0
 11 32  1  0  0  0  0
 12 13  1  0  0  0  0
 12 33  1  0  0  0  0
 13 14  1  0  0  0  0
 13 34  1  0  0  0  0
 13 35  1  0  0  0  0
 14 15  1  0  0  0  0
 14 36  1  0  0  0  0
 14 37  1  0  0  0  0
 15 16  1  0  0  0  0
 15 38  1  0  0  0  0
 15 39  1  0  0  0  0
 16 17  1  0  0  0  0
 16 40  1  0  0  0  0
 16 41  1  0  0  0  0
 17 18  1  0  0  0  0
 17 42  1  0  0  0  0
 17 43  1  0  0  0  0
 18 19  1  0  0  0  0
 18 44  1  0  0  0  0
 18 45  1  0  0  0  0
 19 20  2  0  0  0  0
 19 21  1  0  0  0  0
 21 22  2  0  0  0  0
M  END
$$$$
