B3U
 OpenBabel04091913473D

 23 23  0  0  1  0  0  0  0  0999 V2000
    4.9951   25.4432   31.2305 N   0  3  0  0  0  0  0  0  0  0  0  0
    4.9521   25.6276   29.7165 C   0  0  1  0  0  0  0  0  0  0  0  0
    4.4912   24.3481   29.0295 C   0  0  0  0  0  0  0  0  0  0  0  0
    3.0440   24.0262   29.1508 C   0  0  2  0  0  0  0  0  0  0  0  0
    2.0769   24.2851   30.0926 C   0  0  0  0  0  0  0  0  0  0  0  0
    0.9122   23.7070   29.6518 N   0  3  0  0  0  0  0  0  0  0  0  0
    1.1062   23.1617   28.4769 C   0  0  1  0  0  0  0  0  0  0  0  0
    2.3777   23.2857   28.1711 N   0  3  0  0  0  0  0  0  0  0  0  0
    0.2052   22.5506   27.7140 N   0  0  0  0  0  0  0  0  0  0  0  0
    4.0634   26.8387   29.3362 C   0  0  0  0  0  0  0  0  0  0  0  0
    3.7773   26.9678   28.1284 O   0  0  0  0  0  0  0  0  0  0  0  0
    3.6585   27.4179   30.3907 O   0  0  0  0  0  0  0  0  0  0  0  0
    5.2209   26.3894   31.5842 H   0  0  0  0  0  0  0  0  0  0  0  0
    4.0468   25.3422   31.6073 H   0  0  0  0  0  0  0  0  0  0  0  0
    5.9875   25.8477   29.4377 H   0  0  0  0  0  0  0  0  0  0  0  0
    5.0503   23.4905   29.4245 H   0  0  0  0  0  0  0  0  0  0  0  0
    4.7248   24.4054   27.9577 H   0  0  0  0  0  0  0  0  0  0  0  0
    2.0475   24.8169   31.0304 H   0  0  0  0  0  0  0  0  0  0  0  0
    2.7958   22.9866   27.3050 H   0  0  0  0  0  0  0  0  0  0  0  0
   -0.7600   22.4807   28.0082 H   0  0  0  0  0  0  0  0  0  0  0  0
    0.4570   22.1679   26.8209 H   0  0  0  0  0  0  0  0  0  0  0  0
    5.6482   24.7471   31.5896 H   0  0  0  0  0  0  0  0  0  0  0  0
    0.0178   23.7786   30.1332 H   0  0  0  0  0  0  0  0  0  0  0  0
  1  2  1  0  0  0  0
  1 13  1  0  0  0  0
  1 14  1  0  0  0  0
  1 22  1  0  0  0  0
  2  3  1  0  0  0  0
  2 10  1  0  0  0  0
  2 15  1  6  0  0  0
  3 16  1  0  0  0  0
  3 17  1  0  0  0  0
  4  3  1  1  0  0  0
  4  5  1  0  0  0  0
  4  8  1  0  0  0  0
  5  6  1  0  0  0  0
  5 18  1  0  0  0  0
  6  7  1  0  0  0  0
  6 23  1  0  0  0  0
  7  8  1  0  0  0  0
  7  9  1  1  0  0  0
  8 19  1  0  0  0  0
  9 20  1  0  0  0  0
  9 21  1  0  0  0  0
 10 11  2  0  0  0  0
 10 12  1  0  0  0  0
M  CHG  3   1   1   6   1   8   1
M  END
$$$$
