B40
 OpenBabel04091912453D

 27 27  0  0  1  0  0  0  0  0999 V2000
   -2.4648   -2.0584   15.3841 N   0  3  0  0  0  0  0  0  0  0  0  0
   -2.9940   -3.4575   15.5655 C   0  0  1  0  0  0  0  0  0  0  0  0
   -1.8723   -4.4210   15.2426 C   0  0  0  0  0  0  0  0  0  0  0  0
   -3.4861   -3.6386   17.0080 C   0  0  0  0  0  0  0  0  0  0  0  0
   -4.2366   -4.9279   17.2044 C   0  0  0  0  0  0  0  0  0  0  0  0
   -3.6118   -6.0281   17.8046 C   0  0  0  0  0  0  0  0  0  0  0  0
   -5.5677   -5.0478   16.7739 C   0  0  0  0  0  0  0  0  0  0  0  0
   -4.2985   -7.2351   17.9812 C   0  0  0  0  0  0  0  0  0  0  0  0
   -6.2727   -6.2461   16.9469 C   0  0  0  0  0  0  0  0  0  0  0  0
   -5.6373   -7.3441   17.5562 C   0  0  0  0  0  0  0  0  0  0  0  0
   -3.5328   -1.0238   15.3735 C   0  0  0  0  0  0  0  0  0  0  0  0
   -1.7883   -1.8511   16.1317 H   0  0  0  0  0  0  0  0  0  0  0  0
   -3.8160   -3.5776   14.8468 H   0  0  0  0  0  0  0  0  0  0  0  0
   -2.2246   -5.4473   15.3481 H   0  0  0  0  0  0  0  0  0  0  0  0
   -1.0232   -4.2707   15.9183 H   0  0  0  0  0  0  0  0  0  0  0  0
   -1.5220   -4.2879   14.2101 H   0  0  0  0  0  0  0  0  0  0  0  0
   -4.1498   -2.8169   17.2895 H   0  0  0  0  0  0  0  0  0  0  0  0
   -2.6269   -3.6007   17.6900 H   0  0  0  0  0  0  0  0  0  0  0  0
   -2.5762   -5.9626   18.1431 H   0  0  0  0  0  0  0  0  0  0  0  0
   -6.0713   -4.2019   16.3078 H   0  0  0  0  0  0  0  0  0  0  0  0
   -3.8173   -8.0834   18.4524 H   0  0  0  0  0  0  0  0  0  0  0  0
   -7.3036   -6.3316   16.6235 H   0  0  0  0  0  0  0  0  0  0  0  0
   -6.1802   -8.2733   17.6987 H   0  0  0  0  0  0  0  0  0  0  0  0
   -3.0721   -0.0496   15.2465 H   0  0  0  0  0  0  0  0  0  0  0  0
   -4.0586   -1.0662   16.3282 H   0  0  0  0  0  0  0  0  0  0  0  0
   -4.2111   -1.2469   14.5471 H   0  0  0  0  0  0  0  0  0  0  0  0
   -1.9379   -2.0037   14.4967 H   0  0  0  0  0  0  0  0  0  0  0  0
  1  2  1  0  0  0  0
  1 11  1  0  0  0  0
  1 12  1  0  0  0  0
  1 27  1  0  0  0  0
  2  3  1  0  0  0  0
  2  4  1  0  0  0  0
  2 13  1  6  0  0  0
  3 14  1  0  0  0  0
  3 15  1  0  0  0  0
  3 16  1  0  0  0  0
  4  5  1  0  0  0  0
  4 17  1  0  0  0  0
  4 18  1  0  0  0  0
  5  6  2  0  0  0  0
  5  7  1  0  0  0  0
  6  8  1  0  0  0  0
  6 19  1  0  0  0  0
  7  9  2  0  0  0  0
  7 20  1  0  0  0  0
  8 10  2  0  0  0  0
  8 21  1  0  0  0  0
  9 10  1  0  0  0  0
  9 22  1  0  0  0  0
 10 23  1  0  0  0  0
 11 24  1  0  0  0  0
 11 25  1  0  0  0  0
 11 26  1  0  0  0  0
M  CHG  1   1   1
M  END
$$$$
