B41
 OpenBabel04091912453D

 30 31  0  0  1  0  0  0  0  0999 V2000
   -7.9263   -5.7875   16.6945 O   0  0  0  0  0  0  0  0  0  0  0  0
   -7.0640   -7.9665   17.2608 O   0  0  0  0  0  0  0  0  0  0  0  0
   -2.6955   -1.9168   15.5016 N   0  3  0  0  0  0  0  0  0  0  0  0
   -3.1965   -3.3398   15.6448 C   0  0  1  0  0  0  0  0  0  0  0  0
   -2.1337   -4.2716   15.0744 C   0  0  0  0  0  0  0  0  0  0  0  0
   -3.5004   -3.6320   17.1292 C   0  0  0  0  0  0  0  0  0  0  0  0
   -4.4457   -4.7957   17.2974 C   0  0  0  0  0  0  0  0  0  0  0  0
   -5.8151   -4.6271   17.0519 C   0  0  0  0  0  0  0  0  0  0  0  0
   -3.9488   -6.0823   17.6125 C   0  0  0  0  0  0  0  0  0  0  0  0
   -6.6184   -5.7512   17.0622 C   0  0  0  0  0  0  0  0  0  0  0  0
   -4.7989   -7.1863   17.6916 C   0  0  0  0  0  0  0  0  0  0  0  0
   -6.1224   -6.9889   17.3754 C   0  0  0  0  0  0  0  0  0  0  0  0
   -3.7871   -0.9102   15.3709 C   0  0  0  0  0  0  0  0  0  0  0  0
   -8.2199   -7.1885   16.8865 C   0  0  0  0  0  0  0  0  0  0  0  0
   -2.0883   -1.6731   16.2992 H   0  0  0  0  0  0  0  0  0  0  0  0
   -4.0970   -3.4105   15.0205 H   0  0  0  0  0  0  0  0  0  0  0  0
   -2.4671   -5.3135   15.1186 H   0  0  0  0  0  0  0  0  0  0  0  0
   -1.1913   -4.1919   15.6261 H   0  0  0  0  0  0  0  0  0  0  0  0
   -1.9323   -4.0410   14.0226 H   0  0  0  0  0  0  0  0  0  0  0  0
   -3.9599   -2.7603   17.6145 H   0  0  0  0  0  0  0  0  0  0  0  0
   -2.5687   -3.8129   17.6797 H   0  0  0  0  0  0  0  0  0  0  0  0
   -6.2510   -3.6598   16.8218 H   0  0  0  0  0  0  0  0  0  0  0  0
   -2.8811   -6.2373   17.7824 H   0  0  0  0  0  0  0  0  0  0  0  0
   -4.4229   -8.1725   17.9350 H   0  0  0  0  0  0  0  0  0  0  0  0
   -3.3260    0.0729   15.2875 H   0  0  0  0  0  0  0  0  0  0  0  0
   -4.4200   -0.9660   16.2596 H   0  0  0  0  0  0  0  0  0  0  0  0
   -4.3566   -1.1450   14.4677 H   0  0  0  0  0  0  0  0  0  0  0  0
   -8.6544   -7.5993   15.9743 H   0  0  0  0  0  0  0  0  0  0  0  0
   -8.9596   -7.2679   17.6915 H   0  0  0  0  0  0  0  0  0  0  0  0
   -2.0938   -1.8381   14.6699 H   0  0  0  0  0  0  0  0  0  0  0  0
  1 10  1  0  0  0  0
  1 14  1  0  0  0  0
  2 12  1  0  0  0  0
  2 14  1  0  0  0  0
  3  4  1  0  0  0  0
  3 13  1  0  0  0  0
  3 15  1  0  0  0  0
  3 30  1  0  0  0  0
  4  5  1  0  0  0  0
  4  6  1  0  0  0  0
  4 16  1  6  0  0  0
  5 17  1  0  0  0  0
  5 18  1  0  0  0  0
  5 19  1  0  0  0  0
  6  7  1  0  0  0  0
  6 20  1  0  0  0  0
  6 21  1  0  0  0  0
  7  8  2  0  0  0  0
  7  9  1  0  0  0  0
  8 10  1  0  0  0  0
  8 22  1  0  0  0  0
  9 11  2  0  0  0  0
  9 23  1  0  0  0  0
 10 12  2  0  0  0  0
 11 12  1  0  0  0  0
 11 24  1  0  0  0  0
 13 25  1  0  0  0  0
 13 26  1  0  0  0  0
 13 27  1  0  0  0  0
 14 28  1  0  0  0  0
 14 29  1  0  0  0  0
M  CHG  1   3   1
M  END
$$$$
