B49
 OpenBabel04091912373D

 36 38  0  0  1  0  0  0  0  0999 V2000
   30.4485   -1.0797  -77.3174 C   0  0  0  0  0  0  0  0  0  0  0  0
   36.7289   -8.2361  -79.3530 C   0  0  0  0  0  0  0  0  0  0  0  0
   35.3684   -8.3072  -79.0486 C   0  0  0  0  0  0  0  0  0  0  0  0
   36.7035   -5.8055  -79.0795 C   0  0  0  0  0  0  0  0  0  0  0  0
   34.1157   -1.0604  -78.0094 C   0  0  2  0  0  0  0  0  0  0  0  0
   37.3844   -6.9947  -79.3665 C   0  0  0  0  0  0  0  0  0  0  0  0
   35.3486   -5.8778  -78.7813 C   0  0  0  0  0  0  0  0  0  0  0  0
   34.3107   -4.8664  -78.4462 C   0  0  0  0  0  0  0  0  0  0  0  0
   33.0246   -5.6343  -78.2373 C   0  0  0  0  0  0  0  0  0  0  0  0
   32.7902    1.1515  -77.5655 C   0  0  0  0  0  0  0  0  0  0  0  0
   35.4701   -0.4788  -78.2400 C   0  0  0  0  0  0  0  0  0  0  0  0
   34.5872   -3.5537  -78.3729 C   0  0  0  0  0  0  0  0  0  0  0  0
   31.8982   -1.2361  -77.6148 C   0  0  1  0  0  0  0  0  0  0  0  0
   34.7076   -7.1209  -78.7713 C   0  0  0  0  0  0  0  0  0  0  0  0
   33.7755   -2.4128  -78.0837 C   0  0  2  0  0  0  0  0  0  0  0  0
   32.9232   -0.3054  -77.7136 C   0  0  1  0  0  0  0  0  0  0  0  0
   32.4288   -2.4916  -77.8314 N   0  3  0  0  0  0  0  0  0  0  0  0
   33.3608   -6.9683  -78.4537 N   0  0  0  0  0  0  0  0  0  0  0  0
   33.7257    1.7241  -76.7434 N   0  0  0  0  0  0  0  0  0  0  0  0
   31.9344   -5.1870  -77.9423 O   0  0  0  0  0  0  0  0  0  0  0  0
   31.9271    1.8215  -78.1082 O   0  0  0  0  0  0  0  0  0  0  0  0
   38.6887   -6.9492  -79.6638 F   0  0  0  0  0  0  0  0  0  0  0  0
   29.9480   -2.0549  -77.3078 H   0  0  0  0  0  0  0  0  0  0  0  0
   29.9583   -0.4596  -78.0734 H   0  0  0  0  0  0  0  0  0  0  0  0
   30.2984   -0.6211  -76.3343 H   0  0  0  0  0  0  0  0  0  0  0  0
   37.2960   -9.1372  -79.5814 H   0  0  0  0  0  0  0  0  0  0  0  0
   34.8566   -9.2630  -79.0341 H   0  0  0  0  0  0  0  0  0  0  0  0
   37.2426   -4.8651  -79.1076 H   0  0  0  0  0  0  0  0  0  0  0  0
   36.2083   -1.2517  -78.4596 H   0  0  0  0  0  0  0  0  0  0  0  0
   35.8189    0.0489  -77.3489 H   0  0  0  0  0  0  0  0  0  0  0  0
   35.4561    0.2190  -79.0829 H   0  0  0  0  0  0  0  0  0  0  0  0
   35.6224   -3.2926  -78.5699 H   0  0  0  0  0  0  0  0  0  0  0  0
   31.8878   -3.3498  -77.8087 H   0  0  0  0  0  0  0  0  0  0  0  0
   32.6903   -7.7245  -78.3775 H   0  0  0  0  0  0  0  0  0  0  0  0
   33.6910    2.7193  -76.5768 H   0  0  0  0  0  0  0  0  0  0  0  0
   34.3959    1.1687  -76.2356 H   0  0  0  0  0  0  0  0  0  0  0  0
  1 23  1  0  0  0  0
  1 24  1  0  0  0  0
  1 25  1  0  0  0  0
  2  3  2  0  0  0  0
  2  6  1  0  0  0  0
  2 26  1  0  0  0  0
  3 14  1  0  0  0  0
  3 27  1  0  0  0  0
  4  6  2  0  0  0  0
  4  7  1  0  0  0  0
  4 28  1  0  0  0  0
  5 11  1  6  0  0  0
  5 15  1  0  0  0  0
  5 16  1  0  0  0  0
  6 22  1  0  0  0  0
  7  8  1  0  0  0  0
  7 14  2  0  0  0  0
  8  9  1  0  0  0  0
  8 12  2  0  0  0  0
  9 18  1  0  0  0  0
  9 20  2  0  0  0  0
 10 19  1  0  0  0  0
 10 21  2  0  0  0  0
 11 29  1  0  0  0  0
 11 30  1  0  0  0  0
 11 31  1  0  0  0  0
 12 32  1  0  0  0  0
 13  1  1  1  0  0  0
 13 16  1  0  0  0  0
 13 17  1  0  0  0  0
 14 18  1  0  0  0  0
 15 12  1  6  0  0  0
 15 17  1  0  0  0  0
 16 10  1  6  0  0  0
 17 33  1  0  0  0  0
 18 34  1  0  0  0  0
 19 35  1  0  0  0  0
 19 36  1  0  0  0  0
M  CHG  1  17   1
M  END
$$$$
