B50
 OpenBabel04091915173D

 75 78  0  0  1  0  0  0  0  0999 V2000
   23.7275    6.8897  -29.7358 C   0  0  0  0  0  0  0  0  0  0  0  0
   30.7532    9.0805  -24.8935 O   0  0  0  0  0  0  0  0  0  0  0  0
   27.4725    5.1091  -24.6216 O   0  0  0  0  0  0  0  0  0  0  0  0
   25.3025    6.1271  -23.0788 O   0  0  0  0  0  0  0  0  0  0  0  0
   27.7961   14.7423  -17.0948 Cl  0  0  0  0  0  0  0  0  0  0  0  0
   30.2616   14.8200  -24.4124 C   0  0  0  0  0  0  0  0  0  0  0  0
   28.9089   14.5158  -24.2210 C   0  0  0  0  0  0  0  0  0  0  0  0
   31.2608   13.9186  -24.0390 C   0  0  0  0  0  0  0  0  0  0  0  0
   28.5539   13.3061  -23.6642 C   0  0  0  0  0  0  0  0  0  0  0  0
   30.9097   12.6940  -23.4923 C   0  0  0  0  0  0  0  0  0  0  0  0
   27.0298   12.7544  -18.7358 C   0  0  0  0  0  0  0  0  0  0  0  0
   29.2716   13.6591  -19.0572 C   0  0  0  0  0  0  0  0  0  0  0  0
   27.2427   11.8449  -19.7493 C   0  0  0  0  0  0  0  0  0  0  0  0
   29.4903   12.7543  -20.0732 C   0  0  0  0  0  0  0  0  0  0  0  0
   28.4739    9.5893  -21.2900 C   0  0  0  0  0  0  0  0  0  0  0  0
   26.9742    6.4273  -24.7592 C   0  0  0  0  0  0  0  0  0  0  0  0
   28.9033    8.7357  -27.4879 C   0  0  0  0  0  0  0  0  0  0  0  0
   29.3083   10.1170  -26.9883 C   0  0  0  0  0  0  0  0  0  0  0  0
   27.4466    6.9498  -22.3113 C   0  0  0  0  0  0  0  0  0  0  0  0
   27.4204    8.4838  -27.3428 C   0  0  0  0  0  0  0  0  0  0  0  0
   25.4197    8.5399  -30.1094 C   0  0  0  0  0  0  0  0  0  0  0  0
   24.3910    8.3116  -27.9193 C   0  0  0  0  0  0  0  0  0  0  0  0
   26.6753    9.2474  -29.5924 C   0  0  0  0  0  0  0  0  0  0  0  0
   25.1877    9.5821  -27.5791 C   0  0  0  0  0  0  0  0  0  0  0  0
   28.7814    7.5736  -22.7154 C   0  0  0  0  0  0  0  0  0  0  0  0
   28.9337   10.2719  -25.6221 N   0  0  0  0  0  0  0  0  0  0  0  0
   29.7296    9.7357  -24.6497 C   0  0  0  0  0  0  0  0  0  0  0  0
   28.0508   13.6424  -18.3952 C   0  0  0  0  0  0  0  0  0  0  0  0
   28.4682   11.8659  -20.4046 C   0  0  0  0  0  0  0  0  0  0  0  0
   29.5570   12.4027  -23.3192 C   0  0  0  0  0  0  0  0  0  0  0  0
   28.6868   10.9336  -21.4468 C   0  0  1  0  0  0  0  0  0  0  0  0
   29.1698   11.1677  -22.7221 C   0  0  2  0  0  0  0  0  0  0  0  0
   29.2559    9.9400  -23.3458 C   0  0  2  0  0  0  0  0  0  0  0  0
   26.4145    6.9497  -23.4393 C   0  0  2  0  0  0  0  0  0  0  0  0
   24.8514    7.6041  -29.1293 N   0  0  0  0  0  0  0  0  0  0  0  0
   26.6084    9.5040  -28.0987 N   0  3  0  0  0  0  0  0  0  0  0  0
   28.8291    8.9955  -22.4568 N   0  3  2  0  0  0  0  0  0  0  0  0
   24.0570    6.3527  -30.6304 H   0  0  0  0  0  0  0  0  0  0  0  0
   22.9320    7.5867  -30.0245 H   0  0  0  0  0  0  0  0  0  0  0  0
   23.3185    6.1567  -29.0348 H   0  0  0  0  0  0  0  0  0  0  0  0
   26.7245    4.5285  -24.4027 H   0  0  0  0  0  0  0  0  0  0  0  0
   25.6292    5.2256  -22.9088 H   0  0  0  0  0  0  0  0  0  0  0  0
   30.5406   15.7752  -24.8382 H   0  0  0  0  0  0  0  0  0  0  0  0
   28.1412   15.2353  -24.4907 H   0  0  0  0  0  0  0  0  0  0  0  0
   32.3062   14.1777  -24.1659 H   0  0  0  0  0  0  0  0  0  0  0  0
   27.5118   13.0623  -23.4724 H   0  0  0  0  0  0  0  0  0  0  0  0
   31.6748   11.9834  -23.1747 H   0  0  0  0  0  0  0  0  0  0  0  0
   26.0844   12.7382  -18.2065 H   0  0  0  0  0  0  0  0  0  0  0  0
   30.0637   14.3485  -18.7845 H   0  0  0  0  0  0  0  0  0  0  0  0
   26.4671   11.1492  -20.0631 H   0  0  0  0  0  0  0  0  0  0  0  0
   30.4426   12.7388  -20.6028 H   0  0  0  0  0  0  0  0  0  0  0  0
   28.1212    9.0532  -20.4294 H   0  0  0  0  0  0  0  0  0  0  0  0
   26.2187    6.4469  -25.5456 H   0  0  0  0  0  0  0  0  0  0  0  0
   27.7985    7.0426  -25.1101 H   0  0  0  0  0  0  0  0  0  0  0  0
   29.4361    7.9570  -26.9172 H   0  0  0  0  0  0  0  0  0  0  0  0
   29.2189    8.6231  -28.5297 H   0  0  0  0  0  0  0  0  0  0  0  0
   28.8097   10.9092  -27.5509 H   0  0  0  0  0  0  0  0  0  0  0  0
   30.3860   10.2612  -27.1106 H   0  0  0  0  0  0  0  0  0  0  0  0
   27.0105    7.4718  -21.4501 H   0  0  0  0  0  0  0  0  0  0  0  0
   27.6251    5.9259  -21.9711 H   0  0  0  0  0  0  0  0  0  0  0  0
   27.1106    8.5836  -26.2970 H   0  0  0  0  0  0  0  0  0  0  0  0
   27.1395    7.4887  -27.7029 H   0  0  0  0  0  0  0  0  0  0  0  0
   25.7018    8.0061  -31.0233 H   0  0  0  0  0  0  0  0  0  0  0  0
   24.6784    9.3007  -30.3796 H   0  0  0  0  0  0  0  0  0  0  0  0
   23.3414    8.6123  -28.0137 H   0  0  0  0  0  0  0  0  0  0  0  0
   24.4539    7.6202  -27.0697 H   0  0  0  0  0  0  0  0  0  0  0  0
   26.8147   10.2176  -30.0752 H   0  0  0  0  0  0  0  0  0  0  0  0
   27.5537    8.6262  -29.7864 H   0  0  0  0  0  0  0  0  0  0  0  0
   25.2379    9.7436  -26.4968 H   0  0  0  0  0  0  0  0  0  0  0  0
   24.7378   10.4619  -28.0504 H   0  0  0  0  0  0  0  0  0  0  0  0
   29.0036    7.4326  -23.7674 H   0  0  0  0  0  0  0  0  0  0  0  0
   29.6164    7.1148  -22.1817 H   0  0  0  0  0  0  0  0  0  0  0  0
   28.1353   10.8057  -25.3160 H   0  0  0  0  0  0  0  0  0  0  0  0
   26.0282    7.9651  -23.5858 H   0  0  0  0  0  0  0  0  0  0  0  0
   27.0015   10.4329  -27.9341 H   0  0  0  0  0  0  0  0  0  0  0  0
  1 35  1  0  0  0  0
  1 38  1  0  0  0  0
  1 39  1  0  0  0  0
  1 40  1  0  0  0  0
  2 27  2  0  0  0  0
  3 16  1  0  0  0  0
  3 41  1  0  0  0  0
  4 34  1  0  0  0  0
  4 42  1  0  0  0  0
  5 28  1  0  0  0  0
  6  7  2  0  0  0  0
  6  8  1  0  0  0  0
  6 43  1  0  0  0  0
  7  9  1  0  0  0  0
  7 44  1  0  0  0  0
  8 10  2  0  0  0  0
  8 45  1  0  0  0  0
  9 30  2  0  0  0  0
  9 46  1  0  0  0  0
 10 30  1  0  0  0  0
 10 47  1  0  0  0  0
 11 13  2  0  0  0  0
 11 28  1  0  0  0  0
 11 48  1  0  0  0  0
 12 14  1  0  0  0  0
 12 28  2  0  0  0  0
 12 49  1  0  0  0  0
 13 29  1  0  0  0  0
 13 50  1  0  0  0  0
 14 29  2  0  0  0  0
 14 51  1  0  0  0  0
 15 31  1  0  0  0  0
 15 37  1  0  0  0  0
 15 52  1  0  0  0  0
 16 34  1  0  0  0  0
 16 53  1  0  0  0  0
 16 54  1  0  0  0  0
 17 18  1  0  0  0  0
 17 20  1  0  0  0  0
 17 55  1  0  0  0  0
 17 56  1  0  0  0  0
 18 26  1  0  0  0  0
 18 57  1  0  0  0  0
 18 58  1  0  0  0  0
 19 25  1  0  0  0  0
 19 34  1  0  0  0  0
 19 59  1  0  0  0  0
 19 60  1  0  0  0  0
 20 36  1  0  0  0  0
 20 61  1  0  0  0  0
 20 62  1  0  0  0  0
 21 23  1  0  0  0  0
 21 35  1  0  0  0  0
 21 63  1  0  0  0  0
 21 64  1  0  0  0  0
 22 24  1  0  0  0  0
 22 35  1  0  0  0  0
 22 65  1  0  0  0  0
 22 66  1  0  0  0  0
 23 36  1  0  0  0  0
 23 67  1  0  0  0  0
 23 68  1  0  0  0  0
 24 36  1  0  0  0  0
 24 69  1  0  0  0  0
 24 70  1  0  0  0  0
 25 71  1  0  0  0  0
 25 72  1  0  0  0  0
 26 27  1  0  0  0  0
 26 73  1  0  0  0  0
 31 29  1  1  0  0  0
 31 32  1  0  0  0  0
 32 30  1  1  0  0  0
 32 33  1  0  0  0  0
 33 27  1  1  0  0  0
 33 37  1  0  0  0  0
 34 74  1  6  0  0  0
 36 75  1  0  0  0  0
 37 25  1  1  0  0  0
M  CHG  2  36   1  37   1
M  END
$$$$
