B5R
 OpenBabel04091910573D

 41 42  0  0  1  0  0  0  0  0999 V2000
   29.5671   -0.6530    7.9962 C   0  0  0  0  0  0  0  0  0  0  0  0
   29.5881   -0.8314    9.3766 C   0  0  0  0  0  0  0  0  0  0  0  0
   29.7052   -2.0824    9.8483 F   0  0  0  0  0  0  0  0  0  0  0  0
   29.4790    0.2704   10.2262 C   0  0  0  0  0  0  0  0  0  0  0  0
   29.4513    0.1149   11.9409 Cl  0  0  0  0  0  0  0  0  0  0  0  0
   29.3710    1.5526    9.6796 C   0  0  0  0  0  0  0  0  0  0  0  0
   29.3464    1.7326    8.2950 C   0  0  0  0  0  0  0  0  0  0  0  0
   29.4330    0.6234    7.4658 C   0  0  0  0  0  0  0  0  0  0  0  0
   29.1956    0.7598    6.1428 O   0  0  0  0  0  0  0  0  0  0  0  0
   30.3615    0.9111    5.3406 C   0  0  0  0  0  0  0  0  0  0  0  0
   29.9092    0.8748    3.8789 C   0  0  1  0  0  0  0  0  0  0  0  0
   30.8661    1.5537    3.0617 O   0  0  0  0  0  0  0  0  0  0  0  0
   29.7277   -0.5646    3.4203 C   0  0  0  0  0  0  0  0  0  0  0  0
   28.5670    1.5869    3.7899 C   0  0  0  0  0  0  0  0  0  0  0  0
   27.4994    0.9920    3.9098 O   0  0  0  0  0  0  0  0  0  0  0  0
   28.6936    2.9421    3.6418 N   0  0  0  0  0  0  0  0  0  0  0  0
   27.6558    3.8423    3.5699 C   0  0  0  0  0  0  0  0  0  0  0  0
   26.3239    3.4737    3.7302 C   0  0  0  0  0  0  0  0  0  0  0  0
   28.0153    5.1614    3.3886 C   0  0  0  0  0  0  0  0  0  0  0  0
   27.0287    6.1217    3.3953 C   0  0  0  0  0  0  0  0  0  0  0  0
   25.6844    5.7656    3.5765 C   0  0  0  0  0  0  0  0  0  0  0  0
   24.7444    6.8221    3.5737 C   0  0  0  0  0  0  0  0  0  0  0  0
   23.9875    7.7172    3.5611 N   0  0  0  0  0  0  0  0  0  0  0  0
   25.3119    4.4283    3.7435 C   0  0  0  0  0  0  0  0  0  0  0  0
   23.8938    4.0026    4.0099 C   0  0  0  0  0  0  0  0  0  0  0  0
   22.9622    4.6681    3.2748 F   0  0  0  0  0  0  0  0  0  0  0  0
   23.6562    2.6862    3.7483 F   0  0  0  0  0  0  0  0  0  0  0  0
   23.5526    4.1896    5.3147 F   0  0  0  0  0  0  0  0  0  0  0  0
   29.6432   -1.5125    7.3425 H   0  0  0  0  0  0  0  0  0  0  0  0
   29.2946    2.4149   10.3348 H   0  0  0  0  0  0  0  0  0  0  0  0
   29.2510    2.7311    7.8790 H   0  0  0  0  0  0  0  0  0  0  0  0
   31.0697    0.0901    5.5220 H   0  0  0  0  0  0  0  0  0  0  0  0
   30.8616    1.8648    5.5510 H   0  0  0  0  0  0  0  0  0  0  0  0
   31.7166    1.0909    3.1490 H   0  0  0  0  0  0  0  0  0  0  0  0
   29.3904   -0.5908    2.3765 H   0  0  0  0  0  0  0  0  0  0  0  0
   28.9838   -1.0772    4.0454 H   0  0  0  0  0  0  0  0  0  0  0  0
   30.6810   -1.1014    3.4929 H   0  0  0  0  0  0  0  0  0  0  0  0
   29.6355    3.3044    3.5672 H   0  0  0  0  0  0  0  0  0  0  0  0
   26.0573    2.4319    3.8624 H   0  0  0  0  0  0  0  0  0  0  0  0
   29.0553    5.4407    3.2520 H   0  0  0  0  0  0  0  0  0  0  0  0
   27.2934    7.1663    3.2649 H   0  0  0  0  0  0  0  0  0  0  0  0
  1  2  2  0  0  0  0
  1  8  1  0  0  0  0
  1 29  1  0  0  0  0
  2  3  1  0  0  0  0
  2  4  1  0  0  0  0
  4  5  1  0  0  0  0
  4  6  2  0  0  0  0
  6  7  1  0  0  0  0
  6 30  1  0  0  0  0
  7  8  2  0  0  0  0
  7 31  1  0  0  0  0
  8  9  1  0  0  0  0
  9 10  1  0  0  0  0
 10 32  1  0  0  0  0
 10 33  1  0  0  0  0
 11 10  1  1  0  0  0
 11 12  1  0  0  0  0
 11 13  1  0  0  0  0
 11 14  1  0  0  0  0
 12 34  1  0  0  0  0
 13 35  1  0  0  0  0
 13 36  1  0  0  0  0
 13 37  1  0  0  0  0
 14 15  2  0  0  0  0
 14 16  1  0  0  0  0
 16 17  1  0  0  0  0
 16 38  1  0  0  0  0
 17 18  2  0  0  0  0
 17 19  1  0  0  0  0
 18 24  1  0  0  0  0
 18 39  1  0  0  0  0
 19 20  2  0  0  0  0
 19 40  1  0  0  0  0
 20 21  1  0  0  0  0
 20 41  1  0  0  0  0
 21 22  1  0  0  0  0
 21 24  2  0  0  0  0
 22 23  3  0  0  0  0
 24 25  1  0  0  0  0
 25 26  1  0  0  0  0
 25 27  1  0  0  0  0
 25 28  1  0  0  0  0
M  END
$$$$
