B64
 OpenBabel04091912543D

 34 35  0  0  0  0  0  0  0  0999 V2000
   10.2462   19.4962   -2.7442 C   0  0  0  0  0  0  0  0  0  0  0  0
   11.5285   18.6733   -2.7523 C   0  0  0  0  0  0  0  0  0  0  0  0
   11.9174   18.1328   -4.1126 C   0  0  0  0  0  0  0  0  0  0  0  0
   10.3203   20.5774   -2.0950 O   0  0  0  0  0  0  0  0  0  0  0  0
    9.2558   18.9437   -3.3025 O   0  0  0  0  0  0  0  0  0  0  0  0
   11.4165   20.2264   -5.2862 O   0  0  0  0  0  0  0  0  0  0  0  0
   12.7895   18.6620   -6.2702 N   0  0  0  0  0  0  0  0  0  0  0  0
   12.9911   19.2401   -7.5239 C   0  0  0  0  0  0  0  0  0  0  0  0
   13.9532   18.7424   -8.3905 C   0  0  0  0  0  0  0  0  0  0  0  0
   13.9643   19.6099   -9.8589 S   0  0  0  0  0  0  0  0  0  0  0  0
   12.6845   20.6642   -9.3772 C   0  0  0  0  0  0  0  0  0  0  0  0
   12.2809   20.3502   -8.0889 C   0  0  0  0  0  0  0  0  0  0  0  0
   14.8629   17.6353   -8.1112 C   0  0  0  0  0  0  0  0  0  0  0  0
   15.6868   17.3275   -9.1548 O   0  0  0  0  0  0  0  0  0  0  0  0
   16.5899   16.2487   -8.8769 C   0  0  0  0  0  0  0  0  0  0  0  0
   14.8893   17.0288   -7.0423 O   0  0  0  0  0  0  0  0  0  0  0  0
   12.1545   21.7168  -10.2377 C   0  0  0  0  0  0  0  0  0  0  0  0
   11.2023   22.6786   -9.9242 C   0  0  0  0  0  0  0  0  0  0  0  0
   10.9281   23.5789  -11.0033 C   0  0  0  0  0  0  0  0  0  0  0  0
   11.6766   23.2851  -12.1146 C   0  0  0  0  0  0  0  0  0  0  0  0
   12.6663   21.9169  -11.8745 S   0  0  0  0  0  0  0  0  0  0  0  0
   11.9905   19.1469   -5.2548 C   0  0  0  0  0  0  0  0  0  0  0  0
   11.3706   17.8266   -2.0728 H   0  0  0  0  0  0  0  0  0  0  0  0
   12.3555   19.2598   -2.3351 H   0  0  0  0  0  0  0  0  0  0  0  0
   11.2261   17.3422   -4.4234 H   0  0  0  0  0  0  0  0  0  0  0  0
   12.9047   17.6662   -4.0031 H   0  0  0  0  0  0  0  0  0  0  0  0
   13.3513   17.8315   -6.0660 H   0  0  0  0  0  0  0  0  0  0  0  0
   11.4880   20.8770   -7.5766 H   0  0  0  0  0  0  0  0  0  0  0  0
   17.1982   16.0612   -9.7666 H   0  0  0  0  0  0  0  0  0  0  0  0
   16.0404   15.3313   -8.6400 H   0  0  0  0  0  0  0  0  0  0  0  0
   17.2615   16.5149   -8.0538 H   0  0  0  0  0  0  0  0  0  0  0  0
   10.7148   22.7531   -8.9563 H   0  0  0  0  0  0  0  0  0  0  0  0
   10.2256   24.4008  -10.9597 H   0  0  0  0  0  0  0  0  0  0  0  0
   11.6905   23.8012  -13.0650 H   0  0  0  0  0  0  0  0  0  0  0  0
  1  2  1  0  0  0  0
  1  4  2  0  0  0  0
  1  5  1  0  0  0  0
  2  3  1  0  0  0  0
  2 23  1  0  0  0  0
  2 24  1  0  0  0  0
  3 22  1  0  0  0  0
  3 25  1  0  0  0  0
  3 26  1  0  0  0  0
  6 22  2  0  0  0  0
  7  8  1  0  0  0  0
  7 22  1  0  0  0  0
  7 27  1  0  0  0  0
  8  9  2  0  0  0  0
  8 12  1  0  0  0  0
  9 10  1  0  0  0  0
  9 13  1  0  0  0  0
 10 11  1  0  0  0  0
 11 12  2  0  0  0  0
 11 17  1  0  0  0  0
 12 28  1  0  0  0  0
 13 14  1  0  0  0  0
 13 16  2  0  0  0  0
 14 15  1  0  0  0  0
 15 29  1  0  0  0  0
 15 30  1  0  0  0  0
 15 31  1  0  0  0  0
 17 18  2  0  0  0  0
 17 21  1  0  0  0  0
 18 19  1  0  0  0  0
 18 32  1  0  0  0  0
 19 20  2  0  0  0  0
 19 33  1  0  0  0  0
 20 21  1  0  0  0  0
 20 34  1  0  0  0  0
M  END
$$$$
