B66
 OpenBabel04091910583D

 43 44  0  0  1  0  0  0  0  0999 V2000
   29.0022    2.0332    8.0725 C   0  0  0  0  0  0  0  0  0  0  0  0
   28.7631    1.8830    9.4353 C   0  0  0  0  0  0  0  0  0  0  0  0
   29.4309    0.8787   10.1404 C   0  0  0  0  0  0  0  0  0  0  0  0
   29.1763    0.7063   11.5714 N   0  0  0  0  0  0  0  0  0  0  0  0
   29.8315   -0.1753   12.1569 O   0  0  0  0  0  0  0  0  0  0  0  0
   28.3294    1.4572   12.0882 O   0  0  0  0  0  0  0  0  0  0  0  0
   30.3299    0.0268    9.4914 C   0  0  0  0  0  0  0  0  0  0  0  0
   30.5526    0.1813    8.1293 C   0  0  0  0  0  0  0  0  0  0  0  0
   29.8903    1.1759    7.4212 C   0  0  0  0  0  0  0  0  0  0  0  0
   30.1306    1.3962    6.0974 O   0  0  0  0  0  0  0  0  0  0  0  0
   30.1343    0.1914    5.3152 C   0  0  0  0  0  0  0  0  0  0  0  0
   29.7686    0.5606    3.8822 C   0  0  1  0  0  0  0  0  0  0  0  0
   30.7776    1.4131    3.3176 O   0  0  0  0  0  0  0  0  0  0  0  0
   29.6036   -0.6944    3.0430 C   0  0  0  0  0  0  0  0  0  0  0  0
   28.4451    1.3088    3.9265 C   0  0  0  0  0  0  0  0  0  0  0  0
   27.3864    0.7474    4.1837 O   0  0  0  0  0  0  0  0  0  0  0  0
   28.6110    2.6536    3.7038 N   0  0  0  0  0  0  0  0  0  0  0  0
   27.6057    3.5975    3.6936 C   0  0  0  0  0  0  0  0  0  0  0  0
   26.2699    3.2709    3.9123 C   0  0  0  0  0  0  0  0  0  0  0  0
   27.9921    4.8975    3.4477 C   0  0  0  0  0  0  0  0  0  0  0  0
   27.0274    5.8831    3.4276 C   0  0  0  0  0  0  0  0  0  0  0  0
   25.6812    5.5674    3.6553 C   0  0  0  0  0  0  0  0  0  0  0  0
   24.7659    6.6357    3.6284 C   0  0  0  0  0  0  0  0  0  0  0  0
   24.0247    7.5567    3.5951 N   0  0  0  0  0  0  0  0  0  0  0  0
   25.2805    4.2497    3.8913 C   0  0  0  0  0  0  0  0  0  0  0  0
   23.8580    3.8583    4.1881 C   0  0  0  0  0  0  0  0  0  0  0  0
   23.5485    4.0605    5.4967 F   0  0  0  0  0  0  0  0  0  0  0  0
   22.9351    4.5424    3.4626 F   0  0  0  0  0  0  0  0  0  0  0  0
   23.5913    2.5450    3.9404 F   0  0  0  0  0  0  0  0  0  0  0  0
   28.4793    2.8073    7.5223 H   0  0  0  0  0  0  0  0  0  0  0  0
   28.0677    2.5410    9.9447 H   0  0  0  0  0  0  0  0  0  0  0  0
   30.8477   -0.7478   10.0432 H   0  0  0  0  0  0  0  0  0  0  0  0
   31.2503   -0.4758    7.6284 H   0  0  0  0  0  0  0  0  0  0  0  0
   29.4105   -0.5327    5.7097 H   0  0  0  0  0  0  0  0  0  0  0  0
   31.1407   -0.2505    5.3266 H   0  0  0  0  0  0  0  0  0  0  0  0
   31.6182    0.9262    3.3343 H   0  0  0  0  0  0  0  0  0  0  0  0
   29.3313   -0.4324    2.0136 H   0  0  0  0  0  0  0  0  0  0  0  0
   28.8164   -1.3355    3.4613 H   0  0  0  0  0  0  0  0  0  0  0  0
   30.5430   -1.2576    3.0221 H   0  0  0  0  0  0  0  0  0  0  0  0
   29.5553    2.9654    3.5372 H   0  0  0  0  0  0  0  0  0  0  0  0
   25.9757    2.2448    4.1021 H   0  0  0  0  0  0  0  0  0  0  0  0
   29.0342    5.1417    3.2759 H   0  0  0  0  0  0  0  0  0  0  0  0
   27.3192    6.9119    3.2389 H   0  0  0  0  0  0  0  0  0  0  0  0
  1  2  2  0  0  0  0
  1  9  1  0  0  0  0
  1 30  1  0  0  0  0
  2  3  1  0  0  0  0
  2 31  1  0  0  0  0
  3  4  1  0  0  0  0
  3  7  2  0  0  0  0
  4  5  2  0  0  0  0
  4  6  2  0  0  0  0
  7  8  1  0  0  0  0
  7 32  1  0  0  0  0
  8  9  2  0  0  0  0
  8 33  1  0  0  0  0
  9 10  1  0  0  0  0
 10 11  1  0  0  0  0
 11 34  1  0  0  0  0
 11 35  1  0  0  0  0
 12 11  1  1  0  0  0
 12 13  1  0  0  0  0
 12 14  1  0  0  0  0
 12 15  1  0  0  0  0
 13 36  1  0  0  0  0
 14 37  1  0  0  0  0
 14 38  1  0  0  0  0
 14 39  1  0  0  0  0
 15 16  2  0  0  0  0
 15 17  1  0  0  0  0
 17 18  1  0  0  0  0
 17 40  1  0  0  0  0
 18 19  2  0  0  0  0
 18 20  1  0  0  0  0
 19 25  1  0  0  0  0
 19 41  1  0  0  0  0
 20 21  2  0  0  0  0
 20 42  1  0  0  0  0
 21 22  1  0  0  0  0
 21 43  1  0  0  0  0
 22 23  1  0  0  0  0
 22 25  2  0  0  0  0
 23 24  3  0  0  0  0
 25 26  1  0  0  0  0
 26 27  1  0  0  0  0
 26 28  1  0  0  0  0
 26 29  1  0  0  0  0
M  END
$$$$
