B67
 OpenBabel04091910583D

 42 43  0  0  1  0  0  0  0  0999 V2000
   23.7395    2.4048    4.4451 F   0  0  0  0  0  0  0  0  0  0  0  0
   23.8460    3.7663    4.5019 C   0  0  0  0  0  0  0  0  0  0  0  0
   23.4853    4.0981    5.7689 F   0  0  0  0  0  0  0  0  0  0  0  0
   22.8751    4.2132    3.6601 F   0  0  0  0  0  0  0  0  0  0  0  0
   25.2174    4.2574    4.1317 C   0  0  0  0  0  0  0  0  0  0  0  0
   26.2602    3.3317    4.1336 C   0  0  0  0  0  0  0  0  0  0  0  0
   25.5355    5.5787    3.7820 C   0  0  0  0  0  0  0  0  0  0  0  0
   24.5891    6.6846    3.9039 N   0  0  0  0  0  0  0  0  0  0  0  0
   24.9189    7.7780    3.4233 O   0  0  0  0  0  0  0  0  0  0  0  0
   23.5331    6.4929    4.5247 O   0  0  0  0  0  0  0  0  0  0  0  0
   26.8391    5.9129    3.3472 C   0  0  0  0  0  0  0  0  0  0  0  0
   27.8532    4.9688    3.3382 C   0  0  0  0  0  0  0  0  0  0  0  0
   27.5636    3.6776    3.7645 C   0  0  0  0  0  0  0  0  0  0  0  0
   28.6090    2.7621    3.8204 N   0  0  0  0  0  0  0  0  0  0  0  0
   28.5154    1.4668    4.2822 C   0  0  0  0  0  0  0  0  0  0  0  0
   27.5055    0.8906    4.6765 O   0  0  0  0  0  0  0  0  0  0  0  0
   29.8553    0.7587    4.2915 C   0  0  2  0  0  0  0  0  0  0  0  0
   30.8754    1.5618    3.6853 O   0  0  0  0  0  0  0  0  0  0  0  0
   29.6868   -0.5326    3.4965 C   0  0  0  0  0  0  0  0  0  0  0  0
   30.1599    0.4246    5.7601 C   0  0  0  0  0  0  0  0  0  0  0  0
   30.4586    1.6244    6.4967 O   0  0  0  0  0  0  0  0  0  0  0  0
   29.7971    1.6359    7.6974 C   0  0  0  0  0  0  0  0  0  0  0  0
   28.7485    2.5361    7.8856 C   0  0  0  0  0  0  0  0  0  0  0  0
   28.3848    3.3540    6.8890 F   0  0  0  0  0  0  0  0  0  0  0  0
   28.0664    2.5747    9.0970 C   0  0  0  0  0  0  0  0  0  0  0  0
   27.0725    3.4559    9.2778 F   0  0  0  0  0  0  0  0  0  0  0  0
   28.4169    1.6995   10.1179 C   0  0  0  0  0  0  0  0  0  0  0  0
   27.7394    1.7129   11.2748 F   0  0  0  0  0  0  0  0  0  0  0  0
   29.4711    0.8087    9.9395 C   0  0  0  0  0  0  0  0  0  0  0  0
   29.8040   -0.0409   10.9223 F   0  0  0  0  0  0  0  0  0  0  0  0
   30.1731    0.7918    8.7407 C   0  0  0  0  0  0  0  0  0  0  0  0
   31.2130   -0.0407    8.5793 F   0  0  0  0  0  0  0  0  0  0  0  0
   26.0123    2.3279    4.4545 H   0  0  0  0  0  0  0  0  0  0  0  0
   27.0810    6.9292    3.0333 H   0  0  0  0  0  0  0  0  0  0  0  0
   28.8510    5.2556    3.0317 H   0  0  0  0  0  0  0  0  0  0  0  0
   29.5513    3.0659    3.5585 H   0  0  0  0  0  0  0  0  0  0  0  0
   31.7084    1.0787    3.7527 H   0  0  0  0  0  0  0  0  0  0  0  0
   30.6213   -1.0985    3.4874 H   0  0  0  0  0  0  0  0  0  0  0  0
   29.4148   -0.3201    2.4570 H   0  0  0  0  0  0  0  0  0  0  0  0
   28.9018   -1.1671    3.9265 H   0  0  0  0  0  0  0  0  0  0  0  0
   31.0417   -0.2216    5.8031 H   0  0  0  0  0  0  0  0  0  0  0  0
   29.3099   -0.1209    6.1972 H   0  0  0  0  0  0  0  0  0  0  0  0
  1  2  1  0  0  0  0
  2  3  1  0  0  0  0
  2  4  1  0  0  0  0
  2  5  1  0  0  0  0
  5  6  2  0  0  0  0
  5  7  1  0  0  0  0
  6 13  1  0  0  0  0
  6 33  1  0  0  0  0
  7  8  1  0  0  0  0
  7 11  2  0  0  0  0
  8  9  2  0  0  0  0
  8 10  2  0  0  0  0
 11 12  1  0  0  0  0
 11 34  1  0  0  0  0
 12 13  2  0  0  0  0
 12 35  1  0  0  0  0
 13 14  1  0  0  0  0
 14 15  1  0  0  0  0
 14 36  1  0  0  0  0
 15 16  2  0  0  0  0
 17 15  1  6  0  0  0
 17 18  1  0  0  0  0
 17 19  1  0  0  0  0
 17 20  1  0  0  0  0
 18 37  1  0  0  0  0
 19 38  1  0  0  0  0
 19 39  1  0  0  0  0
 19 40  1  0  0  0  0
 20 21  1  0  0  0  0
 20 41  1  0  0  0  0
 20 42  1  0  0  0  0
 21 22  1  0  0  0  0
 22 23  2  0  0  0  0
 22 31  1  0  0  0  0
 23 24  1  0  0  0  0
 23 25  1  0  0  0  0
 25 26  1  0  0  0  0
 25 27  2  0  0  0  0
 27 28  1  0  0  0  0
 27 29  1  0  0  0  0
 29 30  1  0  0  0  0
 29 31  2  0  0  0  0
 31 32  1  0  0  0  0
M  END
$$$$
