B68
 OpenBabel04091910583D

 49 50  0  0  1  0  0  0  0  0999 V2000
   29.4949   -0.1535   14.1364 C   0  0  0  0  0  0  0  0  0  0  0  0
   30.1002   -0.0689   12.7563 C   0  0  0  0  0  0  0  0  0  0  0  0
   31.2114   -0.5426   12.5519 O   0  0  0  0  0  0  0  0  0  0  0  0
   29.2839    0.5696   11.8366 N   0  0  0  0  0  0  0  0  0  0  0  0
   29.5653    0.7867   10.4718 C   0  0  0  0  0  0  0  0  0  0  0  0
   30.7342    0.3475    9.8462 C   0  0  0  0  0  0  0  0  0  0  0  0
   30.9529    0.5947    8.4898 C   0  0  0  0  0  0  0  0  0  0  0  0
   28.6094    1.4842    9.7161 C   0  0  0  0  0  0  0  0  0  0  0  0
   28.8283    1.7360    8.3590 C   0  0  0  0  0  0  0  0  0  0  0  0
   29.9927    1.2746    7.7541 C   0  0  0  0  0  0  0  0  0  0  0  0
   30.2000    1.5476    6.4321 O   0  0  0  0  0  0  0  0  0  0  0  0
   30.0030    0.3614    5.6416 C   0  0  0  0  0  0  0  0  0  0  0  0
   29.7847    0.7760    4.1756 C   0  0  1  0  0  0  0  0  0  0  0  0
   30.8483    1.6152    3.7001 O   0  0  0  0  0  0  0  0  0  0  0  0
   29.7040   -0.4461    3.2655 C   0  0  0  0  0  0  0  0  0  0  0  0
   28.4289    1.4958    4.1209 C   0  0  0  0  0  0  0  0  0  0  0  0
   27.3823    0.8923    4.3426 O   0  0  0  0  0  0  0  0  0  0  0  0
   28.5565    2.8428    3.8298 N   0  0  0  0  0  0  0  0  0  0  0  0
   27.5271    3.7902    3.7442 C   0  0  0  0  0  0  0  0  0  0  0  0
   26.1838    3.4714    3.9548 C   0  0  0  0  0  0  0  0  0  0  0  0
   27.8689    5.1054    3.4438 C   0  0  0  0  0  0  0  0  0  0  0  0
   26.8776    6.0884    3.3823 C   0  0  0  0  0  0  0  0  0  0  0  0
   25.5251    5.7629    3.6192 C   0  0  0  0  0  0  0  0  0  0  0  0
   24.5519    6.8704    3.5971 N   0  0  0  0  0  0  0  0  0  0  0  0
   23.4019    6.6516    3.9859 O   0  0  0  0  0  0  0  0  0  0  0  0
   24.9551    7.9772    3.2134 O   0  0  0  0  0  0  0  0  0  0  0  0
   25.1562    4.4347    3.8893 C   0  0  0  0  0  0  0  0  0  0  0  0
   23.7433    3.9552    4.1263 C   0  0  0  0  0  0  0  0  0  0  0  0
   23.2299    4.3877    5.3077 F   0  0  0  0  0  0  0  0  0  0  0  0
   22.8823    4.3125    3.1387 F   0  0  0  0  0  0  0  0  0  0  0  0
   23.6498    2.5922    4.1837 F   0  0  0  0  0  0  0  0  0  0  0  0
   28.4977    0.2907   14.1818 H   0  0  0  0  0  0  0  0  0  0  0  0
   30.1476    0.3765   14.8357 H   0  0  0  0  0  0  0  0  0  0  0  0
   29.4238   -1.2045   14.4209 H   0  0  0  0  0  0  0  0  0  0  0  0
   28.3986    0.9267   12.1668 H   0  0  0  0  0  0  0  0  0  0  0  0
   31.5062   -0.1912   10.3833 H   0  0  0  0  0  0  0  0  0  0  0  0
   31.8763    0.2589    8.0282 H   0  0  0  0  0  0  0  0  0  0  0  0
   27.6894    1.8419   10.1693 H   0  0  0  0  0  0  0  0  0  0  0  0
   28.0894    2.2792    7.7763 H   0  0  0  0  0  0  0  0  0  0  0  0
   29.1390   -0.2118    6.0086 H   0  0  0  0  0  0  0  0  0  0  0  0
   30.9018   -0.2615    5.7235 H   0  0  0  0  0  0  0  0  0  0  0  0
   31.6883    1.1840    3.9401 H   0  0  0  0  0  0  0  0  0  0  0  0
   29.5312   -0.1361    2.2281 H   0  0  0  0  0  0  0  0  0  0  0  0
   28.8888   -1.1176    3.5556 H   0  0  0  0  0  0  0  0  0  0  0  0
   30.6424   -1.0093    3.2796 H   0  0  0  0  0  0  0  0  0  0  0  0
   29.5186    3.1406    3.6739 H   0  0  0  0  0  0  0  0  0  0  0  0
   25.8934    2.4485    4.1825 H   0  0  0  0  0  0  0  0  0  0  0  0
   28.9047    5.3869    3.2630 H   0  0  0  0  0  0  0  0  0  0  0  0
   27.1813    7.1104    3.1565 H   0  0  0  0  0  0  0  0  0  0  0  0
  1  2  1  0  0  0  0
  1 32  1  0  0  0  0
  1 33  1  0  0  0  0
  1 34  1  0  0  0  0
  2  3  2  0  0  0  0
  2  4  1  0  0  0  0
  4  5  1  0  0  0  0
  4 35  1  0  0  0  0
  5  6  2  0  0  0  0
  5  8  1  0  0  0  0
  6  7  1  0  0  0  0
  6 36  1  0  0  0  0
  7 10  2  0  0  0  0
  7 37  1  0  0  0  0
  8  9  2  0  0  0  0
  8 38  1  0  0  0  0
  9 10  1  0  0  0  0
  9 39  1  0  0  0  0
 10 11  1  0  0  0  0
 11 12  1  0  0  0  0
 12 40  1  0  0  0  0
 12 41  1  0  0  0  0
 13 12  1  1  0  0  0
 13 14  1  0  0  0  0
 13 15  1  0  0  0  0
 13 16  1  0  0  0  0
 14 42  1  0  0  0  0
 15 43  1  0  0  0  0
 15 44  1  0  0  0  0
 15 45  1  0  0  0  0
 16 17  2  0  0  0  0
 16 18  1  0  0  0  0
 18 19  1  0  0  0  0
 18 46  1  0  0  0  0
 19 20  2  0  0  0  0
 19 21  1  0  0  0  0
 20 27  1  0  0  0  0
 20 47  1  0  0  0  0
 21 22  2  0  0  0  0
 21 48  1  0  0  0  0
 22 23  1  0  0  0  0
 22 49  1  0  0  0  0
 23 24  1  0  0  0  0
 23 27  2  0  0  0  0
 24 25  2  0  0  0  0
 24 26  2  0  0  0  0
 27 28  1  0  0  0  0
 28 29  1  0  0  0  0
 28 30  1  0  0  0  0
 28 31  1  0  0  0  0
M  END
$$$$
