B72
 OpenBabel04091914033D

 47 48  0  0  0  0  0  0  0  0999 V2000
    3.4926   -1.5158    2.4188 O   0  0  0  0  0  0  0  0  0  0  0  0
    2.2568   -1.1639    2.3032 C   0  0  0  0  0  0  0  0  0  0  0  0
    1.2414   -1.8569    2.4350 O   0  0  0  0  0  0  0  0  0  0  0  0
    2.0814    0.3520    1.9347 C   0  0  0  0  0  0  0  0  0  0  0  0
    0.7916    0.8031    1.4082 O   0  0  0  0  0  0  0  0  0  0  0  0
    0.4783    0.4714    0.1058 C   0  0  0  0  0  0  0  0  0  0  0  0
    1.2175   -0.4335   -0.6295 C   0  0  0  0  0  0  0  0  0  0  0  0
    0.8527   -0.7886   -1.9305 C   0  0  0  0  0  0  0  0  0  0  0  0
    1.6940   -1.7803   -2.6813 C   0  0  0  0  0  0  0  0  0  0  0  0
   -0.3171   -0.2305   -2.4918 C   0  0  0  0  0  0  0  0  0  0  0  0
   -1.0621    0.7230   -1.7855 C   0  0  0  0  0  0  0  0  0  0  0  0
   -0.6613    1.0580   -0.4763 C   0  0  0  0  0  0  0  0  0  0  0  0
   -2.2897    1.3658   -2.3744 C   0  0  0  0  0  0  0  0  0  0  0  0
   -0.7188   -0.6184   -3.8978 C   0  0  0  0  0  0  0  0  0  0  0  0
    0.0100    0.0891   -4.9873 C   0  0  0  0  0  0  0  0  0  0  0  0
   -0.1704   -0.3027   -6.3198 C   0  0  0  0  0  0  0  0  0  0  0  0
    0.5103    0.3442   -7.3399 C   0  0  0  0  0  0  0  0  0  0  0  0
    0.3735   -0.0222   -8.7983 C   0  0  0  0  0  0  0  0  0  0  0  0
   -0.7427   -1.0351   -9.0215 C   0  0  0  0  0  0  0  0  0  0  0  0
    0.0755    1.2268   -9.6202 C   0  0  0  0  0  0  0  0  0  0  0  0
    1.3658    1.3909   -6.9594 C   0  0  0  0  0  0  0  0  0  0  0  0
    2.0735    2.0110   -7.9333 O   0  0  0  0  0  0  0  0  0  0  0  0
    1.5298    1.7954   -5.6508 C   0  0  0  0  0  0  0  0  0  0  0  0
    0.8586    1.1566   -4.6584 C   0  0  0  0  0  0  0  0  0  0  0  0
    2.8674    0.6292    1.2231 H   0  0  0  0  0  0  0  0  0  0  0  0
    2.2334    0.9116    2.8661 H   0  0  0  0  0  0  0  0  0  0  0  0
    2.0871   -0.9120   -0.1887 H   0  0  0  0  0  0  0  0  0  0  0  0
    2.5310   -2.1283   -2.0686 H   0  0  0  0  0  0  0  0  0  0  0  0
    2.1037   -1.3271   -3.5882 H   0  0  0  0  0  0  0  0  0  0  0  0
    1.0899   -2.6490   -2.9555 H   0  0  0  0  0  0  0  0  0  0  0  0
   -1.2545    1.7682    0.0860 H   0  0  0  0  0  0  0  0  0  0  0  0
   -2.4872    1.0469   -3.3948 H   0  0  0  0  0  0  0  0  0  0  0  0
   -2.1752    2.4451   -2.4291 H   0  0  0  0  0  0  0  0  0  0  0  0
   -3.1751    1.1064   -1.7940 H   0  0  0  0  0  0  0  0  0  0  0  0
   -1.7777   -0.4412   -4.0577 H   0  0  0  0  0  0  0  0  0  0  0  0
   -0.5908   -1.6960   -4.0219 H   0  0  0  0  0  0  0  0  0  0  0  0
   -0.8578   -1.1141   -6.5365 H   0  0  0  0  0  0  0  0  0  0  0  0
    1.3172   -0.4641   -9.1513 H   0  0  0  0  0  0  0  0  0  0  0  0
   -0.8314   -1.2975  -10.0773 H   0  0  0  0  0  0  0  0  0  0  0  0
   -1.6991   -0.6202   -8.6805 H   0  0  0  0  0  0  0  0  0  0  0  0
   -0.5373   -1.9504   -8.4578 H   0  0  0  0  0  0  0  0  0  0  0  0
    0.8621    1.9738   -9.5397 H   0  0  0  0  0  0  0  0  0  0  0  0
   -0.8483    1.7010   -9.2791 H   0  0  0  0  0  0  0  0  0  0  0  0
    0.0135    1.0037  -10.6847 H   0  0  0  0  0  0  0  0  0  0  0  0
    2.5785    2.7441   -7.5554 H   0  0  0  0  0  0  0  0  0  0  0  0
    2.2124    2.6333   -5.3866 H   0  0  0  0  0  0  0  0  0  0  0  0
    0.9812    1.4570   -3.6226 H   0  0  0  0  0  0  0  0  0  0  0  0
  1  2  2  0  0  0  0
  2  3  1  0  0  0  0
  2  4  1  0  0  0  0
  4  5  1  0  0  0  0
  4 25  1  0  0  0  0
  4 26  1  0  0  0  0
  5  6  1  0  0  0  0
  6  7  2  0  0  0  0
  6 12  1  0  0  0  0
  7  8  1  0  0  0  0
  7 27  1  0  0  0  0
  8  9  1  0  0  0  0
  8 10  2  0  0  0  0
  9 28  1  0  0  0  0
  9 29  1  0  0  0  0
  9 30  1  0  0  0  0
 10 11  1  0  0  0  0
 10 14  1  0  0  0  0
 11 12  2  0  0  0  0
 11 13  1  0  0  0  0
 12 31  1  0  0  0  0
 13 32  1  0  0  0  0
 13 33  1  0  0  0  0
 13 34  1  0  0  0  0
 14 15  1  0  0  0  0
 14 35  1  0  0  0  0
 14 36  1  0  0  0  0
 15 16  2  0  0  0  0
 15 24  1  0  0  0  0
 16 17  1  0  0  0  0
 16 37  1  0  0  0  0
 17 18  1  0  0  0  0
 17 21  2  0  0  0  0
 18 19  1  0  0  0  0
 18 20  1  0  0  0  0
 18 38  1  0  0  0  0
 19 39  1  0  0  0  0
 19 40  1  0  0  0  0
 19 41  1  0  0  0  0
 20 42  1  0  0  0  0
 20 43  1  0  0  0  0
 20 44  1  0  0  0  0
 21 22  1  0  0  0  0
 21 23  1  0  0  0  0
 22 45  1  0  0  0  0
 23 24  2  0  0  0  0
 23 46  1  0  0  0  0
 24 47  1  0  0  0  0
M  END
$$$$
