B96
 OpenBabel04091914063D

 77 81  0  0  0  0  0  0  0  0999 V2000
   55.0884   47.7824   10.1372 C   0  0  0  0  0  0  0  0  0  0  0  0
   53.9394   48.1495    9.8793 O   0  0  0  0  0  0  0  0  0  0  0  0
   55.8789   48.2074   11.1783 N   0  0  0  0  0  0  0  0  0  0  0  0
   55.3913   49.1603   12.1089 C   0  0  0  0  0  0  0  0  0  0  0  0
   56.1214   50.3240   12.4292 C   0  0  0  0  0  0  0  0  0  0  0  0
   55.5874   51.2355   13.3803 C   0  0  0  0  0  0  0  0  0  0  0  0
   54.3481   50.9386   14.0029 C   0  0  0  0  0  0  0  0  0  0  0  0
   57.3401   50.6470   11.7887 C   0  0  0  0  0  0  0  0  0  0  0  0
   58.0242   51.8194   12.0982 C   0  0  0  0  0  0  0  0  0  0  0  0
   57.5094   52.6954   13.0441 C   0  0  0  0  0  0  0  0  0  0  0  0
   56.2982   52.4120   13.6779 C   0  0  0  0  0  0  0  0  0  0  0  0
   53.6663   49.7652   13.6759 C   0  0  0  0  0  0  0  0  0  0  0  0
   54.1779   48.9018   12.7277 C   0  0  0  0  0  0  0  0  0  0  0  0
   55.7220   46.7871    9.3662 N   0  0  0  0  0  0  0  0  0  0  0  0
   55.0146   46.1001    8.3739 C   0  0  0  0  0  0  0  0  0  0  0  0
   54.2198   46.6326    7.3882 C   0  0  0  0  0  0  0  0  0  0  0  0
   53.8459   45.5345    6.5678 C   0  0  0  0  0  0  0  0  0  0  0  0
   54.4309   44.4055    6.9853 N   0  0  0  0  0  0  0  0  0  0  0  0
   55.0837   44.7446    8.1125 N   0  3  0  0  0  0  0  0  0  0  0  0
   55.7416   43.7664    8.8817 C   0  0  0  0  0  0  0  0  0  0  0  0
   53.8294   45.9874    4.1129 C   0  0  0  0  0  0  0  0  0  0  0  0
   52.3855   44.1557    5.0296 C   0  0  0  0  0  0  0  0  0  0  0  0
   51.8064   46.5270    5.4902 C   0  0  0  0  0  0  0  0  0  0  0  0
   52.9820   45.5470    5.3177 C   0  0  0  0  0  0  0  0  0  0  0  0
   56.4132   42.7516    8.2015 C   0  0  0  0  0  0  0  0  0  0  0  0
   57.0766   41.7685    8.9343 C   0  0  0  0  0  0  0  0  0  0  0  0
   57.0532   41.7858   10.3367 C   0  0  0  0  0  0  0  0  0  0  0  0
   56.3622   42.8047   11.0055 C   0  0  0  0  0  0  0  0  0  0  0  0
   55.7195   43.8105   10.2826 C   0  0  0  0  0  0  0  0  0  0  0  0
   57.7571   40.7137   11.1098 C   0  0  0  0  0  0  0  0  0  0  0  0
   53.8477   51.8381   14.9141 O   0  0  0  0  0  0  0  0  0  0  0  0
   52.5117   51.5939   15.3660 C   0  0  0  0  0  0  0  0  0  0  0  0
   52.0791   52.7998   16.1875 C   0  0  0  0  0  0  0  0  0  0  0  0
   51.2477   53.7474   15.3564 N   0  3  0  0  0  0  0  0  0  0  0  0
   52.0414   54.3255   14.1852 C   0  0  0  0  0  0  0  0  0  0  0  0
   51.1383   55.2781   13.4119 C   0  0  0  0  0  0  0  0  0  0  0  0
   50.7422   56.3570   14.2654 O   0  0  0  0  0  0  0  0  0  0  0  0
   49.9613   55.8850   15.3710 C   0  0  0  0  0  0  0  0  0  0  0  0
   50.7458   54.8909   16.2273 C   0  0  0  0  0  0  0  0  0  0  0  0
   56.8645   47.9887   11.2011 H   0  0  0  0  0  0  0  0  0  0  0  0
   57.7634   50.0021   11.0268 H   0  0  0  0  0  0  0  0  0  0  0  0
   58.9622   52.0442   11.5971 H   0  0  0  0  0  0  0  0  0  0  0  0
   58.0541   53.6035   13.2911 H   0  0  0  0  0  0  0  0  0  0  0  0
   55.9250   53.1250   14.4080 H   0  0  0  0  0  0  0  0  0  0  0  0
   52.7403   49.4773   14.1500 H   0  0  0  0  0  0  0  0  0  0  0  0
   53.6254   47.9892   12.5124 H   0  0  0  0  0  0  0  0  0  0  0  0
   56.6189   46.4148    9.6300 H   0  0  0  0  0  0  0  0  0  0  0  0
   53.9768   47.6704    7.2185 H   0  0  0  0  0  0  0  0  0  0  0  0
   53.2317   46.0305    3.1955 H   0  0  0  0  0  0  0  0  0  0  0  0
   54.6598   45.2926    3.9418 H   0  0  0  0  0  0  0  0  0  0  0  0
   54.2607   46.9815    4.2780 H   0  0  0  0  0  0  0  0  0  0  0  0
   51.7614   43.8211    5.8670 H   0  0  0  0  0  0  0  0  0  0  0  0
   53.1711   43.4063    4.8792 H   0  0  0  0  0  0  0  0  0  0  0  0
   51.7620   44.1649    4.1283 H   0  0  0  0  0  0  0  0  0  0  0  0
   52.1585   47.5492    5.6658 H   0  0  0  0  0  0  0  0  0  0  0  0
   51.1834   46.2388    6.3453 H   0  0  0  0  0  0  0  0  0  0  0  0
   51.1688   46.5486    4.5996 H   0  0  0  0  0  0  0  0  0  0  0  0
   56.4448   42.7197    7.1184 H   0  0  0  0  0  0  0  0  0  0  0  0
   57.6148   40.9885    8.4022 H   0  0  0  0  0  0  0  0  0  0  0  0
   56.3105   42.7970   12.0912 H   0  0  0  0  0  0  0  0  0  0  0  0
   55.1455   44.5558   10.8257 H   0  0  0  0  0  0  0  0  0  0  0  0
   58.2487   40.0002   10.4389 H   0  0  0  0  0  0  0  0  0  0  0  0
   57.0421   40.1574   11.7255 H   0  0  0  0  0  0  0  0  0  0  0  0
   58.5243   41.1576   11.7501 H   0  0  0  0  0  0  0  0  0  0  0  0
   52.4882   50.7060   16.0042 H   0  0  0  0  0  0  0  0  0  0  0  0
   51.8398   51.4595   14.5078 H   0  0  0  0  0  0  0  0  0  0  0  0
   52.9374   53.3748   16.5496 H   0  0  0  0  0  0  0  0  0  0  0  0
   51.4444   52.4872   17.0202 H   0  0  0  0  0  0  0  0  0  0  0  0
   52.3763   53.5025   13.5504 H   0  0  0  0  0  0  0  0  0  0  0  0
   52.8943   54.8511   14.6267 H   0  0  0  0  0  0  0  0  0  0  0  0
   50.2444   54.7627   13.0401 H   0  0  0  0  0  0  0  0  0  0  0  0
   51.6810   55.6849   12.5545 H   0  0  0  0  0  0  0  0  0  0  0  0
   49.0451   55.4253   14.9848 H   0  0  0  0  0  0  0  0  0  0  0  0
   49.6848   56.7454   15.9852 H   0  0  0  0  0  0  0  0  0  0  0  0
   51.6388   55.3563   16.6586 H   0  0  0  0  0  0  0  0  0  0  0  0
   50.1236   54.4556   17.0142 H   0  0  0  0  0  0  0  0  0  0  0  0
   50.4252   53.2507   14.9851 H   0  0  0  0  0  0  0  0  0  0  0  0
  1  2  2  0  0  0  0
  1  3  1  0  0  0  0
  1 14  1  0  0  0  0
  3  4  1  0  0  0  0
  3 40  1  0  0  0  0
  4  5  2  0  0  0  0
  4 13  1  0  0  0  0
  5  6  1  0  0  0  0
  5  8  1  0  0  0  0
  6  7  2  0  0  0  0
  6 11  1  0  0  0  0
  7 12  1  0  0  0  0
  7 31  1  0  0  0  0
  8  9  2  0  0  0  0
  8 41  1  0  0  0  0
  9 10  1  0  0  0  0
  9 42  1  0  0  0  0
 10 11  2  0  0  0  0
 10 43  1  0  0  0  0
 11 44  1  0  0  0  0
 12 13  2  0  0  0  0
 12 45  1  0  0  0  0
 13 46  1  0  0  0  0
 14 15  1  0  0  0  0
 14 47  1  0  0  0  0
 15 16  1  0  0  0  0
 15 19  2  0  0  0  0
 16 17  2  0  0  0  0
 16 48  1  0  0  0  0
 17 18  1  0  0  0  0
 17 24  1  0  0  0  0
 18 19  1  0  0  0  0
 19 20  1  0  0  0  0
 20 25  2  0  0  0  0
 20 29  1  0  0  0  0
 21 24  1  0  0  0  0
 21 49  1  0  0  0  0
 21 50  1  0  0  0  0
 21 51  1  0  0  0  0
 22 24  1  0  0  0  0
 22 52  1  0  0  0  0
 22 53  1  0  0  0  0
 22 54  1  0  0  0  0
 23 24  1  0  0  0  0
 23 55  1  0  0  0  0
 23 56  1  0  0  0  0
 23 57  1  0  0  0  0
 25 26  1  0  0  0  0
 25 58  1  0  0  0  0
 26 27  2  0  0  0  0
 26 59  1  0  0  0  0
 27 28  1  0  0  0  0
 27 30  1  0  0  0  0
 28 29  2  0  0  0  0
 28 60  1  0  0  0  0
 29 61  1  0  0  0  0
 30 62  1  0  0  0  0
 30 63  1  0  0  0  0
 30 64  1  0  0  0  0
 31 32  1  0  0  0  0
 32 33  1  0  0  0  0
 32 65  1  0  0  0  0
 32 66  1  0  0  0  0
 33 34  1  0  0  0  0
 33 67  1  0  0  0  0
 33 68  1  0  0  0  0
 34 35  1  0  0  0  0
 34 39  1  0  0  0  0
 34 77  1  0  0  0  0
 35 36  1  0  0  0  0
 35 69  1  0  0  0  0
 35 70  1  0  0  0  0
 36 37  1  0  0  0  0
 36 71  1  0  0  0  0
 36 72  1  0  0  0  0
 37 38  1  0  0  0  0
 38 39  1  0  0  0  0
 38 73  1  0  0  0  0
 38 74  1  0  0  0  0
 39 75  1  0  0  0  0
 39 76  1  0  0  0  0
M  CHG  2  19   1  34   1
M  END
$$$$
