BAX
 OpenBabel04091912433D

 48 50  0  0  0  0  0  0  0  0999 V2000
  -16.3554   -7.3187   17.9847 C   0  0  0  0  0  0  0  0  0  0  0  0
  -17.1354   -7.0183   16.8653 C   0  0  0  0  0  0  0  0  0  0  0  0
  -16.6944   -7.3521   15.5914 C   0  0  0  0  0  0  0  0  0  0  0  0
  -15.4508   -7.9630   15.4417 C   0  0  0  0  0  0  0  0  0  0  0  0
  -18.6897   -5.4929   17.9570 C   0  0  0  0  0  0  0  0  0  0  0  0
  -20.5628   -4.1108   18.6888 C   0  0  0  0  0  0  0  0  0  0  0  0
  -19.8203   -3.0991   19.2913 C   0  0  0  0  0  0  0  0  0  0  0  0
  -20.4415   -2.1860   20.1434 C   0  0  0  0  0  0  0  0  0  0  0  0
  -21.8158   -2.2820   20.3501 C   0  0  0  0  0  0  0  0  0  0  0  0
  -22.5576   -3.2957   19.7470 C   0  0  0  0  0  0  0  0  0  0  0  0
  -21.9344   -4.2072   18.9022 C   0  0  0  0  0  0  0  0  0  0  0  0
  -22.5079   -1.4834   21.2316 O   0  0  0  0  0  0  0  0  0  0  0  0
  -22.1826    0.5686   19.9704 C   0  0  0  0  0  0  0  0  0  0  0  0
  -22.0709    1.9376   20.0390 C   0  0  0  0  0  0  0  0  0  0  0  0
  -22.2950    1.9327   22.3662 C   0  0  0  0  0  0  0  0  0  0  0  0
  -22.4239    0.5591   22.3856 C   0  0  0  0  0  0  0  0  0  0  0  0
  -22.3712    4.0863   23.5701 N   0  0  0  0  0  0  0  0  0  0  0  0
  -22.4199    4.8968   24.7663 C   0  0  0  0  0  0  0  0  0  0  0  0
  -14.6659   -8.2459   16.5633 C   0  0  0  0  0  0  0  0  0  0  0  0
  -15.1038   -7.9336   17.8461 C   0  0  0  0  0  0  0  0  0  0  0  0
  -14.2913   -8.2581   19.0678 C   0  0  0  0  0  0  0  0  0  0  0  0
  -14.9538   -7.8943   20.2069 F   0  0  0  0  0  0  0  0  0  0  0  0
  -14.0273   -9.5939   19.2140 F   0  0  0  0  0  0  0  0  0  0  0  0
  -13.0814   -7.6242   19.1577 F   0  0  0  0  0  0  0  0  0  0  0  0
  -13.1374   -9.0081   16.3466 Cl  0  0  0  0  0  0  0  0  0  0  0  0
  -18.3839   -6.4128   16.9821 N   0  0  0  0  0  0  0  0  0  0  0  0
  -19.9814   -5.0286   17.8290 N   0  0  0  0  0  0  0  0  0  0  0  0
  -17.9234   -5.1335   18.8154 O   0  0  0  0  0  0  0  0  0  0  0  0
  -22.3357   -0.1196   21.1698 C   0  0  0  0  0  0  0  0  0  0  0  0
  -22.1183    2.6448   21.2076 N   0  0  0  0  0  0  0  0  0  0  0  0
  -22.3499    2.7040   23.6731 C   0  0  0  0  0  0  0  0  0  0  0  0
  -22.3806    2.1424   24.7616 O   0  0  0  0  0  0  0  0  0  0  0  0
  -16.7350   -7.0985   18.9854 H   0  0  0  0  0  0  0  0  0  0  0  0
  -17.2969   -7.1087   14.7205 H   0  0  0  0  0  0  0  0  0  0  0  0
  -15.1075   -8.2207   14.4368 H   0  0  0  0  0  0  0  0  0  0  0  0
  -18.7572   -3.0054   19.0841 H   0  0  0  0  0  0  0  0  0  0  0  0
  -19.8498   -1.4328   20.6401 H   0  0  0  0  0  0  0  0  0  0  0  0
  -23.6231   -3.3726   19.9347 H   0  0  0  0  0  0  0  0  0  0  0  0
  -22.5166   -5.0042   18.4502 H   0  0  0  0  0  0  0  0  0  0  0  0
  -22.1507    0.0417   19.0258 H   0  0  0  0  0  0  0  0  0  0  0  0
  -21.9393    2.5228   19.1295 H   0  0  0  0  0  0  0  0  0  0  0  0
  -22.5800    0.0183   23.3132 H   0  0  0  0  0  0  0  0  0  0  0  0
  -22.3507    4.4944   22.6400 H   0  0  0  0  0  0  0  0  0  0  0  0
  -22.4312    5.9509   24.4912 H   0  0  0  0  0  0  0  0  0  0  0  0
  -21.5424    4.6832   25.3842 H   0  0  0  0  0  0  0  0  0  0  0  0
  -23.3225    4.6512   25.3342 H   0  0  0  0  0  0  0  0  0  0  0  0
  -19.0820   -6.6370   16.2962 H   0  0  0  0  0  0  0  0  0  0  0  0
  -20.5541   -5.4088   17.1042 H   0  0  0  0  0  0  0  0  0  0  0  0
  1  2  2  0  0  0  0
  1 20  1  0  0  0  0
  1 33  1  0  0  0  0
  2  3  1  0  0  0  0
  2 26  1  0  0  0  0
  3  4  2  0  0  0  0
  3 34  1  0  0  0  0
  4 19  1  0  0  0  0
  4 35  1  0  0  0  0
  5 26  1  0  0  0  0
  5 27  1  0  0  0  0
  5 28  2  0  0  0  0
  6  7  2  0  0  0  0
  6 11  1  0  0  0  0
  6 27  1  0  0  0  0
  7  8  1  0  0  0  0
  7 36  1  0  0  0  0
  8  9  2  0  0  0  0
  8 37  1  0  0  0  0
  9 10  1  0  0  0  0
  9 12  1  0  0  0  0
 10 11  2  0  0  0  0
 10 38  1  0  0  0  0
 11 39  1  0  0  0  0
 12 29  1  0  0  0  0
 13 14  2  0  0  0  0
 13 29  1  0  0  0  0
 13 40  1  0  0  0  0
 14 30  1  0  0  0  0
 14 41  1  0  0  0  0
 15 16  1  0  0  0  0
 15 30  2  0  0  0  0
 15 31  1  0  0  0  0
 16 29  2  0  0  0  0
 16 42  1  0  0  0  0
 17 18  1  0  0  0  0
 17 31  1  0  0  0  0
 17 43  1  0  0  0  0
 18 44  1  0  0  0  0
 18 45  1  0  0  0  0
 18 46  1  0  0  0  0
 19 20  2  0  0  0  0
 19 25  1  0  0  0  0
 20 21  1  0  0  0  0
 21 22  1  0  0  0  0
 21 23  1  0  0  0  0
 21 24  1  0  0  0  0
 26 47  1  0  0  0  0
 27 48  1  0  0  0  0
 31 32  2  0  0  0  0
M  END
$$$$
