BB2
 OpenBabel04091913443D

 62 62  0  0  1  0  0  0  0  0999 V2000
  -14.3870    6.5422  -30.8385 C   0  0  0  0  0  0  0  0  0  0  0  0
  -13.0308    5.9255  -30.5334 C   0  0  0  0  0  0  0  0  0  0  0  0
  -12.6751    4.9828  -31.2194 O   0  0  0  0  0  0  0  0  0  0  0  0
  -12.2131    6.4059  -29.5459 N   0  0  0  0  0  0  0  0  0  0  0  0
  -11.0687    5.6077  -29.2674 O   0  0  0  0  0  0  0  0  0  0  0  0
  -15.5035    5.7979  -30.0822 C   0  0  2  0  0  0  0  0  0  0  0  0
  -16.8157    6.3168  -30.6252 C   0  0  0  0  0  0  0  0  0  0  0  0
  -17.0450    7.5264  -30.6970 O   0  0  0  0  0  0  0  0  0  0  0  0
  -15.4276    6.1325  -28.5857 C   0  0  0  0  0  0  0  0  0  0  0  0
  -16.4369    5.3057  -27.8163 C   0  0  0  0  0  0  0  0  0  0  0  0
  -16.4445    5.5738  -26.3188 C   0  0  0  0  0  0  0  0  0  0  0  0
  -17.3493    4.5339  -25.6560 C   0  0  0  0  0  0  0  0  0  0  0  0
  -18.8052    4.9632  -25.7092 C   0  0  0  0  0  0  0  0  0  0  0  0
  -17.7764    5.3724  -30.8562 N   0  0  0  0  0  0  0  0  0  0  0  0
  -19.1894    5.7660  -30.7697 C   0  0  1  0  0  0  0  0  0  0  0  0
  -19.8948    5.6122  -32.1232 C   0  0  0  0  0  0  0  0  0  0  0  0
  -19.6109    6.8029  -33.0369 C   0  0  0  0  0  0  0  0  0  0  0  0
  -19.5236    4.3094  -32.8325 C   0  0  0  0  0  0  0  0  0  0  0  0
  -20.0248    5.0812  -29.6412 C   0  0  0  0  0  0  0  0  0  0  0  0
  -19.6411    4.0450  -29.1018 O   0  0  0  0  0  0  0  0  0  0  0  0
  -21.2520    5.7156  -29.3399 N   0  0  0  0  0  0  0  0  0  0  0  0
  -22.1987    5.1663  -28.3583 C   0  0  1  0  0  0  0  0  0  0  0  0
  -21.7822    6.9848  -29.8593 C   0  0  0  0  0  0  0  0  0  0  0  0
  -22.7100    7.4875  -28.7592 C   0  0  0  0  0  0  0  0  0  0  0  0
  -23.3583    6.1930  -28.3026 C   0  0  0  0  0  0  0  0  0  0  0  0
  -22.7406    3.7928  -28.7604 C   0  0  0  0  0  0  0  0  0  0  0  0
  -23.6768    3.3068  -27.8052 O   0  0  0  0  0  0  0  0  0  0  0  0
  -14.5567    6.3609  -31.9028 H   0  0  0  0  0  0  0  0  0  0  0  0
  -14.4601    7.6230  -30.7288 H   0  0  0  0  0  0  0  0  0  0  0  0
  -12.4084    7.1291  -28.8383 H   0  0  0  0  0  0  0  0  0  0  0  0
  -10.6370    5.5422  -30.1369 H   0  0  0  0  0  0  0  0  0  0  0  0
  -15.4268    4.7190  -30.2368 H   0  0  0  0  0  0  0  0  0  0  0  0
  -15.6074    7.2019  -28.4247 H   0  0  0  0  0  0  0  0  0  0  0  0
  -14.4273    5.9110  -28.1982 H   0  0  0  0  0  0  0  0  0  0  0  0
  -16.2199    4.2450  -27.9890 H   0  0  0  0  0  0  0  0  0  0  0  0
  -17.4399    5.5045  -28.1982 H   0  0  0  0  0  0  0  0  0  0  0  0
  -16.8055    6.5903  -26.1147 H   0  0  0  0  0  0  0  0  0  0  0  0
  -15.4296    5.4986  -25.9138 H   0  0  0  0  0  0  0  0  0  0  0  0
  -17.0478    4.3858  -24.6153 H   0  0  0  0  0  0  0  0  0  0  0  0
  -17.2434    3.5646  -26.1607 H   0  0  0  0  0  0  0  0  0  0  0  0
  -19.4441    4.2007  -25.2571 H   0  0  0  0  0  0  0  0  0  0  0  0
  -19.1375    5.1157  -26.7389 H   0  0  0  0  0  0  0  0  0  0  0  0
  -18.9451    5.9036  -25.1684 H   0  0  0  0  0  0  0  0  0  0  0  0
  -17.5250    4.4390  -31.1603 H   0  0  0  0  0  0  0  0  0  0  0  0
  -19.1774    6.8057  -30.4459 H   0  0  0  0  0  0  0  0  0  0  0  0
  -20.9759    5.5829  -31.9557 H   0  0  0  0  0  0  0  0  0  0  0  0
  -20.1406    6.6802  -33.9864 H   0  0  0  0  0  0  0  0  0  0  0  0
  -18.5425    6.8951  -33.2531 H   0  0  0  0  0  0  0  0  0  0  0  0
  -19.9508    7.7408  -32.5837 H   0  0  0  0  0  0  0  0  0  0  0  0
  -19.6990    3.4444  -32.1845 H   0  0  0  0  0  0  0  0  0  0  0  0
  -18.4704    4.3038  -33.1346 H   0  0  0  0  0  0  0  0  0  0  0  0
  -20.1191    4.1855  -33.7400 H   0  0  0  0  0  0  0  0  0  0  0  0
  -21.7116    5.1253  -27.3783 H   0  0  0  0  0  0  0  0  0  0  0  0
  -22.3887    6.7685  -30.7502 H   0  0  0  0  0  0  0  0  0  0  0  0
  -21.0172    7.7168  -30.1244 H   0  0  0  0  0  0  0  0  0  0  0  0
  -23.4408    8.2298  -29.1014 H   0  0  0  0  0  0  0  0  0  0  0  0
  -22.1319    7.9330  -27.9427 H   0  0  0  0  0  0  0  0  0  0  0  0
  -23.8087    6.2729  -27.3074 H   0  0  0  0  0  0  0  0  0  0  0  0
  -24.1629    5.9275  -29.0027 H   0  0  0  0  0  0  0  0  0  0  0  0
  -21.9331    3.0661  -28.8653 H   0  0  0  0  0  0  0  0  0  0  0  0
  -23.2515    3.8597  -29.7275 H   0  0  0  0  0  0  0  0  0  0  0  0
  -23.2021    3.2066  -26.9617 H   0  0  0  0  0  0  0  0  0  0  0  0
  1  2  1  0  0  0  0
  1  6  1  0  0  0  0
  1 28  1  0  0  0  0
  1 29  1  0  0  0  0
  2  3  2  0  0  0  0
  2  4  1  0  0  0  0
  4  5  1  0  0  0  0
  4 30  1  0  0  0  0
  5 31  1  0  0  0  0
  6  7  1  0  0  0  0
  6  9  1  0  0  0  0
  6 32  1  6  0  0  0
  7  8  2  0  0  0  0
  7 14  1  0  0  0  0
  9 10  1  0  0  0  0
  9 33  1  0  0  0  0
  9 34  1  0  0  0  0
 10 11  1  0  0  0  0
 10 35  1  0  0  0  0
 10 36  1  0  0  0  0
 11 12  1  0  0  0  0
 11 37  1  0  0  0  0
 11 38  1  0  0  0  0
 12 13  1  0  0  0  0
 12 39  1  0  0  0  0
 12 40  1  0  0  0  0
 13 41  1  0  0  0  0
 13 42  1  0  0  0  0
 13 43  1  0  0  0  0
 14 15  1  0  0  0  0
 14 44  1  0  0  0  0
 15 16  1  0  0  0  0
 15 19  1  0  0  0  0
 15 45  1  1  0  0  0
 16 17  1  0  0  0  0
 16 18  1  0  0  0  0
 16 46  1  0  0  0  0
 17 47  1  0  0  0  0
 17 48  1  0  0  0  0
 17 49  1  0  0  0  0
 18 50  1  0  0  0  0
 18 51  1  0  0  0  0
 18 52  1  0  0  0  0
 19 20  2  0  0  0  0
 19 21  1  0  0  0  0
 21 22  1  0  0  0  0
 21 23  1  0  0  0  0
 22 25  1  0  0  0  0
 22 26  1  0  0  0  0
 22 53  1  1  0  0  0
 23 24  1  0  0  0  0
 23 54  1  0  0  0  0
 23 55  1  0  0  0  0
 24 25  1  0  0  0  0
 24 56  1  0  0  0  0
 24 57  1  0  0  0  0
 25 58  1  0  0  0  0
 25 59  1  0  0  0  0
 26 27  1  0  0  0  0
 26 60  1  0  0  0  0
 26 61  1  0  0  0  0
 27 62  1  0  0  0  0
M  END
$$$$
