BB2
 OpenBabel04091914413D

 62 62  0  0  1  0  0  0  0  0999 V2000
    2.3660   16.7907   64.8135 C   0  0  0  0  0  0  0  0  0  0  0  0
    2.0935   16.6347   63.3384 C   0  0  0  0  0  0  0  0  0  0  0  0
    2.8373   17.0936   62.4769 O   0  0  0  0  0  0  0  0  0  0  0  0
    0.9257   15.9671   63.0697 N   0  0  0  0  0  0  0  0  0  0  0  0
    0.5057   15.8906   61.7291 O   0  0  0  0  0  0  0  0  0  0  0  0
    1.9554   18.1878   65.2714 C   0  0  2  0  0  0  0  0  0  0  0  0
    2.7064   18.5063   66.5458 C   0  0  0  0  0  0  0  0  0  0  0  0
    2.7527   17.7182   67.4959 O   0  0  0  0  0  0  0  0  0  0  0  0
    0.4385   18.3131   65.5378 C   0  0  0  0  0  0  0  0  0  0  0  0
    0.0156   19.7764   65.7087 C   0  0  0  0  0  0  0  0  0  0  0  0
   -1.4648   19.9259   66.0615 C   0  0  0  0  0  0  0  0  0  0  0  0
   -1.9236   21.3817   65.9324 C   0  0  0  0  0  0  0  0  0  0  0  0
   -1.5345   22.2136   67.1445 C   0  0  0  0  0  0  0  0  0  0  0  0
    3.2711   19.7517   66.5660 N   0  0  0  0  0  0  0  0  0  0  0  0
    3.8315   20.3235   67.7850 C   0  0  1  0  0  0  0  0  0  0  0  0
    5.3633   20.4992   67.6817 C   0  0  0  0  0  0  0  0  0  0  0  0
    6.0579   19.1491   67.4367 C   0  0  0  0  0  0  0  0  0  0  0  0
    5.7849   21.4778   66.5859 C   0  0  0  0  0  0  0  0  0  0  0  0
    3.0513   21.6411   68.0720 C   0  0  0  0  0  0  0  0  0  0  0  0
    2.6694   22.3658   67.1509 O   0  0  0  0  0  0  0  0  0  0  0  0
    2.8021   21.9696   69.3908 N   0  0  0  0  0  0  0  0  0  0  0  0
    2.0268   23.1497   69.7751 C   0  0  1  0  0  0  0  0  0  0  0  0
    3.1513   21.1588   70.5443 C   0  0  0  0  0  0  0  0  0  0  0  0
    2.5505   21.8467   71.7536 C   0  0  0  0  0  0  0  0  0  0  0  0
    1.5536   22.8589   71.2006 C   0  0  0  0  0  0  0  0  0  0  0  0
    2.8518   24.4456   69.7057 C   0  0  0  0  0  0  0  0  0  0  0  0
    2.0447   25.5841   70.0011 O   0  0  0  0  0  0  0  0  0  0  0  0
    3.4424   16.6280   64.9604 H   0  0  0  0  0  0  0  0  0  0  0  0
    1.8548   16.0103   65.3891 H   0  0  0  0  0  0  0  0  0  0  0  0
    0.2595   15.6761   63.7755 H   0  0  0  0  0  0  0  0  0  0  0  0
    1.3187   15.5985   61.2709 H   0  0  0  0  0  0  0  0  0  0  0  0
    2.2383   18.9168   64.4986 H   0  0  0  0  0  0  0  0  0  0  0  0
    0.1589   17.7381   66.4295 H   0  0  0  0  0  0  0  0  0  0  0  0
   -0.1247   17.8915   64.6975 H   0  0  0  0  0  0  0  0  0  0  0  0
    0.2285   20.3091   64.7738 H   0  0  0  0  0  0  0  0  0  0  0  0
    0.6091   20.2522   66.4944 H   0  0  0  0  0  0  0  0  0  0  0  0
   -1.6393   19.5657   67.0833 H   0  0  0  0  0  0  0  0  0  0  0  0
   -2.0702   19.3014   65.3949 H   0  0  0  0  0  0  0  0  0  0  0  0
   -3.0136   21.4083   65.8222 H   0  0  0  0  0  0  0  0  0  0  0  0
   -1.5045   21.8348   65.0256 H   0  0  0  0  0  0  0  0  0  0  0  0
   -1.8682   23.2483   67.0201 H   0  0  0  0  0  0  0  0  0  0  0  0
   -0.4510   22.2221   67.2923 H   0  0  0  0  0  0  0  0  0  0  0  0
   -2.0020   21.8142   68.0503 H   0  0  0  0  0  0  0  0  0  0  0  0
    3.0933   20.4050   65.8045 H   0  0  0  0  0  0  0  0  0  0  0  0
    3.6332   19.6180   68.5918 H   0  0  0  0  0  0  0  0  0  0  0  0
    5.7280   20.8944   68.6365 H   0  0  0  0  0  0  0  0  0  0  0  0
    7.1445   19.2737   67.3816 H   0  0  0  0  0  0  0  0  0  0  0  0
    5.7369   18.6936   66.4929 H   0  0  0  0  0  0  0  0  0  0  0  0
    5.8413   18.4421   68.2436 H   0  0  0  0  0  0  0  0  0  0  0  0
    5.3356   22.4635   66.7359 H   0  0  0  0  0  0  0  0  0  0  0  0
    5.5020   21.1154   65.5916 H   0  0  0  0  0  0  0  0  0  0  0  0
    6.8727   21.6107   66.5926 H   0  0  0  0  0  0  0  0  0  0  0  0
    1.1570   23.2514   69.1133 H   0  0  0  0  0  0  0  0  0  0  0  0
    4.2409   21.0976   70.6132 H   0  0  0  0  0  0  0  0  0  0  0  0
    2.7433   20.1489   70.4207 H   0  0  0  0  0  0  0  0  0  0  0  0
    3.3322   22.3514   72.3308 H   0  0  0  0  0  0  0  0  0  0  0  0
    2.0634   21.1264   72.4196 H   0  0  0  0  0  0  0  0  0  0  0  0
    0.5507   22.4157   71.1815 H   0  0  0  0  0  0  0  0  0  0  0  0
    1.5010   23.7510   71.8336 H   0  0  0  0  0  0  0  0  0  0  0  0
    3.2981   24.5874   68.7166 H   0  0  0  0  0  0  0  0  0  0  0  0
    3.6681   24.4187   70.4354 H   0  0  0  0  0  0  0  0  0  0  0  0
    1.3762   25.6567   69.2970 H   0  0  0  0  0  0  0  0  0  0  0  0
  1  2  1  0  0  0  0
  1  6  1  0  0  0  0
  1 28  1  0  0  0  0
  1 29  1  0  0  0  0
  2  3  2  0  0  0  0
  2  4  1  0  0  0  0
  4  5  1  0  0  0  0
  4 30  1  0  0  0  0
  5 31  1  0  0  0  0
  6  7  1  0  0  0  0
  6  9  1  0  0  0  0
  6 32  1  6  0  0  0
  7  8  2  0  0  0  0
  7 14  1  0  0  0  0
  9 10  1  0  0  0  0
  9 33  1  0  0  0  0
  9 34  1  0  0  0  0
 10 11  1  0  0  0  0
 10 35  1  0  0  0  0
 10 36  1  0  0  0  0
 11 12  1  0  0  0  0
 11 37  1  0  0  0  0
 11 38  1  0  0  0  0
 12 13  1  0  0  0  0
 12 39  1  0  0  0  0
 12 40  1  0  0  0  0
 13 41  1  0  0  0  0
 13 42  1  0  0  0  0
 13 43  1  0  0  0  0
 14 15  1  0  0  0  0
 14 44  1  0  0  0  0
 15 16  1  0  0  0  0
 15 19  1  0  0  0  0
 15 45  1  1  0  0  0
 16 17  1  0  0  0  0
 16 18  1  0  0  0  0
 16 46  1  0  0  0  0
 17 47  1  0  0  0  0
 17 48  1  0  0  0  0
 17 49  1  0  0  0  0
 18 50  1  0  0  0  0
 18 51  1  0  0  0  0
 18 52  1  0  0  0  0
 19 20  2  0  0  0  0
 19 21  1  0  0  0  0
 21 22  1  0  0  0  0
 21 23  1  0  0  0  0
 22 25  1  0  0  0  0
 22 26  1  0  0  0  0
 22 53  1  6  0  0  0
 23 24  1  0  0  0  0
 23 54  1  0  0  0  0
 23 55  1  0  0  0  0
 24 25  1  0  0  0  0
 24 56  1  0  0  0  0
 24 57  1  0  0  0  0
 25 58  1  0  0  0  0
 25 59  1  0  0  0  0
 26 27  1  0  0  0  0
 26 60  1  0  0  0  0
 26 61  1  0  0  0  0
 27 62  1  0  0  0  0
M  END
$$$$
