BBY
 OpenBabel04091910533D

 27 29  0  0  0  0  0  0  0  0999 V2000
   14.9073  -10.0678   -5.7653 C   0  0  0  0  0  0  0  0  0  0  0  0
   14.3903   -9.1754   -6.7268 C   0  0  0  0  0  0  0  0  0  0  0  0
   13.0370   -8.7990   -6.6310 C   0  0  0  0  0  0  0  0  0  0  0  0
   12.2242   -9.2554   -5.5897 C   0  0  0  0  0  0  0  0  0  0  0  0
   12.7634  -10.1205   -4.6615 C   0  0  0  0  0  0  0  0  0  0  0  0
   14.0716  -10.5202   -4.7558 C   0  0  0  0  0  0  0  0  0  0  0  0
   14.4220  -11.3842   -3.7602 O   0  0  0  0  0  0  0  0  0  0  0  0
   13.1449  -11.5882   -3.1175 C   0  0  0  0  0  0  0  0  0  0  0  0
   12.1316  -10.6796   -3.5906 O   0  0  0  0  0  0  0  0  0  0  0  0
   15.2348   -8.7025   -7.8358 C   0  0  0  0  0  0  0  0  0  0  0  0
   15.1283   -7.5250   -8.5628 N   0  3  0  0  0  0  0  0  0  0  0  0
   16.0800   -7.4039   -9.5174 N   0  0  0  0  0  0  0  0  0  0  0  0
   16.7996   -8.5033   -9.4014 C   0  0  0  0  0  0  0  0  0  0  0  0
   16.3238   -9.3480   -8.3909 C   0  0  0  0  0  0  0  0  0  0  0  0
   10.4346   -8.6689   -5.5221 Br  0  0  0  0  0  0  0  0  0  0  0  0
   14.1924   -6.4292   -8.4358 C   0  0  0  0  0  0  0  0  0  0  0  0
   17.8627   -8.7950  -10.1638 N   0  0  0  0  0  0  0  0  0  0  0  0
   15.9365  -10.4085   -5.8031 H   0  0  0  0  0  0  0  0  0  0  0  0
   12.5861   -8.1721   -7.3860 H   0  0  0  0  0  0  0  0  0  0  0  0
   13.2551  -11.4761   -2.0316 H   0  0  0  0  0  0  0  0  0  0  0  0
   12.8121  -12.6151   -3.3166 H   0  0  0  0  0  0  0  0  0  0  0  0
   16.7230  -10.3108   -8.1085 H   0  0  0  0  0  0  0  0  0  0  0  0
   14.4467   -5.6410   -9.1518 H   0  0  0  0  0  0  0  0  0  0  0  0
   14.2385   -6.0307   -7.4177 H   0  0  0  0  0  0  0  0  0  0  0  0
   13.1919   -6.7765   -8.6878 H   0  0  0  0  0  0  0  0  0  0  0  0
   18.4094   -9.6405  -10.0779 H   0  0  0  0  0  0  0  0  0  0  0  0
   18.1556   -8.1363  -10.8717 H   0  0  0  0  0  0  0  0  0  0  0  0
  1  2  2  0  0  0  0
  1  6  1  0  0  0  0
  1 18  1  0  0  0  0
  2  3  1  0  0  0  0
  2 10  1  0  0  0  0
  3  4  2  0  0  0  0
  3 19  1  0  0  0  0
  4  5  1  0  0  0  0
  4 15  1  0  0  0  0
  5  6  2  0  0  0  0
  5  9  1  0  0  0  0
  6  7  1  0  0  0  0
  7  8  1  0  0  0  0
  8  9  1  0  0  0  0
  8 20  1  0  0  0  0
  8 21  1  0  0  0  0
 10 11  2  0  0  0  0
 10 14  1  0  0  0  0
 11 12  1  0  0  0  0
 11 16  1  0  0  0  0
 12 13  1  0  0  0  0
 13 14  2  0  0  0  0
 13 17  1  0  0  0  0
 14 22  1  0  0  0  0
 16 23  1  0  0  0  0
 16 24  1  0  0  0  0
 16 25  1  0  0  0  0
 17 26  1  0  0  0  0
 17 27  1  0  0  0  0
M  CHG  1  11   1
M  END
$$$$
