BCZ
 OpenBabel04091913213D

 51 51  0  0  1  0  0  0  0  0999 V2000
  -13.9958  -27.0338   11.8982 C   0  0  1  0  0  0  0  0  0  0  0  0
  -13.3029  -26.4195   13.0619 N   0  0  0  0  0  0  0  0  0  0  0  0
  -12.0201  -26.0144   13.0507 C   0  0  0  0  0  0  0  0  0  0  0  0
  -11.3110  -25.9034   11.9323 N   0  0  0  0  0  0  0  0  0  0  0  0
  -11.3801  -25.7343   14.2041 N   0  0  0  0  0  0  0  0  0  0  0  0
  -14.9269  -28.2029   12.2490 C   0  0  2  0  0  0  0  0  0  0  0  0
  -14.1846  -29.5278   12.5372 C   0  0  2  0  0  0  0  0  0  0  0  0
  -15.1322  -30.7220   12.8236 C   0  0  0  0  0  0  0  0  0  0  0  0
  -15.9145  -30.5564   14.1426 C   0  0  0  0  0  0  0  0  0  0  0  0
  -17.3230  -31.1049   14.0051 C   0  0  0  0  0  0  0  0  0  0  0  0
  -14.3526  -32.0567   12.8190 C   0  0  0  0  0  0  0  0  0  0  0  0
  -13.8893  -32.4448   11.4210 C   0  0  0  0  0  0  0  0  0  0  0  0
  -13.2069  -29.3728   13.6030 N   0  0  0  0  0  0  0  0  0  0  0  0
  -11.8535  -29.3997   13.3508 C   0  0  0  0  0  0  0  0  0  0  0  0
  -11.0439  -29.1499   14.5822 C   0  0  0  0  0  0  0  0  0  0  0  0
  -11.3471  -29.4991   12.2397 O   0  0  0  0  0  0  0  0  0  0  0  0
  -15.8133  -28.3211   10.9873 C   0  0  2  0  0  0  0  0  0  0  0  0
  -15.2326  -29.2313   10.0409 O   0  0  0  0  0  0  0  0  0  0  0  0
  -15.8743  -26.9312   10.3736 C   0  0  1  0  0  0  0  0  0  0  0  0
  -17.2838  -26.3427   10.3920 C   0  0  0  0  0  0  0  0  0  0  0  0
  -17.3136  -25.0901   10.1811 O   0  0  0  0  0  0  0  0  0  0  0  0
  -18.2291  -27.1277   10.6388 O   0  0  0  0  0  0  0  0  0  0  0  0
  -14.9420  -26.0517   11.2216 C   0  0  0  0  0  0  0  0  0  0  0  0
  -13.2424  -27.3935   11.1865 H   0  0  0  0  0  0  0  0  0  0  0  0
  -13.8224  -26.3407   13.9210 H   0  0  0  0  0  0  0  0  0  0  0  0
  -10.3377  -25.6284   11.9274 H   0  0  0  0  0  0  0  0  0  0  0  0
  -11.8337  -25.8309   15.1097 H   0  0  0  0  0  0  0  0  0  0  0  0
  -10.4084  -25.4822   14.2043 H   0  0  0  0  0  0  0  0  0  0  0  0
  -15.5449  -27.9044   13.1054 H   0  0  0  0  0  0  0  0  0  0  0  0
  -13.6155  -29.7608   11.6333 H   0  0  0  0  0  0  0  0  0  0  0  0
  -15.8618  -30.7866   12.0045 H   0  0  0  0  0  0  0  0  0  0  0  0
  -15.9939  -29.5032   14.4354 H   0  0  0  0  0  0  0  0  0  0  0  0
  -15.3983  -31.0642   14.9615 H   0  0  0  0  0  0  0  0  0  0  0  0
  -17.8779  -30.9766   14.9419 H   0  0  0  0  0  0  0  0  0  0  0  0
  -17.3098  -32.1717   13.7546 H   0  0  0  0  0  0  0  0  0  0  0  0
  -17.8685  -30.5744   13.2155 H   0  0  0  0  0  0  0  0  0  0  0  0
  -14.9831  -32.8627   13.2109 H   0  0  0  0  0  0  0  0  0  0  0  0
  -13.4832  -31.9917   13.4840 H   0  0  0  0  0  0  0  0  0  0  0  0
  -13.3381  -33.3868   11.4523 H   0  0  0  0  0  0  0  0  0  0  0  0
  -13.2249  -31.6939   10.9824 H   0  0  0  0  0  0  0  0  0  0  0  0
  -14.7487  -32.5671   10.7524 H   0  0  0  0  0  0  0  0  0  0  0  0
  -13.5354  -29.4412   14.5584 H   0  0  0  0  0  0  0  0  0  0  0  0
   -9.9846  -29.1038   14.3198 H   0  0  0  0  0  0  0  0  0  0  0  0
  -11.2148  -29.9361   15.3188 H   0  0  0  0  0  0  0  0  0  0  0  0
  -11.3443  -28.1876   15.0017 H   0  0  0  0  0  0  0  0  0  0  0  0
  -16.7783  -28.7501   11.2665 H   0  0  0  0  0  0  0  0  0  0  0  0
  -14.3974  -28.8650    9.7115 H   0  0  0  0  0  0  0  0  0  0  0  0
  -15.5270  -26.9384    9.3290 H   0  0  0  0  0  0  0  0  0  0  0  0
  -14.3904  -25.3277   10.6123 H   0  0  0  0  0  0  0  0  0  0  0  0
  -15.5021  -25.4814   11.9720 H   0  0  0  0  0  0  0  0  0  0  0  0
  -11.7384  -26.0646   11.0328 H   0  0  0  0  0  0  0  0  0  0  0  0
  1  2  1  0  0  0  0
  1  6  1  0  0  0  0
  1 23  1  0  0  0  0
  1 24  1  6  0  0  0
  2  3  1  0  0  0  0
  2 25  1  0  0  0  0
  3  4  2  0  0  0  0
  3  5  1  0  0  0  0
  4 26  1  0  0  0  0
  4 51  1  0  0  0  0
  5 27  1  0  0  0  0
  5 28  1  0  0  0  0
  6  7  1  0  0  0  0
  6 17  1  0  0  0  0
  6 29  1  1  0  0  0
  7  8  1  0  0  0  0
  7 13  1  0  0  0  0
  7 30  1  6  0  0  0
  8  9  1  0  0  0  0
  8 11  1  0  0  0  0
  8 31  1  0  0  0  0
  9 10  1  0  0  0  0
  9 32  1  0  0  0  0
  9 33  1  0  0  0  0
 10 34  1  0  0  0  0
 10 35  1  0  0  0  0
 10 36  1  0  0  0  0
 11 12  1  0  0  0  0
 11 37  1  0  0  0  0
 11 38  1  0  0  0  0
 12 39  1  0  0  0  0
 12 40  1  0  0  0  0
 12 41  1  0  0  0  0
 13 14  1  0  0  0  0
 13 42  1  0  0  0  0
 14 15  1  0  0  0  0
 14 16  2  0  0  0  0
 15 43  1  0  0  0  0
 15 44  1  0  0  0  0
 15 45  1  0  0  0  0
 17 18  1  0  0  0  0
 17 19  1  0  0  0  0
 17 46  1  1  0  0  0
 18 47  1  0  0  0  0
 19 20  1  0  0  0  0
 19 23  1  0  0  0  0
 19 48  1  6  0  0  0
 20 21  2  0  0  0  0
 20 22  1  0  0  0  0
 23 49  1  0  0  0  0
 23 50  1  0  0  0  0
M  END
$$$$
