BDJ
 OpenBabel04091913333D

 32 33  0  0  0  0  0  0  0  0999 V2000
   21.8885   10.2284   24.5883 C   0  0  0  0  0  0  0  0  0  0  0  0
   21.8060   10.8258   25.8127 N   0  0  0  0  0  0  0  0  0  0  0  0
   19.4126   12.3969   23.7589 O   0  0  0  0  0  0  0  0  0  0  0  0
   20.2718   11.7560   24.2926 C   0  0  0  0  0  0  0  0  0  0  0  0
   21.0475   10.7242   23.6945 N   0  0  0  0  0  0  0  0  0  0  0  0
   20.7570   11.8661   25.7429 C   0  0  0  0  0  0  0  0  0  0  0  0
   22.7281    9.2541   24.3221 N   0  0  0  0  0  0  0  0  0  0  0  0
   19.5743   11.4945   26.6051 C   0  0  0  0  0  0  0  0  0  0  0  0
   21.3350   13.2489   25.9398 C   0  0  0  0  0  0  0  0  0  0  0  0
   20.8830   10.3131   22.3088 C   0  0  0  0  0  0  0  0  0  0  0  0
   21.8574   11.0709   21.4323 C   0  0  0  0  0  0  0  0  0  0  0  0
   21.6058   12.4180   21.0982 C   0  0  0  0  0  0  0  0  0  0  0  0
   22.5018   13.1305   20.2830 C   0  0  0  0  0  0  0  0  0  0  0  0
   23.6606   12.5030   19.7958 C   0  0  0  0  0  0  0  0  0  0  0  0
   23.9169   11.1661   20.1221 C   0  0  0  0  0  0  0  0  0  0  0  0
   23.0256   10.4485   20.9383 C   0  0  0  0  0  0  0  0  0  0  0  0
   25.3484   10.3998   19.5187 Cl  0  0  0  0  0  0  0  0  0  0  0  0
   22.3685   10.5971   26.6285 H   0  0  0  0  0  0  0  0  0  0  0  0
   22.7427    8.8549   23.3943 H   0  0  0  0  0  0  0  0  0  0  0  0
   18.7956   12.2595   26.5174 H   0  0  0  0  0  0  0  0  0  0  0  0
   19.8748   11.3995   27.6494 H   0  0  0  0  0  0  0  0  0  0  0  0
   19.1403   10.5321   26.2811 H   0  0  0  0  0  0  0  0  0  0  0  0
   20.5449   14.0053   25.8582 H   0  0  0  0  0  0  0  0  0  0  0  0
   22.0953   13.4747   25.1725 H   0  0  0  0  0  0  0  0  0  0  0  0
   21.8098   13.3362   26.9220 H   0  0  0  0  0  0  0  0  0  0  0  0
   19.8525   10.4788   21.9749 H   0  0  0  0  0  0  0  0  0  0  0  0
   21.0817    9.2333   22.2496 H   0  0  0  0  0  0  0  0  0  0  0  0
   20.7029   12.9169   21.4691 H   0  0  0  0  0  0  0  0  0  0  0  0
   22.2989   14.1746   20.0241 H   0  0  0  0  0  0  0  0  0  0  0  0
   24.3563   13.0597   19.1626 H   0  0  0  0  0  0  0  0  0  0  0  0
   23.2369    9.4042   21.1803 H   0  0  0  0  0  0  0  0  0  0  0  0
   23.3661    8.9056   25.0142 H   0  0  0  0  0  0  0  0  0  0  0  0
  1  2  1  0  0  0  0
  1  5  1  0  0  0  0
  1  7  2  0  0  0  0
  2  6  1  0  0  0  0
  2 18  1  0  0  0  0
  3  4  2  0  0  0  0
  4  5  1  0  0  0  0
  4  6  1  0  0  0  0
  5 10  1  0  0  0  0
  6  8  1  0  0  0  0
  6  9  1  0  0  0  0
  7 19  1  0  0  0  0
  7 32  1  0  0  0  0
  8 20  1  0  0  0  0
  8 21  1  0  0  0  0
  8 22  1  0  0  0  0
  9 23  1  0  0  0  0
  9 24  1  0  0  0  0
  9 25  1  0  0  0  0
 10 11  1  0  0  0  0
 10 26  1  0  0  0  0
 10 27  1  0  0  0  0
 11 12  2  0  0  0  0
 11 16  1  0  0  0  0
 12 13  1  0  0  0  0
 12 28  1  0  0  0  0
 13 14  2  0  0  0  0
 13 29  1  0  0  0  0
 14 15  1  0  0  0  0
 14 30  1  0  0  0  0
 15 16  2  0  0  0  0
 15 17  1  0  0  0  0
 16 31  1  0  0  0  0
M  END
$$$$
