BDL
 OpenBabel04091911413D

 44 45  0  0  1  0  0  0  0  0999 V2000
   -2.0794   -1.5570   -5.8535 O   0  0  0  0  0  0  0  0  0  0  0  0
   -1.9377   -1.9885   -4.6712 C   0  0  0  0  0  0  0  0  0  0  0  0
   -2.8093   -2.1321   -3.7629 O   0  0  0  0  0  0  0  0  0  0  0  0
   -0.4887   -2.4113   -4.2945 C   0  0  1  0  0  0  0  0  0  0  0  0
   -0.0463   -1.5945   -3.0486 C   0  0  0  0  0  0  0  0  0  0  0  0
    1.3586   -2.0320   -2.5515 C   0  0  0  0  0  0  0  0  0  0  0  0
    2.3796   -0.9021   -2.6309 C   0  0  0  0  0  0  0  0  0  0  0  0
    1.2967   -2.5968   -1.1285 C   0  0  0  0  0  0  0  0  0  0  0  0
   -0.3825   -3.8313   -3.8944 N   0  0  0  0  0  0  0  0  0  0  0  0
   -0.4583   -5.1826   -4.8119 S   0  0  0  0  0  0  0  0  0  0  0  0
    0.5993   -5.1267   -5.8105 O   0  0  0  0  0  0  0  0  0  0  0  0
   -0.4512   -6.2614   -3.8429 O   0  0  0  0  0  0  0  0  0  0  0  0
   -2.0116   -5.2678   -5.6292 C   0  0  0  0  0  0  0  0  0  0  0  0
   -2.0551   -5.3220   -7.0210 C   0  0  0  0  0  0  0  0  0  0  0  0
   -3.2486   -5.6600   -7.6711 C   0  0  0  0  0  0  0  0  0  0  0  0
   -3.1580   -5.5351   -4.8912 C   0  0  0  0  0  0  0  0  0  0  0  0
   -4.3462   -5.8632   -5.5526 C   0  0  0  0  0  0  0  0  0  0  0  0
   -4.4315   -5.9545   -6.9620 C   0  0  0  0  0  0  0  0  0  0  0  0
   -5.7061   -6.3739   -7.6531 C   0  0  0  0  0  0  0  0  0  0  0  0
   -6.8681   -6.6564   -6.9277 C   0  0  0  0  0  0  0  0  0  0  0  0
   -8.0513   -7.0630   -7.5536 C   0  0  0  0  0  0  0  0  0  0  0  0
   -8.0992   -7.1942   -8.9321 C   0  0  0  0  0  0  0  0  0  0  0  0
   -6.9690   -6.9188   -9.6737 C   0  0  0  0  0  0  0  0  0  0  0  0
   -5.7844   -6.5072   -9.0565 C   0  0  0  0  0  0  0  0  0  0  0  0
    0.1958   -2.1875   -5.1209 H   0  0  0  0  0  0  0  0  0  0  0  0
   -0.7778   -1.7490   -2.2408 H   0  0  0  0  0  0  0  0  0  0  0  0
   -0.0773   -0.5198   -3.2654 H   0  0  0  0  0  0  0  0  0  0  0  0
    1.7491   -2.8284   -3.1970 H   0  0  0  0  0  0  0  0  0  0  0  0
    3.3667   -1.2710   -2.3279 H   0  0  0  0  0  0  0  0  0  0  0  0
    2.1113   -0.0677   -1.9805 H   0  0  0  0  0  0  0  0  0  0  0  0
    2.4645   -0.5364   -3.6590 H   0  0  0  0  0  0  0  0  0  0  0  0
    0.5441   -3.3909   -1.0453 H   0  0  0  0  0  0  0  0  0  0  0  0
    1.0466   -1.8225   -0.3980 H   0  0  0  0  0  0  0  0  0  0  0  0
    2.2597   -3.0362   -0.8491 H   0  0  0  0  0  0  0  0  0  0  0  0
   -0.2506   -4.0262   -2.9078 H   0  0  0  0  0  0  0  0  0  0  0  0
   -1.1594   -5.1432   -7.6093 H   0  0  0  0  0  0  0  0  0  0  0  0
   -3.2094   -5.7028   -8.7533 H   0  0  0  0  0  0  0  0  0  0  0  0
   -3.1325   -5.5137   -3.8039 H   0  0  0  0  0  0  0  0  0  0  0  0
   -5.1986   -6.0617   -4.9123 H   0  0  0  0  0  0  0  0  0  0  0  0
   -6.9036   -6.5661   -5.8445 H   0  0  0  0  0  0  0  0  0  0  0  0
   -8.9260   -7.2838   -6.9489 H   0  0  0  0  0  0  0  0  0  0  0  0
   -9.0180   -7.5182   -9.4164 H   0  0  0  0  0  0  0  0  0  0  0  0
   -6.9955   -7.0211  -10.7653 H   0  0  0  0  0  0  0  0  0  0  0  0
   -4.9374   -6.3229   -9.6887 H   0  0  0  0  0  0  0  0  0  0  0  0
  1  2  2  0  0  0  0
  2  3  1  0  0  0  0
  2  4  1  0  0  0  0
  4  5  1  0  0  0  0
  4  9  1  0  0  0  0
  4 25  1  6  0  0  0
  5  6  1  0  0  0  0
  5 26  1  0  0  0  0
  5 27  1  0  0  0  0
  6  7  1  0  0  0  0
  6  8  1  0  0  0  0
  6 28  1  0  0  0  0
  7 29  1  0  0  0  0
  7 30  1  0  0  0  0
  7 31  1  0  0  0  0
  8 32  1  0  0  0  0
  8 33  1  0  0  0  0
  8 34  1  0  0  0  0
  9 10  1  0  0  0  0
  9 35  1  0  0  0  0
 10 11  2  0  0  0  0
 10 12  2  0  0  0  0
 10 13  1  0  0  0  0
 13 14  2  0  0  0  0
 13 16  1  0  0  0  0
 14 15  1  0  0  0  0
 14 36  1  0  0  0  0
 15 18  2  0  0  0  0
 15 37  1  0  0  0  0
 16 17  2  0  0  0  0
 16 38  1  0  0  0  0
 17 18  1  0  0  0  0
 17 39  1  0  0  0  0
 18 19  1  0  0  0  0
 19 20  2  0  0  0  0
 19 24  1  0  0  0  0
 20 21  1  0  0  0  0
 20 40  1  0  0  0  0
 21 22  2  0  0  0  0
 21 41  1  0  0  0  0
 22 23  1  0  0  0  0
 22 42  1  0  0  0  0
 23 24  2  0  0  0  0
 23 43  1  0  0  0  0
 24 44  1  0  0  0  0
M  END
$$$$
