BDP
 OpenBabel04091916033D

 22 22  0  0  1  0  0  0  0  0999 V2000
  -62.8183   16.2022    6.1464 C   0  0  1  0  0  0  0  0  0  0  0  0
  -64.2240   15.6576    5.9091 C   0  0  1  0  0  0  0  0  0  0  0  0
  -64.5572   14.7355    7.0721 C   0  0  2  0  0  0  0  0  0  0  0  0
  -63.5071   13.6156    7.1592 C   0  0  1  0  0  0  0  0  0  0  0  0
  -62.0990   14.2100    7.1588 C   0  0  1  0  0  0  0  0  0  0  0  0
  -61.0695   13.0510    7.0637 C   0  0  0  0  0  0  0  0  0  0  0  0
  -65.1968   16.6978    5.8256 O   0  0  0  0  0  0  0  0  0  0  0  0
  -65.8759   14.2065    6.8621 O   0  0  0  0  0  0  0  0  0  0  0  0
  -63.7188   12.9151    8.3822 O   0  0  0  0  0  0  0  0  0  0  0  0
  -61.9183   15.1310    6.0611 O   0  0  0  0  0  0  0  0  0  0  0  0
  -60.2384   13.1698    6.1155 O   0  0  0  0  0  0  0  0  0  0  0  0
  -62.5148   17.1461    5.1293 O   0  0  0  0  0  0  0  0  0  0  0  0
  -61.1359   12.1566    7.9268 O   0  0  0  0  0  0  0  0  0  0  0  0
  -62.7504   16.6901    7.1294 H   0  0  0  0  0  0  0  0  0  0  0  0
  -64.2412   15.0774    4.9685 H   0  0  0  0  0  0  0  0  0  0  0  0
  -64.5766   15.3103    8.0106 H   0  0  0  0  0  0  0  0  0  0  0  0
  -63.6439   12.9437    6.3029 H   0  0  0  0  0  0  0  0  0  0  0  0
  -61.9328   14.7580    8.0991 H   0  0  0  0  0  0  0  0  0  0  0  0
  -64.9239   17.2484    5.0671 H   0  0  0  0  0  0  0  0  0  0  0  0
  -66.0913   13.6466    7.6183 H   0  0  0  0  0  0  0  0  0  0  0  0
  -64.5863   12.4875    8.3614 H   0  0  0  0  0  0  0  0  0  0  0  0
  -61.5903   17.4120    5.2925 H   0  0  0  0  0  0  0  0  0  0  0  0
  1  2  1  0  0  0  0
  1 10  1  0  0  0  0
  1 12  1  0  0  0  0
  1 14  1  1  0  0  0
  2  3  1  0  0  0  0
  2  7  1  0  0  0  0
  2 15  1  6  0  0  0
  3  4  1  0  0  0  0
  3  8  1  0  0  0  0
  3 16  1  1  0  0  0
  4  5  1  0  0  0  0
  4  9  1  0  0  0  0
  4 17  1  6  0  0  0
  5  6  1  0  0  0  0
  5 10  1  0  0  0  0
  5 18  1  1  0  0  0
  6 11  2  0  0  0  0
  6 13  1  0  0  0  0
  7 19  1  0  0  0  0
  8 20  1  0  0  0  0
  9 21  1  0  0  0  0
 12 22  1  0  0  0  0
M  END
$$$$
