BER
 OpenBabel04091916283D

 45 49  0  0  1  0  0  0  0  0999 V2000
    2.6297   14.4416  -34.4052 C   0  0  0  0  0  0  0  0  0  0  0  0
    2.6245   13.1702  -34.9505 C   0  0  0  0  0  0  0  0  0  0  0  0
    1.5438   15.2366  -34.5303 N   0  3  0  0  0  0  0  0  0  0  0  0
    3.8761   14.8780  -33.7087 C   0  0  0  0  0  0  0  0  0  0  0  0
    1.4413   12.7247  -35.6135 C   0  0  0  0  0  0  0  0  0  0  0  0
    3.7358   12.3660  -34.8494 C   0  0  0  0  0  0  0  0  0  0  0  0
    1.4316   16.5657  -33.9527 C   0  0  0  0  0  0  0  0  0  0  0  0
    0.4318   14.8060  -35.1674 C   0  0  0  0  0  0  0  0  0  0  0  0
    3.7836   16.1477  -33.0123 C   0  0  0  0  0  0  0  0  0  0  0  0
    1.3901   11.4460  -36.1593 C   0  0  0  0  0  0  0  0  0  0  0  0
    0.3361   13.5524  -35.7146 C   0  0  0  0  0  0  0  0  0  0  0  0
    3.6560   11.1010  -35.4068 C   0  0  0  0  0  0  0  0  0  0  0  0
    2.6937   17.1240  -33.3330 C   0  0  2  0  0  0  0  0  0  0  0  0
    4.7207   16.4515  -32.1011 C   0  0  0  0  0  0  0  0  0  0  0  0
    2.5273   10.6866  -36.0223 C   0  0  0  0  0  0  0  0  0  0  0  0
    4.6426   10.2093  -35.3709 O   0  0  0  0  0  0  0  0  0  0  0  0
    2.2516   17.9222  -32.0958 C   0  0  1  0  0  0  0  0  0  0  0  0
    4.6364   17.7077  -31.4377 C   0  0  0  0  0  0  0  0  0  0  0  0
    2.6674    9.4216  -36.5050 O   0  0  0  0  0  0  0  0  0  0  0  0
    3.9950    9.1034  -36.0407 C   0  0  0  0  0  0  0  0  0  0  0  0
    3.4884   18.4013  -31.3793 C   0  0  0  0  0  0  0  0  0  0  0  0
    1.4199   18.9587  -32.6627 O   0  0  0  0  0  0  0  0  0  0  0  0
    3.4080   19.5800  -30.6978 O   0  0  0  0  0  0  0  0  0  0  0  0
    1.1211   20.0301  -31.7916 C   0  0  0  0  0  0  0  0  0  0  0  0
    4.5684   20.0295  -30.0237 C   0  0  0  0  0  0  0  0  0  0  0  0
    4.6889   14.9484  -34.4540 H   0  0  0  0  0  0  0  0  0  0  0  0
    4.1373   14.1323  -32.9621 H   0  0  0  0  0  0  0  0  0  0  0  0
    4.6831   12.6477  -34.3614 H   0  0  0  0  0  0  0  0  0  0  0  0
    0.6144   16.4794  -33.2311 H   0  0  0  0  0  0  0  0  0  0  0  0
    1.1247   17.2183  -34.7790 H   0  0  0  0  0  0  0  0  0  0  0  0
   -0.4147   15.4999  -35.2167 H   0  0  0  0  0  0  0  0  0  0  0  0
    0.5068   11.0694  -36.6622 H   0  0  0  0  0  0  0  0  0  0  0  0
   -0.5782   13.2438  -36.2046 H   0  0  0  0  0  0  0  0  0  0  0  0
    3.1087   17.8135  -34.0757 H   0  0  0  0  0  0  0  0  0  0  0  0
    5.5705   15.8105  -31.8836 H   0  0  0  0  0  0  0  0  0  0  0  0
    1.6531   17.3130  -31.4230 H   0  0  0  0  0  0  0  0  0  0  0  0
    5.5621   18.0443  -30.9840 H   0  0  0  0  0  0  0  0  0  0  0  0
    3.9229    8.2676  -35.3339 H   0  0  0  0  0  0  0  0  0  0  0  0
    4.6092    8.8119  -36.9006 H   0  0  0  0  0  0  0  0  0  0  0  0
    0.4733   20.7413  -32.3019 H   0  0  0  0  0  0  0  0  0  0  0  0
    2.0033   20.6391  -31.6164 H   0  0  0  0  0  0  0  0  0  0  0  0
    0.6798   19.6592  -30.8610 H   0  0  0  0  0  0  0  0  0  0  0  0
    4.3700   21.0221  -29.6327 H   0  0  0  0  0  0  0  0  0  0  0  0
    5.4151   20.1003  -30.7175 H   0  0  0  0  0  0  0  0  0  0  0  0
    4.7455   19.3261  -29.2108 H   0  0  0  0  0  0  0  0  0  0  0  0
  1  2  2  0  0  0  0
  1  3  1  0  0  0  0
  1  4  1  0  0  0  0
  2  5  1  0  0  0  0
  2  6  1  0  0  0  0
  3  7  1  0  0  0  0
  3  8  2  0  0  0  0
  4  9  1  0  0  0  0
  4 26  1  0  0  0  0
  4 27  1  0  0  0  0
  5 10  1  0  0  0  0
  5 11  2  0  0  0  0
  6 12  2  0  0  0  0
  6 28  1  0  0  0  0
  7 13  1  0  0  0  0
  7 29  1  0  0  0  0
  7 30  1  0  0  0  0
  8 11  1  0  0  0  0
  8 31  1  0  0  0  0
  9 13  1  0  0  0  0
  9 14  2  0  0  0  0
 10 15  2  0  0  0  0
 10 32  1  0  0  0  0
 11 33  1  0  0  0  0
 12 15  1  0  0  0  0
 12 16  1  0  0  0  0
 13 17  1  0  0  0  0
 13 34  1  6  0  0  0
 14 18  1  0  0  0  0
 14 35  1  0  0  0  0
 15 19  1  0  0  0  0
 16 20  1  0  0  0  0
 17 21  1  0  0  0  0
 17 22  1  0  0  0  0
 17 36  1  1  0  0  0
 18 21  2  0  0  0  0
 18 37  1  0  0  0  0
 19 20  1  0  0  0  0
 20 38  1  0  0  0  0
 20 39  1  0  0  0  0
 21 23  1  0  0  0  0
 22 24  1  0  0  0  0
 23 25  1  0  0  0  0
 24 40  1  0  0  0  0
 24 41  1  0  0  0  0
 24 42  1  0  0  0  0
 25 43  1  0  0  0  0
 25 44  1  0  0  0  0
 25 45  1  0  0  0  0
M  CHG  1   3   1
M  END
$$$$
