BES
 OpenBabel04091911383D

 46 46  0  0  1  0  0  0  0  0999 V2000
   11.3048   12.6886   12.1429 N   0  3  0  0  0  0  0  0  0  0  0  0
   12.6307   12.0159   12.3578 C   0  0  2  0  0  0  0  0  0  0  0  0
   13.2948   12.6437   13.5800 C   0  0  0  0  0  0  0  0  0  0  0  0
   12.9860   11.9463   14.8741 C   0  0  0  0  0  0  0  0  0  0  0  0
   12.2286   12.5995   15.8493 C   0  0  0  0  0  0  0  0  0  0  0  0
   13.4836   10.6626   15.1379 C   0  0  0  0  0  0  0  0  0  0  0  0
   11.9612   11.9767   17.0679 C   0  0  0  0  0  0  0  0  0  0  0  0
   13.2154   10.0373   16.3598 C   0  0  0  0  0  0  0  0  0  0  0  0
   12.4492   10.6953   17.3226 C   0  0  0  0  0  0  0  0  0  0  0  0
   13.5122   12.2084   11.1253 C   0  0  2  0  0  0  0  0  0  0  0  0
   12.7773   12.5271    9.9461 O   0  0  0  0  0  0  0  0  0  0  0  0
   14.1626   10.8801   10.8596 C   0  0  0  0  0  0  0  0  0  0  0  0
   13.5212    9.8954   10.4969 O   0  0  0  0  0  0  0  0  0  0  0  0
   15.4883   10.9057   11.0587 N   0  0  0  0  0  0  0  0  0  0  0  0
   16.3673    9.7377   10.9256 C   0  0  1  0  0  0  0  0  0  0  0  0
   17.1278    9.9152    9.6141 C   0  0  0  0  0  0  0  0  0  0  0  0
   17.1983    8.6699    8.7263 C   0  0  0  0  0  0  0  0  0  0  0  0
   15.9351    7.8221    8.7171 C   0  0  0  0  0  0  0  0  0  0  0  0
   17.5223    9.0630    7.2855 C   0  0  0  0  0  0  0  0  0  0  0  0
   17.3307    9.7030   12.1399 C   0  0  0  0  0  0  0  0  0  0  0  0
   17.8336    8.6330   12.4494 O   0  0  0  0  0  0  0  0  0  0  0  0
   17.4013   10.8585   12.6952 O   0  0  0  0  0  0  0  0  0  0  0  0
   10.8490   12.2704   11.3207 H   0  0  0  0  0  0  0  0  0  0  0  0
   10.7050   12.5432   12.9650 H   0  0  0  0  0  0  0  0  0  0  0  0
   12.4011   10.9585   12.5318 H   0  0  0  0  0  0  0  0  0  0  0  0
   12.9840   13.6966   13.6625 H   0  0  0  0  0  0  0  0  0  0  0  0
   14.3757   12.6303   13.4334 H   0  0  0  0  0  0  0  0  0  0  0  0
   11.8548   13.6026   15.6716 H   0  0  0  0  0  0  0  0  0  0  0  0
   14.0960   10.1432   14.4005 H   0  0  0  0  0  0  0  0  0  0  0  0
   11.3745   12.4900   17.8244 H   0  0  0  0  0  0  0  0  0  0  0  0
   13.6060    9.0417   16.5635 H   0  0  0  0  0  0  0  0  0  0  0  0
   12.2359   10.2108   18.2713 H   0  0  0  0  0  0  0  0  0  0  0  0
   14.2600   12.9931   11.3128 H   0  0  0  0  0  0  0  0  0  0  0  0
   12.3654   13.3829   10.0325 H   0  0  0  0  0  0  0  0  0  0  0  0
   15.9791   11.7282   11.3851 H   0  0  0  0  0  0  0  0  0  0  0  0
   15.7590    8.8300   10.9297 H   0  0  0  0  0  0  0  0  0  0  0  0
   18.1542   10.2306    9.8429 H   0  0  0  0  0  0  0  0  0  0  0  0
   16.6589   10.7287    9.0407 H   0  0  0  0  0  0  0  0  0  0  0  0
   18.0185    8.0479    9.0965 H   0  0  0  0  0  0  0  0  0  0  0  0
   16.0593    6.9590    8.0596 H   0  0  0  0  0  0  0  0  0  0  0  0
   15.0720    8.4068    8.3802 H   0  0  0  0  0  0  0  0  0  0  0  0
   15.7289    7.4254    9.7117 H   0  0  0  0  0  0  0  0  0  0  0  0
   18.4242    9.6818    7.2527 H   0  0  0  0  0  0  0  0  0  0  0  0
   16.6921    9.6274    6.8422 H   0  0  0  0  0  0  0  0  0  0  0  0
   17.6904    8.1653    6.6815 H   0  0  0  0  0  0  0  0  0  0  0  0
   11.4292   13.6953   11.9902 H   0  0  0  0  0  0  0  0  0  0  0  0
  1  2  1  0  0  0  0
  1 23  1  0  0  0  0
  1 24  1  0  0  0  0
  1 46  1  0  0  0  0
  2  3  1  0  0  0  0
  2 10  1  0  0  0  0
  2 25  1  1  0  0  0
  3  4  1  0  0  0  0
  3 26  1  0  0  0  0
  3 27  1  0  0  0  0
  4  5  2  0  0  0  0
  4  6  1  0  0  0  0
  5  7  1  0  0  0  0
  5 28  1  0  0  0  0
  6  8  2  0  0  0  0
  6 29  1  0  0  0  0
  7  9  2  0  0  0  0
  7 30  1  0  0  0  0
  8  9  1  0  0  0  0
  8 31  1  0  0  0  0
  9 32  1  0  0  0  0
 10 11  1  0  0  0  0
 10 12  1  0  0  0  0
 10 33  1  1  0  0  0
 11 34  1  0  0  0  0
 12 13  2  0  0  0  0
 12 14  1  0  0  0  0
 14 15  1  0  0  0  0
 14 35  1  0  0  0  0
 15 16  1  0  0  0  0
 15 20  1  0  0  0  0
 15 36  1  6  0  0  0
 16 17  1  0  0  0  0
 16 37  1  0  0  0  0
 16 38  1  0  0  0  0
 17 18  1  0  0  0  0
 17 19  1  0  0  0  0
 17 39  1  0  0  0  0
 18 40  1  0  0  0  0
 18 41  1  0  0  0  0
 18 42  1  0  0  0  0
 19 43  1  0  0  0  0
 19 44  1  0  0  0  0
 19 45  1  0  0  0  0
 20 21  2  0  0  0  0
 20 22  1  0  0  0  0
M  CHG  1   1   1
M  END
$$$$
