BET
 OpenBabel04091913453D

 19 18  0  0  0  0  0  0  0  0999 V2000
   19.9321  -18.9777   -9.6114 N   0  3  0  0  0  0  0  0  0  0  0  0
   20.0539  -19.4531  -11.0969 C   0  0  0  0  0  0  0  0  0  0  0  0
   18.8188  -20.1519  -11.7025 C   0  0  0  0  0  0  0  0  0  0  0  0
   18.8273  -21.4038  -11.6123 O   0  0  0  0  0  0  0  0  0  0  0  0
   17.9148  -19.3252  -12.0563 O   0  0  0  0  0  0  0  0  0  0  0  0
   19.7617  -20.1981   -8.7495 C   0  0  0  0  0  0  0  0  0  0  0  0
   18.7174  -18.0964   -9.4589 C   0  0  0  0  0  0  0  0  0  0  0  0
   21.1562  -18.2074   -9.2503 C   0  0  0  0  0  0  0  0  0  0  0  0
   20.9207  -20.1204  -11.1311 H   0  0  0  0  0  0  0  0  0  0  0  0
   20.2786  -18.5540  -11.6781 H   0  0  0  0  0  0  0  0  0  0  0  0
   19.6589  -19.8493   -7.7197 H   0  0  0  0  0  0  0  0  0  0  0  0
   20.6542  -20.8204   -8.8581 H   0  0  0  0  0  0  0  0  0  0  0  0
   18.8620  -20.7332   -9.0586 H   0  0  0  0  0  0  0  0  0  0  0  0
   18.8399  -17.2258  -10.1104 H   0  0  0  0  0  0  0  0  0  0  0  0
   18.6872  -17.7861   -8.4095 H   0  0  0  0  0  0  0  0  0  0  0  0
   17.8204  -18.6657   -9.6983 H   0  0  0  0  0  0  0  0  0  0  0  0
   22.0220  -18.8484   -9.3968 H   0  0  0  0  0  0  0  0  0  0  0  0
   21.0505  -17.9084   -8.2060 H   0  0  0  0  0  0  0  0  0  0  0  0
   21.2012  -17.3255   -9.8997 H   0  0  0  0  0  0  0  0  0  0  0  0
  1  2  1  0  0  0  0
  1  6  1  0  0  0  0
  1  7  1  0  0  0  0
  1  8  1  0  0  0  0
  2  3  1  0  0  0  0
  2  9  1  0  0  0  0
  2 10  1  0  0  0  0
  3  4  2  0  0  0  0
  3  5  1  0  0  0  0
  6 11  1  0  0  0  0
  6 12  1  0  0  0  0
  6 13  1  0  0  0  0
  7 14  1  0  0  0  0
  7 15  1  0  0  0  0
  7 16  1  0  0  0  0
  8 17  1  0  0  0  0
  8 18  1  0  0  0  0
  8 19  1  0  0  0  0
M  CHG  1   1   1
M  END
$$$$
