BG6
 OpenBabel04091911063D

 27 27  0  0  1  0  0  0  0  0999 V2000
   68.8053   84.7695   60.5703 C   0  0  2  0  0  0  0  0  0  0  0  0
   68.0121   85.4089   61.7086 C   0  0  1  0  0  0  0  0  0  0  0  0
   68.0375   84.7932   59.3739 O   0  0  0  0  0  0  0  0  0  0  0  0
   69.0926   83.4412   60.9414 O   0  0  0  0  0  0  0  0  0  0  0  0
   68.9690   85.5400   62.8871 C   0  0  2  0  0  0  0  0  0  0  0  0
   67.5073   86.6953   61.3043 O   0  0  0  0  0  0  0  0  0  0  0  0
   69.7426   84.2356   63.1942 C   0  0  1  0  0  0  0  0  0  0  0  0
   68.2564   85.9732   64.0629 O   0  0  0  0  0  0  0  0  0  0  0  0
   70.1235   83.3844   61.9463 C   0  0  1  0  0  0  0  0  0  0  0  0
   70.9101   84.6292   63.9491 O   0  0  0  0  0  0  0  0  0  0  0  0
   70.4166   81.9278   62.3706 C   0  0  0  0  0  0  0  0  0  0  0  0
   70.5339   81.0894   61.2356 O   0  0  0  0  0  0  0  0  0  0  0  0
   70.6498   79.4917   61.5685 P   0  0  0  0  0  0  0  0  0  0  0  0
   70.4985   78.8242   60.1987 O   0  0  0  0  0  0  0  0  0  0  0  0
   72.0357   79.3625   62.1887 O   0  0  0  0  0  0  0  0  0  0  0  0
   69.5051   79.2168   62.5335 O   0  0  0  0  0  0  0  0  0  0  0  0
   69.7244   85.3329   60.3628 H   0  0  0  0  0  0  0  0  0  0  0  0
   67.1428   84.7977   61.9860 H   0  0  0  0  0  0  0  0  0  0  0  0
   68.6180   84.3345   58.7387 H   0  0  0  0  0  0  0  0  0  0  0  0
   69.6794   86.3518   62.6797 H   0  0  0  0  0  0  0  0  0  0  0  0
   66.9572   86.4871   60.5234 H   0  0  0  0  0  0  0  0  0  0  0  0
   69.1320   83.6347   63.8765 H   0  0  0  0  0  0  0  0  0  0  0  0
   68.8845   85.8664   64.8013 H   0  0  0  0  0  0  0  0  0  0  0  0
   71.0381   83.7708   61.4801 H   0  0  0  0  0  0  0  0  0  0  0  0
   71.6230   84.8133   63.3128 H   0  0  0  0  0  0  0  0  0  0  0  0
   69.6133   81.5657   63.0165 H   0  0  0  0  0  0  0  0  0  0  0  0
   71.3540   81.8978   62.9380 H   0  0  0  0  0  0  0  0  0  0  0  0
  1  2  1  0  0  0  0
  1  3  1  0  0  0  0
  1  4  1  0  0  0  0
  1 17  1  6  0  0  0
  2  5  1  0  0  0  0
  2  6  1  0  0  0  0
  2 18  1  1  0  0  0
  3 19  1  0  0  0  0
  4  9  1  0  0  0  0
  5  7  1  0  0  0  0
  5  8  1  0  0  0  0
  5 20  1  6  0  0  0
  6 21  1  0  0  0  0
  7  9  1  0  0  0  0
  7 10  1  0  0  0  0
  7 22  1  1  0  0  0
  8 23  1  0  0  0  0
  9 11  1  0  0  0  0
  9 24  1  6  0  0  0
 10 25  1  0  0  0  0
 11 12  1  0  0  0  0
 11 26  1  0  0  0  0
 11 27  1  0  0  0  0
 12 13  1  0  0  0  0
 13 14  2  0  0  0  0
 13 15  1  0  0  0  0
 13 16  1  0  0  0  0
M  END
$$$$
