BGV
 OpenBabel04091914223D

 42 44  0  0  1  0  0  0  0  0999 V2000
   12.9755   16.0815   17.3944 C   0  0  0  0  0  0  0  0  0  0  0  0
   15.4436   15.4848   21.8918 C   0  0  0  0  0  0  0  0  0  0  0  0
   18.5633   13.1261   16.0320 C   0  0  0  0  0  0  0  0  0  0  0  0
   15.6349   11.6855   18.4132 C   0  0  0  0  0  0  0  0  0  0  0  0
   13.2821   14.9472   20.9985 O   0  0  0  0  0  0  0  0  0  0  0  0
   16.3005   12.3928   21.0686 O   0  0  0  0  0  0  0  0  0  0  0  0
   12.4267   15.1748   14.6992 O   0  0  0  0  0  0  0  0  0  0  0  0
   18.1578   13.3402   19.9186 C   0  0  0  0  0  0  0  0  0  0  0  0
   18.3149   13.8580   18.7577 C   0  0  0  0  0  0  0  0  0  0  0  0
   16.1088   13.2139   15.6432 C   0  0  0  0  0  0  0  0  0  0  0  0
   15.0611   15.1413   19.5673 O   0  0  0  0  0  0  0  0  0  0  0  0
   13.9829   13.5816   15.0364 O   0  0  0  0  0  0  0  0  0  0  0  0
   14.4495   15.1664   20.8038 C   0  0  0  0  0  0  0  0  0  0  0  0
   13.5194   15.0652   16.7753 C   0  0  0  0  0  0  0  0  0  0  0  0
   16.7458   12.9414   20.0358 C   0  0  0  0  0  0  0  0  0  0  0  0
   13.1951   14.5942   15.4313 C   0  0  0  0  0  0  0  0  0  0  0  0
   17.2190   12.9600   16.6412 C   0  0  2  0  0  0  0  0  0  0  0  0
   14.6947   13.2210   16.1853 C   0  0  2  0  0  0  0  0  0  0  0  0
   17.1044   13.7887   17.9132 C   0  0  1  0  0  0  0  0  0  0  0  0
   14.7678   13.9884   18.7247 C   0  0  1  0  0  0  0  0  0  0  0  0
   14.6579   14.3424   17.2164 C   0  0  2  0  0  0  0  0  0  0  0  0
   16.0085   13.1293   18.7866 C   0  0  1  0  0  0  0  0  0  0  0  0
   12.1472   16.6063   16.9501 H   0  0  0  0  0  0  0  0  0  0  0  0
   13.3705   16.3791   18.3573 H   0  0  0  0  0  0  0  0  0  0  0  0
   14.9187   15.4858   22.8541 H   0  0  0  0  0  0  0  0  0  0  0  0
   15.8890   16.4675   21.7302 H   0  0  0  0  0  0  0  0  0  0  0  0
   16.2212   14.7216   21.9480 H   0  0  0  0  0  0  0  0  0  0  0  0
   18.6424   12.4593   15.1796 H   0  0  0  0  0  0  0  0  0  0  0  0
   19.3104   12.8282   16.7726 H   0  0  0  0  0  0  0  0  0  0  0  0
   18.6911   14.1694   15.7543 H   0  0  0  0  0  0  0  0  0  0  0  0
   16.4996   11.0300   18.4429 H   0  0  0  0  0  0  0  0  0  0  0  0
   15.3321   11.5666   17.3993 H   0  0  0  0  0  0  0  0  0  0  0  0
   14.8177   11.2963   19.0193 H   0  0  0  0  0  0  0  0  0  0  0  0
   18.8623   13.1482   20.7128 H   0  0  0  0  0  0  0  0  0  0  0  0
   19.2541   14.3488   18.3923 H   0  0  0  0  0  0  0  0  0  0  0  0
   16.1622   12.5293   14.7975 H   0  0  0  0  0  0  0  0  0  0  0  0
   16.2659   14.2256   15.2318 H   0  0  0  0  0  0  0  0  0  0  0  0
   17.1844   11.9010   16.8684 H   0  0  0  0  0  0  0  0  0  0  0  0
   14.1519   12.3182   16.4851 H   0  0  0  0  0  0  0  0  0  0  0  0
   16.9461   14.8673   17.7191 H   0  0  0  0  0  0  0  0  0  0  0  0
   13.8546   13.4673   19.0472 H   0  0  0  0  0  0  0  0  0  0  0  0
   15.4455   15.0347   16.9039 H   0  0  0  0  0  0  0  0  0  0  0  0
  1 14  2  0  0  0  0
  1 23  1  0  0  0  0
  1 24  1  0  0  0  0
  2 13  1  0  0  0  0
  2 25  1  0  0  0  0
  2 26  1  0  0  0  0
  2 27  1  0  0  0  0
  3 17  1  0  0  0  0
  3 28  1  0  0  0  0
  3 29  1  0  0  0  0
  3 30  1  0  0  0  0
  4 31  1  0  0  0  0
  4 32  1  0  0  0  0
  4 33  1  0  0  0  0
  5 13  2  0  0  0  0
  6 15  2  0  0  0  0
  7 16  2  0  0  0  0
  8  9  2  0  0  0  0
  8 15  1  0  0  0  0
  8 34  1  0  0  0  0
  9 19  1  0  0  0  0
  9 35  1  0  0  0  0
 10 17  1  0  0  0  0
 10 18  1  0  0  0  0
 10 36  1  0  0  0  0
 10 37  1  0  0  0  0
 11 13  1  0  0  0  0
 11 20  1  0  0  0  0
 12 16  1  0  0  0  0
 12 18  1  0  0  0  0
 14 16  1  0  0  0  0
 14 21  1  0  0  0  0
 15 22  1  0  0  0  0
 17 19  1  0  0  0  0
 17 38  1  1  0  0  0
 18 21  1  0  0  0  0
 18 39  1  1  0  0  0
 19 22  1  0  0  0  0
 19 40  1  6  0  0  0
 20 21  1  0  0  0  0
 20 22  1  0  0  0  0
 20 41  1  1  0  0  0
 21 42  1  6  0  0  0
 22  4  1  6  0  0  0
M  END
$$$$
