BHO
 OpenBabel04091916043D

 17 17  0  0  0  0  0  0  0  0999 V2000
   51.7810  -52.3849   17.6448 C   0  0  0  0  0  0  0  0  0  0  0  0
   50.4540  -52.3455   18.1078 C   0  0  0  0  0  0  0  0  0  0  0  0
   49.6948  -51.1940   18.0957 C   0  0  0  0  0  0  0  0  0  0  0  0
   50.2472  -50.0220   17.6109 C   0  0  0  0  0  0  0  0  0  0  0  0
   51.5598  -50.0234   17.1385 C   0  0  0  0  0  0  0  0  0  0  0  0
   52.3252  -51.1964   17.1485 C   0  0  0  0  0  0  0  0  0  0  0  0
   52.5654  -53.6729   17.6603 C   0  0  0  0  0  0  0  0  0  0  0  0
   53.7575  -53.7516   17.3610 O   0  0  0  0  0  0  0  0  0  0  0  0
   51.7322  -54.6779   18.0547 N   0  0  0  0  0  0  0  0  0  0  0  0
   51.9897  -56.0416   18.2362 O   0  0  0  0  0  0  0  0  0  0  0  0
   49.9338  -53.1984   18.5211 H   0  0  0  0  0  0  0  0  0  0  0  0
   48.6776  -51.2186   18.4693 H   0  0  0  0  0  0  0  0  0  0  0  0
   49.6572  -49.1161   17.6051 H   0  0  0  0  0  0  0  0  0  0  0  0
   51.9888  -49.0999   16.7592 H   0  0  0  0  0  0  0  0  0  0  0  0
   53.3419  -51.1750   16.7744 H   0  0  0  0  0  0  0  0  0  0  0  0
   50.7980  -54.4789   18.2332 H   0  0  0  0  0  0  0  0  0  0  0  0
   51.1136  -56.3534   18.5183 H   0  0  0  0  0  0  0  0  0  0  0  0
  1  2  2  0  0  0  0
  1  6  1  0  0  0  0
  1  7  1  0  0  0  0
  2  3  1  0  0  0  0
  2 11  1  0  0  0  0
  3  4  2  0  0  0  0
  3 12  1  0  0  0  0
  4  5  1  0  0  0  0
  4 13  1  0  0  0  0
  5  6  2  0  0  0  0
  5 14  1  0  0  0  0
  6 15  1  0  0  0  0
  7  8  2  0  0  0  0
  7  9  1  0  0  0  0
  9 10  1  0  0  0  0
  9 16  1  0  0  0  0
 10 17  1  0  0  0  0
M  END
$$$$
