BIR
 OpenBabel04091910593D

 55 56  0  0  1  0  0  0  0  0999 V2000
   32.8424    2.6089    0.8271 C   0  0  0  0  0  0  0  0  0  0  0  0
   34.2340    2.4191    1.4210 C   0  0  2  0  0  0  0  0  0  0  0  0
   34.1701    1.2924    2.4486 N   0  3  0  0  0  0  0  0  0  0  0  0
   34.9165    3.9594    2.3002 P   0  0  2  0  0  0  0  0  0  0  0  0
   36.3725    3.6588    2.5658 O   0  0  0  0  0  0  0  0  0  0  0  0
   34.0059    4.0530    3.5010 O   0  0  0  0  0  0  0  0  0  0  0  0
   34.5596    5.3043    1.1788 C   0  0  0  0  0  0  0  0  0  0  0  0
   34.7198    6.7145    1.7737 C   0  0  2  0  0  0  0  0  0  0  0  0
   34.3674    7.6149    0.6294 C   0  0  0  0  0  0  0  0  0  0  0  0
   35.0512    7.6088   -0.3918 O   0  0  0  0  0  0  0  0  0  0  0  0
   33.1729    8.2518    0.7217 N   0  0  0  0  0  0  0  0  0  0  0  0
   32.7196    9.1055   -0.3740 C   0  0  1  0  0  0  0  0  0  0  0  0
   31.4391    9.8123    0.0397 C   0  0  0  0  0  0  0  0  0  0  0  0
   33.7870   10.1674   -0.8512 C   0  0  0  0  0  0  0  0  0  0  0  0
   33.9201   10.2070   -2.0784 O   0  0  0  0  0  0  0  0  0  0  0  0
   34.3661   10.8540    0.0579 O   0  0  0  0  0  0  0  0  0  0  0  0
   36.1399    7.0305    2.2449 C   0  0  0  0  0  0  0  0  0  0  0  0
   36.2342    8.4326    2.8125 C   0  0  0  0  0  0  0  0  0  0  0  0
   36.4094    9.5446    1.9761 C   0  0  0  0  0  0  0  0  0  0  0  0
   36.3317   10.8511    2.4622 C   0  0  0  0  0  0  0  0  0  0  0  0
   36.1333   11.0895    3.8200 C   0  0  0  0  0  0  0  0  0  0  0  0
   35.9679    9.9662    4.6514 C   0  0  0  0  0  0  0  0  0  0  0  0
   36.0210    8.6549    4.1651 C   0  0  0  0  0  0  0  0  0  0  0  0
   36.0566   12.4717    4.3245 C   0  0  0  0  0  0  0  0  0  0  0  0
   35.2221   12.8103    5.4030 C   0  0  0  0  0  0  0  0  0  0  0  0
   35.1257   14.1388    5.8453 C   0  0  0  0  0  0  0  0  0  0  0  0
   35.8661   15.1449    5.2214 C   0  0  0  0  0  0  0  0  0  0  0  0
   36.6990   14.8291    4.1492 C   0  0  0  0  0  0  0  0  0  0  0  0
   36.7738   13.5094    3.6939 C   0  0  0  0  0  0  0  0  0  0  0  0
   32.4524    1.6900    0.3690 H   0  0  0  0  0  0  0  0  0  0  0  0
   32.8961    3.3686    0.0410 H   0  0  0  0  0  0  0  0  0  0  0  0
   32.1270    2.9509    1.5833 H   0  0  0  0  0  0  0  0  0  0  0  0
   34.9086    2.0546    0.6400 H   0  0  0  0  0  0  0  0  0  0  0  0
   35.1142    1.2162    2.8410 H   0  0  0  0  0  0  0  0  0  0  0  0
   33.5553    1.6148    3.2027 H   0  0  0  0  0  0  0  0  0  0  0  0
   33.5014    5.2269    0.8612 H   0  0  0  0  0  0  0  0  0  0  0  0
   35.1677    5.2279    0.2661 H   0  0  0  0  0  0  0  0  0  0  0  0
   34.0118    6.8295    2.6042 H   0  0  0  0  0  0  0  0  0  0  0  0
   32.6232    8.1900    1.5599 H   0  0  0  0  0  0  0  0  0  0  0  0
   32.4834    8.4318   -1.2170 H   0  0  0  0  0  0  0  0  0  0  0  0
   31.0537   10.4171   -0.7864 H   0  0  0  0  0  0  0  0  0  0  0  0
   31.6344   10.4677    0.8953 H   0  0  0  0  0  0  0  0  0  0  0  0
   30.6609    9.0920    0.3347 H   0  0  0  0  0  0  0  0  0  0  0  0
   36.8443    6.9332    1.4113 H   0  0  0  0  0  0  0  0  0  0  0  0
   36.4296    6.3145    3.0228 H   0  0  0  0  0  0  0  0  0  0  0  0
   36.5588    9.4065    0.9084 H   0  0  0  0  0  0  0  0  0  0  0  0
   36.3636   11.6855    1.7552 H   0  0  0  0  0  0  0  0  0  0  0  0
   35.7577   10.1091    5.7029 H   0  0  0  0  0  0  0  0  0  0  0  0
   35.8743    7.8127    4.8379 H   0  0  0  0  0  0  0  0  0  0  0  0
   34.6109   12.0448    5.8807 H   0  0  0  0  0  0  0  0  0  0  0  0
   34.4721   14.3733    6.6784 H   0  0  0  0  0  0  0  0  0  0  0  0
   35.7884   16.1779    5.5593 H   0  0  0  0  0  0  0  0  0  0  0  0
   37.2963   15.5959    3.6610 H   0  0  0  0  0  0  0  0  0  0  0  0
   37.3820   13.2920    2.8147 H   0  0  0  0  0  0  0  0  0  0  0  0
   33.8588    0.4244    2.0180 H   0  0  0  0  0  0  0  0  0  0  0  0
  1  2  1  0  0  0  0
  1 30  1  0  0  0  0
  1 31  1  0  0  0  0
  1 32  1  0  0  0  0
  2  3  1  0  0  0  0
  2  4  1  0  0  0  0
  2 33  1  6  0  0  0
  3 34  1  0  0  0  0
  3 35  1  0  0  0  0
  3 55  1  0  0  0  0
  4  5  2  1  0  0  0
  4  6  1  0  0  0  0
  4  7  1  0  0  0  0
  7  8  1  0  0  0  0
  7 36  1  0  0  0  0
  7 37  1  0  0  0  0
  8  9  1  0  0  0  0
  8 17  1  0  0  0  0
  8 38  1  1  0  0  0
  9 10  2  0  0  0  0
  9 11  1  0  0  0  0
 11 12  1  0  0  0  0
 11 39  1  0  0  0  0
 12 13  1  0  0  0  0
 12 14  1  0  0  0  0
 12 40  1  6  0  0  0
 13 41  1  0  0  0  0
 13 42  1  0  0  0  0
 13 43  1  0  0  0  0
 14 15  2  0  0  0  0
 14 16  1  0  0  0  0
 17 18  1  0  0  0  0
 17 44  1  0  0  0  0
 17 45  1  0  0  0  0
 18 19  2  0  0  0  0
 18 23  1  0  0  0  0
 19 20  1  0  0  0  0
 19 46  1  0  0  0  0
 20 21  2  0  0  0  0
 20 47  1  0  0  0  0
 21 22  1  0  0  0  0
 21 24  1  0  0  0  0
 22 23  2  0  0  0  0
 22 48  1  0  0  0  0
 23 49  1  0  0  0  0
 24 25  2  0  0  0  0
 24 29  1  0  0  0  0
 25 26  1  0  0  0  0
 25 50  1  0  0  0  0
 26 27  2  0  0  0  0
 26 51  1  0  0  0  0
 27 28  1  0  0  0  0
 27 52  1  0  0  0  0
 28 29  2  0  0  0  0
 28 53  1  0  0  0  0
 29 54  1  0  0  0  0
M  CHG  1   3   1
M  END
$$$$
