BL0
 OpenBabel04091911033D

 23 23  0  0  0  0  0  0  0  0999 V2000
   -4.3783    7.4118   12.8471 C   0  0  0  0  0  0  0  0  0  0  0  0
   -5.2956    6.3593   13.2530 N   0  0  0  0  0  0  0  0  0  0  0  0
   -6.7032    6.5988   13.0039 C   0  0  0  0  0  0  0  0  0  0  0  0
   -4.7861    5.1688   13.7202 C   0  0  0  0  0  0  0  0  0  0  0  0
   -5.7436    3.7555   13.9976 S   0  0  0  0  0  0  0  0  0  0  0  0
   -3.5120    4.9521   13.9918 N   0  0  0  0  0  0  0  0  0  0  0  0
   -3.2441    3.6605   14.4368 N   0  0  0  0  0  0  0  0  0  0  0  0
   -4.3286    2.9237   14.5009 C   0  0  0  0  0  0  0  0  0  0  0  0
   -4.3619    1.4614   14.8031 C   0  0  0  0  0  0  0  0  0  0  0  0
   -5.2394    1.1755   16.3406 S   0  0  0  0  0  0  0  0  0  0  0  0
   -6.6422    1.4774   16.1767 O   0  0  0  0  0  0  0  0  0  0  0  0
   -5.2032   -0.4844   16.5038 N   0  0  0  0  0  0  0  0  0  0  0  0
   -4.4747    1.6990   17.4512 O   0  0  0  0  0  0  0  0  0  0  0  0
   -4.9165    8.2958   12.4955 H   0  0  0  0  0  0  0  0  0  0  0  0
   -3.7368    7.0758   12.0276 H   0  0  0  0  0  0  0  0  0  0  0  0
   -3.7536    7.7341   13.6875 H   0  0  0  0  0  0  0  0  0  0  0  0
   -7.3621    5.7920   13.3329 H   0  0  0  0  0  0  0  0  0  0  0  0
   -6.8781    6.7561   11.9336 H   0  0  0  0  0  0  0  0  0  0  0  0
   -7.0248    7.5042   13.5334 H   0  0  0  0  0  0  0  0  0  0  0  0
   -3.3531    1.0545   14.9272 H   0  0  0  0  0  0  0  0  0  0  0  0
   -4.8905    0.9094   14.0197 H   0  0  0  0  0  0  0  0  0  0  0  0
   -5.5741   -0.8375   17.3847 H   0  0  0  0  0  0  0  0  0  0  0  0
   -4.6101   -1.0800   15.9355 H   0  0  0  0  0  0  0  0  0  0  0  0
  1  2  1  0  0  0  0
  1 14  1  0  0  0  0
  1 15  1  0  0  0  0
  1 16  1  0  0  0  0
  2  3  1  0  0  0  0
  2  4  1  0  0  0  0
  3 17  1  0  0  0  0
  3 18  1  0  0  0  0
  3 19  1  0  0  0  0
  4  5  1  0  0  0  0
  4  6  2  0  0  0  0
  5  8  1  0  0  0  0
  6  7  1  0  0  0  0
  7  8  2  0  0  0  0
  8  9  1  0  0  0  0
  9 10  1  0  0  0  0
  9 20  1  0  0  0  0
  9 21  1  0  0  0  0
 10 11  2  0  0  0  0
 10 12  1  0  0  0  0
 10 13  2  0  0  0  0
 12 22  1  0  0  0  0
 12 23  1  0  0  0  0
M  END
$$$$
