BOW
 OpenBabel04091913083D

 32 31  0  0  0  0  0  0  0  0999 V2000
   -4.6662    1.9580   14.5032 C   0  0  0  0  0  0  0  0  0  0  0  0
   -5.2631   -0.5740   16.0485 N   0  0  0  0  0  0  0  0  0  0  0  0
   -7.0767    1.1070   16.2498 O   0  0  0  0  0  0  0  0  0  0  0  0
   -5.7202    0.8921   16.6820 S   0  0  0  0  0  0  0  0  0  0  0  0
   -5.4033    3.1734   13.9660 C   0  0  0  0  0  0  0  0  0  0  0  0
   -5.3506    0.8676   18.0636 O   0  0  0  0  0  0  0  0  0  0  0  0
   -4.8024    4.4955   14.4294 C   0  0  0  0  0  0  0  0  0  0  0  0
   -4.7494    1.9409   15.9185 O   0  0  0  0  0  0  0  0  0  0  0  0
   -3.6866    4.9935   13.5169 C   0  0  0  0  0  0  0  0  0  0  0  0
   -2.8802    6.1076   14.1736 C   0  0  0  0  0  0  0  0  0  0  0  0
   -2.1816    6.9969   13.1548 C   0  0  0  0  0  0  0  0  0  0  0  0
   -1.0820    7.8663   13.7533 C   0  0  0  0  0  0  0  0  0  0  0  0
   -1.5574    8.8430   14.8074 C   0  0  0  0  0  0  0  0  0  0  0  0
   -3.6067    2.0003   14.2227 H   0  0  0  0  0  0  0  0  0  0  0  0
   -5.0953    1.0483   14.0671 H   0  0  0  0  0  0  0  0  0  0  0  0
   -5.7420   -1.4058   16.3793 H   0  0  0  0  0  0  0  0  0  0  0  0
   -4.5186   -0.6126   15.3720 H   0  0  0  0  0  0  0  0  0  0  0  0
   -6.4358    3.1310   14.3308 H   0  0  0  0  0  0  0  0  0  0  0  0
   -5.4055    3.1406   12.8730 H   0  0  0  0  0  0  0  0  0  0  0  0
   -4.4132    4.3833   15.4447 H   0  0  0  0  0  0  0  0  0  0  0  0
   -5.5994    5.2501   14.4341 H   0  0  0  0  0  0  0  0  0  0  0  0
   -4.1286    5.3659   12.5867 H   0  0  0  0  0  0  0  0  0  0  0  0
   -3.0109    4.1623   13.2886 H   0  0  0  0  0  0  0  0  0  0  0  0
   -2.1271    5.6493   14.8244 H   0  0  0  0  0  0  0  0  0  0  0  0
   -3.5523    6.7274   14.7749 H   0  0  0  0  0  0  0  0  0  0  0  0
   -2.9300    7.6465   12.6863 H   0  0  0  0  0  0  0  0  0  0  0  0
   -1.7280    6.3648   12.3829 H   0  0  0  0  0  0  0  0  0  0  0  0
   -0.6205    8.4393   12.9413 H   0  0  0  0  0  0  0  0  0  0  0  0
   -0.3229    7.2172   14.2027 H   0  0  0  0  0  0  0  0  0  0  0  0
   -0.7059    9.4282   15.1749 H   0  0  0  0  0  0  0  0  0  0  0  0
   -2.0016    8.3071   15.6510 H   0  0  0  0  0  0  0  0  0  0  0  0
   -2.2989    9.5278   14.3844 H   0  0  0  0  0  0  0  0  0  0  0  0
  1  5  1  0  0  0  0
  1  8  1  0  0  0  0
  1 14  1  0  0  0  0
  1 15  1  0  0  0  0
  2  4  1  0  0  0  0
  2 16  1  0  0  0  0
  2 17  1  0  0  0  0
  3  4  2  0  0  0  0
  4  6  2  0  0  0  0
  4  8  1  0  0  0  0
  5  7  1  0  0  0  0
  5 18  1  0  0  0  0
  5 19  1  0  0  0  0
  7  9  1  0  0  0  0
  7 20  1  0  0  0  0
  7 21  1  0  0  0  0
  9 10  1  0  0  0  0
  9 22  1  0  0  0  0
  9 23  1  0  0  0  0
 10 11  1  0  0  0  0
 10 24  1  0  0  0  0
 10 25  1  0  0  0  0
 11 12  1  0  0  0  0
 11 26  1  0  0  0  0
 11 27  1  0  0  0  0
 12 13  1  0  0  0  0
 12 28  1  0  0  0  0
 12 29  1  0  0  0  0
 13 30  1  0  0  0  0
 13 31  1  0  0  0  0
 13 32  1  0  0  0  0
M  END
$$$$
