BPK
 OpenBabel04091916253D

 39 41  0  0  0  0  0  0  0  0999 V2000
  -24.2440   27.8657   12.4866 C   0  0  0  0  0  0  0  0  0  0  0  0
  -25.4452   28.3629   11.9834 C   0  0  0  0  0  0  0  0  0  0  0  0
  -24.2384   26.9960   13.5804 C   0  0  0  0  0  0  0  0  0  0  0  0
  -31.1779   27.3522   21.1968 C   0  0  0  0  0  0  0  0  0  0  0  0
  -26.6436   27.9780   12.5682 C   0  0  0  0  0  0  0  0  0  0  0  0
  -25.4349   26.6225   14.1748 C   0  0  0  0  0  0  0  0  0  0  0  0
  -31.7276   26.0877   21.4242 C   0  0  0  0  0  0  0  0  0  0  0  0
  -30.5222   27.6289   19.9947 C   0  0  0  0  0  0  0  0  0  0  0  0
  -30.9487   25.3682   19.2793 C   0  0  0  0  0  0  0  0  0  0  0  0
  -26.6427   27.1114   13.6577 C   0  0  0  0  0  0  0  0  0  0  0  0
  -31.6097   25.0812   20.4636 C   0  0  0  0  0  0  0  0  0  0  0  0
  -30.4312   26.6373   19.0241 C   0  0  0  0  0  0  0  0  0  0  0  0
  -29.5405   26.3741   15.5135 C   0  0  0  0  0  0  0  0  0  0  0  0
  -29.9258   26.0763   14.2244 C   0  0  0  0  0  0  0  0  0  0  0  0
  -27.8881   26.7392   14.2747 C   0  0  0  0  0  0  0  0  0  0  0  0
  -31.1523   25.5599   13.6004 C   0  0  0  0  0  0  0  0  0  0  0  0
  -32.1672   23.7103   20.6641 C   0  0  0  0  0  0  0  0  0  0  0  0
  -30.3205   26.2070   16.7421 C   0  0  0  0  0  0  0  0  0  0  0  0
  -28.2210   26.7337   15.5385 N   0  0  0  0  0  0  0  0  0  0  0  0
  -28.8735   26.3382   13.4050 O   0  0  0  0  0  0  0  0  0  0  0  0
  -31.6045   23.1721   21.8467 O   0  0  0  0  0  0  0  0  0  0  0  0
  -29.8141   26.9660   17.8463 O   0  0  0  0  0  0  0  0  0  0  0  0
  -23.3053   28.1644   12.0341 H   0  0  0  0  0  0  0  0  0  0  0  0
  -25.4508   29.0479   11.1406 H   0  0  0  0  0  0  0  0  0  0  0  0
  -23.3002   26.6111   13.9707 H   0  0  0  0  0  0  0  0  0  0  0  0
  -31.2612   28.1199   21.9603 H   0  0  0  0  0  0  0  0  0  0  0  0
  -27.5856   28.3723   12.1851 H   0  0  0  0  0  0  0  0  0  0  0  0
  -25.4435   25.9493   15.0314 H   0  0  0  0  0  0  0  0  0  0  0  0
  -32.2263   25.8701   22.3642 H   0  0  0  0  0  0  0  0  0  0  0  0
  -30.0982   28.6125   19.8165 H   0  0  0  0  0  0  0  0  0  0  0  0
  -30.8409   24.5495   18.5798 H   0  0  0  0  0  0  0  0  0  0  0  0
  -31.0312   25.4755   12.5170 H   0  0  0  0  0  0  0  0  0  0  0  0
  -31.9902   26.2317   13.8037 H   0  0  0  0  0  0  0  0  0  0  0  0
  -31.3987   24.5679   13.9932 H   0  0  0  0  0  0  0  0  0  0  0  0
  -31.9151   23.0468   19.8262 H   0  0  0  0  0  0  0  0  0  0  0  0
  -33.2566   23.7560   20.7470 H   0  0  0  0  0  0  0  0  0  0  0  0
  -30.2474   25.1322   16.9207 H   0  0  0  0  0  0  0  0  0  0  0  0
  -31.3657   26.4891   16.5725 H   0  0  0  0  0  0  0  0  0  0  0  0
  -31.9511   22.2834   21.9442 H   0  0  0  0  0  0  0  0  0  0  0  0
  1  2  2  0  0  0  0
  1  3  1  0  0  0  0
  1 23  1  0  0  0  0
  2  5  1  0  0  0  0
  2 24  1  0  0  0  0
  3  6  2  0  0  0  0
  3 25  1  0  0  0  0
  4  7  2  0  0  0  0
  4  8  1  0  0  0  0
  4 26  1  0  0  0  0
  5 10  2  0  0  0  0
  5 27  1  0  0  0  0
  6 10  1  0  0  0  0
  6 28  1  0  0  0  0
  7 11  1  0  0  0  0
  7 29  1  0  0  0  0
  8 12  2  0  0  0  0
  8 30  1  0  0  0  0
  9 11  2  0  0  0  0
  9 12  1  0  0  0  0
  9 31  1  0  0  0  0
 10 15  1  0  0  0  0
 11 17  1  0  0  0  0
 12 22  1  0  0  0  0
 13 14  2  0  0  0  0
 13 18  1  0  0  0  0
 13 19  1  0  0  0  0
 14 16  1  0  0  0  0
 14 20  1  0  0  0  0
 15 19  2  0  0  0  0
 15 20  1  0  0  0  0
 16 32  1  0  0  0  0
 16 33  1  0  0  0  0
 16 34  1  0  0  0  0
 17 21  1  0  0  0  0
 17 35  1  0  0  0  0
 17 36  1  0  0  0  0
 18 22  1  0  0  0  0
 18 37  1  0  0  0  0
 18 38  1  0  0  0  0
 21 39  1  0  0  0  0
M  END
$$$$
