BPX
 OpenBabel04091912353D

 33 33  0  0  1  0  0  0  0  0999 V2000
  -24.8768    1.6414   -7.2713 C   0  0  0  0  0  0  0  0  0  0  0  0
  -25.7454    1.3030   -6.2402 C   0  0  0  0  0  0  0  0  0  0  0  0
  -25.3454    0.3775   -5.2777 C   0  0  0  0  0  0  0  0  0  0  0  0
  -24.0862   -0.2139   -5.3639 C   0  0  0  0  0  0  0  0  0  0  0  0
  -23.2242    0.1110   -6.4108 C   0  0  0  0  0  0  0  0  0  0  0  0
  -23.6119    1.0486   -7.3722 C   0  0  0  0  0  0  0  0  0  0  0  0
  -22.7172    1.3703   -8.5432 C   0  0  0  0  0  0  0  0  0  0  0  0
  -22.9688    0.4655   -9.7510 C   0  0  1  0  0  0  0  0  0  0  0  0
  -24.2914    0.7587  -10.4831 C   0  0  0  0  0  0  0  0  0  0  0  0
  -24.6797   -0.1591  -11.2674 O   0  0  0  0  0  0  0  0  0  0  0  0
  -24.8161    1.8864  -10.2838 O   0  0  0  0  0  0  0  0  0  0  0  0
  -21.8503    0.6425  -10.7969 C   0  0  0  0  0  0  0  0  0  0  0  0
  -20.8785   -0.5439  -10.8138 C   0  0  0  0  0  0  0  0  0  0  0  0
  -20.2945   -0.7622   -9.5246 O   0  0  0  0  0  0  0  0  0  0  0  0
  -21.5923   -1.7212  -11.0936 O   0  0  0  0  0  0  0  0  0  0  0  0
  -19.7219   -0.3264  -11.7796 C   0  0  0  0  0  0  0  0  0  0  0  0
  -20.1890   -0.4000  -13.1818 N   0  0  0  0  0  0  0  0  0  0  0  0
  -20.1553   -1.5163  -13.7258 O   0  0  0  0  0  0  0  0  0  0  0  0
  -20.4636    0.6649  -13.7459 O   0  0  0  0  0  0  0  0  0  0  0  0
  -25.2099    2.3497   -8.0294 H   0  0  0  0  0  0  0  0  0  0  0  0
  -26.7341    1.7512   -6.2126 H   0  0  0  0  0  0  0  0  0  0  0  0
  -26.0263    0.1119   -4.4793 H   0  0  0  0  0  0  0  0  0  0  0  0
  -23.7803   -0.9457   -4.6224 H   0  0  0  0  0  0  0  0  0  0  0  0
  -22.2565   -0.3791   -6.4901 H   0  0  0  0  0  0  0  0  0  0  0  0
  -21.6743    1.2658   -8.2101 H   0  0  0  0  0  0  0  0  0  0  0  0
  -22.8248    2.4287   -8.8131 H   0  0  0  0  0  0  0  0  0  0  0  0
  -23.0093   -0.5751   -9.4151 H   0  0  0  0  0  0  0  0  0  0  0  0
  -21.2903    1.5675  -10.5936 H   0  0  0  0  0  0  0  0  0  0  0  0
  -22.2813    0.7646  -11.7978 H   0  0  0  0  0  0  0  0  0  0  0  0
  -19.9928    0.0998   -9.1831 H   0  0  0  0  0  0  0  0  0  0  0  0
  -20.9845   -2.4589  -11.1320 H   0  0  0  0  0  0  0  0  0  0  0  0
  -18.9409   -1.0889  -11.6511 H   0  0  0  0  0  0  0  0  0  0  0  0
  -19.2427    0.6530  -11.6210 H   0  0  0  0  0  0  0  0  0  0  0  0
  1  2  2  0  0  0  0
  1  6  1  0  0  0  0
  1 20  1  0  0  0  0
  2  3  1  0  0  0  0
  2 21  1  0  0  0  0
  3  4  2  0  0  0  0
  3 22  1  0  0  0  0
  4  5  1  0  0  0  0
  4 23  1  0  0  0  0
  5  6  2  0  0  0  0
  5 24  1  0  0  0  0
  6  7  1  0  0  0  0
  7  8  1  0  0  0  0
  7 25  1  0  0  0  0
  7 26  1  0  0  0  0
  8  9  1  0  0  0  0
  8 12  1  0  0  0  0
  8 27  1  1  0  0  0
  9 10  2  0  0  0  0
  9 11  1  0  0  0  0
 12 13  1  0  0  0  0
 12 28  1  0  0  0  0
 12 29  1  0  0  0  0
 13 14  1  0  0  0  0
 13 15  1  0  0  0  0
 13 16  1  0  0  0  0
 14 30  1  0  0  0  0
 15 31  1  0  0  0  0
 16 17  1  0  0  0  0
 16 32  1  0  0  0  0
 16 33  1  0  0  0  0
 17 18  2  0  0  0  0
 17 19  2  0  0  0  0
M  END
$$$$
