BR0
 OpenBabel04091914113D

 34 36  0  0  1  0  0  0  0  0999 V2000
   51.6779  -20.6539   89.8704 C   0  0  0  0  0  0  0  0  0  0  0  0
   54.1164  -21.1517   89.6599 N   0  0  0  0  0  0  0  0  0  0  0  0
   51.7270  -21.3504   90.9242 O   0  0  0  0  0  0  0  0  0  0  0  0
   53.0461  -20.2853   89.1828 C   0  0  2  0  0  0  0  0  0  0  0  0
   53.4701  -18.8012   89.1991 C   0  0  2  0  0  0  0  0  0  0  0  0
   54.8625  -18.5373   89.8266 C   0  0  1  0  0  0  0  0  0  0  0  0
   55.2380  -23.8754   90.2183 O   0  0  0  0  0  0  0  0  0  0  0  0
   59.1391  -17.9845   89.8076 O   0  0  0  0  0  0  0  0  0  0  0  0
   56.2484  -24.1019   88.2031 O   0  0  0  0  0  0  0  0  0  0  0  0
   57.2878  -17.0068   89.2033 O   0  0  0  0  0  0  0  0  0  0  0  0
   57.7017  -21.7295   89.0762 C   0  0  0  0  0  0  0  0  0  0  0  0
   58.1888  -20.4238   89.1382 C   0  0  0  0  0  0  0  0  0  0  0  0
   53.0806  -18.1317   91.4713 C   0  0  0  0  0  0  0  0  0  0  0  0
   52.5882  -17.8863   90.0536 C   0  0  0  0  0  0  0  0  0  0  0  0
   55.8787  -23.4288   89.2196 C   0  0  0  0  0  0  0  0  0  0  0  0
   56.3453  -21.9887   89.2736 C   0  0  0  0  0  0  0  0  0  0  0  0
   57.3097  -19.3533   89.3619 C   0  0  0  0  0  0  0  0  0  0  0  0
   55.4595  -20.9137   89.4873 C   0  0  0  0  0  0  0  0  0  0  0  0
   57.9398  -18.0288   89.4790 N   0  0  0  0  0  0  0  0  0  0  0  0
   54.5815  -18.3980   91.3382 C   0  0  0  0  0  0  0  0  0  0  0  0
   55.9210  -19.5742   89.5109 C   0  0  0  0  0  0  0  0  0  0  0  0
   50.6430  -20.1969   89.2900 O   0  0  0  0  0  0  0  0  0  0  0  0
   53.8210  -22.0404   90.0850 H   0  0  0  0  0  0  0  0  0  0  0  0
   52.8886  -20.5526   88.1267 H   0  0  0  0  0  0  0  0  0  0  0  0
   53.4749  -18.4401   88.1602 H   0  0  0  0  0  0  0  0  0  0  0  0
   55.1570  -17.5553   89.4495 H   0  0  0  0  0  0  0  0  0  0  0  0
   58.3816  -22.5634   88.8950 H   0  0  0  0  0  0  0  0  0  0  0  0
   59.2544  -20.2702   89.0057 H   0  0  0  0  0  0  0  0  0  0  0  0
   52.5905  -19.0101   91.9050 H   0  0  0  0  0  0  0  0  0  0  0  0
   52.8619  -17.2861   92.1280 H   0  0  0  0  0  0  0  0  0  0  0  0
   51.5165  -18.0519   89.9436 H   0  0  0  0  0  0  0  0  0  0  0  0
   52.7640  -16.8393   89.7780 H   0  0  0  0  0  0  0  0  0  0  0  0
   55.1586  -17.5680   91.7613 H   0  0  0  0  0  0  0  0  0  0  0  0
   54.8510  -19.2963   91.9058 H   0  0  0  0  0  0  0  0  0  0  0  0
  1  3  2  0  0  0  0
  1  4  1  0  0  0  0
  1 22  1  0  0  0  0
  2  4  1  0  0  0  0
  2 18  1  0  0  0  0
  2 23  1  0  0  0  0
  4  5  1  0  0  0  0
  4 24  1  6  0  0  0
  5  6  1  0  0  0  0
  5 14  1  0  0  0  0
  5 25  1  6  0  0  0
  6 20  1  0  0  0  0
  6 21  1  0  0  0  0
  6 26  1  6  0  0  0
  7 15  2  0  0  0  0
  8 19  2  0  0  0  0
  9 15  1  0  0  0  0
 10 19  2  0  0  0  0
 11 12  2  0  0  0  0
 11 16  1  0  0  0  0
 11 27  1  0  0  0  0
 12 17  1  0  0  0  0
 12 28  1  0  0  0  0
 13 14  1  0  0  0  0
 13 20  1  0  0  0  0
 13 29  1  0  0  0  0
 13 30  1  0  0  0  0
 14 31  1  0  0  0  0
 14 32  1  0  0  0  0
 15 16  1  0  0  0  0
 16 18  2  0  0  0  0
 17 19  1  0  0  0  0
 17 21  2  0  0  0  0
 18 21  1  0  0  0  0
 20 33  1  0  0  0  0
 20 34  1  0  0  0  0
M  END
$$$$
