BRN
 OpenBabel04091912503D

 38 39  0  0  0  0  0  0  0  0999 V2000
   -1.3669   15.3215   18.1999 C   0  0  0  0  0  0  0  0  0  0  0  0
   -1.4626   13.9346   18.2252 C   0  0  0  0  0  0  0  0  0  0  0  0
   -1.7239   13.2317   17.0464 C   0  0  0  0  0  0  0  0  0  0  0  0
   -1.8814   13.9021   15.8196 C   0  0  0  0  0  0  0  0  0  0  0  0
   -1.7629   15.3028   15.8069 C   0  0  0  0  0  0  0  0  0  0  0  0
   -1.5118   16.0015   16.9863 C   0  0  0  0  0  0  0  0  0  0  0  0
   -2.1803   13.1506   14.5907 C   0  0  0  0  0  0  0  0  0  0  0  0
   -2.8290   13.7252   13.6042 N   0  0  0  0  0  0  0  0  0  0  0  0
   -1.8057   11.8901   14.4801 N   0  0  0  0  0  0  0  0  0  0  0  0
   -1.2226   16.0299   19.3937 N   0  0  0  0  0  0  0  0  0  0  0  0
   -0.1720   16.6882   19.3606 N   0  0  0  0  0  0  0  0  0  0  0  0
   -0.2664   17.5413   20.3797 N   0  0  0  0  0  0  0  0  0  0  0  0
    0.7498   18.4638   20.6072 C   0  0  0  0  0  0  0  0  0  0  0  0
    1.9867   18.3790   19.9624 C   0  0  0  0  0  0  0  0  0  0  0  0
    3.0261   19.2413   20.2921 C   0  0  0  0  0  0  0  0  0  0  0  0
    2.8459   20.2193   21.2800 C   0  0  0  0  0  0  0  0  0  0  0  0
    1.6024   20.3152   21.9162 C   0  0  0  0  0  0  0  0  0  0  0  0
    0.5688   19.4421   21.5857 C   0  0  0  0  0  0  0  0  0  0  0  0
    3.9461   21.1240   21.6389 C   0  0  0  0  0  0  0  0  0  0  0  0
    4.8192   21.4768   20.7274 N   0  0  0  0  0  0  0  0  0  0  0  0
    4.0414   21.5849   22.8748 N   0  0  0  0  0  0  0  0  0  0  0  0
   -1.3562   13.4024   19.1691 H   0  0  0  0  0  0  0  0  0  0  0  0
   -1.8350   12.1548   17.1300 H   0  0  0  0  0  0  0  0  0  0  0  0
   -1.8653   15.8871   14.8964 H   0  0  0  0  0  0  0  0  0  0  0  0
   -1.4392   17.0885   16.9724 H   0  0  0  0  0  0  0  0  0  0  0  0
   -3.0603   13.2456   12.7471 H   0  0  0  0  0  0  0  0  0  0  0  0
   -1.2730   11.4383   15.2145 H   0  0  0  0  0  0  0  0  0  0  0  0
   -2.0126   11.3276   13.6661 H   0  0  0  0  0  0  0  0  0  0  0  0
   -1.1869   17.6960   20.7731 H   0  0  0  0  0  0  0  0  0  0  0  0
    2.1580   17.6189   19.1998 H   0  0  0  0  0  0  0  0  0  0  0  0
    3.9748   19.1064   19.7808 H   0  0  0  0  0  0  0  0  0  0  0  0
    1.4004   21.0707   22.6739 H   0  0  0  0  0  0  0  0  0  0  0  0
   -0.3856   19.5258   22.1022 H   0  0  0  0  0  0  0  0  0  0  0  0
    5.6017   22.0976   20.9180 H   0  0  0  0  0  0  0  0  0  0  0  0
    3.3882   21.2973   23.5938 H   0  0  0  0  0  0  0  0  0  0  0  0
    4.7767   22.2153   23.1584 H   0  0  0  0  0  0  0  0  0  0  0  0
   -3.1548   14.6855   13.6789 H   0  0  0  0  0  0  0  0  0  0  0  0
    4.7228   21.1499   19.7704 H   0  0  0  0  0  0  0  0  0  0  0  0
  1  2  2  0  0  0  0
  1  6  1  0  0  0  0
  1 10  1  0  0  0  0
  2  3  1  0  0  0  0
  2 22  1  0  0  0  0
  3  4  2  0  0  0  0
  3 23  1  0  0  0  0
  4  5  1  0  0  0  0
  4  7  1  0  0  0  0
  5  6  2  0  0  0  0
  5 24  1  0  0  0  0
  6 25  1  0  0  0  0
  7  8  2  0  0  0  0
  7  9  1  0  0  0  0
  8 26  1  0  0  0  0
  8 37  1  0  0  0  0
  9 27  1  0  0  0  0
  9 28  1  0  0  0  0
 10 11  2  0  0  0  0
 11 12  1  0  0  0  0
 12 13  1  0  0  0  0
 12 29  1  0  0  0  0
 13 14  2  0  0  0  0
 13 18  1  0  0  0  0
 14 15  1  0  0  0  0
 14 30  1  0  0  0  0
 15 16  2  0  0  0  0
 15 31  1  0  0  0  0
 16 17  1  0  0  0  0
 16 19  1  0  0  0  0
 17 18  2  0  0  0  0
 17 32  1  0  0  0  0
 18 33  1  0  0  0  0
 19 20  2  0  0  0  0
 19 21  1  0  0  0  0
 20 34  1  0  0  0  0
 20 38  1  0  0  0  0
 21 35  1  0  0  0  0
 21 36  1  0  0  0  0
M  END
$$$$
