BRN
 OpenBabel04091912543D

 38 39  0  0  0  0  0  0  0  0999 V2000
  -29.1303  -11.3690   77.5434 C   0  0  0  0  0  0  0  0  0  0  0  0
  -30.0904  -10.4927   77.0164 C   0  0  0  0  0  0  0  0  0  0  0  0
  -30.7191   -9.5236   77.8096 C   0  0  0  0  0  0  0  0  0  0  0  0
  -30.4347   -9.4013   79.1781 C   0  0  0  0  0  0  0  0  0  0  0  0
  -29.4776  -10.2779   79.7122 C   0  0  0  0  0  0  0  0  0  0  0  0
  -28.8329  -11.2338   78.9089 C   0  0  0  0  0  0  0  0  0  0  0  0
  -31.1238   -8.3743   79.9997 C   0  0  0  0  0  0  0  0  0  0  0  0
  -32.3548   -8.0224   79.7088 N   0  0  0  0  0  0  0  0  0  0  0  0
  -30.5098   -7.8181   81.0245 N   0  0  0  0  0  0  0  0  0  0  0  0
  -28.4108  -12.3239   76.7792 N   0  0  0  0  0  0  0  0  0  0  0  0
  -28.9184  -12.5093   75.6585 N   0  0  0  0  0  0  0  0  0  0  0  0
  -28.0946  -13.2825   74.9284 N   0  0  0  0  0  0  0  0  0  0  0  0
  -28.4901  -13.6707   73.6409 C   0  0  0  0  0  0  0  0  0  0  0  0
  -29.8353  -13.6487   73.2616 C   0  0  0  0  0  0  0  0  0  0  0  0
  -30.2349  -13.9397   71.9600 C   0  0  0  0  0  0  0  0  0  0  0  0
  -29.2970  -14.2431   70.9598 C   0  0  0  0  0  0  0  0  0  0  0  0
  -27.9415  -14.2297   71.3186 C   0  0  0  0  0  0  0  0  0  0  0  0
  -27.5447  -13.9531   72.6464 C   0  0  0  0  0  0  0  0  0  0  0  0
  -29.7635  -14.5953   69.6039 C   0  0  0  0  0  0  0  0  0  0  0  0
  -30.9065  -15.2426   69.4730 N   0  0  0  0  0  0  0  0  0  0  0  0
  -29.0835  -14.2577   68.5335 N   0  0  0  0  0  0  0  0  0  0  0  0
  -30.3506  -10.5409   75.9543 H   0  0  0  0  0  0  0  0  0  0  0  0
  -31.4221   -8.8490   77.3171 H   0  0  0  0  0  0  0  0  0  0  0  0
  -29.2142  -10.2489   80.7712 H   0  0  0  0  0  0  0  0  0  0  0  0
  -28.0830  -11.8905   79.3510 H   0  0  0  0  0  0  0  0  0  0  0  0
  -32.8553   -7.3172   80.2323 H   0  0  0  0  0  0  0  0  0  0  0  0
  -29.5541   -8.0543   81.2589 H   0  0  0  0  0  0  0  0  0  0  0  0
  -30.9494   -7.1124   81.5977 H   0  0  0  0  0  0  0  0  0  0  0  0
  -27.3235  -13.7577   75.3833 H   0  0  0  0  0  0  0  0  0  0  0  0
  -30.6014  -13.4346   74.0101 H   0  0  0  0  0  0  0  0  0  0  0  0
  -31.3001  -13.9059   71.7451 H   0  0  0  0  0  0  0  0  0  0  0  0
  -27.1599  -14.4403   70.5891 H   0  0  0  0  0  0  0  0  0  0  0  0
  -26.4824  -13.9357   72.8871 H   0  0  0  0  0  0  0  0  0  0  0  0
  -31.2886  -15.5067   68.5712 H   0  0  0  0  0  0  0  0  0  0  0  0
  -28.2227  -13.7281   68.6031 H   0  0  0  0  0  0  0  0  0  0  0  0
  -29.3981  -14.4910   67.5987 H   0  0  0  0  0  0  0  0  0  0  0  0
  -32.8616   -8.4685   78.9502 H   0  0  0  0  0  0  0  0  0  0  0  0
  -31.4296  -15.5367   70.2897 H   0  0  0  0  0  0  0  0  0  0  0  0
  1  2  2  0  0  0  0
  1  6  1  0  0  0  0
  1 10  1  0  0  0  0
  2  3  1  0  0  0  0
  2 22  1  0  0  0  0
  3  4  2  0  0  0  0
  3 23  1  0  0  0  0
  4  5  1  0  0  0  0
  4  7  1  0  0  0  0
  5  6  2  0  0  0  0
  5 24  1  0  0  0  0
  6 25  1  0  0  0  0
  7  8  2  0  0  0  0
  7  9  1  0  0  0  0
  8 26  1  0  0  0  0
  8 37  1  0  0  0  0
  9 27  1  0  0  0  0
  9 28  1  0  0  0  0
 10 11  2  0  0  0  0
 11 12  1  0  0  0  0
 12 13  1  0  0  0  0
 12 29  1  0  0  0  0
 13 14  2  0  0  0  0
 13 18  1  0  0  0  0
 14 15  1  0  0  0  0
 14 30  1  0  0  0  0
 15 16  2  0  0  0  0
 15 31  1  0  0  0  0
 16 17  1  0  0  0  0
 16 19  1  0  0  0  0
 17 18  2  0  0  0  0
 17 32  1  0  0  0  0
 18 33  1  0  0  0  0
 19 20  2  0  0  0  0
 19 21  1  0  0  0  0
 20 34  1  0  0  0  0
 20 38  1  0  0  0  0
 21 35  1  0  0  0  0
 21 36  1  0  0  0  0
M  END
$$$$
