BTN
 OpenBabel04091915393D

 31 32  0  0  1  0  0  0  0  0999 V2000
   -6.4396  -26.4422   -3.9469 C   0  0  0  0  0  0  0  0  0  0  0  0
   -6.6180  -27.6633   -3.6800 O   0  0  0  0  0  0  0  0  0  0  0  0
   -6.9373  -25.8391   -4.9297 O   0  0  0  0  0  0  0  0  0  0  0  0
   -5.5332  -25.6106   -3.0034 C   0  0  0  0  0  0  0  0  0  0  0  0
   -5.5554  -25.9560   -1.5088 C   0  0  0  0  0  0  0  0  0  0  0  0
   -6.9429  -25.8541   -0.8773 C   0  0  0  0  0  0  0  0  0  0  0  0
   -6.9509  -26.2092    0.6182 C   0  0  0  0  0  0  0  0  0  0  0  0
   -8.3388  -26.0178    1.1905 C   0  0  2  0  0  0  0  0  0  0  0  0
   -8.8510  -24.3058    1.4038 S   0  0  0  0  0  0  0  0  0  0  0  0
  -10.3211  -24.8896    2.2752 C   0  0  0  0  0  0  0  0  0  0  0  0
   -9.8126  -25.9849    3.2167 C   0  0  2  0  0  0  0  0  0  0  0  0
   -9.2672  -25.4676    4.4711 N   0  0  0  0  0  0  0  0  0  0  0  0
   -7.9314  -25.7609    4.6077 C   0  0  0  0  0  0  0  0  0  0  0  0
   -7.2265  -25.4493    5.5855 O   0  0  0  0  0  0  0  0  0  0  0  0
   -7.5287  -26.4521    3.5015 N   0  0  0  0  0  0  0  0  0  0  0  0
   -8.6061  -26.6682    2.5483 C   0  0  2  0  0  0  0  0  0  0  0  0
   -5.8080  -24.5502   -3.1074 H   0  0  0  0  0  0  0  0  0  0  0  0
   -4.4901  -25.7287   -3.3517 H   0  0  0  0  0  0  0  0  0  0  0  0
   -4.8822  -25.2627   -0.9807 H   0  0  0  0  0  0  0  0  0  0  0  0
   -5.1829  -26.9768   -1.3824 H   0  0  0  0  0  0  0  0  0  0  0  0
   -7.6236  -26.5407   -1.3960 H   0  0  0  0  0  0  0  0  0  0  0  0
   -7.3156  -24.8299   -0.9904 H   0  0  0  0  0  0  0  0  0  0  0  0
   -6.2129  -25.5900    1.1448 H   0  0  0  0  0  0  0  0  0  0  0  0
   -6.6713  -27.2674    0.7375 H   0  0  0  0  0  0  0  0  0  0  0  0
   -9.0650  -26.4208    0.4889 H   0  0  0  0  0  0  0  0  0  0  0  0
  -11.0356  -25.3212    1.5513 H   0  0  0  0  0  0  0  0  0  0  0  0
  -10.7867  -24.0700    2.8061 H   0  0  0  0  0  0  0  0  0  0  0  0
  -10.6147  -26.6958    3.4562 H   0  0  0  0  0  0  0  0  0  0  0  0
   -9.7746  -24.9352    5.1589 H   0  0  0  0  0  0  0  0  0  0  0  0
   -6.5663  -26.7344    3.3503 H   0  0  0  0  0  0  0  0  0  0  0  0
   -8.7743  -27.7454    2.4059 H   0  0  0  0  0  0  0  0  0  0  0  0
  1  2  2  0  0  0  0
  1  3  1  0  0  0  0
  1  4  1  0  0  0  0
  4  5  1  0  0  0  0
  4 17  1  0  0  0  0
  4 18  1  0  0  0  0
  5  6  1  0  0  0  0
  5 19  1  0  0  0  0
  5 20  1  0  0  0  0
  6  7  1  0  0  0  0
  6 21  1  0  0  0  0
  6 22  1  0  0  0  0
  7  8  1  0  0  0  0
  7 23  1  0  0  0  0
  7 24  1  0  0  0  0
  8  9  1  0  0  0  0
  8 16  1  0  0  0  0
  8 25  1  6  0  0  0
  9 10  1  0  0  0  0
 10 11  1  0  0  0  0
 10 26  1  0  0  0  0
 10 27  1  0  0  0  0
 11 12  1  0  0  0  0
 11 16  1  0  0  0  0
 11 28  1  1  0  0  0
 12 13  1  0  0  0  0
 12 29  1  0  0  0  0
 13 14  2  0  0  0  0
 13 15  1  0  0  0  0
 15 16  1  0  0  0  0
 15 30  1  0  0  0  0
 16 31  1  6  0  0  0
M  END
$$$$
