BTN
 OpenBabel04091916383D

 31 32  0  0  1  0  0  0  0  0999 V2000
    2.4782  -17.6231    0.5069 C   0  0  0  0  0  0  0  0  0  0  0  0
    3.2668  -18.3049   -0.2087 O   0  0  0  0  0  0  0  0  0  0  0  0
    1.2721  -17.8527    0.8003 O   0  0  0  0  0  0  0  0  0  0  0  0
    3.0586  -16.3344    1.0852 C   0  0  0  0  0  0  0  0  0  0  0  0
    4.4348  -16.4745    1.7266 C   0  0  0  0  0  0  0  0  0  0  0  0
    4.4897  -17.4722    2.8787 C   0  0  0  0  0  0  0  0  0  0  0  0
    5.9244  -17.5696    3.4034 C   0  0  0  0  0  0  0  0  0  0  0  0
    6.0194  -18.5103    4.5974 C   0  0  2  0  0  0  0  0  0  0  0  0
    5.2764  -17.8587    6.1275 S   0  0  0  0  0  0  0  0  0  0  0  0
    6.0873  -19.1218    7.1232 C   0  0  0  0  0  0  0  0  0  0  0  0
    7.4765  -19.2741    6.4982 C   0  0  2  0  0  0  0  0  0  0  0  0
    8.4219  -18.3394    7.0746 N   0  0  0  0  0  0  0  0  0  0  0  0
    8.8584  -17.4151    6.1553 C   0  0  0  0  0  0  0  0  0  0  0  0
    9.5396  -16.4336    6.4053 O   0  0  0  0  0  0  0  0  0  0  0  0
    8.4042  -17.7920    4.9178 N   0  0  0  0  0  0  0  0  0  0  0  0
    7.4523  -18.8861    4.9975 C   0  0  2  0  0  0  0  0  0  0  0  0
    2.3563  -15.9046    1.8096 H   0  0  0  0  0  0  0  0  0  0  0  0
    3.1409  -15.6182    0.2595 H   0  0  0  0  0  0  0  0  0  0  0  0
    4.7432  -15.4925    2.1072 H   0  0  0  0  0  0  0  0  0  0  0  0
    5.1690  -16.7645    0.9670 H   0  0  0  0  0  0  0  0  0  0  0  0
    4.1654  -18.4656    2.5468 H   0  0  0  0  0  0  0  0  0  0  0  0
    3.8116  -17.1568    3.6794 H   0  0  0  0  0  0  0  0  0  0  0  0
    6.3025  -16.5683    3.6491 H   0  0  0  0  0  0  0  0  0  0  0  0
    6.5646  -17.9557    2.5976 H   0  0  0  0  0  0  0  0  0  0  0  0
    5.4781  -19.4329    4.3700 H   0  0  0  0  0  0  0  0  0  0  0  0
    5.5165  -20.0527    7.0402 H   0  0  0  0  0  0  0  0  0  0  0  0
    6.1290  -18.8287    8.1754 H   0  0  0  0  0  0  0  0  0  0  0  0
    7.8674  -20.2833    6.6594 H   0  0  0  0  0  0  0  0  0  0  0  0
    8.5951  -18.1990    8.0584 H   0  0  0  0  0  0  0  0  0  0  0  0
    8.5828  -17.2205    4.1021 H   0  0  0  0  0  0  0  0  0  0  0  0
    7.8374  -19.6943    4.3630 H   0  0  0  0  0  0  0  0  0  0  0  0
  1  2  2  0  0  0  0
  1  3  1  0  0  0  0
  1  4  1  0  0  0  0
  4  5  1  0  0  0  0
  4 17  1  0  0  0  0
  4 18  1  0  0  0  0
  5  6  1  0  0  0  0
  5 19  1  0  0  0  0
  5 20  1  0  0  0  0
  6  7  1  0  0  0  0
  6 21  1  0  0  0  0
  6 22  1  0  0  0  0
  7  8  1  0  0  0  0
  7 23  1  0  0  0  0
  7 24  1  0  0  0  0
  8  9  1  0  0  0  0
  8 16  1  0  0  0  0
  8 25  1  6  0  0  0
  9 10  1  0  0  0  0
 10 11  1  0  0  0  0
 10 26  1  0  0  0  0
 10 27  1  0  0  0  0
 11 12  1  0  0  0  0
 11 16  1  0  0  0  0
 11 28  1  1  0  0  0
 12 13  1  0  0  0  0
 12 29  1  0  0  0  0
 13 14  2  0  0  0  0
 13 15  1  0  0  0  0
 15 16  1  0  0  0  0
 15 30  1  0  0  0  0
 16 31  1  6  0  0  0
M  END
$$$$
