BTN
 OpenBabel04091914593D

 31 32  0  0  1  0  0  0  0  0999 V2000
  -24.4501  -19.7144   14.4055 C   0  0  0  0  0  0  0  0  0  0  0  0
  -23.7344  -20.7255   14.1570 O   0  0  0  0  0  0  0  0  0  0  0  0
  -25.4712  -19.6163   15.1423 O   0  0  0  0  0  0  0  0  0  0  0  0
  -24.0011  -18.4256   13.7109 C   0  0  0  0  0  0  0  0  0  0  0  0
  -25.1555  -17.5946   13.1619 C   0  0  0  0  0  0  0  0  0  0  0  0
  -25.8142  -18.2761   11.9613 C   0  0  0  0  0  0  0  0  0  0  0  0
  -26.9604  -17.4282   11.4081 C   0  0  0  0  0  0  0  0  0  0  0  0
  -27.6271  -18.0781   10.1976 C   0  0  2  0  0  0  0  0  0  0  0  0
  -26.6402  -18.0353    8.6691 S   0  0  0  0  0  0  0  0  0  0  0  0
  -28.0728  -18.4887    7.6703 C   0  0  0  0  0  0  0  0  0  0  0  0
  -29.2553  -17.7506    8.3019 C   0  0  2  0  0  0  0  0  0  0  0  0
  -29.4745  -16.4449    7.7091 N   0  0  0  0  0  0  0  0  0  0  0  0
  -29.2477  -15.4239    8.5999 C   0  0  0  0  0  0  0  0  0  0  0  0
  -29.2971  -14.2350    8.3438 O   0  0  0  0  0  0  0  0  0  0  0  0
  -28.9748  -15.9785    9.8277 N   0  0  0  0  0  0  0  0  0  0  0  0
  -28.9601  -17.4301    9.7887 C   0  0  2  0  0  0  0  0  0  0  0  0
  -23.2981  -18.6623   12.9024 H   0  0  0  0  0  0  0  0  0  0  0  0
  -23.4497  -17.8329   14.4501 H   0  0  0  0  0  0  0  0  0  0  0  0
  -24.7710  -16.6149   12.8531 H   0  0  0  0  0  0  0  0  0  0  0  0
  -25.9042  -17.4078   13.9411 H   0  0  0  0  0  0  0  0  0  0  0  0
  -26.2044  -19.2580   12.2562 H   0  0  0  0  0  0  0  0  0  0  0  0
  -25.0596  -18.4492   11.1860 H   0  0  0  0  0  0  0  0  0  0  0  0
  -26.5968  -16.4222   11.1646 H   0  0  0  0  0  0  0  0  0  0  0  0
  -27.7117  -17.3094   12.1998 H   0  0  0  0  0  0  0  0  0  0  0  0
  -27.8119  -19.1381   10.4117 H   0  0  0  0  0  0  0  0  0  0  0  0
  -28.2105  -19.5709    7.7655 H   0  0  0  0  0  0  0  0  0  0  0  0
  -27.9248  -18.2459    6.6149 H   0  0  0  0  0  0  0  0  0  0  0  0
  -30.1812  -18.3226    8.1767 H   0  0  0  0  0  0  0  0  0  0  0  0
  -29.6426  -16.2440    6.7334 H   0  0  0  0  0  0  0  0  0  0  0  0
  -28.7731  -15.3974   10.6290 H   0  0  0  0  0  0  0  0  0  0  0  0
  -29.7690  -17.7727   10.4439 H   0  0  0  0  0  0  0  0  0  0  0  0
  1  2  2  0  0  0  0
  1  3  1  0  0  0  0
  1  4  1  0  0  0  0
  4  5  1  0  0  0  0
  4 17  1  0  0  0  0
  4 18  1  0  0  0  0
  5  6  1  0  0  0  0
  5 19  1  0  0  0  0
  5 20  1  0  0  0  0
  6  7  1  0  0  0  0
  6 21  1  0  0  0  0
  6 22  1  0  0  0  0
  7  8  1  0  0  0  0
  7 23  1  0  0  0  0
  7 24  1  0  0  0  0
  8  9  1  0  0  0  0
  8 16  1  0  0  0  0
  8 25  1  1  0  0  0
  9 10  1  0  0  0  0
 10 11  1  0  0  0  0
 10 26  1  0  0  0  0
 10 27  1  0  0  0  0
 11 12  1  0  0  0  0
 11 16  1  0  0  0  0
 11 28  1  6  0  0  0
 12 13  1  0  0  0  0
 12 29  1  0  0  0  0
 13 14  2  0  0  0  0
 13 15  1  0  0  0  0
 15 16  1  0  0  0  0
 15 30  1  0  0  0  0
 16 31  1  1  0  0  0
M  END
$$$$
