BZ2
 OpenBabel04091913103D

 17 18  0  0  0  0  0  0  0  0999 V2000
   15.3211   12.9092    3.5642 O   0  0  0  0  0  0  0  0  0  0  0  0
   15.7577   11.0262    2.3802 O   0  0  0  0  0  0  0  0  0  0  0  0
   13.8427    9.1500    8.7095 C   0  0  0  0  0  0  0  0  0  0  0  0
   13.9780    7.9509    8.0096 C   0  0  0  0  0  0  0  0  0  0  0  0
   14.0539   10.3488    8.0525 C   0  0  0  0  0  0  0  0  0  0  0  0
   14.3255    7.9186    6.6410 C   0  0  0  0  0  0  0  0  0  0  0  0
   14.6722   11.3536    5.7977 C   0  0  0  0  0  0  0  0  0  0  0  0
   14.8829    9.4144    4.6948 O   0  0  0  0  0  0  0  0  0  0  0  0
   15.3770   11.6420    3.4226 C   0  0  0  0  0  0  0  0  0  0  0  0
   14.9785   10.8014    4.5819 C   0  0  0  0  0  0  0  0  0  0  0  0
   14.3965   10.3449    6.7016 C   0  0  0  0  0  0  0  0  0  0  0  0
   14.5325    9.1523    6.0020 C   0  0  0  0  0  0  0  0  0  0  0  0
   13.5754    9.1689    9.7625 H   0  0  0  0  0  0  0  0  0  0  0  0
   13.8091    7.0212    8.5423 H   0  0  0  0  0  0  0  0  0  0  0  0
   13.9607   11.3044    8.5543 H   0  0  0  0  0  0  0  0  0  0  0  0
   14.4247    6.9707    6.1262 H   0  0  0  0  0  0  0  0  0  0  0  0
   14.6807   12.4255    6.0275 H   0  0  0  0  0  0  0  0  0  0  0  0
  1  9  2  0  0  0  0
  2  9  1  0  0  0  0
  3  4  2  0  0  0  0
  3  5  1  0  0  0  0
  3 13  1  0  0  0  0
  4  6  1  0  0  0  0
  4 14  1  0  0  0  0
  5 11  2  0  0  0  0
  5 15  1  0  0  0  0
  6 12  2  0  0  0  0
  6 16  1  0  0  0  0
  7 10  2  0  0  0  0
  7 11  1  0  0  0  0
  7 17  1  0  0  0  0
  8 10  1  0  0  0  0
  8 12  1  0  0  0  0
  9 10  1  0  0  0  0
 11 12  1  0  0  0  0
M  END
$$$$
