BZ3
 OpenBabel04091913103D

 20 21  0  0  1  0  0  0  0  0999 V2000
   10.8452    9.4721   -4.9880 C   0  0  0  0  0  0  0  0  0  0  0  0
   15.0638   10.6884   -0.2657 C   0  0  0  0  0  0  0  0  0  0  0  0
   14.4478    9.8267   -4.7373 C   0  0  0  0  0  0  0  0  0  0  0  0
   13.7627   10.5003   -0.6633 C   0  0  0  0  0  0  0  0  0  0  0  0
   15.4725   10.0850   -3.8164 C   0  0  0  0  0  0  0  0  0  0  0  0
   12.7628    9.9874   -3.0088 C   0  0  0  0  0  0  0  0  0  0  0  0
   15.8644   10.5599   -1.3706 N   0  3  0  0  0  0  0  0  0  0  0  0
   12.2192    9.5142   -5.3574 O   0  0  0  0  0  0  0  0  0  0  0  0
   13.1084    9.7768   -4.3485 C   0  0  2  0  0  0  0  0  0  0  0  0
   13.7723   10.2488   -2.0626 C   0  0  2  0  0  0  0  0  0  0  0  0
   15.0994   10.2916   -2.4844 C   0  0  2  0  0  0  0  0  0  0  0  0
   10.2587    9.2577   -5.8865 H   0  0  0  0  0  0  0  0  0  0  0  0
   10.5136   10.4401   -4.5973 H   0  0  0  0  0  0  0  0  0  0  0  0
   10.6553    8.6690   -4.2678 H   0  0  0  0  0  0  0  0  0  0  0  0
   15.4897   10.9021    0.7062 H   0  0  0  0  0  0  0  0  0  0  0  0
   14.7058    9.6617   -5.7816 H   0  0  0  0  0  0  0  0  0  0  0  0
   12.8906   10.5381   -0.0240 H   0  0  0  0  0  0  0  0  0  0  0  0
   16.5091   10.1216   -4.1323 H   0  0  0  0  0  0  0  0  0  0  0  0
   11.7377    9.9575   -2.6629 H   0  0  0  0  0  0  0  0  0  0  0  0
   16.8716   10.6485   -1.3753 H   0  0  0  0  0  0  0  0  0  0  0  0
  1  8  1  0  0  0  0
  1 12  1  0  0  0  0
  1 13  1  0  0  0  0
  1 14  1  0  0  0  0
  2  4  1  0  0  0  0
  2  7  1  0  0  0  0
  2 15  1  0  0  0  0
  3  5  1  0  0  0  0
  3  9  1  0  0  0  0
  3 16  1  0  0  0  0
  4 17  1  0  0  0  0
  5 18  1  0  0  0  0
  6  9  1  0  0  0  0
  6 10  1  0  0  0  0
  6 19  1  0  0  0  0
  7 11  1  0  0  0  0
  7 20  1  0  0  0  0
  9  8  1  1  0  0  0
 10  4  1  1  0  0  0
 10 11  1  0  0  0  0
 11  5  1  1  0  0  0
M  CHG  1   7   1
M  END
$$$$
