C1L
 OpenBabel04091915583D

 47 50  0  0  0  0  0  0  0  0999 V2000
    4.6209   11.6874   41.9180 C   0  0  0  0  0  0  0  0  0  0  0  0
    4.2841   13.1768   40.0879 C   0  0  0  0  0  0  0  0  0  0  0  0
    4.2557   12.6767   42.8638 C   0  0  0  0  0  0  0  0  0  0  0  0
    3.8945   13.5175   45.0177 C   0  0  0  0  0  0  0  0  0  0  0  0
    3.8723   14.1836   40.9817 C   0  0  0  0  0  0  0  0  0  0  0  0
    4.3093   12.3996   44.2771 C   0  0  0  0  0  0  0  0  0  0  0  0
    3.8554   13.9750   42.3692 C   0  0  0  0  0  0  0  0  0  0  0  0
    4.6928   11.9425   40.5560 C   0  0  0  0  0  0  0  0  0  0  0  0
    3.8221   13.6704   46.3898 C   0  0  0  0  0  0  0  0  0  0  0  0
    3.4938   14.7766   44.4755 C   0  0  0  0  0  0  0  0  0  0  0  0
    6.9406    9.6334   44.6459 C   0  0  0  0  0  0  0  0  0  0  0  0
    7.2532   12.0602   45.1394 C   0  0  0  0  0  0  0  0  0  0  0  0
    8.3502    9.6308   44.0419 C   0  0  0  0  0  0  0  0  0  0  0  0
    8.6506   11.9507   44.5184 C   0  0  0  0  0  0  0  0  0  0  0  0
    3.4584   15.5185   40.4078 C   0  0  0  0  0  0  0  0  0  0  0  0
    4.0814   12.8145   47.5698 C   0  0  0  0  0  0  0  0  0  0  0  0
    6.2346   10.2632   39.9404 C   0  0  0  0  0  0  0  0  0  0  0  0
    4.8975   11.1322   44.8176 C   0  0  0  0  0  0  0  0  0  0  0  0
    3.4867   15.0098   43.1461 N   0  0  0  0  0  0  0  0  0  0  0  0
    3.1961   15.6474   45.4303 N   0  0  0  0  0  0  0  0  0  0  0  0
    3.3679   14.9601   46.5665 N   0  3  0  0  0  0  0  0  0  0  0  0
    6.3615   11.0228   44.4679 N   0  3  0  0  0  0  0  0  0  0  0  0
    9.1755   10.6247   44.6616 O   0  0  0  0  0  0  0  0  0  0  0  0
    5.0547   11.0049   39.6320 O   0  0  0  0  0  0  0  0  0  0  0  0
    4.8195   10.6681   42.2268 H   0  0  0  0  0  0  0  0  0  0  0  0
    4.2803   13.3612   39.0147 H   0  0  0  0  0  0  0  0  0  0  0  0
    6.9521    9.4248   45.7205 H   0  0  0  0  0  0  0  0  0  0  0  0
    6.2866    8.9282   44.1239 H   0  0  0  0  0  0  0  0  0  0  0  0
    6.8320   13.0517   44.9545 H   0  0  0  0  0  0  0  0  0  0  0  0
    7.2559   11.8354   46.2103 H   0  0  0  0  0  0  0  0  0  0  0  0
    8.3112    9.8164   42.9608 H   0  0  0  0  0  0  0  0  0  0  0  0
    8.8212    8.6560   44.1956 H   0  0  0  0  0  0  0  0  0  0  0  0
    9.3340   12.6431   45.0174 H   0  0  0  0  0  0  0  0  0  0  0  0
    8.6243   12.2161   43.4536 H   0  0  0  0  0  0  0  0  0  0  0  0
    3.5057   15.5150   39.3133 H   0  0  0  0  0  0  0  0  0  0  0  0
    4.1283   16.3083   40.7624 H   0  0  0  0  0  0  0  0  0  0  0  0
    2.4277   15.7531   40.6909 H   0  0  0  0  0  0  0  0  0  0  0  0
    3.8316   13.3201   48.5091 H   0  0  0  0  0  0  0  0  0  0  0  0
    5.1443   12.5452   47.6229 H   0  0  0  0  0  0  0  0  0  0  0  0
    3.4874   11.8959   47.5247 H   0  0  0  0  0  0  0  0  0  0  0  0
    6.4373    9.5870   39.1041 H   0  0  0  0  0  0  0  0  0  0  0  0
    6.1110    9.6421   40.8336 H   0  0  0  0  0  0  0  0  0  0  0  0
    7.0974   10.9280   40.0580 H   0  0  0  0  0  0  0  0  0  0  0  0
    4.3833   10.2718   44.3734 H   0  0  0  0  0  0  0  0  0  0  0  0
    4.8186   11.0215   45.8978 H   0  0  0  0  0  0  0  0  0  0  0  0
    3.1717   15.4394   47.4430 H   0  0  0  0  0  0  0  0  0  0  0  0
    6.4401   11.2366   43.4691 H   0  0  0  0  0  0  0  0  0  0  0  0
  1  3  2  0  0  0  0
  1  8  1  0  0  0  0
  1 25  1  0  0  0  0
  2  5  1  0  0  0  0
  2  8  2  0  0  0  0
  2 26  1  0  0  0  0
  3  6  1  0  0  0  0
  3  7  1  0  0  0  0
  4  6  2  0  0  0  0
  4  9  1  0  0  0  0
  4 10  1  0  0  0  0
  5  7  2  0  0  0  0
  5 15  1  0  0  0  0
  6 18  1  0  0  0  0
  7 19  1  0  0  0  0
  8 24  1  0  0  0  0
  9 16  1  0  0  0  0
  9 21  2  0  0  0  0
 10 19  2  0  0  0  0
 10 20  1  0  0  0  0
 11 13  1  0  0  0  0
 11 22  1  0  0  0  0
 11 27  1  0  0  0  0
 11 28  1  0  0  0  0
 12 14  1  0  0  0  0
 12 22  1  0  0  0  0
 12 29  1  0  0  0  0
 12 30  1  0  0  0  0
 13 23  1  0  0  0  0
 13 31  1  0  0  0  0
 13 32  1  0  0  0  0
 14 23  1  0  0  0  0
 14 33  1  0  0  0  0
 14 34  1  0  0  0  0
 15 35  1  0  0  0  0
 15 36  1  0  0  0  0
 15 37  1  0  0  0  0
 16 38  1  0  0  0  0
 16 39  1  0  0  0  0
 16 40  1  0  0  0  0
 17 24  1  0  0  0  0
 17 41  1  0  0  0  0
 17 42  1  0  0  0  0
 17 43  1  0  0  0  0
 18 22  1  0  0  0  0
 18 44  1  0  0  0  0
 18 45  1  0  0  0  0
 20 21  1  0  0  0  0
 21 46  1  0  0  0  0
 22 47  1  0  0  0  0
M  CHG  2  21   1  22   1
M  END
$$$$
