C2E
 OpenBabel04091913003D

 68 74  0  0  1  0  0  0  0  0999 V2000
  -27.7513   -1.4003  -15.3419 P   0  0  1  0  0  0  0  0  0  0  0  0
  -28.4621   -0.4535  -14.4087 O   0  0  0  0  0  0  0  0  0  0  0  0
  -28.0315   -1.3979  -16.8210 O   0  0  0  0  0  0  0  0  0  0  0  0
  -26.1447   -1.1850  -15.1721 O   0  0  0  0  0  0  0  0  0  0  0  0
  -25.6076   -0.1840  -16.0609 C   0  0  0  0  0  0  0  0  0  0  0  0
  -24.9407   -0.8032  -17.3014 C   0  0  1  0  0  0  0  0  0  0  0  0
  -24.4438    0.2519  -18.1778 O   0  0  0  0  0  0  0  0  0  0  0  0
  -23.7351   -1.6419  -16.8615 C   0  0  1  0  0  0  0  0  0  0  0  0
  -23.6109   -2.7801  -17.7013 O   0  0  0  0  0  0  0  0  0  0  0  0
  -22.5698   -0.6748  -17.0438 C   0  0  1  0  0  0  0  0  0  0  0  0
  -21.2937   -1.2457  -17.2977 O   0  0  0  0  0  0  0  0  0  0  0  0
  -23.0131    0.1519  -18.2386 C   0  0  2  0  0  0  0  0  0  0  0  0
  -22.4692    1.4976  -18.3305 N   0  3  0  0  0  0  0  0  0  0  0  0
  -21.8627    2.2393  -17.3427 C   0  0  0  0  0  0  0  0  0  0  0  0
  -21.6062    3.4791  -17.7193 N   0  0  0  0  0  0  0  0  0  0  0  0
  -22.0399    3.5295  -19.0222 C   0  0  0  0  0  0  0  0  0  0  0  0
  -22.0472    4.6444  -19.9701 C   0  0  0  0  0  0  0  0  0  0  0  0
  -21.6537    5.7682  -19.6921 O   0  0  0  0  0  0  0  0  0  0  0  0
  -22.5379    4.3077  -21.2213 N   0  3  0  0  0  0  0  0  0  0  0  0
  -23.0049    3.0772  -21.5885 C   0  0  0  0  0  0  0  0  0  0  0  0
  -23.4221    2.9519  -22.8100 N   0  0  0  0  0  0  0  0  0  0  0  0
  -22.9909    2.0590  -20.6650 N   0  3  0  0  0  0  0  0  0  0  0  0
  -22.5237    2.3160  -19.4177 C   0  0  0  0  0  0  0  0  0  0  0  0
  -23.3210   -4.2008  -16.9491 P   0  0  1  0  0  0  0  0  0  0  0  0
  -23.2425   -5.2640  -18.0122 O   0  0  0  0  0  0  0  0  0  0  0  0
  -22.1946   -3.9805  -15.9760 O   0  0  0  0  0  0  0  0  0  0  0  0
  -24.6809   -4.3798  -16.0822 O   0  0  0  0  0  0  0  0  0  0  0  0
  -25.9129   -4.5727  -16.7515 C   0  0  0  0  0  0  0  0  0  0  0  0
  -27.0048   -4.9406  -15.7520 C   0  0  1  0  0  0  0  0  0  0  0  0
  -26.6722   -6.2225  -15.1501 O   0  0  0  0  0  0  0  0  0  0  0  0
  -27.1970   -3.9506  -14.5965 C   0  0  1  0  0  0  0  0  0  0  0  0
  -28.0867   -2.8875  -14.8079 O   0  0  0  0  0  0  0  0  0  0  0  0
  -27.8674   -4.8753  -13.5741 C   0  0  1  0  0  0  0  0  0  0  0  0
  -29.2749   -5.0954  -13.8388 O   0  0  0  0  0  0  0  0  0  0  0  0
  -27.1485   -6.1920  -13.8051 C   0  0  2  0  0  0  0  0  0  0  0  0
  -26.0565   -6.3868  -12.8797 N   0  3  0  0  0  0  0  0  0  0  0  0
  -24.7584   -5.9578  -12.9723 C   0  0  0  0  0  0  0  0  0  0  0  0
  -24.0672   -6.2514  -11.8803 N   0  0  0  0  0  0  0  0  0  0  0  0
  -24.9478   -6.9253  -11.0751 C   0  0  0  0  0  0  0  0  0  0  0  0
  -24.7745   -7.5247   -9.7496 C   0  0  0  0  0  0  0  0  0  0  0  0
  -23.7665   -7.4677   -9.0718 O   0  0  0  0  0  0  0  0  0  0  0  0
  -25.9359   -8.1592   -9.2845 N   0  3  0  0  0  0  0  0  0  0  0  0
  -27.1551   -8.1739   -9.9144 C   0  0  0  0  0  0  0  0  0  0  0  0
  -28.1310   -8.7579   -9.3031 N   0  0  0  0  0  0  0  0  0  0  0  0
  -27.2700   -7.5685  -11.1360 N   0  3  0  0  0  0  0  0  0  0  0  0
  -26.1741   -6.9986  -11.6746 C   0  0  0  0  0  0  0  0  0  0  0  0
  -24.8583    0.4166  -15.5299 H   0  0  0  0  0  0  0  0  0  0  0  0
  -26.3858    0.5238  -16.3691 H   0  0  0  0  0  0  0  0  0  0  0  0
  -25.6582   -1.3870  -17.8892 H   0  0  0  0  0  0  0  0  0  0  0  0
  -23.8354   -1.9502  -15.8181 H   0  0  0  0  0  0  0  0  0  0  0  0
  -22.4902   -0.0571  -16.1441 H   0  0  0  0  0  0  0  0  0  0  0  0
  -21.4135   -1.8959  -18.0182 H   0  0  0  0  0  0  0  0  0  0  0  0
  -22.7301   -0.3585  -19.1704 H   0  0  0  0  0  0  0  0  0  0  0  0
  -21.6293    1.8516  -16.3569 H   0  0  0  0  0  0  0  0  0  0  0  0
  -22.5448    5.0475  -21.9073 H   0  0  0  0  0  0  0  0  0  0  0  0
  -23.7454    1.9898  -22.9353 H   0  0  0  0  0  0  0  0  0  0  0  0
  -23.3582    1.1537  -20.9256 H   0  0  0  0  0  0  0  0  0  0  0  0
  -25.8048   -5.3815  -17.4813 H   0  0  0  0  0  0  0  0  0  0  0  0
  -26.1886   -3.6485  -17.2569 H   0  0  0  0  0  0  0  0  0  0  0  0
  -27.9465   -5.0880  -16.2925 H   0  0  0  0  0  0  0  0  0  0  0  0
  -26.2413   -3.5913  -14.2026 H   0  0  0  0  0  0  0  0  0  0  0  0
  -27.8092   -4.5009  -12.5469 H   0  0  0  0  0  0  0  0  0  0  0  0
  -29.6575   -4.2026  -13.9681 H   0  0  0  0  0  0  0  0  0  0  0  0
  -27.8312   -7.0446  -13.6855 H   0  0  0  0  0  0  0  0  0  0  0  0
  -24.3687   -5.4436  -13.8462 H   0  0  0  0  0  0  0  0  0  0  0  0
  -25.8643   -8.5644   -8.3692 H   0  0  0  0  0  0  0  0  0  0  0  0
  -28.9648   -8.6836   -9.9011 H   0  0  0  0  0  0  0  0  0  0  0  0
  -28.1638   -7.5964  -11.6020 H   0  0  0  0  0  0  0  0  0  0  0  0
  1  2  2  1  0  0  0
  1  3  1  0  0  0  0
  1  4  1  0  0  0  0
  1 32  1  0  0  0  0
  4  5  1  0  0  0  0
  5  6  1  0  0  0  0
  5 47  1  0  0  0  0
  5 48  1  0  0  0  0
  6  7  1  0  0  0  0
  6  8  1  0  0  0  0
  6 49  1  6  0  0  0
  7 12  1  0  0  0  0
  8  9  1  0  0  0  0
  8 10  1  0  0  0  0
  8 50  1  1  0  0  0
  9 24  1  0  0  0  0
 10 11  1  0  0  0  0
 10 12  1  0  0  0  0
 10 51  1  1  0  0  0
 11 52  1  0  0  0  0
 12 13  1  0  0  0  0
 12 53  1  6  0  0  0
 13 14  2  0  0  0  0
 13 23  1  0  0  0  0
 14 15  1  0  0  0  0
 14 54  1  0  0  0  0
 15 16  2  0  0  0  0
 16 17  1  0  0  0  0
 16 23  1  0  0  0  0
 17 18  2  0  0  0  0
 17 19  1  0  0  0  0
 19 20  1  0  0  0  0
 19 55  1  0  0  0  0
 20 21  2  0  0  0  0
 20 22  1  0  0  0  0
 21 56  1  0  0  0  0
 22 23  2  0  0  0  0
 22 57  1  0  0  0  0
 24 25  2  6  0  0  0
 24 26  1  0  0  0  0
 24 27  1  0  0  0  0
 27 28  1  0  0  0  0
 28 29  1  0  0  0  0
 28 58  1  0  0  0  0
 28 59  1  0  0  0  0
 29 30  1  0  0  0  0
 29 31  1  0  0  0  0
 29 60  1  6  0  0  0
 30 35  1  0  0  0  0
 31 32  1  0  0  0  0
 31 33  1  0  0  0  0
 31 61  1  1  0  0  0
 33 34  1  0  0  0  0
 33 35  1  0  0  0  0
 33 62  1  1  0  0  0
 34 63  1  0  0  0  0
 35 36  1  0  0  0  0
 35 64  1  1  0  0  0
 36 37  2  0  0  0  0
 36 46  1  0  0  0  0
 37 38  1  0  0  0  0
 37 65  1  0  0  0  0
 38 39  2  0  0  0  0
 39 40  1  0  0  0  0
 39 46  1  0  0  0  0
 40 41  2  0  0  0  0
 40 42  1  0  0  0  0
 42 43  1  0  0  0  0
 42 66  1  0  0  0  0
 43 44  2  0  0  0  0
 43 45  1  0  0  0  0
 44 67  1  0  0  0  0
 45 46  2  0  0  0  0
 45 68  1  0  0  0  0
M  CHG  6  13   1  19   1  22   1  36   1  42   1  45   1
M  END
$$$$
