C2E
 OpenBabel04091914403D

 68 74  0  0  1  0  0  0  0  0999 V2000
   29.0433   33.3452    4.7669 P   0  0  1  0  0  0  0  0  0  0  0  0
   28.9488   32.8562    6.1872 O   0  0  0  0  0  0  0  0  0  0  0  0
   28.4450   32.5638    3.6274 O   0  0  0  0  0  0  0  0  0  0  0  0
   28.4936   34.8796    4.7361 O   0  0  0  0  0  0  0  0  0  0  0  0
   28.0828   35.4542    3.5142 C   0  0  0  0  0  0  0  0  0  0  0  0
   29.0978   36.4890    3.0263 C   0  0  1  0  0  0  0  0  0  0  0  0
   28.6511   36.9220    1.7158 O   0  0  0  0  0  0  0  0  0  0  0  0
   29.1714   37.7597    3.8760 C   0  0  1  0  0  0  0  0  0  0  0  0
   30.3449   38.5113    3.5569 O   0  0  0  0  0  0  0  0  0  0  0  0
   27.9595   38.5284    3.3721 C   0  0  1  0  0  0  0  0  0  0  0  0
   28.0414   39.9430    3.5434 O   0  0  0  0  0  0  0  0  0  0  0  0
   27.8950   38.1419    1.8820 C   0  0  2  0  0  0  0  0  0  0  0  0
   26.5559   37.9547    1.3172 N   0  3  0  0  0  0  0  0  0  0  0  0
   25.4123   37.5918    1.9964 C   0  0  0  0  0  0  0  0  0  0  0  0
   24.3572   37.4924    1.2099 N   0  0  0  0  0  0  0  0  0  0  0  0
   24.8395   37.7943   -0.0265 C   0  0  0  0  0  0  0  0  0  0  0  0
   24.1439   37.8355   -1.3084 C   0  0  0  0  0  0  0  0  0  0  0  0
   22.9573   37.6135   -1.5078 O   0  0  0  0  0  0  0  0  0  0  0  0
   24.9809   38.1858   -2.3472 N   0  3  0  0  0  0  0  0  0  0  0  0
   26.3320   38.4941   -2.2131 C   0  0  0  0  0  0  0  0  0  0  0  0
   26.9724   38.8291   -3.3769 N   0  0  0  0  0  0  0  0  0  0  0  0
   26.9691   38.4421   -1.0710 N   0  0  0  0  0  0  0  0  0  0  0  0
   26.1844   38.1006   -0.0079 C   0  0  0  0  0  0  0  0  0  0  0  0
   31.4710   38.7200    4.7172 P   0  0  2  0  0  0  0  0  0  0  0  0
   30.8045   38.6433    6.0659 O   0  0  0  0  0  0  0  0  0  0  0  0
   32.3566   39.8771    4.3398 O   0  0  0  0  0  0  0  0  0  0  0  0
   32.3297   37.3796    4.4436 O   0  0  0  0  0  0  0  0  0  0  0  0
   31.9455   36.3697    5.3231 C   0  0  0  0  0  0  0  0  0  0  0  0
   32.4823   35.0344    4.9235 C   0  0  1  0  0  0  0  0  0  0  0  0
   33.7299   34.8924    5.6542 O   0  0  0  0  0  0  0  0  0  0  0  0
   31.4485   34.0730    5.4778 C   0  0  1  0  0  0  0  0  0  0  0  0
   30.6300   33.5438    4.4454 O   0  0  0  0  0  0  0  0  0  0  0  0
   32.2642   33.1286    6.3338 C   0  0  1  0  0  0  0  0  0  0  0  0
   32.5943   31.9384    5.6162 O   0  0  0  0  0  0  0  0  0  0  0  0
   33.5349   33.9163    6.7047 C   0  0  2  0  0  0  0  0  0  0  0  0
   33.5368   34.4922    8.0733 N   0  3  0  0  0  0  0  0  0  0  0  0
   32.7079   35.4682    8.5944 C   0  0  0  0  0  0  0  0  0  0  0  0
   32.7967   35.5902    9.9074 N   0  0  0  0  0  0  0  0  0  0  0  0
   33.7152   34.6582   10.2748 C   0  0  0  0  0  0  0  0  0  0  0  0
   34.1973   34.3091   11.5994 C   0  0  0  0  0  0  0  0  0  0  0  0
   33.8542   34.7969   12.6516 O   0  0  0  0  0  0  0  0  0  0  0  0
   35.1565   33.2986   11.5548 N   0  3  0  0  0  0  0  0  0  0  0  0
   35.5949   32.6795   10.4000 C   0  0  0  0  0  0  0  0  0  0  0  0
   36.5414   31.7173   10.5559 N   0  0  0  0  0  0  0  0  0  0  0  0
   35.1439   32.9756    9.2018 N   0  0  0  0  0  0  0  0  0  0  0  0
   34.2102   33.9727    9.1780 C   0  0  0  0  0  0  0  0  0  0  0  0
   27.0988   35.9208    3.6519 H   0  0  0  0  0  0  0  0  0  0  0  0
   27.9300   34.7053    2.7321 H   0  0  0  0  0  0  0  0  0  0  0  0
   30.0807   36.0141    2.9435 H   0  0  0  0  0  0  0  0  0  0  0  0
   29.0863   37.5605    4.9473 H   0  0  0  0  0  0  0  0  0  0  0  0
   27.0937   38.1822    3.9403 H   0  0  0  0  0  0  0  0  0  0  0  0
   28.9001   40.2099    3.1536 H   0  0  0  0  0  0  0  0  0  0  0  0
   28.3888   38.9276    1.2976 H   0  0  0  0  0  0  0  0  0  0  0  0
   25.3782   37.4048    3.0626 H   0  0  0  0  0  0  0  0  0  0  0  0
   24.5410   38.2368   -3.2564 H   0  0  0  0  0  0  0  0  0  0  0  0
   27.9632   39.0242   -3.3142 H   0  0  0  0  0  0  0  0  0  0  0  0
   26.5401   38.8487   -4.2787 H   0  0  0  0  0  0  0  0  0  0  0  0
   30.8570   36.3405    5.3716 H   0  0  0  0  0  0  0  0  0  0  0  0
   32.3428   36.6352    6.2948 H   0  0  0  0  0  0  0  0  0  0  0  0
   32.6416   34.9714    3.8345 H   0  0  0  0  0  0  0  0  0  0  0  0
   30.7825   34.5903    6.1729 H   0  0  0  0  0  0  0  0  0  0  0  0
   31.7058   32.8494    7.2269 H   0  0  0  0  0  0  0  0  0  0  0  0
   31.7225   31.5820    5.3497 H   0  0  0  0  0  0  0  0  0  0  0  0
   34.4215   33.2774    6.6478 H   0  0  0  0  0  0  0  0  0  0  0  0
   32.0148   36.0622    8.0185 H   0  0  0  0  0  0  0  0  0  0  0  0
   35.5141   33.0303   12.4540 H   0  0  0  0  0  0  0  0  0  0  0  0
   36.8950   31.2648    9.7184 H   0  0  0  0  0  0  0  0  0  0  0  0
   36.9827   31.4790   11.4307 H   0  0  0  0  0  0  0  0  0  0  0  0
  1  2  2  1  0  0  0
  1  3  1  0  0  0  0
  1  4  1  0  0  0  0
  1 32  1  0  0  0  0
  4  5  1  0  0  0  0
  5  6  1  0  0  0  0
  5 47  1  0  0  0  0
  5 48  1  0  0  0  0
  6  7  1  0  0  0  0
  6  8  1  0  0  0  0
  6 49  1  6  0  0  0
  7 12  1  0  0  0  0
  8  9  1  0  0  0  0
  8 10  1  0  0  0  0
  8 50  1  1  0  0  0
  9 24  1  0  0  0  0
 10 11  1  0  0  0  0
 10 12  1  0  0  0  0
 10 51  1  1  0  0  0
 11 52  1  0  0  0  0
 12 13  1  0  0  0  0
 12 53  1  6  0  0  0
 13 14  2  0  0  0  0
 13 23  1  0  0  0  0
 14 15  1  0  0  0  0
 14 54  1  0  0  0  0
 15 16  1  0  0  0  0
 16 17  1  0  0  0  0
 16 23  2  0  0  0  0
 17 18  2  0  0  0  0
 17 19  1  0  0  0  0
 19 20  1  0  0  0  0
 19 55  1  0  0  0  0
 20 21  1  0  0  0  0
 20 22  2  0  0  0  0
 21 56  1  0  0  0  0
 21 57  1  0  0  0  0
 22 23  1  0  0  0  0
 24 25  2  1  0  0  0
 24 26  1  0  0  0  0
 24 27  1  0  0  0  0
 27 28  1  0  0  0  0
 28 29  1  0  0  0  0
 28 58  1  0  0  0  0
 28 59  1  0  0  0  0
 29 30  1  0  0  0  0
 29 31  1  0  0  0  0
 29 60  1  6  0  0  0
 30 35  1  0  0  0  0
 31 32  1  0  0  0  0
 31 33  1  0  0  0  0
 31 61  1  1  0  0  0
 33 34  1  0  0  0  0
 33 35  1  0  0  0  0
 33 62  1  1  0  0  0
 34 63  1  0  0  0  0
 35 36  1  0  0  0  0
 35 64  1  6  0  0  0
 36 37  2  0  0  0  0
 36 46  1  0  0  0  0
 37 38  1  0  0  0  0
 37 65  1  0  0  0  0
 38 39  1  0  0  0  0
 39 40  1  0  0  0  0
 39 46  2  0  0  0  0
 40 41  2  0  0  0  0
 40 42  1  0  0  0  0
 42 43  1  0  0  0  0
 42 66  1  0  0  0  0
 43 44  1  0  0  0  0
 43 45  2  0  0  0  0
 44 67  1  0  0  0  0
 44 68  1  0  0  0  0
 45 46  1  0  0  0  0
M  CHG  4  13   1  19   1  36   1  42   1
M  END
$$$$
