C88
 OpenBabel04091916093D

 51 54  0  0  0  0  0  0  0  0999 V2000
   28.8299   17.4335   29.3207 C   0  0  0  0  0  0  0  0  0  0  0  0
   29.3583   17.8370   27.9556 C   0  0  0  0  0  0  0  0  0  0  0  0
   28.2222   18.3541   27.1422 N   0  3  0  0  0  0  0  0  0  0  0  0
   27.1634   17.3315   26.9054 C   0  0  0  0  0  0  0  0  0  0  0  0
   26.5905   16.8836   28.2435 C   0  0  0  0  0  0  0  0  0  0  0  0
   27.6721   16.4190   29.2373 C   0  0  0  0  0  0  0  0  0  0  0  0
   27.1005   16.2114   30.6541 C   0  0  0  0  0  0  0  0  0  0  0  0
   26.1195   15.1566   30.7769 N   0  3  0  0  0  0  0  0  0  0  0  0
   24.8361   15.4800   31.0113 N   0  0  0  0  0  0  0  0  0  0  0  0
   26.3608   13.8141   30.7914 C   0  0  0  0  0  0  0  0  0  0  0  0
   27.5273   13.2029   30.5249 N   0  0  0  0  0  0  0  0  0  0  0  0
   27.4132   11.8696   30.6653 C   0  0  0  0  0  0  0  0  0  0  0  0
   26.3196   11.1630   31.0073 N   0  0  0  0  0  0  0  0  0  0  0  0
   25.1721   11.8202   31.2748 C   0  0  0  0  0  0  0  0  0  0  0  0
   24.0856   11.0478   31.6408 N   0  0  0  0  0  0  0  0  0  0  0  0
   25.1673   13.2176   31.1664 C   0  0  0  0  0  0  0  0  0  0  0  0
   24.2608   14.3074   31.3430 C   0  0  0  0  0  0  0  0  0  0  0  0
   22.8729   14.2722   31.7952 C   0  0  0  0  0  0  0  0  0  0  0  0
   22.4945   13.5330   32.9201 C   0  0  0  0  0  0  0  0  0  0  0  0
   21.1533   13.4822   33.3335 C   0  0  0  0  0  0  0  0  0  0  0  0
   20.7705   12.6479   34.5240 C   0  0  0  0  0  0  0  0  0  0  0  0
   20.1819   14.2231   32.6313 C   0  0  0  0  0  0  0  0  0  0  0  0
   18.9016   14.1332   33.1010 O   0  0  0  0  0  0  0  0  0  0  0  0
   17.9430   15.0117   32.5294 C   0  0  0  0  0  0  0  0  0  0  0  0
   20.5687   14.9801   31.5207 C   0  0  0  0  0  0  0  0  0  0  0  0
   21.9024   15.0042   31.1072 C   0  0  0  0  0  0  0  0  0  0  0  0
   28.4932   18.3330   29.8528 H   0  0  0  0  0  0  0  0  0  0  0  0
   29.6504   17.0081   29.9120 H   0  0  0  0  0  0  0  0  0  0  0  0
   29.7994   16.9950   27.4128 H   0  0  0  0  0  0  0  0  0  0  0  0
   30.0934   18.6438   28.0318 H   0  0  0  0  0  0  0  0  0  0  0  0
   27.8115   19.1832   27.5968 H   0  0  0  0  0  0  0  0  0  0  0  0
   27.6232   16.5051   26.3523 H   0  0  0  0  0  0  0  0  0  0  0  0
   26.3994   17.8031   26.2788 H   0  0  0  0  0  0  0  0  0  0  0  0
   25.8766   16.0693   28.0648 H   0  0  0  0  0  0  0  0  0  0  0  0
   26.0187   17.7123   28.6807 H   0  0  0  0  0  0  0  0  0  0  0  0
   28.0830   15.4692   28.8686 H   0  0  0  0  0  0  0  0  0  0  0  0
   26.6320   17.1410   31.0079 H   0  0  0  0  0  0  0  0  0  0  0  0
   27.9028   15.9743   31.3635 H   0  0  0  0  0  0  0  0  0  0  0  0
   28.3115   11.2870   30.4792 H   0  0  0  0  0  0  0  0  0  0  0  0
   23.1602   11.4238   31.4895 H   0  0  0  0  0  0  0  0  0  0  0  0
   24.2162   10.0630   31.4455 H   0  0  0  0  0  0  0  0  0  0  0  0
   23.2460   12.9854   33.4905 H   0  0  0  0  0  0  0  0  0  0  0  0
   21.6345   12.1148   34.9365 H   0  0  0  0  0  0  0  0  0  0  0  0
   20.0281   11.8950   34.2376 H   0  0  0  0  0  0  0  0  0  0  0  0
   20.3597   13.2805   35.3183 H   0  0  0  0  0  0  0  0  0  0  0  0
   16.9915   14.8615   33.0491 H   0  0  0  0  0  0  0  0  0  0  0  0
   17.7792   14.7837   31.4699 H   0  0  0  0  0  0  0  0  0  0  0  0
   18.2347   16.0597   32.6655 H   0  0  0  0  0  0  0  0  0  0  0  0
   19.8530   15.5622   30.9492 H   0  0  0  0  0  0  0  0  0  0  0  0
   22.1782   15.6021   30.2406 H   0  0  0  0  0  0  0  0  0  0  0  0
   28.5796   18.6895   26.2350 H   0  0  0  0  0  0  0  0  0  0  0  0
  1  2  1  0  0  0  0
  1  6  1  0  0  0  0
  1 27  1  0  0  0  0
  1 28  1  0  0  0  0
  2  3  1  0  0  0  0
  2 29  1  0  0  0  0
  2 30  1  0  0  0  0
  3  4  1  0  0  0  0
  3 31  1  0  0  0  0
  3 51  1  0  0  0  0
  4  5  1  0  0  0  0
  4 32  1  0  0  0  0
  4 33  1  0  0  0  0
  5  6  1  0  0  0  0
  5 34  1  0  0  0  0
  5 35  1  0  0  0  0
  6  7  1  0  0  0  0
  6 36  1  0  0  0  0
  7  8  1  0  0  0  0
  7 37  1  0  0  0  0
  7 38  1  0  0  0  0
  8  9  1  0  0  0  0
  8 10  2  0  0  0  0
  9 17  1  0  0  0  0
 10 11  1  0  0  0  0
 10 16  1  0  0  0  0
 11 12  2  0  0  0  0
 12 13  1  0  0  0  0
 12 39  1  0  0  0  0
 13 14  2  0  0  0  0
 14 15  1  0  0  0  0
 14 16  1  0  0  0  0
 15 40  1  0  0  0  0
 15 41  1  0  0  0  0
 16 17  2  0  0  0  0
 17 18  1  0  0  0  0
 18 19  2  0  0  0  0
 18 26  1  0  0  0  0
 19 20  1  0  0  0  0
 19 42  1  0  0  0  0
 20 21  1  0  0  0  0
 20 22  2  0  0  0  0
 21 43  1  0  0  0  0
 21 44  1  0  0  0  0
 21 45  1  0  0  0  0
 22 23  1  0  0  0  0
 22 25  1  0  0  0  0
 23 24  1  0  0  0  0
 24 46  1  0  0  0  0
 24 47  1  0  0  0  0
 24 48  1  0  0  0  0
 25 26  2  0  0  0  0
 25 49  1  0  0  0  0
 26 50  1  0  0  0  0
M  CHG  2   3   1   8   1
M  END
$$$$
