C90
 OpenBabel04091914103D

 60 62  0  0  1  0  0  0  0  0999 V2000
   -0.1158  -19.7173  -15.0445 C   0  0  0  0  0  0  0  0  0  0  0  0
   -0.8541  -20.4177  -13.9403 C   0  0  0  0  0  0  0  0  0  0  0  0
   -2.1549  -21.6521  -11.7522 C   0  0  0  0  0  0  0  0  0  0  0  0
   -2.8214  -22.2889  -10.6478 C   0  0  0  0  0  0  0  0  0  0  0  0
    1.9653  -16.1269  -13.8786 O   0  0  0  0  0  0  0  0  0  0  0  0
   -3.3641  -22.8150   -9.7129 C   0  0  0  0  0  0  0  0  0  0  0  0
   -4.0426  -23.3769   -8.5758 C   0  0  0  0  0  0  0  0  0  0  0  0
   -8.7330  -23.8038   -3.1595 C   0  0  1  0  0  0  0  0  0  0  0  0
   -5.4147  -24.3258   -6.3300 C   0  0  0  0  0  0  0  0  0  0  0  0
   -6.1345  -24.8057   -5.1124 C   0  0  0  0  0  0  0  0  0  0  0  0
   -8.3343  -25.0451   -3.9967 C   0  0  1  0  0  0  0  0  0  0  0  0
   -7.5635  -22.8891   -2.8081 C   0  0  0  0  0  0  0  0  0  0  0  0
   -9.5980  -25.7376   -4.5408 C   0  0  0  0  0  0  0  0  0  0  0  0
    1.8084  -16.4059  -15.2761 C   0  0  0  0  0  0  0  0  0  0  0  0
    0.7724  -16.4533  -13.1566 C   0  0  0  0  0  0  0  0  0  0  0  0
    1.4815  -17.8791  -15.5339 C   0  0  0  0  0  0  0  0  0  0  0  0
    0.5257  -17.9582  -13.2658 C   0  0  0  0  0  0  0  0  0  0  0  0
    0.2573  -18.2865  -14.7358 N   0  3  0  0  0  0  0  0  0  0  0  0
   -0.1888  -21.3932  -13.1813 C   0  0  0  0  0  0  0  0  0  0  0  0
   -2.1791  -20.0634  -13.5901 C   0  0  0  0  0  0  0  0  0  0  0  0
   -0.8469  -22.0089  -12.1012 C   0  0  0  0  0  0  0  0  0  0  0  0
   -2.8096  -20.6725  -12.5109 C   0  0  0  0  0  0  0  0  0  0  0  0
   -5.4356  -23.3324   -8.5457 C   0  0  0  0  0  0  0  0  0  0  0  0
   -3.3268  -23.9186   -7.5025 C   0  0  0  0  0  0  0  0  0  0  0  0
   -6.1166  -23.8031   -7.4271 C   0  0  0  0  0  0  0  0  0  0  0  0
   -4.0112  -24.3923   -6.3738 C   0  0  0  0  0  0  0  0  0  0  0  0
   -5.5273  -25.2590   -4.1482 O   0  0  0  0  0  0  0  0  0  0  0  0
   -7.5067  -24.6953   -5.1367 N   0  0  0  0  0  0  0  0  0  0  0  0
   -9.6743  -22.9683   -3.8445 O   0  0  0  0  0  0  0  0  0  0  0  0
   -9.6643  -27.0760   -4.2448 N   0  0  0  0  0  0  0  0  0  0  0  0
  -10.4433  -25.1314   -5.2014 O   0  0  0  0  0  0  0  0  0  0  0  0
  -10.8732  -27.7230   -4.5681 O   0  0  0  0  0  0  0  0  0  0  0  0
   -0.7228  -19.6937  -15.9591 H   0  0  0  0  0  0  0  0  0  0  0  0
    0.8096  -20.2512  -15.2971 H   0  0  0  0  0  0  0  0  0  0  0  0
   -9.2045  -24.1448   -2.2305 H   0  0  0  0  0  0  0  0  0  0  0  0
   -7.7849  -25.7475   -3.3630 H   0  0  0  0  0  0  0  0  0  0  0  0
   -7.9158  -22.0355   -2.2167 H   0  0  0  0  0  0  0  0  0  0  0  0
   -7.1153  -22.4587   -3.7115 H   0  0  0  0  0  0  0  0  0  0  0  0
   -6.7913  -23.4127   -2.2402 H   0  0  0  0  0  0  0  0  0  0  0  0
    2.7460  -16.1572  -15.7790 H   0  0  0  0  0  0  0  0  0  0  0  0
    1.0177  -15.7609  -15.6720 H   0  0  0  0  0  0  0  0  0  0  0  0
   -0.0663  -15.8757  -13.5671 H   0  0  0  0  0  0  0  0  0  0  0  0
    0.8992  -16.1680  -12.1086 H   0  0  0  0  0  0  0  0  0  0  0  0
    2.2965  -18.5264  -15.1889 H   0  0  0  0  0  0  0  0  0  0  0  0
    1.2602  -18.0667  -16.5870 H   0  0  0  0  0  0  0  0  0  0  0  0
   -0.3413  -18.2422  -12.6707 H   0  0  0  0  0  0  0  0  0  0  0  0
    1.4182  -18.5228  -12.9751 H   0  0  0  0  0  0  0  0  0  0  0  0
    0.8359  -21.6835  -13.4002 H   0  0  0  0  0  0  0  0  0  0  0  0
   -2.6961  -19.2855  -14.1545 H   0  0  0  0  0  0  0  0  0  0  0  0
   -0.3296  -22.7695  -11.5235 H   0  0  0  0  0  0  0  0  0  0  0  0
   -3.8288  -20.3876  -12.2510 H   0  0  0  0  0  0  0  0  0  0  0  0
   -6.0115  -22.9183   -9.3738 H   0  0  0  0  0  0  0  0  0  0  0  0
   -2.2385  -23.9489   -7.5198 H   0  0  0  0  0  0  0  0  0  0  0  0
   -7.1984  -23.7359   -7.4488 H   0  0  0  0  0  0  0  0  0  0  0  0
   -3.4604  -24.7996   -5.5238 H   0  0  0  0  0  0  0  0  0  0  0  0
   -7.9853  -24.1784   -5.8584 H   0  0  0  0  0  0  0  0  0  0  0  0
  -10.4272  -23.5283   -4.1307 H   0  0  0  0  0  0  0  0  0  0  0  0
   -8.9593  -27.5684   -3.7082 H   0  0  0  0  0  0  0  0  0  0  0  0
  -10.7903  -28.6015   -4.1590 H   0  0  0  0  0  0  0  0  0  0  0  0
   -0.5359  -17.7034  -15.0318 H   0  0  0  0  0  0  0  0  0  0  0  0
  1  2  1  0  0  0  0
  1 18  1  0  0  0  0
  1 33  1  0  0  0  0
  1 34  1  0  0  0  0
  2 19  2  0  0  0  0
  2 20  1  0  0  0  0
  3  4  1  0  0  0  0
  3 21  2  0  0  0  0
  3 22  1  0  0  0  0
  4  6  3  0  0  0  0
  5 14  1  0  0  0  0
  5 15  1  0  0  0  0
  6  7  1  0  0  0  0
  7 23  2  0  0  0  0
  7 24  1  0  0  0  0
  8 11  1  0  0  0  0
  8 12  1  0  0  0  0
  8 29  1  0  0  0  0
  8 35  1  1  0  0  0
  9 10  1  0  0  0  0
  9 25  2  0  0  0  0
  9 26  1  0  0  0  0
 10 27  2  0  0  0  0
 10 28  1  0  0  0  0
 11 13  1  0  0  0  0
 11 28  1  0  0  0  0
 11 36  1  1  0  0  0
 12 37  1  0  0  0  0
 12 38  1  0  0  0  0
 12 39  1  0  0  0  0
 13 30  1  0  0  0  0
 13 31  2  0  0  0  0
 14 16  1  0  0  0  0
 14 40  1  0  0  0  0
 14 41  1  0  0  0  0
 15 17  1  0  0  0  0
 15 42  1  0  0  0  0
 15 43  1  0  0  0  0
 16 18  1  0  0  0  0
 16 44  1  0  0  0  0
 16 45  1  0  0  0  0
 17 18  1  0  0  0  0
 17 46  1  0  0  0  0
 17 47  1  0  0  0  0
 18 60  1  0  0  0  0
 19 21  1  0  0  0  0
 19 48  1  0  0  0  0
 20 22  2  0  0  0  0
 20 49  1  0  0  0  0
 21 50  1  0  0  0  0
 22 51  1  0  0  0  0
 23 25  1  0  0  0  0
 23 52  1  0  0  0  0
 24 26  2  0  0  0  0
 24 53  1  0  0  0  0
 25 54  1  0  0  0  0
 26 55  1  0  0  0  0
 28 56  1  0  0  0  0
 29 57  1  0  0  0  0
 30 32  1  0  0  0  0
 30 58  1  0  0  0  0
 32 59  1  0  0  0  0
M  CHG  1  18   1
M  END
$$$$
