CE5
 OpenBabel04091912223D

108112  0  0  1  0  0  0  0  0999 V2000
    7.2792    0.3566   35.6880 O   0  0  0  0  0  0  0  0  0  0  0  0
    5.8441    0.3949   35.8735 C   0  0  2  0  0  0  0  0  0  0  0  0
    5.1422    0.8467   34.5784 C   0  0  1  0  0  0  0  0  0  0  0  0
    4.9866   -0.2594   33.6798 O   0  0  0  0  0  0  0  0  0  0  0  0
    3.7830    1.4509   34.9134 C   0  0  2  0  0  0  0  0  0  0  0  0
    3.0805    1.7560   33.7020 O   0  0  0  0  0  0  0  0  0  0  0  0
    4.0797    2.7117   35.7065 C   0  0  1  0  0  0  0  0  0  0  0  0
    2.8451    3.5633   36.0596 C   0  0  0  0  0  0  0  0  0  0  0  0
    1.9074    2.9211   36.9102 O   0  0  0  0  0  0  0  0  0  0  0  0
    4.8625    2.5095   36.8917 O   0  0  0  0  0  0  0  0  0  0  0  0
    5.4739    1.2387   37.1277 C   0  0  1  0  0  0  0  0  0  0  0  0
    4.6958    0.3808   37.9708 O   0  0  0  0  0  0  0  0  0  0  0  0
    3.8819    0.9473   39.0074 C   0  0  2  0  0  0  0  0  0  0  0  0
    4.5035    0.9420   40.4222 C   0  0  2  0  0  0  0  0  0  0  0  0
    3.4996    1.3280   41.3940 O   0  0  0  0  0  0  0  0  0  0  0  0
    5.6843    1.8982   40.6005 C   0  0  0  0  0  0  0  0  0  0  0  0
    6.1010    1.8540   41.9700 O   0  0  0  0  0  0  0  0  0  0  0  0
    2.6534    0.0090   39.0202 C   0  0  2  0  0  0  0  0  0  0  0  0
    1.9692    0.1339   37.7557 O   0  0  0  0  0  0  0  0  0  0  0  0
    1.7001    0.2604   40.1816 C   0  0  1  0  0  0  0  0  0  0  0  0
    0.7501   -0.8156   40.2666 O   0  0  0  0  0  0  0  0  0  0  0  0
    2.4908    0.3341   41.5025 C   0  0  2  0  0  0  0  0  0  0  0  0
    1.5557    0.6906   42.5207 O   0  0  0  0  0  0  0  0  0  0  0  0
    1.9839    0.3521   43.8465 C   0  0  2  0  0  0  0  0  0  0  0  0
    0.7860   -0.3116   44.5424 C   0  0  2  0  0  0  0  0  0  0  0  0
    1.0441   -0.5495   45.9311 O   0  0  0  0  0  0  0  0  0  0  0  0
    0.4110   -1.6675   43.9468 C   0  0  0  0  0  0  0  0  0  0  0  0
   -0.8864   -2.0358   44.4298 O   0  0  0  0  0  0  0  0  0  0  0  0
    2.3709    1.6431   44.6039 C   0  0  2  0  0  0  0  0  0  0  0  0
    3.5940    2.1852   44.0952 O   0  0  0  0  0  0  0  0  0  0  0  0
    2.5240    1.3831   46.1167 C   0  0  1  0  0  0  0  0  0  0  0  0
    2.6596    2.6279   46.8236 O   0  0  0  0  0  0  0  0  0  0  0  0
    1.2592    0.6742   46.6121 C   0  0  2  0  0  0  0  0  0  0  0  0
    1.3423    0.4575   48.0197 O   0  0  0  0  0  0  0  0  0  0  0  0
    0.1201   -0.0598   48.5790 C   0  0  2  0  0  0  0  0  0  0  0  0
   -0.5801    1.0406   49.4082 C   0  0  2  0  0  0  0  0  0  0  0  0
   -1.6020    0.5386   50.2788 O   0  0  0  0  0  0  0  0  0  0  0  0
   -1.3327    2.0133   48.4703 C   0  0  0  0  0  0  0  0  0  0  0  0
   -1.5172    3.2877   49.0720 O   0  0  0  0  0  0  0  0  0  0  0  0
    0.4747   -1.2854   49.4334 C   0  0  2  0  0  0  0  0  0  0  0  0
    0.8980   -2.3966   48.6123 O   0  0  0  0  0  0  0  0  0  0  0  0
   -0.7365   -1.7414   50.2216 C   0  0  1  0  0  0  0  0  0  0  0  0
   -0.3890   -2.8751   51.0278 O   0  0  0  0  0  0  0  0  0  0  0  0
   -1.2655   -0.5834   51.0735 C   0  0  2  0  0  0  0  0  0  0  0  0
   -2.4858   -1.0637   51.6298 O   0  0  0  0  0  0  0  0  0  0  0  0
   -2.7849   -0.5734   52.9366 C   0  0  1  0  0  0  0  0  0  0  0  0
   -3.9696    0.3933   52.8249 C   0  0  2  0  0  0  0  0  0  0  0  0
   -3.5321    1.6020   52.1856 O   0  0  0  0  0  0  0  0  0  0  0  0
   -4.5322    0.7051   54.2127 C   0  0  1  0  0  0  0  0  0  0  0  0
   -5.7449    1.4734   54.1161 O   0  0  0  0  0  0  0  0  0  0  0  0
   -4.8414   -0.6142   54.9353 C   0  0  2  0  0  0  0  0  0  0  0  0
   -5.3504   -0.3108   56.2315 O   0  0  0  0  0  0  0  0  0  0  0  0
   -3.6924   -1.4413   55.0653 O   0  0  0  0  0  0  0  0  0  0  0  0
   -3.1458   -1.8011   53.7908 C   0  0  2  0  0  0  0  0  0  0  0  0
   -1.9075   -2.7098   53.9661 C   0  0  0  0  0  0  0  0  0  0  0  0
   -1.4297   -2.7665   55.3022 O   0  0  0  0  0  0  0  0  0  0  0  0
    7.5473    1.1655   35.2283 H   0  0  0  0  0  0  0  0  0  0  0  0
    5.5759   -0.6538   36.0554 H   0  0  0  0  0  0  0  0  0  0  0  0
    5.7579    1.5726   34.0339 H   0  0  0  0  0  0  0  0  0  0  0  0
    4.5092    0.0935   32.9030 H   0  0  0  0  0  0  0  0  0  0  0  0
    3.1837    0.7217   35.4684 H   0  0  0  0  0  0  0  0  0  0  0  0
    2.1524    1.9430   33.9287 H   0  0  0  0  0  0  0  0  0  0  0  0
    4.6920    3.3678   35.0757 H   0  0  0  0  0  0  0  0  0  0  0  0
    2.3253    3.8846   35.1509 H   0  0  0  0  0  0  0  0  0  0  0  0
    3.1696    4.4663   36.5881 H   0  0  0  0  0  0  0  0  0  0  0  0
    1.6792    2.0320   36.5859 H   0  0  0  0  0  0  0  0  0  0  0  0
    6.3960    1.4519   37.6775 H   0  0  0  0  0  0  0  0  0  0  0  0
    3.5430    1.9544   38.7451 H   0  0  0  0  0  0  0  0  0  0  0  0
    4.8605   -0.0636   40.6811 H   0  0  0  0  0  0  0  0  0  0  0  0
    5.4003    2.9285   40.3624 H   0  0  0  0  0  0  0  0  0  0  0  0
    6.5385    1.5948   39.9953 H   0  0  0  0  0  0  0  0  0  0  0  0
    6.6772    2.6188   42.1373 H   0  0  0  0  0  0  0  0  0  0  0  0
    2.9861   -1.0384   39.0648 H   0  0  0  0  0  0  0  0  0  0  0  0
    2.5609   -0.3214   37.1309 H   0  0  0  0  0  0  0  0  0  0  0  0
    1.1268    1.1808   40.0054 H   0  0  0  0  0  0  0  0  0  0  0  0
    0.1379   -0.5724   40.9850 H   0  0  0  0  0  0  0  0  0  0  0  0
    2.9195   -0.6450   41.7237 H   0  0  0  0  0  0  0  0  0  0  0  0
    2.8474   -0.3266   43.8378 H   0  0  0  0  0  0  0  0  0  0  0  0
   -0.0953    0.3416   44.4598 H   0  0  0  0  0  0  0  0  0  0  0  0
    1.1084   -2.4482   44.2674 H   0  0  0  0  0  0  0  0  0  0  0  0
    0.3638   -1.6526   42.8590 H   0  0  0  0  0  0  0  0  0  0  0  0
   -0.8572   -1.9248   45.3961 H   0  0  0  0  0  0  0  0  0  0  0  0
    1.6142    2.4190   44.4398 H   0  0  0  0  0  0  0  0  0  0  0  0
    3.4949    2.2835   43.1254 H   0  0  0  0  0  0  0  0  0  0  0  0
    3.4260    0.7959   46.3111 H   0  0  0  0  0  0  0  0  0  0  0  0
    2.8167    2.3847   47.7558 H   0  0  0  0  0  0  0  0  0  0  0  0
    0.4166    1.3359   46.4150 H   0  0  0  0  0  0  0  0  0  0  0  0
   -0.5587   -0.3986   47.7853 H   0  0  0  0  0  0  0  0  0  0  0  0
    0.1521    1.5985   50.0080 H   0  0  0  0  0  0  0  0  0  0  0  0
   -2.3264    1.6120   48.2385 H   0  0  0  0  0  0  0  0  0  0  0  0
   -0.8314    2.1942   47.5260 H   0  0  0  0  0  0  0  0  0  0  0  0
   -0.6528    3.7354   49.0784 H   0  0  0  0  0  0  0  0  0  0  0  0
    1.3218   -1.0776   50.0964 H   0  0  0  0  0  0  0  0  0  0  0  0
    0.2267   -2.5490   47.9250 H   0  0  0  0  0  0  0  0  0  0  0  0
   -1.5209   -2.0842   49.5359 H   0  0  0  0  0  0  0  0  0  0  0  0
    0.0586   -3.5087   50.4343 H   0  0  0  0  0  0  0  0  0  0  0  0
   -0.5386   -0.3157   51.8520 H   0  0  0  0  0  0  0  0  0  0  0  0
   -1.9307   -0.0448   53.3817 H   0  0  0  0  0  0  0  0  0  0  0  0
   -4.7580   -0.0205   52.1828 H   0  0  0  0  0  0  0  0  0  0  0  0
   -3.1833    1.3471   51.3056 H   0  0  0  0  0  0  0  0  0  0  0  0
   -3.8083    1.3058   54.7784 H   0  0  0  0  0  0  0  0  0  0  0  0
   -5.8332    1.9470   54.9628 H   0  0  0  0  0  0  0  0  0  0  0  0
   -5.6297   -1.1685   54.4084 H   0  0  0  0  0  0  0  0  0  0  0  0
   -6.2299    0.0763   56.0803 H   0  0  0  0  0  0  0  0  0  0  0  0
   -3.8965   -2.3913   53.2459 H   0  0  0  0  0  0  0  0  0  0  0  0
   -1.0680   -2.3828   53.3485 H   0  0  0  0  0  0  0  0  0  0  0  0
   -2.1453   -3.7316   53.6473 H   0  0  0  0  0  0  0  0  0  0  0  0
   -2.2195   -2.8953   55.8621 H   0  0  0  0  0  0  0  0  0  0  0  0
  1  2  1  0  0  0  0
  1 57  1  0  0  0  0
  2  3  1  0  0  0  0
  2 11  1  0  0  0  0
  2 58  1  1  0  0  0
  3  4  1  0  0  0  0
  3  5  1  0  0  0  0
  3 59  1  6  0  0  0
  4 60  1  0  0  0  0
  5  6  1  0  0  0  0
  5  7  1  0  0  0  0
  5 61  1  1  0  0  0
  6 62  1  0  0  0  0
  7  8  1  0  0  0  0
  7 10  1  0  0  0  0
  7 63  1  6  0  0  0
  8  9  1  0  0  0  0
  8 64  1  0  0  0  0
  8 65  1  0  0  0  0
  9 66  1  0  0  0  0
 10 11  1  0  0  0  0
 11 12  1  0  0  0  0
 11 67  1  1  0  0  0
 12 13  1  0  0  0  0
 13 14  1  0  0  0  0
 13 18  1  0  0  0  0
 13 68  1  6  0  0  0
 14 15  1  0  0  0  0
 14 16  1  0  0  0  0
 14 69  1  1  0  0  0
 15 22  1  0  0  0  0
 16 17  1  0  0  0  0
 16 70  1  0  0  0  0
 16 71  1  0  0  0  0
 17 72  1  0  0  0  0
 18 19  1  0  0  0  0
 18 20  1  0  0  0  0
 18 73  1  1  0  0  0
 19 74  1  0  0  0  0
 20 21  1  0  0  0  0
 20 22  1  0  0  0  0
 20 75  1  6  0  0  0
 21 76  1  0  0  0  0
 22 23  1  0  0  0  0
 22 77  1  1  0  0  0
 23 24  1  0  0  0  0
 24 25  1  0  0  0  0
 24 29  1  0  0  0  0
 24 78  1  6  0  0  0
 25 26  1  0  0  0  0
 25 27  1  0  0  0  0
 25 79  1  6  0  0  0
 26 33  1  0  0  0  0
 27 28  1  0  0  0  0
 27 80  1  0  0  0  0
 27 81  1  0  0  0  0
 28 82  1  0  0  0  0
 29 30  1  0  0  0  0
 29 31  1  0  0  0  0
 29 83  1  6  0  0  0
 30 84  1  0  0  0  0
 31 32  1  0  0  0  0
 31 33  1  0  0  0  0
 31 85  1  1  0  0  0
 32 86  1  0  0  0  0
 33 34  1  0  0  0  0
 33 87  1  6  0  0  0
 34 35  1  0  0  0  0
 35 36  1  0  0  0  0
 35 40  1  0  0  0  0
 35 88  1  6  0  0  0
 36 37  1  0  0  0  0
 36 38  1  0  0  0  0
 36 89  1  1  0  0  0
 37 44  1  0  0  0  0
 38 39  1  0  0  0  0
 38 90  1  0  0  0  0
 38 91  1  0  0  0  0
 39 92  1  0  0  0  0
 40 41  1  0  0  0  0
 40 42  1  0  0  0  0
 40 93  1  1  0  0  0
 41 94  1  0  0  0  0
 42 43  1  0  0  0  0
 42 44  1  0  0  0  0
 42 95  1  6  0  0  0
 43 96  1  0  0  0  0
 44 45  1  0  0  0  0
 44 97  1  1  0  0  0
 45 46  1  0  0  0  0
 46 47  1  0  0  0  0
 46 54  1  0  0  0  0
 46 98  1  1  0  0  0
 47 48  1  0  0  0  0
 47 49  1  0  0  0  0
 47 99  1  6  0  0  0
 48100  1  0  0  0  0
 49 50  1  0  0  0  0
 49 51  1  0  0  0  0
 49101  1  1  0  0  0
 50102  1  0  0  0  0
 51 52  1  0  0  0  0
 51 53  1  0  0  0  0
 51103  1  6  0  0  0
 52104  1  0  0  0  0
 53 54  1  0  0  0  0
 54 55  1  0  0  0  0
 54105  1  6  0  0  0
 55 56  1  0  0  0  0
 55106  1  0  0  0  0
 55107  1  0  0  0  0
 56108  1  0  0  0  0
M  END
$$$$
