CHD
 OpenBabel04091914523D

 68 71  0  0  1  0  0  0  0  0999 V2000
   -9.1274   -4.9882  -15.7595 C   0  0  0  0  0  0  0  0  0  0  0  0
   -8.2953   -5.6706  -16.8263 C   0  0  0  0  0  0  0  0  0  0  0  0
   -7.2627   -4.6651  -17.3049 C   0  0  1  0  0  0  0  0  0  0  0  0
   -7.9192   -3.6899  -18.1304 O   0  0  0  0  0  0  0  0  0  0  0  0
   -6.5874   -3.9501  -16.1315 C   0  0  0  0  0  0  0  0  0  0  0  0
   -6.8195   -4.5972  -14.7490 C   0  0  1  0  0  0  0  0  0  0  0  0
   -6.1757   -3.7034  -13.6712 C   0  0  0  0  0  0  0  0  0  0  0  0
   -6.7428   -3.9776  -12.2801 C   0  0  1  0  0  0  0  0  0  0  0  0
   -5.9618   -3.2983  -11.3104 O   0  0  0  0  0  0  0  0  0  0  0  0
   -8.2448   -3.6504  -12.2046 C   0  0  2  0  0  0  0  0  0  0  0  0
   -8.8740   -3.6808  -13.6244 C   0  0  1  0  0  0  0  0  0  0  0  0
   -8.3283   -4.8568  -14.4569 C   0  0  1  0  0  0  0  0  0  0  0  0
  -10.4023   -3.6356  -13.5498 C   0  0  0  0  0  0  0  0  0  0  0  0
  -10.9391   -2.4053  -12.8259 C   0  0  2  0  0  0  0  0  0  0  0  0
  -11.0066   -1.3129  -13.7443 O   0  0  0  0  0  0  0  0  0  0  0  0
  -10.1758   -2.1129  -11.5269 C   0  0  1  0  0  0  0  0  0  0  0  0
   -8.6352   -2.2914  -11.6444 C   0  0  1  0  0  0  0  0  0  0  0  0
   -8.1717   -1.9134  -10.2509 C   0  0  0  0  0  0  0  0  0  0  0  0
   -9.0687   -0.7363   -9.9199 C   0  0  0  0  0  0  0  0  0  0  0  0
  -10.2243   -0.6808  -10.9620 C   0  0  2  0  0  0  0  0  0  0  0  0
  -10.7193   -3.0980  -10.4506 C   0  0  0  0  0  0  0  0  0  0  0  0
   -8.4828   -6.1903  -13.7057 C   0  0  0  0  0  0  0  0  0  0  0  0
  -11.5848   -0.2519  -10.3767 C   0  0  2  0  0  0  0  0  0  0  0  0
  -12.4030    0.5328  -11.3916 C   0  0  0  0  0  0  0  0  0  0  0  0
  -11.4641    0.4944   -9.0352 C   0  0  0  0  0  0  0  0  0  0  0  0
  -11.8064    1.9669   -9.0742 C   0  0  0  0  0  0  0  0  0  0  0  0
   -9.5866    2.7057   -8.7479 O   0  0  0  0  0  0  0  0  0  0  0  0
  -10.6517    2.9144   -9.3590 C   0  0  0  0  0  0  0  0  0  0  0  0
  -10.9187    3.7950  -10.2483 O   0  0  0  0  0  0  0  0  0  0  0  0
  -10.0520   -5.5448  -15.5892 H   0  0  0  0  0  0  0  0  0  0  0  0
   -9.4261   -3.9902  -16.0980 H   0  0  0  0  0  0  0  0  0  0  0  0
   -8.9384   -6.0000  -17.6457 H   0  0  0  0  0  0  0  0  0  0  0  0
   -7.7880   -6.5516  -16.4114 H   0  0  0  0  0  0  0  0  0  0  0  0
   -6.5231   -5.1684  -17.9297 H   0  0  0  0  0  0  0  0  0  0  0  0
   -8.5995   -3.2461  -17.6156 H   0  0  0  0  0  0  0  0  0  0  0  0
   -6.9352   -2.9115  -16.1013 H   0  0  0  0  0  0  0  0  0  0  0  0
   -5.5094   -3.9257  -16.3212 H   0  0  0  0  0  0  0  0  0  0  0  0
   -6.2973   -5.5635  -14.7362 H   0  0  0  0  0  0  0  0  0  0  0  0
   -6.3515   -2.6436  -13.9101 H   0  0  0  0  0  0  0  0  0  0  0  0
   -5.0958   -3.8408  -13.6746 H   0  0  0  0  0  0  0  0  0  0  0  0
   -6.5895   -5.0337  -12.0613 H   0  0  0  0  0  0  0  0  0  0  0  0
   -6.0288   -2.3685  -11.4878 H   0  0  0  0  0  0  0  0  0  0  0  0
   -8.7098   -4.4392  -11.5881 H   0  0  0  0  0  0  0  0  0  0  0  0
   -8.5653   -2.7577  -14.1412 H   0  0  0  0  0  0  0  0  0  0  0  0
  -10.7417   -4.5393  -13.0360 H   0  0  0  0  0  0  0  0  0  0  0  0
  -10.8201   -3.6556  -14.5585 H   0  0  0  0  0  0  0  0  0  0  0  0
  -11.9765   -2.6257  -12.5781 H   0  0  0  0  0  0  0  0  0  0  0  0
  -10.1413   -1.0596  -14.0446 H   0  0  0  0  0  0  0  0  0  0  0  0
   -8.2299   -1.5314  -12.3247 H   0  0  0  0  0  0  0  0  0  0  0  0
   -7.1344   -1.6016  -10.1631 H   0  0  0  0  0  0  0  0  0  0  0  0
   -8.2928   -2.7283   -9.5231 H   0  0  0  0  0  0  0  0  0  0  0  0
   -8.5223    0.2080   -9.9298 H   0  0  0  0  0  0  0  0  0  0  0  0
   -9.4276   -0.9480   -8.9114 H   0  0  0  0  0  0  0  0  0  0  0  0
   -9.9393    0.0316  -11.7512 H   0  0  0  0  0  0  0  0  0  0  0  0
  -10.6763   -4.1336  -10.7856 H   0  0  0  0  0  0  0  0  0  0  0  0
  -11.7484   -2.9014  -10.1922 H   0  0  0  0  0  0  0  0  0  0  0  0
  -10.1853   -3.0326   -9.5088 H   0  0  0  0  0  0  0  0  0  0  0  0
   -8.0970   -7.0216  -14.2980 H   0  0  0  0  0  0  0  0  0  0  0  0
   -9.5293   -6.3858  -13.4717 H   0  0  0  0  0  0  0  0  0  0  0  0
   -7.9389   -6.2143  -12.7672 H   0  0  0  0  0  0  0  0  0  0  0  0
  -12.2028   -1.1302  -10.1755 H   0  0  0  0  0  0  0  0  0  0  0  0
  -13.3822    0.7833  -10.9643 H   0  0  0  0  0  0  0  0  0  0  0  0
  -12.6002   -0.0266  -12.3059 H   0  0  0  0  0  0  0  0  0  0  0  0
  -11.8749    1.4543  -11.6624 H   0  0  0  0  0  0  0  0  0  0  0  0
  -10.4706    0.4566   -8.6090 H   0  0  0  0  0  0  0  0  0  0  0  0
  -12.0878   -0.0344   -8.3042 H   0  0  0  0  0  0  0  0  0  0  0  0
  -12.1799    2.2452   -8.0915 H   0  0  0  0  0  0  0  0  0  0  0  0
  -12.6260    2.1621   -9.7612 H   0  0  0  0  0  0  0  0  0  0  0  0
  1  2  1  0  0  0  0
  1 12  1  0  0  0  0
  1 30  1  0  0  0  0
  1 31  1  0  0  0  0
  2  3  1  0  0  0  0
  2 32  1  0  0  0  0
  2 33  1  0  0  0  0
  3  4  1  0  0  0  0
  3  5  1  0  0  0  0
  3 34  1  6  0  0  0
  4 35  1  0  0  0  0
  5  6  1  0  0  0  0
  5 36  1  0  0  0  0
  5 37  1  0  0  0  0
  6  7  1  0  0  0  0
  6 12  1  0  0  0  0
  6 38  1  1  0  0  0
  7  8  1  0  0  0  0
  7 39  1  0  0  0  0
  7 40  1  0  0  0  0
  8  9  1  0  0  0  0
  8 10  1  0  0  0  0
  8 41  1  1  0  0  0
  9 42  1  0  0  0  0
 10 11  1  0  0  0  0
 10 17  1  0  0  0  0
 10 43  1  1  0  0  0
 11 12  1  0  0  0  0
 11 13  1  0  0  0  0
 11 44  1  6  0  0  0
 12 22  1  1  0  0  0
 13 14  1  0  0  0  0
 13 45  1  0  0  0  0
 13 46  1  0  0  0  0
 14 15  1  0  0  0  0
 14 16  1  0  0  0  0
 14 47  1  1  0  0  0
 15 48  1  0  0  0  0
 16 17  1  0  0  0  0
 16 20  1  0  0  0  0
 16 21  1  1  0  0  0
 17 18  1  0  0  0  0
 17 49  1  6  0  0  0
 18 19  1  0  0  0  0
 18 50  1  0  0  0  0
 18 51  1  0  0  0  0
 19 20  1  0  0  0  0
 19 52  1  0  0  0  0
 19 53  1  0  0  0  0
 20 23  1  0  0  0  0
 20 54  1  6  0  0  0
 21 55  1  0  0  0  0
 21 56  1  0  0  0  0
 21 57  1  0  0  0  0
 22 58  1  0  0  0  0
 22 59  1  0  0  0  0
 22 60  1  0  0  0  0
 23 24  1  0  0  0  0
 23 25  1  0  0  0  0
 23 61  1  1  0  0  0
 24 62  1  0  0  0  0
 24 63  1  0  0  0  0
 24 64  1  0  0  0  0
 25 26  1  0  0  0  0
 25 65  1  0  0  0  0
 25 66  1  0  0  0  0
 26 28  1  0  0  0  0
 26 67  1  0  0  0  0
 26 68  1  0  0  0  0
 27 28  2  0  0  0  0
 28 29  1  0  0  0  0
M  END
$$$$
