CHT
 OpenBabel04091914573D

 21 20  0  0  0  0  0  0  0  0999 V2000
   -3.4547    3.6026  -20.4065 C   0  0  0  0  0  0  0  0  0  0  0  0
   -4.3164    4.5221  -21.2819 C   0  0  0  0  0  0  0  0  0  0  0  0
   -6.4818    5.2747  -22.1792 C   0  0  0  0  0  0  0  0  0  0  0  0
   -6.1219    2.8393  -22.0066 C   0  0  0  0  0  0  0  0  0  0  0  0
   -6.4394    4.1715  -19.9393 C   0  0  0  0  0  0  0  0  0  0  0  0
   -3.6854    3.8583  -19.0292 O   0  0  0  0  0  0  0  0  0  0  0  0
   -5.8273    4.1791  -21.3378 N   0  3  0  0  0  0  0  0  0  0  0  0
   -2.3961    3.8107  -20.6171 H   0  0  0  0  0  0  0  0  0  0  0  0
   -3.6393    2.5470  -20.6051 H   0  0  0  0  0  0  0  0  0  0  0  0
   -3.9544    4.4962  -22.3231 H   0  0  0  0  0  0  0  0  0  0  0  0
   -4.2528    5.5436  -20.9014 H   0  0  0  0  0  0  0  0  0  0  0  0
   -7.5544    5.0717  -22.2464 H   0  0  0  0  0  0  0  0  0  0  0  0
   -6.0264    5.2553  -23.1744 H   0  0  0  0  0  0  0  0  0  0  0  0
   -6.3060    6.2379  -21.6968 H   0  0  0  0  0  0  0  0  0  0  0  0
   -5.7080    2.0385  -21.3937 H   0  0  0  0  0  0  0  0  0  0  0  0
   -5.6808    2.8457  -23.0047 H   0  0  0  0  0  0  0  0  0  0  0  0
   -7.2106    2.7352  -22.0690 H   0  0  0  0  0  0  0  0  0  0  0  0
   -6.1860    5.1143  -19.4445 H   0  0  0  0  0  0  0  0  0  0  0  0
   -6.0569    3.3083  -19.3932 H   0  0  0  0  0  0  0  0  0  0  0  0
   -7.5238    4.0765  -20.0460 H   0  0  0  0  0  0  0  0  0  0  0  0
   -2.9942    3.3852  -18.5208 H   0  0  0  0  0  0  0  0  0  0  0  0
  1  2  1  0  0  0  0
  1  6  1  0  0  0  0
  1  8  1  0  0  0  0
  1  9  1  0  0  0  0
  2  7  1  0  0  0  0
  2 10  1  0  0  0  0
  2 11  1  0  0  0  0
  3  7  1  0  0  0  0
  3 12  1  0  0  0  0
  3 13  1  0  0  0  0
  3 14  1  0  0  0  0
  4  7  1  0  0  0  0
  4 15  1  0  0  0  0
  4 16  1  0  0  0  0
  4 17  1  0  0  0  0
  5  7  1  0  0  0  0
  5 18  1  0  0  0  0
  5 19  1  0  0  0  0
  5 20  1  0  0  0  0
  6 21  1  0  0  0  0
M  CHG  1   7   1
M  END
$$$$
