CIT
 OpenBabel04091913263D

 18 17  0  0  1  0  0  0  0  0999 V2000
    3.7764    0.7218    6.0823 C   0  0  0  0  0  0  0  0  0  0  0  0
    3.0470    0.7727    7.1307 O   0  0  0  0  0  0  0  0  0  0  0  0
    3.5782    1.3360    5.0022 O   0  0  0  0  0  0  0  0  0  0  0  0
    4.8999   -0.3180    6.1697 C   0  0  0  0  0  0  0  0  0  0  0  0
    6.3162    0.2784    6.0178 C   0  0  1  0  0  0  0  0  0  0  0  0
    6.4213    1.3859    6.9552 O   0  0  0  0  0  0  0  0  0  0  0  0
    7.3774   -0.7578    6.4357 C   0  0  0  0  0  0  0  0  0  0  0  0
    8.8218   -0.2389    6.3554 C   0  0  0  0  0  0  0  0  0  0  0  0
    9.4033   -0.3024    5.2351 O   0  0  0  0  0  0  0  0  0  0  0  0
    9.3679   -0.0137    7.4893 O   0  0  0  0  0  0  0  0  0  0  0  0
    6.5334    0.6793    4.4824 C   0  0  0  0  0  0  0  0  0  0  0  0
    6.2715   -0.2488    3.6420 O   0  0  0  0  0  0  0  0  0  0  0  0
    6.9503    1.8502    4.2167 O   0  0  0  0  0  0  0  0  0  0  0  0
    4.7073   -1.0945    5.4184 H   0  0  0  0  0  0  0  0  0  0  0  0
    4.8046   -0.8295    7.1386 H   0  0  0  0  0  0  0  0  0  0  0  0
    6.2042    1.0100    7.8340 H   0  0  0  0  0  0  0  0  0  0  0  0
    7.3077   -1.6654    5.8241 H   0  0  0  0  0  0  0  0  0  0  0  0
    7.2061   -1.0794    7.4774 H   0  0  0  0  0  0  0  0  0  0  0  0
  1  2  2  0  0  0  0
  1  3  1  0  0  0  0
  1  4  1  0  0  0  0
  4 14  1  0  0  0  0
  4 15  1  0  0  0  0
  5  4  1  1  0  0  0
  5  6  1  0  0  0  0
  5  7  1  0  0  0  0
  5 11  1  0  0  0  0
  6 16  1  0  0  0  0
  7  8  1  0  0  0  0
  7 17  1  0  0  0  0
  7 18  1  0  0  0  0
  8  9  2  0  0  0  0
  8 10  1  0  0  0  0
 11 12  2  0  0  0  0
 11 13  1  0  0  0  0
M  END
$$$$
