CKI
 OpenBabel04091914463D

 31 32  0  0  0  0  0  0  0  0999 V2000
   29.1864   10.7471   69.9986 C   0  0  0  0  0  0  0  0  0  0  0  0
   28.8242   11.4180   71.1098 N   0  0  0  0  0  0  0  0  0  0  0  0
   27.6168   11.1154   71.6250 C   0  0  0  0  0  0  0  0  0  0  0  0
   26.7760   10.1580   71.0975 C   0  0  0  0  0  0  0  0  0  0  0  0
   26.3591    8.4365   69.3491 C   0  0  0  0  0  0  0  0  0  0  0  0
   24.8174    7.9849   69.9886 Cl  0  0  0  0  0  0  0  0  0  0  0  0
   26.7701    7.7670   68.2006 C   0  0  0  0  0  0  0  0  0  0  0  0
   27.9820    8.0949   67.6063 C   0  0  0  0  0  0  0  0  0  0  0  0
   28.8117    9.0740   68.1883 C   0  0  0  0  0  0  0  0  0  0  0  0
   28.4226    9.7525   69.3636 C   0  0  0  0  0  0  0  0  0  0  0  0
   27.1683    9.4417   69.9469 C   0  0  0  0  0  0  0  0  0  0  0  0
   30.3699    9.4731   67.4001 S   0  0  0  0  0  0  0  0  0  0  0  0
   31.4372    9.1104   68.3162 O   0  0  0  0  0  0  0  0  0  0  0  0
   30.2366   10.7783   66.8183 O   0  0  0  0  0  0  0  0  0  0  0  0
   30.4108    8.3658   66.1349 N   0  0  0  0  0  0  0  0  0  0  0  0
   31.1030    7.0748   66.2903 C   0  0  0  0  0  0  0  0  0  0  0  0
   30.7738    6.3551   67.6183 C   0  0  0  0  0  0  0  0  0  0  0  0
   31.6211    5.1849   67.8781 N   0  3  0  0  0  0  0  0  0  0  0  0
   30.1626   11.0626   69.6357 H   0  0  0  0  0  0  0  0  0  0  0  0
   27.3373   11.6894   72.5109 H   0  0  0  0  0  0  0  0  0  0  0  0
   25.8238    9.9851   71.5817 H   0  0  0  0  0  0  0  0  0  0  0  0
   26.1396    7.0088   67.7466 H   0  0  0  0  0  0  0  0  0  0  0  0
   28.2402    7.5881   66.6888 H   0  0  0  0  0  0  0  0  0  0  0  0
   30.3227    8.8033   65.2167 H   0  0  0  0  0  0  0  0  0  0  0  0
   32.1795    7.2281   66.1651 H   0  0  0  0  0  0  0  0  0  0  0  0
   30.7753    6.4402   65.4587 H   0  0  0  0  0  0  0  0  0  0  0  0
   29.7412    5.9920   67.6128 H   0  0  0  0  0  0  0  0  0  0  0  0
   30.9011    6.9734   68.5036 H   0  0  0  0  0  0  0  0  0  0  0  0
   31.3771    4.7895   68.8074 H   0  0  0  0  0  0  0  0  0  0  0  0
   31.5097    4.4282   67.1891 H   0  0  0  0  0  0  0  0  0  0  0  0
   32.6210    5.4390   67.9357 H   0  0  0  0  0  0  0  0  0  0  0  0
  1  2  2  0  0  0  0
  1 10  1  0  0  0  0
  1 19  1  0  0  0  0
  2  3  1  0  0  0  0
  3  4  2  0  0  0  0
  3 20  1  0  0  0  0
  4 11  1  0  0  0  0
  4 21  1  0  0  0  0
  5  6  1  0  0  0  0
  5  7  2  0  0  0  0
  5 11  1  0  0  0  0
  7  8  1  0  0  0  0
  7 22  1  0  0  0  0
  8  9  2  0  0  0  0
  8 23  1  0  0  0  0
  9 10  1  0  0  0  0
  9 12  1  0  0  0  0
 10 11  2  0  0  0  0
 12 13  2  0  0  0  0
 12 14  2  0  0  0  0
 12 15  1  0  0  0  0
 15 16  1  0  0  0  0
 15 24  1  0  0  0  0
 16 17  1  0  0  0  0
 16 25  1  0  0  0  0
 16 26  1  0  0  0  0
 17 18  1  0  0  0  0
 17 27  1  0  0  0  0
 17 28  1  0  0  0  0
 18 29  1  0  0  0  0
 18 30  1  0  0  0  0
 18 31  1  0  0  0  0
M  CHG  1  18   1
M  END
$$$$
