CMP
 OpenBabel04091914173D

 33 36  0  0  1  0  0  0  0  0999 V2000
   -3.0995   33.6644   27.2779 P   0  0  1  0  0  0  0  0  0  0  0  0
   -1.8016   32.9273   27.5140 O   0  0  0  0  0  0  0  0  0  0  0  0
   -4.3561   32.9796   26.8318 O   0  0  0  0  0  0  0  0  0  0  0  0
   -3.4269   34.5253   28.6283 O   0  0  0  0  0  0  0  0  0  0  0  0
   -2.4240   35.4270   29.0660 C   0  0  0  0  0  0  0  0  0  0  0  0
   -2.1928   36.4312   27.9597 C   0  0  1  0  0  0  0  0  0  0  0  0
   -1.1769   37.4101   28.2110 O   0  0  0  0  0  0  0  0  0  0  0  0
   -1.7594   35.7327   26.6909 C   0  0  1  0  0  0  0  0  0  0  0  0
   -2.7888   34.8934   26.2343 O   0  0  0  0  0  0  0  0  0  0  0  0
   -1.4106   36.9430   25.8408 C   0  0  1  0  0  0  0  0  0  0  0  0
   -2.5883   37.5937   25.3333 O   0  0  0  0  0  0  0  0  0  0  0  0
   -0.7227   37.8511   26.8926 C   0  0  2  0  0  0  0  0  0  0  0  0
    0.7292   37.7889   26.8589 N   0  3  0  0  0  0  0  0  0  0  0  0
    1.4947   36.7255   27.2671 C   0  0  0  0  0  0  0  0  0  0  0  0
    2.7879   36.9396   27.0922 N   0  0  0  0  0  0  0  0  0  0  0  0
    2.8602   38.2060   26.5463 C   0  0  0  0  0  0  0  0  0  0  0  0
    3.9589   38.9887   26.1480 C   0  0  0  0  0  0  0  0  0  0  0  0
    5.2595   38.5478   26.2633 N   0  0  0  0  0  0  0  0  0  0  0  0
    3.7230   40.2111   25.6365 N   0  0  0  0  0  0  0  0  0  0  0  0
    2.4388   40.6210   25.5306 C   0  0  0  0  0  0  0  0  0  0  0  0
    1.3087   39.9653   25.8729 N   0  0  0  0  0  0  0  0  0  0  0  0
    1.5895   38.7561   26.3840 C   0  0  0  0  0  0  0  0  0  0  0  0
   -1.5080   34.8933   29.3410 H   0  0  0  0  0  0  0  0  0  0  0  0
   -2.7740   35.9436   29.9674 H   0  0  0  0  0  0  0  0  0  0  0  0
   -3.1532   36.9403   27.7822 H   0  0  0  0  0  0  0  0  0  0  0  0
   -0.8483   35.1416   26.8417 H   0  0  0  0  0  0  0  0  0  0  0  0
   -0.7766   36.7129   24.9807 H   0  0  0  0  0  0  0  0  0  0  0  0
   -3.1040   36.9035   24.8702 H   0  0  0  0  0  0  0  0  0  0  0  0
   -1.0320   38.8956   26.7898 H   0  0  0  0  0  0  0  0  0  0  0  0
    1.0722   35.8190   27.6836 H   0  0  0  0  0  0  0  0  0  0  0  0
    6.0153   39.1480   25.9783 H   0  0  0  0  0  0  0  0  0  0  0  0
    5.4186   37.6325   26.6629 H   0  0  0  0  0  0  0  0  0  0  0  0
    2.2992   41.6151   25.1096 H   0  0  0  0  0  0  0  0  0  0  0  0
  1  2  2  1  0  0  0
  1  3  1  0  0  0  0
  1  4  1  0  0  0  0
  1  9  1  0  0  0  0
  4  5  1  0  0  0  0
  5  6  1  0  0  0  0
  5 23  1  0  0  0  0
  5 24  1  0  0  0  0
  6  7  1  0  0  0  0
  6  8  1  0  0  0  0
  6 25  1  6  0  0  0
  7 12  1  0  0  0  0
  8  9  1  0  0  0  0
  8 10  1  0  0  0  0
  8 26  1  1  0  0  0
 10 11  1  0  0  0  0
 10 12  1  0  0  0  0
 10 27  1  6  0  0  0
 11 28  1  0  0  0  0
 12 13  1  0  0  0  0
 12 29  1  6  0  0  0
 13 14  2  0  0  0  0
 13 22  1  0  0  0  0
 14 15  1  0  0  0  0
 14 30  1  0  0  0  0
 15 16  1  0  0  0  0
 16 17  2  0  0  0  0
 16 22  1  0  0  0  0
 17 18  1  0  0  0  0
 17 19  1  0  0  0  0
 18 31  1  0  0  0  0
 18 32  1  0  0  0  0
 19 20  2  0  0  0  0
 20 21  1  0  0  0  0
 20 33  1  0  0  0  0
 21 22  2  0  0  0  0
M  CHG  1  13   1
M  END
$$$$
