CMP
 OpenBabel04091915503D

 33 36  0  0  1  0  0  0  0  0999 V2000
   -7.3030  -23.1928   -7.4131 P   0  0  1  0  0  0  0  0  0  0  0  0
   -7.9971  -22.9336   -6.1019 O   0  0  0  0  0  0  0  0  0  0  0  0
   -6.6087  -24.4844   -7.7195 O   0  0  0  0  0  0  0  0  0  0  0  0
   -8.3495  -22.8574   -8.6310 O   0  0  0  0  0  0  0  0  0  0  0  0
   -8.8780  -21.5445   -8.7608 C   0  0  0  0  0  0  0  0  0  0  0  0
   -7.7276  -20.5770   -8.8688 C   0  0  1  0  0  0  0  0  0  0  0  0
   -8.0599  -19.1875   -8.8834 O   0  0  0  0  0  0  0  0  0  0  0  0
   -6.8189  -20.7182   -7.6724 C   0  0  1  0  0  0  0  0  0  0  0  0
   -6.2226  -21.9837   -7.6302 O   0  0  0  0  0  0  0  0  0  0  0  0
   -5.8707  -19.5600   -7.8951 C   0  0  1  0  0  0  0  0  0  0  0  0
   -4.7335  -19.9102   -8.6888 O   0  0  0  0  0  0  0  0  0  0  0  0
   -6.7891  -18.5284   -8.5881 C   0  0  2  0  0  0  0  0  0  0  0  0
   -7.0389  -17.4259   -7.6680 N   0  3  0  0  0  0  0  0  0  0  0  0
   -7.6393  -17.5603   -6.4371 C   0  0  0  0  0  0  0  0  0  0  0  0
   -7.5684  -16.4508   -5.7334 N   0  0  0  0  0  0  0  0  0  0  0  0
   -6.9020  -15.5459   -6.5466 C   0  0  0  0  0  0  0  0  0  0  0  0
   -6.5245  -14.1883   -6.3676 C   0  0  0  0  0  0  0  0  0  0  0  0
   -6.8341  -13.4372   -5.2386 N   0  0  0  0  0  0  0  0  0  0  0  0
   -5.8883  -13.5711   -7.3848 N   0  0  0  0  0  0  0  0  0  0  0  0
   -5.5929  -14.2851   -8.4884 C   0  0  0  0  0  0  0  0  0  0  0  0
   -5.8621  -15.5836   -8.7581 N   0  0  0  0  0  0  0  0  0  0  0  0
   -6.5410  -16.1504   -7.7469 C   0  0  0  0  0  0  0  0  0  0  0  0
   -9.5536  -21.3003   -7.9290 H   0  0  0  0  0  0  0  0  0  0  0  0
   -9.4826  -21.4975   -9.6730 H   0  0  0  0  0  0  0  0  0  0  0  0
   -7.1787  -20.8163   -9.7921 H   0  0  0  0  0  0  0  0  0  0  0  0
   -7.3822  -20.5303   -6.7452 H   0  0  0  0  0  0  0  0  0  0  0  0
   -5.4792  -19.1805   -6.9506 H   0  0  0  0  0  0  0  0  0  0  0  0
   -4.2750  -20.6194   -8.1828 H   0  0  0  0  0  0  0  0  0  0  0  0
   -6.3951  -18.1638   -9.5419 H   0  0  0  0  0  0  0  0  0  0  0  0
   -8.0789  -18.4970   -6.1084 H   0  0  0  0  0  0  0  0  0  0  0  0
   -6.5509  -12.4803   -5.1950 H   0  0  0  0  0  0  0  0  0  0  0  0
   -7.3210  -13.8981   -4.4845 H   0  0  0  0  0  0  0  0  0  0  0  0
   -5.0754  -13.7421   -9.2826 H   0  0  0  0  0  0  0  0  0  0  0  0
  1  2  2  1  0  0  0
  1  3  1  0  0  0  0
  1  4  1  0  0  0  0
  1  9  1  0  0  0  0
  4  5  1  0  0  0  0
  5  6  1  0  0  0  0
  5 23  1  0  0  0  0
  5 24  1  0  0  0  0
  6  7  1  0  0  0  0
  6  8  1  0  0  0  0
  6 25  1  6  0  0  0
  7 12  1  0  0  0  0
  8  9  1  0  0  0  0
  8 10  1  0  0  0  0
  8 26  1  1  0  0  0
 10 11  1  0  0  0  0
 10 12  1  0  0  0  0
 10 27  1  1  0  0  0
 11 28  1  0  0  0  0
 12 13  1  0  0  0  0
 12 29  1  6  0  0  0
 13 14  2  0  0  0  0
 13 22  1  0  0  0  0
 14 15  1  0  0  0  0
 14 30  1  0  0  0  0
 15 16  1  0  0  0  0
 16 17  2  0  0  0  0
 16 22  1  0  0  0  0
 17 18  1  0  0  0  0
 17 19  1  0  0  0  0
 18 31  1  0  0  0  0
 18 32  1  0  0  0  0
 19 20  2  0  0  0  0
 20 21  1  0  0  0  0
 20 33  1  0  0  0  0
 21 22  2  0  0  0  0
M  CHG  1  13   1
M  END
$$$$
