CTT
 OpenBabel04091912223D

 87 90  0  0  1  0  0  0  0  0999 V2000
   -2.4923   -0.8297   51.8971 O   0  0  0  0  0  0  0  0  0  0  0  0
   -1.3068   -0.4387   51.2058 C   0  0  1  0  0  0  0  0  0  0  0  0
   -0.8477   -1.6091   50.3354 C   0  0  2  0  0  0  0  0  0  0  0  0
   -0.5507   -2.7601   51.1449 O   0  0  0  0  0  0  0  0  0  0  0  0
    0.3769   -1.1877   49.5260 C   0  0  1  0  0  0  0  0  0  0  0  0
    0.7631   -2.3082   48.7049 O   0  0  0  0  0  0  0  0  0  0  0  0
   -1.6281    0.6828   50.4047 O   0  0  0  0  0  0  0  0  0  0  0  0
   -0.6341    1.1615   49.4875 C   0  0  2  0  0  0  0  0  0  0  0  0
   -1.4218    2.0843   48.5233 C   0  0  0  0  0  0  0  0  0  0  0  0
   -1.4387    3.4423   48.9523 O   0  0  0  0  0  0  0  0  0  0  0  0
    0.0457    0.0382   48.6533 C   0  0  1  0  0  0  0  0  0  0  0  0
    1.2795    0.5297   48.0673 O   0  0  0  0  0  0  0  0  0  0  0  0
    1.2071    0.7168   46.6451 C   0  0  1  0  0  0  0  0  0  0  0  0
    2.4706    1.4339   46.1375 C   0  0  2  0  0  0  0  0  0  0  0  0
    2.6118    2.6906   46.8278 O   0  0  0  0  0  0  0  0  0  0  0  0
    2.3631    1.6729   44.6238 C   0  0  1  0  0  0  0  0  0  0  0  0
    3.5928    2.2240   44.1475 O   0  0  0  0  0  0  0  0  0  0  0  0
    1.0186   -0.4930   45.9672 O   0  0  0  0  0  0  0  0  0  0  0  0
    0.7611   -0.2594   44.5665 C   0  0  2  0  0  0  0  0  0  0  0  0
    0.3488   -1.5850   43.9543 C   0  0  0  0  0  0  0  0  0  0  0  0
   -0.9528   -1.9249   44.4595 O   0  0  0  0  0  0  0  0  0  0  0  0
    1.9667    0.3961   43.8494 C   0  0  1  0  0  0  0  0  0  0  0  0
    1.5201    0.7459   42.5222 O   0  0  0  0  0  0  0  0  0  0  0  0
    2.4538    0.4604   41.4761 C   0  0  1  0  0  0  0  0  0  0  0  0
    1.6786    0.4430   40.1455 C   0  0  2  0  0  0  0  0  0  0  0  0
    0.6638   -0.5750   40.1903 O   0  0  0  0  0  0  0  0  0  0  0  0
    2.6566    0.1333   39.0228 C   0  0  1  0  0  0  0  0  0  0  0  0
    2.0182    0.1793   37.7374 O   0  0  0  0  0  0  0  0  0  0  0  0
    3.4800    1.4357   41.3872 O   0  0  0  0  0  0  0  0  0  0  0  0
    4.4900    1.0874   40.4167 C   0  0  2  0  0  0  0  0  0  0  0  0
    5.6509    2.0791   40.5651 C   0  0  0  0  0  0  0  0  0  0  0  0
    6.0827    2.1049   41.9301 O   0  0  0  0  0  0  0  0  0  0  0  0
    3.8937    1.0605   38.9951 C   0  0  1  0  0  0  0  0  0  0  0  0
    4.7292    0.4507   37.9954 O   0  0  0  0  0  0  0  0  0  0  0  0
    5.5410    1.2642   37.1352 C   0  0  1  0  0  0  0  0  0  0  0  0
    5.8610    0.3844   35.8753 C   0  0  2  0  0  0  0  0  0  0  0  0
    7.2774    0.2263   35.6818 O   0  0  0  0  0  0  0  0  0  0  0  0
    5.2002    0.9028   34.5946 C   0  0  1  0  0  0  0  0  0  0  0  0
    5.0759   -0.1419   33.6265 O   0  0  0  0  0  0  0  0  0  0  0  0
    3.8370    1.4863   34.9640 C   0  0  2  0  0  0  0  0  0  0  0  0
    3.0709    1.7388   33.7893 O   0  0  0  0  0  0  0  0  0  0  0  0
    4.9853    2.5549   36.8909 O   0  0  0  0  0  0  0  0  0  0  0  0
    4.1745    2.7667   35.7281 C   0  0  2  0  0  0  0  0  0  0  0  0
    2.9778    3.6755   36.0514 C   0  0  0  0  0  0  0  0  0  0  0  0
    1.9383    3.0341   36.7727 O   0  0  0  0  0  0  0  0  0  0  0  0
   -2.2874   -1.6901   52.3072 H   0  0  0  0  0  0  0  0  0  0  0  0
   -0.5632   -0.1823   51.9676 H   0  0  0  0  0  0  0  0  0  0  0  0
   -1.6561   -1.9154   49.6605 H   0  0  0  0  0  0  0  0  0  0  0  0
   -0.1555   -3.4146   50.5412 H   0  0  0  0  0  0  0  0  0  0  0  0
    1.2277   -0.9931   50.1814 H   0  0  0  0  0  0  0  0  0  0  0  0
    0.0631   -2.4605   48.0459 H   0  0  0  0  0  0  0  0  0  0  0  0
    0.1068    1.7503   50.0432 H   0  0  0  0  0  0  0  0  0  0  0  0
   -2.4634    1.7505   48.4490 H   0  0  0  0  0  0  0  0  0  0  0  0
   -1.0288    2.0872   47.5150 H   0  0  0  0  0  0  0  0  0  0  0  0
   -0.5277    3.7813   48.9032 H   0  0  0  0  0  0  0  0  0  0  0  0
   -0.6390   -0.2883   47.8721 H   0  0  0  0  0  0  0  0  0  0  0  0
    0.3481    1.3860   46.4478 H   0  0  0  0  0  0  0  0  0  0  0  0
    3.3708    0.8391   46.3526 H   0  0  0  0  0  0  0  0  0  0  0  0
    2.7547    2.4607   47.7611 H   0  0  0  0  0  0  0  0  0  0  0  0
    1.6117    2.4548   44.4337 H   0  0  0  0  0  0  0  0  0  0  0  0
    4.3051    1.5679   44.2099 H   0  0  0  0  0  0  0  0  0  0  0  0
   -0.1078    0.4164   44.4958 H   0  0  0  0  0  0  0  0  0  0  0  0
    1.0232   -2.4004   44.2526 H   0  0  0  0  0  0  0  0  0  0  0  0
    0.2840   -1.5500   42.8734 H   0  0  0  0  0  0  0  0  0  0  0  0
   -0.8940   -1.8500   45.4275 H   0  0  0  0  0  0  0  0  0  0  0  0
    2.8097   -0.3006   43.8203 H   0  0  0  0  0  0  0  0  0  0  0  0
    2.8850   -0.5361   41.6604 H   0  0  0  0  0  0  0  0  0  0  0  0
    1.1717    1.4024   39.9645 H   0  0  0  0  0  0  0  0  0  0  0  0
    0.0390   -0.2872   40.8827 H   0  0  0  0  0  0  0  0  0  0  0  0
    2.9982   -0.9077   39.1346 H   0  0  0  0  0  0  0  0  0  0  0  0
    2.6977   -0.1774   37.1396 H   0  0  0  0  0  0  0  0  0  0  0  0
    4.8884    0.0965   40.6813 H   0  0  0  0  0  0  0  0  0  0  0  0
    5.3440    3.0908   40.2703 H   0  0  0  0  0  0  0  0  0  0  0  0
    6.5046    1.7666   39.9677 H   0  0  0  0  0  0  0  0  0  0  0  0
    6.7045    2.8456   42.0203 H   0  0  0  0  0  0  0  0  0  0  0  0
    3.5691    2.0630   38.6885 H   0  0  0  0  0  0  0  0  0  0  0  0
    6.4808    1.4380   37.6692 H   0  0  0  0  0  0  0  0  0  0  0  0
    5.4977   -0.6363   36.0554 H   0  0  0  0  0  0  0  0  0  0  0  0
    7.6492    1.0719   35.3810 H   0  0  0  0  0  0  0  0  0  0  0  0
    5.8274    1.6664   34.1183 H   0  0  0  0  0  0  0  0  0  0  0  0
    4.6264    0.2585   32.8568 H   0  0  0  0  0  0  0  0  0  0  0  0
    3.2860    0.7655   35.5698 H   0  0  0  0  0  0  0  0  0  0  0  0
    2.1637    1.9626   34.0693 H   0  0  0  0  0  0  0  0  0  0  0  0
    4.7936    3.3852   35.0639 H   0  0  0  0  0  0  0  0  0  0  0  0
    2.5544    4.0990   35.1330 H   0  0  0  0  0  0  0  0  0  0  0  0
    3.3164    4.5113   36.6726 H   0  0  0  0  0  0  0  0  0  0  0  0
    1.5495    2.3097   36.2540 H   0  0  0  0  0  0  0  0  0  0  0  0
  1  2  1  0  0  0  0
  1 46  1  0  0  0  0
  2  3  1  0  0  0  0
  2  7  1  0  0  0  0
  2 47  1  1  0  0  0
  3  4  1  0  0  0  0
  3  5  1  0  0  0  0
  3 48  1  6  0  0  0
  4 49  1  0  0  0  0
  5  6  1  0  0  0  0
  5 11  1  0  0  0  0
  5 50  1  1  0  0  0
  6 51  1  0  0  0  0
  7  8  1  0  0  0  0
  8  9  1  0  0  0  0
  8 11  1  0  0  0  0
  8 52  1  1  0  0  0
  9 10  1  0  0  0  0
  9 53  1  0  0  0  0
  9 54  1  0  0  0  0
 10 55  1  0  0  0  0
 11 12  1  0  0  0  0
 11 56  1  6  0  0  0
 12 13  1  0  0  0  0
 13 14  1  0  0  0  0
 13 18  1  0  0  0  0
 13 57  1  6  0  0  0
 14 15  1  0  0  0  0
 14 16  1  0  0  0  0
 14 58  1  1  0  0  0
 15 59  1  0  0  0  0
 16 17  1  0  0  0  0
 16 22  1  0  0  0  0
 16 60  1  6  0  0  0
 17 61  1  0  0  0  0
 18 19  1  0  0  0  0
 19 20  1  0  0  0  0
 19 22  1  0  0  0  0
 19 62  1  6  0  0  0
 20 21  1  0  0  0  0
 20 63  1  0  0  0  0
 20 64  1  0  0  0  0
 21 65  1  0  0  0  0
 22 23  1  0  0  0  0
 22 66  1  6  0  0  0
 23 24  1  0  0  0  0
 24 25  1  0  0  0  0
 24 29  1  0  0  0  0
 24 67  1  1  0  0  0
 25 26  1  0  0  0  0
 25 27  1  0  0  0  0
 25 68  1  6  0  0  0
 26 69  1  0  0  0  0
 27 28  1  0  0  0  0
 27 33  1  0  0  0  0
 27 70  1  1  0  0  0
 28 71  1  0  0  0  0
 29 30  1  0  0  0  0
 30 31  1  0  0  0  0
 30 33  1  0  0  0  0
 30 72  1  1  0  0  0
 31 32  1  0  0  0  0
 31 73  1  0  0  0  0
 31 74  1  0  0  0  0
 32 75  1  0  0  0  0
 33 34  1  0  0  0  0
 33 76  1  6  0  0  0
 34 35  1  0  0  0  0
 35 36  1  0  0  0  0
 35 42  1  0  0  0  0
 35 77  1  1  0  0  0
 36 37  1  0  0  0  0
 36 38  1  0  0  0  0
 36 78  1  1  0  0  0
 37 79  1  0  0  0  0
 38 39  1  0  0  0  0
 38 40  1  0  0  0  0
 38 80  1  6  0  0  0
 39 81  1  0  0  0  0
 40 41  1  0  0  0  0
 40 43  1  0  0  0  0
 40 82  1  1  0  0  0
 41 83  1  0  0  0  0
 42 43  1  0  0  0  0
 43 44  1  0  0  0  0
 43 84  1  6  0  0  0
 44 45  1  0  0  0  0
 44 85  1  0  0  0  0
 44 86  1  0  0  0  0
 45 87  1  0  0  0  0
M  END
$$$$
