CVI
 OpenBabel04091916283D

 59 61  0  0  0  0  0  0  0  0999 V2000
  -13.4337    2.6943  -18.6249 C   0  0  0  0  0  0  0  0  0  0  0  0
  -12.6830    3.4105  -17.5529 C   0  0  0  0  0  0  0  0  0  0  0  0
  -11.6205    2.7339  -16.9174 C   0  0  0  0  0  0  0  0  0  0  0  0
  -10.9983    3.2838  -15.8641 C   0  0  0  0  0  0  0  0  0  0  0  0
  -11.4083    4.5294  -15.3490 C   0  0  0  0  0  0  0  0  0  0  0  0
  -12.4826    5.1829  -15.9957 C   0  0  0  0  0  0  0  0  0  0  0  0
  -13.1075    4.6473  -17.0724 C   0  0  0  0  0  0  0  0  0  0  0  0
  -14.8794    3.0925  -18.8193 C   0  0  0  0  0  0  0  0  0  0  0  0
  -15.4040    3.5878  -20.0215 C   0  0  0  0  0  0  0  0  0  0  0  0
  -16.7516    3.8392  -20.1251 C   0  0  0  0  0  0  0  0  0  0  0  0
  -17.6279    3.6400  -19.0451 C   0  0  0  0  0  0  0  0  0  0  0  0
  -17.0543    3.1672  -17.8632 C   0  0  0  0  0  0  0  0  0  0  0  0
  -15.7403    2.8829  -17.7322 C   0  0  0  0  0  0  0  0  0  0  0  0
  -12.6389    2.0656  -19.7163 C   0  0  0  0  0  0  0  0  0  0  0  0
  -11.2465    2.1685  -19.8522 C   0  0  0  0  0  0  0  0  0  0  0  0
  -10.6167    1.4100  -20.8123 C   0  0  0  0  0  0  0  0  0  0  0  0
  -11.3108    0.5204  -21.6824 C   0  0  0  0  0  0  0  0  0  0  0  0
  -12.6928    0.4137  -21.4619 C   0  0  0  0  0  0  0  0  0  0  0  0
  -13.3358    1.1680  -20.5089 C   0  0  0  0  0  0  0  0  0  0  0  0
   -9.4775    4.6335  -13.8244 C   0  0  0  0  0  0  0  0  0  0  0  0
  -11.3848    6.1729  -13.4890 C   0  0  0  0  0  0  0  0  0  0  0  0
  -19.5236    4.6291  -20.2356 C   0  0  0  0  0  0  0  0  0  0  0  0
  -19.8111    3.4712  -18.0210 C   0  0  0  0  0  0  0  0  0  0  0  0
   -9.2338   -0.1863  -22.7336 C   0  0  0  0  0  0  0  0  0  0  0  0
  -11.3599   -0.8434  -23.7881 C   0  0  0  0  0  0  0  0  0  0  0  0
  -10.7885    5.0936  -14.2498 N   0  0  0  0  0  0  0  0  0  0  0  0
  -18.9654    3.8920  -19.1177 N   0  0  0  0  0  0  0  0  0  0  0  0
  -10.6824   -0.1942  -22.6665 N   0  0  0  0  0  0  0  0  0  0  0  0
  -13.6253    1.7877  -18.0609 H   0  0  0  0  0  0  0  0  0  0  0  0
  -11.3040    1.7582  -17.3299 H   0  0  0  0  0  0  0  0  0  0  0  0
  -10.1713    2.7357  -15.3838 H   0  0  0  0  0  0  0  0  0  0  0  0
  -12.8288    6.1584  -15.6609 H   0  0  0  0  0  0  0  0  0  0  0  0
  -13.9577    5.1418  -17.5462 H   0  0  0  0  0  0  0  0  0  0  0  0
  -14.7347    3.7505  -20.8658 H   0  0  0  0  0  0  0  0  0  0  0  0
  -17.1527    4.2071  -21.0672 H   0  0  0  0  0  0  0  0  0  0  0  0
  -17.6209    3.0157  -16.9441 H   0  0  0  0  0  0  0  0  0  0  0  0
  -15.3574    2.5192  -16.7665 H   0  0  0  0  0  0  0  0  0  0  0  0
  -10.6656    2.8185  -19.1971 H   0  0  0  0  0  0  0  0  0  0  0  0
   -9.5436    1.5405  -20.9425 H   0  0  0  0  0  0  0  0  0  0  0  0
  -13.2936   -0.2620  -22.0610 H   0  0  0  0  0  0  0  0  0  0  0  0
  -14.4144    1.0515  -20.3835 H   0  0  0  0  0  0  0  0  0  0  0  0
   -9.1432    5.1861  -12.9462 H   0  0  0  0  0  0  0  0  0  0  0  0
   -8.7465    4.7847  -14.6237 H   0  0  0  0  0  0  0  0  0  0  0  0
   -9.5068    3.5749  -13.5559 H   0  0  0  0  0  0  0  0  0  0  0  0
  -12.3736    6.4587  -13.8449 H   0  0  0  0  0  0  0  0  0  0  0  0
  -10.7465    7.0590  -13.5256 H   0  0  0  0  0  0  0  0  0  0  0  0
  -11.5121    5.8702  -12.4467 H   0  0  0  0  0  0  0  0  0  0  0  0
  -20.6098    4.7540  -20.1286 H   0  0  0  0  0  0  0  0  0  0  0  0
  -19.3392    4.0969  -21.1712 H   0  0  0  0  0  0  0  0  0  0  0  0
  -19.0699    5.6226  -20.3013 H   0  0  0  0  0  0  0  0  0  0  0  0
  -19.3041    2.8803  -17.2601 H   0  0  0  0  0  0  0  0  0  0  0  0
  -20.5789    2.7634  -18.3504 H   0  0  0  0  0  0  0  0  0  0  0  0
  -20.2373    4.3255  -17.4818 H   0  0  0  0  0  0  0  0  0  0  0  0
   -8.8748   -0.7755  -23.5794 H   0  0  0  0  0  0  0  0  0  0  0  0
   -8.8200   -0.6183  -21.8179 H   0  0  0  0  0  0  0  0  0  0  0  0
   -8.8618    0.8349  -22.8591 H   0  0  0  0  0  0  0  0  0  0  0  0
  -12.4476   -0.8222  -23.7053 H   0  0  0  0  0  0  0  0  0  0  0  0
  -11.0592   -1.8932  -23.8596 H   0  0  0  0  0  0  0  0  0  0  0  0
  -11.1008   -0.3547  -24.7323 H   0  0  0  0  0  0  0  0  0  0  0  0
  1  2  1  0  0  0  0
  1  8  1  0  0  0  0
  1 14  1  0  0  0  0
  1 29  1  0  0  0  0
  2  3  2  0  0  0  0
  2  7  1  0  0  0  0
  3  4  1  0  0  0  0
  3 30  1  0  0  0  0
  4  5  2  0  0  0  0
  4 31  1  0  0  0  0
  5  6  1  0  0  0  0
  5 26  1  0  0  0  0
  6  7  2  0  0  0  0
  6 32  1  0  0  0  0
  7 33  1  0  0  0  0
  8  9  2  0  0  0  0
  8 13  1  0  0  0  0
  9 10  1  0  0  0  0
  9 34  1  0  0  0  0
 10 11  2  0  0  0  0
 10 35  1  0  0  0  0
 11 12  1  0  0  0  0
 11 27  1  0  0  0  0
 12 13  2  0  0  0  0
 12 36  1  0  0  0  0
 13 37  1  0  0  0  0
 14 15  2  0  0  0  0
 14 19  1  0  0  0  0
 15 16  1  0  0  0  0
 15 38  1  0  0  0  0
 16 17  2  0  0  0  0
 16 39  1  0  0  0  0
 17 18  1  0  0  0  0
 17 28  1  0  0  0  0
 18 19  2  0  0  0  0
 18 40  1  0  0  0  0
 19 41  1  0  0  0  0
 20 26  1  0  0  0  0
 20 42  1  0  0  0  0
 20 43  1  0  0  0  0
 20 44  1  0  0  0  0
 21 26  1  0  0  0  0
 21 45  1  0  0  0  0
 21 46  1  0  0  0  0
 21 47  1  0  0  0  0
 22 27  1  0  0  0  0
 22 48  1  0  0  0  0
 22 49  1  0  0  0  0
 22 50  1  0  0  0  0
 23 27  1  0  0  0  0
 23 51  1  0  0  0  0
 23 52  1  0  0  0  0
 23 53  1  0  0  0  0
 24 28  1  0  0  0  0
 24 54  1  0  0  0  0
 24 55  1  0  0  0  0
 24 56  1  0  0  0  0
 25 28  1  0  0  0  0
 25 57  1  0  0  0  0
 25 58  1  0  0  0  0
 25 59  1  0  0  0  0
M  END
$$$$
