CWD
 OpenBabel04091915043D

 23 23  0  0  1  0  0  0  0  0999 V2000
   18.5449  -20.9881  -26.5778 N   0  3  0  0  0  0  0  0  0  0  0  0
   17.9954  -21.1179  -25.3029 C   0  0  0  0  0  0  0  0  0  0  0  0
   18.6593  -21.1235  -24.2730 O   0  0  0  0  0  0  0  0  0  0  0  0
   16.6338  -21.1845  -25.2487 N   0  3  0  0  0  0  0  0  0  0  0  0
   15.7762  -21.1024  -26.3126 C   0  0  0  0  0  0  0  0  0  0  0  0
   14.5646  -21.0752  -26.1568 O   0  0  0  0  0  0  0  0  0  0  0  0
   16.4238  -21.0189  -27.6471 C   0  0  0  0  0  0  0  0  0  0  0  0
   15.4390  -20.9577  -29.0491 Cl  0  0  0  0  0  0  0  0  0  0  0  0
   17.7582  -20.9657  -27.7129 C   0  0  0  0  0  0  0  0  0  0  0  0
   20.0101  -20.8818  -26.6667 C   0  0  0  0  0  0  0  0  0  0  0  0
   20.4963  -19.5067  -26.2007 C   0  0  2  0  0  0  0  0  0  0  0  0
   20.1719  -18.4584  -27.2664 N   0  3  0  0  0  0  0  0  0  0  0  0
   22.0157  -19.5873  -25.9492 C   0  0  0  0  0  0  0  0  0  0  0  0
   22.6262  -18.7508  -26.6872 O   0  0  0  0  0  0  0  0  0  0  0  0
   22.4201  -20.4170  -25.1086 O   0  0  0  0  0  0  0  0  0  0  0  0
   16.2240  -21.2346  -24.3276 H   0  0  0  0  0  0  0  0  0  0  0  0
   18.2661  -20.9024  -28.6712 H   0  0  0  0  0  0  0  0  0  0  0  0
   20.3293  -21.0805  -27.6988 H   0  0  0  0  0  0  0  0  0  0  0  0
   20.4313  -21.6854  -26.0510 H   0  0  0  0  0  0  0  0  0  0  0  0
   19.9917  -19.1548  -25.2962 H   0  0  0  0  0  0  0  0  0  0  0  0
   20.6081  -17.5882  -26.9268 H   0  0  0  0  0  0  0  0  0  0  0  0
   20.7602  -18.6735  -28.0850 H   0  0  0  0  0  0  0  0  0  0  0  0
   19.1857  -18.3378  -27.4856 H   0  0  0  0  0  0  0  0  0  0  0  0
  1  2  1  0  0  0  0
  1  9  1  0  0  0  0
  1 10  1  0  0  0  0
  2  3  2  0  0  0  0
  2  4  1  0  0  0  0
  4  5  1  0  0  0  0
  4 16  1  0  0  0  0
  5  6  2  0  0  0  0
  5  7  1  0  0  0  0
  7  8  1  0  0  0  0
  7  9  2  0  0  0  0
  9 17  1  0  0  0  0
 10 11  1  0  0  0  0
 10 18  1  0  0  0  0
 10 19  1  0  0  0  0
 11 12  1  0  0  0  0
 11 13  1  0  0  0  0
 11 20  1  1  0  0  0
 12 21  1  0  0  0  0
 12 22  1  0  0  0  0
 12 23  1  0  0  0  0
 13 14  2  0  0  0  0
 13 15  1  0  0  0  0
M  CHG  3   1   1   4   1  12   1
M  END
$$$$
