CZ0
 OpenBabel04091914443D

 28 30  0  0  0  0  0  0  0  0999 V2000
   23.3659    9.4658   16.2299 C   0  0  0  0  0  0  0  0  0  0  0  0
   25.2488    6.2403   16.3514 N   0  0  0  0  0  0  0  0  0  0  0  0
   24.1475    8.4036   15.8163 C   0  0  0  0  0  0  0  0  0  0  0  0
   25.5074    5.3320   17.1435 O   0  0  0  0  0  0  0  0  0  0  0  0
   24.3874    7.3979   16.8202 C   0  0  0  0  0  0  0  0  0  0  0  0
   25.6730    6.2149   15.2180 O   0  0  0  0  0  0  0  0  0  0  0  0
   22.8371    9.5710   17.4977 C   0  0  0  0  0  0  0  0  0  0  0  0
   23.0809    8.5773   18.4414 C   0  0  0  0  0  0  0  0  0  0  0  0
   23.8760    7.4570   18.1140 C   0  0  0  0  0  0  0  0  0  0  0  0
   24.0835    6.4831   19.1305 C   0  0  0  0  0  0  0  0  0  0  0  0
   22.5376    8.6903   19.7083 C   0  0  0  0  0  0  0  0  0  0  0  0
   22.7472    7.7349   20.6886 C   0  0  0  0  0  0  0  0  0  0  0  0
   23.5301    6.6326   20.3669 C   0  0  0  0  0  0  0  0  0  0  0  0
   23.7778    5.6351   21.3125 O   0  3  0  0  0  0  0  0  0  0  0  0
   23.2450    5.7287   22.5962 C   0  0  0  0  0  0  0  0  0  0  0  0
   22.4238    6.8894   22.9314 C   0  0  0  0  0  0  0  0  0  0  0  0
   22.1843    7.8432   22.0369 C   0  0  0  0  0  0  0  0  0  0  0  0
   24.5794    8.3865   14.6354 O   0  0  0  0  0  0  0  0  0  0  0  0
   23.4484    4.8744   23.4297 O   0  0  0  0  0  0  0  0  0  0  0  0
   21.3488    9.0393   22.3733 C   0  0  0  0  0  0  0  0  0  0  0  0
   23.1749   10.2408   15.4876 H   0  0  0  0  0  0  0  0  0  0  0  0
   22.2261   10.4391   17.7511 H   0  0  0  0  0  0  0  0  0  0  0  0
   24.6882    5.6193   18.9056 H   0  0  0  0  0  0  0  0  0  0  0  0
   21.9323    9.5666   19.9063 H   0  0  0  0  0  0  0  0  0  0  0  0
   22.0232    6.9236   23.9484 H   0  0  0  0  0  0  0  0  0  0  0  0
   21.2422    9.7286   21.5467 H   0  0  0  0  0  0  0  0  0  0  0  0
   21.8043    9.6001   23.1932 H   0  0  0  0  0  0  0  0  0  0  0  0
   20.3402    8.7288   22.6564 H   0  0  0  0  0  0  0  0  0  0  0  0
  1  3  2  0  0  0  0
  1  7  1  0  0  0  0
  1 21  1  0  0  0  0
  2  4  2  0  0  0  0
  2  5  1  0  0  0  0
  2  6  2  0  0  0  0
  3  5  1  0  0  0  0
  3 18  1  0  0  0  0
  5  9  2  0  0  0  0
  7  8  2  0  0  0  0
  7 22  1  0  0  0  0
  8  9  1  0  0  0  0
  8 11  1  0  0  0  0
  9 10  1  0  0  0  0
 10 13  2  0  0  0  0
 10 23  1  0  0  0  0
 11 12  2  0  0  0  0
 11 24  1  0  0  0  0
 12 13  1  0  0  0  0
 12 17  1  0  0  0  0
 13 14  1  0  0  0  0
 14 15  1  0  0  0  0
 15 16  1  0  0  0  0
 15 19  2  0  0  0  0
 16 17  2  0  0  0  0
 16 25  1  0  0  0  0
 17 20  1  0  0  0  0
 20 26  1  0  0  0  0
 20 27  1  0  0  0  0
 20 28  1  0  0  0  0
M  CHG  1  14   1
M  END
$$$$
