D1X
 OpenBabel04091914023D

 14 14  0  0  0  0  0  0  0  0999 V2000
  -41.3884    9.5115  -11.4498 O   0  0  0  0  0  0  0  0  0  0  0  0
  -37.2688    9.3554   -7.3090 O   0  0  0  0  0  0  0  0  0  0  0  0
  -40.1522    7.6300  -11.1220 O   0  0  0  0  0  0  0  0  0  0  0  0
  -37.7425   12.9280   -9.8678 O   0  0  0  0  0  0  0  0  0  0  0  0
  -39.0774   11.0382  -10.4925 C   0  0  0  0  0  0  0  0  0  0  0  0
  -38.7903    9.0788   -9.0972 C   0  0  0  0  0  0  0  0  0  0  0  0
  -37.5969   11.1437   -8.7064 N   0  3  0  0  0  0  0  0  0  0  0  0
  -40.3961    8.8712  -10.9934 C   0  0  0  0  0  0  0  0  0  0  0  0
  -38.1868   11.7565   -9.7788 C   0  0  0  0  0  0  0  0  0  0  0  0
  -39.3869    9.6588  -10.1512 C   0  0  0  0  0  0  0  0  0  0  0  0
  -37.8197    9.8597   -8.2895 C   0  0  0  0  0  0  0  0  0  0  0  0
  -39.5781   11.4738  -11.3516 H   0  0  0  0  0  0  0  0  0  0  0  0
  -38.9831    8.0560   -8.8053 H   0  0  0  0  0  0  0  0  0  0  0  0
  -36.9494   11.7307   -8.2072 H   0  0  0  0  0  0  0  0  0  0  0  0
  1  8  2  0  0  0  0
  2 11  2  0  0  0  0
  3  8  1  0  0  0  0
  4  9  1  0  0  0  0
  5  9  2  0  0  0  0
  5 10  1  0  0  0  0
  5 12  1  0  0  0  0
  6 10  2  0  0  0  0
  6 11  1  0  0  0  0
  6 13  1  0  0  0  0
  7  9  1  0  0  0  0
  7 11  1  0  0  0  0
  7 14  1  0  0  0  0
  8 10  1  0  0  0  0
M  CHG  1   7   1
M  END
$$$$
