D3X
 OpenBabel04091913573D

 57 58  0  0  1  0  0  0  0  0999 V2000
    2.5777   -2.6320    0.1364 C   0  0  1  0  0  0  0  0  0  0  0  0
    1.5419   -1.9922    5.5167 N   0  0  0  0  0  0  0  0  0  0  0  0
    3.2269   -2.6369    4.1093 O   0  0  0  0  0  0  0  0  0  0  0  0
    1.3471   -6.0763    4.9226 S   0  0  0  0  0  0  0  0  0  0  0  0
    2.1268   -1.1970    0.4340 C   0  0  2  0  0  0  0  0  0  0  0  0
    1.6177   -5.0064    3.6876 N   0  0  0  0  0  0  0  0  0  0  0  0
    0.1378   -5.6353    5.5978 O   0  0  0  0  0  0  0  0  0  0  0  0
    2.0586   -2.7183    4.4816 C   0  0  0  0  0  0  0  0  0  0  0  0
    1.4665   -7.4105    4.3759 O   0  0  0  0  0  0  0  0  0  0  0  0
    5.3747   -2.1137   -2.2031 C   0  0  0  0  0  0  0  0  0  0  0  0
    0.7827   -1.1959    0.9486 O   0  0  0  0  0  0  0  0  0  0  0  0
    3.9497   -1.9516   -1.6585 C   0  0  2  0  0  0  0  0  0  0  0  0
    1.8671    1.0065   -0.5414 O   0  0  0  0  0  0  0  0  0  0  0  0
    3.5174   -0.4814   -1.5546 C   0  0  1  0  0  0  0  0  0  0  0  0
    3.3975    0.0249   -2.8917 O   0  0  0  0  0  0  0  0  0  0  0  0
    2.1594   -0.3692   -0.8444 C   0  0  1  0  0  0  0  0  0  0  0  0
    5.4112   -5.6533    9.1654 O   0  0  0  0  0  0  0  0  0  0  0  0
    2.1633   -4.6734    1.3131 C   0  0  0  0  0  0  0  0  0  0  0  0
    3.8914   -2.6284   -0.3986 O   0  0  0  0  0  0  0  0  0  0  0  0
    2.5915   -5.3350    2.6217 C   0  0  0  0  0  0  0  0  0  0  0  0
    6.3268   -1.3027   -1.5163 O   0  0  0  0  0  0  0  0  0  0  0  0
    1.0906   -3.6611    3.8296 C   0  0  0  0  0  0  0  0  0  0  0  0
    2.5911   -3.3157    1.3765 O   0  0  0  0  0  0  0  0  0  0  0  0
    3.4013   -5.0014    8.1732 C   0  0  0  0  0  0  0  0  0  0  0  0
    2.4935   -1.1814    6.1880 O   0  0  0  0  0  0  0  0  0  0  0  0
    2.6737   -5.8602    6.0542 C   0  0  0  0  0  0  0  0  0  0  0  0
    3.8173   -6.6612    5.9706 C   0  0  0  0  0  0  0  0  0  0  0  0
    2.4573   -5.0342    7.1556 C   0  0  0  0  0  0  0  0  0  0  0  0
    4.7692   -6.6135    6.9942 C   0  0  0  0  0  0  0  0  0  0  0  0
    4.5577   -5.7926    8.1047 C   0  0  0  0  0  0  0  0  0  0  0  0
    6.4227   -6.6392    9.3543 C   0  0  0  0  0  0  0  0  0  0  0  0
    1.8688   -3.1203   -0.5447 H   0  0  0  0  0  0  0  0  0  0  0  0
    0.5780   -2.0223    5.8311 H   0  0  0  0  0  0  0  0  0  0  0  0
    2.7702   -0.7387    1.1964 H   0  0  0  0  0  0  0  0  0  0  0  0
    5.4115   -1.8488   -3.2629 H   0  0  0  0  0  0  0  0  0  0  0  0
    5.6937   -3.1562   -2.0961 H   0  0  0  0  0  0  0  0  0  0  0  0
    0.8344   -1.7510    1.7449 H   0  0  0  0  0  0  0  0  0  0  0  0
    3.2785   -2.4681   -2.3568 H   0  0  0  0  0  0  0  0  0  0  0  0
    0.9988    1.0061   -0.0887 H   0  0  0  0  0  0  0  0  0  0  0  0
    4.2625    0.1204   -1.0182 H   0  0  0  0  0  0  0  0  0  0  0  0
    3.1100    0.9532   -2.8192 H   0  0  0  0  0  0  0  0  0  0  0  0
    1.3636   -0.6974   -1.5228 H   0  0  0  0  0  0  0  0  0  0  0  0
    1.0678   -4.6996    1.2264 H   0  0  0  0  0  0  0  0  0  0  0  0
    2.5997   -5.1840    0.4525 H   0  0  0  0  0  0  0  0  0  0  0  0
    2.5751   -6.4211    2.4645 H   0  0  0  0  0  0  0  0  0  0  0  0
    3.6165   -5.0517    2.8908 H   0  0  0  0  0  0  0  0  0  0  0  0
    6.2985   -1.5500   -0.5746 H   0  0  0  0  0  0  0  0  0  0  0  0
    0.1114   -3.6596    4.3388 H   0  0  0  0  0  0  0  0  0  0  0  0
    0.8082   -3.2699    2.8631 H   0  0  0  0  0  0  0  0  0  0  0  0
    3.2174   -4.3618    9.0302 H   0  0  0  0  0  0  0  0  0  0  0  0
    2.0213   -0.7822    6.9085 H   0  0  0  0  0  0  0  0  0  0  0  0
    3.9600   -7.3378    5.1248 H   0  0  0  0  0  0  0  0  0  0  0  0
    1.5442   -4.4513    7.2275 H   0  0  0  0  0  0  0  0  0  0  0  0
    5.6635   -7.2188    6.9009 H   0  0  0  0  0  0  0  0  0  0  0  0
    6.9970   -6.3550   10.2440 H   0  0  0  0  0  0  0  0  0  0  0  0
    7.1256   -6.6822    8.5165 H   0  0  0  0  0  0  0  0  0  0  0  0
    5.9857   -7.6247    9.5456 H   0  0  0  0  0  0  0  0  0  0  0  0
  1  5  1  0  0  0  0
  1 19  1  0  0  0  0
  1 23  1  0  0  0  0
  1 32  1  6  0  0  0
  2  8  1  0  0  0  0
  2 25  1  0  0  0  0
  2 33  1  0  0  0  0
  3  8  2  0  0  0  0
  4  6  1  0  0  0  0
  4  7  2  0  0  0  0
  4  9  2  0  0  0  0
  4 26  1  0  0  0  0
  5 11  1  0  0  0  0
  5 16  1  0  0  0  0
  5 34  1  1  0  0  0
  6 20  1  0  0  0  0
  6 22  1  0  0  0  0
  8 22  1  0  0  0  0
 10 12  1  0  0  0  0
 10 21  1  0  0  0  0
 10 35  1  0  0  0  0
 10 36  1  0  0  0  0
 11 37  1  0  0  0  0
 12 14  1  0  0  0  0
 12 19  1  0  0  0  0
 12 38  1  6  0  0  0
 13 16  1  0  0  0  0
 13 39  1  0  0  0  0
 14 15  1  0  0  0  0
 14 16  1  0  0  0  0
 14 40  1  1  0  0  0
 15 41  1  0  0  0  0
 16 42  1  6  0  0  0
 17 30  1  0  0  0  0
 17 31  1  0  0  0  0
 18 20  1  0  0  0  0
 18 23  1  0  0  0  0
 18 43  1  0  0  0  0
 18 44  1  0  0  0  0
 20 45  1  0  0  0  0
 20 46  1  0  0  0  0
 21 47  1  0  0  0  0
 22 48  1  0  0  0  0
 22 49  1  0  0  0  0
 24 28  2  0  0  0  0
 24 30  1  0  0  0  0
 24 50  1  0  0  0  0
 25 51  1  0  0  0  0
 26 27  2  0  0  0  0
 26 28  1  0  0  0  0
 27 29  1  0  0  0  0
 27 52  1  0  0  0  0
 28 53  1  0  0  0  0
 29 30  2  0  0  0  0
 29 54  1  0  0  0  0
 31 55  1  0  0  0  0
 31 56  1  0  0  0  0
 31 57  1  0  0  0  0
M  END
$$$$
