D50
 OpenBabel04091914473D

 60 61  0  0  1  0  0  0  0  0999 V2000
   17.2403    9.0758    7.0250 C   0  0  0  0  0  0  0  0  0  0  0  0
   15.4110   10.7658   10.5043 N   0  0  0  0  0  0  0  0  0  0  0  0
   13.8791    9.6523   11.7319 O   0  0  0  0  0  0  0  0  0  0  0  0
   16.3386    9.0305    8.2416 C   0  0  0  0  0  0  0  0  0  0  0  0
   11.2515   12.7305   11.9942 N   0  3  0  0  0  0  0  0  0  0  0  0
   12.7953   12.2078    9.9155 O   0  0  0  0  0  0  0  0  0  0  0  0
   15.8172    7.6101    8.4479 C   0  0  0  0  0  0  0  0  0  0  0  0
   12.1845   10.1606   18.5859 O   0  0  0  0  0  0  0  0  0  0  0  0
   17.1758    9.5370    9.4208 C   0  0  0  0  0  0  0  0  0  0  0  0
   17.0523   10.7986   12.6348 O   0  0  0  0  0  0  0  0  0  0  0  0
   16.3572    9.6617   10.6781 C   0  0  1  0  0  0  0  0  0  0  0  0
   18.0561    8.8117   12.1117 O   0  0  0  0  0  0  0  0  0  0  0  0
   14.2579   10.6833   11.2083 C   0  0  0  0  0  0  0  0  0  0  0  0
   13.4524   11.9745   11.1614 C   0  0  2  0  0  0  0  0  0  0  0  0
   12.4575   11.8909   12.3177 C   0  0  1  0  0  0  0  0  0  0  0  0
   13.1401   12.5114   13.5280 C   0  0  0  0  0  0  0  0  0  0  0  0
   12.8375   11.8670   14.8366 C   0  0  0  0  0  0  0  0  0  0  0  0
   13.2609   10.5649   15.1276 C   0  0  0  0  0  0  0  0  0  0  0  0
   13.0183   10.0102   16.3918 C   0  0  0  0  0  0  0  0  0  0  0  0
   12.3385   10.7486   17.3698 C   0  0  0  0  0  0  0  0  0  0  0  0
   11.0417   10.4143   19.4218 C   0  0  0  0  0  0  0  0  0  0  0  0
   11.1306    9.4189   20.5699 C   0  0  0  0  0  0  0  0  0  0  0  0
   10.8104    9.7904   21.8835 C   0  0  0  0  0  0  0  0  0  0  0  0
   10.9106    8.8650   22.9242 C   0  0  0  0  0  0  0  0  0  0  0  0
   11.3243    7.5591   22.6636 C   0  0  0  0  0  0  0  0  0  0  0  0
   11.6491    7.1700   21.3616 C   0  0  0  0  0  0  0  0  0  0  0  0
   11.5405    8.0949   20.3240 C   0  0  0  0  0  0  0  0  0  0  0  0
   11.9433   12.0434   17.0722 C   0  0  0  0  0  0  0  0  0  0  0  0
   12.1829   12.6075   15.8194 C   0  0  0  0  0  0  0  0  0  0  0  0
   17.2684    9.7414   11.9436 C   0  0  0  0  0  0  0  0  0  0  0  0
   16.7019    8.7212    6.1460 H   0  0  0  0  0  0  0  0  0  0  0  0
   18.1198    8.4434    7.1919 H   0  0  0  0  0  0  0  0  0  0  0  0
   17.5739   10.1046    6.8540 H   0  0  0  0  0  0  0  0  0  0  0  0
   15.7100   11.6232   10.0813 H   0  0  0  0  0  0  0  0  0  0  0  0
   15.4831    9.6963    8.0822 H   0  0  0  0  0  0  0  0  0  0  0  0
   10.5602   12.6865   12.7482 H   0  0  0  0  0  0  0  0  0  0  0  0
   11.5290   13.7091   11.8449 H   0  0  0  0  0  0  0  0  0  0  0  0
   13.4940   12.2501    9.2255 H   0  0  0  0  0  0  0  0  0  0  0  0
   15.1532    7.5609    9.3148 H   0  0  0  0  0  0  0  0  0  0  0  0
   16.6474    6.9117    8.6045 H   0  0  0  0  0  0  0  0  0  0  0  0
   15.2455    7.2830    7.5717 H   0  0  0  0  0  0  0  0  0  0  0  0
   17.5902   10.5217    9.1646 H   0  0  0  0  0  0  0  0  0  0  0  0
   18.0045    8.8457    9.5933 H   0  0  0  0  0  0  0  0  0  0  0  0
   15.7683    8.7480   10.7899 H   0  0  0  0  0  0  0  0  0  0  0  0
   14.1259   12.8235   11.3476 H   0  0  0  0  0  0  0  0  0  0  0  0
   12.1037   10.8748   12.5067 H   0  0  0  0  0  0  0  0  0  0  0  0
   12.8575   13.5718   13.5812 H   0  0  0  0  0  0  0  0  0  0  0  0
   14.2211   12.4618   13.3765 H   0  0  0  0  0  0  0  0  0  0  0  0
   13.8015    9.9761   14.3810 H   0  0  0  0  0  0  0  0  0  0  0  0
   13.3523    8.9935   16.6037 H   0  0  0  0  0  0  0  0  0  0  0  0
   10.1001   10.2469   18.8813 H   0  0  0  0  0  0  0  0  0  0  0  0
   11.0568   11.4333   19.8314 H   0  0  0  0  0  0  0  0  0  0  0  0
   10.4929   10.8066   22.0995 H   0  0  0  0  0  0  0  0  0  0  0  0
   10.6640    9.1605   23.9415 H   0  0  0  0  0  0  0  0  0  0  0  0
   11.4001    6.8440   23.4739 H   0  0  0  0  0  0  0  0  0  0  0  0
   11.9815    6.1541   21.1562 H   0  0  0  0  0  0  0  0  0  0  0  0
   11.7932    7.7996   19.3068 H   0  0  0  0  0  0  0  0  0  0  0  0
   11.4481   12.6308   17.8315 H   0  0  0  0  0  0  0  0  0  0  0  0
   11.8755   13.6341   15.6146 H   0  0  0  0  0  0  0  0  0  0  0  0
   10.8262   12.3972   11.1161 H   0  0  0  0  0  0  0  0  0  0  0  0
  1  4  1  0  0  0  0
  1 31  1  0  0  0  0
  1 32  1  0  0  0  0
  1 33  1  0  0  0  0
  2 11  1  0  0  0  0
  2 13  1  0  0  0  0
  2 34  1  0  0  0  0
  3 13  2  0  0  0  0
  4  7  1  0  0  0  0
  4  9  1  0  0  0  0
  4 35  1  0  0  0  0
  5 15  1  0  0  0  0
  5 36  1  0  0  0  0
  5 37  1  0  0  0  0
  5 60  1  0  0  0  0
  6 14  1  0  0  0  0
  6 38  1  0  0  0  0
  7 39  1  0  0  0  0
  7 40  1  0  0  0  0
  7 41  1  0  0  0  0
  8 20  1  0  0  0  0
  8 21  1  0  0  0  0
  9 11  1  0  0  0  0
  9 42  1  0  0  0  0
  9 43  1  0  0  0  0
 10 30  2  0  0  0  0
 11 30  1  0  0  0  0
 11 44  1  1  0  0  0
 12 30  1  0  0  0  0
 13 14  1  0  0  0  0
 14 15  1  0  0  0  0
 14 45  1  1  0  0  0
 15 16  1  0  0  0  0
 15 46  1  1  0  0  0
 16 17  1  0  0  0  0
 16 47  1  0  0  0  0
 16 48  1  0  0  0  0
 17 18  2  0  0  0  0
 17 29  1  0  0  0  0
 18 19  1  0  0  0  0
 18 49  1  0  0  0  0
 19 20  2  0  0  0  0
 19 50  1  0  0  0  0
 20 28  1  0  0  0  0
 21 22  1  0  0  0  0
 21 51  1  0  0  0  0
 21 52  1  0  0  0  0
 22 23  2  0  0  0  0
 22 27  1  0  0  0  0
 23 24  1  0  0  0  0
 23 53  1  0  0  0  0
 24 25  2  0  0  0  0
 24 54  1  0  0  0  0
 25 26  1  0  0  0  0
 25 55  1  0  0  0  0
 26 27  2  0  0  0  0
 26 56  1  0  0  0  0
 27 57  1  0  0  0  0
 28 29  2  0  0  0  0
 28 58  1  0  0  0  0
 29 59  1  0  0  0  0
M  CHG  1   5   1
M  END
$$$$
