D7A
 OpenBabel04091916093D

 45 46  0  0  0  0  0  0  0  0999 V2000
   23.0719   13.5743   15.0126 C   0  0  0  0  0  0  0  0  0  0  0  0
   21.7264   14.0245   15.1528 O   0  0  0  0  0  0  0  0  0  0  0  0
   20.8793   13.2702   14.3808 C   0  0  0  0  0  0  0  0  0  0  0  0
   20.6767   11.9174   14.6690 C   0  0  0  0  0  0  0  0  0  0  0  0
   20.1765   13.9021   13.3545 C   0  0  0  0  0  0  0  0  0  0  0  0
   20.3562   15.2544   13.2410 O   0  0  0  0  0  0  0  0  0  0  0  0
   20.3007   15.7771   11.9265 C   0  0  0  0  0  0  0  0  0  0  0  0
   19.2956   13.1618   12.5729 C   0  0  0  0  0  0  0  0  0  0  0  0
   19.0968   11.8081   12.8527 C   0  0  0  0  0  0  0  0  0  0  0  0
   19.7796   11.1733   13.8996 C   0  0  0  0  0  0  0  0  0  0  0  0
   19.4756    9.7491   14.2888 C   0  0  0  0  0  0  0  0  0  0  0  0
   19.1233    8.8478   13.1022 C   0  0  0  0  0  0  0  0  0  0  0  0
   18.6034    7.5757   13.5419 N   0  0  0  0  0  0  0  0  0  0  0  0
   17.2663    7.4797   13.8707 C   0  0  0  0  0  0  0  0  0  0  0  0
   16.4772    8.4046   13.6929 O   0  0  0  0  0  0  0  0  0  0  0  0
   16.7867    6.2181   14.4946 C   0  0  0  0  0  0  0  0  0  0  0  0
   15.4239    6.1438   14.8216 C   0  0  0  0  0  0  0  0  0  0  0  0
   14.9144    5.0295   15.4854 C   0  0  0  0  0  0  0  0  0  0  0  0
   17.6313    5.1429   14.8110 C   0  0  0  0  0  0  0  0  0  0  0  0
   17.1243    4.0257   15.4846 C   0  0  0  0  0  0  0  0  0  0  0  0
   15.7722    3.9825   15.8309 C   0  0  0  0  0  0  0  0  0  0  0  0
   15.1310    2.6434   16.7932 S   0  0  0  0  0  0  0  0  0  0  0  0
   15.7547    2.7087   18.1014 O   0  0  0  0  0  0  0  0  0  0  0  0
   13.7019    2.6034   16.6278 O   0  0  0  0  0  0  0  0  0  0  0  0
   15.7294    1.2773   16.0513 N   0  0  0  0  0  0  0  0  0  0  0  0
   23.7143   14.2919   15.5283 H   0  0  0  0  0  0  0  0  0  0  0  0
   23.3799   13.5323   13.9605 H   0  0  0  0  0  0  0  0  0  0  0  0
   23.2042   12.5993   15.4890 H   0  0  0  0  0  0  0  0  0  0  0  0
   21.1877   11.4647   15.5105 H   0  0  0  0  0  0  0  0  0  0  0  0
   20.5255   16.8446   11.9996 H   0  0  0  0  0  0  0  0  0  0  0  0
   19.3035   15.6792   11.4903 H   0  0  0  0  0  0  0  0  0  0  0  0
   21.0607   15.3118   11.2898 H   0  0  0  0  0  0  0  0  0  0  0  0
   18.7037   13.6049   11.7792 H   0  0  0  0  0  0  0  0  0  0  0  0
   18.3586   11.2833   12.2564 H   0  0  0  0  0  0  0  0  0  0  0  0
   18.6574    9.7709   15.0188 H   0  0  0  0  0  0  0  0  0  0  0  0
   20.3401    9.3121   14.8067 H   0  0  0  0  0  0  0  0  0  0  0  0
   20.0019    8.6694   12.4752 H   0  0  0  0  0  0  0  0  0  0  0  0
   18.3541    9.2926   12.4675 H   0  0  0  0  0  0  0  0  0  0  0  0
   19.2648    6.8405   13.7304 H   0  0  0  0  0  0  0  0  0  0  0  0
   14.7566    6.9725   14.5850 H   0  0  0  0  0  0  0  0  0  0  0  0
   13.8616    5.0060   15.7578 H   0  0  0  0  0  0  0  0  0  0  0  0
   18.6879    5.1581   14.5747 H   0  0  0  0  0  0  0  0  0  0  0  0
   17.8001    3.2185   15.7614 H   0  0  0  0  0  0  0  0  0  0  0  0
   15.4085    0.3933   16.4310 H   0  0  0  0  0  0  0  0  0  0  0  0
   16.2526    1.3250   15.1860 H   0  0  0  0  0  0  0  0  0  0  0  0
  1  2  1  0  0  0  0
  1 26  1  0  0  0  0
  1 27  1  0  0  0  0
  1 28  1  0  0  0  0
  2  3  1  0  0  0  0
  3  4  2  0  0  0  0
  3  5  1  0  0  0  0
  4 10  1  0  0  0  0
  4 29  1  0  0  0  0
  5  6  1  0  0  0  0
  5  8  2  0  0  0  0
  6  7  1  0  0  0  0
  7 30  1  0  0  0  0
  7 31  1  0  0  0  0
  7 32  1  0  0  0  0
  8  9  1  0  0  0  0
  8 33  1  0  0  0  0
  9 10  2  0  0  0  0
  9 34  1  0  0  0  0
 10 11  1  0  0  0  0
 11 12  1  0  0  0  0
 11 35  1  0  0  0  0
 11 36  1  0  0  0  0
 12 13  1  0  0  0  0
 12 37  1  0  0  0  0
 12 38  1  0  0  0  0
 13 14  1  0  0  0  0
 13 39  1  0  0  0  0
 14 15  2  0  0  0  0
 14 16  1  0  0  0  0
 16 17  2  0  0  0  0
 16 19  1  0  0  0  0
 17 18  1  0  0  0  0
 17 40  1  0  0  0  0
 18 21  2  0  0  0  0
 18 41  1  0  0  0  0
 19 20  2  0  0  0  0
 19 42  1  0  0  0  0
 20 21  1  0  0  0  0
 20 43  1  0  0  0  0
 21 22  1  0  0  0  0
 22 23  2  0  0  0  0
 22 24  2  0  0  0  0
 22 25  1  0  0  0  0
 25 44  1  0  0  0  0
 25 45  1  0  0  0  0
M  END
$$$$
