D7K
 OpenBabel04091913083D

 78 80  0  0  1  0  0  0  0  0999 V2000
   -3.0008  -50.0531  -29.8676 P   0  0  2  0  0  0  0  0  0  0  0  0
   -3.4676  -50.3247  -31.2428 O   0  0  0  0  0  0  0  0  0  0  0  0
   -2.0032  -51.1233  -29.2875 O   0  0  0  0  0  0  0  0  0  0  0  0
   -6.4508  -49.3050  -28.1231 O   0  0  0  0  0  0  0  0  0  0  0  0
   -5.2720  -48.6481  -28.7810 P   0  0  0  0  0  0  0  0  0  0  0  0
   -5.4401  -48.2399  -30.1693 O   0  0  0  0  0  0  0  0  0  0  0  0
   -4.7474  -47.4475  -27.8934 O   0  0  0  0  0  0  0  0  0  0  0  0
   -4.1074  -49.7389  -28.7227 O   0  0  0  0  0  0  0  0  0  0  0  0
   -2.1273  -48.6586  -29.8762 O   0  0  0  0  0  0  0  0  0  0  0  0
   -1.4061  -48.1860  -28.8144 C   0  0  0  0  0  0  0  0  0  0  0  0
   -1.0429  -46.6784  -29.0887 C   0  0  0  0  0  0  0  0  0  0  0  0
    0.0936  -46.2665  -28.1524 C   0  0  1  0  0  0  0  0  0  0  0  0
    1.4737  -45.8043  -28.6210 C   0  0  2  0  0  0  0  0  0  0  0  0
    2.1684  -46.3809  -29.8462 C   0  0  0  0  0  0  0  0  0  0  0  0
   -0.2985  -45.4196  -26.6563 S   0  0  0  0  0  0  0  0  0  0  0  0
    1.4029  -45.1231  -26.1793 C   0  0  1  0  0  0  0  0  0  0  0  0
    2.2738  -45.1913  -27.4790 N   0  3  1  0  0  0  0  0  0  0  0  0
    3.7770  -45.0625  -27.4721 C   0  0  0  0  0  0  0  0  0  0  0  0
    4.6170  -46.3548  -27.5140 C   0  0  0  0  0  0  0  0  0  0  0  0
    5.4604  -46.6468  -28.5179 C   0  0  0  0  0  0  0  0  0  0  0  0
    4.6922  -47.1192  -26.2227 C   0  0  1  0  0  0  0  0  0  0  0  0
    3.7461  -46.9693  -25.2121 N   0  0  0  0  0  0  0  0  0  0  0  0
    5.2896  -48.4285  -26.1966 N   0  0  0  0  0  0  0  0  0  0  0  0
    6.2987  -48.6118  -27.1994 C   0  0  2  0  0  0  0  0  0  0  0  0
    6.2674  -47.8405  -28.4841 N   0  0  0  0  0  0  0  0  0  0  0  0
    7.0174  -50.0053  -27.2123 C   0  0  0  0  0  0  0  0  0  0  0  0
    2.8367  -42.2727  -26.4007 O   0  0  0  0  0  0  0  0  0  0  0  0
    1.7080  -42.2926  -25.4457 P   0  0  2  0  0  0  0  0  0  0  0  0
    0.3757  -41.8892  -25.8741 O   0  0  0  0  0  0  0  0  0  0  0  0
    2.0592  -41.5335  -24.0314 O   0  0  0  0  0  0  0  0  0  0  0  0
    1.0607  -40.8985  -23.2231 C   0  0  0  0  0  0  0  0  0  0  0  0
    1.6143  -44.1437  -24.9794 C   0  0  2  0  0  0  0  0  0  0  0  0
    2.9633  -44.4716  -24.3983 O   0  0  0  0  0  0  0  0  0  0  0  0
    0.5576  -44.4034  -23.7914 C   0  0  0  0  0  0  0  0  0  0  0  0
    0.7502  -45.6123  -22.8717 C   0  0  0  0  0  0  0  0  0  0  0  0
   -0.3234  -45.9362  -21.8277 C   0  0  0  0  0  0  0  0  0  0  0  0
   -1.6540  -45.2107  -21.8479 C   0  0  0  0  0  0  0  0  0  0  0  0
   -1.9008  -44.1369  -22.8836 C   0  0  0  0  0  0  0  0  0  0  0  0
   -0.8419  -43.8214  -23.9241 C   0  0  0  0  0  0  0  0  0  0  0  0
   -0.4494  -48.7525  -28.7402 H   0  0  0  0  0  0  0  0  0  0  0  0
   -1.9060  -48.2653  -27.8277 H   0  0  0  0  0  0  0  0  0  0  0  0
   -1.9727  -46.1003  -28.9773 H   0  0  0  0  0  0  0  0  0  0  0  0
   -0.7316  -46.6003  -30.1407 H   0  0  0  0  0  0  0  0  0  0  0  0
    0.2885  -47.1957  -27.7106 H   0  0  0  0  0  0  0  0  0  0  0  0
    1.2602  -44.8682  -29.0767 H   0  0  0  0  0  0  0  0  0  0  0  0
    3.2270  -46.1359  -29.8896 H   0  0  0  0  0  0  0  0  0  0  0  0
    1.7138  -45.8649  -30.7060 H   0  0  0  0  0  0  0  0  0  0  0  0
    2.0357  -47.4510  -30.0095 H   0  0  0  0  0  0  0  0  0  0  0  0
    1.6647  -46.0391  -25.7120 H   0  0  0  0  0  0  0  0  0  0  0  0
    4.1000  -44.4023  -26.7007 H   0  0  0  0  0  0  0  0  0  0  0  0
    3.9923  -44.4642  -28.3886 H   0  0  0  0  0  0  0  0  0  0  0  0
    5.5651  -45.9873  -29.4258 H   0  0  0  0  0  0  0  0  0  0  0  0
    5.4583  -46.5447  -25.7709 H   0  0  0  0  0  0  0  0  0  0  0  0
    3.8283  -47.6544  -24.4359 H   0  0  0  0  0  0  0  0  0  0  0  0
    3.9297  -46.0688  -24.6891 H   0  0  0  0  0  0  0  0  0  0  0  0
    5.8678  -48.3653  -25.3351 H   0  0  0  0  0  0  0  0  0  0  0  0
    7.1331  -48.1137  -26.7766 H   0  0  0  0  0  0  0  0  0  0  0  0
    6.0404  -48.4408  -29.2797 H   0  0  0  0  0  0  0  0  0  0  0  0
    7.6706  -50.1522  -28.0826 H   0  0  0  0  0  0  0  0  0  0  0  0
    6.3643  -50.8849  -27.1050 H   0  0  0  0  0  0  0  0  0  0  0  0
    7.6876  -50.0203  -26.3260 H   0  0  0  0  0  0  0  0  0  0  0  0
    1.4992  -40.4042  -22.3471 H   0  0  0  0  0  0  0  0  0  0  0  0
    0.3553  -41.6185  -22.7994 H   0  0  0  0  0  0  0  0  0  0  0  0
    0.4981  -40.1361  -23.7895 H   0  0  0  0  0  0  0  0  0  0  0  0
    3.5839  -44.1336  -25.0879 H   0  0  0  0  0  0  0  0  0  0  0  0
    0.9775  -43.6878  -23.1528 H   0  0  0  0  0  0  0  0  0  0  0  0
    1.6483  -45.3557  -22.2811 H   0  0  0  0  0  0  0  0  0  0  0  0
    0.9874  -46.5435  -23.3948 H   0  0  0  0  0  0  0  0  0  0  0  0
    0.1140  -45.8006  -20.8270 H   0  0  0  0  0  0  0  0  0  0  0  0
   -0.5323  -47.0142  -21.8975 H   0  0  0  0  0  0  0  0  0  0  0  0
   -1.8161  -44.7651  -20.8523 H   0  0  0  0  0  0  0  0  0  0  0  0
   -2.4525  -45.9635  -21.9444 H   0  0  0  0  0  0  0  0  0  0  0  0
   -2.1534  -43.2104  -22.3477 H   0  0  0  0  0  0  0  0  0  0  0  0
   -2.8171  -44.4064  -23.4282 H   0  0  0  0  0  0  0  0  0  0  0  0
   -1.2924  -43.9316  -24.9023 H   0  0  0  0  0  0  0  0  0  0  0  0
   -0.6855  -42.7477  -23.8526 H   0  0  0  0  0  0  0  0  0  0  0  0
    2.1311  -44.2322  -27.7189 H   0  0  0  0  0  0  0  0  0  0  0  0
    7.2578  -47.5786  -28.6162 H   0  0  0  0  0  0  0  0  0  0  0  0
  1  2  2  6  0  0  0
  1  3  1  0  0  0  0
  1  8  1  0  0  0  0
  1  9  1  0  0  0  0
  4  5  2  0  0  0  0
  5  6  1  0  0  0  0
  5  7  1  0  0  0  0
  5  8  1  0  0  0  0
  9 10  1  0  0  0  0
 10 11  1  0  0  0  0
 10 40  1  0  0  0  0
 10 41  1  0  0  0  0
 11 12  1  0  0  0  0
 11 42  1  0  0  0  0
 11 43  1  0  0  0  0
 12 13  1  0  0  0  0
 12 15  1  0  0  0  0
 12 44  1  1  0  0  0
 13 14  1  0  0  0  0
 13 17  1  0  0  0  0
 13 45  1  6  0  0  0
 14 46  1  0  0  0  0
 14 47  1  0  0  0  0
 14 48  1  0  0  0  0
 15 16  1  0  0  0  0
 16 17  1  0  0  0  0
 16 32  1  0  0  0  0
 16 49  1  1  0  0  0
 17 18  1  0  0  0  0
 17 77  1  6  0  0  0
 18 19  1  0  0  0  0
 18 50  1  0  0  0  0
 18 51  1  0  0  0  0
 19 20  2  0  0  0  0
 19 21  1  0  0  0  0
 20 25  1  0  0  0  0
 20 52  1  0  0  0  0
 21 22  1  0  0  0  0
 21 23  1  0  0  0  0
 21 53  1  1  0  0  0
 22 54  1  0  0  0  0
 22 55  1  0  0  0  0
 23 24  1  0  0  0  0
 23 56  1  0  0  0  0
 24 25  1  0  0  0  0
 24 26  1  0  0  0  0
 24 57  1  1  0  0  0
 25 58  1  0  0  0  0
 25 78  1  0  0  0  0
 26 59  1  0  0  0  0
 26 60  1  0  0  0  0
 26 61  1  0  0  0  0
 28 27  2  6  0  0  0
 28 29  1  0  0  0  0
 28 30  1  0  0  0  0
 28 32  1  0  0  0  0
 30 31  1  0  0  0  0
 31 62  1  0  0  0  0
 31 63  1  0  0  0  0
 31 64  1  0  0  0  0
 32 33  1  1  0  0  0
 32 34  1  0  0  0  0
 33 65  1  0  0  0  0
 34 35  1  0  0  0  0
 34 39  1  0  0  0  0
 34 66  1  0  0  0  0
 35 36  1  0  0  0  0
 35 67  1  0  0  0  0
 35 68  1  0  0  0  0
 36 37  1  0  0  0  0
 36 69  1  0  0  0  0
 36 70  1  0  0  0  0
 37 38  1  0  0  0  0
 37 71  1  0  0  0  0
 37 72  1  0  0  0  0
 38 39  1  0  0  0  0
 38 73  1  0  0  0  0
 38 74  1  0  0  0  0
 39 75  1  0  0  0  0
 39 76  1  0  0  0  0
M  CHG  1  17   1
M  END
$$$$
