D8W
 OpenBabel04091911253D

 27 28  0  0  0  0  0  0  0  0999 V2000
   -3.7228    7.2456   14.9406 C   0  0  0  0  0  0  0  0  0  0  0  0
   -2.6112    8.0233   15.2526 C   0  0  0  0  0  0  0  0  0  0  0  0
   -1.8212    8.5501   14.2270 C   0  0  0  0  0  0  0  0  0  0  0  0
   -2.1322    8.2983   12.8881 C   0  0  0  0  0  0  0  0  0  0  0  0
   -3.2404    7.5211   12.5677 C   0  0  0  0  0  0  0  0  0  0  0  0
   -4.0330    7.0098   13.5967 C   0  0  0  0  0  0  0  0  0  0  0  0
   -5.4956    6.0986   13.1881 S   0  0  0  0  0  0  0  0  0  0  0  0
   -6.3814    6.1587   14.3229 O   0  0  0  0  0  0  0  0  0  0  0  0
   -5.9366    6.5645   11.8844 O   0  0  0  0  0  0  0  0  0  0  0  0
   -4.8240    4.6016   12.9436 N   0  0  0  0  0  0  0  0  0  0  0  0
   -4.8336    3.6025   13.9259 C   0  0  0  0  0  0  0  0  0  0  0  0
   -5.9169    3.4511   15.2299 S   0  0  0  0  0  0  0  0  0  0  0  0
   -3.9844    2.5956   13.8029 N   0  0  0  0  0  0  0  0  0  0  0  0
   -4.1849    1.6307   14.7752 N   0  0  0  0  0  0  0  0  0  0  0  0
   -5.2003    1.9588   15.5489 C   0  0  0  0  0  0  0  0  0  0  0  0
   -5.9378    0.9212   16.7510 S   0  0  0  0  0  0  0  0  0  0  0  0
   -5.2470    1.1820   17.9930 O   0  0  0  0  0  0  0  0  0  0  0  0
   -7.3704    1.0706   16.6202 O   0  0  0  0  0  0  0  0  0  0  0  0
   -5.5922   -0.6400   16.2814 N   0  0  0  0  0  0  0  0  0  0  0  0
   -4.3450    6.8464   15.7369 H   0  0  0  0  0  0  0  0  0  0  0  0
   -2.3722    8.2331   16.2925 H   0  0  0  0  0  0  0  0  0  0  0  0
   -0.9632    9.1695   14.4721 H   0  0  0  0  0  0  0  0  0  0  0  0
   -1.5213    8.7240   12.0962 H   0  0  0  0  0  0  0  0  0  0  0  0
   -3.4908    7.3333   11.5249 H   0  0  0  0  0  0  0  0  0  0  0  0
   -4.2602    4.4511   12.1176 H   0  0  0  0  0  0  0  0  0  0  0  0
   -5.8664   -1.3906   16.9034 H   0  0  0  0  0  0  0  0  0  0  0  0
   -4.9200   -0.7712   15.5292 H   0  0  0  0  0  0  0  0  0  0  0  0
  1  2  2  0  0  0  0
  1  6  1  0  0  0  0
  1 20  1  0  0  0  0
  2  3  1  0  0  0  0
  2 21  1  0  0  0  0
  3  4  2  0  0  0  0
  3 22  1  0  0  0  0
  4  5  1  0  0  0  0
  4 23  1  0  0  0  0
  5  6  2  0  0  0  0
  5 24  1  0  0  0  0
  6  7  1  0  0  0  0
  7  8  2  0  0  0  0
  7  9  2  0  0  0  0
  7 10  1  0  0  0  0
 10 11  1  0  0  0  0
 10 25  1  0  0  0  0
 11 12  1  0  0  0  0
 11 13  2  0  0  0  0
 12 15  1  0  0  0  0
 13 14  1  0  0  0  0
 14 15  2  0  0  0  0
 15 16  1  0  0  0  0
 16 17  2  0  0  0  0
 16 18  2  0  0  0  0
 16 19  1  0  0  0  0
 19 26  1  0  0  0  0
 19 27  1  0  0  0  0
M  END
$$$$
