D8Y
 OpenBabel04091913293D

 29 30  0  0  0  0  0  0  0  0999 V2000
   21.6499   12.2274   25.8270 C   0  0  0  0  0  0  0  0  0  0  0  0
   22.1058   10.9624   25.6838 N   0  0  0  0  0  0  0  0  0  0  0  0
   20.8897   13.8302   17.7260 Cl  0  0  0  0  0  0  0  0  0  0  0  0
   21.9117   10.3444   24.5091 C   0  0  0  0  0  0  0  0  0  0  0  0
   22.3990    9.0611   24.3940 N   0  0  0  0  0  0  0  0  0  0  0  0
   21.2667   10.9631   23.4284 C   0  0  0  0  0  0  0  0  0  0  0  0
   20.8037   12.2760   23.6092 C   0  0  0  0  0  0  0  0  0  0  0  0
   20.9964   12.9221   24.8255 C   0  0  0  0  0  0  0  0  0  0  0  0
   21.0748   10.2763   22.0917 C   0  0  0  0  0  0  0  0  0  0  0  0
   22.3579   10.2341   21.2447 C   0  0  0  0  0  0  0  0  0  0  0  0
   22.6329   11.5286   20.5108 C   0  0  0  0  0  0  0  0  0  0  0  0
   23.7835   12.2727   20.8071 C   0  0  0  0  0  0  0  0  0  0  0  0
   24.0346   13.4852   20.1612 C   0  0  0  0  0  0  0  0  0  0  0  0
   23.1386   13.9684   19.2072 C   0  0  0  0  0  0  0  0  0  0  0  0
   21.9993   13.2294   18.8954 C   0  0  0  0  0  0  0  0  0  0  0  0
   21.7490   12.0126   19.5348 C   0  0  0  0  0  0  0  0  0  0  0  0
   21.8348   12.6889   26.7977 H   0  0  0  0  0  0  0  0  0  0  0  0
   22.2659    8.5103   23.5644 H   0  0  0  0  0  0  0  0  0  0  0  0
   22.8330    8.6588   25.2084 H   0  0  0  0  0  0  0  0  0  0  0  0
   20.2939   12.7954   22.8047 H   0  0  0  0  0  0  0  0  0  0  0  0
   20.6477   13.9351   24.9838 H   0  0  0  0  0  0  0  0  0  0  0  0
   20.2597   10.7562   21.5394 H   0  0  0  0  0  0  0  0  0  0  0  0
   20.7224    9.2527   22.2721 H   0  0  0  0  0  0  0  0  0  0  0  0
   22.2805    9.4302   20.5006 H   0  0  0  0  0  0  0  0  0  0  0  0
   23.2208    9.9728   21.8707 H   0  0  0  0  0  0  0  0  0  0  0  0
   24.4904   11.9146   21.5536 H   0  0  0  0  0  0  0  0  0  0  0  0
   24.9252   14.0583   20.4083 H   0  0  0  0  0  0  0  0  0  0  0  0
   23.3335   14.9166   18.7136 H   0  0  0  0  0  0  0  0  0  0  0  0
   20.8548   11.4479   19.2743 H   0  0  0  0  0  0  0  0  0  0  0  0
  1  2  2  0  0  0  0
  1  8  1  0  0  0  0
  1 17  1  0  0  0  0
  2  4  1  0  0  0  0
  3 15  1  0  0  0  0
  4  5  1  0  0  0  0
  4  6  2  0  0  0  0
  5 18  1  0  0  0  0
  5 19  1  0  0  0  0
  6  7  1  0  0  0  0
  6  9  1  0  0  0  0
  7  8  2  0  0  0  0
  7 20  1  0  0  0  0
  8 21  1  0  0  0  0
  9 10  1  0  0  0  0
  9 22  1  0  0  0  0
  9 23  1  0  0  0  0
 10 11  1  0  0  0  0
 10 24  1  0  0  0  0
 10 25  1  0  0  0  0
 11 12  2  0  0  0  0
 11 16  1  0  0  0  0
 12 13  1  0  0  0  0
 12 26  1  0  0  0  0
 13 14  2  0  0  0  0
 13 27  1  0  0  0  0
 14 15  1  0  0  0  0
 14 28  1  0  0  0  0
 15 16  2  0  0  0  0
 16 29  1  0  0  0  0
M  END
$$$$
