D9Z
 OpenBabel04091911263D

 22 23  0  0  0  0  0  0  0  0999 V2000
   -7.4983    0.6650   16.5900 O   0  0  0  0  0  0  0  0  0  0  0  0
   -6.1341    0.4102   17.0007 S   0  0  0  0  0  0  0  0  0  0  0  0
   -5.7430    0.3942   18.3929 O   0  0  0  0  0  0  0  0  0  0  0  0
   -5.7334   -1.0830   16.3805 N   0  0  0  0  0  0  0  0  0  0  0  0
   -5.1194    1.6265   16.2345 C   0  0  0  0  0  0  0  0  0  0  0  0
   -5.8042    2.8455   15.2773 S   0  0  0  0  0  0  0  0  0  0  0  0
   -3.8029    1.6393   16.2764 N   0  0  0  0  0  0  0  0  0  0  0  0
   -3.2883    2.6831   15.5488 N   0  0  0  0  0  0  0  0  0  0  0  0
   -4.2152    3.4255   14.9492 C   0  0  0  0  0  0  0  0  0  0  0  0
   -3.8780    4.5919   14.1003 C   0  0  0  0  0  0  0  0  0  0  0  0
   -2.4942    4.8821   13.9737 C   0  0  0  0  0  0  0  0  0  0  0  0
   -4.7647    5.4376   13.4095 C   0  0  0  0  0  0  0  0  0  0  0  0
   -4.2828    6.5017   12.6339 C   0  0  0  0  0  0  0  0  0  0  0  0
   -2.9197    6.7601   12.5319 C   0  0  0  0  0  0  0  0  0  0  0  0
   -2.0177    5.9518   13.2040 C   0  0  0  0  0  0  0  0  0  0  0  0
   -6.4928    5.3079   13.4124 Cl  0  0  0  0  0  0  0  0  0  0  0  0
   -5.8095   -1.2186   15.3764 H   0  0  0  0  0  0  0  0  0  0  0  0
   -5.0594   -1.6195   16.9250 H   0  0  0  0  0  0  0  0  0  0  0  0
   -1.7509    4.2690   14.4851 H   0  0  0  0  0  0  0  0  0  0  0  0
   -4.9806    7.1445   12.1012 H   0  0  0  0  0  0  0  0  0  0  0  0
   -2.5665    7.5955   11.9303 H   0  0  0  0  0  0  0  0  0  0  0  0
   -0.9504    6.1462   13.1409 H   0  0  0  0  0  0  0  0  0  0  0  0
  1  2  2  0  0  0  0
  2  3  2  0  0  0  0
  2  4  1  0  0  0  0
  2  5  1  0  0  0  0
  4 17  1  0  0  0  0
  4 18  1  0  0  0  0
  5  6  1  0  0  0  0
  5  7  2  0  0  0  0
  6  9  1  0  0  0  0
  7  8  1  0  0  0  0
  8  9  2  0  0  0  0
  9 10  1  0  0  0  0
 10 11  2  0  0  0  0
 10 12  1  0  0  0  0
 11 15  1  0  0  0  0
 11 19  1  0  0  0  0
 12 13  2  0  0  0  0
 12 16  1  0  0  0  0
 13 14  1  0  0  0  0
 13 20  1  0  0  0  0
 14 15  2  0  0  0  0
 14 21  1  0  0  0  0
 15 22  1  0  0  0  0
M  END
$$$$
