D9Z
 OpenBabel04091911273D

 22 23  0  0  0  0  0  0  0  0999 V2000
   -7.4845    0.6211   16.5306 O   0  0  0  0  0  0  0  0  0  0  0  0
   -6.1382    0.4122   17.0101 S   0  0  0  0  0  0  0  0  0  0  0  0
   -5.8016    0.4480   18.4170 O   0  0  0  0  0  0  0  0  0  0  0  0
   -5.6542   -1.0995   16.4462 N   0  0  0  0  0  0  0  0  0  0  0  0
   -5.1098    1.6303   16.2420 C   0  0  0  0  0  0  0  0  0  0  0  0
   -5.8198    2.9038   15.3742 S   0  0  0  0  0  0  0  0  0  0  0  0
   -3.7969    1.6165   16.2272 N   0  0  0  0  0  0  0  0  0  0  0  0
   -3.2987    2.6877   15.5109 N   0  0  0  0  0  0  0  0  0  0  0  0
   -4.2399    3.4628   14.9815 C   0  0  0  0  0  0  0  0  0  0  0  0
   -3.9298    4.6565   14.1524 C   0  0  0  0  0  0  0  0  0  0  0  0
   -2.5526    4.9737   14.0227 C   0  0  0  0  0  0  0  0  0  0  0  0
   -4.8333    5.5017   13.4717 C   0  0  0  0  0  0  0  0  0  0  0  0
   -4.3657    6.5875   12.7068 C   0  0  0  0  0  0  0  0  0  0  0  0
   -3.0071    6.8641   12.6013 C   0  0  0  0  0  0  0  0  0  0  0  0
   -2.0970    6.0557   13.2626 C   0  0  0  0  0  0  0  0  0  0  0  0
   -6.5555    5.3354   13.4654 Cl  0  0  0  0  0  0  0  0  0  0  0  0
   -5.5963   -1.1499   15.4302 H   0  0  0  0  0  0  0  0  0  0  0  0
   -4.8287   -1.4334   16.9415 H   0  0  0  0  0  0  0  0  0  0  0  0
   -1.8011    4.3623   14.5244 H   0  0  0  0  0  0  0  0  0  0  0  0
   -5.0728    7.2299   12.1819 H   0  0  0  0  0  0  0  0  0  0  0  0
   -2.6643    7.7061   12.0057 H   0  0  0  0  0  0  0  0  0  0  0  0
   -1.0305    6.2590   13.1908 H   0  0  0  0  0  0  0  0  0  0  0  0
  1  2  2  0  0  0  0
  2  3  2  0  0  0  0
  2  4  1  0  0  0  0
  2  5  1  0  0  0  0
  4 17  1  0  0  0  0
  4 18  1  0  0  0  0
  5  6  1  0  0  0  0
  5  7  2  0  0  0  0
  6  9  1  0  0  0  0
  7  8  1  0  0  0  0
  8  9  2  0  0  0  0
  9 10  1  0  0  0  0
 10 11  2  0  0  0  0
 10 12  1  0  0  0  0
 11 15  1  0  0  0  0
 11 19  1  0  0  0  0
 12 13  2  0  0  0  0
 12 16  1  0  0  0  0
 13 14  1  0  0  0  0
 13 20  1  0  0  0  0
 14 15  2  0  0  0  0
 14 21  1  0  0  0  0
 15 22  1  0  0  0  0
M  END
$$$$
