DEQ
 OpenBabel04091910533D

 72 75  0  0  0  0  0  0  0  0999 V2000
    9.1010   -8.0648   30.0281 C   0  0  0  0  0  0  0  0  0  0  0  0
    8.4360   -9.0845   30.7094 C   0  0  0  0  0  0  0  0  0  0  0  0
    7.7301   -8.7954   31.8616 C   0  0  0  0  0  0  0  0  0  0  0  0
    7.6969   -7.4874   32.3400 C   0  0  0  0  0  0  0  0  0  0  0  0
    9.0780   -6.7230   30.4743 C   0  0  0  0  0  0  0  0  0  0  0  0
    8.3645   -6.4295   31.6716 C   0  0  0  0  0  0  0  0  0  0  0  0
    8.3373   -5.1140   32.1677 C   0  0  0  0  0  0  0  0  0  0  0  0
    9.0445   -4.1411   31.4757 C   0  0  0  0  0  0  0  0  0  0  0  0
    9.7595   -4.4450   30.3080 C   0  0  0  0  0  0  0  0  0  0  0  0
    9.7523   -5.7205   29.8049 N   0  3  0  0  0  0  0  0  0  0  0  0
   20.1696  -10.0449   21.7124 C   0  0  0  0  0  0  0  0  0  0  0  0
   18.8866   -9.6749   22.2239 C   0  0  0  0  0  0  0  0  0  0  0  0
   17.7482   -9.9581   21.4755 N   0  3  0  0  0  0  0  0  0  0  0  0
   17.8402  -10.5721   20.2626 C   0  0  0  0  0  0  0  0  0  0  0  0
   19.0847  -10.9244   19.7559 C   0  0  0  0  0  0  0  0  0  0  0  0
   20.2489  -10.6612   20.4556 C   0  0  0  0  0  0  0  0  0  0  0  0
   21.3166   -9.7881   22.4921 C   0  0  0  0  0  0  0  0  0  0  0  0
   21.2568   -9.1579   23.7262 C   0  0  0  0  0  0  0  0  0  0  0  0
   20.0171   -8.7648   24.2234 C   0  0  0  0  0  0  0  0  0  0  0  0
   18.8549   -9.0337   23.4826 C   0  0  0  0  0  0  0  0  0  0  0  0
   16.4007   -9.6968   22.0231 C   0  0  0  0  0  0  0  0  0  0  0  0
   15.9943   -8.2348   21.9006 C   0  0  0  0  0  0  0  0  0  0  0  0
   15.1664   -7.8836   23.1348 C   0  0  0  0  0  0  0  0  0  0  0  0
   13.7586   -8.4703   23.0398 C   0  0  0  0  0  0  0  0  0  0  0  0
   12.9282   -8.0854   24.2716 C   0  0  0  0  0  0  0  0  0  0  0  0
   11.8563   -7.0448   23.9326 C   0  0  0  0  0  0  0  0  0  0  0  0
   10.7462   -6.8444   24.9888 C   0  0  0  0  0  0  0  0  0  0  0  0
   11.2357   -6.7281   26.4354 C   0  0  0  0  0  0  0  0  0  0  0  0
   10.1770   -6.4209   27.4840 C   0  0  0  0  0  0  0  0  0  0  0  0
   10.5856   -6.0056   28.7003 C   0  0  0  0  0  0  0  0  0  0  0  0
   10.4811   -3.3310   29.5916 C   0  0  0  0  0  0  0  0  0  0  0  0
   16.6229  -10.9425   19.4449 C   0  0  0  0  0  0  0  0  0  0  0  0
    7.6734   -4.7624   33.3309 N   0  0  0  0  0  0  0  0  0  0  0  0
   21.4357  -11.0957   19.8965 N   0  0  0  0  0  0  0  0  0  0  0  0
    9.6338   -8.3563   29.1318 H   0  0  0  0  0  0  0  0  0  0  0  0
    8.4644  -10.1054   30.3319 H   0  0  0  0  0  0  0  0  0  0  0  0
    7.1970   -9.5807   32.3944 H   0  0  0  0  0  0  0  0  0  0  0  0
    7.1282   -7.3173   33.2504 H   0  0  0  0  0  0  0  0  0  0  0  0
    9.0346   -3.1160   31.8503 H   0  0  0  0  0  0  0  0  0  0  0  0
    7.1357   -5.4304   33.8688 H   0  0  0  0  0  0  0  0  0  0  0  0
   19.1468  -11.4282   18.8006 H   0  0  0  0  0  0  0  0  0  0  0  0
   22.3104  -10.0753   22.1410 H   0  0  0  0  0  0  0  0  0  0  0  0
   22.1669   -8.9695   24.2977 H   0  0  0  0  0  0  0  0  0  0  0  0
   19.9729   -8.2554   25.1735 H   0  0  0  0  0  0  0  0  0  0  0  0
   17.9294   -8.7050   23.9434 H   0  0  0  0  0  0  0  0  0  0  0  0
   16.3974  -10.0718   23.0524 H   0  0  0  0  0  0  0  0  0  0  0  0
   15.6590  -10.3103   21.5102 H   0  0  0  0  0  0  0  0  0  0  0  0
   15.3989   -8.0779   20.9894 H   0  0  0  0  0  0  0  0  0  0  0  0
   16.8562   -7.5645   21.8202 H   0  0  0  0  0  0  0  0  0  0  0  0
   15.1173   -6.7993   23.2654 H   0  0  0  0  0  0  0  0  0  0  0  0
   15.6573   -8.2861   24.0310 H   0  0  0  0  0  0  0  0  0  0  0  0
   13.8206   -9.5651   22.9730 H   0  0  0  0  0  0  0  0  0  0  0  0
   13.2876   -8.1347   22.1080 H   0  0  0  0  0  0  0  0  0  0  0  0
   13.5888   -7.6847   25.0507 H   0  0  0  0  0  0  0  0  0  0  0  0
   12.4660   -8.9901   24.6795 H   0  0  0  0  0  0  0  0  0  0  0  0
   11.3673   -7.3286   22.9916 H   0  0  0  0  0  0  0  0  0  0  0  0
   12.3528   -6.0851   23.7407 H   0  0  0  0  0  0  0  0  0  0  0  0
   10.0397   -7.6791   24.9104 H   0  0  0  0  0  0  0  0  0  0  0  0
   10.1916   -5.9382   24.7175 H   0  0  0  0  0  0  0  0  0  0  0  0
   11.9997   -5.9434   26.4788 H   0  0  0  0  0  0  0  0  0  0  0  0
   11.7130   -7.6722   26.7245 H   0  0  0  0  0  0  0  0  0  0  0  0
    9.1250   -6.5604   27.2400 H   0  0  0  0  0  0  0  0  0  0  0  0
   11.6584   -5.8628   28.8472 H   0  0  0  0  0  0  0  0  0  0  0  0
   10.3552   -2.3720   30.1053 H   0  0  0  0  0  0  0  0  0  0  0  0
   10.0772   -3.2183   28.5807 H   0  0  0  0  0  0  0  0  0  0  0  0
   11.5544   -3.5363   29.5400 H   0  0  0  0  0  0  0  0  0  0  0  0
   16.9032  -11.3755   18.4770 H   0  0  0  0  0  0  0  0  0  0  0  0
   16.0031  -10.0644   19.2356 H   0  0  0  0  0  0  0  0  0  0  0  0
   16.0272  -11.7032   19.9623 H   0  0  0  0  0  0  0  0  0  0  0  0
    7.6073   -3.8024   33.6554 H   0  0  0  0  0  0  0  0  0  0  0  0
   22.3432  -10.9100   20.3018 H   0  0  0  0  0  0  0  0  0  0  0  0
   21.4463  -11.5044   18.9652 H   0  0  0  0  0  0  0  0  0  0  0  0
  1  2  2  0  0  0  0
  1  5  1  0  0  0  0
  1 35  1  0  0  0  0
  2  3  1  0  0  0  0
  2 36  1  0  0  0  0
  3  4  2  0  0  0  0
  3 37  1  0  0  0  0
  4  6  1  0  0  0  0
  4 38  1  0  0  0  0
  5  6  2  0  0  0  0
  5 10  1  0  0  0  0
  6  7  1  0  0  0  0
  7  8  2  0  0  0  0
  7 33  1  0  0  0  0
  8  9  1  0  0  0  0
  8 39  1  0  0  0  0
  9 10  2  0  0  0  0
  9 31  1  0  0  0  0
 10 30  1  0  0  0  0
 11 12  2  0  0  0  0
 11 16  1  0  0  0  0
 11 17  1  0  0  0  0
 12 13  1  0  0  0  0
 12 20  1  0  0  0  0
 13 14  2  0  0  0  0
 13 21  1  0  0  0  0
 14 15  1  0  0  0  0
 14 32  1  0  0  0  0
 15 16  2  0  0  0  0
 15 41  1  0  0  0  0
 16 34  1  0  0  0  0
 17 18  2  0  0  0  0
 17 42  1  0  0  0  0
 18 19  1  0  0  0  0
 18 43  1  0  0  0  0
 19 20  2  0  0  0  0
 19 44  1  0  0  0  0
 20 45  1  0  0  0  0
 21 22  1  0  0  0  0
 21 46  1  0  0  0  0
 21 47  1  0  0  0  0
 22 23  1  0  0  0  0
 22 48  1  0  0  0  0
 22 49  1  0  0  0  0
 23 24  1  0  0  0  0
 23 50  1  0  0  0  0
 23 51  1  0  0  0  0
 24 25  1  0  0  0  0
 24 52  1  0  0  0  0
 24 53  1  0  0  0  0
 25 26  1  0  0  0  0
 25 54  1  0  0  0  0
 25 55  1  0  0  0  0
 26 27  1  0  0  0  0
 26 56  1  0  0  0  0
 26 57  1  0  0  0  0
 27 28  1  0  0  0  0
 27 58  1  0  0  0  0
 27 59  1  0  0  0  0
 28 29  1  0  0  0  0
 28 60  1  0  0  0  0
 28 61  1  0  0  0  0
 29 30  2  0  0  0  0
 29 62  1  0  0  0  0
 30 63  1  0  0  0  0
 31 64  1  0  0  0  0
 31 65  1  0  0  0  0
 31 66  1  0  0  0  0
 32 67  1  0  0  0  0
 32 68  1  0  0  0  0
 32 69  1  0  0  0  0
 33 40  1  0  0  0  0
 33 70  1  0  0  0  0
 34 71  1  0  0  0  0
 34 72  1  0  0  0  0
M  CHG  2  10   1  13   1
M  END
$$$$
