DGJ
 OpenBabel04091915113D

 25 25  0  0  1  0  0  0  0  0999 V2000
   39.1922   16.0356   31.3440 C   0  0  0  0  0  0  0  0  0  0  0  0
   39.9855   16.2113   30.0504 C   0  0  2  0  0  0  0  0  0  0  0  0
   41.1188   17.0412   30.2366 O   0  0  0  0  0  0  0  0  0  0  0  0
   39.0312   16.7678   28.9901 C   0  0  1  0  0  0  0  0  0  0  0  0
   39.6948   17.1072   27.7872 O   0  0  0  0  0  0  0  0  0  0  0  0
   37.9382   15.6922   28.7003 C   0  0  1  0  0  0  0  0  0  0  0  0
   38.6052   14.5148   28.2160 O   0  0  0  0  0  0  0  0  0  0  0  0
   37.1734   15.3083   29.9705 C   0  0  2  0  0  0  0  0  0  0  0  0
   38.1312   15.0331   31.1117 N   0  3  0  0  0  0  0  0  0  0  0  0
   36.3551   14.0212   29.7654 C   0  0  0  0  0  0  0  0  0  0  0  0
   35.5415   13.8359   30.9124 O   0  0  0  0  0  0  0  0  0  0  0  0
   38.7202   16.9623   31.6661 H   0  0  0  0  0  0  0  0  0  0  0  0
   39.8255   15.6688   32.1695 H   0  0  0  0  0  0  0  0  0  0  0  0
   40.3826   15.2317   29.7319 H   0  0  0  0  0  0  0  0  0  0  0  0
   40.8721   17.9242   30.5397 H   0  0  0  0  0  0  0  0  0  0  0  0
   38.5463   17.6861   29.3540 H   0  0  0  0  0  0  0  0  0  0  0  0
   40.4504   17.6866   28.0095 H   0  0  0  0  0  0  0  0  0  0  0  0
   37.2663   16.0620   27.9318 H   0  0  0  0  0  0  0  0  0  0  0  0
   37.9623   13.9138   27.7950 H   0  0  0  0  0  0  0  0  0  0  0  0
   36.5310   16.1294   30.3031 H   0  0  0  0  0  0  0  0  0  0  0  0
   38.5872   14.1290   30.9320 H   0  0  0  0  0  0  0  0  0  0  0  0
   37.0209   13.1441   29.6925 H   0  0  0  0  0  0  0  0  0  0  0  0
   35.7551   14.0635   28.8571 H   0  0  0  0  0  0  0  0  0  0  0  0
   34.8264   14.4965   30.8910 H   0  0  0  0  0  0  0  0  0  0  0  0
   37.5618   14.8712   31.9719 H   0  0  0  0  0  0  0  0  0  0  0  0
  1  2  1  0  0  0  0
  1  9  1  0  0  0  0
  1 12  1  0  0  0  0
  1 13  1  0  0  0  0
  2  3  1  0  0  0  0
  2  4  1  0  0  0  0
  2 14  1  6  0  0  0
  3 15  1  0  0  0  0
  4  5  1  0  0  0  0
  4  6  1  0  0  0  0
  4 16  1  1  0  0  0
  5 17  1  0  0  0  0
  6  7  1  0  0  0  0
  6  8  1  0  0  0  0
  6 18  1  6  0  0  0
  7 19  1  0  0  0  0
  8  9  1  0  0  0  0
  8 10  1  0  0  0  0
  8 20  1  1  0  0  0
  9 21  1  0  0  0  0
  9 25  1  0  0  0  0
 10 11  1  0  0  0  0
 10 22  1  0  0  0  0
 10 23  1  0  0  0  0
 11 24  1  0  0  0  0
M  CHG  1   9   1
M  END
$$$$
