DJR
 OpenBabel04091913063D

 77 80  0  0  1  0  0  0  0  0999 V2000
    2.3059    2.1492   10.5553 C   0  0  1  0  0  0  0  0  0  0  0  0
    0.6762    3.2547   11.9133 O   0  0  0  0  0  0  0  0  0  0  0  0
    1.6396    3.4741   10.8702 C   0  0  1  0  0  0  0  0  0  0  0  0
    2.6690    4.3907   11.2685 O   0  0  0  0  0  0  0  0  0  0  0  0
    3.9586    3.7829   11.0943 C   0  0  0  0  0  0  0  0  0  0  0  0
    3.7523    2.5025   10.3190 C   0  0  0  0  0  0  0  0  0  0  0  0
    0.5799    1.8353   12.1483 C   0  0  0  0  0  0  0  0  0  0  0  0
    1.9253    1.2424   11.7275 C   0  0  2  0  0  0  0  0  0  0  0  0
    2.8505    1.3420   12.8306 O   0  0  0  0  0  0  0  0  0  0  0  0
    3.7248    0.3106   13.0712 C   0  0  0  0  0  0  0  0  0  0  0  0
    3.7381   -0.7599   12.5397 O   0  0  0  0  0  0  0  0  0  0  0  0
    4.6024    0.7362   14.0354 N   0  0  0  0  0  0  0  0  0  0  0  0
    5.6856   -0.1003   14.5684 C   0  0  1  0  0  0  0  0  0  0  0  0
    7.0326    0.6462   14.3885 C   0  0  0  0  0  0  0  0  0  0  0  0
    7.3637    1.0419   12.9429 C   0  0  0  0  0  0  0  0  0  0  0  0
    7.7944    0.0723   12.0165 C   0  0  0  0  0  0  0  0  0  0  0  0
    8.0834    0.4314   10.6890 C   0  0  0  0  0  0  0  0  0  0  0  0
    7.9488    1.7625   10.2743 C   0  0  0  0  0  0  0  0  0  0  0  0
    7.5246    2.7394   11.1837 C   0  0  0  0  0  0  0  0  0  0  0  0
    7.2331    2.3809   12.5122 C   0  0  0  0  0  0  0  0  0  0  0  0
    5.3091   -0.4463   16.0425 C   0  0  2  0  0  0  0  0  0  0  0  0
    5.4907    0.7191   16.8772 O   0  0  0  0  0  0  0  0  0  0  0  0
    6.0887   -1.6385   16.6300 C   0  0  0  0  0  0  0  0  0  0  0  0
    5.8918   -2.9038   15.8901 N   0  0  0  0  0  0  0  0  0  0  0  0
    7.1528   -3.5318   14.8988 S   0  0  0  0  0  0  0  0  0  0  0  0
    6.5426   -4.4396   13.9500 O   0  0  0  0  0  0  0  0  0  0  0  0
    7.9916   -2.4541   14.4045 O   0  0  0  0  0  0  0  0  0  0  0  0
    8.1758   -4.5170   16.0645 C   0  0  0  0  0  0  0  0  0  0  0  0
    9.2577   -3.9467   16.7661 C   0  0  0  0  0  0  0  0  0  0  0  0
   10.0309   -4.7532   17.6524 C   0  0  0  0  0  0  0  0  0  0  0  0
    9.7411   -6.1287   17.8351 C   0  0  0  0  0  0  0  0  0  0  0  0
   10.5627   -6.7948   18.7167 O   0  0  0  0  0  0  0  0  0  0  0  0
   10.4137   -8.1938   19.0141 C   0  0  0  0  0  0  0  0  0  0  0  0
    8.6684   -6.6810   17.1208 C   0  0  0  0  0  0  0  0  0  0  0  0
    7.8916   -5.8871   16.2346 C   0  0  0  0  0  0  0  0  0  0  0  0
    4.5313   -3.5658   15.8807 C   0  0  0  0  0  0  0  0  0  0  0  0
    3.8792   -3.8020   17.2675 C   0  0  0  0  0  0  0  0  0  0  0  0
    2.3688   -4.0887   17.1763 C   0  0  0  0  0  0  0  0  0  0  0  0
    4.5133   -4.9925   17.9751 C   0  0  0  0  0  0  0  0  0  0  0  0
    1.8786    1.7246    9.6421 H   0  0  0  0  0  0  0  0  0  0  0  0
    1.1193    3.8770    9.9838 H   0  0  0  0  0  0  0  0  0  0  0  0
    4.4004    3.5751   12.0776 H   0  0  0  0  0  0  0  0  0  0  0  0
    4.6244    4.4813   10.5665 H   0  0  0  0  0  0  0  0  0  0  0  0
    3.9363    2.6854    9.2468 H   0  0  0  0  0  0  0  0  0  0  0  0
    4.4322    1.7156   10.6447 H   0  0  0  0  0  0  0  0  0  0  0  0
   -0.2492    1.4429   11.5363 H   0  0  0  0  0  0  0  0  0  0  0  0
    0.3489    1.6513   13.2052 H   0  0  0  0  0  0  0  0  0  0  0  0
    1.8017    0.2023   11.4159 H   0  0  0  0  0  0  0  0  0  0  0  0
    4.4886    1.6689   14.3873 H   0  0  0  0  0  0  0  0  0  0  0  0
    5.7278   -1.0333   13.9998 H   0  0  0  0  0  0  0  0  0  0  0  0
    7.8471    0.0148   14.7663 H   0  0  0  0  0  0  0  0  0  0  0  0
    7.0198    1.5593   14.9999 H   0  0  0  0  0  0  0  0  0  0  0  0
    7.9058   -0.9689   12.3255 H   0  0  0  0  0  0  0  0  0  0  0  0
    8.4132   -0.3334    9.9809 H   0  0  0  0  0  0  0  0  0  0  0  0
    8.1761    2.0386    9.2441 H   0  0  0  0  0  0  0  0  0  0  0  0
    7.4210    3.7769   10.8563 H   0  0  0  0  0  0  0  0  0  0  0  0
    6.8989    3.1500   13.2110 H   0  0  0  0  0  0  0  0  0  0  0  0
    4.2361   -0.6903   16.0744 H   0  0  0  0  0  0  0  0  0  0  0  0
    5.2468    0.4942   17.7925 H   0  0  0  0  0  0  0  0  0  0  0  0
    5.7788   -1.7799   17.6789 H   0  0  0  0  0  0  0  0  0  0  0  0
    7.1510   -1.3886   16.6536 H   0  0  0  0  0  0  0  0  0  0  0  0
    9.5068   -2.8909   16.6444 H   0  0  0  0  0  0  0  0  0  0  0  0
   10.8640   -4.2975   18.1978 H   0  0  0  0  0  0  0  0  0  0  0  0
   11.1906   -8.4953   19.7476 H   0  0  0  0  0  0  0  0  0  0  0  0
   10.5550   -8.8119   18.1212 H   0  0  0  0  0  0  0  0  0  0  0  0
    9.4404   -8.4056   19.4692 H   0  0  0  0  0  0  0  0  0  0  0  0
    8.4105   -7.7306   17.2292 H   0  0  0  0  0  0  0  0  0  0  0  0
    7.0588   -6.3327   15.6858 H   0  0  0  0  0  0  0  0  0  0  0  0
    4.6327   -4.5395   15.3930 H   0  0  0  0  0  0  0  0  0  0  0  0
    3.8482   -2.9506   15.2796 H   0  0  0  0  0  0  0  0  0  0  0  0
    3.9983   -2.9085   17.8834 H   0  0  0  0  0  0  0  0  0  0  0  0
    1.9473   -4.2537   18.1815 H   0  0  0  0  0  0  0  0  0  0  0  0
    2.1770   -4.9900   16.5793 H   0  0  0  0  0  0  0  0  0  0  0  0
    1.8375   -3.2461   16.7208 H   0  0  0  0  0  0  0  0  0  0  0  0
    5.5890   -4.8423   18.0667 H   0  0  0  0  0  0  0  0  0  0  0  0
    4.3297   -5.9173   17.4111 H   0  0  0  0  0  0  0  0  0  0  0  0
    4.0869   -5.1152   18.9793 H   0  0  0  0  0  0  0  0  0  0  0  0
  1  3  1  0  0  0  0
  1  6  1  0  0  0  0
  1  8  1  0  0  0  0
  1 40  1  6  0  0  0
  2  3  1  0  0  0  0
  2  7  1  0  0  0  0
  3  4  1  0  0  0  0
  3 41  1  6  0  0  0
  4  5  1  0  0  0  0
  5  6  1  0  0  0  0
  5 42  1  0  0  0  0
  5 43  1  0  0  0  0
  6 44  1  0  0  0  0
  6 45  1  0  0  0  0
  7  8  1  0  0  0  0
  7 46  1  0  0  0  0
  7 47  1  0  0  0  0
  8  9  1  0  0  0  0
  8 48  1  6  0  0  0
  9 10  1  0  0  0  0
 10 11  2  0  0  0  0
 10 12  1  0  0  0  0
 12 13  1  0  0  0  0
 12 49  1  0  0  0  0
 13 14  1  0  0  0  0
 13 21  1  0  0  0  0
 13 50  1  6  0  0  0
 14 15  1  0  0  0  0
 14 51  1  0  0  0  0
 14 52  1  0  0  0  0
 15 16  2  0  0  0  0
 15 20  1  0  0  0  0
 16 17  1  0  0  0  0
 16 53  1  0  0  0  0
 17 18  2  0  0  0  0
 17 54  1  0  0  0  0
 18 19  1  0  0  0  0
 18 55  1  0  0  0  0
 19 20  2  0  0  0  0
 19 56  1  0  0  0  0
 20 57  1  0  0  0  0
 21 22  1  0  0  0  0
 21 23  1  0  0  0  0
 21 58  1  1  0  0  0
 22 59  1  0  0  0  0
 23 24  1  0  0  0  0
 23 60  1  0  0  0  0
 23 61  1  0  0  0  0
 24 25  1  0  0  0  0
 24 36  1  0  0  0  0
 25 26  2  0  0  0  0
 25 27  2  0  0  0  0
 25 28  1  0  0  0  0
 28 29  2  0  0  0  0
 28 35  1  0  0  0  0
 29 30  1  0  0  0  0
 29 62  1  0  0  0  0
 30 31  2  0  0  0  0
 30 63  1  0  0  0  0
 31 32  1  0  0  0  0
 31 34  1  0  0  0  0
 32 33  1  0  0  0  0
 33 64  1  0  0  0  0
 33 65  1  0  0  0  0
 33 66  1  0  0  0  0
 34 35  2  0  0  0  0
 34 67  1  0  0  0  0
 35 68  1  0  0  0  0
 36 37  1  0  0  0  0
 36 69  1  0  0  0  0
 36 70  1  0  0  0  0
 37 38  1  0  0  0  0
 37 39  1  0  0  0  0
 37 71  1  0  0  0  0
 38 72  1  0  0  0  0
 38 73  1  0  0  0  0
 38 74  1  0  0  0  0
 39 75  1  0  0  0  0
 39 76  1  0  0  0  0
 39 77  1  0  0  0  0
M  END
$$$$
