DKA
 OpenBabel04091914073D

 31 30  0  0  0  0  0  0  0  0999 V2000
    8.0099   -0.6058    0.8157 C   0  0  0  0  0  0  0  0  0  0  0  0
    7.2609   -1.1402   -0.0479 O   0  0  0  0  0  0  0  0  0  0  0  0
    9.5035   -0.6646    0.5225 C   0  0  0  0  0  0  0  0  0  0  0  0
    9.9941   -2.1055    0.5518 C   0  0  0  0  0  0  0  0  0  0  0  0
   11.3342   -2.2127   -0.1575 C   0  0  0  0  0  0  0  0  0  0  0  0
   12.1375   -3.4102    0.3301 C   0  0  0  0  0  0  0  0  0  0  0  0
   13.5203   -3.3649   -0.2958 C   0  0  0  0  0  0  0  0  0  0  0  0
   14.2389   -4.7021   -0.1744 C   0  0  0  0  0  0  0  0  0  0  0  0
   15.2253   -4.8495   -1.3326 C   0  0  0  0  0  0  0  0  0  0  0  0
   16.6102   -5.2335   -0.8304 C   0  0  0  0  0  0  0  0  0  0  0  0
   17.6068   -5.1587   -1.9731 C   0  0  0  0  0  0  0  0  0  0  0  0
    7.7034    0.0015    1.8923 O   0  0  0  0  0  0  0  0  0  0  0  0
   10.0667   -0.0721    1.2505 H   0  0  0  0  0  0  0  0  0  0  0  0
    9.6844   -0.2301   -0.4684 H   0  0  0  0  0  0  0  0  0  0  0  0
    9.2762   -2.7774    0.0705 H   0  0  0  0  0  0  0  0  0  0  0  0
   10.0971   -2.4280    1.5958 H   0  0  0  0  0  0  0  0  0  0  0  0
   11.9195   -1.3022    0.0019 H   0  0  0  0  0  0  0  0  0  0  0  0
   11.1622   -2.3100   -1.2380 H   0  0  0  0  0  0  0  0  0  0  0  0
   11.6216   -4.3351    0.0531 H   0  0  0  0  0  0  0  0  0  0  0  0
   12.2287   -3.3884    1.4223 H   0  0  0  0  0  0  0  0  0  0  0  0
   14.1213   -2.5886    0.1951 H   0  0  0  0  0  0  0  0  0  0  0  0
   13.4207   -3.0829   -1.3472 H   0  0  0  0  0  0  0  0  0  0  0  0
   13.5125   -5.5239   -0.2239 H   0  0  0  0  0  0  0  0  0  0  0  0
   14.7449   -4.7584    0.7894 H   0  0  0  0  0  0  0  0  0  0  0  0
   15.2992   -3.9158   -1.8912 H   0  0  0  0  0  0  0  0  0  0  0  0
   14.8609   -5.6238   -2.0151 H   0  0  0  0  0  0  0  0  0  0  0  0
   16.5903   -6.2468   -0.4282 H   0  0  0  0  0  0  0  0  0  0  0  0
   16.9224   -4.5459   -0.0405 H   0  0  0  0  0  0  0  0  0  0  0  0
   18.6042   -5.4303   -1.6124 H   0  0  0  0  0  0  0  0  0  0  0  0
   17.6504   -4.1453   -2.3794 H   0  0  0  0  0  0  0  0  0  0  0  0
   17.3243   -5.8445   -2.7746 H   0  0  0  0  0  0  0  0  0  0  0  0
  1  2  2  0  0  0  0
  1  3  1  0  0  0  0
  1 12  1  0  0  0  0
  3  4  1  0  0  0  0
  3 13  1  0  0  0  0
  3 14  1  0  0  0  0
  4  5  1  0  0  0  0
  4 15  1  0  0  0  0
  4 16  1  0  0  0  0
  5  6  1  0  0  0  0
  5 17  1  0  0  0  0
  5 18  1  0  0  0  0
  6  7  1  0  0  0  0
  6 19  1  0  0  0  0
  6 20  1  0  0  0  0
  7  8  1  0  0  0  0
  7 21  1  0  0  0  0
  7 22  1  0  0  0  0
  8  9  1  0  0  0  0
  8 23  1  0  0  0  0
  8 24  1  0  0  0  0
  9 10  1  0  0  0  0
  9 25  1  0  0  0  0
  9 26  1  0  0  0  0
 10 11  1  0  0  0  0
 10 27  1  0  0  0  0
 10 28  1  0  0  0  0
 11 29  1  0  0  0  0
 11 30  1  0  0  0  0
 11 31  1  0  0  0  0
M  END
$$$$
