DKA
 OpenBabel04091915543D

 31 30  0  0  0  0  0  0  0  0999 V2000
    3.5577    3.8769   20.1484 C   0  0  0  0  0  0  0  0  0  0  0  0
    2.4742    4.0018   19.5200 O   0  0  0  0  0  0  0  0  0  0  0  0
    3.3808    3.1995   21.5601 C   0  0  0  0  0  0  0  0  0  0  0  0
    2.5540    1.9080   21.4857 C   0  0  0  0  0  0  0  0  0  0  0  0
    2.8615    0.9023   22.5993 C   0  0  0  0  0  0  0  0  0  0  0  0
    1.7048   -0.0922   22.7872 C   0  0  0  0  0  0  0  0  0  0  0  0
    1.9107   -0.9748   24.0110 C   0  0  0  0  0  0  0  0  0  0  0  0
    0.9433   -2.1564   24.0001 C   0  0  0  0  0  0  0  0  0  0  0  0
    1.3015   -3.2029   25.0561 C   0  0  0  0  0  0  0  0  0  0  0  0
    0.1035   -3.5070   25.9488 C   0  0  0  0  0  0  0  0  0  0  0  0
    0.2570   -2.8532   27.3084 C   0  0  0  0  0  0  0  0  0  0  0  0
    4.7318    4.2052   19.8500 O   0  0  0  0  0  0  0  0  0  0  0  0
    2.8756    3.8926   22.2515 H   0  0  0  0  0  0  0  0  0  0  0  0
    4.3652    2.9812   21.9866 H   0  0  0  0  0  0  0  0  0  0  0  0
    2.7374    1.4188   20.5245 H   0  0  0  0  0  0  0  0  0  0  0  0
    1.4877    2.1639   21.5335 H   0  0  0  0  0  0  0  0  0  0  0  0
    3.0397    1.4161   23.5457 H   0  0  0  0  0  0  0  0  0  0  0  0
    3.7637    0.3326   22.3386 H   0  0  0  0  0  0  0  0  0  0  0  0
    1.6231   -0.7231   21.8921 H   0  0  0  0  0  0  0  0  0  0  0  0
    0.7670    0.4576   22.8985 H   0  0  0  0  0  0  0  0  0  0  0  0
    1.7289   -0.3856   24.9251 H   0  0  0  0  0  0  0  0  0  0  0  0
    2.9346   -1.3465   24.0432 H   0  0  0  0  0  0  0  0  0  0  0  0
    0.9668   -2.6322   23.0138 H   0  0  0  0  0  0  0  0  0  0  0  0
   -0.0708   -1.7784   24.1644 H   0  0  0  0  0  0  0  0  0  0  0  0
    2.1516   -2.8680   25.6610 H   0  0  0  0  0  0  0  0  0  0  0  0
    1.6040   -4.1304   24.5483 H   0  0  0  0  0  0  0  0  0  0  0  0
    0.0072   -4.5868   26.0852 H   0  0  0  0  0  0  0  0  0  0  0  0
   -0.8227   -3.1455   25.4910 H   0  0  0  0  0  0  0  0  0  0  0  0
   -0.6139   -3.0776   27.9302 H   0  0  0  0  0  0  0  0  0  0  0  0
    0.3442   -1.7679   27.2037 H   0  0  0  0  0  0  0  0  0  0  0  0
    1.1516   -3.2311   27.8118 H   0  0  0  0  0  0  0  0  0  0  0  0
  1  2  2  0  0  0  0
  1  3  1  0  0  0  0
  1 12  1  0  0  0  0
  3  4  1  0  0  0  0
  3 13  1  0  0  0  0
  3 14  1  0  0  0  0
  4  5  1  0  0  0  0
  4 15  1  0  0  0  0
  4 16  1  0  0  0  0
  5  6  1  0  0  0  0
  5 17  1  0  0  0  0
  5 18  1  0  0  0  0
  6  7  1  0  0  0  0
  6 19  1  0  0  0  0
  6 20  1  0  0  0  0
  7  8  1  0  0  0  0
  7 21  1  0  0  0  0
  7 22  1  0  0  0  0
  8  9  1  0  0  0  0
  8 23  1  0  0  0  0
  8 24  1  0  0  0  0
  9 10  1  0  0  0  0
  9 25  1  0  0  0  0
  9 26  1  0  0  0  0
 10 11  1  0  0  0  0
 10 27  1  0  0  0  0
 10 28  1  0  0  0  0
 11 29  1  0  0  0  0
 11 30  1  0  0  0  0
 11 31  1  0  0  0  0
M  END
$$$$
