DPV
 OpenBabel04091913313D

 61 60  0  0  0  0  0  0  0  0999 V2000
    6.4723   12.0593   12.0837 N   0  3  0  0  0  0  0  0  0  0  0  0
    5.3930   16.2511    9.7194 P   0  0  1  0  0  0  0  0  0  0  0  0
    4.5818   18.0476   11.5063 C   0  0  0  0  0  0  0  0  0  0  0  0
    3.4294   19.0497   11.4385 C   0  0  0  0  0  0  0  0  0  0  0  0
    2.1647   18.4820   12.0864 C   0  0  0  0  0  0  0  0  0  0  0  0
    5.7699   14.4739   11.5806 C   0  0  0  0  0  0  0  0  0  0  0  0
    6.8092   13.3703   11.3444 C   0  0  0  0  0  0  0  0  0  0  0  0
    6.1179   12.3367   13.5187 C   0  0  0  0  0  0  0  0  0  0  0  0
    7.6751   11.1571   12.0480 C   0  0  0  0  0  0  0  0  0  0  0  0
    5.3216   11.3657   11.3929 C   0  0  0  0  0  0  0  0  0  0  0  0
    1.3645   17.6589   11.0795 C   0  0  0  0  0  0  0  0  0  0  0  0
    0.0253   17.2193   11.6575 C   0  0  0  0  0  0  0  0  0  0  0  0
   -0.3547   15.8399   11.1460 C   0  0  0  0  0  0  0  0  0  0  0  0
   -1.6123   15.3296   11.8388 C   0  0  0  0  0  0  0  0  0  0  0  0
   -2.3186   14.2886   10.9805 C   0  0  0  0  0  0  0  0  0  0  0  0
    4.1241   15.4920    9.5576 O   0  0  0  0  0  0  0  0  0  0  0  0
   -3.5537   13.7456   11.6916 C   0  0  0  0  0  0  0  0  0  0  0  0
   -4.1711   12.5952   10.9049 C   0  0  0  0  0  0  0  0  0  0  0  0
   -5.3052   13.0897   10.0157 C   0  0  0  0  0  0  0  0  0  0  0  0
   -5.4367   12.2202    8.7808 C   0  0  0  0  0  0  0  0  0  0  0  0
    6.4133   16.3248    8.6002 O   0  0  0  0  0  0  0  0  0  0  0  0
    5.0788   17.7771   10.2042 O   0  0  0  0  0  0  0  0  0  0  0  0
    6.1901   15.6848   11.0230 O   0  0  0  0  0  0  0  0  0  0  0  0
    4.2699   17.1254   11.9943 H   0  0  0  0  0  0  0  0  0  0  0  0
    5.4056   18.4868   12.0918 H   0  0  0  0  0  0  0  0  0  0  0  0
    3.2183   19.3239   10.3986 H   0  0  0  0  0  0  0  0  0  0  0  0
    3.7044   19.9708   11.9724 H   0  0  0  0  0  0  0  0  0  0  0  0
    1.5417   19.2985   12.4673 H   0  0  0  0  0  0  0  0  0  0  0  0
    2.4336   17.8470   12.9408 H   0  0  0  0  0  0  0  0  0  0  0  0
    5.6464   14.6351   12.6487 H   0  0  0  0  0  0  0  0  0  0  0  0
    4.8052   14.1304   11.1849 H   0  0  0  0  0  0  0  0  0  0  0  0
    6.8801   13.1207   10.2736 H   0  0  0  0  0  0  0  0  0  0  0  0
    7.7935   13.6866   11.6976 H   0  0  0  0  0  0  0  0  0  0  0  0
    5.8769   11.3826   13.9990 H   0  0  0  0  0  0  0  0  0  0  0  0
    5.2380   12.9764   13.5552 H   0  0  0  0  0  0  0  0  0  0  0  0
    6.9811   12.8132   13.9953 H   0  0  0  0  0  0  0  0  0  0  0  0
    7.9284   10.9627   11.0055 H   0  0  0  0  0  0  0  0  0  0  0  0
    7.4094   10.2273   12.5669 H   0  0  0  0  0  0  0  0  0  0  0  0
    8.4954   11.6632   12.5655 H   0  0  0  0  0  0  0  0  0  0  0  0
    4.4532   12.0180   11.4157 H   0  0  0  0  0  0  0  0  0  0  0  0
    5.1137   10.4377   11.9427 H   0  0  0  0  0  0  0  0  0  0  0  0
    5.6233   11.1402   10.3667 H   0  0  0  0  0  0  0  0  0  0  0  0
    1.9502   16.7816   10.7895 H   0  0  0  0  0  0  0  0  0  0  0  0
    1.1842   18.2550   10.1770 H   0  0  0  0  0  0  0  0  0  0  0  0
   -0.7496   17.9430   11.3698 H   0  0  0  0  0  0  0  0  0  0  0  0
    0.0758   17.2022   12.7535 H   0  0  0  0  0  0  0  0  0  0  0  0
    0.4674   15.1379   11.3339 H   0  0  0  0  0  0  0  0  0  0  0  0
   -0.5157   15.8876   10.0628 H   0  0  0  0  0  0  0  0  0  0  0  0
   -2.2950   16.1632   12.0330 H   0  0  0  0  0  0  0  0  0  0  0  0
   -1.3372   14.8863   12.8044 H   0  0  0  0  0  0  0  0  0  0  0  0
   -1.6254   13.4683   10.7594 H   0  0  0  0  0  0  0  0  0  0  0  0
   -2.6162   14.7433   10.0267 H   0  0  0  0  0  0  0  0  0  0  0  0
   -4.2855   14.5521   11.8195 H   0  0  0  0  0  0  0  0  0  0  0  0
   -3.2665   13.3906   12.6873 H   0  0  0  0  0  0  0  0  0  0  0  0
   -4.5650   11.8467   11.6043 H   0  0  0  0  0  0  0  0  0  0  0  0
   -3.4024   12.1058   10.2962 H   0  0  0  0  0  0  0  0  0  0  0  0
   -5.1196   14.1228    9.7039 H   0  0  0  0  0  0  0  0  0  0  0  0
   -6.2469   13.0711   10.5773 H   0  0  0  0  0  0  0  0  0  0  0  0
   -6.2495   12.5826    8.1457 H   0  0  0  0  0  0  0  0  0  0  0  0
   -5.6443   11.1846    9.0623 H   0  0  0  0  0  0  0  0  0  0  0  0
   -4.5077   12.2457    8.2013 H   0  0  0  0  0  0  0  0  0  0  0  0
  1  7  1  0  0  0  0
  1  8  1  0  0  0  0
  1  9  1  0  0  0  0
  1 10  1  0  0  0  0
  2 16  2  6  0  0  0
  2 21  1  0  0  0  0
  2 22  1  0  0  0  0
  2 23  1  0  0  0  0
  3  4  1  0  0  0  0
  3 22  1  0  0  0  0
  3 24  1  0  0  0  0
  3 25  1  0  0  0  0
  4  5  1  0  0  0  0
  4 26  1  0  0  0  0
  4 27  1  0  0  0  0
  5 11  1  0  0  0  0
  5 28  1  0  0  0  0
  5 29  1  0  0  0  0
  6  7  1  0  0  0  0
  6 23  1  0  0  0  0
  6 30  1  0  0  0  0
  6 31  1  0  0  0  0
  7 32  1  0  0  0  0
  7 33  1  0  0  0  0
  8 34  1  0  0  0  0
  8 35  1  0  0  0  0
  8 36  1  0  0  0  0
  9 37  1  0  0  0  0
  9 38  1  0  0  0  0
  9 39  1  0  0  0  0
 10 40  1  0  0  0  0
 10 41  1  0  0  0  0
 10 42  1  0  0  0  0
 11 12  1  0  0  0  0
 11 43  1  0  0  0  0
 11 44  1  0  0  0  0
 12 13  1  0  0  0  0
 12 45  1  0  0  0  0
 12 46  1  0  0  0  0
 13 14  1  0  0  0  0
 13 47  1  0  0  0  0
 13 48  1  0  0  0  0
 14 15  1  0  0  0  0
 14 49  1  0  0  0  0
 14 50  1  0  0  0  0
 15 17  1  0  0  0  0
 15 51  1  0  0  0  0
 15 52  1  0  0  0  0
 17 18  1  0  0  0  0
 17 53  1  0  0  0  0
 17 54  1  0  0  0  0
 18 19  1  0  0  0  0
 18 55  1  0  0  0  0
 18 56  1  0  0  0  0
 19 20  1  0  0  0  0
 19 57  1  0  0  0  0
 19 58  1  0  0  0  0
 20 59  1  0  0  0  0
 20 60  1  0  0  0  0
 20 61  1  0  0  0  0
M  CHG  1   1   1
M  END
$$$$
