DQT
 OpenBabel04091915363D

 58 60  0  0  1  0  0  0  0  0999 V2000
   20.2038   -8.7734   -1.4895 C   0  0  1  0  0  0  0  0  0  0  0  0
   21.0325   -9.9266   -1.3385 O   0  0  0  0  0  0  0  0  0  0  0  0
   18.7203   -9.1797   -1.3503 C   0  0  1  0  0  0  0  0  0  0  0  0
   18.5097   -9.9557   -0.1345 O   0  0  0  0  0  0  0  0  0  0  0  0
   17.7881   -7.9504   -1.2802 C   0  0  1  0  0  0  0  0  0  0  0  0
   16.5063   -8.3204   -0.6457 N   0  0  0  0  0  0  0  0  0  0  0  0
   18.3673   -6.7878   -0.4499 C   0  0  1  0  0  0  0  0  0  0  0  0
   18.1528   -7.0552    0.9502 O   0  0  0  0  0  0  0  0  0  0  0  0
   19.8570   -6.5682   -0.7036 C   0  0  2  0  0  0  0  0  0  0  0  0
   20.5795   -7.7922   -0.5233 O   0  0  0  0  0  0  0  0  0  0  0  0
   20.4292   -5.5414    0.2788 C   0  0  0  0  0  0  0  0  0  0  0  0
   21.8164   -5.3298    0.0159 O   0  0  0  0  0  0  0  0  0  0  0  0
   18.2242  -11.2687   -0.2970 C   0  0  0  0  0  0  0  0  0  0  0  0
   18.2490  -11.8921   -1.3515 O   0  0  0  0  0  0  0  0  0  0  0  0
   17.7563  -11.8676    0.9815 C   0  0  0  0  0  0  0  0  0  0  0  0
   17.4487  -13.2356    1.0241 C   0  0  0  0  0  0  0  0  0  0  0  0
   16.9893  -13.8201    2.2093 C   0  0  0  0  0  0  0  0  0  0  0  0
   16.8230  -13.0421    3.3604 C   0  0  0  0  0  0  0  0  0  0  0  0
   17.1177  -11.6754    3.3113 C   0  0  0  0  0  0  0  0  0  0  0  0
   17.5809  -11.0905    2.1315 C   0  0  0  0  0  0  0  0  0  0  0  0
   16.3414  -13.6465    4.6450 C   0  0  0  0  0  0  0  0  0  0  0  0
   15.2725   -8.1990   -1.2156 C   0  0  0  0  0  0  0  0  0  0  0  0
   15.1052   -7.9126   -2.3903 O   0  0  0  0  0  0  0  0  0  0  0  0
   14.1166   -8.4114   -0.3008 C   0  0  0  0  0  0  0  0  0  0  0  0
   14.2177   -8.1088    1.0640 C   0  0  0  0  0  0  0  0  0  0  0  0
   13.1091   -8.2505    1.8971 C   0  0  0  0  0  0  0  0  0  0  0  0
   11.8908   -8.6883    1.3797 C   0  0  0  0  0  0  0  0  0  0  0  0
   11.7876   -8.9844    0.0123 C   0  0  0  0  0  0  0  0  0  0  0  0
   12.8957   -8.8384   -0.8276 C   0  0  0  0  0  0  0  0  0  0  0  0
   10.7033   -8.8311    2.2854 C   0  0  0  0  0  0  0  0  0  0  0  0
   22.3890   -9.6431   -1.6491 C   0  0  0  0  0  0  0  0  0  0  0  0
   20.3694   -8.3583   -2.4940 H   0  0  0  0  0  0  0  0  0  0  0  0
   18.4380   -9.7789   -2.2257 H   0  0  0  0  0  0  0  0  0  0  0  0
   17.6144   -7.5853   -2.3014 H   0  0  0  0  0  0  0  0  0  0  0  0
   16.5998   -8.7624    0.2619 H   0  0  0  0  0  0  0  0  0  0  0  0
   17.8160   -5.8664   -0.6745 H   0  0  0  0  0  0  0  0  0  0  0  0
   17.1892   -7.0957    1.0612 H   0  0  0  0  0  0  0  0  0  0  0  0
   20.0297   -6.2179   -1.7292 H   0  0  0  0  0  0  0  0  0  0  0  0
   20.3404   -5.8771    1.3177 H   0  0  0  0  0  0  0  0  0  0  0  0
   19.9141   -4.5825    0.1720 H   0  0  0  0  0  0  0  0  0  0  0  0
   22.2369   -6.2021    0.1414 H   0  0  0  0  0  0  0  0  0  0  0  0
   17.5681  -13.8567    0.1373 H   0  0  0  0  0  0  0  0  0  0  0  0
   16.7664  -14.8857    2.2306 H   0  0  0  0  0  0  0  0  0  0  0  0
   16.9941  -11.0579    4.1978 H   0  0  0  0  0  0  0  0  0  0  0  0
   17.8073  -10.0287    2.1290 H   0  0  0  0  0  0  0  0  0  0  0  0
   16.1560  -14.7196    4.5388 H   0  0  0  0  0  0  0  0  0  0  0  0
   15.4068  -13.1690    4.9568 H   0  0  0  0  0  0  0  0  0  0  0  0
   17.0943  -13.5088    5.4279 H   0  0  0  0  0  0  0  0  0  0  0  0
   15.1314   -7.7269    1.4969 H   0  0  0  0  0  0  0  0  0  0  0  0
   13.2056   -7.9985    2.9511 H   0  0  0  0  0  0  0  0  0  0  0  0
   10.8420   -9.3209   -0.4072 H   0  0  0  0  0  0  0  0  0  0  0  0
   12.8021   -9.0534   -1.8907 H   0  0  0  0  0  0  0  0  0  0  0  0
   10.9611   -8.5556    3.3139 H   0  0  0  0  0  0  0  0  0  0  0  0
   10.3580   -9.8691    2.2932 H   0  0  0  0  0  0  0  0  0  0  0  0
    9.8930   -8.1739    1.9569 H   0  0  0  0  0  0  0  0  0  0  0  0
   22.9800  -10.5455   -1.4753 H   0  0  0  0  0  0  0  0  0  0  0  0
   22.7844   -8.8450   -1.0125 H   0  0  0  0  0  0  0  0  0  0  0  0
   22.4783   -9.3609   -2.7018 H   0  0  0  0  0  0  0  0  0  0  0  0
  1  2  1  0  0  0  0
  1  3  1  0  0  0  0
  1 10  1  0  0  0  0
  1 32  1  6  0  0  0
  2 31  1  0  0  0  0
  3  4  1  0  0  0  0
  3  5  1  0  0  0  0
  3 33  1  6  0  0  0
  4 13  1  0  0  0  0
  5  6  1  0  0  0  0
  5  7  1  0  0  0  0
  5 34  1  6  0  0  0
  6 22  1  0  0  0  0
  6 35  1  0  0  0  0
  7  8  1  0  0  0  0
  7  9  1  0  0  0  0
  7 36  1  6  0  0  0
  8 37  1  0  0  0  0
  9 10  1  0  0  0  0
  9 11  1  0  0  0  0
  9 38  1  6  0  0  0
 11 12  1  0  0  0  0
 11 39  1  0  0  0  0
 11 40  1  0  0  0  0
 12 41  1  0  0  0  0
 13 14  2  0  0  0  0
 13 15  1  0  0  0  0
 15 16  2  0  0  0  0
 15 20  1  0  0  0  0
 16 17  1  0  0  0  0
 16 42  1  0  0  0  0
 17 18  2  0  0  0  0
 17 43  1  0  0  0  0
 18 19  1  0  0  0  0
 18 21  1  0  0  0  0
 19 20  2  0  0  0  0
 19 44  1  0  0  0  0
 20 45  1  0  0  0  0
 21 46  1  0  0  0  0
 21 47  1  0  0  0  0
 21 48  1  0  0  0  0
 22 23  2  0  0  0  0
 22 24  1  0  0  0  0
 24 25  2  0  0  0  0
 24 29  1  0  0  0  0
 25 26  1  0  0  0  0
 25 49  1  0  0  0  0
 26 27  2  0  0  0  0
 26 50  1  0  0  0  0
 27 28  1  0  0  0  0
 27 30  1  0  0  0  0
 28 29  2  0  0  0  0
 28 51  1  0  0  0  0
 29 52  1  0  0  0  0
 30 53  1  0  0  0  0
 30 54  1  0  0  0  0
 30 55  1  0  0  0  0
 31 56  1  0  0  0  0
 31 57  1  0  0  0  0
 31 58  1  0  0  0  0
M  END
$$$$
