DR7
 OpenBabel04091911443D

103105  0  0  1  0  0  0  0  0999 V2000
   19.2995   -7.7905   12.8482 C   0  0  0  0  0  0  0  0  0  0  0  0
   18.9965   -7.0809   14.0564 O   0  0  0  0  0  0  0  0  0  0  0  0
   18.5309   -5.8142   13.8978 C   0  0  0  0  0  0  0  0  0  0  0  0
   18.2935   -5.2829   12.8181 O   0  0  0  0  0  0  0  0  0  0  0  0
   18.3558   -5.2224   15.1075 N   0  0  0  0  0  0  0  0  0  0  0  0
   17.8121   -3.8801   15.2867 C   0  0  1  0  0  0  0  0  0  0  0  0
   16.3720   -3.9172   15.8482 C   0  0  0  0  0  0  0  0  0  0  0  0
   15.8813   -2.4907   16.1417 C   0  0  0  0  0  0  0  0  0  0  0  0
   16.2259   -4.7690   17.1168 C   0  0  0  0  0  0  0  0  0  0  0  0
   15.4840   -4.5403   14.7647 C   0  0  0  0  0  0  0  0  0  0  0  0
   18.7734   -3.0867   16.1785 C   0  0  0  0  0  0  0  0  0  0  0  0
   18.8419   -3.2258   17.3957 O   0  0  0  0  0  0  0  0  0  0  0  0
   19.5832   -2.2373   15.4664 N   0  0  0  0  0  0  0  0  0  0  0  0
   20.6770   -1.4996   16.0852 C   0  0  1  0  0  0  0  0  0  0  0  0
   22.0116   -1.9804   15.4980 C   0  0  0  0  0  0  0  0  0  0  0  0
   22.1874   -3.4708   15.6409 C   0  0  0  0  0  0  0  0  0  0  0  0
   22.0560   -4.3150   14.5311 C   0  0  0  0  0  0  0  0  0  0  0  0
   22.1723   -5.6945   14.6868 C   0  0  0  0  0  0  0  0  0  0  0  0
   22.4049   -6.2370   15.9497 C   0  0  0  0  0  0  0  0  0  0  0  0
   22.5347   -5.4012   17.0574 C   0  0  0  0  0  0  0  0  0  0  0  0
   22.4220   -4.0232   16.9049 C   0  0  0  0  0  0  0  0  0  0  0  0
   20.4986    0.0107   15.8287 C   0  0  1  0  0  0  0  0  0  0  0  0
   20.2923    0.2740   14.4359 O   0  0  0  0  0  0  0  0  0  0  0  0
   19.3292    0.5918   16.6297 C   0  0  0  0  0  0  0  0  0  0  0  0
   19.6646    0.5406   18.0386 N   0  0  0  0  0  0  0  0  0  0  0  0
   20.7029    1.4042   18.3676 N   0  0  0  0  0  0  0  0  0  0  0  0
   21.5314    1.0979   19.4268 C   0  0  0  0  0  0  0  0  0  0  0  0
   21.4032    0.1239   20.1624 O   0  0  0  0  0  0  0  0  0  0  0  0
   22.5643    2.1952   19.6431 C   0  0  2  0  0  0  0  0  0  0  0  0
   23.9939    1.6185   19.8026 C   0  0  0  0  0  0  0  0  0  0  0  0
   24.9627    2.8044   19.7983 C   0  0  0  0  0  0  0  0  0  0  0  0
   24.3093    0.7077   18.6022 C   0  0  0  0  0  0  0  0  0  0  0  0
   24.1937    0.8475   21.1133 C   0  0  0  0  0  0  0  0  0  0  0  0
   22.1219    2.9441   20.7896 N   0  0  0  0  0  0  0  0  0  0  0  0
   21.9553    4.2860   20.8161 C   0  0  0  0  0  0  0  0  0  0  0  0
   22.1620    5.0293   19.8576 O   0  0  0  0  0  0  0  0  0  0  0  0
   21.5374    4.6872   22.0399 O   0  0  0  0  0  0  0  0  0  0  0  0
   21.2531    6.0849   22.1283 C   0  0  0  0  0  0  0  0  0  0  0  0
   18.4933    0.6083   18.9098 C   0  0  0  0  0  0  0  0  0  0  0  0
   18.2687    1.9113   19.5922 C   0  0  0  0  0  0  0  0  0  0  0  0
   18.2915    1.9212   20.9853 C   0  0  0  0  0  0  0  0  0  0  0  0
   18.0431    3.0963   21.6573 C   0  0  0  0  0  0  0  0  0  0  0  0
   18.0130    3.0818   18.8785 C   0  0  0  0  0  0  0  0  0  0  0  0
   17.7707    4.2548   19.5614 C   0  0  0  0  0  0  0  0  0  0  0  0
   17.7739    4.2848   20.9588 C   0  0  0  0  0  0  0  0  0  0  0  0
   17.4921    5.5055   21.6975 C   0  0  0  0  0  0  0  0  0  0  0  0
   18.0079    5.6680   22.9775 C   0  0  0  0  0  0  0  0  0  0  0  0
   17.6956    6.8291   23.6851 C   0  0  0  0  0  0  0  0  0  0  0  0
   16.8574    7.7565   23.0926 C   0  0  0  0  0  0  0  0  0  0  0  0
   16.3902    7.5253   21.8141 C   0  0  0  0  0  0  0  0  0  0  0  0
   16.7006    6.4258   21.1003 N   0  0  0  0  0  0  0  0  0  0  0  0
   19.6739   -8.7838   13.1191 H   0  0  0  0  0  0  0  0  0  0  0  0
   20.0881   -7.2782   12.2875 H   0  0  0  0  0  0  0  0  0  0  0  0
   18.4079   -7.9232   12.2262 H   0  0  0  0  0  0  0  0  0  0  0  0
   18.5755   -5.7600   15.9348 H   0  0  0  0  0  0  0  0  0  0  0  0
   17.7757   -3.3733   14.3113 H   0  0  0  0  0  0  0  0  0  0  0  0
   14.8605   -2.5018   16.5366 H   0  0  0  0  0  0  0  0  0  0  0  0
   15.8917   -1.8824   15.2314 H   0  0  0  0  0  0  0  0  0  0  0  0
   16.5108   -1.9910   16.8862 H   0  0  0  0  0  0  0  0  0  0  0  0
   16.5588   -5.7973   16.9453 H   0  0  0  0  0  0  0  0  0  0  0  0
   15.1762   -4.8160   17.4254 H   0  0  0  0  0  0  0  0  0  0  0  0
   16.7936   -4.3606   17.9562 H   0  0  0  0  0  0  0  0  0  0  0  0
   15.5622   -3.9730   13.8312 H   0  0  0  0  0  0  0  0  0  0  0  0
   14.4375   -4.5630   15.0766 H   0  0  0  0  0  0  0  0  0  0  0  0
   15.7933   -5.5711   14.5602 H   0  0  0  0  0  0  0  0  0  0  0  0
   19.5477   -2.2309   14.4538 H   0  0  0  0  0  0  0  0  0  0  0  0
   20.6826   -1.6948   17.1656 H   0  0  0  0  0  0  0  0  0  0  0  0
   22.8462   -1.4785   16.0032 H   0  0  0  0  0  0  0  0  0  0  0  0
   22.0704   -1.7075   14.4380 H   0  0  0  0  0  0  0  0  0  0  0  0
   21.8489   -3.9015   13.5464 H   0  0  0  0  0  0  0  0  0  0  0  0
   22.0780   -6.3472   13.8240 H   0  0  0  0  0  0  0  0  0  0  0  0
   22.4859   -7.3125   16.0736 H   0  0  0  0  0  0  0  0  0  0  0  0
   22.7225   -5.8195   18.0419 H   0  0  0  0  0  0  0  0  0  0  0  0
   22.4977   -3.3766   17.7767 H   0  0  0  0  0  0  0  0  0  0  0  0
   21.4264    0.5228   16.1116 H   0  0  0  0  0  0  0  0  0  0  0  0
   20.1653    1.2350   14.3482 H   0  0  0  0  0  0  0  0  0  0  0  0
   18.4218    0.0107   16.4286 H   0  0  0  0  0  0  0  0  0  0  0  0
   19.1158    1.6180   16.3142 H   0  0  0  0  0  0  0  0  0  0  0  0
   20.8041    2.2891   17.8771 H   0  0  0  0  0  0  0  0  0  0  0  0
   22.5773    2.8474   18.7593 H   0  0  0  0  0  0  0  0  0  0  0  0
   25.9961    2.4714   19.9243 H   0  0  0  0  0  0  0  0  0  0  0  0
   24.7286    3.4916   20.6181 H   0  0  0  0  0  0  0  0  0  0  0  0
   24.8858    3.3612   18.8583 H   0  0  0  0  0  0  0  0  0  0  0  0
   23.6506   -0.1680   18.5758 H   0  0  0  0  0  0  0  0  0  0  0  0
   25.3398    0.3437   18.6387 H   0  0  0  0  0  0  0  0  0  0  0  0
   24.1708    1.2526   17.6609 H   0  0  0  0  0  0  0  0  0  0  0  0
   23.9850    1.4865   21.9775 H   0  0  0  0  0  0  0  0  0  0  0  0
   25.2282    0.5010   21.2054 H   0  0  0  0  0  0  0  0  0  0  0  0
   23.5501   -0.0328   21.1795 H   0  0  0  0  0  0  0  0  0  0  0  0
   21.8923    2.4319   21.6387 H   0  0  0  0  0  0  0  0  0  0  0  0
   20.9326    6.3042   23.1560 H   0  0  0  0  0  0  0  0  0  0  0  0
   20.4383    6.3446   21.4490 H   0  0  0  0  0  0  0  0  0  0  0  0
   22.1405    6.6869   21.9143 H   0  0  0  0  0  0  0  0  0  0  0  0
   18.6147   -0.1643   19.6733 H   0  0  0  0  0  0  0  0  0  0  0  0
   17.5739    0.3645   18.3684 H   0  0  0  0  0  0  0  0  0  0  0  0
   18.4856    1.0115   21.5447 H   0  0  0  0  0  0  0  0  0  0  0  0
   18.0368    3.0596   22.7414 H   0  0  0  0  0  0  0  0  0  0  0  0
   17.9980    3.0878   17.7980 H   0  0  0  0  0  0  0  0  0  0  0  0
   17.5639    5.1597   18.9851 H   0  0  0  0  0  0  0  0  0  0  0  0
   18.6550    4.9339   23.4343 H   0  0  0  0  0  0  0  0  0  0  0  0
   18.0669    6.9487   24.6800 H   0  0  0  0  0  0  0  0  0  0  0  0
   16.5749    8.6551   23.6307 H   0  0  0  0  0  0  0  0  0  0  0  0
   15.7311    8.2340   21.3218 H   0  0  0  0  0  0  0  0  0  0  0  0
  1  2  1  0  0  0  0
  1 52  1  0  0  0  0
  1 53  1  0  0  0  0
  1 54  1  0  0  0  0
  2  3  1  0  0  0  0
  3  4  2  0  0  0  0
  3  5  1  0  0  0  0
  5  6  1  0  0  0  0
  5 55  1  0  0  0  0
  6  7  1  0  0  0  0
  6 11  1  0  0  0  0
  6 56  1  6  0  0  0
  7  8  1  0  0  0  0
  7  9  1  0  0  0  0
  7 10  1  0  0  0  0
  8 57  1  0  0  0  0
  8 58  1  0  0  0  0
  8 59  1  0  0  0  0
  9 60  1  0  0  0  0
  9 61  1  0  0  0  0
  9 62  1  0  0  0  0
 10 63  1  0  0  0  0
 10 64  1  0  0  0  0
 10 65  1  0  0  0  0
 11 12  2  0  0  0  0
 11 13  1  0  0  0  0
 13 14  1  0  0  0  0
 13 66  1  0  0  0  0
 14 15  1  0  0  0  0
 14 22  1  0  0  0  0
 14 67  1  1  0  0  0
 15 16  1  0  0  0  0
 15 68  1  0  0  0  0
 15 69  1  0  0  0  0
 16 17  2  0  0  0  0
 16 21  1  0  0  0  0
 17 18  1  0  0  0  0
 17 70  1  0  0  0  0
 18 19  2  0  0  0  0
 18 71  1  0  0  0  0
 19 20  1  0  0  0  0
 19 72  1  0  0  0  0
 20 21  2  0  0  0  0
 20 73  1  0  0  0  0
 21 74  1  0  0  0  0
 22 23  1  0  0  0  0
 22 24  1  0  0  0  0
 22 75  1  1  0  0  0
 23 76  1  0  0  0  0
 24 25  1  0  0  0  0
 24 77  1  0  0  0  0
 24 78  1  0  0  0  0
 25 26  1  0  0  0  0
 25 39  1  0  0  0  0
 26 27  1  0  0  0  0
 26 79  1  0  0  0  0
 27 28  2  0  0  0  0
 27 29  1  0  0  0  0
 29 30  1  0  0  0  0
 29 34  1  0  0  0  0
 29 80  1  6  0  0  0
 30 31  1  0  0  0  0
 30 32  1  0  0  0  0
 30 33  1  0  0  0  0
 31 81  1  0  0  0  0
 31 82  1  0  0  0  0
 31 83  1  0  0  0  0
 32 84  1  0  0  0  0
 32 85  1  0  0  0  0
 32 86  1  0  0  0  0
 33 87  1  0  0  0  0
 33 88  1  0  0  0  0
 33 89  1  0  0  0  0
 34 35  1  0  0  0  0
 34 90  1  0  0  0  0
 35 36  2  0  0  0  0
 35 37  1  0  0  0  0
 37 38  1  0  0  0  0
 38 91  1  0  0  0  0
 38 92  1  0  0  0  0
 38 93  1  0  0  0  0
 39 40  1  0  0  0  0
 39 94  1  0  0  0  0
 39 95  1  0  0  0  0
 40 41  2  0  0  0  0
 40 43  1  0  0  0  0
 41 42  1  0  0  0  0
 41 96  1  0  0  0  0
 42 45  2  0  0  0  0
 42 97  1  0  0  0  0
 43 44  2  0  0  0  0
 43 98  1  0  0  0  0
 44 45  1  0  0  0  0
 44 99  1  0  0  0  0
 45 46  1  0  0  0  0
 46 47  2  0  0  0  0
 46 51  1  0  0  0  0
 47 48  1  0  0  0  0
 47100  1  0  0  0  0
 48 49  2  0  0  0  0
 48101  1  0  0  0  0
 49 50  1  0  0  0  0
 49102  1  0  0  0  0
 50 51  2  0  0  0  0
 50103  1  0  0  0  0
M  END
$$$$
