DR7
 OpenBabel04091911443D

103105  0  0  1  0  0  0  0  0999 V2000
   21.4945   24.0971    9.0270 C   0  0  0  0  0  0  0  0  0  0  0  0
   21.3024   25.4810    9.3094 O   0  0  0  0  0  0  0  0  0  0  0  0
   21.7510   25.8634   10.5340 C   0  0  0  0  0  0  0  0  0  0  0  0
   22.0209   25.0854   11.4500 O   0  0  0  0  0  0  0  0  0  0  0  0
   21.9304   27.2113   10.5639 N   0  0  0  0  0  0  0  0  0  0  0  0
   22.4151   27.8834   11.7616 C   0  0  1  0  0  0  0  0  0  0  0  0
   23.9280   28.2515   11.7631 C   0  0  0  0  0  0  0  0  0  0  0  0
   24.3729   29.1936   10.6372 C   0  0  0  0  0  0  0  0  0  0  0  0
   24.7183   26.9340   11.6479 C   0  0  0  0  0  0  0  0  0  0  0  0
   24.2807   28.9089   13.1151 C   0  0  0  0  0  0  0  0  0  0  0  0
   21.4577   29.0110   12.1894 C   0  0  0  0  0  0  0  0  0  0  0  0
   21.3003   30.0555   11.5686 O   0  0  0  0  0  0  0  0  0  0  0  0
   20.8265   28.6914   13.3767 N   0  0  0  0  0  0  0  0  0  0  0  0
   19.6799   29.3984   13.9331 C   0  0  1  0  0  0  0  0  0  0  0  0
   18.4250   28.5030   13.7830 C   0  0  0  0  0  0  0  0  0  0  0  0
   18.1151   28.1647   12.3459 C   0  0  0  0  0  0  0  0  0  0  0  0
   18.5082   26.9355   11.7957 C   0  0  0  0  0  0  0  0  0  0  0  0
   18.2709   26.6563   10.4509 C   0  0  0  0  0  0  0  0  0  0  0  0
   17.6414   27.6022    9.6451 C   0  0  0  0  0  0  0  0  0  0  0  0
   17.2472   28.8245   10.1786 C   0  0  0  0  0  0  0  0  0  0  0  0
   17.4833   29.1089   11.5273 C   0  0  0  0  0  0  0  0  0  0  0  0
   19.9413   29.6757   15.4288 C   0  0  1  0  0  0  0  0  0  0  0  0
   20.1592   28.4309   16.1258 O   0  0  0  0  0  0  0  0  0  0  0  0
   21.1714   30.5699   15.6654 C   0  0  0  0  0  0  0  0  0  0  0  0
   20.9990   31.9711   15.2726 N   0  0  0  0  0  0  0  0  0  0  0  0
   19.9633   32.5715   16.0195 N   0  0  0  0  0  0  0  0  0  0  0  0
   18.9501   33.2503   15.3512 C   0  0  0  0  0  0  0  0  0  0  0  0
   18.8771   33.3421   14.1282 O   0  0  0  0  0  0  0  0  0  0  0  0
   17.9734   33.9571   16.3183 C   0  0  2  0  0  0  0  0  0  0  0  0
   16.5034   34.0122   15.8015 C   0  0  0  0  0  0  0  0  0  0  0  0
   16.3434   34.9172   14.5655 C   0  0  0  0  0  0  0  0  0  0  0  0
   16.0071   32.5910   15.4580 C   0  0  0  0  0  0  0  0  0  0  0  0
   15.5943   34.5697   16.9184 C   0  0  0  0  0  0  0  0  0  0  0  0
   18.5204   35.2851   16.5796 N   0  0  0  0  0  0  0  0  0  0  0  0
   18.6340   35.8336   17.8180 C   0  0  0  0  0  0  0  0  0  0  0  0
   18.3205   35.2810   18.8613 O   0  0  0  0  0  0  0  0  0  0  0  0
   19.1664   37.0733   17.7134 O   0  0  0  0  0  0  0  0  0  0  0  0
   19.5153   37.6772   18.9621 C   0  0  0  0  0  0  0  0  0  0  0  0
   22.3075   32.6560   15.3673 C   0  0  0  0  0  0  0  0  0  0  0  0
   22.2648   34.1098   15.7675 C   0  0  0  0  0  0  0  0  0  0  0  0
   22.1821   35.1121   14.8006 C   0  0  0  0  0  0  0  0  0  0  0  0
   22.1628   36.4534   15.1882 C   0  0  0  0  0  0  0  0  0  0  0  0
   22.3034   34.4626   17.1238 C   0  0  0  0  0  0  0  0  0  0  0  0
   22.2795   35.7997   17.4981 C   0  0  0  0  0  0  0  0  0  0  0  0
   22.2173   36.8287   16.5447 C   0  0  0  0  0  0  0  0  0  0  0  0
   22.1754   38.2374   16.9526 C   0  0  0  0  0  0  0  0  0  0  0  0
   21.4013   39.1930   16.2911 C   0  0  0  0  0  0  0  0  0  0  0  0
   21.3991   40.5090   16.7422 C   0  0  0  0  0  0  0  0  0  0  0  0
   22.1729   40.8470   17.8417 C   0  0  0  0  0  0  0  0  0  0  0  0
   22.9037   39.8492   18.4588 C   0  0  0  0  0  0  0  0  0  0  0  0
   22.9150   38.5616   18.0522 N   0  0  0  0  0  0  0  0  0  0  0  0
   20.9474   23.8587    8.1132 H   0  0  0  0  0  0  0  0  0  0  0  0
   21.1389   23.4367    9.8268 H   0  0  0  0  0  0  0  0  0  0  0  0
   22.5613   23.9293    8.8436 H   0  0  0  0  0  0  0  0  0  0  0  0
   21.5976   27.7410    9.7693 H   0  0  0  0  0  0  0  0  0  0  0  0
   22.3302   27.1336   12.5531 H   0  0  0  0  0  0  0  0  0  0  0  0
   25.4574   29.3655   10.6964 H   0  0  0  0  0  0  0  0  0  0  0  0
   23.8945   30.1763   10.7067 H   0  0  0  0  0  0  0  0  0  0  0  0
   24.1680   28.7799    9.6447 H   0  0  0  0  0  0  0  0  0  0  0  0
   24.4126   26.2276   12.4337 H   0  0  0  0  0  0  0  0  0  0  0  0
   25.7963   27.1008   11.7612 H   0  0  0  0  0  0  0  0  0  0  0  0
   24.5584   26.4504   10.6837 H   0  0  0  0  0  0  0  0  0  0  0  0
   23.8001   29.8901   13.2239 H   0  0  0  0  0  0  0  0  0  0  0  0
   25.3589   29.0644   13.2128 H   0  0  0  0  0  0  0  0  0  0  0  0
   23.9551   28.2844   13.9538 H   0  0  0  0  0  0  0  0  0  0  0  0
   20.9951   27.7824   13.7927 H   0  0  0  0  0  0  0  0  0  0  0  0
   19.5337   30.3384   13.3879 H   0  0  0  0  0  0  0  0  0  0  0  0
   17.5558   28.9963   14.2314 H   0  0  0  0  0  0  0  0  0  0  0  0
   18.5561   27.5639   14.3387 H   0  0  0  0  0  0  0  0  0  0  0  0
   19.0298   26.1991   12.4052 H   0  0  0  0  0  0  0  0  0  0  0  0
   18.5918   25.7085   10.0285 H   0  0  0  0  0  0  0  0  0  0  0  0
   17.4673   27.3892    8.5942 H   0  0  0  0  0  0  0  0  0  0  0  0
   16.7687   29.5672    9.5523 H   0  0  0  0  0  0  0  0  0  0  0  0
   17.1972   30.0777   11.9279 H   0  0  0  0  0  0  0  0  0  0  0  0
   19.0466   30.1248   15.8744 H   0  0  0  0  0  0  0  0  0  0  0  0
   20.3162   28.6497   17.0615 H   0  0  0  0  0  0  0  0  0  0  0  0
   22.0323   30.1377   15.1391 H   0  0  0  0  0  0  0  0  0  0  0  0
   21.4364   30.5260   16.7309 H   0  0  0  0  0  0  0  0  0  0  0  0
   20.0719   32.6992   17.0225 H   0  0  0  0  0  0  0  0  0  0  0  0
   17.9789   33.3903   17.2597 H   0  0  0  0  0  0  0  0  0  0  0  0
   15.2975   34.9540   14.2417 H   0  0  0  0  0  0  0  0  0  0  0  0
   16.9219   34.5625   13.7094 H   0  0  0  0  0  0  0  0  0  0  0  0
   16.6576   35.9445   14.7778 H   0  0  0  0  0  0  0  0  0  0  0  0
   16.0952   31.9206   16.3208 H   0  0  0  0  0  0  0  0  0  0  0  0
   16.5717   32.1457   14.6323 H   0  0  0  0  0  0  0  0  0  0  0  0
   14.9537   32.6049   15.1551 H   0  0  0  0  0  0  0  0  0  0  0  0
   15.8809   35.5884   17.1996 H   0  0  0  0  0  0  0  0  0  0  0  0
   15.6428   33.9461   17.8180 H   0  0  0  0  0  0  0  0  0  0  0  0
   14.5480   34.6082   16.5945 H   0  0  0  0  0  0  0  0  0  0  0  0
   18.8863   35.8296   15.8082 H   0  0  0  0  0  0  0  0  0  0  0  0
   19.9084   38.6764   18.7624 H   0  0  0  0  0  0  0  0  0  0  0  0
   20.2981   37.0949   19.4578 H   0  0  0  0  0  0  0  0  0  0  0  0
   18.6423   37.7845   19.6102 H   0  0  0  0  0  0  0  0  0  0  0  0
   22.8203   32.5590   14.4021 H   0  0  0  0  0  0  0  0  0  0  0  0
   22.9597   32.1496   16.0937 H   0  0  0  0  0  0  0  0  0  0  0  0
   22.1342   34.8521   13.7465 H   0  0  0  0  0  0  0  0  0  0  0  0
   22.1278   37.2162   14.4104 H   0  0  0  0  0  0  0  0  0  0  0  0
   22.3455   33.6916   17.8934 H   0  0  0  0  0  0  0  0  0  0  0  0
   22.3075   36.0481   18.5639 H   0  0  0  0  0  0  0  0  0  0  0  0
   20.7696   38.9117   15.4542 H   0  0  0  0  0  0  0  0  0  0  0  0
   20.7910   41.2578   16.2409 H   0  0  0  0  0  0  0  0  0  0  0  0
   22.2012   41.8673   18.2136 H   0  0  0  0  0  0  0  0  0  0  0  0
   23.5188   40.0588   19.3266 H   0  0  0  0  0  0  0  0  0  0  0  0
  1  2  1  0  0  0  0
  1 52  1  0  0  0  0
  1 53  1  0  0  0  0
  1 54  1  0  0  0  0
  2  3  1  0  0  0  0
  3  4  2  0  0  0  0
  3  5  1  0  0  0  0
  5  6  1  0  0  0  0
  5 55  1  0  0  0  0
  6  7  1  0  0  0  0
  6 11  1  0  0  0  0
  6 56  1  1  0  0  0
  7  8  1  0  0  0  0
  7  9  1  0  0  0  0
  7 10  1  0  0  0  0
  8 57  1  0  0  0  0
  8 58  1  0  0  0  0
  8 59  1  0  0  0  0
  9 60  1  0  0  0  0
  9 61  1  0  0  0  0
  9 62  1  0  0  0  0
 10 63  1  0  0  0  0
 10 64  1  0  0  0  0
 10 65  1  0  0  0  0
 11 12  2  0  0  0  0
 11 13  1  0  0  0  0
 13 14  1  0  0  0  0
 13 66  1  0  0  0  0
 14 15  1  0  0  0  0
 14 22  1  0  0  0  0
 14 67  1  6  0  0  0
 15 16  1  0  0  0  0
 15 68  1  0  0  0  0
 15 69  1  0  0  0  0
 16 17  2  0  0  0  0
 16 21  1  0  0  0  0
 17 18  1  0  0  0  0
 17 70  1  0  0  0  0
 18 19  2  0  0  0  0
 18 71  1  0  0  0  0
 19 20  1  0  0  0  0
 19 72  1  0  0  0  0
 20 21  2  0  0  0  0
 20 73  1  0  0  0  0
 21 74  1  0  0  0  0
 22 23  1  0  0  0  0
 22 24  1  0  0  0  0
 22 75  1  1  0  0  0
 23 76  1  0  0  0  0
 24 25  1  0  0  0  0
 24 77  1  0  0  0  0
 24 78  1  0  0  0  0
 25 26  1  0  0  0  0
 25 39  1  0  0  0  0
 26 27  1  0  0  0  0
 26 79  1  0  0  0  0
 27 28  2  0  0  0  0
 27 29  1  0  0  0  0
 29 30  1  0  0  0  0
 29 34  1  0  0  0  0
 29 80  1  1  0  0  0
 30 31  1  0  0  0  0
 30 32  1  0  0  0  0
 30 33  1  0  0  0  0
 31 81  1  0  0  0  0
 31 82  1  0  0  0  0
 31 83  1  0  0  0  0
 32 84  1  0  0  0  0
 32 85  1  0  0  0  0
 32 86  1  0  0  0  0
 33 87  1  0  0  0  0
 33 88  1  0  0  0  0
 33 89  1  0  0  0  0
 34 35  1  0  0  0  0
 34 90  1  0  0  0  0
 35 36  2  0  0  0  0
 35 37  1  0  0  0  0
 37 38  1  0  0  0  0
 38 91  1  0  0  0  0
 38 92  1  0  0  0  0
 38 93  1  0  0  0  0
 39 40  1  0  0  0  0
 39 94  1  0  0  0  0
 39 95  1  0  0  0  0
 40 41  2  0  0  0  0
 40 43  1  0  0  0  0
 41 42  1  0  0  0  0
 41 96  1  0  0  0  0
 42 45  2  0  0  0  0
 42 97  1  0  0  0  0
 43 44  2  0  0  0  0
 43 98  1  0  0  0  0
 44 45  1  0  0  0  0
 44 99  1  0  0  0  0
 45 46  1  0  0  0  0
 46 47  2  0  0  0  0
 46 51  1  0  0  0  0
 47 48  1  0  0  0  0
 47100  1  0  0  0  0
 48 49  2  0  0  0  0
 48101  1  0  0  0  0
 49 50  1  0  0  0  0
 49102  1  0  0  0  0
 50 51  2  0  0  0  0
 50103  1  0  0  0  0
M  END
$$$$
