DT7
 OpenBabel04091913093D

 34 35  0  0  0  0  0  0  0  0999 V2000
   -4.0555    7.2286   11.1308 C   0  0  0  0  0  0  0  0  0  0  0  0
   -0.2642    4.3627   12.5296 C   0  0  0  0  0  0  0  0  0  0  0  0
   -5.2687   -0.3588   16.1090 N   0  0  0  0  0  0  0  0  0  0  0  0
   -5.2240    1.1701   18.0887 O   0  0  0  0  0  0  0  0  0  0  0  0
   -7.3102    0.8810   16.7268 O   0  0  0  0  0  0  0  0  0  0  0  0
   -4.6890    5.5236   13.2676 C   0  0  0  0  0  0  0  0  0  0  0  0
   -2.5736    3.8882   13.9927 C   0  0  0  0  0  0  0  0  0  0  0  0
   -6.3224    3.9890   14.2846 C   0  0  0  0  0  0  0  0  0  0  0  0
   -6.4346    3.2206   15.5725 C   0  0  0  0  0  0  0  0  0  0  0  0
   -3.1695    7.0685   12.2398 O   0  0  0  0  0  0  0  0  0  0  0  0
   -1.0629    5.4650   12.9505 O   0  0  0  0  0  0  0  0  0  0  0  0
   -4.9138    4.3373   13.9659 C   0  0  0  0  0  0  0  0  0  0  0  0
   -3.4052    5.9060   12.9234 C   0  0  0  0  0  0  0  0  0  0  0  0
   -2.3348    5.0792   13.2926 C   0  0  0  0  0  0  0  0  0  0  0  0
   -3.8661    3.4921   14.3417 C   0  0  0  0  0  0  0  0  0  0  0  0
   -4.1383    2.2045   15.0786 C   0  0  0  0  0  0  0  0  0  0  0  0
   -5.3577    2.2546   15.8708 N   0  0  0  0  0  0  0  0  0  0  0  0
   -5.8460    1.0061   16.8447 S   0  0  0  0  0  0  0  0  0  0  0  0
   -3.8315    8.1708   10.6236 H   0  0  0  0  0  0  0  0  0  0  0  0
   -5.0985    7.2729   11.4498 H   0  0  0  0  0  0  0  0  0  0  0  0
   -3.9209    6.4059   10.4221 H   0  0  0  0  0  0  0  0  0  0  0  0
    0.7353    4.7226   12.2805 H   0  0  0  0  0  0  0  0  0  0  0  0
   -0.7071    3.8917   11.6468 H   0  0  0  0  0  0  0  0  0  0  0  0
   -0.1450    3.6218   13.3232 H   0  0  0  0  0  0  0  0  0  0  0  0
   -4.2919   -0.5663   16.1705 H   0  0  0  0  0  0  0  0  0  0  0  0
   -5.9446   -1.0986   15.8579 H   0  0  0  0  0  0  0  0  0  0  0  0
   -5.5465    6.1449   13.0134 H   0  0  0  0  0  0  0  0  0  0  0  0
   -1.7461    3.2522   14.2879 H   0  0  0  0  0  0  0  0  0  0  0  0
   -6.9073    4.9188   14.3801 H   0  0  0  0  0  0  0  0  0  0  0  0
   -6.7499    3.4156   13.4555 H   0  0  0  0  0  0  0  0  0  0  0  0
   -7.3621    2.6612   15.4793 H   0  0  0  0  0  0  0  0  0  0  0  0
   -6.5513    3.9316   16.3975 H   0  0  0  0  0  0  0  0  0  0  0  0
   -3.2596    1.9415   15.6986 H   0  0  0  0  0  0  0  0  0  0  0  0
   -4.2579    1.3927   14.3448 H   0  0  0  0  0  0  0  0  0  0  0  0
  1 10  1  0  0  0  0
  1 19  1  0  0  0  0
  1 20  1  0  0  0  0
  1 21  1  0  0  0  0
  2 11  1  0  0  0  0
  2 22  1  0  0  0  0
  2 23  1  0  0  0  0
  2 24  1  0  0  0  0
  3 18  1  0  0  0  0
  3 25  1  0  0  0  0
  3 26  1  0  0  0  0
  4 18  2  0  0  0  0
  5 18  2  0  0  0  0
  6 12  2  0  0  0  0
  6 13  1  0  0  0  0
  6 27  1  0  0  0  0
  7 14  1  0  0  0  0
  7 15  2  0  0  0  0
  7 28  1  0  0  0  0
  8  9  1  0  0  0  0
  8 12  1  0  0  0  0
  8 29  1  0  0  0  0
  8 30  1  0  0  0  0
  9 17  1  0  0  0  0
  9 31  1  0  0  0  0
  9 32  1  0  0  0  0
 10 13  1  0  0  0  0
 11 14  1  0  0  0  0
 12 15  1  0  0  0  0
 13 14  2  0  0  0  0
 15 16  1  0  0  0  0
 16 17  1  0  0  0  0
 16 33  1  0  0  0  0
 16 34  1  0  0  0  0
 17 18  1  0  0  0  0
M  END
$$$$
