DT9
 OpenBabel04091914413D

 37 38  0  0  1  0  0  0  0  0999 V2000
   -3.4624    4.7493    9.5260 C   0  0  0  0  0  0  0  0  0  0  0  0
   -7.3139    7.2073   12.0639 C   0  0  0  0  0  0  0  0  0  0  0  0
   -5.6007    4.1855   16.1148 C   0  0  0  0  0  0  0  0  0  0  0  0
   -5.4382   -0.5496   16.2323 N   0  0  0  0  0  0  0  0  0  0  0  0
   -5.0620    1.4230   17.7801 O   0  0  0  0  0  0  0  0  0  0  0  0
   -7.3774    1.0221   16.8106 O   0  0  0  0  0  0  0  0  0  0  0  0
   -4.5951    3.2978   11.5941 C   0  0  0  0  0  0  0  0  0  0  0  0
   -6.3633    4.7915   13.1242 C   0  0  0  0  0  0  0  0  0  0  0  0
   -4.1690    1.6624   13.4044 C   0  0  0  0  0  0  0  0  0  0  0  0
   -4.1731    1.6743   14.9144 C   0  0  0  0  0  0  0  0  0  0  0  0
   -4.8611    4.8633    9.7863 O   0  0  0  0  0  0  0  0  0  0  0  0
   -6.5942    6.3234   11.2164 O   0  0  0  0  0  0  0  0  0  0  0  0
   -4.8657    2.8947   12.8922 C   0  0  0  0  0  0  0  0  0  0  0  0
   -5.1652    4.4557   11.0635 C   0  0  0  0  0  0  0  0  0  0  0  0
   -6.0642    5.2118   11.8213 C   0  0  0  0  0  0  0  0  0  0  0  0
   -5.7748    3.6310   13.6720 C   0  0  0  0  0  0  0  0  0  0  0  0
   -6.1179    3.1718   15.0983 C   0  0  1  0  0  0  0  0  0  0  0  0
   -5.5594    1.7965   15.3420 N   0  0  0  0  0  0  0  0  0  0  0  0
   -5.9537    0.9778   16.7025 S   0  0  0  0  0  0  0  0  0  0  0  0
   -3.2594    5.0825    8.5068 H   0  0  0  0  0  0  0  0  0  0  0  0
   -3.1190    3.7130    9.5805 H   0  0  0  0  0  0  0  0  0  0  0  0
   -2.8970    5.3704   10.2296 H   0  0  0  0  0  0  0  0  0  0  0  0
   -7.6924    8.0407   11.4655 H   0  0  0  0  0  0  0  0  0  0  0  0
   -6.6518    7.6126   12.8370 H   0  0  0  0  0  0  0  0  0  0  0  0
   -8.1774    6.7042   12.5109 H   0  0  0  0  0  0  0  0  0  0  0  0
   -6.0006    5.1891   15.9296 H   0  0  0  0  0  0  0  0  0  0  0  0
   -4.5094    4.2638   16.0892 H   0  0  0  0  0  0  0  0  0  0  0  0
   -5.8987    3.9020   17.1271 H   0  0  0  0  0  0  0  0  0  0  0  0
   -4.4449   -0.7532   16.1528 H   0  0  0  0  0  0  0  0  0  0  0  0
   -6.0877   -1.3187   16.1577 H   0  0  0  0  0  0  0  0  0  0  0  0
   -3.9174    2.6843   11.0155 H   0  0  0  0  0  0  0  0  0  0  0  0
   -7.0590    5.3539   13.7426 H   0  0  0  0  0  0  0  0  0  0  0  0
   -4.6753    0.7610   13.0320 H   0  0  0  0  0  0  0  0  0  0  0  0
   -3.1283    1.6312   13.0624 H   0  0  0  0  0  0  0  0  0  0  0  0
   -3.5564    2.4790   15.3337 H   0  0  0  0  0  0  0  0  0  0  0  0
   -3.7217    0.7508   15.2726 H   0  0  0  0  0  0  0  0  0  0  0  0
   -7.2116    3.1488   15.1642 H   0  0  0  0  0  0  0  0  0  0  0  0
  1 11  1  0  0  0  0
  1 20  1  0  0  0  0
  1 21  1  0  0  0  0
  1 22  1  0  0  0  0
  2 12  1  0  0  0  0
  2 23  1  0  0  0  0
  2 24  1  0  0  0  0
  2 25  1  0  0  0  0
  3 17  1  0  0  0  0
  3 26  1  0  0  0  0
  3 27  1  0  0  0  0
  3 28  1  0  0  0  0
  4 19  1  0  0  0  0
  4 29  1  0  0  0  0
  4 30  1  0  0  0  0
  5 19  2  0  0  0  0
  6 19  2  0  0  0  0
  7 13  2  0  0  0  0
  7 14  1  0  0  0  0
  7 31  1  0  0  0  0
  8 15  1  0  0  0  0
  8 16  2  0  0  0  0
  8 32  1  0  0  0  0
  9 10  1  0  0  0  0
  9 13  1  0  0  0  0
  9 33  1  0  0  0  0
  9 34  1  0  0  0  0
 10 18  1  0  0  0  0
 10 35  1  0  0  0  0
 10 36  1  0  0  0  0
 11 14  1  0  0  0  0
 12 15  1  0  0  0  0
 13 16  1  0  0  0  0
 14 15  2  0  0  0  0
 16 17  1  0  0  0  0
 17 18  1  0  0  0  0
 17 37  1  1  0  0  0
 18 19  1  0  0  0  0
M  END
$$$$
