DTB
 OpenBabel04091914593D

 32 32  0  0  1  0  0  0  0  0999 V2000
   15.4438   28.9279   -8.5154 C   0  0  0  0  0  0  0  0  0  0  0  0
   14.2572   29.0677   -8.2393 O   0  0  0  0  0  0  0  0  0  0  0  0
   15.9430   28.3803   -9.6628 N   0  0  0  0  0  0  0  0  0  0  0  0
   17.3801   28.4501   -9.7305 C   0  0  1  0  0  0  0  0  0  0  0  0
   17.7656   28.9360   -8.3101 C   0  0  1  0  0  0  0  0  0  0  0  0
   16.4943   29.2906   -7.7172 N   0  0  0  0  0  0  0  0  0  0  0  0
   18.4790   27.8910   -7.4720 C   0  0  0  0  0  0  0  0  0  0  0  0
   17.9466   27.0999  -10.1721 C   0  0  0  0  0  0  0  0  0  0  0  0
   17.5590   26.7826  -11.6164 C   0  0  0  0  0  0  0  0  0  0  0  0
   18.3231   25.5798  -12.1600 C   0  0  0  0  0  0  0  0  0  0  0  0
   17.6250   25.0064  -13.3941 C   0  0  0  0  0  0  0  0  0  0  0  0
   18.4568   23.9078  -14.0571 C   0  0  0  0  0  0  0  0  0  0  0  0
   19.7749   24.4216  -14.6535 C   0  0  0  0  0  0  0  0  0  0  0  0
   20.7945   23.7387  -14.3579 O   0  0  0  0  0  0  0  0  0  0  0  0
   19.6851   25.4648  -15.3641 O   0  0  0  0  0  0  0  0  0  0  0  0
   15.3287   27.9384  -10.3412 H   0  0  0  0  0  0  0  0  0  0  0  0
   17.6483   29.2246  -10.4566 H   0  0  0  0  0  0  0  0  0  0  0  0
   18.3750   29.8470   -8.3566 H   0  0  0  0  0  0  0  0  0  0  0  0
   16.3325   29.6893   -6.8046 H   0  0  0  0  0  0  0  0  0  0  0  0
   18.7051   28.2817   -6.4745 H   0  0  0  0  0  0  0  0  0  0  0  0
   19.4226   27.5994   -7.9415 H   0  0  0  0  0  0  0  0  0  0  0  0
   17.8538   27.0009   -7.3452 H   0  0  0  0  0  0  0  0  0  0  0  0
   17.5459   26.3082   -9.5245 H   0  0  0  0  0  0  0  0  0  0  0  0
   19.0369   27.1015  -10.0775 H   0  0  0  0  0  0  0  0  0  0  0  0
   17.7648   27.6527  -12.2512 H   0  0  0  0  0  0  0  0  0  0  0  0
   16.4826   26.5865  -11.6666 H   0  0  0  0  0  0  0  0  0  0  0  0
   18.4036   24.8024  -11.3907 H   0  0  0  0  0  0  0  0  0  0  0  0
   19.3400   25.8954  -12.4159 H   0  0  0  0  0  0  0  0  0  0  0  0
   17.4199   25.8082  -14.1114 H   0  0  0  0  0  0  0  0  0  0  0  0
   16.6563   24.5928  -13.0939 H   0  0  0  0  0  0  0  0  0  0  0  0
   17.8730   23.4624  -14.8705 H   0  0  0  0  0  0  0  0  0  0  0  0
   18.6551   23.1107  -13.3313 H   0  0  0  0  0  0  0  0  0  0  0  0
  1  2  2  0  0  0  0
  1  3  1  0  0  0  0
  1  6  1  0  0  0  0
  3  4  1  0  0  0  0
  3 16  1  0  0  0  0
  4  5  1  0  0  0  0
  4  8  1  0  0  0  0
  4 17  1  6  0  0  0
  5  6  1  0  0  0  0
  5  7  1  0  0  0  0
  5 18  1  6  0  0  0
  6 19  1  0  0  0  0
  7 20  1  0  0  0  0
  7 21  1  0  0  0  0
  7 22  1  0  0  0  0
  8  9  1  0  0  0  0
  8 23  1  0  0  0  0
  8 24  1  0  0  0  0
  9 10  1  0  0  0  0
  9 25  1  0  0  0  0
  9 26  1  0  0  0  0
 10 11  1  0  0  0  0
 10 27  1  0  0  0  0
 10 28  1  0  0  0  0
 11 12  1  0  0  0  0
 11 29  1  0  0  0  0
 11 30  1  0  0  0  0
 12 13  1  0  0  0  0
 12 31  1  0  0  0  0
 12 32  1  0  0  0  0
 13 14  2  0  0  0  0
 13 15  1  0  0  0  0
M  END
$$$$
