DU3
 OpenBabel04091915403D

 53 56  0  0  1  0  0  0  0  0999 V2000
   -5.9580   25.7912   -0.9070 N   0  3  0  0  0  0  0  0  0  0  0  0
   -5.4473   24.6428   -1.5189 C   0  0  0  0  0  0  0  0  0  0  0  0
   -6.0935   23.5970   -1.6523 O   0  0  0  0  0  0  0  0  0  0  0  0
   -4.1834   24.7402   -2.0154 N   0  3  0  0  0  0  0  0  0  0  0  0
   -3.4121   25.8648   -2.0342 C   0  0  0  0  0  0  0  0  0  0  0  0
   -2.3328   25.9274   -2.6094 O   0  0  0  0  0  0  0  0  0  0  0  0
   -3.9664   27.0305   -1.3473 C   0  0  0  0  0  0  0  0  0  0  0  0
   -5.2004   26.9481   -0.8382 C   0  0  0  0  0  0  0  0  0  0  0  0
   -7.3182   25.7145   -0.4094 C   0  0  1  0  0  0  0  0  0  0  0  0
   -8.8987   27.3124   -5.2631 C   0  0  0  0  0  0  0  0  0  0  0  0
   -9.4843   26.6003   -6.4793 C   0  0  0  0  0  0  0  0  0  0  0  0
   -9.4768   27.2498   -7.7314 C   0  0  0  0  0  0  0  0  0  0  0  0
   -7.7536   26.8035    0.5639 C   0  0  0  0  0  0  0  0  0  0  0  0
   -9.9141   26.5933   -8.8826 C   0  0  0  0  0  0  0  0  0  0  0  0
  -10.3531   25.2756   -8.8039 C   0  0  0  0  0  0  0  0  0  0  0  0
  -10.3476   24.6116   -7.5799 C   0  0  0  0  0  0  0  0  0  0  0  0
   -9.9125   25.2643   -6.4254 C   0  0  0  0  0  0  0  0  0  0  0  0
   -7.3973   27.1438   -5.2599 C   0  0  0  0  0  0  0  0  0  0  0  0
   -6.5693   28.1587   -5.7706 C   0  0  0  0  0  0  0  0  0  0  0  0
   -5.1896   27.9703   -5.8234 C   0  0  0  0  0  0  0  0  0  0  0  0
   -4.6339   26.7763   -5.3893 C   0  0  0  0  0  0  0  0  0  0  0  0
   -5.4484   25.7540   -4.9150 C   0  0  0  0  0  0  0  0  0  0  0  0
   -6.8188   25.9322   -4.8421 C   0  0  0  0  0  0  0  0  0  0  0  0
   -8.5293   27.7668   -0.3023 C   0  0  2  0  0  0  0  0  0  0  0  0
   -9.5806   28.3360    0.4516 O   0  0  0  0  0  0  0  0  0  0  0  0
   -9.0605   26.9148   -1.4494 C   0  0  2  0  0  0  0  0  0  0  0  0
   -8.1830   25.7941   -1.5778 O   0  0  0  0  0  0  0  0  0  0  0  0
   -9.1272   27.7384   -2.7592 C   0  0  0  0  0  0  0  0  0  0  0  0
   -9.5179   26.8993   -3.9466 N   0  3  0  0  0  0  0  0  0  0  0  0
   -3.8261   23.9374   -2.5140 H   0  0  0  0  0  0  0  0  0  0  0  0
   -3.3646   27.9260   -1.2980 H   0  0  0  0  0  0  0  0  0  0  0  0
   -5.6015   27.8221   -0.3477 H   0  0  0  0  0  0  0  0  0  0  0  0
   -7.4635   24.7341    0.0752 H   0  0  0  0  0  0  0  0  0  0  0  0
   -9.1540   28.3785   -5.3569 H   0  0  0  0  0  0  0  0  0  0  0  0
   -9.0963   28.2654   -7.8370 H   0  0  0  0  0  0  0  0  0  0  0  0
   -6.9240   27.2866    1.0953 H   0  0  0  0  0  0  0  0  0  0  0  0
   -8.3813   26.4002    1.3672 H   0  0  0  0  0  0  0  0  0  0  0  0
   -9.9007   27.1026   -9.8450 H   0  0  0  0  0  0  0  0  0  0  0  0
  -10.6887   24.7594   -9.7011 H   0  0  0  0  0  0  0  0  0  0  0  0
  -10.6703   23.5735   -7.5300 H   0  0  0  0  0  0  0  0  0  0  0  0
   -9.8817   24.6886   -5.5051 H   0  0  0  0  0  0  0  0  0  0  0  0
   -6.9908   29.0830   -6.1635 H   0  0  0  0  0  0  0  0  0  0  0  0
   -4.5459   28.7508   -6.2278 H   0  0  0  0  0  0  0  0  0  0  0  0
   -3.5543   26.6268   -5.4367 H   0  0  0  0  0  0  0  0  0  0  0  0
   -5.0132   24.8037   -4.6117 H   0  0  0  0  0  0  0  0  0  0  0  0
   -7.4193   25.0988   -4.4875 H   0  0  0  0  0  0  0  0  0  0  0  0
   -7.8702   28.5645   -0.6629 H   0  0  0  0  0  0  0  0  0  0  0  0
  -10.1018   28.9495   -0.0908 H   0  0  0  0  0  0  0  0  0  0  0  0
  -10.0593   26.5267   -1.2217 H   0  0  0  0  0  0  0  0  0  0  0  0
   -8.1557   28.1926   -2.9767 H   0  0  0  0  0  0  0  0  0  0  0  0
   -9.8774   28.5307   -2.6803 H   0  0  0  0  0  0  0  0  0  0  0  0
  -10.5361   26.8849   -4.0710 H   0  0  0  0  0  0  0  0  0  0  0  0
   -9.2309   25.9322   -3.7523 H   0  0  0  0  0  0  0  0  0  0  0  0
  1  2  1  0  0  0  0
  1  8  1  0  0  0  0
  1  9  1  0  0  0  0
  2  3  2  0  0  0  0
  2  4  1  0  0  0  0
  4  5  1  0  0  0  0
  4 30  1  0  0  0  0
  5  6  2  0  0  0  0
  5  7  1  0  0  0  0
  7  8  2  0  0  0  0
  7 31  1  0  0  0  0
  8 32  1  0  0  0  0
  9 13  1  0  0  0  0
  9 27  1  0  0  0  0
  9 33  1  1  0  0  0
 10 11  1  0  0  0  0
 10 18  1  0  0  0  0
 10 29  1  0  0  0  0
 10 34  1  0  0  0  0
 11 12  2  0  0  0  0
 11 17  1  0  0  0  0
 12 14  1  0  0  0  0
 12 35  1  0  0  0  0
 13 24  1  0  0  0  0
 13 36  1  0  0  0  0
 13 37  1  0  0  0  0
 14 15  2  0  0  0  0
 14 38  1  0  0  0  0
 15 16  1  0  0  0  0
 15 39  1  0  0  0  0
 16 17  2  0  0  0  0
 16 40  1  0  0  0  0
 17 41  1  0  0  0  0
 18 19  2  0  0  0  0
 18 23  1  0  0  0  0
 19 20  1  0  0  0  0
 19 42  1  0  0  0  0
 20 21  2  0  0  0  0
 20 43  1  0  0  0  0
 21 22  1  0  0  0  0
 21 44  1  0  0  0  0
 22 23  2  0  0  0  0
 22 45  1  0  0  0  0
 23 46  1  0  0  0  0
 24 25  1  0  0  0  0
 24 26  1  0  0  0  0
 24 47  1  6  0  0  0
 25 48  1  0  0  0  0
 26 27  1  0  0  0  0
 26 28  1  0  0  0  0
 26 49  1  1  0  0  0
 28 29  1  0  0  0  0
 28 50  1  0  0  0  0
 28 51  1  0  0  0  0
 29 52  1  0  0  0  0
 29 53  1  0  0  0  0
M  CHG  3   1   1   4   1  29   1
M  END
$$$$
