DU4
 OpenBabel04091915413D

 56 59  0  0  1  0  0  0  0  0999 V2000
   -6.1115   25.8096   -1.1392 N   0  3  0  0  0  0  0  0  0  0  0  0
   -5.5923   24.6473   -1.7191 C   0  0  0  0  0  0  0  0  0  0  0  0
   -6.2410   23.6225   -1.9154 O   0  0  0  0  0  0  0  0  0  0  0  0
   -4.2768   24.7083   -2.1080 N   0  3  0  0  0  0  0  0  0  0  0  0
   -3.4881   25.8149   -2.1031 C   0  0  0  0  0  0  0  0  0  0  0  0
   -2.3869   25.8581   -2.6223 O   0  0  0  0  0  0  0  0  0  0  0  0
   -4.0738   27.0049   -1.4669 C   0  0  0  0  0  0  0  0  0  0  0  0
   -5.3381   26.9515   -1.0322 C   0  0  0  0  0  0  0  0  0  0  0  0
   -7.5087   25.7427   -0.7152 C   0  0  1  0  0  0  0  0  0  0  0  0
   -8.8155   27.4569   -5.5676 C   0  0  0  0  0  0  0  0  0  0  0  0
   -9.3981   26.8135   -6.8205 C   0  0  0  0  0  0  0  0  0  0  0  0
   -9.4987   27.5757   -8.0012 C   0  0  0  0  0  0  0  0  0  0  0  0
   -8.0075   26.7820    0.2836 C   0  0  0  0  0  0  0  0  0  0  0  0
   -9.9954   27.0160   -9.1737 C   0  0  0  0  0  0  0  0  0  0  0  0
  -10.4012   25.6840   -9.1909 C   0  0  0  0  0  0  0  0  0  0  0  0
  -10.2995   24.9096   -8.0381 C   0  0  0  0  0  0  0  0  0  0  0  0
   -9.7946   25.4646   -6.8620 C   0  0  0  0  0  0  0  0  0  0  0  0
   -7.3230   27.1763   -5.4690 C   0  0  0  0  0  0  0  0  0  0  0  0
   -6.4049   28.1838   -5.8234 C   0  0  0  0  0  0  0  0  0  0  0  0
   -5.0326   27.9520   -5.7563 C   0  0  0  0  0  0  0  0  0  0  0  0
   -4.5577   26.7076   -5.3574 C   0  0  0  0  0  0  0  0  0  0  0  0
   -5.4545   25.6947   -5.0291 C   0  0  0  0  0  0  0  0  0  0  0  0
   -6.8280   25.9270   -5.0655 C   0  0  0  0  0  0  0  0  0  0  0  0
   -8.7053   27.8123   -0.5712 C   0  0  2  0  0  0  0  0  0  0  0  0
   -9.8076   28.3637    0.1282 O   0  0  0  0  0  0  0  0  0  0  0  0
   -9.1610   27.0223   -1.7894 C   0  0  2  0  0  0  0  0  0  0  0  0
   -8.3219   25.8707   -1.9060 O   0  0  0  0  0  0  0  0  0  0  0  0
  -11.0585   27.4701   -4.4211 C   0  0  0  0  0  0  0  0  0  0  0  0
   -9.0165   27.8725   -3.0597 C   0  0  0  0  0  0  0  0  0  0  0  0
   -9.5901   27.1561   -4.2768 N   0  3  2  0  0  0  0  0  0  0  0  0
   -3.9099   23.8964   -2.5781 H   0  0  0  0  0  0  0  0  0  0  0  0
   -3.4584   27.8883   -1.3945 H   0  0  0  0  0  0  0  0  0  0  0  0
   -5.7711   27.8336   -0.5722 H   0  0  0  0  0  0  0  0  0  0  0  0
   -7.6847   24.7454   -0.2926 H   0  0  0  0  0  0  0  0  0  0  0  0
   -8.9444   28.5440   -5.6698 H   0  0  0  0  0  0  0  0  0  0  0  0
   -9.1675   28.6160   -8.0254 H   0  0  0  0  0  0  0  0  0  0  0  0
   -7.2304   27.2144    0.9222 H   0  0  0  0  0  0  0  0  0  0  0  0
   -8.7285   26.3240    0.9724 H   0  0  0  0  0  0  0  0  0  0  0  0
  -10.0559   27.6104  -10.0819 H   0  0  0  0  0  0  0  0  0  0  0  0
  -10.7823   25.2435  -10.1095 H   0  0  0  0  0  0  0  0  0  0  0  0
  -10.6021   23.8643   -8.0654 H   0  0  0  0  0  0  0  0  0  0  0  0
   -9.7085   24.8171   -5.9919 H   0  0  0  0  0  0  0  0  0  0  0  0
   -6.7455   29.1580   -6.1705 H   0  0  0  0  0  0  0  0  0  0  0  0
   -4.3283   28.7336   -6.0357 H   0  0  0  0  0  0  0  0  0  0  0  0
   -3.4858   26.5210   -5.3118 H   0  0  0  0  0  0  0  0  0  0  0  0
   -5.0806   24.7136   -4.7464 H   0  0  0  0  0  0  0  0  0  0  0  0
   -7.4880   25.1081   -4.7879 H   0  0  0  0  0  0  0  0  0  0  0  0
   -8.0174   28.6217   -0.8388 H   0  0  0  0  0  0  0  0  0  0  0  0
  -10.2442   29.0535   -0.3992 H   0  0  0  0  0  0  0  0  0  0  0  0
  -10.1936   26.6751   -1.6713 H   0  0  0  0  0  0  0  0  0  0  0  0
  -11.5590   27.2071   -3.4864 H   0  0  0  0  0  0  0  0  0  0  0  0
  -11.4910   26.8908   -5.2347 H   0  0  0  0  0  0  0  0  0  0  0  0
  -11.1583   28.5449   -4.6148 H   0  0  0  0  0  0  0  0  0  0  0  0
   -7.9577   28.0712   -3.2422 H   0  0  0  0  0  0  0  0  0  0  0  0
   -9.5367   28.8327   -2.9671 H   0  0  0  0  0  0  0  0  0  0  0  0
   -9.4736   26.1464   -4.1088 H   0  0  0  0  0  0  0  0  0  0  0  0
  1  2  1  0  0  0  0
  1  8  1  0  0  0  0
  1  9  1  0  0  0  0
  2  3  2  0  0  0  0
  2  4  1  0  0  0  0
  4  5  1  0  0  0  0
  4 31  1  0  0  0  0
  5  6  2  0  0  0  0
  5  7  1  0  0  0  0
  7  8  2  0  0  0  0
  7 32  1  0  0  0  0
  8 33  1  0  0  0  0
  9 13  1  0  0  0  0
  9 27  1  0  0  0  0
  9 34  1  1  0  0  0
 10 11  1  0  0  0  0
 10 18  1  0  0  0  0
 10 30  1  0  0  0  0
 10 35  1  0  0  0  0
 11 12  2  0  0  0  0
 11 17  1  0  0  0  0
 12 14  1  0  0  0  0
 12 36  1  0  0  0  0
 13 24  1  0  0  0  0
 13 37  1  0  0  0  0
 13 38  1  0  0  0  0
 14 15  2  0  0  0  0
 14 39  1  0  0  0  0
 15 16  1  0  0  0  0
 15 40  1  0  0  0  0
 16 17  2  0  0  0  0
 16 41  1  0  0  0  0
 17 42  1  0  0  0  0
 18 19  2  0  0  0  0
 18 23  1  0  0  0  0
 19 20  1  0  0  0  0
 19 43  1  0  0  0  0
 20 21  2  0  0  0  0
 20 44  1  0  0  0  0
 21 22  1  0  0  0  0
 21 45  1  0  0  0  0
 22 23  2  0  0  0  0
 22 46  1  0  0  0  0
 23 47  1  0  0  0  0
 24 25  1  0  0  0  0
 24 26  1  0  0  0  0
 24 48  1  6  0  0  0
 25 49  1  0  0  0  0
 26 27  1  0  0  0  0
 26 29  1  0  0  0  0
 26 50  1  1  0  0  0
 28 30  1  0  0  0  0
 28 51  1  0  0  0  0
 28 52  1  0  0  0  0
 28 53  1  0  0  0  0
 29 30  1  0  0  0  0
 29 54  1  0  0  0  0
 29 55  1  0  0  0  0
 30 56  1  1  0  0  0
M  CHG  3   1   1   4   1  30   1
M  END
$$$$
