DXC
 OpenBabel04091916473D

 67 70  0  0  1  0  0  0  0  0999 V2000
   -0.7921   22.7261   14.8770 C   0  0  1  0  0  0  0  0  0  0  0  0
   -1.0278   21.2854   14.4571 C   0  0  0  0  0  0  0  0  0  0  0  0
   -0.0591   20.3468   15.1814 C   0  0  2  0  0  0  0  0  0  0  0  0
    1.4140   20.7327   14.9182 C   0  0  2  0  0  0  0  0  0  0  0  0
    1.6252   22.2044   15.2999 C   0  0  0  0  0  0  0  0  0  0  0  0
    0.6477   23.1201   14.5744 C   0  0  0  0  0  0  0  0  0  0  0  0
   -0.3386   18.9041   14.7537 C   0  0  0  0  0  0  0  0  0  0  0  0
   -0.0082   18.7093   13.2830 C   0  0  0  0  0  0  0  0  0  0  0  0
    1.4435   19.0694   13.0066 C   0  0  2  0  0  0  0  0  0  0  0  0
    1.7666   20.5109   13.4320 C   0  0  2  0  0  0  0  0  0  0  0  0
    1.7765   18.9134   11.5428 C   0  0  1  0  0  0  0  0  0  0  0  0
    3.2654   19.1699   11.2858 C   0  0  2  0  0  0  0  0  0  0  0  0
    3.6052   20.6046   11.6880 C   0  0  2  0  0  0  0  0  0  0  0  0
    3.2330   20.8571   13.1389 C   0  0  0  0  0  0  0  0  0  0  0  0
    1.6041   17.5253   10.9629 C   0  0  0  0  0  0  0  0  0  0  0  0
    2.3877   17.6213    9.6541 C   0  0  0  0  0  0  0  0  0  0  0  0
    3.2881   18.8686    9.7814 C   0  0  2  0  0  0  0  0  0  0  0  0
    2.3209   19.8629   15.7945 C   0  0  0  0  0  0  0  0  0  0  0  0
    4.6595   18.6572    9.1352 C   0  0  1  0  0  0  0  0  0  0  0  0
    2.9074   21.5428   10.8868 O   0  0  0  0  0  0  0  0  0  0  0  0
   -1.6657   23.5873   14.1733 O   0  0  0  0  0  0  0  0  0  0  0  0
    4.1277   18.1684   12.0758 C   0  0  0  0  0  0  0  0  0  0  0  0
    4.4596   18.2335    7.6781 C   0  0  0  0  0  0  0  0  0  0  0  0
    5.7140   17.6913    7.0130 C   0  0  0  0  0  0  0  0  0  0  0  0
    6.6257   18.7949    6.4484 C   0  0  0  0  0  0  0  0  0  0  0  0
    7.7765   18.8562    7.0242 O   0  0  0  0  0  0  0  0  0  0  0  0
    6.1528   19.4705    5.5328 O   0  0  0  0  0  0  0  0  0  0  0  0
    5.4947   19.9222    9.2075 C   0  0  0  0  0  0  0  0  0  0  0  0
   -0.9771   22.8263   15.9523 H   0  0  0  0  0  0  0  0  0  0  0  0
   -0.8926   21.2184   13.3717 H   0  0  0  0  0  0  0  0  0  0  0  0
   -2.0554   20.9891   14.6602 H   0  0  0  0  0  0  0  0  0  0  0  0
   -0.2431   20.4384   16.2626 H   0  0  0  0  0  0  0  0  0  0  0  0
    2.6495   22.5115   15.0780 H   0  0  0  0  0  0  0  0  0  0  0  0
    1.4927   22.3199   16.3810 H   0  0  0  0  0  0  0  0  0  0  0  0
    0.8253   24.1591   14.8702 H   0  0  0  0  0  0  0  0  0  0  0  0
    0.8197   23.0762   13.4929 H   0  0  0  0  0  0  0  0  0  0  0  0
   -1.3868   18.6660   14.9370 H   0  0  0  0  0  0  0  0  0  0  0  0
    0.2592   18.2158   15.3582 H   0  0  0  0  0  0  0  0  0  0  0  0
   -0.6558   19.3332   12.6650 H   0  0  0  0  0  0  0  0  0  0  0  0
   -0.1922   17.6708   13.0015 H   0  0  0  0  0  0  0  0  0  0  0  0
    2.0714   18.3838   13.5806 H   0  0  0  0  0  0  0  0  0  0  0  0
    1.1523   21.1777   12.8145 H   0  0  0  0  0  0  0  0  0  0  0  0
    1.1670   19.6277   10.9605 H   0  0  0  0  0  0  0  0  0  0  0  0
    4.6726   20.8009   11.6110 H   0  0  0  0  0  0  0  0  0  0  0  0
    3.8827   20.2589   13.7788 H   0  0  0  0  0  0  0  0  0  0  0  0
    3.4278   21.9049   13.3743 H   0  0  0  0  0  0  0  0  0  0  0  0
    0.5609   17.2593   10.7922 H   0  0  0  0  0  0  0  0  0  0  0  0
    2.0141   16.7566   11.6095 H   0  0  0  0  0  0  0  0  0  0  0  0
    1.7039   17.7387    8.8059 H   0  0  0  0  0  0  0  0  0  0  0  0
    2.9907   16.7194    9.5004 H   0  0  0  0  0  0  0  0  0  0  0  0
    2.7897   19.6885    9.2479 H   0  0  0  0  0  0  0  0  0  0  0  0
    2.0872   19.9914   16.8466 H   0  0  0  0  0  0  0  0  0  0  0  0
    3.3715   20.1125   15.6487 H   0  0  0  0  0  0  0  0  0  0  0  0
    2.2085   18.8023   15.5526 H   0  0  0  0  0  0  0  0  0  0  0  0
    5.1835   17.8549    9.6673 H   0  0  0  0  0  0  0  0  0  0  0  0
    3.1595   21.3768    9.9431 H   0  0  0  0  0  0  0  0  0  0  0  0
   -2.5967   23.3163   14.3780 H   0  0  0  0  0  0  0  0  0  0  0  0
    4.1071   18.3630   13.1472 H   0  0  0  0  0  0  0  0  0  0  0  0
    5.1666   18.1806   11.7543 H   0  0  0  0  0  0  0  0  0  0  0  0
    3.7892   17.1403   11.9563 H   0  0  0  0  0  0  0  0  0  0  0  0
    4.0639   19.0871    7.1126 H   0  0  0  0  0  0  0  0  0  0  0  0
    3.6952   17.4458    7.6361 H   0  0  0  0  0  0  0  0  0  0  0  0
    5.4096   17.0515    6.1768 H   0  0  0  0  0  0  0  0  0  0  0  0
    6.2595   17.0637    7.7318 H   0  0  0  0  0  0  0  0  0  0  0  0
    5.6856   20.2138   10.2294 H   0  0  0  0  0  0  0  0  0  0  0  0
    5.0047   20.7468    8.6849 H   0  0  0  0  0  0  0  0  0  0  0  0
    6.4781   19.7678    8.7844 H   0  0  0  0  0  0  0  0  0  0  0  0
  1  2  1  0  0  0  0
  1  6  1  0  0  0  0
  1 21  1  0  0  0  0
  1 29  1  1  0  0  0
  2  3  1  0  0  0  0
  2 30  1  0  0  0  0
  2 31  1  0  0  0  0
  3  4  1  0  0  0  0
  3  7  1  0  0  0  0
  3 32  1  1  0  0  0
  4  5  1  0  0  0  0
  4 10  1  0  0  0  0
  4 18  1  1  0  0  0
  5  6  1  0  0  0  0
  5 33  1  0  0  0  0
  5 34  1  0  0  0  0
  6 35  1  0  0  0  0
  6 36  1  0  0  0  0
  7  8  1  0  0  0  0
  7 37  1  0  0  0  0
  7 38  1  0  0  0  0
  8  9  1  0  0  0  0
  8 39  1  0  0  0  0
  8 40  1  0  0  0  0
  9 10  1  0  0  0  0
  9 11  1  0  0  0  0
  9 41  1  1  0  0  0
 10 14  1  0  0  0  0
 10 42  1  6  0  0  0
 11 12  1  0  0  0  0
 11 15  1  0  0  0  0
 11 43  1  6  0  0  0
 12 13  1  0  0  0  0
 12 17  1  0  0  0  0
 12 22  1  1  0  0  0
 13 14  1  0  0  0  0
 13 20  1  0  0  0  0
 13 44  1  6  0  0  0
 14 45  1  0  0  0  0
 14 46  1  0  0  0  0
 15 16  1  0  0  0  0
 15 47  1  0  0  0  0
 15 48  1  0  0  0  0
 16 17  1  0  0  0  0
 16 49  1  0  0  0  0
 16 50  1  0  0  0  0
 17 19  1  0  0  0  0
 17 51  1  6  0  0  0
 18 52  1  0  0  0  0
 18 53  1  0  0  0  0
 18 54  1  0  0  0  0
 19 23  1  0  0  0  0
 19 28  1  0  0  0  0
 19 55  1  1  0  0  0
 20 56  1  0  0  0  0
 21 57  1  0  0  0  0
 22 58  1  0  0  0  0
 22 59  1  0  0  0  0
 22 60  1  0  0  0  0
 23 24  1  0  0  0  0
 23 61  1  0  0  0  0
 23 62  1  0  0  0  0
 24 25  1  0  0  0  0
 24 63  1  0  0  0  0
 24 64  1  0  0  0  0
 25 26  2  0  0  0  0
 25 27  1  0  0  0  0
 28 65  1  0  0  0  0
 28 66  1  0  0  0  0
 28 67  1  0  0  0  0
M  END
$$$$
