E1B
 OpenBabel04091914393D

 37 40  0  0  0  0  0  0  0  0999 V2000
   23.4470  -27.8848   10.2591 N   0  0  0  0  0  0  0  0  0  0  0  0
   23.3879  -26.9131   11.1724 C   0  0  0  0  0  0  0  0  0  0  0  0
   23.1921  -27.0889   12.4979 N   0  0  0  0  0  0  0  0  0  0  0  0
   23.0480  -28.3692   12.9742 C   0  0  0  0  0  0  0  0  0  0  0  0
   23.0894  -29.4610   12.0957 C   0  0  0  0  0  0  0  0  0  0  0  0
   23.2915  -29.1358   10.7476 C   0  0  0  0  0  0  0  0  0  0  0  0
   23.7683  -30.3663   20.4382 C   0  0  0  0  0  0  0  0  0  0  0  0
   22.4907  -34.8793   15.4899 O   0  0  0  0  0  0  0  0  0  0  0  0
   22.1190  -35.6663   13.3952 O   0  0  0  0  0  0  0  0  0  0  0  0
   23.3700  -29.4421   19.7625 C   0  0  0  0  0  0  0  0  0  0  0  0
   21.9630  -26.1632   18.6381 C   0  0  0  0  0  0  0  0  0  0  0  0
   22.3867  -27.1971   19.4785 C   0  0  0  0  0  0  0  0  0  0  0  0
   22.0697  -26.3107   17.2437 C   0  0  0  0  0  0  0  0  0  0  0  0
   22.7985  -33.2039   12.2974 C   0  0  0  0  0  0  0  0  0  0  0  0
   22.9593  -31.9346   11.7658 C   0  0  0  0  0  0  0  0  0  0  0  0
   23.0027  -28.5054   17.5348 C   0  0  0  0  0  0  0  0  0  0  0  0
   22.5731  -32.2468   14.4942 C   0  0  0  0  0  0  0  0  0  0  0  0
   22.6984  -29.9381   14.8265 N   0  0  0  0  0  0  0  0  0  0  0  0
   22.6653  -27.5886   15.2662 N   0  0  0  0  0  0  0  0  0  0  0  0
   22.3872  -34.7498   14.2326 C   0  0  0  0  0  0  0  0  0  0  0  0
   22.9125  -28.3710   18.9283 C   0  0  0  0  0  0  0  0  0  0  0  0
   22.6033  -27.4835   16.6688 C   0  0  0  0  0  0  0  0  0  0  0  0
   22.5987  -33.3753   13.6679 C   0  0  0  0  0  0  0  0  0  0  0  0
   22.8402  -28.6757   14.3487 C   0  0  0  0  0  0  0  0  0  0  0  0
   22.7343  -30.9706   13.9784 C   0  0  0  0  0  0  0  0  0  0  0  0
   22.9285  -30.7945   12.5931 C   0  0  0  0  0  0  0  0  0  0  0  0
   23.5128  -25.8964   10.8127 H   0  0  0  0  0  0  0  0  0  0  0  0
   23.3416  -29.9033    9.9759 H   0  0  0  0  0  0  0  0  0  0  0  0
   24.1070  -31.1969   20.9975 H   0  0  0  0  0  0  0  0  0  0  0  0
   21.5437  -25.2554   19.0634 H   0  0  0  0  0  0  0  0  0  0  0  0
   22.2956  -27.0862   20.5564 H   0  0  0  0  0  0  0  0  0  0  0  0
   21.7195  -25.4989   16.6088 H   0  0  0  0  0  0  0  0  0  0  0  0
   22.8107  -34.0793   11.6489 H   0  0  0  0  0  0  0  0  0  0  0  0
   23.1070  -31.8628   10.6944 H   0  0  0  0  0  0  0  0  0  0  0  0
   23.4313  -29.4124   17.1249 H   0  0  0  0  0  0  0  0  0  0  0  0
   22.4095  -32.3935   15.5656 H   0  0  0  0  0  0  0  0  0  0  0  0
   22.7911  -26.7047   14.7925 H   0  0  0  0  0  0  0  0  0  0  0  0
  1  2  2  0  0  0  0
  1  6  1  0  0  0  0
  2  3  1  0  0  0  0
  2 27  1  0  0  0  0
  3  4  2  0  0  0  0
  4  5  1  0  0  0  0
  4 24  1  0  0  0  0
  5  6  2  0  0  0  0
  5 26  1  0  0  0  0
  6 28  1  0  0  0  0
  7 10  3  0  0  0  0
  7 29  1  0  0  0  0
  8 20  2  0  0  0  0
  9 20  1  0  0  0  0
 10 21  1  0  0  0  0
 11 12  2  0  0  0  0
 11 13  1  0  0  0  0
 11 30  1  0  0  0  0
 12 21  1  0  0  0  0
 12 31  1  0  0  0  0
 13 22  2  0  0  0  0
 13 32  1  0  0  0  0
 14 15  2  0  0  0  0
 14 23  1  0  0  0  0
 14 33  1  0  0  0  0
 15 26  1  0  0  0  0
 15 34  1  0  0  0  0
 16 21  2  0  0  0  0
 16 22  1  0  0  0  0
 16 35  1  0  0  0  0
 17 23  2  0  0  0  0
 17 25  1  0  0  0  0
 17 36  1  0  0  0  0
 18 24  2  0  0  0  0
 18 25  1  0  0  0  0
 19 22  1  0  0  0  0
 19 24  1  0  0  0  0
 19 37  1  0  0  0  0
 20 23  1  0  0  0  0
 25 26  2  0  0  0  0
M  END
$$$$
