E2B
 OpenBabel04091912523D

 61 65  0  0  1  0  0  0  0  0999 V2000
   14.4872   -0.7731   -8.3186 N   0  0  0  0  0  0  0  0  0  0  0  0
   10.8937    8.7597  -11.5010 C   0  0  2  0  0  0  0  0  0  0  0  0
   10.9554   10.2268  -11.0650 C   0  0  1  0  0  0  0  0  0  0  0  0
   11.6728    7.9282  -10.5002 C   0  0  1  0  0  0  0  0  0  0  0  0
   11.3754    8.6313  -12.9711 C   0  0  0  0  0  0  0  0  0  0  0  0
   11.2474    8.0820   -9.0190 C   0  0  2  0  0  0  0  0  0  0  0  0
   10.1998   11.0788  -12.0808 C   0  0  0  0  0  0  0  0  0  0  0  0
   11.3692    9.5514   -8.5930 C   0  0  0  0  0  0  0  0  0  0  0  0
   11.5894    6.4252  -10.6703 C   0  0  0  0  0  0  0  0  0  0  0  0
   13.6368    0.2022   -7.7973 C   0  0  0  0  0  0  0  0  0  0  0  0
   11.8684    0.4194   -9.7608 C   0  0  0  0  0  0  0  0  0  0  0  0
    9.9329   10.6513  -13.4209 C   0  0  0  0  0  0  0  0  0  0  0  0
   10.5473   10.4251   -9.5656 C   0  0  0  0  0  0  0  0  0  0  0  0
   12.3083    5.8781   -9.4243 C   0  0  1  0  0  0  0  0  0  0  0  0
   12.2657    7.0943   -8.4051 C   0  0  2  0  0  0  0  0  0  0  0  0
    9.8109    7.5917   -8.7360 C   0  0  0  0  0  0  0  0  0  0  0  0
   12.6963    0.9685   -8.7619 C   0  0  0  0  0  0  0  0  0  0  0  0
    9.8364   12.3766  -11.6752 C   0  0  0  0  0  0  0  0  0  0  0  0
   10.9493    1.2131  -10.5046 C   0  0  0  0  0  0  0  0  0  0  0  0
   11.6014    4.6369   -8.8686 C   0  0  0  0  0  0  0  0  0  0  0  0
   12.5916    2.3566   -8.5665 C   0  0  0  0  0  0  0  0  0  0  0  0
   10.8771    2.6020  -10.2750 C   0  0  0  0  0  0  0  0  0  0  0  0
   10.3223    9.2492  -13.9157 C   0  0  0  0  0  0  0  0  0  0  0  0
    8.9247   12.8328  -13.8657 C   0  0  0  0  0  0  0  0  0  0  0  0
   11.7261    3.1940   -9.3214 C   0  0  0  0  0  0  0  0  0  0  0  0
    9.2694   11.5445  -14.2985 C   0  0  0  0  0  0  0  0  0  0  0  0
    9.2133   13.2448  -12.5713 C   0  0  0  0  0  0  0  0  0  0  0  0
    8.2910   13.7250  -14.6904 O   0  0  0  0  0  0  0  0  0  0  0  0
   13.6991    0.4252   -6.6292 O   0  0  0  0  0  0  0  0  0  0  0  0
   11.9518    6.7170   -7.0756 O   0  0  0  0  0  0  0  0  0  0  0  0
   15.1191   -1.2460   -7.6660 H   0  0  0  0  0  0  0  0  0  0  0  0
   14.5214   -1.0280   -9.2803 H   0  0  0  0  0  0  0  0  0  0  0  0
    9.8503    8.4367  -11.4951 H   0  0  0  0  0  0  0  0  0  0  0  0
   12.0093   10.5408  -11.1134 H   0  0  0  0  0  0  0  0  0  0  0  0
   12.7322    8.2186  -10.5838 H   0  0  0  0  0  0  0  0  0  0  0  0
   11.5371    7.5780  -13.2301 H   0  0  0  0  0  0  0  0  0  0  0  0
   12.3255    9.1660  -13.1267 H   0  0  0  0  0  0  0  0  0  0  0  0
   12.4191    9.8814   -8.6196 H   0  0  0  0  0  0  0  0  0  0  0  0
   11.0092    9.6979   -7.5610 H   0  0  0  0  0  0  0  0  0  0  0  0
   12.0527    6.0786  -11.5833 H   0  0  0  0  0  0  0  0  0  0  0  0
   10.5438    6.0912  -10.6954 H   0  0  0  0  0  0  0  0  0  0  0  0
   11.9074   -0.6419   -9.9785 H   0  0  0  0  0  0  0  0  0  0  0  0
    9.4821   10.1966   -9.4347 H   0  0  0  0  0  0  0  0  0  0  0  0
   10.6805   11.4713   -9.2707 H   0  0  0  0  0  0  0  0  0  0  0  0
   13.3575    5.6773   -9.6646 H   0  0  0  0  0  0  0  0  0  0  0  0
   13.2519    7.5750   -8.3860 H   0  0  0  0  0  0  0  0  0  0  0  0
    9.0617    8.2618   -9.1500 H   0  0  0  0  0  0  0  0  0  0  0  0
    9.6202    7.4698   -7.6671 H   0  0  0  0  0  0  0  0  0  0  0  0
    9.6162    6.6247   -9.1860 H   0  0  0  0  0  0  0  0  0  0  0  0
   10.0278   12.7246  -10.6585 H   0  0  0  0  0  0  0  0  0  0  0  0
   10.2915    0.7541  -11.2610 H   0  0  0  0  0  0  0  0  0  0  0  0
   10.5416    4.8643   -8.9077 H   0  0  0  0  0  0  0  0  0  0  0  0
   11.9034    4.6048   -7.8254 H   0  0  0  0  0  0  0  0  0  0  0  0
   13.1855    2.8205   -7.7823 H   0  0  0  0  0  0  0  0  0  0  0  0
   10.1434    3.2001  -10.8213 H   0  0  0  0  0  0  0  0  0  0  0  0
    9.4426    8.5790  -13.9546 H   0  0  0  0  0  0  0  0  0  0  0  0
   10.7283    9.2803  -14.9455 H   0  0  0  0  0  0  0  0  0  0  0  0
    9.0342   11.2391  -15.3182 H   0  0  0  0  0  0  0  0  0  0  0  0
    8.9639   14.2511  -12.2288 H   0  0  0  0  0  0  0  0  0  0  0  0
    8.1385   13.3309  -15.5632 H   0  0  0  0  0  0  0  0  0  0  0  0
   12.6341    6.0944   -6.7703 H   0  0  0  0  0  0  0  0  0  0  0  0
  1 10  1  0  0  0  0
  1 31  1  0  0  0  0
  1 32  1  0  0  0  0
  2  3  1  0  0  0  0
  2  4  1  0  0  0  0
  2  5  1  0  0  0  0
  2 33  1  1  0  0  0
  3  7  1  0  0  0  0
  3 13  1  0  0  0  0
  3 34  1  6  0  0  0
  4  6  1  0  0  0  0
  4  9  1  0  0  0  0
  4 35  1  6  0  0  0
  5 23  1  0  0  0  0
  5 36  1  0  0  0  0
  5 37  1  0  0  0  0
  6  8  1  0  0  0  0
  6 15  1  0  0  0  0
  6 16  1  1  0  0  0
  7 12  2  0  0  0  0
  7 18  1  0  0  0  0
  8 13  1  0  0  0  0
  8 38  1  0  0  0  0
  8 39  1  0  0  0  0
  9 14  1  0  0  0  0
  9 40  1  0  0  0  0
  9 41  1  0  0  0  0
 10 17  1  0  0  0  0
 10 29  2  0  0  0  0
 11 17  2  0  0  0  0
 11 19  1  0  0  0  0
 11 42  1  0  0  0  0
 12 23  1  0  0  0  0
 12 26  1  0  0  0  0
 13 43  1  0  0  0  0
 13 44  1  0  0  0  0
 14 15  1  0  0  0  0
 14 20  1  0  0  0  0
 14 45  1  6  0  0  0
 15 30  1  0  0  0  0
 15 46  1  1  0  0  0
 16 47  1  0  0  0  0
 16 48  1  0  0  0  0
 16 49  1  0  0  0  0
 17 21  1  0  0  0  0
 18 27  2  0  0  0  0
 18 50  1  0  0  0  0
 19 22  2  0  0  0  0
 19 51  1  0  0  0  0
 20 25  1  0  0  0  0
 20 52  1  0  0  0  0
 20 53  1  0  0  0  0
 21 25  2  0  0  0  0
 21 54  1  0  0  0  0
 22 25  1  0  0  0  0
 22 55  1  0  0  0  0
 23 56  1  0  0  0  0
 23 57  1  0  0  0  0
 24 26  2  0  0  0  0
 24 27  1  0  0  0  0
 24 28  1  0  0  0  0
 26 58  1  0  0  0  0
 27 59  1  0  0  0  0
 28 60  1  0  0  0  0
 30 61  1  0  0  0  0
M  END
$$$$
