E36
 OpenBabel04091913443D

 42 45  0  0  0  0  0  0  0  0999 V2000
   -0.8282   10.0590   12.5249 O   0  0  0  0  0  0  0  0  0  0  0  0
   -0.1287   10.6097   13.6458 C   0  0  0  0  0  0  0  0  0  0  0  0
   -0.2252    9.8448   14.9687 C   0  0  0  0  0  0  0  0  0  0  0  0
   -1.3393    8.9598   15.0500 O   0  0  0  0  0  0  0  0  0  0  0  0
   -1.3365    8.1742   13.9285 C   0  0  0  0  0  0  0  0  0  0  0  0
   -1.0852    8.7237   12.6698 C   0  0  0  0  0  0  0  0  0  0  0  0
   -1.1072    7.9427   11.5102 C   0  0  0  0  0  0  0  0  0  0  0  0
   -1.2998    6.5723   11.6947 C   0  0  0  0  0  0  0  0  0  0  0  0
   -1.3269    5.4950   10.8375 N   0  3  0  0  0  0  0  0  0  0  0  0
   -1.5331    4.3838   11.5949 C   0  0  0  0  0  0  0  0  0  0  0  0
   -1.6594    4.6479   12.8678 N   0  0  0  0  0  0  0  0  0  0  0  0
   -1.5235    6.0058   12.9448 C   0  0  0  0  0  0  0  0  0  0  0  0
   -1.5917    6.8162   14.0869 C   0  0  0  0  0  0  0  0  0  0  0  0
   -1.7597    2.8205   10.9007 S   0  0  0  0  0  0  0  0  0  0  0  0
   -2.8900    2.1568   12.1837 C   0  0  0  0  0  0  0  0  0  0  0  0
   -4.1258    3.0408   12.2965 C   0  0  0  0  0  0  0  0  0  0  0  0
   -4.6747    3.5855   11.3289 O   0  0  0  0  0  0  0  0  0  0  0  0
   -4.7396    3.2468   13.6323 C   0  0  0  0  0  0  0  0  0  0  0  0
   -4.9095    2.1749   14.5137 C   0  0  0  0  0  0  0  0  0  0  0  0
   -5.5652    2.3639   15.7409 C   0  0  0  0  0  0  0  0  0  0  0  0
   -6.0230    3.6406   16.0973 C   0  0  0  0  0  0  0  0  0  0  0  0
   -5.8499    4.7086   15.2061 C   0  0  0  0  0  0  0  0  0  0  0  0
   -5.2263    4.5096   13.9721 C   0  0  0  0  0  0  0  0  0  0  0  0
   -5.9287    0.9874   16.7946 S   0  0  0  0  0  0  0  0  0  0  0  0
   -7.3587    0.7925   16.7931 O   0  0  0  0  0  0  0  0  0  0  0  0
   -6.8179    3.9971   17.5884 Cl  0  0  0  0  0  0  0  0  0  0  0  0
   -5.1596    1.1366   18.0088 O   0  0  0  0  0  0  0  0  0  0  0  0
   -5.3211   -0.3758   16.0442 N   0  0  0  0  0  0  0  0  0  0  0  0
   -0.4815   11.6372   13.7848 H   0  0  0  0  0  0  0  0  0  0  0  0
    0.9277   10.6877   13.3605 H   0  0  0  0  0  0  0  0  0  0  0  0
   -0.2879   10.5523   15.8037 H   0  0  0  0  0  0  0  0  0  0  0  0
    0.6912    9.2631   15.1387 H   0  0  0  0  0  0  0  0  0  0  0  0
   -0.9380    8.3859   10.5329 H   0  0  0  0  0  0  0  0  0  0  0  0
   -1.2421    5.5229    9.8288 H   0  0  0  0  0  0  0  0  0  0  0  0
   -1.7829    6.3872   15.0642 H   0  0  0  0  0  0  0  0  0  0  0  0
   -2.3498    2.1096   13.1374 H   0  0  0  0  0  0  0  0  0  0  0  0
   -3.1944    1.1425   11.9117 H   0  0  0  0  0  0  0  0  0  0  0  0
   -4.5721    1.2019   14.1915 H   0  0  0  0  0  0  0  0  0  0  0  0
   -6.2172    5.7026   15.4583 H   0  0  0  0  0  0  0  0  0  0  0  0
   -5.1223    5.3404   13.2755 H   0  0  0  0  0  0  0  0  0  0  0  0
   -5.2924   -1.2053   16.6333 H   0  0  0  0  0  0  0  0  0  0  0  0
   -4.7270   -0.3549   15.2296 H   0  0  0  0  0  0  0  0  0  0  0  0
  1  2  1  0  0  0  0
  1  6  1  0  0  0  0
  2  3  1  0  0  0  0
  2 29  1  0  0  0  0
  2 30  1  0  0  0  0
  3  4  1  0  0  0  0
  3 31  1  0  0  0  0
  3 32  1  0  0  0  0
  4  5  1  0  0  0  0
  5  6  2  0  0  0  0
  5 13  1  0  0  0  0
  6  7  1  0  0  0  0
  7  8  2  0  0  0  0
  7 33  1  0  0  0  0
  8  9  1  0  0  0  0
  8 12  1  0  0  0  0
  9 10  2  0  0  0  0
  9 34  1  0  0  0  0
 10 11  1  0  0  0  0
 10 14  1  0  0  0  0
 11 12  1  0  0  0  0
 12 13  2  0  0  0  0
 13 35  1  0  0  0  0
 14 15  1  0  0  0  0
 15 16  1  0  0  0  0
 15 36  1  0  0  0  0
 15 37  1  0  0  0  0
 16 17  2  0  0  0  0
 16 18  1  0  0  0  0
 18 19  2  0  0  0  0
 18 23  1  0  0  0  0
 19 20  1  0  0  0  0
 19 38  1  0  0  0  0
 20 21  2  0  0  0  0
 20 24  1  0  0  0  0
 21 22  1  0  0  0  0
 21 26  1  0  0  0  0
 22 23  2  0  0  0  0
 22 39  1  0  0  0  0
 23 40  1  0  0  0  0
 24 25  2  0  0  0  0
 24 27  2  0  0  0  0
 24 28  1  0  0  0  0
 28 41  1  0  0  0  0
 28 42  1  0  0  0  0
M  CHG  1   9   1
M  END
$$$$
