E3P
 OpenBabel04091915483D

 57 59  0  0  1  0  0  0  0  0999 V2000
  -10.3836  -30.1075    1.6906 C   0  0  0  0  0  0  0  0  0  0  0  0
  -12.6231  -29.0577   -0.3539 N   0  0  0  0  0  0  0  0  0  0  0  0
  -10.6448  -31.1929    0.6098 C   0  0  0  0  0  0  0  0  0  0  0  0
  -11.4387  -28.5041   -2.2104 O   0  0  0  0  0  0  0  0  0  0  0  0
  -12.1332  -31.3935    0.4054 C   0  0  0  0  0  0  0  0  0  0  0  0
  -14.8769  -29.9813   -1.6178 N   0  0  0  0  0  0  0  0  0  0  0  0
  -12.6434  -30.4850   -0.7054 C   0  0  1  0  0  0  0  0  0  0  0  0
  -14.0985  -30.9001   -1.0136 C   0  0  0  0  0  0  0  0  0  0  0  0
  -14.5061  -32.0271   -0.8574 O   0  0  0  0  0  0  0  0  0  0  0  0
  -11.9762  -28.1583   -1.1305 C   0  0  0  0  0  0  0  0  0  0  0  0
   -9.2015  -29.6817    1.7234 O   0  0  0  0  0  0  0  0  0  0  0  0
  -11.8832  -26.7313   -0.7112 C   0  0  0  0  0  0  0  0  0  0  0  0
  -11.3737  -29.7568    2.3817 O   0  0  0  0  0  0  0  0  0  0  0  0
  -10.5586  -26.5631    0.0116 C   0  0  0  0  0  0  0  0  0  0  0  0
  -10.4995  -25.2363    0.7197 C   0  0  0  0  0  0  0  0  0  0  0  0
   -9.5561  -24.2912    0.2908 C   0  0  0  0  0  0  0  0  0  0  0  0
   -9.4619  -23.0488    0.9202 C   0  0  0  0  0  0  0  0  0  0  0  0
  -10.3187  -22.6976    1.9847 C   0  0  0  0  0  0  0  0  0  0  0  0
  -11.2684  -23.6684    2.3958 C   0  0  0  0  0  0  0  0  0  0  0  0
  -11.3633  -24.9218    1.7828 C   0  0  0  0  0  0  0  0  0  0  0  0
  -10.0035  -18.8265    3.9356 C   0  0  0  0  0  0  0  0  0  0  0  0
  -10.8286  -19.8576    4.4554 C   0  0  0  0  0  0  0  0  0  0  0  0
  -10.9235  -21.0953    3.8245 C   0  0  0  0  0  0  0  0  0  0  0  0
  -10.2065  -21.3681    2.6434 C   0  0  0  0  0  0  0  0  0  0  0  0
   -9.3791  -20.3331    2.1273 C   0  0  0  0  0  0  0  0  0  0  0  0
   -9.2714  -19.0888    2.7645 C   0  0  0  0  0  0  0  0  0  0  0  0
   -9.8842  -17.5275    4.6348 C   0  0  0  0  0  0  0  0  0  0  0  0
   -9.6303  -16.2969    3.9765 C   0  0  0  0  0  0  0  0  0  0  0  0
   -9.5268  -15.1065    4.7116 C   0  0  0  0  0  0  0  0  0  0  0  0
   -9.6648  -15.1349    6.1133 C   0  0  0  0  0  0  0  0  0  0  0  0
   -9.9031  -16.3427    6.7802 C   0  0  0  0  0  0  0  0  0  0  0  0
  -10.0095  -17.5207    6.0449 C   0  0  0  0  0  0  0  0  0  0  0  0
  -13.0234  -28.8256    0.5521 H   0  0  0  0  0  0  0  0  0  0  0  0
  -10.2060  -32.1456    0.9320 H   0  0  0  0  0  0  0  0  0  0  0  0
  -10.1838  -30.9084   -0.3482 H   0  0  0  0  0  0  0  0  0  0  0  0
  -12.6834  -31.1742    1.3257 H   0  0  0  0  0  0  0  0  0  0  0  0
  -12.3268  -32.4478    0.1573 H   0  0  0  0  0  0  0  0  0  0  0  0
  -15.8217  -30.2541   -1.8251 H   0  0  0  0  0  0  0  0  0  0  0  0
  -14.5340  -29.0549   -1.7869 H   0  0  0  0  0  0  0  0  0  0  0  0
  -12.0456  -30.6604   -1.6131 H   0  0  0  0  0  0  0  0  0  0  0  0
  -12.7185  -26.4555   -0.0559 H   0  0  0  0  0  0  0  0  0  0  0  0
  -11.9189  -26.0512   -1.5831 H   0  0  0  0  0  0  0  0  0  0  0  0
   -9.7376  -26.6574   -0.7252 H   0  0  0  0  0  0  0  0  0  0  0  0
  -10.4329  -27.3782    0.7290 H   0  0  0  0  0  0  0  0  0  0  0  0
   -8.8964  -24.5524   -0.5403 H   0  0  0  0  0  0  0  0  0  0  0  0
   -8.7023  -22.3414    0.5928 H   0  0  0  0  0  0  0  0  0  0  0  0
  -11.9544  -23.4631    3.2202 H   0  0  0  0  0  0  0  0  0  0  0  0
  -12.1110  -25.6386    2.1462 H   0  0  0  0  0  0  0  0  0  0  0  0
  -11.4149  -19.7077    5.3714 H   0  0  0  0  0  0  0  0  0  0  0  0
  -11.5700  -21.8496    4.2758 H   0  0  0  0  0  0  0  0  0  0  0  0
   -8.8139  -20.5061    1.2068 H   0  0  0  0  0  0  0  0  0  0  0  0
   -8.6125  -18.3061    2.3767 H   0  0  0  0  0  0  0  0  0  0  0  0
   -9.5125  -16.2439    2.8869 H   0  0  0  0  0  0  0  0  0  0  0  0
   -9.3395  -14.1683    4.1835 H   0  0  0  0  0  0  0  0  0  0  0  0
   -9.5880  -14.2262    6.7009 H   0  0  0  0  0  0  0  0  0  0  0  0
  -10.0015  -16.3472    7.8686 H   0  0  0  0  0  0  0  0  0  0  0  0
  -10.1801  -18.4776    6.5475 H   0  0  0  0  0  0  0  0  0  0  0  0
  1  3  1  0  0  0  0
  1 11  2  0  0  0  0
  1 13  1  0  0  0  0
  2  7  1  0  0  0  0
  2 10  1  0  0  0  0
  2 33  1  0  0  0  0
  3  5  1  0  0  0  0
  3 34  1  0  0  0  0
  3 35  1  0  0  0  0
  4 10  2  0  0  0  0
  5  7  1  0  0  0  0
  5 36  1  0  0  0  0
  5 37  1  0  0  0  0
  6  8  1  0  0  0  0
  6 38  1  0  0  0  0
  6 39  1  0  0  0  0
  7  8  1  0  0  0  0
  7 40  1  6  0  0  0
  8  9  2  0  0  0  0
 10 12  1  0  0  0  0
 12 14  1  0  0  0  0
 12 41  1  0  0  0  0
 12 42  1  0  0  0  0
 14 15  1  0  0  0  0
 14 43  1  0  0  0  0
 14 44  1  0  0  0  0
 15 16  2  0  0  0  0
 15 20  1  0  0  0  0
 16 17  1  0  0  0  0
 16 45  1  0  0  0  0
 17 18  2  0  0  0  0
 17 46  1  0  0  0  0
 18 19  1  0  0  0  0
 18 24  1  0  0  0  0
 19 20  2  0  0  0  0
 19 47  1  0  0  0  0
 20 48  1  0  0  0  0
 21 22  2  0  0  0  0
 21 26  1  0  0  0  0
 21 27  1  0  0  0  0
 22 23  1  0  0  0  0
 22 49  1  0  0  0  0
 23 24  2  0  0  0  0
 23 50  1  0  0  0  0
 24 25  1  0  0  0  0
 25 26  2  0  0  0  0
 25 51  1  0  0  0  0
 26 52  1  0  0  0  0
 27 28  2  0  0  0  0
 27 32  1  0  0  0  0
 28 29  1  0  0  0  0
 28 53  1  0  0  0  0
 29 30  2  0  0  0  0
 29 54  1  0  0  0  0
 30 31  1  0  0  0  0
 30 55  1  0  0  0  0
 31 32  2  0  0  0  0
 31 56  1  0  0  0  0
 32 57  1  0  0  0  0
M  END
$$$$
