EAH
 OpenBabel04091911363D

 58 57  0  0  1  0  0  0  0  0999 V2000
  -12.9028   -6.9980    7.8920 O   0  0  0  0  0  0  0  0  0  0  0  0
  -14.0190   -6.5256    7.5216 C   0  0  0  0  0  0  0  0  0  0  0  0
  -15.1251   -6.5813    8.1082 O   0  0  0  0  0  0  0  0  0  0  0  0
  -13.9549   -5.8105    6.1744 C   0  0  0  0  0  0  0  0  0  0  0  0
  -15.1330   -4.8682    6.0265 C   0  0  0  0  0  0  0  0  0  0  0  0
  -14.7251   -3.4050    5.9800 C   0  0  0  0  0  0  0  0  0  0  0  0
  -15.8421   -2.6298    5.2990 C   0  0  2  0  0  0  0  0  0  0  0  0
  -15.7615   -2.8413    3.8863 O   0  0  0  0  0  0  0  0  0  0  0  0
  -15.7312   -1.1567    5.6424 C   0  0  0  0  0  0  0  0  0  0  0  0
  -16.6491   -0.3067    4.7926 C   0  0  0  0  0  0  0  0  0  0  0  0
  -15.8573    0.8236    4.1860 C   0  0  0  0  0  0  0  0  0  0  0  0
  -16.7216    1.4260    3.1259 C   0  0  0  0  0  0  0  0  0  0  0  0
  -15.8860    2.2638    2.2228 C   0  0  0  0  0  0  0  0  0  0  0  0
  -16.8399    2.7804    1.2015 C   0  0  0  0  0  0  0  0  0  0  0  0
  -16.4118    3.3900    0.1000 C   0  0  0  0  0  0  0  0  0  0  0  0
  -14.9679    3.6977   -0.1040 C   0  0  0  0  0  0  0  0  0  0  0  0
  -14.7652    5.1652   -0.1287 C   0  0  0  0  0  0  0  0  0  0  0  0
  -14.2191    5.8839   -1.0949 C   0  0  0  0  0  0  0  0  0  0  0  0
  -13.6702    5.3464   -2.3830 C   0  0  0  0  0  0  0  0  0  0  0  0
  -12.2138    4.9094   -2.2075 C   0  0  0  0  0  0  0  0  0  0  0  0
  -12.2035    3.4096   -1.9133 C   0  0  0  0  0  0  0  0  0  0  0  0
  -10.9954    2.6519   -2.4149 C   0  0  0  0  0  0  0  0  0  0  0  0
   -9.7889    2.8550   -1.5302 C   0  0  0  0  0  0  0  0  0  0  0  0
  -13.9916   -6.5614    5.3756 H   0  0  0  0  0  0  0  0  0  0  0  0
  -12.9957   -5.2893    6.0465 H   0  0  0  0  0  0  0  0  0  0  0  0
  -15.8448   -4.9390    6.8530 H   0  0  0  0  0  0  0  0  0  0  0  0
  -15.7004   -5.1642    5.1384 H   0  0  0  0  0  0  0  0  0  0  0  0
  -13.7769   -3.2729    5.4441 H   0  0  0  0  0  0  0  0  0  0  0  0
  -14.5855   -3.0421    7.0067 H   0  0  0  0  0  0  0  0  0  0  0  0
  -16.8241   -2.9854    5.6297 H   0  0  0  0  0  0  0  0  0  0  0  0
  -15.9666   -3.7825    3.7388 H   0  0  0  0  0  0  0  0  0  0  0  0
  -14.6907   -0.8259    5.5370 H   0  0  0  0  0  0  0  0  0  0  0  0
  -16.0059   -1.0172    6.6938 H   0  0  0  0  0  0  0  0  0  0  0  0
  -17.4620    0.1103    5.3947 H   0  0  0  0  0  0  0  0  0  0  0  0
  -17.1236   -0.8956    3.9978 H   0  0  0  0  0  0  0  0  0  0  0  0
  -14.9183    0.4587    3.7500 H   0  0  0  0  0  0  0  0  0  0  0  0
  -15.6040    1.5830    4.9355 H   0  0  0  0  0  0  0  0  0  0  0  0
  -17.5036    2.0470    3.5859 H   0  0  0  0  0  0  0  0  0  0  0  0
  -17.2029    0.6464    2.5191 H   0  0  0  0  0  0  0  0  0  0  0  0
  -15.1082    1.6288    1.7688 H   0  0  0  0  0  0  0  0  0  0  0  0
  -15.3985    3.0714    2.7833 H   0  0  0  0  0  0  0  0  0  0  0  0
  -17.9041    2.6098    1.3421 H   0  0  0  0  0  0  0  0  0  0  0  0
  -17.1360    3.6945   -0.6486 H   0  0  0  0  0  0  0  0  0  0  0  0
  -14.6584    3.1682   -1.0058 H   0  0  0  0  0  0  0  0  0  0  0  0
  -14.3306    3.3119    0.6969 H   0  0  0  0  0  0  0  0  0  0  0  0
  -15.1313    5.7088    0.7538 H   0  0  0  0  0  0  0  0  0  0  0  0
  -14.1304    6.9694   -0.9674 H   0  0  0  0  0  0  0  0  0  0  0  0
  -13.7489    6.1147   -3.1553 H   0  0  0  0  0  0  0  0  0  0  0  0
  -14.2958    4.5174   -2.7355 H   0  0  0  0  0  0  0  0  0  0  0  0
  -11.7213    5.4580   -1.3895 H   0  0  0  0  0  0  0  0  0  0  0  0
  -11.6564    5.1370   -3.1227 H   0  0  0  0  0  0  0  0  0  0  0  0
  -13.0550    2.9414   -2.4155 H   0  0  0  0  0  0  0  0  0  0  0  0
  -12.3291    3.2578   -0.8355 H   0  0  0  0  0  0  0  0  0  0  0  0
  -10.7676    2.9391   -3.4455 H   0  0  0  0  0  0  0  0  0  0  0  0
  -11.2545    1.5869   -2.4168 H   0  0  0  0  0  0  0  0  0  0  0  0
   -8.9601    2.2508   -1.9083 H   0  0  0  0  0  0  0  0  0  0  0  0
  -10.0044    2.5393   -0.5034 H   0  0  0  0  0  0  0  0  0  0  0  0
   -9.4852    3.9044   -1.5180 H   0  0  0  0  0  0  0  0  0  0  0  0
  1  2  2  0  0  0  0
  2  3  1  0  0  0  0
  2  4  1  0  0  0  0
  4  5  1  0  0  0  0
  4 24  1  0  0  0  0
  4 25  1  0  0  0  0
  5  6  1  0  0  0  0
  5 26  1  0  0  0  0
  5 27  1  0  0  0  0
  6  7  1  0  0  0  0
  6 28  1  0  0  0  0
  6 29  1  0  0  0  0
  7  8  1  0  0  0  0
  7  9  1  0  0  0  0
  7 30  1  1  0  0  0
  8 31  1  0  0  0  0
  9 10  1  0  0  0  0
  9 32  1  0  0  0  0
  9 33  1  0  0  0  0
 10 11  1  0  0  0  0
 10 34  1  0  0  0  0
 10 35  1  0  0  0  0
 11 12  1  0  0  0  0
 11 36  1  0  0  0  0
 11 37  1  0  0  0  0
 12 13  1  0  0  0  0
 12 38  1  0  0  0  0
 12 39  1  0  0  0  0
 13 14  1  0  0  0  0
 13 40  1  0  0  0  0
 13 41  1  0  0  0  0
 14 15  2  0  0  0  0
 14 42  1  0  0  0  0
 15 16  1  0  0  0  0
 15 43  1  0  0  0  0
 16 17  1  0  0  0  0
 16 44  1  0  0  0  0
 16 45  1  0  0  0  0
 17 18  2  0  0  0  0
 17 46  1  0  0  0  0
 18 19  1  0  0  0  0
 18 47  1  0  0  0  0
 19 20  1  0  0  0  0
 19 48  1  0  0  0  0
 19 49  1  0  0  0  0
 20 21  1  0  0  0  0
 20 50  1  0  0  0  0
 20 51  1  0  0  0  0
 21 22  1  0  0  0  0
 21 52  1  0  0  0  0
 21 53  1  0  0  0  0
 22 23  1  0  0  0  0
 22 54  1  0  0  0  0
 22 55  1  0  0  0  0
 23 56  1  0  0  0  0
 23 57  1  0  0  0  0
 23 58  1  0  0  0  0
M  END
$$$$
