EEF
 OpenBabel04091913353D

 62 63  0  0  1  0  0  0  0  0999 V2000
    7.9225   25.0910    3.4606 C   0  0  0  0  0  0  0  0  0  0  0  0
    8.1387   27.4036    4.3197 N   0  0  0  0  0  0  0  0  0  0  0  0
    6.8202   28.3125    6.5909 O   0  0  0  0  0  0  0  0  0  0  0  0
    8.7146   26.1547    4.2198 C   0  0  0  0  0  0  0  0  0  0  0  0
    8.7121   29.1353    7.5816 N   0  0  0  0  0  0  0  0  0  0  0  0
    9.8347   25.9025    4.6608 O   0  0  0  0  0  0  0  0  0  0  0  0
    8.7517   28.4949    5.1241 C   0  0  1  0  0  0  0  0  0  0  0  0
    5.6926   30.2637    9.2270 N   0  0  0  0  0  0  0  0  0  0  0  0
    8.6210   29.8726    4.4290 C   0  0  0  0  0  0  0  0  0  0  0  0
    9.4664   30.0532    3.1656 C   0  0  0  0  0  0  0  0  0  0  0  0
    7.1018   31.4697    7.9417 O   0  0  0  0  0  0  0  0  0  0  0  0
   10.1408   32.2521    2.5526 O   0  0  0  0  0  0  0  0  0  0  0  0
    8.2697   31.3596    1.5869 O   0  0  0  0  0  0  0  0  0  0  0  0
    9.2574   31.3603    2.3834 C   0  0  0  0  0  0  0  0  0  0  0  0
    8.0175   28.6081    6.4989 C   0  0  0  0  0  0  0  0  0  0  0  0
    7.9655   29.3680    8.8484 C   0  0  1  0  0  0  0  0  0  0  0  0
    8.8603   29.7627   10.0515 C   0  0  0  0  0  0  0  0  0  0  0  0
    8.7306   28.8200   11.2661 C   0  0  0  0  0  0  0  0  0  0  0  0
    6.9088   30.4734    8.6129 C   0  0  0  0  0  0  0  0  0  0  0  0
    7.7513   23.7979    4.2746 C   0  0  0  0  0  0  0  0  0  0  0  0
    6.3034   22.5772    5.9197 C   0  0  0  0  0  0  0  0  0  0  0  0
    5.0793   22.2977    6.5381 C   0  0  0  0  0  0  0  0  0  0  0  0
    3.9034   22.9890    6.2012 C   0  0  0  0  0  0  0  0  0  0  0  0
    6.3993   23.5701    4.9307 C   0  0  0  0  0  0  0  0  0  0  0  0
    2.6146   22.6787    6.8776 C   0  0  0  0  0  0  0  0  0  0  0  0
    2.5745   22.2588    8.2261 C   0  0  0  0  0  0  0  0  0  0  0  0
    1.3750   21.9385    8.8628 C   0  0  0  0  0  0  0  0  0  0  0  0
    0.1798   22.4584    6.8245 C   0  0  0  0  0  0  0  0  0  0  0  0
    1.4032   22.7848    6.1973 C   0  0  0  0  0  0  0  0  0  0  0  0
    0.1714   22.0409    8.1544 C   0  0  0  0  0  0  0  0  0  0  0  0
    3.9997   23.9713    5.2006 C   0  0  0  0  0  0  0  0  0  0  0  0
    5.2245   24.2507    4.5742 C   0  0  0  0  0  0  0  0  0  0  0  0
    7.5495   28.9458   12.2463 C   0  0  0  0  0  0  0  0  0  0  0  0
    7.5107   28.0659   13.1540 O   0  0  0  0  0  0  0  0  0  0  0  0
    6.7533   29.8999   12.0312 O   0  0  0  0  0  0  0  0  0  0  0  0
    8.4897   24.8528    2.5487 H   0  0  0  0  0  0  0  0  0  0  0  0
    6.9774   25.4960    3.1098 H   0  0  0  0  0  0  0  0  0  0  0  0
    7.1820   27.5556    4.0195 H   0  0  0  0  0  0  0  0  0  0  0  0
    9.6783   29.4269    7.4923 H   0  0  0  0  0  0  0  0  0  0  0  0
    9.8003   28.2393    5.3066 H   0  0  0  0  0  0  0  0  0  0  0  0
    5.5972   29.5497    9.9407 H   0  0  0  0  0  0  0  0  0  0  0  0
    5.0160   31.0010    9.1959 H   0  0  0  0  0  0  0  0  0  0  0  0
    8.9168   30.6443    5.1494 H   0  0  0  0  0  0  0  0  0  0  0  0
    7.5646   30.0509    4.1934 H   0  0  0  0  0  0  0  0  0  0  0  0
    9.2546   29.2347    2.4730 H   0  0  0  0  0  0  0  0  0  0  0  0
   10.5271   29.9936    3.4338 H   0  0  0  0  0  0  0  0  0  0  0  0
    7.4407   28.4329    9.0604 H   0  0  0  0  0  0  0  0  0  0  0  0
    8.6329   30.7865   10.3777 H   0  0  0  0  0  0  0  0  0  0  0  0
    9.9153   29.7675    9.7464 H   0  0  0  0  0  0  0  0  0  0  0  0
    9.6213   28.9780   11.8897 H   0  0  0  0  0  0  0  0  0  0  0  0
    8.7736   27.7829   10.9109 H   0  0  0  0  0  0  0  0  0  0  0  0
    8.5288   23.7465    5.0497 H   0  0  0  0  0  0  0  0  0  0  0  0
    7.9332   22.9356    3.6126 H   0  0  0  0  0  0  0  0  0  0  0  0
    7.1879   22.0222    6.2221 H   0  0  0  0  0  0  0  0  0  0  0  0
    5.0527   21.5115    7.2921 H   0  0  0  0  0  0  0  0  0  0  0  0
    3.4923   22.1889    8.8102 H   0  0  0  0  0  0  0  0  0  0  0  0
    1.3717   21.6220    9.9014 H   0  0  0  0  0  0  0  0  0  0  0  0
   -0.7585   22.5366    6.2853 H   0  0  0  0  0  0  0  0  0  0  0  0
    1.3689   23.0823    5.1534 H   0  0  0  0  0  0  0  0  0  0  0  0
   -0.7578   21.7955    8.6461 H   0  0  0  0  0  0  0  0  0  0  0  0
    3.1293   24.5549    4.8958 H   0  0  0  0  0  0  0  0  0  0  0  0
    5.2148   25.0259    3.8161 H   0  0  0  0  0  0  0  0  0  0  0  0
  1  4  1  0  0  0  0
  1 20  1  0  0  0  0
  1 36  1  0  0  0  0
  1 37  1  0  0  0  0
  2  4  1  0  0  0  0
  2  7  1  0  0  0  0
  2 38  1  0  0  0  0
  3 15  2  0  0  0  0
  4  6  2  0  0  0  0
  5 15  1  0  0  0  0
  5 16  1  0  0  0  0
  5 39  1  0  0  0  0
  7  9  1  0  0  0  0
  7 15  1  0  0  0  0
  7 40  1  1  0  0  0
  8 19  1  0  0  0  0
  8 41  1  0  0  0  0
  8 42  1  0  0  0  0
  9 10  1  0  0  0  0
  9 43  1  0  0  0  0
  9 44  1  0  0  0  0
 10 14  1  0  0  0  0
 10 45  1  0  0  0  0
 10 46  1  0  0  0  0
 11 19  2  0  0  0  0
 12 14  2  0  0  0  0
 13 14  1  0  0  0  0
 16 17  1  0  0  0  0
 16 19  1  0  0  0  0
 16 47  1  1  0  0  0
 17 18  1  0  0  0  0
 17 48  1  0  0  0  0
 17 49  1  0  0  0  0
 18 33  1  0  0  0  0
 18 50  1  0  0  0  0
 18 51  1  0  0  0  0
 20 24  1  0  0  0  0
 20 52  1  0  0  0  0
 20 53  1  0  0  0  0
 21 22  2  0  0  0  0
 21 24  1  0  0  0  0
 21 54  1  0  0  0  0
 22 23  1  0  0  0  0
 22 55  1  0  0  0  0
 23 25  1  0  0  0  0
 23 31  2  0  0  0  0
 24 32  2  0  0  0  0
 25 26  2  0  0  0  0
 25 29  1  0  0  0  0
 26 27  1  0  0  0  0
 26 56  1  0  0  0  0
 27 30  2  0  0  0  0
 27 57  1  0  0  0  0
 28 29  2  0  0  0  0
 28 30  1  0  0  0  0
 28 58  1  0  0  0  0
 29 59  1  0  0  0  0
 30 60  1  0  0  0  0
 31 32  1  0  0  0  0
 31 61  1  0  0  0  0
 32 62  1  0  0  0  0
 33 34  2  0  0  0  0
 33 35  1  0  0  0  0
M  END
$$$$
