EEG
 OpenBabel04091915473D

 69 71  0  0  1  0  0  0  0  0999 V2000
   10.2778   26.6872    3.3784 O   0  0  0  0  0  0  0  0  0  0  0  0
    2.8590   22.5308    7.8234 S   0  0  0  0  0  0  0  0  0  0  0  0
    9.1811   26.7668    2.8324 C   0  0  0  0  0  0  0  0  0  0  0  0
    7.9118   26.4798    3.5946 C   0  0  0  0  0  0  0  0  0  0  0  0
    7.4721   25.0349    3.3519 C   0  0  0  0  0  0  0  0  0  0  0  0
    4.9852   25.0914    3.7783 C   0  0  0  0  0  0  0  0  0  0  0  0
    5.2558   23.5134    6.0403 C   0  0  0  0  0  0  0  0  0  0  0  0
    3.9672   23.9290    5.6685 C   0  0  0  0  0  0  0  0  0  0  0  0
    3.8562   24.7307    4.5115 C   0  0  0  0  0  0  0  0  0  0  0  0
    2.7612   23.5527    6.4392 C   0  0  0  0  0  0  0  0  0  0  0  0
    1.4379   23.9176    6.2260 C   0  0  0  0  0  0  0  0  0  0  0  0
    0.5176   23.4005    7.1978 C   0  0  0  0  0  0  0  0  0  0  0  0
   -0.9242   23.6387    7.2582 C   0  0  0  0  0  0  0  0  0  0  0  0
   -1.4721   24.7844    6.6608 C   0  0  0  0  0  0  0  0  0  0  0  0
   -2.8428   25.0267    6.6931 C   0  0  0  0  0  0  0  0  0  0  0  0
   -3.6968   24.1292    7.3326 C   0  0  0  0  0  0  0  0  0  0  0  0
   -3.1672   22.9864    7.9384 C   0  0  0  0  0  0  0  0  0  0  0  0
   -1.7957   22.7396    7.8956 C   0  0  0  0  0  0  0  0  0  0  0  0
    6.2562   24.6737    4.1601 C   0  0  0  0  0  0  0  0  0  0  0  0
    6.3870   23.8763    5.3091 C   0  0  0  0  0  0  0  0  0  0  0  0
    1.1866   22.6325    8.1278 C   0  0  0  0  0  0  0  0  0  0  0  0
    8.9960   27.1008    1.5117 N   0  0  0  0  0  0  0  0  0  0  0  0
   10.1368   27.1498    0.5920 C   0  0  2  0  0  0  0  0  0  0  0  0
   10.7360   28.5657    0.3982 C   0  0  0  0  0  0  0  0  0  0  0  0
   11.8213   28.7313   -0.1634 O   0  0  0  0  0  0  0  0  0  0  0  0
    9.7889   26.5131   -0.7634 C   0  0  0  0  0  0  0  0  0  0  0  0
    9.5160   25.0081   -0.6320 C   0  0  0  0  0  0  0  0  0  0  0  0
    8.0835   24.6023   -0.2836 C   0  0  0  0  0  0  0  0  0  0  0  0
    7.2011   25.5011   -0.3742 O   0  0  0  0  0  0  0  0  0  0  0  0
    7.9607   23.4120    0.1263 O   0  0  0  0  0  0  0  0  0  0  0  0
    9.9735   29.6119    0.8731 N   0  0  0  0  0  0  0  0  0  0  0  0
   10.3710   30.9933    0.6755 C   0  0  2  0  0  0  0  0  0  0  0  0
   10.6272   31.6389    2.0684 C   0  0  0  0  0  0  0  0  0  0  0  0
   10.0766   31.3033    3.1153 O   0  0  0  0  0  0  0  0  0  0  0  0
    9.3272   31.8544   -0.0525 C   0  0  0  0  0  0  0  0  0  0  0  0
    8.4568   31.1319   -1.0833 C   0  0  0  0  0  0  0  0  0  0  0  0
    9.1083   31.1752   -2.4602 C   0  0  0  0  0  0  0  0  0  0  0  0
    9.6071   30.1021   -2.8698 O   0  0  0  0  0  0  0  0  0  0  0  0
    9.0595   32.3086   -3.0253 O   0  0  0  0  0  0  0  0  0  0  0  0
   11.4548   32.7357    2.0558 N   0  0  0  0  0  0  0  0  0  0  0  0
    7.1324   27.1933    3.2930 H   0  0  0  0  0  0  0  0  0  0  0  0
    8.1048   26.6538    4.6593 H   0  0  0  0  0  0  0  0  0  0  0  0
    8.2992   24.3504    3.5812 H   0  0  0  0  0  0  0  0  0  0  0  0
    7.2424   24.8814    2.2979 H   0  0  0  0  0  0  0  0  0  0  0  0
    4.8717   25.6943    2.8692 H   0  0  0  0  0  0  0  0  0  0  0  0
    5.4181   22.8844    6.9154 H   0  0  0  0  0  0  0  0  0  0  0  0
    2.9032   25.0765    4.1574 H   0  0  0  0  0  0  0  0  0  0  0  0
    1.1409   24.5392    5.3985 H   0  0  0  0  0  0  0  0  0  0  0  0
   -0.8335   25.5132    6.1623 H   0  0  0  0  0  0  0  0  0  0  0  0
   -3.2481   25.9153    6.2157 H   0  0  0  0  0  0  0  0  0  0  0  0
   -4.7630   24.3162    7.3595 H   0  0  0  0  0  0  0  0  0  0  0  0
   -3.8286   22.2833    8.4333 H   0  0  0  0  0  0  0  0  0  0  0  0
   -1.4208   21.8308    8.3539 H   0  0  0  0  0  0  0  0  0  0  0  0
    7.3635   23.5270    5.6220 H   0  0  0  0  0  0  0  0  0  0  0  0
    0.7893   22.1168    8.9908 H   0  0  0  0  0  0  0  0  0  0  0  0
    8.0913   26.9147    1.0699 H   0  0  0  0  0  0  0  0  0  0  0  0
   10.9539   26.5717    1.0451 H   0  0  0  0  0  0  0  0  0  0  0  0
   10.6314   26.6491   -1.4509 H   0  0  0  0  0  0  0  0  0  0  0  0
    8.9379   27.0341   -1.2190 H   0  0  0  0  0  0  0  0  0  0  0  0
   10.1825   24.5761    0.1263 H   0  0  0  0  0  0  0  0  0  0  0  0
    9.7643   24.5182   -1.5810 H   0  0  0  0  0  0  0  0  0  0  0  0
    9.1890   29.3874    1.4681 H   0  0  0  0  0  0  0  0  0  0  0  0
   11.3120   31.0257    0.1229 H   0  0  0  0  0  0  0  0  0  0  0  0
    9.8561   32.6956   -0.5238 H   0  0  0  0  0  0  0  0  0  0  0  0
    8.6539   32.3159    0.6802 H   0  0  0  0  0  0  0  0  0  0  0  0
    7.4979   31.6579   -1.1629 H   0  0  0  0  0  0  0  0  0  0  0  0
    8.2118   30.1064   -0.7903 H   0  0  0  0  0  0  0  0  0  0  0  0
   11.6543   33.1760    2.9420 H   0  0  0  0  0  0  0  0  0  0  0  0
   11.9726   32.9976    1.2326 H   0  0  0  0  0  0  0  0  0  0  0  0
  1  3  2  0  0  0  0
  2 10  1  0  0  0  0
  2 21  1  0  0  0  0
  3  4  1  0  0  0  0
  3 22  1  0  0  0  0
  4  5  1  0  0  0  0
  4 41  1  0  0  0  0
  4 42  1  0  0  0  0
  5 19  1  0  0  0  0
  5 43  1  0  0  0  0
  5 44  1  0  0  0  0
  6  9  2  0  0  0  0
  6 19  1  0  0  0  0
  6 45  1  0  0  0  0
  7  8  2  0  0  0  0
  7 20  1  0  0  0  0
  7 46  1  0  0  0  0
  8  9  1  0  0  0  0
  8 10  1  0  0  0  0
  9 47  1  0  0  0  0
 10 11  2  0  0  0  0
 11 12  1  0  0  0  0
 11 48  1  0  0  0  0
 12 13  1  0  0  0  0
 12 21  2  0  0  0  0
 13 14  2  0  0  0  0
 13 18  1  0  0  0  0
 14 15  1  0  0  0  0
 14 49  1  0  0  0  0
 15 16  2  0  0  0  0
 15 50  1  0  0  0  0
 16 17  1  0  0  0  0
 16 51  1  0  0  0  0
 17 18  2  0  0  0  0
 17 52  1  0  0  0  0
 18 53  1  0  0  0  0
 19 20  2  0  0  0  0
 20 54  1  0  0  0  0
 21 55  1  0  0  0  0
 22 23  1  0  0  0  0
 22 56  1  0  0  0  0
 23 24  1  0  0  0  0
 23 26  1  0  0  0  0
 23 57  1  1  0  0  0
 24 25  2  0  0  0  0
 24 31  1  0  0  0  0
 26 27  1  0  0  0  0
 26 58  1  0  0  0  0
 26 59  1  0  0  0  0
 27 28  1  0  0  0  0
 27 60  1  0  0  0  0
 27 61  1  0  0  0  0
 28 29  2  0  0  0  0
 28 30  1  0  0  0  0
 31 32  1  0  0  0  0
 31 62  1  0  0  0  0
 32 33  1  0  0  0  0
 32 35  1  0  0  0  0
 32 63  1  6  0  0  0
 33 34  2  0  0  0  0
 33 40  1  0  0  0  0
 35 36  1  0  0  0  0
 35 64  1  0  0  0  0
 35 65  1  0  0  0  0
 36 37  1  0  0  0  0
 36 66  1  0  0  0  0
 36 67  1  0  0  0  0
 37 38  2  0  0  0  0
 37 39  1  0  0  0  0
 40 68  1  0  0  0  0
 40 69  1  0  0  0  0
M  END
$$$$
