EML
 OpenBabel04091913553D

 58 61  0  0  1  0  0  0  0  0999 V2000
   -6.5693   28.8679   76.3291 C   0  0  0  0  0  0  0  0  0  0  0  0
   -2.8027   32.8724   78.9848 N   0  0  0  0  0  0  0  0  0  0  0  0
   -1.9486   36.2651   84.9512 O   0  0  0  0  0  0  0  0  0  0  0  0
   -2.4584   33.0581   81.7410 S   0  0  0  0  0  0  0  0  0  0  0  0
   -5.6173   29.7880   79.1784 C   0  0  0  0  0  0  0  0  0  0  0  0
   -4.0292   31.5687   76.5378 N   0  3  0  0  0  0  0  0  0  0  0  0
   -5.1461   30.3591   80.2706 C   0  0  0  0  0  0  0  0  0  0  0  0
   -5.1745   30.2892   77.9545 N   0  3  0  0  0  0  0  0  0  0  0  0
    1.1771   36.3710   84.0500 C   0  0  0  0  0  0  0  0  0  0  0  0
   -7.7241   27.3025   75.2990 N   0  3  0  0  0  0  0  0  0  0  0  0
   -3.7550   31.8571   79.0895 C   0  0  0  0  0  0  0  0  0  0  0  0
   -8.4512   27.6144   76.4161 N   0  0  0  0  0  0  0  0  0  0  0  0
   -4.2405   31.2950   77.8638 C   0  0  0  0  0  0  0  0  0  0  0  0
   -1.4510   34.2003   82.3982 N   0  0  0  0  0  0  0  0  0  0  0  0
   -5.5611   29.8831   76.7078 C   0  0  0  0  0  0  0  0  0  0  0  0
   -4.2116   31.4100   80.2378 N   0  0  0  0  0  0  0  0  0  0  0  0
   -7.7429   28.5606   77.0295 C   0  0  0  0  0  0  0  0  0  0  0  0
   -0.0187   36.5013   83.1495 N   0  3  2  0  0  0  0  0  0  0  0  0
   -4.8458   30.6882   75.8336 C   0  0  0  0  0  0  0  0  0  0  0  0
   -6.5742   28.0590   75.2247 C   0  0  0  0  0  0  0  0  0  0  0  0
   -2.2007   33.4687   80.0728 C   0  0  0  0  0  0  0  0  0  0  0  0
   -1.2749   34.5018   80.0713 C   0  0  0  0  0  0  0  0  0  0  0  0
    0.1155   35.9519   81.7466 C   0  0  0  0  0  0  0  0  0  0  0  0
   -0.8863   34.8690   81.4147 C   0  0  0  0  0  0  0  0  0  0  0  0
   -0.8178   37.7976   83.3867 C   0  0  0  0  0  0  0  0  0  0  0  0
    1.9167   35.0573   84.0072 C   0  0  0  0  0  0  0  0  0  0  0  0
   -1.7027   37.6395   84.6503 C   0  0  0  0  0  0  0  0  0  0  0  0
   -1.8501   38.0348   82.3089 C   0  0  0  0  0  0  0  0  0  0  0  0
   -5.5747   29.8855   81.6582 C   0  0  0  0  0  0  0  0  0  0  0  0
    0.0686   39.0361   83.4083 C   0  0  0  0  0  0  0  0  0  0  0  0
   -2.5462   33.2089   78.0843 H   0  0  0  0  0  0  0  0  0  0  0  0
   -2.4531   35.8348   84.2373 H   0  0  0  0  0  0  0  0  0  0  0  0
   -6.3492   28.9564   79.2119 H   0  0  0  0  0  0  0  0  0  0  0  0
    0.7917   36.4971   85.0630 H   0  0  0  0  0  0  0  0  0  0  0  0
    1.8744   37.1602   83.7813 H   0  0  0  0  0  0  0  0  0  0  0  0
   -8.0600   26.5918   74.6428 H   0  0  0  0  0  0  0  0  0  0  0  0
   -8.1067   29.0342   77.9621 H   0  0  0  0  0  0  0  0  0  0  0  0
   -4.8794   30.7376   74.7681 H   0  0  0  0  0  0  0  0  0  0  0  0
   -5.8698   27.9268   74.4162 H   0  0  0  0  0  0  0  0  0  0  0  0
   -0.8826   34.9863   79.1893 H   0  0  0  0  0  0  0  0  0  0  0  0
    1.1016   35.5204   81.6470 H   0  0  0  0  0  0  0  0  0  0  0  0
    0.0156   36.7605   81.0345 H   0  0  0  0  0  0  0  0  0  0  0  0
    2.7403   35.1152   84.7308 H   0  0  0  0  0  0  0  0  0  0  0  0
    2.3591   34.8770   83.0258 H   0  0  0  0  0  0  0  0  0  0  0  0
    1.2700   34.2214   84.2813 H   0  0  0  0  0  0  0  0  0  0  0  0
   -1.2206   38.1101   85.5068 H   0  0  0  0  0  0  0  0  0  0  0  0
   -2.6680   38.1337   84.4829 H   0  0  0  0  0  0  0  0  0  0  0  0
   -2.3920   38.9539   82.5684 H   0  0  0  0  0  0  0  0  0  0  0  0
   -2.5588   37.2062   82.2764 H   0  0  0  0  0  0  0  0  0  0  0  0
   -1.3734   38.1832   81.3478 H   0  0  0  0  0  0  0  0  0  0  0  0
   -5.0880   30.4653   82.4508 H   0  0  0  0  0  0  0  0  0  0  0  0
   -5.3100   28.8268   81.8038 H   0  0  0  0  0  0  0  0  0  0  0  0
   -6.6636   29.9853   81.7857 H   0  0  0  0  0  0  0  0  0  0  0  0
   -0.5496   39.9255   83.5841 H   0  0  0  0  0  0  0  0  0  0  0  0
    0.5773   39.1635   82.4453 H   0  0  0  0  0  0  0  0  0  0  0  0
    0.8162   38.9875   84.2010 H   0  0  0  0  0  0  0  0  0  0  0  0
   -3.4211   32.2917   76.1598 H   0  0  0  0  0  0  0  0  0  0  0  0
   -0.6502   35.8180   83.5760 H   0  0  0  0  0  0  0  0  0  0  0  0
  1 15  1  0  0  0  0
  1 17  2  0  0  0  0
  1 20  1  0  0  0  0
  2 11  1  0  0  0  0
  2 21  1  0  0  0  0
  2 31  1  0  0  0  0
  3 27  1  0  0  0  0
  3 32  1  0  0  0  0
  4 14  1  0  0  0  0
  4 21  1  0  0  0  0
  5  7  2  0  0  0  0
  5  8  1  0  0  0  0
  5 33  1  0  0  0  0
  6 13  1  0  0  0  0
  6 19  2  0  0  0  0
  6 57  1  0  0  0  0
  7 16  1  0  0  0  0
  7 29  1  0  0  0  0
  8 13  1  0  0  0  0
  8 15  2  0  0  0  0
  9 18  1  0  0  0  0
  9 26  1  0  0  0  0
  9 34  1  0  0  0  0
  9 35  1  0  0  0  0
 10 12  1  0  0  0  0
 10 20  2  0  0  0  0
 10 36  1  0  0  0  0
 11 13  2  0  0  0  0
 11 16  1  0  0  0  0
 12 17  1  0  0  0  0
 14 24  2  0  0  0  0
 15 19  1  0  0  0  0
 17 37  1  0  0  0  0
 18 23  1  0  0  0  0
 18 25  1  0  0  0  0
 18 58  1  1  0  0  0
 19 38  1  0  0  0  0
 20 39  1  0  0  0  0
 21 22  2  0  0  0  0
 22 24  1  0  0  0  0
 22 40  1  0  0  0  0
 23 24  1  0  0  0  0
 23 41  1  0  0  0  0
 23 42  1  0  0  0  0
 25 27  1  0  0  0  0
 25 28  1  0  0  0  0
 25 30  1  0  0  0  0
 26 43  1  0  0  0  0
 26 44  1  0  0  0  0
 26 45  1  0  0  0  0
 27 46  1  0  0  0  0
 27 47  1  0  0  0  0
 28 48  1  0  0  0  0
 28 49  1  0  0  0  0
 28 50  1  0  0  0  0
 29 51  1  0  0  0  0
 29 52  1  0  0  0  0
 29 53  1  0  0  0  0
 30 54  1  0  0  0  0
 30 55  1  0  0  0  0
 30 56  1  0  0  0  0
M  CHG  4   6   1   8   1  10   1  18   1
M  END
$$$$
