EMO
 OpenBabel04091911043D

 28 30  0  0  0  0  0  0  0  0999 V2000
   17.2867  -55.3377  -46.8385 C   0  0  0  0  0  0  0  0  0  0  0  0
   17.5646  -55.1123  -48.0636 O   0  0  0  0  0  0  0  0  0  0  0  0
   17.1049  -56.6744  -46.4495 C   0  0  0  0  0  0  0  0  0  0  0  0
   16.8223  -57.0461  -45.1476 C   0  0  0  0  0  0  0  0  0  0  0  0
   16.6114  -58.3599  -44.8607 O   0  0  0  0  0  0  0  0  0  0  0  0
   16.7182  -56.1071  -44.1467 C   0  0  0  0  0  0  0  0  0  0  0  0
   16.8762  -54.7535  -44.4695 C   0  0  0  0  0  0  0  0  0  0  0  0
   16.7327  -53.7518  -43.4015 C   0  0  0  0  0  0  0  0  0  0  0  0
   16.4628  -54.1108  -42.2509 O   0  0  0  0  0  0  0  0  0  0  0  0
   16.9030  -52.3173  -43.6948 C   0  0  0  0  0  0  0  0  0  0  0  0
   16.7630  -51.4034  -42.6389 C   0  0  0  0  0  0  0  0  0  0  0  0
   16.9240  -50.0460  -42.8835 C   0  0  0  0  0  0  0  0  0  0  0  0
   16.7894  -49.0216  -41.8080 C   0  0  0  0  0  0  0  0  0  0  0  0
   17.2200  -49.6300  -44.1820 C   0  0  0  0  0  0  0  0  0  0  0  0
   17.3632  -50.4851  -45.2810 C   0  0  0  0  0  0  0  0  0  0  0  0
   17.6249  -49.9422  -46.4065 O   0  0  0  0  0  0  0  0  0  0  0  0
   17.1954  -51.8795  -44.9940 C   0  0  0  0  0  0  0  0  0  0  0  0
   17.3228  -52.8933  -46.0746 C   0  0  0  0  0  0  0  0  0  0  0  0
   17.5528  -52.5393  -47.2167 O   0  0  0  0  0  0  0  0  0  0  0  0
   17.1584  -54.3666  -45.7887 C   0  0  0  0  0  0  0  0  0  0  0  0
   17.2109  -57.3957  -47.2486 H   0  0  0  0  0  0  0  0  0  0  0  0
   15.9661  -58.6419  -45.5322 H   0  0  0  0  0  0  0  0  0  0  0  0
   16.5000  -56.4334  -43.1372 H   0  0  0  0  0  0  0  0  0  0  0  0
   16.5352  -51.7551  -41.6367 H   0  0  0  0  0  0  0  0  0  0  0  0
   16.9473  -48.0096  -42.2010 H   0  0  0  0  0  0  0  0  0  0  0  0
   17.5327  -49.1969  -41.0267 H   0  0  0  0  0  0  0  0  0  0  0  0
   15.7851  -49.0561  -41.3788 H   0  0  0  0  0  0  0  0  0  0  0  0
   17.3553  -48.5716  -44.3991 H   0  0  0  0  0  0  0  0  0  0  0  0
  1  2  1  0  0  0  0
  1  3  2  0  0  0  0
  1 20  1  0  0  0  0
  3  4  1  0  0  0  0
  3 21  1  0  0  0  0
  4  5  1  0  0  0  0
  4  6  2  0  0  0  0
  5 22  1  0  0  0  0
  6  7  1  0  0  0  0
  6 23  1  0  0  0  0
  7  8  1  0  0  0  0
  7 20  2  0  0  0  0
  8  9  2  0  0  0  0
  8 10  1  0  0  0  0
 10 11  2  0  0  0  0
 10 17  1  0  0  0  0
 11 12  1  0  0  0  0
 11 24  1  0  0  0  0
 12 13  1  0  0  0  0
 12 14  2  0  0  0  0
 13 25  1  0  0  0  0
 13 26  1  0  0  0  0
 13 27  1  0  0  0  0
 14 15  1  0  0  0  0
 14 28  1  0  0  0  0
 15 16  1  0  0  0  0
 15 17  2  0  0  0  0
 17 18  1  0  0  0  0
 18 19  2  0  0  0  0
 18 20  1  0  0  0  0
M  END
$$$$
