EMO
 OpenBabel04091911403D

 28 30  0  0  0  0  0  0  0  0999 V2000
  -51.4660  -14.8711  -11.0983 C   0  0  0  0  0  0  0  0  0  0  0  0
  -51.1044  -13.7528  -10.5983 O   0  0  0  0  0  0  0  0  0  0  0  0
  -50.4844  -15.8410  -11.2907 C   0  0  0  0  0  0  0  0  0  0  0  0
  -50.7514  -17.0943  -11.8198 C   0  0  0  0  0  0  0  0  0  0  0  0
  -49.7465  -17.9955  -11.9960 O   0  0  0  0  0  0  0  0  0  0  0  0
  -52.0234  -17.4514  -12.1901 C   0  0  0  0  0  0  0  0  0  0  0  0
  -53.0390  -16.5263  -12.0253 C   0  0  0  0  0  0  0  0  0  0  0  0
  -54.3966  -16.8894  -12.4182 C   0  0  0  0  0  0  0  0  0  0  0  0
  -54.6187  -18.0058  -12.8986 O   0  0  0  0  0  0  0  0  0  0  0  0
  -55.4957  -15.9443  -12.2469 C   0  0  0  0  0  0  0  0  0  0  0  0
  -56.7764  -16.3297  -12.6283 C   0  0  0  0  0  0  0  0  0  0  0  0
  -57.8227  -15.4361  -12.4820 C   0  0  0  0  0  0  0  0  0  0  0  0
  -59.1971  -15.8259  -12.8820 C   0  0  0  0  0  0  0  0  0  0  0  0
  -57.5799  -14.1673  -11.9566 C   0  0  0  0  0  0  0  0  0  0  0  0
  -56.3233  -13.7264  -11.5533 C   0  0  0  0  0  0  0  0  0  0  0  0
  -56.2366  -12.5430  -11.0820 O   0  0  0  0  0  0  0  0  0  0  0  0
  -55.2767  -14.6719  -11.7285 C   0  0  0  0  0  0  0  0  0  0  0  0
  -53.8833  -14.3216  -11.3910 C   0  0  0  0  0  0  0  0  0  0  0  0
  -53.6635  -13.2500  -10.8871 O   0  0  0  0  0  0  0  0  0  0  0  0
  -52.7707  -15.2680  -11.4972 C   0  0  0  0  0  0  0  0  0  0  0  0
  -49.4881  -15.5557  -10.9770 H   0  0  0  0  0  0  0  0  0  0  0  0
  -49.0871  -17.5115  -12.5201 H   0  0  0  0  0  0  0  0  0  0  0  0
  -52.2261  -18.4264  -12.6101 H   0  0  0  0  0  0  0  0  0  0  0  0
  -56.9448  -17.3180  -13.0330 H   0  0  0  0  0  0  0  0  0  0  0  0
  -59.9014  -15.0102  -12.7004 H   0  0  0  0  0  0  0  0  0  0  0  0
  -59.5097  -16.6956  -12.3001 H   0  0  0  0  0  0  0  0  0  0  0  0
  -59.2075  -16.0685  -13.9467 H   0  0  0  0  0  0  0  0  0  0  0  0
  -58.3843  -13.4495  -11.8357 H   0  0  0  0  0  0  0  0  0  0  0  0
  1  2  1  0  0  0  0
  1  3  2  0  0  0  0
  1 20  1  0  0  0  0
  3  4  1  0  0  0  0
  3 21  1  0  0  0  0
  4  5  1  0  0  0  0
  4  6  2  0  0  0  0
  5 22  1  0  0  0  0
  6  7  1  0  0  0  0
  6 23  1  0  0  0  0
  7  8  1  0  0  0  0
  7 20  2  0  0  0  0
  8  9  2  0  0  0  0
  8 10  1  0  0  0  0
 10 11  2  0  0  0  0
 10 17  1  0  0  0  0
 11 12  1  0  0  0  0
 11 24  1  0  0  0  0
 12 13  1  0  0  0  0
 12 14  2  0  0  0  0
 13 25  1  0  0  0  0
 13 26  1  0  0  0  0
 13 27  1  0  0  0  0
 14 15  1  0  0  0  0
 14 28  1  0  0  0  0
 15 16  1  0  0  0  0
 15 17  2  0  0  0  0
 17 18  1  0  0  0  0
 18 19  2  0  0  0  0
 18 20  1  0  0  0  0
M  END
$$$$
