EOL
 OpenBabel04091915093D

 24 24  0  0  0  0  0  0  0  0999 V2000
    2.5957  -10.7028  -10.6501 C   0  0  0  0  0  0  0  0  0  0  0  0
    3.0108  -13.2474   -8.0307 O   0  0  0  0  0  0  0  0  0  0  0  0
    2.7677  -11.5162  -11.7952 C   0  0  0  0  0  0  0  0  0  0  0  0
    2.5591  -10.5442   -8.1951 O   0  0  0  0  0  0  0  0  0  0  0  0
    2.6704  -11.2532   -9.3676 C   0  0  0  0  0  0  0  0  0  0  0  0
    2.9868  -12.8840  -11.6378 C   0  0  0  0  0  0  0  0  0  0  0  0
    2.8824  -12.6268   -9.2498 C   0  0  0  0  0  0  0  0  0  0  0  0
    3.0244  -13.4423  -10.3554 C   0  0  0  0  0  0  0  0  0  0  0  0
    2.7075  -10.9168  -13.1854 C   0  0  0  0  0  0  0  0  0  0  0  0
    3.6631   -9.7832  -13.4492 C   0  0  0  0  0  0  0  0  0  0  0  0
    4.8446   -9.6027  -12.8371 C   0  0  0  0  0  0  0  0  0  0  0  0
    2.3684   -9.1394   -8.3091 C   0  0  0  0  0  0  0  0  0  0  0  0
    2.4476   -9.6404  -10.7990 H   0  0  0  0  0  0  0  0  0  0  0  0
    3.4652  -12.6044   -7.4651 H   0  0  0  0  0  0  0  0  0  0  0  0
    3.1429  -13.5283  -12.5008 H   0  0  0  0  0  0  0  0  0  0  0  0
    3.2067  -14.5089  -10.2364 H   0  0  0  0  0  0  0  0  0  0  0  0
    1.6775  -10.5723  -13.3565 H   0  0  0  0  0  0  0  0  0  0  0  0
    2.8987  -11.6938  -13.9372 H   0  0  0  0  0  0  0  0  0  0  0  0
    3.3574   -9.0700  -14.2113 H   0  0  0  0  0  0  0  0  0  0  0  0
    5.4841   -8.7641  -13.0802 H   0  0  0  0  0  0  0  0  0  0  0  0
    5.1984  -10.2961  -12.0816 H   0  0  0  0  0  0  0  0  0  0  0  0
    2.2520   -8.7271   -7.3023 H   0  0  0  0  0  0  0  0  0  0  0  0
    1.4594   -8.8934   -8.8702 H   0  0  0  0  0  0  0  0  0  0  0  0
    3.2476   -8.6608   -8.7610 H   0  0  0  0  0  0  0  0  0  0  0  0
  1  3  2  0  0  0  0
  1  5  1  0  0  0  0
  1 13  1  0  0  0  0
  2  7  1  0  0  0  0
  2 14  1  0  0  0  0
  3  6  1  0  0  0  0
  3  9  1  0  0  0  0
  4  5  1  0  0  0  0
  4 12  1  0  0  0  0
  5  7  2  0  0  0  0
  6  8  2  0  0  0  0
  6 15  1  0  0  0  0
  7  8  1  0  0  0  0
  8 16  1  0  0  0  0
  9 10  1  0  0  0  0
  9 17  1  0  0  0  0
  9 18  1  0  0  0  0
 10 11  2  0  0  0  0
 10 19  1  0  0  0  0
 11 20  1  0  0  0  0
 11 21  1  0  0  0  0
 12 22  1  0  0  0  0
 12 23  1  0  0  0  0
 12 24  1  0  0  0  0
M  END
$$$$
