EPU
 OpenBabel04091913133D

 72 74  0  0  1  0  0  0  0  0999 V2000
   -6.6449  -13.4980   -3.0623 N   0  3  0  0  0  0  0  0  0  0  0  0
   -7.1779  -14.7665   -2.9981 C   0  0  0  0  0  0  0  0  0  0  0  0
   -6.6437  -15.5918   -2.0527 N   0  3  0  0  0  0  0  0  0  0  0  0
   -5.6445  -15.2599   -1.1790 C   0  0  0  0  0  0  0  0  0  0  0  0
   -5.1159  -13.9060   -1.2777 C   0  0  0  0  0  0  0  0  0  0  0  0
   -5.6351  -13.0908   -2.2007 C   0  0  0  0  0  0  0  0  0  0  0  0
   -8.0975  -15.1919   -3.7002 O   0  0  0  0  0  0  0  0  0  0  0  0
   -5.2234  -16.0791   -0.3372 O   0  0  0  0  0  0  0  0  0  0  0  0
   -7.2469  -12.5733   -4.0020 C   0  0  1  0  0  0  0  0  0  0  0  0
   -7.7000  -11.2619   -3.3578 C   0  0  2  0  0  0  0  0  0  0  0  0
   -9.1434  -11.1956   -3.3272 O   0  0  0  0  0  0  0  0  0  0  0  0
   -7.1551  -10.2014   -4.2881 C   0  0  1  0  0  0  0  0  0  0  0  0
   -6.0819  -10.8991   -5.1183 C   0  0  2  0  0  0  0  0  0  0  0  0
   -6.3681  -12.3148   -5.1004 O   0  0  0  0  0  0  0  0  0  0  0  0
   -8.2523   -9.7813   -5.1341 O   0  0  0  0  0  0  0  0  0  0  0  0
   -4.6516  -10.7251   -4.6355 C   0  0  0  0  0  0  0  0  0  0  0  0
   -4.5311   -9.6359   -3.7478 O   0  0  0  0  0  0  0  0  0  0  0  0
   -3.0896   -9.6213   -2.9772 P   0  0  1  0  0  0  0  0  0  0  0  0
   -3.1212  -10.8588   -2.1134 O   0  0  0  0  0  0  0  0  0  0  0  0
   -2.0847   -9.4588   -4.0979 O   0  0  0  0  0  0  0  0  0  0  0  0
   -3.2723   -8.2678   -2.1628 O   0  0  0  0  0  0  0  0  0  0  0  0
   -3.0594   -8.0807   -0.5916 P   0  0  2  0  0  0  0  0  0  0  0  0
   -1.7724   -8.6783   -0.0821 O   0  0  0  0  0  0  0  0  0  0  0  0
   -4.3790   -8.2544    0.1342 O   0  0  0  0  0  0  0  0  0  0  0  0
   -1.6014   -5.9732   -1.0202 C   0  0  1  0  0  0  0  0  0  0  0  0
   -1.6100   -4.5084   -0.4809 C   0  0  1  0  0  0  0  0  0  0  0  0
   -2.8100   -3.8102   -1.0737 C   0  0  2  0  0  0  0  0  0  0  0  0
   -2.7395   -3.8740   -2.5633 C   0  0  1  0  0  0  0  0  0  0  0  0
   -2.6765   -5.3221   -3.0094 C   0  0  1  0  0  0  0  0  0  0  0  0
   -2.5756   -5.3815   -4.5211 C   0  0  0  0  0  0  0  0  0  0  0  0
   -0.6441   -4.3361    1.7310 C   0  0  0  0  0  0  0  0  0  0  0  0
   -0.9756   -4.2455    3.1597 C   0  0  0  0  0  0  0  0  0  0  0  0
   -1.7303   -4.4969    0.9391 N   0  0  0  0  0  0  0  0  0  0  0  0
   -2.8357   -6.4925   -0.5647 O   0  0  0  0  0  0  0  0  0  0  0  0
   -2.8073   -2.4179   -0.7408 O   0  0  0  0  0  0  0  0  0  0  0  0
   -3.8378   -3.1796   -3.1673 O   0  0  0  0  0  0  0  0  0  0  0  0
   -1.5185   -5.9459   -2.4423 O   0  0  0  0  0  0  0  0  0  0  0  0
   -1.7717   -4.3044   -5.0342 O   0  0  0  0  0  0  0  0  0  0  0  0
    0.4902   -4.2385    1.3077 O   0  0  0  0  0  0  0  0  0  0  0  0
   -3.0425   -0.9854    1.2429 C   0  0  0  0  0  0  0  0  0  0  0  0
   -2.5350   -0.0203    0.6004 O   0  0  0  0  0  0  0  0  0  0  0  0
   -3.1900   -1.1081    2.4989 O   0  0  0  0  0  0  0  0  0  0  0  0
   -3.6176   -2.1587    0.4168 C   0  0  1  0  0  0  0  0  0  0  0  0
   -5.0257   -1.8826   -0.0622 C   0  0  0  0  0  0  0  0  0  0  0  0
   -7.0304  -16.5087   -1.9844 H   0  0  0  0  0  0  0  0  0  0  0  0
   -4.3305  -13.5786   -0.6052 H   0  0  0  0  0  0  0  0  0  0  0  0
   -5.2648  -12.0700   -2.2614 H   0  0  0  0  0  0  0  0  0  0  0  0
   -8.1172  -13.0536   -4.4599 H   0  0  0  0  0  0  0  0  0  0  0  0
   -7.3396  -11.1344   -2.3335 H   0  0  0  0  0  0  0  0  0  0  0  0
   -9.3926  -11.2353   -4.2737 H   0  0  0  0  0  0  0  0  0  0  0  0
   -6.8105   -9.3144   -3.7521 H   0  0  0  0  0  0  0  0  0  0  0  0
   -6.1451  -10.5809   -6.1648 H   0  0  0  0  0  0  0  0  0  0  0  0
   -8.8605   -9.3469   -4.5025 H   0  0  0  0  0  0  0  0  0  0  0  0
   -4.0008  -10.5532   -5.4982 H   0  0  0  0  0  0  0  0  0  0  0  0
   -4.2930  -11.6452   -4.1644 H   0  0  0  0  0  0  0  0  0  0  0  0
   -0.7472   -6.5263   -0.6128 H   0  0  0  0  0  0  0  0  0  0  0  0
   -0.6743   -4.0232   -0.8211 H   0  0  0  0  0  0  0  0  0  0  0  0
   -3.7541   -4.2709   -0.7397 H   0  0  0  0  0  0  0  0  0  0  0  0
   -1.8228   -3.3348   -2.8349 H   0  0  0  0  0  0  0  0  0  0  0  0
   -3.5881   -5.8572   -2.7049 H   0  0  0  0  0  0  0  0  0  0  0  0
   -3.5734   -5.2704   -4.9545 H   0  0  0  0  0  0  0  0  0  0  0  0
   -2.1298   -6.3240   -4.8415 H   0  0  0  0  0  0  0  0  0  0  0  0
   -0.0205   -4.0947    3.6884 H   0  0  0  0  0  0  0  0  0  0  0  0
   -1.4429   -5.1631    3.4961 H   0  0  0  0  0  0  0  0  0  0  0  0
   -1.6152   -3.3702    3.3393 H   0  0  0  0  0  0  0  0  0  0  0  0
   -2.6366   -4.7190    1.3102 H   0  0  0  0  0  0  0  0  0  0  0  0
   -3.8469   -2.3226   -2.6939 H   0  0  0  0  0  0  0  0  0  0  0  0
   -2.1997   -3.4924   -4.6994 H   0  0  0  0  0  0  0  0  0  0  0  0
   -3.6618   -3.0306    1.0753 H   0  0  0  0  0  0  0  0  0  0  0  0
   -5.6858   -1.6744    0.7810 H   0  0  0  0  0  0  0  0  0  0  0  0
   -5.4251   -2.7480   -0.6064 H   0  0  0  0  0  0  0  0  0  0  0  0
   -5.0382   -1.0412   -0.7599 H   0  0  0  0  0  0  0  0  0  0  0  0
  1  2  1  0  0  0  0
  1  6  1  0  0  0  0
  1  9  1  0  0  0  0
  2  3  1  0  0  0  0
  2  7  2  0  0  0  0
  3  4  1  0  0  0  0
  3 45  1  0  0  0  0
  4  5  1  0  0  0  0
  4  8  2  0  0  0  0
  5  6  2  0  0  0  0
  5 46  1  0  0  0  0
  6 47  1  0  0  0  0
  9 10  1  0  0  0  0
  9 14  1  0  0  0  0
  9 48  1  6  0  0  0
 10 11  1  0  0  0  0
 10 12  1  0  0  0  0
 10 49  1  1  0  0  0
 11 50  1  0  0  0  0
 12 13  1  0  0  0  0
 12 15  1  0  0  0  0
 12 51  1  1  0  0  0
 13 14  1  0  0  0  0
 13 16  1  0  0  0  0
 13 52  1  6  0  0  0
 15 53  1  0  0  0  0
 16 17  1  0  0  0  0
 16 54  1  0  0  0  0
 16 55  1  0  0  0  0
 18 17  1  6  0  0  0
 18 19  2  0  0  0  0
 18 20  1  0  0  0  0
 18 21  1  0  0  0  0
 22 21  1  6  0  0  0
 22 23  2  0  0  0  0
 22 24  1  0  0  0  0
 22 34  1  0  0  0  0
 25 26  1  0  0  0  0
 25 34  1  0  0  0  0
 25 37  1  0  0  0  0
 25 56  1  1  0  0  0
 26 27  1  0  0  0  0
 26 33  1  0  0  0  0
 26 57  1  6  0  0  0
 27 28  1  0  0  0  0
 27 35  1  0  0  0  0
 27 58  1  1  0  0  0
 28 29  1  0  0  0  0
 28 36  1  0  0  0  0
 28 59  1  6  0  0  0
 29 30  1  0  0  0  0
 29 37  1  0  0  0  0
 29 60  1  1  0  0  0
 30 38  1  0  0  0  0
 30 61  1  0  0  0  0
 30 62  1  0  0  0  0
 31 32  1  0  0  0  0
 31 33  1  0  0  0  0
 31 39  2  0  0  0  0
 32 63  1  0  0  0  0
 32 64  1  0  0  0  0
 32 65  1  0  0  0  0
 33 66  1  0  0  0  0
 35 43  1  0  0  0  0
 36 67  1  0  0  0  0
 38 68  1  0  0  0  0
 40 41  2  0  0  0  0
 40 42  1  0  0  0  0
 40 43  1  0  0  0  0
 43 44  1  0  0  0  0
 43 69  1  1  0  0  0
 44 70  1  0  0  0  0
 44 71  1  0  0  0  0
 44 72  1  0  0  0  0
M  CHG  2   1   1   3   1
M  END
$$$$
