EQM
 OpenBabel04091916463D

100101  0  0  1  0  0  0  0  0999 V2000
   16.4778   16.5535   10.7556 Br  0  0  0  0  0  0  0  0  0  0  0  0
   12.0454   24.2816    4.6855 C   0  0  2  0  0  0  0  0  0  0  0  0
   10.1597   25.4687    5.7224 N   0  0  0  0  0  0  0  0  0  0  0  0
   12.4838   25.6126    4.3658 O   0  0  0  0  0  0  0  0  0  0  0  0
   10.8367   24.2662    5.6669 C   0  0  0  0  0  0  0  0  0  0  0  0
   15.3230   22.4177    7.2153 N   0  0  0  0  0  0  0  0  0  0  0  0
   10.4349   23.2584    6.2337 O   0  0  0  0  0  0  0  0  0  0  0  0
    8.8478   25.5965    6.3458 C   0  0  1  0  0  0  0  0  0  0  0  0
   15.8284   21.6849    6.1225 N   0  0  0  0  0  0  0  0  0  0  0  0
   14.0366   20.2064    6.0629 O   0  0  0  0  0  0  0  0  0  0  0  0
    8.9474   26.1330    7.8029 C   0  0  0  0  0  0  0  0  0  0  0  0
   16.7583   18.7642    5.5271 N   0  0  0  0  0  0  0  0  0  0  0  0
   18.7900   19.7499    5.1969 O   0  0  0  0  0  0  0  0  0  0  0  0
    9.7415   27.4546    7.8836 C   0  0  0  0  0  0  0  0  0  0  0  0
    6.7445   26.1128    5.1524 N   0  0  0  0  0  0  0  0  0  0  0  0
   18.5622   17.9343    6.5677 O   0  0  0  0  0  0  0  0  0  0  0  0
    7.5351   26.3644    8.3679 C   0  0  0  0  0  0  0  0  0  0  0  0
    8.4704   27.6215    5.0528 O   0  0  0  0  0  0  0  0  0  0  0  0
   13.2268   23.5321    5.2877 C   0  0  0  0  0  0  0  0  0  0  0  0
   13.7171   24.1716    6.5786 C   0  0  0  0  0  0  0  0  0  0  0  0
   15.1723   23.8318    6.8603 C   0  0  0  0  0  0  0  0  0  0  0  0
   16.1890   22.2715    8.3926 C   0  0  0  0  0  0  0  0  0  0  0  0
   16.2486   20.8605    8.9314 C   0  0  0  0  0  0  0  0  0  0  0  0
   15.1506   20.5547    5.6795 C   0  0  0  0  0  0  0  0  0  0  0  0
   16.0216   19.7151    4.7299 C   0  0  2  0  0  0  0  0  0  0  0  0
   15.2384   19.0313    3.5808 C   0  0  0  0  0  0  0  0  0  0  0  0
   16.2690   18.4693    2.5768 C   0  0  0  0  0  0  0  0  0  0  0  0
   14.3571   17.8773    4.0930 C   0  0  0  0  0  0  0  0  0  0  0  0
   14.3699   20.0702    2.8418 C   0  0  0  0  0  0  0  0  0  0  0  0
   18.1076   18.8851    5.7156 C   0  0  0  0  0  0  0  0  0  0  0  0
   19.9138   18.1636    6.9542 C   0  0  0  0  0  0  0  0  0  0  0  0
   15.0791   20.2003    9.3384 C   0  0  0  0  0  0  0  0  0  0  0  0
   15.1429   18.9129    9.8708 C   0  0  0  0  0  0  0  0  0  0  0  0
   16.3795   18.2877   10.0124 C   0  0  0  0  0  0  0  0  0  0  0  0
   17.5490   18.9313    9.6146 C   0  0  0  0  0  0  0  0  0  0  0  0
   17.4822   20.2120    9.0664 C   0  0  0  0  0  0  0  0  0  0  0  0
   11.6919   23.5309    3.3937 C   0  0  0  0  0  0  0  0  0  0  0  0
   10.3185   23.8509    2.9047 C   0  0  0  0  0  0  0  0  0  0  0  0
   10.0855   25.0384    2.2098 C   0  0  0  0  0  0  0  0  0  0  0  0
    8.8352   25.2622    1.6865 C   0  0  0  0  0  0  0  0  0  0  0  0
    7.8657   24.2708    1.8256 C   0  0  0  0  0  0  0  0  0  0  0  0
    8.0168   23.2084    2.7011 C   0  0  0  0  0  0  0  0  0  0  0  0
    9.2699   22.9704    3.2120 C   0  0  0  0  0  0  0  0  0  0  0  0
    5.3466   25.7808    2.3533 C   0  0  0  0  0  0  0  0  0  0  0  0
    8.0219   26.5415    5.4434 C   0  0  0  0  0  0  0  0  0  0  0  0
    9.6582   25.0926    8.6912 C   0  0  0  0  0  0  0  0  0  0  0  0
    4.9546   26.1196    3.5659 C   0  0  0  0  0  0  0  0  0  0  0  0
    5.8335   26.9686    4.4243 C   0  0  0  0  0  0  0  0  0  0  0  0
   10.5524   26.3212    5.3601 H   0  0  0  0  0  0  0  0  0  0  0  0
   11.7598   26.0439    3.8858 H   0  0  0  0  0  0  0  0  0  0  0  0
    8.3716   24.6090    6.3440 H   0  0  0  0  0  0  0  0  0  0  0  0
   16.7951   21.8278    5.8377 H   0  0  0  0  0  0  0  0  0  0  0  0
   16.2627   18.1480    6.1715 H   0  0  0  0  0  0  0  0  0  0  0  0
    9.8211   27.7994    8.9211 H   0  0  0  0  0  0  0  0  0  0  0  0
    9.2595   28.2572    7.3181 H   0  0  0  0  0  0  0  0  0  0  0  0
   10.7619   27.3407    7.5016 H   0  0  0  0  0  0  0  0  0  0  0  0
    6.4782   25.1549    5.3431 H   0  0  0  0  0  0  0  0  0  0  0  0
    6.9417   25.4438    8.3281 H   0  0  0  0  0  0  0  0  0  0  0  0
    6.9960   27.1353    7.8065 H   0  0  0  0  0  0  0  0  0  0  0  0
    7.5755   26.6967    9.4096 H   0  0  0  0  0  0  0  0  0  0  0  0
   14.0405   23.5177    4.5486 H   0  0  0  0  0  0  0  0  0  0  0  0
   12.9438   22.4910    5.4806 H   0  0  0  0  0  0  0  0  0  0  0  0
   13.0768   23.8503    7.4101 H   0  0  0  0  0  0  0  0  0  0  0  0
   13.6323   25.2612    6.5239 H   0  0  0  0  0  0  0  0  0  0  0  0
   15.7947   24.0961    5.9944 H   0  0  0  0  0  0  0  0  0  0  0  0
   15.5012   24.4847    7.6778 H   0  0  0  0  0  0  0  0  0  0  0  0
   15.8194   22.9019    9.2113 H   0  0  0  0  0  0  0  0  0  0  0  0
   17.1990   22.6240    8.1447 H   0  0  0  0  0  0  0  0  0  0  0  0
   16.7285   20.4122    4.2557 H   0  0  0  0  0  0  0  0  0  0  0  0
   15.7827   17.9864    1.7296 H   0  0  0  0  0  0  0  0  0  0  0  0
   16.9303   17.7349    3.0510 H   0  0  0  0  0  0  0  0  0  0  0  0
   16.9087   19.2737    2.1846 H   0  0  0  0  0  0  0  0  0  0  0  0
   13.6015   18.2238    4.8030 H   0  0  0  0  0  0  0  0  0  0  0  0
   14.9545   17.1103    4.5971 H   0  0  0  0  0  0  0  0  0  0  0  0
   13.8247   17.3858    3.2722 H   0  0  0  0  0  0  0  0  0  0  0  0
   14.9808   20.9009    2.4688 H   0  0  0  0  0  0  0  0  0  0  0  0
   13.5980   20.4971    3.4900 H   0  0  0  0  0  0  0  0  0  0  0  0
   13.8590   19.6194    1.9841 H   0  0  0  0  0  0  0  0  0  0  0  0
   20.2721   17.2942    7.5078 H   0  0  0  0  0  0  0  0  0  0  0  0
   19.9513   19.0376    7.6106 H   0  0  0  0  0  0  0  0  0  0  0  0
   20.5661   18.3192    6.0879 H   0  0  0  0  0  0  0  0  0  0  0  0
   14.1113   20.6888    9.2261 H   0  0  0  0  0  0  0  0  0  0  0  0
   14.2259   18.4135   10.1703 H   0  0  0  0  0  0  0  0  0  0  0  0
   18.5128   18.4437    9.7234 H   0  0  0  0  0  0  0  0  0  0  0  0
   18.3966   20.7035    8.7431 H   0  0  0  0  0  0  0  0  0  0  0  0
   11.7459   22.4441    3.5400 H   0  0  0  0  0  0  0  0  0  0  0  0
   12.4038   23.7640    2.5921 H   0  0  0  0  0  0  0  0  0  0  0  0
   10.8730   25.7652    2.0349 H   0  0  0  0  0  0  0  0  0  0  0  0
    8.6236   26.1874    1.1582 H   0  0  0  0  0  0  0  0  0  0  0  0
    6.9510   24.3353    1.2552 H   0  0  0  0  0  0  0  0  0  0  0  0
    7.1789   22.5629    2.9431 H   0  0  0  0  0  0  0  0  0  0  0  0
    9.4368   22.0897    3.8303 H   0  0  0  0  0  0  0  0  0  0  0  0
    4.8440   25.0843    1.6963 H   0  0  0  0  0  0  0  0  0  0  0  0
    6.3389   26.1490    2.0558 H   0  0  0  0  0  0  0  0  0  0  0  0
   10.6896   24.9189    8.3661 H   0  0  0  0  0  0  0  0  0  0  0  0
    9.1308   24.1321    8.6705 H   0  0  0  0  0  0  0  0  0  0  0  0
    9.7054   25.4272    9.7325 H   0  0  0  0  0  0  0  0  0  0  0  0
    3.9669   25.8044    3.9275 H   0  0  0  0  0  0  0  0  0  0  0  0
    6.4062   27.6692    3.8044 H   0  0  0  0  0  0  0  0  0  0  0  0
    5.2460   27.5470    5.1411 H   0  0  0  0  0  0  0  0  0  0  0  0
  1 34  1  0  0  0  0
  2  4  1  6  0  0  0
  2  5  1  0  0  0  0
  2 19  1  0  0  0  0
  2 37  1  0  0  0  0
  3  5  1  0  0  0  0
  3  8  1  0  0  0  0
  3 49  1  0  0  0  0
  4 50  1  0  0  0  0
  5  7  2  0  0  0  0
  6  9  1  0  0  0  0
  6 21  1  0  0  0  0
  6 22  1  0  0  0  0
  8 11  1  0  0  0  0
  8 45  1  0  0  0  0
  8 51  1  1  0  0  0
  9 24  1  0  0  0  0
  9 52  1  0  0  0  0
 10 24  2  0  0  0  0
 11 14  1  0  0  0  0
 11 17  1  0  0  0  0
 11 46  1  0  0  0  0
 12 25  1  0  0  0  0
 12 30  1  0  0  0  0
 12 53  1  0  0  0  0
 13 30  2  0  0  0  0
 14 54  1  0  0  0  0
 14 55  1  0  0  0  0
 14 56  1  0  0  0  0
 15 45  1  0  0  0  0
 15 48  1  0  0  0  0
 15 57  1  0  0  0  0
 16 30  1  0  0  0  0
 16 31  1  0  0  0  0
 17 58  1  0  0  0  0
 17 59  1  0  0  0  0
 17 60  1  0  0  0  0
 18 45  2  0  0  0  0
 19 20  1  0  0  0  0
 19 61  1  0  0  0  0
 19 62  1  0  0  0  0
 20 21  1  0  0  0  0
 20 63  1  0  0  0  0
 20 64  1  0  0  0  0
 21 65  1  0  0  0  0
 21 66  1  0  0  0  0
 22 23  1  0  0  0  0
 22 67  1  0  0  0  0
 22 68  1  0  0  0  0
 23 32  2  0  0  0  0
 23 36  1  0  0  0  0
 24 25  1  0  0  0  0
 25 26  1  0  0  0  0
 25 69  1  6  0  0  0
 26 27  1  0  0  0  0
 26 28  1  0  0  0  0
 26 29  1  0  0  0  0
 27 70  1  0  0  0  0
 27 71  1  0  0  0  0
 27 72  1  0  0  0  0
 28 73  1  0  0  0  0
 28 74  1  0  0  0  0
 28 75  1  0  0  0  0
 29 76  1  0  0  0  0
 29 77  1  0  0  0  0
 29 78  1  0  0  0  0
 31 79  1  0  0  0  0
 31 80  1  0  0  0  0
 31 81  1  0  0  0  0
 32 33  1  0  0  0  0
 32 82  1  0  0  0  0
 33 34  2  0  0  0  0
 33 83  1  0  0  0  0
 34 35  1  0  0  0  0
 35 36  2  0  0  0  0
 35 84  1  0  0  0  0
 36 85  1  0  0  0  0
 37 38  1  0  0  0  0
 37 86  1  0  0  0  0
 37 87  1  0  0  0  0
 38 39  2  0  0  0  0
 38 43  1  0  0  0  0
 39 40  1  0  0  0  0
 39 88  1  0  0  0  0
 40 41  2  0  0  0  0
 40 89  1  0  0  0  0
 41 42  1  0  0  0  0
 41 90  1  0  0  0  0
 42 43  2  0  0  0  0
 42 91  1  0  0  0  0
 43 92  1  0  0  0  0
 44 47  2  0  0  0  0
 44 93  1  0  0  0  0
 44 94  1  0  0  0  0
 46 95  1  0  0  0  0
 46 96  1  0  0  0  0
 46 97  1  0  0  0  0
 47 48  1  0  0  0  0
 47 98  1  0  0  0  0
 48 99  1  0  0  0  0
 48100  1  0  0  0  0
M  END
$$$$
