EVE
 OpenBabel04091915123D

 20 21  0  0  0  0  0  0  0  0999 V2000
   15.4253   -0.5357   16.3225 N   0  0  0  0  0  0  0  0  0  0  0  0
   14.9716    0.9522   16.9430 S   0  0  0  0  0  0  0  0  0  0  0  0
   15.0950    3.2362   15.3891 N   0  3  0  0  0  0  0  0  0  0  0  0
   15.4767    1.0349   18.2941 O   0  0  0  0  0  0  0  0  0  0  0  0
   15.7861    2.2357   16.0287 C   0  0  0  0  0  0  0  0  0  0  0  0
   17.0923    2.3756   15.8637 N   0  0  0  0  0  0  0  0  0  0  0  0
   13.5740    1.1421   16.6278 O   0  0  0  0  0  0  0  0  0  0  0  0
   15.8607    5.2426   14.0445 C   0  0  0  0  0  0  0  0  0  0  0  0
   17.0465    5.8592   13.6143 C   0  0  0  0  0  0  0  0  0  0  0  0
   18.2996    5.3402   13.9522 C   0  0  0  0  0  0  0  0  0  0  0  0
   18.4113    4.1798   14.7252 C   0  0  0  0  0  0  0  0  0  0  0  0
   17.2390    3.5327   15.1395 C   0  0  0  0  0  0  0  0  0  0  0  0
   16.0018    4.0777   14.8082 C   0  0  0  0  0  0  0  0  0  0  0  0
   15.4026   -0.5960   15.3067 H   0  0  0  0  0  0  0  0  0  0  0  0
   16.2819   -0.8819   16.7595 H   0  0  0  0  0  0  0  0  0  0  0  0
   14.0879    3.3162   15.3749 H   0  0  0  0  0  0  0  0  0  0  0  0
   14.8920    5.6585   13.7886 H   0  0  0  0  0  0  0  0  0  0  0  0
   16.9912    6.7643   13.0136 H   0  0  0  0  0  0  0  0  0  0  0  0
   19.2024    5.8456   13.6132 H   0  0  0  0  0  0  0  0  0  0  0  0
   19.3779    3.7786   15.0019 H   0  0  0  0  0  0  0  0  0  0  0  0
  1  2  1  0  0  0  0
  1 14  1  0  0  0  0
  1 15  1  0  0  0  0
  2  4  2  0  0  0  0
  2  5  1  0  0  0  0
  2  7  2  0  0  0  0
  3  5  2  0  0  0  0
  3 13  1  0  0  0  0
  3 16  1  0  0  0  0
  5  6  1  0  0  0  0
  6 12  1  0  0  0  0
  8  9  2  0  0  0  0
  8 13  1  0  0  0  0
  8 17  1  0  0  0  0
  9 10  1  0  0  0  0
  9 18  1  0  0  0  0
 10 11  2  0  0  0  0
 10 19  1  0  0  0  0
 11 12  1  0  0  0  0
 11 20  1  0  0  0  0
 12 13  2  0  0  0  0
M  CHG  1   3   1
M  END
$$$$
