EVF
 OpenBabel04091915123D

 19 20  0  0  0  0  0  0  0  0999 V2000
   15.9855   -0.5368   16.3149 N   0  0  0  0  0  0  0  0  0  0  0  0
   15.5233    0.8938   17.0258 S   0  0  0  0  0  0  0  0  0  0  0  0
   16.0899    0.9025   18.3529 O   0  0  0  0  0  0  0  0  0  0  0  0
   15.3550    3.3257   15.2827 S   0  0  0  0  0  0  0  0  0  0  0  0
   16.3238    2.2088   16.1340 C   0  0  0  0  0  0  0  0  0  0  0  0
   14.0935    1.0122   16.7981 O   0  0  0  0  0  0  0  0  0  0  0  0
   17.6289    2.3483   16.0190 N   0  0  0  0  0  0  0  0  0  0  0  0
   19.1778    3.9848   14.9770 C   0  0  0  0  0  0  0  0  0  0  0  0
   19.3002    5.1441   14.2051 C   0  0  0  0  0  0  0  0  0  0  0  0
   18.1681    5.7897   13.7145 C   0  0  0  0  0  0  0  0  0  0  0  0
   16.8897    5.2846   13.9618 C   0  0  0  0  0  0  0  0  0  0  0  0
   16.7785    4.1364   14.7592 C   0  0  0  0  0  0  0  0  0  0  0  0
   17.8991    3.4744   15.2667 C   0  0  0  0  0  0  0  0  0  0  0  0
   15.7747   -0.6879   15.3353 H   0  0  0  0  0  0  0  0  0  0  0  0
   16.6196   -1.1244   16.8454 H   0  0  0  0  0  0  0  0  0  0  0  0
   20.0583    3.4797   15.3654 H   0  0  0  0  0  0  0  0  0  0  0  0
   20.2894    5.5398   13.9855 H   0  0  0  0  0  0  0  0  0  0  0  0
   18.2781    6.7037   13.1329 H   0  0  0  0  0  0  0  0  0  0  0  0
   16.0062    5.7734   13.5622 H   0  0  0  0  0  0  0  0  0  0  0  0
  1  2  1  0  0  0  0
  1 14  1  0  0  0  0
  1 15  1  0  0  0  0
  2  3  2  0  0  0  0
  2  5  1  0  0  0  0
  2  6  2  0  0  0  0
  4  5  1  0  0  0  0
  4 12  1  0  0  0  0
  5  7  2  0  0  0  0
  7 13  1  0  0  0  0
  8  9  2  0  0  0  0
  8 13  1  0  0  0  0
  8 16  1  0  0  0  0
  9 10  1  0  0  0  0
  9 17  1  0  0  0  0
 10 11  2  0  0  0  0
 10 18  1  0  0  0  0
 11 12  1  0  0  0  0
 11 19  1  0  0  0  0
 12 13  2  0  0  0  0
M  END
$$$$
