EVG
 OpenBabel04091915123D

 14 14  0  0  0  0  0  0  0  0999 V2000
   17.0769    2.5664   16.0074 O   0  0  0  0  0  0  0  0  0  0  0  0
   14.9994    0.9920   16.9498 S   0  0  0  0  0  0  0  0  0  0  0  0
   13.6041    1.0304   16.7065 O   0  0  0  0  0  0  0  0  0  0  0  0
   15.6982    2.3651   16.0958 C   0  0  0  0  0  0  0  0  0  0  0  0
   15.5800    1.0414   18.2598 O   0  0  0  0  0  0  0  0  0  0  0  0
   15.0492    3.4007   15.4414 C   0  0  0  0  0  0  0  0  0  0  0  0
   16.0531    4.2257   14.9153 C   0  0  0  0  0  0  0  0  0  0  0  0
   17.2634    3.6970   15.2864 C   0  0  0  0  0  0  0  0  0  0  0  0
   15.6129   -0.3459   16.2061 N   0  0  0  0  0  0  0  0  0  0  0  0
   13.9735    3.5451   15.3552 H   0  0  0  0  0  0  0  0  0  0  0  0
   15.9189    5.1187   14.3312 H   0  0  0  0  0  0  0  0  0  0  0  0
   18.2663    4.0652   15.0712 H   0  0  0  0  0  0  0  0  0  0  0  0
   16.6070   -0.5236   16.2522 H   0  0  0  0  0  0  0  0  0  0  0  0
   14.9626   -0.9418   15.7166 H   0  0  0  0  0  0  0  0  0  0  0  0
  1  4  1  0  0  0  0
  1  8  1  0  0  0  0
  2  3  2  0  0  0  0
  2  4  1  0  0  0  0
  2  5  2  0  0  0  0
  2  9  1  0  0  0  0
  4  6  2  0  0  0  0
  6  7  1  0  0  0  0
  6 10  1  0  0  0  0
  7  8  2  0  0  0  0
  7 11  1  0  0  0  0
  8 12  1  0  0  0  0
  9 13  1  0  0  0  0
  9 14  1  0  0  0  0
M  END
$$$$
