EVI
 OpenBabel04091915133D

 13 13  0  0  0  0  0  0  0  0999 V2000
   15.1196    1.0359   16.8717 S   0  0  0  0  0  0  0  0  0  0  0  0
   13.7241    1.0897   16.4969 O   0  0  0  0  0  0  0  0  0  0  0  0
   15.1119    3.5873   15.2504 S   0  0  0  0  0  0  0  0  0  0  0  0
   15.9795    2.3891   16.1061 C   0  0  0  0  0  0  0  0  0  0  0  0
   15.5578    1.0069   18.2444 O   0  0  0  0  0  0  0  0  0  0  0  0
   17.2978    2.4794   16.0760 N   0  0  0  0  0  0  0  0  0  0  0  0
   17.6576    3.6151   15.3783 C   0  0  0  0  0  0  0  0  0  0  0  0
   16.6105    4.3389   14.8479 C   0  0  0  0  0  0  0  0  0  0  0  0
   15.7672   -0.3251   16.1325 N   0  0  0  0  0  0  0  0  0  0  0  0
   18.7011    3.8587   15.2855 H   0  0  0  0  0  0  0  0  0  0  0  0
   16.6557    5.2430   14.2604 H   0  0  0  0  0  0  0  0  0  0  0  0
   16.7522   -0.4994   16.3083 H   0  0  0  0  0  0  0  0  0  0  0  0
   15.1335   -1.0192   15.7634 H   0  0  0  0  0  0  0  0  0  0  0  0
  1  2  2  0  0  0  0
  1  4  1  0  0  0  0
  1  5  2  0  0  0  0
  1  9  1  0  0  0  0
  3  4  1  0  0  0  0
  3  8  1  0  0  0  0
  4  6  2  0  0  0  0
  6  7  1  0  0  0  0
  7  8  2  0  0  0  0
  7 10  1  0  0  0  0
  8 11  1  0  0  0  0
  9 12  1  0  0  0  0
  9 13  1  0  0  0  0
M  END
$$$$
