EVJ
 OpenBabel04091915133D

 14 14  0  0  0  0  0  0  0  0999 V2000
   15.1235    1.1173   16.8101 S   0  0  0  0  0  0  0  0  0  0  0  0
   13.6830    1.1250   16.6755 O   0  0  0  0  0  0  0  0  0  0  0  0
   14.7148    3.7835   15.5300 S   0  0  0  0  0  0  0  0  0  0  0  0
   15.7760    2.4978   15.9039 C   0  0  0  0  0  0  0  0  0  0  0  0
   15.8096    1.1407   18.0790 O   0  0  0  0  0  0  0  0  0  0  0  0
   17.0541    2.7362   15.4314 C   0  0  0  0  0  0  0  0  0  0  0  0
   17.1579    3.9936   14.7739 C   0  0  0  0  0  0  0  0  0  0  0  0
   15.9692    4.6717   14.7514 C   0  0  0  0  0  0  0  0  0  0  0  0
   15.6589   -0.2205   15.9783 N   0  0  0  0  0  0  0  0  0  0  0  0
   17.8704    2.0401   15.5688 H   0  0  0  0  0  0  0  0  0  0  0  0
   18.0732    4.3882   14.3398 H   0  0  0  0  0  0  0  0  0  0  0  0
   15.7610    5.6441   14.3262 H   0  0  0  0  0  0  0  0  0  0  0  0
   16.6448   -0.4632   16.0091 H   0  0  0  0  0  0  0  0  0  0  0  0
   14.9497   -0.8482   15.6113 H   0  0  0  0  0  0  0  0  0  0  0  0
  1  2  2  0  0  0  0
  1  4  1  0  0  0  0
  1  5  2  0  0  0  0
  1  9  1  0  0  0  0
  3  4  1  0  0  0  0
  3  8  1  0  0  0  0
  4  6  2  0  0  0  0
  6  7  1  0  0  0  0
  6 10  1  0  0  0  0
  7  8  2  0  0  0  0
  7 11  1  0  0  0  0
  8 12  1  0  0  0  0
  9 13  1  0  0  0  0
  9 14  1  0  0  0  0
M  END
$$$$
