EZL
 OpenBabel04091913453D

 26 27  0  0  0  0  0  0  0  0999 V2000
   15.7649   12.4508   81.0877 N   0  0  0  0  0  0  0  0  0  0  0  0
   15.2487    7.9099   81.7064 C   0  0  0  0  0  0  0  0  0  0  0  0
   14.1153    7.6517   80.9393 C   0  0  0  0  0  0  0  0  0  0  0  0
   13.3827    6.4569   81.0533 C   0  0  0  0  0  0  0  0  0  0  0  0
   13.8083    5.4914   81.9682 C   0  0  0  0  0  0  0  0  0  0  0  0
   13.6656    3.1272   82.2501 C   0  0  0  0  0  0  0  0  0  0  0  0
   16.8494   11.2275   79.1695 O   0  0  0  0  0  0  0  0  0  0  0  0
   14.4045   11.8417   79.0919 O   0  0  0  0  0  0  0  0  0  0  0  0
   15.5710   11.3721   79.8100 S   0  0  0  0  0  0  0  0  0  0  0  0
   15.1788    9.7741   80.5179 C   0  0  0  0  0  0  0  0  0  0  0  0
   15.8382    9.1481   81.4780 N   0  0  0  0  0  0  0  0  0  0  0  0
   13.8043    8.9794   79.9009 S   0  0  0  0  0  0  0  0  0  0  0  0
   14.9358    5.7145   82.7522 C   0  0  0  0  0  0  0  0  0  0  0  0
   15.6510    6.9272   82.6392 C   0  0  0  0  0  0  0  0  0  0  0  0
   13.0150    4.3775   82.0238 O   0  0  0  0  0  0  0  0  0  0  0  0
   12.6335    2.0498   81.9751 C   0  0  0  0  0  0  0  0  0  0  0  0
   16.6888   12.4487   81.5142 H   0  0  0  0  0  0  0  0  0  0  0  0
   15.3034   13.3466   80.9352 H   0  0  0  0  0  0  0  0  0  0  0  0
   12.4963    6.2807   80.4605 H   0  0  0  0  0  0  0  0  0  0  0  0
   14.0015    3.0579   83.2904 H   0  0  0  0  0  0  0  0  0  0  0  0
   14.5200    3.0032   81.5716 H   0  0  0  0  0  0  0  0  0  0  0  0
   15.2579    4.9843   83.4912 H   0  0  0  0  0  0  0  0  0  0  0  0
   16.5182    7.0992   83.2644 H   0  0  0  0  0  0  0  0  0  0  0  0
   13.0436    1.0486   82.1314 H   0  0  0  0  0  0  0  0  0  0  0  0
   12.2647    2.1229   80.9454 H   0  0  0  0  0  0  0  0  0  0  0  0
   11.7623    2.1794   82.6280 H   0  0  0  0  0  0  0  0  0  0  0  0
  1  9  1  0  0  0  0
  1 17  1  0  0  0  0
  1 18  1  0  0  0  0
  2  3  2  0  0  0  0
  2 11  1  0  0  0  0
  2 14  1  0  0  0  0
  3  4  1  0  0  0  0
  3 12  1  0  0  0  0
  4  5  2  0  0  0  0
  4 19  1  0  0  0  0
  5 13  1  0  0  0  0
  5 15  1  0  0  0  0
  6 15  1  0  0  0  0
  6 16  1  0  0  0  0
  6 20  1  0  0  0  0
  6 21  1  0  0  0  0
  7  9  2  0  0  0  0
  8  9  2  0  0  0  0
  9 10  1  0  0  0  0
 10 11  2  0  0  0  0
 10 12  1  0  0  0  0
 13 14  2  0  0  0  0
 13 22  1  0  0  0  0
 14 23  1  0  0  0  0
 16 24  1  0  0  0  0
 16 25  1  0  0  0  0
 16 26  1  0  0  0  0
M  END
$$$$
