F6P
 OpenBabel04091913563D

 27 27  0  0  1  0  0  0  0  0999 V2000
   37.3123  -26.4530   38.7199 O   0  0  0  0  0  0  0  0  0  0  0  0
   37.5592  -25.5270   39.7891 C   0  0  0  0  0  0  0  0  0  0  0  0
   39.0496  -25.3463   40.1030 C   0  0  2  0  0  0  0  0  0  0  0  0
   39.7023  -26.6032   40.1717 O   0  0  0  0  0  0  0  0  0  0  0  0
   39.3247  -24.3967   41.2869 C   0  0  1  0  0  0  0  0  0  0  0  0
   39.2975  -24.8787   42.6367 O   0  0  0  0  0  0  0  0  0  0  0  0
   40.7035  -23.8610   40.9377 C   0  0  2  0  0  0  0  0  0  0  0  0
   40.9095  -22.6172   41.6182 O   0  0  0  0  0  0  0  0  0  0  0  0
   40.6562  -23.7862   39.4098 C   0  0  2  0  0  0  0  0  0  0  0  0
   39.5891  -24.6595   38.9806 O   0  0  0  0  0  0  0  0  0  0  0  0
   41.9586  -24.2817   38.7894 C   0  0  0  0  0  0  0  0  0  0  0  0
   41.8004  -24.2701   37.3845 O   0  0  0  0  0  0  0  0  0  0  0  0
   42.9672  -25.0429   36.5346 P   0  0  0  0  0  0  0  0  0  0  0  0
   42.9291  -26.4683   37.0800 O   0  0  0  0  0  0  0  0  0  0  0  0
   44.2248  -24.2793   36.8921 O   0  0  0  0  0  0  0  0  0  0  0  0
   42.4999  -24.9146   35.0918 O   0  0  0  0  0  0  0  0  0  0  0  0
   37.8503  -27.2437   38.9080 H   0  0  0  0  0  0  0  0  0  0  0  0
   36.9822  -25.8800   40.6462 H   0  0  0  0  0  0  0  0  0  0  0  0
   37.1625  -24.5613   39.4573 H   0  0  0  0  0  0  0  0  0  0  0  0
   39.9650  -26.7479   39.2326 H   0  0  0  0  0  0  0  0  0  0  0  0
   38.5917  -23.5820   41.2683 H   0  0  0  0  0  0  0  0  0  0  0  0
   39.6336  -24.1446   43.1742 H   0  0  0  0  0  0  0  0  0  0  0  0
   41.4881  -24.5485   41.2743 H   0  0  0  0  0  0  0  0  0  0  0  0
   41.5838  -22.7931   42.2991 H   0  0  0  0  0  0  0  0  0  0  0  0
   40.3988  -22.7899   39.0312 H   0  0  0  0  0  0  0  0  0  0  0  0
   42.1687  -25.3025   39.1354 H   0  0  0  0  0  0  0  0  0  0  0  0
   42.7862  -23.6259   39.0726 H   0  0  0  0  0  0  0  0  0  0  0  0
  1  2  1  0  0  0  0
  1 17  1  0  0  0  0
  2 18  1  0  0  0  0
  2 19  1  0  0  0  0
  3  2  1  6  0  0  0
  3  4  1  0  0  0  0
  3  5  1  0  0  0  0
  3 10  1  0  0  0  0
  4 20  1  0  0  0  0
  5  6  1  0  0  0  0
  5  7  1  0  0  0  0
  5 21  1  6  0  0  0
  6 22  1  0  0  0  0
  7  8  1  0  0  0  0
  7  9  1  0  0  0  0
  7 23  1  1  0  0  0
  8 24  1  0  0  0  0
  9 10  1  0  0  0  0
  9 11  1  0  0  0  0
  9 25  1  6  0  0  0
 11 12  1  0  0  0  0
 11 26  1  0  0  0  0
 11 27  1  0  0  0  0
 12 13  1  0  0  0  0
 13 14  2  0  0  0  0
 13 15  1  0  0  0  0
 13 16  1  0  0  0  0
M  END
$$$$
