FBP
 OpenBabel04091911063D

 30 30  0  0  1  0  0  0  0  0999 V2000
   11.3970    1.1135    0.8100 P   0  0  0  0  0  0  0  0  0  0  0  0
   11.0913    2.3545    1.6319 O   0  0  0  0  0  0  0  0  0  0  0  0
   10.1500    0.4501    0.2283 O   0  0  0  0  0  0  0  0  0  0  0  0
   12.5317    1.3024   -0.1862 O   0  0  0  0  0  0  0  0  0  0  0  0
   11.9802    0.0425    1.9035 O   0  0  0  0  0  0  0  0  0  0  0  0
   11.1693   -0.2133    3.0318 C   0  0  0  0  0  0  0  0  0  0  0  0
   11.9633   -0.7267    4.2543 C   0  0  2  0  0  0  0  0  0  0  0  0
   11.0495   -1.0084    5.3414 O   0  0  0  0  0  0  0  0  0  0  0  0
   13.0590    0.2258    4.7794 C   0  0  1  0  0  0  0  0  0  0  0  0
   12.6015    1.2838    5.6365 O   0  0  0  0  0  0  0  0  0  0  0  0
   13.9144   -0.7385    5.5971 C   0  0  2  0  0  0  0  0  0  0  0  0
   15.2393   -0.2370    5.8170 O   0  0  0  0  0  0  0  0  0  0  0  0
   13.8881   -1.9789    4.7156 C   0  0  2  0  0  0  0  0  0  0  0  0
   12.6354   -1.9547    3.9917 O   0  0  0  0  0  0  0  0  0  0  0  0
   14.0341   -3.3054    5.4625 C   0  0  0  0  0  0  0  0  0  0  0  0
   14.0595   -4.2990    4.4795 O   0  0  0  0  0  0  0  0  0  0  0  0
   14.3161   -5.8369    4.9116 P   0  0  0  0  0  0  0  0  0  0  0  0
   15.7308   -5.8542    5.4726 O   0  0  0  0  0  0  0  0  0  0  0  0
   14.1523   -6.6321    3.6197 O   0  0  0  0  0  0  0  0  0  0  0  0
   13.2419   -6.1433    5.9580 O   0  0  0  0  0  0  0  0  0  0  0  0
   10.4156   -0.9577    2.7556 H   0  0  0  0  0  0  0  0  0  0  0  0
   10.6339    0.6884    3.3392 H   0  0  0  0  0  0  0  0  0  0  0  0
   10.5334   -1.7485    4.9610 H   0  0  0  0  0  0  0  0  0  0  0  0
   13.6430    0.6582    3.9594 H   0  0  0  0  0  0  0  0  0  0  0  0
   11.9324    0.8576    6.2050 H   0  0  0  0  0  0  0  0  0  0  0  0
   13.4769   -0.9037    6.5887 H   0  0  0  0  0  0  0  0  0  0  0  0
   15.1271    0.7087    6.0091 H   0  0  0  0  0  0  0  0  0  0  0  0
   14.7028   -1.9206    3.9867 H   0  0  0  0  0  0  0  0  0  0  0  0
   13.1653   -3.4629    6.1358 H   0  0  0  0  0  0  0  0  0  0  0  0
   14.9441   -3.3215    6.0613 H   0  0  0  0  0  0  0  0  0  0  0  0
  1  2  2  0  0  0  0
  1  3  1  0  0  0  0
  1  4  1  0  0  0  0
  1  5  1  0  0  0  0
  5  6  1  0  0  0  0
  6 21  1  0  0  0  0
  6 22  1  0  0  0  0
  7  6  1  6  0  0  0
  7  8  1  0  0  0  0
  7  9  1  0  0  0  0
  7 14  1  0  0  0  0
  8 23  1  0  0  0  0
  9 10  1  0  0  0  0
  9 11  1  0  0  0  0
  9 24  1  6  0  0  0
 10 25  1  0  0  0  0
 11 12  1  0  0  0  0
 11 13  1  0  0  0  0
 11 26  1  1  0  0  0
 12 27  1  0  0  0  0
 13 14  1  0  0  0  0
 13 15  1  0  0  0  0
 13 28  1  6  0  0  0
 15 16  1  0  0  0  0
 15 29  1  0  0  0  0
 15 30  1  0  0  0  0
 16 17  1  0  0  0  0
 17 18  2  0  0  0  0
 17 19  1  0  0  0  0
 17 20  1  0  0  0  0
M  END
$$$$
