FDF
 OpenBabel04091911143D

 49 48  0  0  0  0  0  0  0  0999 V2000
   -1.8521  -38.8502   20.1020 P   0  0  1  0  0  0  0  0  0  0  0  0
   -1.7143  -39.0512   17.1287 P   0  0  0  0  0  0  0  0  0  0  0  0
   -0.7731  -36.5722   20.3436 C   0  0  0  0  0  0  0  0  0  0  0  0
   -1.9907  -37.2188   20.0811 O   0  0  0  0  0  0  0  0  0  0  0  0
   -0.4291  -39.2499   20.4812 O   0  0  0  0  0  0  0  0  0  0  0  0
   -0.5746  -38.0328   17.1693 O   0  0  0  0  0  0  0  0  0  0  0  0
   -0.8983  -35.0684   20.3908 C   0  0  0  0  0  0  0  0  0  0  0  0
   -2.9259  -39.3136   21.0928 O   0  0  0  0  0  0  0  0  0  0  0  0
   -1.2830  -40.4336   16.6523 O   0  0  0  0  0  0  0  0  0  0  0  0
   -0.0304  -34.2961   21.0919 C   0  0  0  0  0  0  0  0  0  0  0  0
   -2.2853  -39.2567   18.6298 O   0  0  0  0  0  0  0  0  0  0  0  0
   -2.9056  -38.5199   16.3200 O   0  0  0  0  0  0  0  0  0  0  0  0
    1.0619  -34.9134   21.9101 C   0  0  0  0  0  0  0  0  0  0  0  0
   -0.0382  -32.7876   20.9973 C   0  0  0  0  0  0  0  0  0  0  0  0
    1.2392  -32.2409   20.3358 C   0  0  0  0  0  0  0  0  0  0  0  0
    1.0064  -31.7784   18.9246 C   0  0  0  0  0  0  0  0  0  0  0  0
    1.6399  -32.1886   17.8125 C   0  0  0  0  0  0  0  0  0  0  0  0
    1.2392  -31.6477   16.4517 C   0  0  0  0  0  0  0  0  0  0  0  0
    2.7766  -33.1911   17.7838 C   0  0  0  0  0  0  0  0  0  0  0  0
    0.6889  -32.7232   15.4993 C   0  0  0  0  0  0  0  0  0  0  0  0
   -0.7977  -32.6305   15.3132 C   0  0  0  0  0  0  0  0  0  0  0  0
   -1.7137  -33.5698   15.6243 C   0  0  0  0  0  0  0  0  0  0  0  0
   -3.1782  -33.3003   15.4363 C   0  0  0  0  0  0  0  0  0  0  0  0
   -1.4616  -34.9099   16.2899 C   0  0  0  0  0  0  0  0  0  0  0  0
   -2.0876  -34.8499   17.4961 F   0  0  0  0  0  0  0  0  0  0  0  0
   -3.8002  -34.2825   14.7312 F   0  0  0  0  0  0  0  0  0  0  0  0
   -0.0358  -36.8279   19.5723 H   0  0  0  0  0  0  0  0  0  0  0  0
   -0.4301  -36.9298   21.3165 H   0  0  0  0  0  0  0  0  0  0  0  0
   -1.6642  -34.6521   19.7763 H   0  0  0  0  0  0  0  0  0  0  0  0
    1.6932  -34.1495   22.3894 H   0  0  0  0  0  0  0  0  0  0  0  0
    1.7221  -35.5258   21.2826 H   0  0  0  0  0  0  0  0  0  0  0  0
    0.6518  -35.5263   22.7173 H   0  0  0  0  0  0  0  0  0  0  0  0
   -0.1009  -32.3931   22.0203 H   0  0  0  0  0  0  0  0  0  0  0  0
   -0.9360  -32.4249   20.4819 H   0  0  0  0  0  0  0  0  0  0  0  0
    2.0499  -32.9720   20.3913 H   0  0  0  0  0  0  0  0  0  0  0  0
    1.5922  -31.3739   20.9086 H   0  0  0  0  0  0  0  0  0  0  0  0
    0.2011  -31.0590   18.8198 H   0  0  0  0  0  0  0  0  0  0  0  0
    2.1209  -31.1821   15.9980 H   0  0  0  0  0  0  0  0  0  0  0  0
    0.5101  -30.8308   16.5697 H   0  0  0  0  0  0  0  0  0  0  0  0
    3.0809  -33.5460   18.7694 H   0  0  0  0  0  0  0  0  0  0  0  0
    3.6621  -32.7394   17.3212 H   0  0  0  0  0  0  0  0  0  0  0  0
    2.5072  -34.0796   17.2074 H   0  0  0  0  0  0  0  0  0  0  0  0
    0.9814  -33.7265   15.8115 H   0  0  0  0  0  0  0  0  0  0  0  0
    1.1485  -32.5791   14.5130 H   0  0  0  0  0  0  0  0  0  0  0  0
   -1.1431  -31.6898   14.8908 H   0  0  0  0  0  0  0  0  0  0  0  0
   -3.3421  -32.3795   14.8617 H   0  0  0  0  0  0  0  0  0  0  0  0
   -3.6845  -33.1818   16.4011 H   0  0  0  0  0  0  0  0  0  0  0  0
   -0.4036  -35.1146   16.4690 H   0  0  0  0  0  0  0  0  0  0  0  0
   -1.8720  -35.7331   15.6949 H   0  0  0  0  0  0  0  0  0  0  0  0
  1  4  1  1  0  0  0
  1  5  2  0  0  0  0
  1  8  1  0  0  0  0
  1 11  1  0  0  0  0
  2  6  2  0  0  0  0
  2  9  1  0  0  0  0
  2 11  1  0  0  0  0
  2 12  1  0  0  0  0
  3  4  1  0  0  0  0
  3  7  1  0  0  0  0
  3 27  1  0  0  0  0
  3 28  1  0  0  0  0
  7 10  2  0  0  0  0
  7 29  1  0  0  0  0
 10 13  1  0  0  0  0
 10 14  1  0  0  0  0
 13 30  1  0  0  0  0
 13 31  1  0  0  0  0
 13 32  1  0  0  0  0
 14 15  1  0  0  0  0
 14 33  1  0  0  0  0
 14 34  1  0  0  0  0
 15 16  1  0  0  0  0
 15 35  1  0  0  0  0
 15 36  1  0  0  0  0
 16 17  2  0  0  0  0
 16 37  1  0  0  0  0
 17 18  1  0  0  0  0
 17 19  1  0  0  0  0
 18 20  1  0  0  0  0
 18 38  1  0  0  0  0
 18 39  1  0  0  0  0
 19 40  1  0  0  0  0
 19 41  1  0  0  0  0
 19 42  1  0  0  0  0
 20 21  1  0  0  0  0
 20 43  1  0  0  0  0
 20 44  1  0  0  0  0
 21 22  2  0  0  0  0
 21 45  1  0  0  0  0
 22 23  1  0  0  0  0
 22 24  1  0  0  0  0
 23 26  1  0  0  0  0
 23 46  1  0  0  0  0
 23 47  1  0  0  0  0
 24 25  1  0  0  0  0
 24 48  1  0  0  0  0
 24 49  1  0  0  0  0
M  END
$$$$
