FG3
 OpenBabel04091913143D

 44 46  0  0  1  0  0  0  0  0999 V2000
   18.6211   11.0584   -1.1533 C   0  0  0  0  0  0  0  0  0  0  0  0
   16.1327   10.3493   -1.4888 N   0  3  2  0  0  0  0  0  0  0  0  0
   18.2762   12.2568   -0.9626 O   0  0  0  0  0  0  0  0  0  0  0  0
   17.5579   10.0743   -1.5895 C   0  0  0  0  0  0  0  0  0  0  0  0
   11.0642    9.6109   -5.1133 C   0  0  0  0  0  0  0  0  0  0  0  0
   20.0132    7.6887    4.8541 C   0  0  0  0  0  0  0  0  0  0  0  0
   16.9483   10.7886    1.2155 O   0  0  0  0  0  0  0  0  0  0  0  0
   14.0146   10.2911    4.1802 O   0  0  0  0  0  0  0  0  0  0  0  0
   15.3617   12.3167    3.6822 O   0  0  0  0  0  0  0  0  0  0  0  0
   18.8292    9.8814    4.6953 C   0  0  0  0  0  0  0  0  0  0  0  0
   17.7053   10.6243    4.3785 C   0  0  0  0  0  0  0  0  0  0  0  0
   14.5703   10.0237   -4.8244 C   0  0  0  0  0  0  0  0  0  0  0  0
   15.6020   10.0544   -3.9029 C   0  0  0  0  0  0  0  0  0  0  0  0
   17.6879    7.8868    3.9827 C   0  0  0  0  0  0  0  0  0  0  0  0
   12.9548   10.4640   -3.1109 C   0  0  0  0  0  0  0  0  0  0  0  0
   14.0219   10.6817   -0.8066 C   0  0  0  0  0  0  0  0  0  0  0  0
   16.5750    8.5803    3.6475 N   0  0  0  0  0  0  0  0  0  0  0  0
   14.7770   10.7166    1.8563 N   0  0  0  0  0  0  0  0  0  0  0  0
   12.3277   10.1855   -5.4460 O   0  0  0  0  0  0  0  0  0  0  0  0
   15.8081   10.7172    0.9231 C   0  0  0  0  0  0  0  0  0  0  0  0
   18.8231    8.4993    4.5079 C   0  0  1  0  0  0  0  0  0  0  0  0
   13.2492   10.2081   -4.4382 C   0  0  1  0  0  0  0  0  0  0  0  0
   16.6187    9.9478    3.8487 C   0  0  1  0  0  0  0  0  0  0  0  0
   15.3266   10.5736   -0.4056 C   0  0  2  0  0  0  0  0  0  0  0  0
   13.9872   10.4803   -2.1707 C   0  0  2  0  0  0  0  0  0  0  0  0
   15.2967   10.2728   -2.5742 C   0  0  2  0  0  0  0  0  0  0  0  0
   15.1067   10.9094    3.4594 S   0  0  0  0  0  0  0  0  0  0  0  0
   19.7861   10.5513   -1.0836 O   0  0  0  0  0  0  0  0  0  0  0  0
   17.7458    9.1333   -1.0680 H   0  0  0  0  0  0  0  0  0  0  0  0
   17.7666    9.9010   -2.6542 H   0  0  0  0  0  0  0  0  0  0  0  0
   10.4107    9.6485   -6.0006 H   0  0  0  0  0  0  0  0  0  0  0  0
   10.5808   10.1689   -4.3114 H   0  0  0  0  0  0  0  0  0  0  0  0
   11.1914    8.5626   -4.8253 H   0  0  0  0  0  0  0  0  0  0  0  0
   20.7878    8.3513    5.2475 H   0  0  0  0  0  0  0  0  0  0  0  0
   20.3681    7.1914    3.9507 H   0  0  0  0  0  0  0  0  0  0  0  0
   19.7258    6.9583    5.6125 H   0  0  0  0  0  0  0  0  0  0  0  0
   19.7192   10.3758    5.0853 H   0  0  0  0  0  0  0  0  0  0  0  0
   17.6867   11.6914    4.5321 H   0  0  0  0  0  0  0  0  0  0  0  0
   14.8242    9.8459   -5.8591 H   0  0  0  0  0  0  0  0  0  0  0  0
   16.6285    9.9267   -4.1899 H   0  0  0  0  0  0  0  0  0  0  0  0
   17.6892    6.7991    3.8382 H   0  0  0  0  0  0  0  0  0  0  0  0
   11.9673   10.6698   -2.7420 H   0  0  0  0  0  0  0  0  0  0  0  0
   13.1620   10.8917   -0.1903 H   0  0  0  0  0  0  0  0  0  0  0  0
   13.8162   10.5760    1.5624 H   0  0  0  0  0  0  0  0  0  0  0  0
  1  3  2  0  0  0  0
  1  4  1  0  0  0  0
  1 28  1  0  0  0  0
  2  4  1  1  0  0  0
  2 24  1  0  0  0  0
  2 26  1  0  0  0  0
  4 29  1  0  0  0  0
  4 30  1  0  0  0  0
  5 19  1  0  0  0  0
  5 31  1  0  0  0  0
  5 32  1  0  0  0  0
  5 33  1  0  0  0  0
  6 34  1  0  0  0  0
  6 35  1  0  0  0  0
  6 36  1  0  0  0  0
  7 20  2  0  0  0  0
  8 27  2  0  0  0  0
  9 27  2  0  0  0  0
 10 11  1  0  0  0  0
 10 21  1  0  0  0  0
 10 37  1  0  0  0  0
 11 23  1  0  0  0  0
 11 38  1  0  0  0  0
 12 13  1  0  0  0  0
 12 22  1  0  0  0  0
 12 39  1  0  0  0  0
 13 40  1  0  0  0  0
 14 17  1  0  0  0  0
 14 21  1  0  0  0  0
 14 41  1  0  0  0  0
 15 22  1  0  0  0  0
 15 42  1  0  0  0  0
 16 24  1  0  0  0  0
 16 25  1  0  0  0  0
 16 43  1  0  0  0  0
 17 23  1  0  0  0  0
 18 20  1  0  0  0  0
 18 27  1  0  0  0  0
 18 44  1  0  0  0  0
 21  6  1  6  0  0  0
 22 19  1  6  0  0  0
 23 27  1  1  0  0  0
 24 20  1  6  0  0  0
 25 15  1  6  0  0  0
 25 26  1  0  0  0  0
 26 13  1  6  0  0  0
M  CHG  1   2   1
M  END
$$$$
