FG4
 OpenBabel04091913143D

 44 47  0  0  1  0  0  0  0  0999 V2000
   17.8125   11.4328   -0.7690 C   0  0  0  0  0  0  0  0  0  0  0  0
   15.5719   10.3231   -1.2258 N   0  3  2  0  0  0  0  0  0  0  0  0
   17.1750   12.5149   -0.6380 O   0  0  0  0  0  0  0  0  0  0  0  0
   17.0281   10.1935   -1.1623 C   0  0  0  0  0  0  0  0  0  0  0  0
   10.9840    8.8642   -5.0197 C   0  0  0  0  0  0  0  0  0  0  0  0
   16.1840   10.2793    1.6149 O   0  0  0  0  0  0  0  0  0  0  0  0
   13.6202    8.3177    7.8916 C   0  0  0  0  0  0  0  0  0  0  0  0
   14.8312    7.7027    7.5581 C   0  0  0  0  0  0  0  0  0  0  0  0
   14.3047    9.6702   -4.7065 C   0  0  0  0  0  0  0  0  0  0  0  0
   13.1696    9.4122    7.1725 C   0  0  0  0  0  0  0  0  0  0  0  0
   15.6391    8.1624    6.4922 C   0  0  0  0  0  0  0  0  0  0  0  0
   15.2775    9.7918   -3.7111 C   0  0  0  0  0  0  0  0  0  0  0  0
   12.5659   10.1783   -3.0941 C   0  0  0  0  0  0  0  0  0  0  0  0
   13.7211   10.8911    5.1788 C   0  0  0  0  0  0  0  0  0  0  0  0
   13.4337   10.6224   -0.7001 C   0  0  0  0  0  0  0  0  0  0  0  0
   15.0306   11.8839    3.2193 C   0  0  0  0  0  0  0  0  0  0  0  0
   12.0515    9.7244   -5.4101 O   0  0  0  0  0  0  0  0  0  0  0  0
   14.3095   11.5173    2.0206 O   0  0  0  0  0  0  0  0  0  0  0  0
   15.6911    9.9182    4.6792 O   0  0  0  0  0  0  0  0  0  0  0  0
   15.1363   10.7905    1.2040 C   0  0  0  0  0  0  0  0  0  0  0  0
   12.9638    9.8487   -4.3938 C   0  0  1  0  0  0  0  0  0  0  0  0
   14.7831   10.8972    4.3155 C   0  0  1  0  0  0  0  0  0  0  0  0
   14.7087   10.6076   -0.1636 C   0  0  1  0  0  0  0  0  0  0  0  0
   13.9358    9.8601    6.0967 C   0  0  2  0  0  0  0  0  0  0  0  0
   13.5232   10.3055   -2.0809 C   0  0  2  0  0  0  0  0  0  0  0  0
   15.1432    9.2556    5.7681 C   0  0  2  0  0  0  0  0  0  0  0  0
   14.8605   10.1120   -2.4003 C   0  0  2  0  0  0  0  0  0  0  0  0
   19.0623   11.2351   -0.6484 O   0  0  0  0  0  0  0  0  0  0  0  0
   17.2516    9.3574   -0.4936 H   0  0  0  0  0  0  0  0  0  0  0  0
   17.3900    9.8892   -2.1530 H   0  0  0  0  0  0  0  0  0  0  0  0
   10.2705    8.8098   -5.8434 H   0  0  0  0  0  0  0  0  0  0  0  0
   10.4371    9.2400   -4.1496 H   0  0  0  0  0  0  0  0  0  0  0  0
   11.3713    7.8609   -4.8145 H   0  0  0  0  0  0  0  0  0  0  0  0
   13.0117    7.9581    8.7141 H   0  0  0  0  0  0  0  0  0  0  0  0
   15.1487    6.8463    8.1481 H   0  0  0  0  0  0  0  0  0  0  0  0
   14.6061    9.4222   -5.7210 H   0  0  0  0  0  0  0  0  0  0  0  0
   12.2388    9.9190    7.3928 H   0  0  0  0  0  0  0  0  0  0  0  0
   16.5805    7.6753    6.2596 H   0  0  0  0  0  0  0  0  0  0  0  0
   16.3269    9.6562   -3.9569 H   0  0  0  0  0  0  0  0  0  0  0  0
   11.5322   10.3541   -2.8376 H   0  0  0  0  0  0  0  0  0  0  0  0
   12.9030   11.5867    5.1494 H   0  0  0  0  0  0  0  0  0  0  0  0
   12.5276   10.8095   -0.1466 H   0  0  0  0  0  0  0  0  0  0  0  0
   14.6238   12.8500    3.5621 H   0  0  0  0  0  0  0  0  0  0  0  0
   16.0898   12.0650    3.0231 H   0  0  0  0  0  0  0  0  0  0  0  0
  1  3  2  0  0  0  0
  1  4  1  0  0  0  0
  1 28  1  0  0  0  0
  2  4  1  1  0  0  0
  2 23  1  0  0  0  0
  2 27  1  0  0  0  0
  4 29  1  0  0  0  0
  4 30  1  0  0  0  0
  5 17  1  0  0  0  0
  5 31  1  0  0  0  0
  5 32  1  0  0  0  0
  5 33  1  0  0  0  0
  6 20  2  0  0  0  0
  7  8  1  0  0  0  0
  7 10  1  0  0  0  0
  7 34  1  0  0  0  0
  8 11  1  0  0  0  0
  8 35  1  0  0  0  0
  9 12  1  0  0  0  0
  9 21  1  0  0  0  0
  9 36  1  0  0  0  0
 10 37  1  0  0  0  0
 11 38  1  0  0  0  0
 12 39  1  0  0  0  0
 13 21  1  0  0  0  0
 13 40  1  0  0  0  0
 14 22  1  0  0  0  0
 14 24  1  0  0  0  0
 14 41  1  0  0  0  0
 15 23  1  0  0  0  0
 15 25  1  0  0  0  0
 15 42  1  0  0  0  0
 16 18  1  0  0  0  0
 16 43  1  0  0  0  0
 16 44  1  0  0  0  0
 18 20  1  0  0  0  0
 19 22  1  0  0  0  0
 19 26  1  0  0  0  0
 21 17  1  6  0  0  0
 22 16  1  1  0  0  0
 23 20  1  1  0  0  0
 24 10  1  6  0  0  0
 24 26  1  0  0  0  0
 25 13  1  6  0  0  0
 25 27  1  0  0  0  0
 26 11  1  1  0  0  0
 27 12  1  6  0  0  0
M  CHG  1   2   1
M  END
$$$$
