FM6
 OpenBabel04091916413D

 39 40  0  0  1  0  0  0  0  0999 V2000
   22.2188   22.0042  -18.5731 C   0  0  0  0  0  0  0  0  0  0  0  0
   21.8748   22.7526  -19.6825 C   0  0  0  0  0  0  0  0  0  0  0  0
   23.0649   23.8111  -20.3557 Cl  0  0  0  0  0  0  0  0  0  0  0  0
   20.5727   22.6493  -20.2043 C   0  0  0  0  0  0  0  0  0  0  0  0
   20.0544   23.5809  -21.5661 Cl  0  0  0  0  0  0  0  0  0  0  0  0
   19.6482   21.8044  -19.6173 C   0  0  0  0  0  0  0  0  0  0  0  0
   19.9875   21.0538  -18.4977 C   0  0  0  0  0  0  0  0  0  0  0  0
   21.2804   21.1495  -17.9722 C   0  0  0  0  0  0  0  0  0  0  0  0
   21.6318   20.3697  -16.7165 C   0  0  1  0  0  0  0  0  0  0  0  0
   22.8479   18.9120  -17.0182 P   0  0  0  0  0  0  0  0  0  0  0  0
   22.9641   18.2796  -15.6350 O   0  0  0  0  0  0  0  0  0  0  0  0
   22.1045   18.0670  -18.0491 O   0  0  0  0  0  0  0  0  0  0  0  0
   24.1094   19.6033  -17.5188 O   0  0  0  0  0  0  0  0  0  0  0  0
   22.0906   21.3428  -15.6155 C   0  0  0  0  0  0  0  0  0  0  0  0
   21.0027   22.3811  -15.3088 C   0  0  0  0  0  0  0  0  0  0  0  0
   19.7017   21.7990  -14.9670 N   0  0  0  0  0  0  0  0  0  0  0  0
   19.8427   20.6911  -14.0901 O   0  0  0  0  0  0  0  0  0  0  0  0
   18.4473   22.0471  -15.4542 C   0  0  0  0  0  0  0  0  0  0  0  0
   17.4707   21.3348  -15.1787 O   0  0  0  0  0  0  0  0  0  0  0  0
   18.2062   23.2423  -16.3019 C   0  0  0  0  0  0  0  0  0  0  0  0
   18.6649   24.5042  -15.9025 C   0  0  0  0  0  0  0  0  0  0  0  0
   18.4040   25.6229  -16.6881 C   0  0  0  0  0  0  0  0  0  0  0  0
   17.6645   25.4922  -17.8660 C   0  0  0  0  0  0  0  0  0  0  0  0
   17.1773   24.2445  -18.2537 C   0  0  0  0  0  0  0  0  0  0  0  0
   17.4312   23.1182  -17.4647 C   0  0  0  0  0  0  0  0  0  0  0  0
   23.2241   22.0560  -18.1509 H   0  0  0  0  0  0  0  0  0  0  0  0
   18.6289   21.7225  -20.0066 H   0  0  0  0  0  0  0  0  0  0  0  0
   19.2625   20.4011  -18.0154 H   0  0  0  0  0  0  0  0  0  0  0  0
   20.7339   19.8477  -16.3662 H   0  0  0  0  0  0  0  0  0  0  0  0
   23.0110   21.8608  -15.9083 H   0  0  0  0  0  0  0  0  0  0  0  0
   22.3338   20.7893  -14.7039 H   0  0  0  0  0  0  0  0  0  0  0  0
   20.8815   23.0668  -16.1544 H   0  0  0  0  0  0  0  0  0  0  0  0
   21.2943   22.9995  -14.4531 H   0  0  0  0  0  0  0  0  0  0  0  0
   18.9805   20.2373  -14.1537 H   0  0  0  0  0  0  0  0  0  0  0  0
   19.2296   24.6088  -14.9798 H   0  0  0  0  0  0  0  0  0  0  0  0
   18.7832   26.5951  -16.3854 H   0  0  0  0  0  0  0  0  0  0  0  0
   17.4721   26.3655  -18.4825 H   0  0  0  0  0  0  0  0  0  0  0  0
   16.6121   24.1407  -19.1760 H   0  0  0  0  0  0  0  0  0  0  0  0
   17.0618   22.1453  -17.7688 H   0  0  0  0  0  0  0  0  0  0  0  0
  1  2  2  0  0  0  0
  1  8  1  0  0  0  0
  1 26  1  0  0  0  0
  2  3  1  0  0  0  0
  2  4  1  0  0  0  0
  4  5  1  0  0  0  0
  4  6  2  0  0  0  0
  6  7  1  0  0  0  0
  6 27  1  0  0  0  0
  7  8  2  0  0  0  0
  7 28  1  0  0  0  0
  8  9  1  0  0  0  0
  9 10  1  0  0  0  0
  9 14  1  0  0  0  0
  9 29  1  1  0  0  0
 10 11  2  0  0  0  0
 10 12  1  0  0  0  0
 10 13  1  0  0  0  0
 14 15  1  0  0  0  0
 14 30  1  0  0  0  0
 14 31  1  0  0  0  0
 15 16  1  0  0  0  0
 15 32  1  0  0  0  0
 15 33  1  0  0  0  0
 16 17  1  0  0  0  0
 16 18  1  0  0  0  0
 17 34  1  0  0  0  0
 18 19  2  0  0  0  0
 18 20  1  0  0  0  0
 20 21  2  0  0  0  0
 20 25  1  0  0  0  0
 21 22  1  0  0  0  0
 21 35  1  0  0  0  0
 22 23  2  0  0  0  0
 22 36  1  0  0  0  0
 23 24  1  0  0  0  0
 23 37  1  0  0  0  0
 24 25  2  0  0  0  0
 24 38  1  0  0  0  0
 25 39  1  0  0  0  0
M  END
$$$$
