FU7
 OpenBabel04091914573D

 53 56  0  0  0  0  0  0  0  0999 V2000
   13.7847   -1.0918   51.6702 C   0  0  0  0  0  0  0  0  0  0  0  0
   17.6736   -7.7441   54.3392 F   0  0  0  0  0  0  0  0  0  0  0  0
   16.3178   -4.7186   51.4530 N   0  3  0  0  0  0  0  0  0  0  0  0
   15.1712   -6.3758   52.5327 O   0  0  0  0  0  0  0  0  0  0  0  0
   12.8041   -0.8122   49.1107 Cl  0  0  0  0  0  0  0  0  0  0  0  0
   13.5765   -1.1467   53.0721 C   0  0  0  0  0  0  0  0  0  0  0  0
   19.3647   -8.1761   53.0402 F   0  0  0  0  0  0  0  0  0  0  0  0
   17.7131   -1.8272   49.9042 N   0  0  0  0  0  0  0  0  0  0  0  0
   14.7173   -1.2110   53.8295 O   0  0  0  0  0  0  0  0  0  0  0  0
    9.5913   -0.9928   53.3791 Cl  0  0  0  0  0  0  0  0  0  0  0  0
   12.2807   -1.1214   53.5962 C   0  0  0  0  0  0  0  0  0  0  0  0
   15.8199   -0.3454   50.4768 N   0  0  0  0  0  0  0  0  0  0  0  0
   11.1889   -0.9944   52.7371 C   0  0  0  0  0  0  0  0  0  0  0  0
   17.7007    0.4396   49.3817 N   0  0  0  0  0  0  0  0  0  0  0  0
   11.3725   -0.8704   51.3653 C   0  0  0  0  0  0  0  0  0  0  0  0
   17.2235   -6.8951   51.6032 N   0  0  0  0  0  0  0  0  0  0  0  0
   12.6629   -0.9200   50.8348 C   0  0  0  0  0  0  0  0  0  0  0  0
   16.9137   -2.3920   55.2177 N   0  3  0  0  0  0  0  0  0  0  0  0
   15.7588   -2.5636   51.1227 C   0  0  0  0  0  0  0  0  0  0  0  0
   16.7834   -3.6896   55.5379 N   0  0  0  0  0  0  0  0  0  0  0  0
   15.3372   -3.7462   51.6695 C   0  0  0  0  0  0  0  0  0  0  0  0
   17.3467   -4.1099   50.7237 C   0  0  0  0  0  0  0  0  0  0  0  0
   17.0132   -2.7924   50.5345 C   0  0  0  0  0  0  0  0  0  0  0  0
   17.0498   -0.6373   49.9389 C   0  0  0  0  0  0  0  0  0  0  0  0
   15.1121   -1.3278   51.1131 C   0  0  0  0  0  0  0  0  0  0  0  0
   16.1821   -6.0550   51.9217 C   0  0  0  0  0  0  0  0  0  0  0  0
   14.6286   -1.4018   55.2415 C   0  0  0  0  0  0  0  0  0  0  0  0
   16.0391   -1.4033   55.8273 C   0  0  0  0  0  0  0  0  0  0  0  0
   17.9439   -2.1433   54.3563 C   0  0  0  0  0  0  0  0  0  0  0  0
   18.5063   -3.3668   54.0778 C   0  0  0  0  0  0  0  0  0  0  0  0
   17.7528   -4.2837   54.8258 C   0  0  0  0  0  0  0  0  0  0  0  0
   17.2178   -8.2894   52.0700 C   0  0  0  0  0  0  0  0  0  0  0  0
   18.0808   -8.5352   53.3171 C   0  0  0  0  0  0  0  0  0  0  0  0
   18.0681   -9.9810   53.7756 C   0  0  0  0  0  0  0  0  0  0  0  0
   12.0955   -1.2076   54.6620 H   0  0  0  0  0  0  0  0  0  0  0  0
   18.5224    0.2420   48.8374 H   0  0  0  0  0  0  0  0  0  0  0  0
   17.1523    1.2742   49.2494 H   0  0  0  0  0  0  0  0  0  0  0  0
   10.5139   -0.7609   50.7060 H   0  0  0  0  0  0  0  0  0  0  0  0
   18.0669   -6.5531   51.1670 H   0  0  0  0  0  0  0  0  0  0  0  0
   14.4457   -4.0115   52.2256 H   0  0  0  0  0  0  0  0  0  0  0  0
   18.2283   -4.6497   50.4170 H   0  0  0  0  0  0  0  0  0  0  0  0
   14.1154   -2.3422   55.4720 H   0  0  0  0  0  0  0  0  0  0  0  0
   14.0786   -0.5649   55.6902 H   0  0  0  0  0  0  0  0  0  0  0  0
   16.5127   -0.4238   55.6796 H   0  0  0  0  0  0  0  0  0  0  0  0
   16.0159   -1.6066   56.9039 H   0  0  0  0  0  0  0  0  0  0  0  0
   18.1783   -1.1455   54.0127 H   0  0  0  0  0  0  0  0  0  0  0  0
   19.3407   -3.5617   53.4196 H   0  0  0  0  0  0  0  0  0  0  0  0
   17.8615   -5.3605   54.8869 H   0  0  0  0  0  0  0  0  0  0  0  0
   17.5960   -8.8906   51.2368 H   0  0  0  0  0  0  0  0  0  0  0  0
   16.1856   -8.5954   52.2742 H   0  0  0  0  0  0  0  0  0  0  0  0
   17.0550  -10.3128   54.0225 H   0  0  0  0  0  0  0  0  0  0  0  0
   18.6790  -10.0945   54.6776 H   0  0  0  0  0  0  0  0  0  0  0  0
   18.4860  -10.6438   53.0109 H   0  0  0  0  0  0  0  0  0  0  0  0
  1  6  2  0  0  0  0
  1 17  1  0  0  0  0
  1 25  1  0  0  0  0
  2 33  1  0  0  0  0
  3 21  1  0  0  0  0
  3 22  1  0  0  0  0
  3 26  1  0  0  0  0
  4 26  2  0  0  0  0
  5 17  1  0  0  0  0
  6  9  1  0  0  0  0
  6 11  1  0  0  0  0
  7 33  1  0  0  0  0
  8 23  1  0  0  0  0
  8 24  2  0  0  0  0
  9 27  1  0  0  0  0
 10 13  1  0  0  0  0
 11 13  2  0  0  0  0
 11 35  1  0  0  0  0
 12 24  1  0  0  0  0
 12 25  2  0  0  0  0
 13 15  1  0  0  0  0
 14 24  1  0  0  0  0
 14 36  1  0  0  0  0
 14 37  1  0  0  0  0
 15 17  2  0  0  0  0
 15 38  1  0  0  0  0
 16 26  1  0  0  0  0
 16 32  1  0  0  0  0
 16 39  1  0  0  0  0
 18 20  1  0  0  0  0
 18 28  1  0  0  0  0
 18 29  2  0  0  0  0
 19 21  2  0  0  0  0
 19 23  1  0  0  0  0
 19 25  1  0  0  0  0
 20 31  1  0  0  0  0
 21 40  1  0  0  0  0
 22 23  2  0  0  0  0
 22 41  1  0  0  0  0
 27 28  1  0  0  0  0
 27 42  1  0  0  0  0
 27 43  1  0  0  0  0
 28 44  1  0  0  0  0
 28 45  1  0  0  0  0
 29 30  1  0  0  0  0
 29 46  1  0  0  0  0
 30 31  2  0  0  0  0
 30 47  1  0  0  0  0
 31 48  1  0  0  0  0
 32 33  1  0  0  0  0
 32 49  1  0  0  0  0
 32 50  1  0  0  0  0
 33 34  1  0  0  0  0
 34 51  1  0  0  0  0
 34 52  1  0  0  0  0
 34 53  1  0  0  0  0
M  CHG  2   3   1  18   1
M  END
$$$$
