FUN
 OpenBabel04091915003D

 31 32  0  0  0  0  0  0  0  0999 V2000
  -50.8096   48.7380   12.8061 N   0  0  0  0  0  0  0  0  0  0  0  0
  -50.1247   47.7914   13.9951 S   0  0  0  0  0  0  0  0  0  0  0  0
  -51.2203   47.0306   14.5504 O   0  0  0  0  0  0  0  0  0  0  0  0
  -49.3036   48.6553   14.8124 O   0  0  0  0  0  0  0  0  0  0  0  0
  -49.0864   46.7482   13.0434 C   0  0  0  0  0  0  0  0  0  0  0  0
  -48.1651   47.2708   12.1490 C   0  0  0  0  0  0  0  0  0  0  0  0
  -47.8669   48.9574   11.8940 Cl  0  0  0  0  0  0  0  0  0  0  0  0
  -47.3889   46.3963   11.3969 C   0  0  0  0  0  0  0  0  0  0  0  0
  -47.4962   44.9993   11.5112 C   0  0  0  0  0  0  0  0  0  0  0  0
  -46.5805   44.1789   10.8445 N   0  0  0  0  0  0  0  0  0  0  0  0
  -45.8913   44.6315    9.6430 C   0  0  0  0  0  0  0  0  0  0  0  0
  -46.7347   44.8467    8.4304 C   0  0  0  0  0  0  0  0  0  0  0  0
  -47.4510   43.9590    7.6579 C   0  0  0  0  0  0  0  0  0  0  0  0
  -48.0509   44.7107    6.6257 C   0  0  0  0  0  0  0  0  0  0  0  0
  -47.6746   46.0171    6.8281 C   0  0  0  0  0  0  0  0  0  0  0  0
  -46.8596   46.1108    7.9184 O   0  0  0  0  0  0  0  0  0  0  0  0
  -48.4324   44.4655   12.4289 C   0  0  0  0  0  0  0  0  0  0  0  0
  -49.2284   45.3628   13.1763 C   0  0  0  0  0  0  0  0  0  0  0  0
  -48.6414   42.9759   12.6478 C   0  0  0  0  0  0  0  0  0  0  0  0
  -49.3711   42.6219   13.6280 O   0  0  0  0  0  0  0  0  0  0  0  0
  -48.0870   42.1754   11.8044 O   0  0  0  0  0  0  0  0  0  0  0  0
  -51.6246   48.3668   12.3326 H   0  0  0  0  0  0  0  0  0  0  0  0
  -50.5967   49.7285   12.8534 H   0  0  0  0  0  0  0  0  0  0  0  0
  -46.6662   46.8304   10.7152 H   0  0  0  0  0  0  0  0  0  0  0  0
  -46.9221   43.1983   10.8446 H   0  0  0  0  0  0  0  0  0  0  0  0
  -45.1460   43.8671    9.3908 H   0  0  0  0  0  0  0  0  0  0  0  0
  -45.2929   45.5238    9.8645 H   0  0  0  0  0  0  0  0  0  0  0  0
  -47.5190   42.8944    7.8495 H   0  0  0  0  0  0  0  0  0  0  0  0
  -48.6892   44.3427    5.8370 H   0  0  0  0  0  0  0  0  0  0  0  0
  -47.8905   46.9428    6.3153 H   0  0  0  0  0  0  0  0  0  0  0  0
  -49.9533   44.9507   13.8796 H   0  0  0  0  0  0  0  0  0  0  0  0
  1  2  1  0  0  0  0
  1 22  1  0  0  0  0
  1 23  1  0  0  0  0
  2  3  2  0  0  0  0
  2  4  2  0  0  0  0
  2  5  1  0  0  0  0
  5  6  2  0  0  0  0
  5 18  1  0  0  0  0
  6  7  1  0  0  0  0
  6  8  1  0  0  0  0
  8  9  2  0  0  0  0
  8 24  1  0  0  0  0
  9 10  1  0  0  0  0
  9 17  1  0  0  0  0
 10 11  1  0  0  0  0
 10 25  1  0  0  0  0
 11 12  1  0  0  0  0
 11 26  1  0  0  0  0
 11 27  1  0  0  0  0
 12 13  2  0  0  0  0
 12 16  1  0  0  0  0
 13 14  1  0  0  0  0
 13 28  1  0  0  0  0
 14 15  2  0  0  0  0
 14 29  1  0  0  0  0
 15 16  1  0  0  0  0
 15 30  1  0  0  0  0
 17 18  2  0  0  0  0
 17 19  1  0  0  0  0
 18 31  1  0  0  0  0
 19 20  2  0  0  0  0
 19 21  1  0  0  0  0
M  END
$$$$
