G00
 OpenBabel04091913283D

 35 35  0  0  0  0  0  0  0  0999 V2000
   24.4984   11.2369   20.2621 C   0  0  0  0  0  0  0  0  0  0  0  0
   22.4004    8.9038   24.7399 N   0  0  0  0  0  0  0  0  0  0  0  0
   25.5737   11.7824   19.6102 O   0  0  0  0  0  0  0  0  0  0  0  0
   20.4643   10.4044   23.6698 S   0  0  0  0  0  0  0  0  0  0  0  0
   23.1435   13.4413   19.3768 Cl  0  0  0  0  0  0  0  0  0  0  0  0
   24.5440   10.0394   20.9837 C   0  0  0  0  0  0  0  0  0  0  0  0
   21.8566   10.8477   25.7860 N   0  0  0  0  0  0  0  0  0  0  0  0
   23.3947    9.5103   21.5686 C   0  0  0  0  0  0  0  0  0  0  0  0
   22.1734   10.1875   21.4991 C   0  0  0  0  0  0  0  0  0  0  0  0
   22.1297   11.4128   20.8208 C   0  0  0  0  0  0  0  0  0  0  0  0
   23.2804   11.9320   20.2053 C   0  0  0  0  0  0  0  0  0  0  0  0
   26.7342   10.9652   19.4036 C   0  0  0  0  0  0  0  0  0  0  0  0
   27.8435   11.4087   20.3549 C   0  0  0  0  0  0  0  0  0  0  0  0
   28.6948   10.2266   20.8163 C   0  0  0  0  0  0  0  0  0  0  0  0
   29.5242   10.5698   22.0433 C   0  0  0  0  0  0  0  0  0  0  0  0
   20.9451    9.5920   22.1311 C   0  0  0  0  0  0  0  0  0  0  0  0
   21.6936   10.0001   24.7963 C   0  0  0  0  0  0  0  0  0  0  0  0
   23.1072    8.6829   25.4281 H   0  0  0  0  0  0  0  0  0  0  0  0
   25.4648    9.4752   21.1003 H   0  0  0  0  0  0  0  0  0  0  0  0
   21.2670   11.6688   25.7991 H   0  0  0  0  0  0  0  0  0  0  0  0
   22.5224   10.7154   26.5320 H   0  0  0  0  0  0  0  0  0  0  0  0
   23.4793    8.5411   22.0565 H   0  0  0  0  0  0  0  0  0  0  0  0
   21.1947   11.9679   20.7456 H   0  0  0  0  0  0  0  0  0  0  0  0
   27.0559   11.1225   18.3640 H   0  0  0  0  0  0  0  0  0  0  0  0
   26.5239    9.8969   19.4635 H   0  0  0  0  0  0  0  0  0  0  0  0
   27.4198   11.9341   21.2211 H   0  0  0  0  0  0  0  0  0  0  0  0
   28.4837   12.1395   19.8430 H   0  0  0  0  0  0  0  0  0  0  0  0
   29.3535    9.9028   20.0016 H   0  0  0  0  0  0  0  0  0  0  0  0
   28.0524    9.3759   21.0703 H   0  0  0  0  0  0  0  0  0  0  0  0
   30.1066    9.6990   22.3598 H   0  0  0  0  0  0  0  0  0  0  0  0
   28.8775   10.8601   22.8785 H   0  0  0  0  0  0  0  0  0  0  0  0
   30.2157   11.3926   21.8398 H   0  0  0  0  0  0  0  0  0  0  0  0
   20.1115    9.6521   21.4253 H   0  0  0  0  0  0  0  0  0  0  0  0
   21.0887    8.5202   22.3222 H   0  0  0  0  0  0  0  0  0  0  0  0
   22.2411    8.2197   24.0104 H   0  0  0  0  0  0  0  0  0  0  0  0
  1  3  1  0  0  0  0
  1  6  2  0  0  0  0
  1 11  1  0  0  0  0
  2 17  2  0  0  0  0
  2 18  1  0  0  0  0
  2 35  1  0  0  0  0
  3 12  1  0  0  0  0
  4 16  1  0  0  0  0
  4 17  1  0  0  0  0
  5 11  1  0  0  0  0
  6  8  1  0  0  0  0
  6 19  1  0  0  0  0
  7 17  1  0  0  0  0
  7 20  1  0  0  0  0
  7 21  1  0  0  0  0
  8  9  2  0  0  0  0
  8 22  1  0  0  0  0
  9 10  1  0  0  0  0
  9 16  1  0  0  0  0
 10 11  2  0  0  0  0
 10 23  1  0  0  0  0
 12 13  1  0  0  0  0
 12 24  1  0  0  0  0
 12 25  1  0  0  0  0
 13 14  1  0  0  0  0
 13 26  1  0  0  0  0
 13 27  1  0  0  0  0
 14 15  1  0  0  0  0
 14 28  1  0  0  0  0
 14 29  1  0  0  0  0
 15 30  1  0  0  0  0
 15 31  1  0  0  0  0
 15 32  1  0  0  0  0
 16 33  1  0  0  0  0
 16 34  1  0  0  0  0
M  END
$$$$
