G04
 OpenBabel04091914483D

 81 84  0  0  1  0  0  0  0  0999 V2000
   20.9389   27.6068   14.8109 C   0  0  0  0  0  0  0  0  0  0  0  0
   19.6000   27.5758   14.4398 C   0  0  0  0  0  0  0  0  0  0  0  0
   18.8228   26.4329   14.7132 C   0  0  0  0  0  0  0  0  0  0  0  0
   19.3628   25.3832   15.4431 C   0  0  0  0  0  0  0  0  0  0  0  0
   20.7057   25.4004   15.7829 C   0  0  0  0  0  0  0  0  0  0  0  0
   21.4794   26.4917   15.4487 C   0  0  0  0  0  0  0  0  0  0  0  0
   18.4002   23.9392   15.8071 S   0  0  0  0  0  0  0  0  0  0  0  0
   17.3539   23.8465   14.8315 O   0  0  0  0  0  0  0  0  0  0  0  0
   19.3204   22.8216   15.9881 O   0  0  0  0  0  0  0  0  0  0  0  0
   17.6688   24.2074   17.3196 N   0  0  0  0  0  0  0  0  0  0  0  0
   18.5661   24.5784   18.4246 C   0  0  0  0  0  0  0  0  0  0  0  0
   18.3380   23.7879   19.7069 C   0  0  0  0  0  0  0  0  0  0  0  0
   18.1709   22.2939   19.4813 C   0  0  0  0  0  0  0  0  0  0  0  0
   19.5300   24.0299   20.6262 C   0  0  0  0  0  0  0  0  0  0  0  0
   16.3863   24.9356   17.3388 C   0  0  0  0  0  0  0  0  0  0  0  0
   15.2674   24.0349   17.8753 C   0  0  1  0  0  0  0  0  0  0  0  0
   14.1173   24.8051   18.2662 O   0  0  0  0  0  0  0  0  0  0  0  0
   14.8613   22.9096   16.8976 C   0  0  1  0  0  0  0  0  0  0  0  0
   13.9213   22.0227   17.5989 N   0  0  0  0  0  0  0  0  0  0  0  0
   14.2398   20.7576   17.9197 C   0  0  0  0  0  0  0  0  0  0  0  0
   15.2754   20.2262   17.6882 O   0  0  0  0  0  0  0  0  0  0  0  0
   13.1858   20.1241   18.5265 O   0  0  0  0  0  0  0  0  0  0  0  0
   13.3678   18.7135   18.8111 C   0  0  1  0  0  0  0  0  0  0  0  0
   12.9369   18.4851   20.2473 C   0  0  0  0  0  0  0  0  0  0  0  0
   11.4967   18.4647   20.2182 O   0  0  0  0  0  0  0  0  0  0  0  0
   11.0930   18.0465   18.8978 C   0  0  1  0  0  0  0  0  0  0  0  0
   10.2530   19.0380   18.2788 O   0  0  0  0  0  0  0  0  0  0  0  0
   10.8671   19.4401   17.0416 C   0  0  0  0  0  0  0  0  0  0  0  0
   11.9260   18.4004   16.7170 C   0  0  1  0  0  0  0  0  0  0  0  0
   12.3507   17.8808   18.0552 C   0  0  1  0  0  0  0  0  0  0  0  0
   14.1789   23.4439   15.6259 C   0  0  0  0  0  0  0  0  0  0  0  0
   12.4371   21.9202   14.6214 C   0  0  0  0  0  0  0  0  0  0  0  0
   12.0535   20.8194   13.8454 C   0  0  0  0  0  0  0  0  0  0  0  0
   13.0044   20.1303   13.0951 C   0  0  0  0  0  0  0  0  0  0  0  0
   14.3303   20.5290   13.1556 C   0  0  0  0  0  0  0  0  0  0  0  0
   14.7148   21.6095   13.9624 C   0  0  0  0  0  0  0  0  0  0  0  0
   13.7702   22.3203   14.7053 C   0  0  0  0  0  0  0  0  0  0  0  0
   21.7060   28.7154   14.5337 O   0  0  0  0  0  0  0  0  0  0  0  0
   23.0850   28.4124   14.7767 C   0  0  0  0  0  0  0  0  0  0  0  0
   11.3168   17.2941   16.0361 O   0  0  0  0  0  0  0  0  0  0  0  0
   11.3201   17.4658   14.6323 C   0  0  0  0  0  0  0  0  0  0  0  0
   19.1322   28.4264   13.9518 H   0  0  0  0  0  0  0  0  0  0  0  0
   17.7959   26.3720   14.3437 H   0  0  0  0  0  0  0  0  0  0  0  0
   21.1857   24.5819   16.2899 H   0  0  0  0  0  0  0  0  0  0  0  0
   22.5233   26.4355   15.7303 H   0  0  0  0  0  0  0  0  0  0  0  0
   18.4234   25.6435   18.6361 H   0  0  0  0  0  0  0  0  0  0  0  0
   19.5953   24.4437   18.0996 H   0  0  0  0  0  0  0  0  0  0  0  0
   17.4333   24.1606   20.1980 H   0  0  0  0  0  0  0  0  0  0  0  0
   18.0265   21.7828   20.4390 H   0  0  0  0  0  0  0  0  0  0  0  0
   19.0507   21.8711   18.9898 H   0  0  0  0  0  0  0  0  0  0  0  0
   17.2972   22.0892   18.8609 H   0  0  0  0  0  0  0  0  0  0  0  0
   19.6741   25.1018   20.7926 H   0  0  0  0  0  0  0  0  0  0  0  0
   20.4501   23.6274   20.1843 H   0  0  0  0  0  0  0  0  0  0  0  0
   19.3759   23.5461   21.5937 H   0  0  0  0  0  0  0  0  0  0  0  0
   16.1407   25.2951   16.3412 H   0  0  0  0  0  0  0  0  0  0  0  0
   16.4705   25.8230   17.9734 H   0  0  0  0  0  0  0  0  0  0  0  0
   15.6256   23.5660   18.7973 H   0  0  0  0  0  0  0  0  0  0  0  0
   13.7730   25.2787   17.4901 H   0  0  0  0  0  0  0  0  0  0  0  0
   15.7678   22.3643   16.6160 H   0  0  0  0  0  0  0  0  0  0  0  0
   13.0257   22.3801   17.8377 H   0  0  0  0  0  0  0  0  0  0  0  0
   14.3956   18.3838   18.6386 H   0  0  0  0  0  0  0  0  0  0  0  0
   13.2689   19.2780   20.9213 H   0  0  0  0  0  0  0  0  0  0  0  0
   13.2772   17.5169   20.6338 H   0  0  0  0  0  0  0  0  0  0  0  0
   10.5177   17.1150   18.9878 H   0  0  0  0  0  0  0  0  0  0  0  0
   11.2936   20.4389   17.1768 H   0  0  0  0  0  0  0  0  0  0  0  0
   10.0948   19.5061   16.2717 H   0  0  0  0  0  0  0  0  0  0  0  0
   12.7498   18.8171   16.1357 H   0  0  0  0  0  0  0  0  0  0  0  0
   12.6544   16.8258   18.0252 H   0  0  0  0  0  0  0  0  0  0  0  0
   14.8410   24.1289   15.0896 H   0  0  0  0  0  0  0  0  0  0  0  0
   13.2919   24.0270   15.9042 H   0  0  0  0  0  0  0  0  0  0  0  0
   11.6728   22.4599   15.1794 H   0  0  0  0  0  0  0  0  0  0  0  0
   11.0100   20.5151   13.8308 H   0  0  0  0  0  0  0  0  0  0  0  0
   12.7037   19.2833   12.4754 H   0  0  0  0  0  0  0  0  0  0  0  0
   15.0813   20.0038   12.5732 H   0  0  0  0  0  0  0  0  0  0  0  0
   15.7657   21.8960   13.9980 H   0  0  0  0  0  0  0  0  0  0  0  0
   23.7247   29.2737   14.6068 H   0  0  0  0  0  0  0  0  0  0  0  0
   23.3939   27.5917   14.1112 H   0  0  0  0  0  0  0  0  0  0  0  0
   23.2368   28.1415   15.8334 H   0  0  0  0  0  0  0  0  0  0  0  0
   10.8415   16.6049   14.1629 H   0  0  0  0  0  0  0  0  0  0  0  0
   12.3502   17.5320   14.2842 H   0  0  0  0  0  0  0  0  0  0  0  0
   10.7669   18.3613   14.3615 H   0  0  0  0  0  0  0  0  0  0  0  0
  1  2  2  0  0  0  0
  1  6  1  0  0  0  0
  1 38  1  0  0  0  0
  2  3  1  0  0  0  0
  2 42  1  0  0  0  0
  3  4  2  0  0  0  0
  3 43  1  0  0  0  0
  4  5  1  0  0  0  0
  4  7  1  0  0  0  0
  5  6  2  0  0  0  0
  5 44  1  0  0  0  0
  6 45  1  0  0  0  0
  7  8  2  0  0  0  0
  7  9  2  0  0  0  0
  7 10  1  0  0  0  0
 10 11  1  0  0  0  0
 10 15  1  0  0  0  0
 11 12  1  0  0  0  0
 11 46  1  0  0  0  0
 11 47  1  0  0  0  0
 12 13  1  0  0  0  0
 12 14  1  0  0  0  0
 12 48  1  0  0  0  0
 13 49  1  0  0  0  0
 13 50  1  0  0  0  0
 13 51  1  0  0  0  0
 14 52  1  0  0  0  0
 14 53  1  0  0  0  0
 14 54  1  0  0  0  0
 15 16  1  0  0  0  0
 15 55  1  0  0  0  0
 15 56  1  0  0  0  0
 16 17  1  0  0  0  0
 16 18  1  0  0  0  0
 16 57  1  1  0  0  0
 17 58  1  0  0  0  0
 18 19  1  0  0  0  0
 18 31  1  0  0  0  0
 18 59  1  6  0  0  0
 19 20  1  0  0  0  0
 19 60  1  0  0  0  0
 20 21  2  0  0  0  0
 20 22  1  0  0  0  0
 22 23  1  0  0  0  0
 23 24  1  0  0  0  0
 23 30  1  0  0  0  0
 23 61  1  6  0  0  0
 24 25  1  0  0  0  0
 24 62  1  0  0  0  0
 24 63  1  0  0  0  0
 25 26  1  0  0  0  0
 26 27  1  0  0  0  0
 26 30  1  0  0  0  0
 26 64  1  1  0  0  0
 27 28  1  0  0  0  0
 28 29  1  0  0  0  0
 28 65  1  0  0  0  0
 28 66  1  0  0  0  0
 29 30  1  0  0  0  0
 29 40  1  0  0  0  0
 29 67  1  6  0  0  0
 30 68  1  6  0  0  0
 31 37  1  0  0  0  0
 31 69  1  0  0  0  0
 31 70  1  0  0  0  0
 32 33  2  0  0  0  0
 32 37  1  0  0  0  0
 32 71  1  0  0  0  0
 33 34  1  0  0  0  0
 33 72  1  0  0  0  0
 34 35  2  0  0  0  0
 34 73  1  0  0  0  0
 35 36  1  0  0  0  0
 35 74  1  0  0  0  0
 36 37  2  0  0  0  0
 36 75  1  0  0  0  0
 38 39  1  0  0  0  0
 39 76  1  0  0  0  0
 39 77  1  0  0  0  0
 39 78  1  0  0  0  0
 40 41  1  0  0  0  0
 41 79  1  0  0  0  0
 41 80  1  0  0  0  0
 41 81  1  0  0  0  0
M  END
$$$$
