G05
 OpenBabel04091911303D

 80 83  0  0  1  0  0  0  0  0999 V2000
   20.8460   27.7592   14.9202 C   0  0  0  0  0  0  0  0  0  0  0  0
   21.4739   28.9530   14.6967 O   0  0  0  0  0  0  0  0  0  0  0  0
   22.8521   28.9471   15.0262 C   0  0  0  0  0  0  0  0  0  0  0  0
   21.4289   26.6179   15.4747 C   0  0  0  0  0  0  0  0  0  0  0  0
   20.6424   25.5010   15.7348 C   0  0  0  0  0  0  0  0  0  0  0  0
   19.2696   25.5342   15.4640 C   0  0  0  0  0  0  0  0  0  0  0  0
   18.6971   26.6466   14.8530 C   0  0  0  0  0  0  0  0  0  0  0  0
   19.4928   27.7592   14.5899 C   0  0  0  0  0  0  0  0  0  0  0  0
   18.2754   24.1166   15.8452 S   0  0  0  0  0  0  0  0  0  0  0  0
   17.2123   24.0423   14.8937 O   0  0  0  0  0  0  0  0  0  0  0  0
   19.2095   22.9951   16.0135 O   0  0  0  0  0  0  0  0  0  0  0  0
   17.6305   24.4366   17.3891 N   0  0  0  0  0  0  0  0  0  0  0  0
   18.5898   24.7472   18.4697 C   0  0  0  0  0  0  0  0  0  0  0  0
   18.2913   24.0454   19.7969 C   0  0  0  0  0  0  0  0  0  0  0  0
   18.3482   22.5263   19.6596 C   0  0  0  0  0  0  0  0  0  0  0  0
   19.3116   24.5291   20.8341 C   0  0  0  0  0  0  0  0  0  0  0  0
   16.3415   25.1497   17.4422 C   0  0  0  0  0  0  0  0  0  0  0  0
   15.2330   24.2319   17.9790 C   0  0  1  0  0  0  0  0  0  0  0  0
   14.0714   25.0189   18.2994 O   0  0  0  0  0  0  0  0  0  0  0  0
   14.8517   23.0709   17.0373 C   0  0  1  0  0  0  0  0  0  0  0  0
   13.9472   22.1856   17.7720 N   0  0  0  0  0  0  0  0  0  0  0  0
   14.3307   20.9580   18.1931 C   0  0  0  0  0  0  0  0  0  0  0  0
   15.4177   20.4652   18.0062 O   0  0  0  0  0  0  0  0  0  0  0  0
   13.2935   20.3594   18.8277 O   0  0  0  0  0  0  0  0  0  0  0  0
   13.5172   18.9919   19.2243 C   0  0  1  0  0  0  0  0  0  0  0  0
   12.3195   18.6110   20.0918 C   0  0  0  0  0  0  0  0  0  0  0  0
   11.2960   18.0463   19.0991 C   0  0  1  0  0  0  0  0  0  0  0  0
   10.6131   19.1349   18.4527 O   0  0  0  0  0  0  0  0  0  0  0  0
    9.9374   18.6993   17.2657 C   0  0  0  0  0  0  0  0  0  0  0  0
   10.9476   18.1208   16.2912 C   0  0  0  0  0  0  0  0  0  0  0  0
   11.5470   16.9579   16.8758 O   0  0  0  0  0  0  0  0  0  0  0  0
   12.1693   17.2514   18.1305 C   0  0  1  0  0  0  0  0  0  0  0  0
   13.4590   18.0630   18.0054 C   0  0  0  0  0  0  0  0  0  0  0  0
   14.1333   23.5337   15.7612 C   0  0  0  0  0  0  0  0  0  0  0  0
   12.4948   21.8453   14.8193 C   0  0  0  0  0  0  0  0  0  0  0  0
   12.2205   20.6911   14.0828 C   0  0  0  0  0  0  0  0  0  0  0  0
   13.2279   20.0665   13.3545 C   0  0  0  0  0  0  0  0  0  0  0  0
   14.5107   20.6067   13.3639 C   0  0  0  0  0  0  0  0  0  0  0  0
   14.7887   21.7537   14.1076 C   0  0  0  0  0  0  0  0  0  0  0  0
   13.7885   22.3751   14.8559 C   0  0  0  0  0  0  0  0  0  0  0  0
   23.2524   29.9500   14.8677 H   0  0  0  0  0  0  0  0  0  0  0  0
   23.3781   28.2472   14.3701 H   0  0  0  0  0  0  0  0  0  0  0  0
   22.9926   28.6846   16.0804 H   0  0  0  0  0  0  0  0  0  0  0  0
   22.4796   26.5785   15.7504 H   0  0  0  0  0  0  0  0  0  0  0  0
   21.0973   24.6196   16.1790 H   0  0  0  0  0  0  0  0  0  0  0  0
   17.6411   26.6721   14.6024 H   0  0  0  0  0  0  0  0  0  0  0  0
   19.0647   28.6603   14.1582 H   0  0  0  0  0  0  0  0  0  0  0  0
   18.5967   25.8311   18.6300 H   0  0  0  0  0  0  0  0  0  0  0  0
   19.5909   24.4475   18.1519 H   0  0  0  0  0  0  0  0  0  0  0  0
   17.2935   24.3211   20.1514 H   0  0  0  0  0  0  0  0  0  0  0  0
   18.1483   22.0429   20.6220 H   0  0  0  0  0  0  0  0  0  0  0  0
   19.3325   22.1989   19.3087 H   0  0  0  0  0  0  0  0  0  0  0  0
   17.5971   22.1749   18.9458 H   0  0  0  0  0  0  0  0  0  0  0  0
   19.2712   25.6205   20.9312 H   0  0  0  0  0  0  0  0  0  0  0  0
   20.3331   24.2588   20.5416 H   0  0  0  0  0  0  0  0  0  0  0  0
   19.1127   24.0969   21.8191 H   0  0  0  0  0  0  0  0  0  0  0  0
   16.0555   25.5230   16.4552 H   0  0  0  0  0  0  0  0  0  0  0  0
   16.4136   26.0378   18.0799 H   0  0  0  0  0  0  0  0  0  0  0  0
   15.5710   23.7930   18.9231 H   0  0  0  0  0  0  0  0  0  0  0  0
   13.7599   25.4509   17.4861 H   0  0  0  0  0  0  0  0  0  0  0  0
   15.7658   22.5272   16.7668 H   0  0  0  0  0  0  0  0  0  0  0  0
   13.0087   22.4883   17.9672 H   0  0  0  0  0  0  0  0  0  0  0  0
   14.4756   18.9116   19.7663 H   0  0  0  0  0  0  0  0  0  0  0  0
   11.9191   19.4920   20.6038 H   0  0  0  0  0  0  0  0  0  0  0  0
   12.6165   17.8567   20.8282 H   0  0  0  0  0  0  0  0  0  0  0  0
   10.5603   17.4002   19.5915 H   0  0  0  0  0  0  0  0  0  0  0  0
    9.4241   19.5559   16.8170 H   0  0  0  0  0  0  0  0  0  0  0  0
    9.1933   17.9467   17.5440 H   0  0  0  0  0  0  0  0  0  0  0  0
   11.7287   18.8492   16.0678 H   0  0  0  0  0  0  0  0  0  0  0  0
   10.4677   17.8416   15.3469 H   0  0  0  0  0  0  0  0  0  0  0  0
   12.4091   16.2890   18.5966 H   0  0  0  0  0  0  0  0  0  0  0  0
   14.3045   17.3678   18.0056 H   0  0  0  0  0  0  0  0  0  0  0  0
   13.4940   18.6333   17.0773 H   0  0  0  0  0  0  0  0  0  0  0  0
   14.7548   24.2451   15.2123 H   0  0  0  0  0  0  0  0  0  0  0  0
   13.2113   24.0578   16.0364 H   0  0  0  0  0  0  0  0  0  0  0  0
   11.6943   22.3156   15.3818 H   0  0  0  0  0  0  0  0  0  0  0  0
   11.2205   20.2697   14.0958 H   0  0  0  0  0  0  0  0  0  0  0  0
   13.0159   19.1681   12.7791 H   0  0  0  0  0  0  0  0  0  0  0  0
   15.3071   20.1312   12.8015 H   0  0  0  0  0  0  0  0  0  0  0  0
   15.7989   22.1538   14.1182 H   0  0  0  0  0  0  0  0  0  0  0  0
  1  2  1  0  0  0  0
  1  4  2  0  0  0  0
  1  8  1  0  0  0  0
  2  3  1  0  0  0  0
  3 41  1  0  0  0  0
  3 42  1  0  0  0  0
  3 43  1  0  0  0  0
  4  5  1  0  0  0  0
  4 44  1  0  0  0  0
  5  6  2  0  0  0  0
  5 45  1  0  0  0  0
  6  7  1  0  0  0  0
  6  9  1  0  0  0  0
  7  8  2  0  0  0  0
  7 46  1  0  0  0  0
  8 47  1  0  0  0  0
  9 10  2  0  0  0  0
  9 11  2  0  0  0  0
  9 12  1  0  0  0  0
 12 13  1  0  0  0  0
 12 17  1  0  0  0  0
 13 14  1  0  0  0  0
 13 48  1  0  0  0  0
 13 49  1  0  0  0  0
 14 15  1  0  0  0  0
 14 16  1  0  0  0  0
 14 50  1  0  0  0  0
 15 51  1  0  0  0  0
 15 52  1  0  0  0  0
 15 53  1  0  0  0  0
 16 54  1  0  0  0  0
 16 55  1  0  0  0  0
 16 56  1  0  0  0  0
 17 18  1  0  0  0  0
 17 57  1  0  0  0  0
 17 58  1  0  0  0  0
 18 19  1  0  0  0  0
 18 20  1  0  0  0  0
 18 59  1  1  0  0  0
 19 60  1  0  0  0  0
 20 21  1  0  0  0  0
 20 34  1  0  0  0  0
 20 61  1  6  0  0  0
 21 22  1  0  0  0  0
 21 62  1  0  0  0  0
 22 23  2  0  0  0  0
 22 24  1  0  0  0  0
 24 25  1  0  0  0  0
 25 26  1  0  0  0  0
 25 33  1  0  0  0  0
 25 63  1  1  0  0  0
 26 27  1  0  0  0  0
 26 64  1  0  0  0  0
 26 65  1  0  0  0  0
 27 28  1  0  0  0  0
 27 32  1  0  0  0  0
 27 66  1  1  0  0  0
 28 29  1  0  0  0  0
 29 30  1  0  0  0  0
 29 67  1  0  0  0  0
 29 68  1  0  0  0  0
 30 31  1  0  0  0  0
 30 69  1  0  0  0  0
 30 70  1  0  0  0  0
 31 32  1  0  0  0  0
 32 33  1  0  0  0  0
 32 71  1  1  0  0  0
 33 72  1  0  0  0  0
 33 73  1  0  0  0  0
 34 40  1  0  0  0  0
 34 74  1  0  0  0  0
 34 75  1  0  0  0  0
 35 36  2  0  0  0  0
 35 40  1  0  0  0  0
 35 76  1  0  0  0  0
 36 37  1  0  0  0  0
 36 77  1  0  0  0  0
 37 38  2  0  0  0  0
 37 78  1  0  0  0  0
 38 39  1  0  0  0  0
 38 79  1  0  0  0  0
 39 40  2  0  0  0  0
 39 80  1  0  0  0  0
M  END
$$$$
