G13
 OpenBabel04091912253D

 74 77  0  0  1  0  0  0  0  0999 V2000
   75.6292   60.9716   15.5721 O   0  0  0  0  0  0  0  0  0  0  0  0
   75.8932   62.0495   16.0919 C   0  0  0  0  0  0  0  0  0  0  0  0
   75.4602   62.3813   17.4855 C   0  0  0  0  0  0  0  0  0  0  0  0
   76.4609   62.7725   18.3915 C   0  0  0  0  0  0  0  0  0  0  0  0
   76.1382   63.0757   19.7104 C   0  0  0  0  0  0  0  0  0  0  0  0
   74.8137   62.9978   20.1335 C   0  0  0  0  0  0  0  0  0  0  0  0
   73.7955   62.6198   19.2427 C   0  0  0  0  0  0  0  0  0  0  0  0
   72.4687   62.5593   19.6800 C   0  0  0  0  0  0  0  0  0  0  0  0
   74.1115   62.3035   17.8939 C   0  0  0  0  0  0  0  0  0  0  0  0
   73.0563   61.9479   17.0279 C   0  0  0  0  0  0  0  0  0  0  0  0
   71.7386   61.8934   17.4798 C   0  0  0  0  0  0  0  0  0  0  0  0
   71.4448   62.1969   18.8077 C   0  0  0  0  0  0  0  0  0  0  0  0
   76.6227   63.0531   15.4935 N   0  0  0  0  0  0  0  0  0  0  0  0
   77.3017   62.8727   14.2237 C   0  0  2  0  0  0  0  0  0  0  0  0
   78.5815   63.7301   14.1868 C   0  0  2  0  0  0  0  0  0  0  0  0
   78.3079   64.9185   13.2804 C   0  0  2  0  0  0  0  0  0  0  0  0
   77.0260   64.6211   12.5119 C   0  0  0  0  0  0  0  0  0  0  0  0
   76.4385   63.3256   13.0505 C   0  0  0  0  0  0  0  0  0  0  0  0
   79.5310   65.0327   12.3713 C   0  0  0  0  0  0  0  0  0  0  0  0
   80.1377   63.6427   12.3577 C   0  0  0  0  0  0  0  0  0  0  0  0
   79.7237   63.0437   13.6148 N   0  0  0  0  0  0  0  0  0  0  0  0
   80.3092   62.0150   14.3109 C   0  0  0  0  0  0  0  0  0  0  0  0
   79.9540   61.7062   15.4533 O   0  0  0  0  0  0  0  0  0  0  0  0
   81.4097   61.2051   13.6138 C   0  0  2  0  0  0  0  0  0  0  0  0
   80.8530   59.9578   12.8773 C   0  0  0  0  0  0  0  0  0  0  0  0
   79.9636   60.3874   11.7030 C   0  0  0  0  0  0  0  0  0  0  0  0
   80.0249   59.0549   13.8064 C   0  0  0  0  0  0  0  0  0  0  0  0
   82.0132   59.1335   12.2941 C   0  0  0  0  0  0  0  0  0  0  0  0
   82.3288   60.8160   14.6791 N   0  0  0  0  0  0  0  0  0  0  0  0
   83.6814   60.8512   14.5336 C   0  0  0  0  0  0  0  0  0  0  0  0
   84.2768   61.2500   13.5238 O   0  0  0  0  0  0  0  0  0  0  0  0
   84.4506   60.2799   15.7174 C   0  0  2  0  0  0  0  0  0  0  0  0
   84.5898   61.3404   16.7948 C   0  0  0  0  0  0  0  0  0  0  0  0
   85.8311   59.8400   15.2997 N   0  3  0  0  0  0  0  0  0  0  0  0
   85.8876   58.6469   14.4121 C   0  0  0  0  0  0  0  0  0  0  0  0
   77.5001   62.8116   18.0720 H   0  0  0  0  0  0  0  0  0  0  0  0
   76.9170   63.3592   20.4158 H   0  0  0  0  0  0  0  0  0  0  0  0
   74.5759   63.2333   21.1705 H   0  0  0  0  0  0  0  0  0  0  0  0
   72.2133   62.8025   20.7148 H   0  0  0  0  0  0  0  0  0  0  0  0
   73.2556   61.7066   15.9847 H   0  0  0  0  0  0  0  0  0  0  0  0
   70.9414   61.6162   16.7946 H   0  0  0  0  0  0  0  0  0  0  0  0
   70.4205   62.1570   19.1578 H   0  0  0  0  0  0  0  0  0  0  0  0
   76.6251   63.9699   15.9194 H   0  0  0  0  0  0  0  0  0  0  0  0
   77.5278   61.8053   14.1078 H   0  0  0  0  0  0  0  0  0  0  0  0
   78.8691   64.0511   15.1978 H   0  0  0  0  0  0  0  0  0  0  0  0
   78.1830   65.8372   13.8655 H   0  0  0  0  0  0  0  0  0  0  0  0
   77.2010   64.5378   11.4347 H   0  0  0  0  0  0  0  0  0  0  0  0
   76.3164   65.4434   12.6519 H   0  0  0  0  0  0  0  0  0  0  0  0
   75.3929   63.4692   13.3412 H   0  0  0  0  0  0  0  0  0  0  0  0
   76.4492   62.5696   12.2554 H   0  0  0  0  0  0  0  0  0  0  0  0
   80.2501   65.7385   12.7999 H   0  0  0  0  0  0  0  0  0  0  0  0
   79.2872   65.3739   11.3614 H   0  0  0  0  0  0  0  0  0  0  0  0
   81.2254   63.6744   12.2662 H   0  0  0  0  0  0  0  0  0  0  0  0
   79.7225   63.0617   11.5316 H   0  0  0  0  0  0  0  0  0  0  0  0
   81.9602   61.8374   12.9168 H   0  0  0  0  0  0  0  0  0  0  0  0
   79.5837   59.5263   11.1578 H   0  0  0  0  0  0  0  0  0  0  0  0
   80.5358   61.0090   11.0040 H   0  0  0  0  0  0  0  0  0  0  0  0
   79.0972   60.9559   12.0539 H   0  0  0  0  0  0  0  0  0  0  0  0
   80.6154   58.7083   14.6615 H   0  0  0  0  0  0  0  0  0  0  0  0
   79.6652   58.1711   13.2703 H   0  0  0  0  0  0  0  0  0  0  0  0
   79.1433   59.5779   14.1915 H   0  0  0  0  0  0  0  0  0  0  0  0
   82.6331   59.7518   11.6352 H   0  0  0  0  0  0  0  0  0  0  0  0
   81.6375   58.2882   11.7107 H   0  0  0  0  0  0  0  0  0  0  0  0
   82.6539   58.7239   13.0820 H   0  0  0  0  0  0  0  0  0  0  0  0
   81.8829   60.5154   15.5460 H   0  0  0  0  0  0  0  0  0  0  0  0
   83.9365   59.3956   16.1105 H   0  0  0  0  0  0  0  0  0  0  0  0
   85.1693   60.9599   17.6421 H   0  0  0  0  0  0  0  0  0  0  0  0
   83.6075   61.6468   17.1668 H   0  0  0  0  0  0  0  0  0  0  0  0
   85.0902   62.2374   16.4111 H   0  0  0  0  0  0  0  0  0  0  0  0
   86.2399   60.6317   14.7752 H   0  0  0  0  0  0  0  0  0  0  0  0
   86.9444   58.4700   14.1993 H   0  0  0  0  0  0  0  0  0  0  0  0
   85.3468   58.8498   13.4848 H   0  0  0  0  0  0  0  0  0  0  0  0
   85.4579   57.7983   14.9479 H   0  0  0  0  0  0  0  0  0  0  0  0
   86.4030   59.6763   16.1294 H   0  0  0  0  0  0  0  0  0  0  0  0
  1  2  2  0  0  0  0
  2  3  1  0  0  0  0
  2 13  1  0  0  0  0
  3  4  2  0  0  0  0
  3  9  1  0  0  0  0
  4  5  1  0  0  0  0
  4 36  1  0  0  0  0
  5  6  2  0  0  0  0
  5 37  1  0  0  0  0
  6  7  1  0  0  0  0
  6 38  1  0  0  0  0
  7  8  2  0  0  0  0
  7  9  1  0  0  0  0
  8 12  1  0  0  0  0
  8 39  1  0  0  0  0
  9 10  2  0  0  0  0
 10 11  1  0  0  0  0
 10 40  1  0  0  0  0
 11 12  2  0  0  0  0
 11 41  1  0  0  0  0
 12 42  1  0  0  0  0
 13 14  1  0  0  0  0
 13 43  1  0  0  0  0
 14 15  1  0  0  0  0
 14 18  1  0  0  0  0
 14 44  1  6  0  0  0
 15 16  1  0  0  0  0
 15 21  1  0  0  0  0
 15 45  1  1  0  0  0
 16 17  1  0  0  0  0
 16 19  1  0  0  0  0
 16 46  1  1  0  0  0
 17 18  1  0  0  0  0
 17 47  1  0  0  0  0
 17 48  1  0  0  0  0
 18 49  1  0  0  0  0
 18 50  1  0  0  0  0
 19 20  1  0  0  0  0
 19 51  1  0  0  0  0
 19 52  1  0  0  0  0
 20 21  1  0  0  0  0
 20 53  1  0  0  0  0
 20 54  1  0  0  0  0
 21 22  1  0  0  0  0
 22 23  2  0  0  0  0
 22 24  1  0  0  0  0
 24 25  1  0  0  0  0
 24 29  1  0  0  0  0
 24 55  1  6  0  0  0
 25 26  1  0  0  0  0
 25 27  1  0  0  0  0
 25 28  1  0  0  0  0
 26 56  1  0  0  0  0
 26 57  1  0  0  0  0
 26 58  1  0  0  0  0
 27 59  1  0  0  0  0
 27 60  1  0  0  0  0
 27 61  1  0  0  0  0
 28 62  1  0  0  0  0
 28 63  1  0  0  0  0
 28 64  1  0  0  0  0
 29 30  1  0  0  0  0
 29 65  1  0  0  0  0
 30 31  2  0  0  0  0
 30 32  1  0  0  0  0
 32 33  1  0  0  0  0
 32 34  1  0  0  0  0
 32 66  1  1  0  0  0
 33 67  1  0  0  0  0
 33 68  1  0  0  0  0
 33 69  1  0  0  0  0
 34 35  1  0  0  0  0
 34 70  1  0  0  0  0
 34 74  1  0  0  0  0
 35 71  1  0  0  0  0
 35 72  1  0  0  0  0
 35 73  1  0  0  0  0
M  CHG  1  34   1
M  END
$$$$
