G24
 OpenBabel04091914033D

 51 53  0  0  0  0  0  0  0  0999 V2000
    0.0026    0.0817   10.9695 C   0  0  0  0  0  0  0  0  0  0  0  0
    0.7235    0.9089   11.8099 C   0  0  0  0  0  0  0  0  0  0  0  0
    0.9527    2.2376   11.4557 C   0  0  0  0  0  0  0  0  0  0  0  0
    0.4477    2.7575   10.2681 C   0  0  0  0  0  0  0  0  0  0  0  0
   -0.2812    1.9343    9.4322 C   0  0  0  0  0  0  0  0  0  0  0  0
   -0.5166    0.5883    9.7786 C   0  0  0  0  0  0  0  0  0  0  0  0
   -1.2667   -0.3125    8.8458 C   0  0  0  0  0  0  0  0  0  0  0  0
   -0.4360   -0.6545    7.6435 C   0  0  0  0  0  0  0  0  0  0  0  0
   -0.6833    0.0283    6.4586 C   0  0  0  0  0  0  0  0  0  0  0  0
    0.6154   -1.5596    7.6897 C   0  0  0  0  0  0  0  0  0  0  0  0
    0.8873   -2.2251    8.8433 O   0  0  0  0  0  0  0  0  0  0  0  0
    1.4011   -1.7961    6.5486 C   0  0  0  0  0  0  0  0  0  0  0  0
    1.1140   -1.1195    5.3511 C   0  0  0  0  0  0  0  0  0  0  0  0
    0.0615   -0.2060    5.3011 C   0  0  0  0  0  0  0  0  0  0  0  0
   -0.3630    0.6128    4.1080 C   0  0  0  0  0  0  0  0  0  0  0  0
   -0.0127    0.1026    2.7383 C   0  0  0  0  0  0  0  0  0  0  0  0
   -0.8006   -0.8591    2.0994 C   0  0  0  0  0  0  0  0  0  0  0  0
   -2.0186   -1.4470    2.7305 C   0  0  0  0  0  0  0  0  0  0  0  0
   -0.4420   -1.2793    0.8241 C   0  0  0  0  0  0  0  0  0  0  0  0
    1.1129    0.6245    2.0734 C   0  0  0  0  0  0  0  0  0  0  0  0
    1.9588    1.6607    2.7433 C   0  0  0  0  0  0  0  0  0  0  0  0
    1.4487    0.1831    0.7809 C   0  0  0  0  0  0  0  0  0  0  0  0
    0.6672   -0.7803    0.1459 C   0  0  0  0  0  0  0  0  0  0  0  0
    1.0134   -1.1961   -1.1120 O   0  0  0  0  0  0  0  0  0  0  0  0
    0.0809   -2.1759   -1.6454 C   0  0  0  0  0  0  0  0  0  0  0  0
   -1.3034   -1.5766   -2.0852 C   0  0  0  0  0  0  0  0  0  0  0  0
   -1.3278   -0.3800   -2.4003 O   0  0  0  0  0  0  0  0  0  0  0  0
   -2.2586   -2.4259   -2.0232 O   0  0  0  0  0  0  0  0  0  0  0  0
   -0.1446   -0.9665   11.2341 H   0  0  0  0  0  0  0  0  0  0  0  0
    1.1103    0.5311   12.7509 H   0  0  0  0  0  0  0  0  0  0  0  0
    1.5374    2.8743   12.1088 H   0  0  0  0  0  0  0  0  0  0  0  0
    0.6219    3.8018   10.0038 H   0  0  0  0  0  0  0  0  0  0  0  0
   -0.6724    2.3197    8.4928 H   0  0  0  0  0  0  0  0  0  0  0  0
   -2.1965    0.1787    8.5337 H   0  0  0  0  0  0  0  0  0  0  0  0
   -1.5654   -1.2353    9.3590 H   0  0  0  0  0  0  0  0  0  0  0  0
   -1.4908    0.7502    6.4282 H   0  0  0  0  0  0  0  0  0  0  0  0
    0.0488   -2.6666    9.1063 H   0  0  0  0  0  0  0  0  0  0  0  0
    2.2203   -2.5084    6.5871 H   0  0  0  0  0  0  0  0  0  0  0  0
    1.7029   -1.3220    4.4565 H   0  0  0  0  0  0  0  0  0  0  0  0
    0.0484    1.6158    4.2467 H   0  0  0  0  0  0  0  0  0  0  0  0
   -1.4503    0.7390    4.1620 H   0  0  0  0  0  0  0  0  0  0  0  0
   -2.5016   -2.1700    2.0635 H   0  0  0  0  0  0  0  0  0  0  0  0
   -2.7393   -0.6583    2.9562 H   0  0  0  0  0  0  0  0  0  0  0  0
   -1.7380   -1.9623    3.6507 H   0  0  0  0  0  0  0  0  0  0  0  0
   -1.0839   -2.0188    0.3588 H   0  0  0  0  0  0  0  0  0  0  0  0
    2.7810    1.9689    2.0957 H   0  0  0  0  0  0  0  0  0  0  0  0
    2.3751    1.2531    3.6699 H   0  0  0  0  0  0  0  0  0  0  0  0
    1.3587    2.5469    2.9734 H   0  0  0  0  0  0  0  0  0  0  0  0
    2.3160    0.6012    0.2819 H   0  0  0  0  0  0  0  0  0  0  0  0
   -0.0609   -2.9731   -0.8967 H   0  0  0  0  0  0  0  0  0  0  0  0
    0.5530   -2.6631   -2.4994 H   0  0  0  0  0  0  0  0  0  0  0  0
  1  2  2  0  0  0  0
  1  6  1  0  0  0  0
  1 29  1  0  0  0  0
  2  3  1  0  0  0  0
  2 30  1  0  0  0  0
  3  4  2  0  0  0  0
  3 31  1  0  0  0  0
  4  5  1  0  0  0  0
  4 32  1  0  0  0  0
  5  6  2  0  0  0  0
  5 33  1  0  0  0  0
  6  7  1  0  0  0  0
  7  8  1  0  0  0  0
  7 34  1  0  0  0  0
  7 35  1  0  0  0  0
  8  9  2  0  0  0  0
  8 10  1  0  0  0  0
  9 14  1  0  0  0  0
  9 36  1  0  0  0  0
 10 11  1  0  0  0  0
 10 12  2  0  0  0  0
 11 37  1  0  0  0  0
 12 13  1  0  0  0  0
 12 38  1  0  0  0  0
 13 14  2  0  0  0  0
 13 39  1  0  0  0  0
 14 15  1  0  0  0  0
 15 16  1  0  0  0  0
 15 40  1  0  0  0  0
 15 41  1  0  0  0  0
 16 17  2  0  0  0  0
 16 20  1  0  0  0  0
 17 18  1  0  0  0  0
 17 19  1  0  0  0  0
 18 42  1  0  0  0  0
 18 43  1  0  0  0  0
 18 44  1  0  0  0  0
 19 23  2  0  0  0  0
 19 45  1  0  0  0  0
 20 21  1  0  0  0  0
 20 22  2  0  0  0  0
 21 46  1  0  0  0  0
 21 47  1  0  0  0  0
 21 48  1  0  0  0  0
 22 23  1  0  0  0  0
 22 49  1  0  0  0  0
 23 24  1  0  0  0  0
 24 25  1  0  0  0  0
 25 26  1  0  0  0  0
 25 50  1  0  0  0  0
 25 51  1  0  0  0  0
 26 27  2  0  0  0  0
 26 28  1  0  0  0  0
M  END
$$$$
