G30
 OpenBabel04091912393D

 25 26  0  0  1  0  0  0  0  0999 V2000
   29.0612   41.1494   96.9196 F   0  0  0  0  0  0  0  0  0  0  0  0
   28.2586   41.1236   95.8448 C   0  0  0  0  0  0  0  0  0  0  0  0
   28.8322   40.9926   94.5811 C   0  0  0  0  0  0  0  0  0  0  0  0
   28.0083   40.9534   93.4599 C   0  0  0  0  0  0  0  0  0  0  0  0
   26.6248   41.0217   93.6289 C   0  0  0  0  0  0  0  0  0  0  0  0
   25.8602   41.0464   92.5265 F   0  0  0  0  0  0  0  0  0  0  0  0
   26.8807   41.2308   96.0145 C   0  0  0  0  0  0  0  0  0  0  0  0
   26.0483   41.1689   94.8931 C   0  0  0  0  0  0  0  0  0  0  0  0
   24.6518   41.3104   94.9558 N   0  0  0  0  0  0  0  0  0  0  0  0
   23.9608   42.0626   95.8632 C   0  0  0  0  0  0  0  0  0  0  0  0
   24.3823   42.4562   96.9511 O   0  0  0  0  0  0  0  0  0  0  0  0
   22.6562   42.6120   95.3909 C   0  0  1  0  0  0  0  0  0  0  0  0
   21.5688   41.9625   94.5683 C   0  0  2  0  0  0  0  0  0  0  0  0
   21.4157   42.0985   96.0660 C   0  0  0  0  0  0  0  0  0  0  0  0
   21.6623   40.6005   94.0194 C   0  0  0  0  0  0  0  0  0  0  0  0
   20.6032   39.9089   93.9909 O   0  0  0  0  0  0  0  0  0  0  0  0
   22.7986   40.2331   93.5825 O   0  0  0  0  0  0  0  0  0  0  0  0
   29.9087   40.9245   94.4805 H   0  0  0  0  0  0  0  0  0  0  0  0
   28.4198   40.8885   92.4611 H   0  0  0  0  0  0  0  0  0  0  0  0
   26.4878   41.3367   97.0172 H   0  0  0  0  0  0  0  0  0  0  0  0
   24.1036   40.9706   94.1444 H   0  0  0  0  0  0  0  0  0  0  0  0
   22.7249   43.6910   95.2546 H   0  0  0  0  0  0  0  0  0  0  0  0
   20.9660   42.6378   93.9712 H   0  0  0  0  0  0  0  0  0  0  0  0
   20.7105   42.8118   96.4485 H   0  0  0  0  0  0  0  0  0  0  0  0
   21.5197   41.1937   96.6637 H   0  0  0  0  0  0  0  0  0  0  0  0
  1  2  1  0  0  0  0
  2  3  2  0  0  0  0
  2  7  1  0  0  0  0
  3  4  1  0  0  0  0
  3 18  1  0  0  0  0
  4  5  2  0  0  0  0
  4 19  1  0  0  0  0
  5  6  1  0  0  0  0
  5  8  1  0  0  0  0
  7  8  2  0  0  0  0
  7 20  1  0  0  0  0
  8  9  1  0  0  0  0
  9 10  1  0  0  0  0
  9 21  1  0  0  0  0
 10 11  2  0  0  0  0
 10 12  1  0  0  0  0
 12 13  1  0  0  0  0
 12 14  1  0  0  0  0
 12 22  1  6  0  0  0
 13 14  1  0  0  0  0
 13 15  1  0  0  0  0
 13 23  1  6  0  0  0
 14 24  1  0  0  0  0
 14 25  1  0  0  0  0
 15 16  2  0  0  0  0
 15 17  1  0  0  0  0
M  END
$$$$
