G52
 OpenBabel04091914193D

 82 86  0  0  1  0  0  0  0  0999 V2000
   21.0017   27.7064   14.7712 C   0  0  0  0  0  0  0  0  0  0  0  0
   19.6601   27.7037   14.3925 C   0  0  0  0  0  0  0  0  0  0  0  0
   18.8590   26.5762   14.6032 C   0  0  0  0  0  0  0  0  0  0  0  0
   19.3862   25.4873   15.2913 C   0  0  0  0  0  0  0  0  0  0  0  0
   20.7458   25.4595   15.5995 C   0  0  0  0  0  0  0  0  0  0  0  0
   21.5570   26.5493   15.3119 C   0  0  0  0  0  0  0  0  0  0  0  0
   18.4080   24.0392   15.6395 S   0  0  0  0  0  0  0  0  0  0  0  0
   17.3429   24.0048   14.6765 O   0  0  0  0  0  0  0  0  0  0  0  0
   19.3237   22.9224   15.8038 O   0  0  0  0  0  0  0  0  0  0  0  0
   17.7150   24.2875   17.1704 N   0  0  0  0  0  0  0  0  0  0  0  0
   18.6745   24.5452   18.2566 C   0  0  0  0  0  0  0  0  0  0  0  0
   18.3123   23.9010   19.5912 C   0  0  0  0  0  0  0  0  0  0  0  0
   18.2117   22.3822   19.5502 C   0  0  0  0  0  0  0  0  0  0  0  0
   19.3828   24.2909   20.6066 C   0  0  0  0  0  0  0  0  0  0  0  0
   16.4650   25.0530   17.2390 C   0  0  0  0  0  0  0  0  0  0  0  0
   15.3128   24.1613   17.7167 C   0  0  1  0  0  0  0  0  0  0  0  0
   14.1650   24.9756   18.0099 O   0  0  0  0  0  0  0  0  0  0  0  0
   14.9494   23.0185   16.7452 C   0  0  1  0  0  0  0  0  0  0  0  0
   14.0100   22.1138   17.4112 N   0  0  0  0  0  0  0  0  0  0  0  0
   14.3178   20.8431   17.7245 C   0  0  0  0  0  0  0  0  0  0  0  0
   15.3665   20.3187   17.5210 O   0  0  0  0  0  0  0  0  0  0  0  0
   13.2344   20.2411   18.3044 O   0  0  0  0  0  0  0  0  0  0  0  0
   13.3982   18.8310   18.5781 C   0  0  1  0  0  0  0  0  0  0  0  0
   12.9021   18.5846   19.9859 C   0  0  0  0  0  0  0  0  0  0  0  0
   11.4750   18.4785   19.8972 O   0  0  0  0  0  0  0  0  0  0  0  0
   11.1371   18.1660   18.5391 C   0  0  1  0  0  0  0  0  0  0  0  0
   10.3885   19.2425   17.9808 O   0  0  0  0  0  0  0  0  0  0  0  0
   10.9362   19.6048   16.7062 C   0  0  1  0  0  0  0  0  0  0  0  0
   12.0760   18.6469   16.3998 C   0  0  1  0  0  0  0  0  0  0  0  0
   12.4184   18.0303   17.7365 C   0  0  1  0  0  0  0  0  0  0  0  0
   14.2804   23.5218   15.4686 C   0  0  0  0  0  0  0  0  0  0  0  0
   12.6493   21.9379   14.3736 C   0  0  0  0  0  0  0  0  0  0  0  0
   12.3347   20.8702   13.5300 C   0  0  0  0  0  0  0  0  0  0  0  0
   13.3546   20.2604   12.8112 C   0  0  0  0  0  0  0  0  0  0  0  0
   14.6769   20.6658   12.9977 C   0  0  0  0  0  0  0  0  0  0  0  0
   14.9864   21.7284   13.8506 C   0  0  0  0  0  0  0  0  0  0  0  0
   13.9671   22.3866   14.5313 C   0  0  0  0  0  0  0  0  0  0  0  0
   21.7055   28.8647   14.5684 O   0  0  0  0  0  0  0  0  0  0  0  0
   23.0551   28.7629   15.0252 C   0  0  0  0  0  0  0  0  0  0  0  0
    9.9324   19.3705   15.7145 O   0  0  0  0  0  0  0  0  0  0  0  0
    9.9681   17.9582   15.4993 C   0  0  0  0  0  0  0  0  0  0  0  0
   11.4503   17.6682   15.4183 C   0  0  0  0  0  0  0  0  0  0  0  0
   19.2359   28.5814   13.9111 H   0  0  0  0  0  0  0  0  0  0  0  0
   17.8373   26.5632   14.2362 H   0  0  0  0  0  0  0  0  0  0  0  0
   21.1785   24.5859   16.0645 H   0  0  0  0  0  0  0  0  0  0  0  0
   22.6193   26.4712   15.5173 H   0  0  0  0  0  0  0  0  0  0  0  0
   18.7336   25.6306   18.3917 H   0  0  0  0  0  0  0  0  0  0  0  0
   19.6541   24.1803   17.9470 H   0  0  0  0  0  0  0  0  0  0  0  0
   17.3486   24.2959   19.9200 H   0  0  0  0  0  0  0  0  0  0  0  0
   17.9636   22.0014   20.5505 H   0  0  0  0  0  0  0  0  0  0  0  0
   19.1626   21.9364   19.2401 H   0  0  0  0  0  0  0  0  0  0  0  0
   17.4285   22.0624   18.8596 H   0  0  0  0  0  0  0  0  0  0  0  0
   19.4893   25.3799   20.6506 H   0  0  0  0  0  0  0  0  0  0  0  0
   20.3550   23.8607   20.3304 H   0  0  0  0  0  0  0  0  0  0  0  0
   19.1142   23.9262   21.6023 H   0  0  0  0  0  0  0  0  0  0  0  0
   16.2260   25.4748   16.2630 H   0  0  0  0  0  0  0  0  0  0  0  0
   16.5786   25.8894   17.9354 H   0  0  0  0  0  0  0  0  0  0  0  0
   15.6145   23.7007   18.6604 H   0  0  0  0  0  0  0  0  0  0  0  0
   13.9072   25.4523   17.2020 H   0  0  0  0  0  0  0  0  0  0  0  0
   15.8703   22.4840   16.4930 H   0  0  0  0  0  0  0  0  0  0  0  0
   13.0808   22.4424   17.5863 H   0  0  0  0  0  0  0  0  0  0  0  0
   14.4374   18.5166   18.4517 H   0  0  0  0  0  0  0  0  0  0  0  0
   13.1604   19.3990   20.6664 H   0  0  0  0  0  0  0  0  0  0  0  0
   13.2826   17.6379   20.3824 H   0  0  0  0  0  0  0  0  0  0  0  0
   10.5416   17.2407   18.5287 H   0  0  0  0  0  0  0  0  0  0  0  0
   11.2562   20.6563   16.7219 H   0  0  0  0  0  0  0  0  0  0  0  0
   12.9514   19.1346   15.9636 H   0  0  0  0  0  0  0  0  0  0  0  0
   12.7426   16.9832   17.6443 H   0  0  0  0  0  0  0  0  0  0  0  0
   14.9287   24.2413   14.9698 H   0  0  0  0  0  0  0  0  0  0  0  0
   13.3505   24.0425   15.7319 H   0  0  0  0  0  0  0  0  0  0  0  0
   11.8527   22.4399   14.9123 H   0  0  0  0  0  0  0  0  0  0  0  0
   11.3099   20.5169   13.4475 H   0  0  0  0  0  0  0  0  0  0  0  0
   13.1301   19.4720   12.0991 H   0  0  0  0  0  0  0  0  0  0  0  0
   15.4757   20.1482   12.4766 H   0  0  0  0  0  0  0  0  0  0  0  0
   16.0197   22.0439   13.9663 H   0  0  0  0  0  0  0  0  0  0  0  0
   23.5691   29.7041   14.8368 H   0  0  0  0  0  0  0  0  0  0  0  0
   23.5716   27.9662   14.4761 H   0  0  0  0  0  0  0  0  0  0  0  0
   23.0694   28.5567   16.1030 H   0  0  0  0  0  0  0  0  0  0  0  0
    9.4253   17.6704   14.5960 H   0  0  0  0  0  0  0  0  0  0  0  0
    9.5050   17.4398   16.3540 H   0  0  0  0  0  0  0  0  0  0  0  0
   11.6806   16.6331   15.6629 H   0  0  0  0  0  0  0  0  0  0  0  0
   11.8122   17.8799   14.4040 H   0  0  0  0  0  0  0  0  0  0  0  0
  1  2  2  0  0  0  0
  1  6  1  0  0  0  0
  1 38  1  0  0  0  0
  2  3  1  0  0  0  0
  2 43  1  0  0  0  0
  3  4  2  0  0  0  0
  3 44  1  0  0  0  0
  4  5  1  0  0  0  0
  4  7  1  0  0  0  0
  5  6  2  0  0  0  0
  5 45  1  0  0  0  0
  6 46  1  0  0  0  0
  7  8  2  0  0  0  0
  7  9  2  0  0  0  0
  7 10  1  0  0  0  0
 10 11  1  0  0  0  0
 10 15  1  0  0  0  0
 11 12  1  0  0  0  0
 11 47  1  0  0  0  0
 11 48  1  0  0  0  0
 12 13  1  0  0  0  0
 12 14  1  0  0  0  0
 12 49  1  0  0  0  0
 13 50  1  0  0  0  0
 13 51  1  0  0  0  0
 13 52  1  0  0  0  0
 14 53  1  0  0  0  0
 14 54  1  0  0  0  0
 14 55  1  0  0  0  0
 15 16  1  0  0  0  0
 15 56  1  0  0  0  0
 15 57  1  0  0  0  0
 16 17  1  0  0  0  0
 16 18  1  0  0  0  0
 16 58  1  1  0  0  0
 17 59  1  0  0  0  0
 18 19  1  0  0  0  0
 18 31  1  0  0  0  0
 18 60  1  6  0  0  0
 19 20  1  0  0  0  0
 19 61  1  0  0  0  0
 20 21  2  0  0  0  0
 20 22  1  0  0  0  0
 22 23  1  0  0  0  0
 23 24  1  0  0  0  0
 23 30  1  0  0  0  0
 23 62  1  6  0  0  0
 24 25  1  0  0  0  0
 24 63  1  0  0  0  0
 24 64  1  0  0  0  0
 25 26  1  0  0  0  0
 26 27  1  0  0  0  0
 26 30  1  0  0  0  0
 26 65  1  6  0  0  0
 27 28  1  0  0  0  0
 28 29  1  0  0  0  0
 28 40  1  0  0  0  0
 28 66  1  6  0  0  0
 29 30  1  0  0  0  0
 29 42  1  0  0  0  0
 29 67  1  6  0  0  0
 30 68  1  6  0  0  0
 31 37  1  0  0  0  0
 31 69  1  0  0  0  0
 31 70  1  0  0  0  0
 32 33  2  0  0  0  0
 32 37  1  0  0  0  0
 32 71  1  0  0  0  0
 33 34  1  0  0  0  0
 33 72  1  0  0  0  0
 34 35  2  0  0  0  0
 34 73  1  0  0  0  0
 35 36  1  0  0  0  0
 35 74  1  0  0  0  0
 36 37  2  0  0  0  0
 36 75  1  0  0  0  0
 38 39  1  0  0  0  0
 39 76  1  0  0  0  0
 39 77  1  0  0  0  0
 39 78  1  0  0  0  0
 40 41  1  0  0  0  0
 41 42  1  0  0  0  0
 41 79  1  0  0  0  0
 41 80  1  0  0  0  0
 42 81  1  0  0  0  0
 42 82  1  0  0  0  0
M  END
$$$$
