G88
 OpenBabel04091914593D

 21 20  0  0  1  0  0  0  0  0999 V2000
  -37.6500   18.2121   39.8872 O   0  0  0  0  0  0  0  0  0  0  0  0
  -36.8146   17.5930   39.1563 C   0  0  0  0  0  0  0  0  0  0  0  0
  -36.7643   16.3465   38.9813 O   0  0  0  0  0  0  0  0  0  0  0  0
  -35.8125   18.4256   38.3388 C   0  0  0  0  0  0  0  0  0  0  0  0
  -35.9056   19.9487   38.3721 C   0  0  0  0  0  0  0  0  0  0  0  0
  -34.6598   20.6949   37.8305 C   0  0  1  0  0  0  0  0  0  0  0  0
  -33.5627   20.5345   38.9230 C   0  0  0  0  0  0  0  0  0  0  0  0
  -33.7406   21.2147   39.9889 O   0  0  0  0  0  0  0  0  0  0  0  0
  -32.7228   19.5764   38.8087 O   0  0  0  0  0  0  0  0  0  0  0  0
  -34.1332   20.2803   36.4466 C   0  0  0  0  0  0  0  0  0  0  0  0
  -32.9480   21.6873   35.7378 P   0  0  0  0  0  0  0  0  0  0  0  0
  -32.4891   22.4994   36.9482 O   0  0  0  0  0  0  0  0  0  0  0  0
  -31.8402   20.9176   35.0198 O   0  0  0  0  0  0  0  0  0  0  0  0
  -33.8697   22.4594   34.7854 O   0  0  0  0  0  0  0  0  0  0  0  0
  -35.8905   18.0960   37.2991 H   0  0  0  0  0  0  0  0  0  0  0  0
  -34.8270   18.1222   38.6842 H   0  0  0  0  0  0  0  0  0  0  0  0
  -36.0980   20.2835   39.4030 H   0  0  0  0  0  0  0  0  0  0  0  0
  -36.7956   20.2631   37.8051 H   0  0  0  0  0  0  0  0  0  0  0  0
  -34.9302   21.7535   37.7642 H   0  0  0  0  0  0  0  0  0  0  0  0
  -34.9364   20.1779   35.7045 H   0  0  0  0  0  0  0  0  0  0  0  0
  -33.5684   19.3421   36.4492 H   0  0  0  0  0  0  0  0  0  0  0  0
  1  2  2  0  0  0  0
  2  3  1  0  0  0  0
  2  4  1  0  0  0  0
  4  5  1  0  0  0  0
  4 15  1  0  0  0  0
  4 16  1  0  0  0  0
  5  6  1  0  0  0  0
  5 17  1  0  0  0  0
  5 18  1  0  0  0  0
  6  7  1  0  0  0  0
  6 10  1  0  0  0  0
  6 19  1  6  0  0  0
  7  8  2  0  0  0  0
  7  9  1  0  0  0  0
 10 11  1  0  0  0  0
 10 20  1  0  0  0  0
 10 21  1  0  0  0  0
 11 12  2  0  0  0  0
 11 13  1  0  0  0  0
 11 14  1  0  0  0  0
M  END
$$$$
