G93
 OpenBabel04091911193D

 59 62  0  0  1  0  0  0  0  0999 V2000
   23.5170  -17.2214    5.3940 C   0  0  0  0  0  0  0  0  0  0  0  0
   22.3597  -18.5910    9.7022 N   0  3  0  0  0  0  0  0  0  0  0  0
   22.8376  -16.8362    8.3883 N   0  0  0  0  0  0  0  0  0  0  0  0
   23.2151  -18.2313    6.3034 C   0  0  0  0  0  0  0  0  0  0  0  0
   22.3009  -21.4317    8.7478 O   0  0  0  0  0  0  0  0  0  0  0  0
   23.2143  -19.4815    5.7922 N   0  0  0  0  0  0  0  0  0  0  0  0
   22.9123  -17.9757    7.6462 C   0  0  0  0  0  0  0  0  0  0  0  0
   22.3574  -14.2827    9.3206 N   0  0  0  0  0  0  0  0  0  0  0  0
   22.3121  -14.8696   10.5272 C   0  0  0  0  0  0  0  0  0  0  0  0
   22.1892  -14.2501   11.6947 N   0  0  0  0  0  0  0  0  0  0  0  0
   22.1910  -15.2860   12.6385 O   0  0  0  0  0  0  0  0  0  0  0  0
   22.3038  -16.5567   12.0334 N   0  0  0  0  0  0  0  0  0  0  0  0
   22.3655  -16.2666   10.7292 C   0  0  0  0  0  0  0  0  0  0  0  0
   22.5137  -17.2314    9.6147 C   0  0  0  0  0  0  0  0  0  0  0  0
   21.9764  -19.3819   10.8731 C   0  0  0  0  0  0  0  0  0  0  0  0
   23.1626  -19.9947   11.5946 C   0  0  0  0  0  0  0  0  0  0  0  0
   23.7435  -16.5181    4.4935 C   0  0  0  0  0  0  0  0  0  0  0  0
   23.8530  -15.6308    3.3412 C   0  0  0  0  0  0  0  0  0  0  0  0
   23.0310  -14.3718    3.6240 C   0  0  0  0  0  0  0  0  0  0  0  0
   25.2924  -15.2744    3.0838 C   0  0  0  0  0  0  0  0  0  0  0  0
   23.3128  -16.2679    2.1827 O   0  0  0  0  0  0  0  0  0  0  0  0
   22.6121  -19.0804    8.4392 C   0  0  0  0  0  0  0  0  0  0  0  0
   22.6040  -20.3785    7.9338 C   0  0  0  0  0  0  0  0  0  0  0  0
   22.9211  -20.4997    6.6016 C   0  0  0  0  0  0  0  0  0  0  0  0
   22.0405  -22.7105    8.1367 C   0  0  0  0  0  0  0  0  0  0  0  0
   21.4936  -23.6982    9.1810 C   0  0  2  0  0  0  0  0  0  0  0  0
   20.2141  -23.1634    9.7783 C   0  0  0  0  0  0  0  0  0  0  0  0
   19.7495  -24.0172   10.8965 N   0  3  0  0  0  0  0  0  0  0  0  0
   20.6935  -24.6131   11.8719 C   0  0  0  0  0  0  0  0  0  0  0  0
   21.9992  -25.0090   11.2305 C   0  0  0  0  0  0  0  0  0  0  0  0
   22.5103  -23.9293   10.2931 C   0  0  0  0  0  0  0  0  0  0  0  0
   22.4611  -14.8486    8.4707 H   0  0  0  0  0  0  0  0  0  0  0  0
   22.3039  -13.2795    9.2362 H   0  0  0  0  0  0  0  0  0  0  0  0
   21.3055  -20.1929   10.5597 H   0  0  0  0  0  0  0  0  0  0  0  0
   21.4283  -18.7510   11.5780 H   0  0  0  0  0  0  0  0  0  0  0  0
   22.8170  -20.5745   12.4620 H   0  0  0  0  0  0  0  0  0  0  0  0
   23.8330  -19.2024   11.9390 H   0  0  0  0  0  0  0  0  0  0  0  0
   23.7074  -20.6597   10.9178 H   0  0  0  0  0  0  0  0  0  0  0  0
   23.0763  -13.6898    2.7660 H   0  0  0  0  0  0  0  0  0  0  0  0
   23.4246  -13.8564    4.5112 H   0  0  0  0  0  0  0  0  0  0  0  0
   21.9773  -14.6308    3.8071 H   0  0  0  0  0  0  0  0  0  0  0  0
   25.8669  -16.1877    2.8771 H   0  0  0  0  0  0  0  0  0  0  0  0
   25.7219  -14.7741    3.9594 H   0  0  0  0  0  0  0  0  0  0  0  0
   25.3680  -14.6104    2.2144 H   0  0  0  0  0  0  0  0  0  0  0  0
   23.8399  -17.0707    2.0104 H   0  0  0  0  0  0  0  0  0  0  0  0
   22.9375  -21.4881    6.1545 H   0  0  0  0  0  0  0  0  0  0  0  0
   22.9676  -23.1265    7.7295 H   0  0  0  0  0  0  0  0  0  0  0  0
   21.2951  -22.6035    7.3430 H   0  0  0  0  0  0  0  0  0  0  0  0
   21.2856  -24.6560    8.6836 H   0  0  0  0  0  0  0  0  0  0  0  0
   19.4124  -23.1607    9.0282 H   0  0  0  0  0  0  0  0  0  0  0  0
   20.3517  -22.1589   10.1723 H   0  0  0  0  0  0  0  0  0  0  0  0
   19.0891  -23.4503   11.4446 H   0  0  0  0  0  0  0  0  0  0  0  0
   20.1935  -25.4942   12.2933 H   0  0  0  0  0  0  0  0  0  0  0  0
   20.8579  -23.8727   12.6546 H   0  0  0  0  0  0  0  0  0  0  0  0
   21.8670  -25.9451   10.6701 H   0  0  0  0  0  0  0  0  0  0  0  0
   22.7367  -25.1800   12.0248 H   0  0  0  0  0  0  0  0  0  0  0  0
   22.6589  -22.9980   10.8554 H   0  0  0  0  0  0  0  0  0  0  0  0
   23.4654  -24.2388    9.8576 H   0  0  0  0  0  0  0  0  0  0  0  0
   19.2265  -24.7939   10.4827 H   0  0  0  0  0  0  0  0  0  0  0  0
  1  4  1  0  0  0  0
  1 17  3  0  0  0  0
  2 14  2  0  0  0  0
  2 15  1  0  0  0  0
  2 22  1  0  0  0  0
  3  7  1  0  0  0  0
  3 14  1  0  0  0  0
  4  6  2  0  0  0  0
  4  7  1  0  0  0  0
  5 23  1  0  0  0  0
  5 25  1  0  0  0  0
  6 24  1  0  0  0  0
  7 22  2  0  0  0  0
  8  9  1  0  0  0  0
  8 32  1  0  0  0  0
  8 33  1  0  0  0  0
  9 10  2  0  0  0  0
  9 13  1  0  0  0  0
 10 11  1  0  0  0  0
 11 12  1  0  0  0  0
 12 13  2  0  0  0  0
 13 14  1  0  0  0  0
 15 16  1  0  0  0  0
 15 34  1  0  0  0  0
 15 35  1  0  0  0  0
 16 36  1  0  0  0  0
 16 37  1  0  0  0  0
 16 38  1  0  0  0  0
 17 18  1  0  0  0  0
 18 19  1  0  0  0  0
 18 20  1  0  0  0  0
 18 21  1  0  0  0  0
 19 39  1  0  0  0  0
 19 40  1  0  0  0  0
 19 41  1  0  0  0  0
 20 42  1  0  0  0  0
 20 43  1  0  0  0  0
 20 44  1  0  0  0  0
 21 45  1  0  0  0  0
 22 23  1  0  0  0  0
 23 24  2  0  0  0  0
 24 46  1  0  0  0  0
 25 26  1  0  0  0  0
 25 47  1  0  0  0  0
 25 48  1  0  0  0  0
 26 27  1  0  0  0  0
 26 31  1  0  0  0  0
 26 49  1  6  0  0  0
 27 28  1  0  0  0  0
 27 50  1  0  0  0  0
 27 51  1  0  0  0  0
 28 29  1  0  0  0  0
 28 52  1  0  0  0  0
 28 59  1  0  0  0  0
 29 30  1  0  0  0  0
 29 53  1  0  0  0  0
 29 54  1  0  0  0  0
 30 31  1  0  0  0  0
 30 55  1  0  0  0  0
 30 56  1  0  0  0  0
 31 57  1  0  0  0  0
 31 58  1  0  0  0  0
M  CHG  2   2   1  28   1
M  END
$$$$
