G97
 OpenBabel04091913003D

 43 46  0  0  0  0  0  0  0  0999 V2000
   24.7509   -1.9329  -20.9037 C   0  0  0  0  0  0  0  0  0  0  0  0
   25.3391   -3.0303  -21.5352 C   0  0  0  0  0  0  0  0  0  0  0  0
   24.9106   -4.3218  -21.2340 C   0  0  0  0  0  0  0  0  0  0  0  0
   23.8964   -4.5203  -20.3008 C   0  0  0  0  0  0  0  0  0  0  0  0
   23.3190   -3.4237  -19.6623 C   0  0  0  0  0  0  0  0  0  0  0  0
   23.7357   -2.1102  -19.9480 C   0  0  0  0  0  0  0  0  0  0  0  0
   23.1415   -0.9684  -19.2479 C   0  0  0  0  0  0  0  0  0  0  0  0
   22.9848    0.1761  -19.9312 N   0  0  0  0  0  0  0  0  0  0  0  0
   22.8024   -1.1548  -17.9639 N   0  0  0  0  0  0  0  0  0  0  0  0
   22.2805   -0.1213  -17.3155 C   0  0  0  0  0  0  0  0  0  0  0  0
   21.9303   -0.2973  -15.9848 C   0  0  0  0  0  0  0  0  0  0  0  0
   21.3449    0.7267  -15.2369 C   0  0  0  0  0  0  0  0  0  0  0  0
   20.9966    0.4478  -13.9026 N   0  0  0  0  0  0  0  0  0  0  0  0
   20.1619    1.2168  -13.1202 C   0  0  0  0  0  0  0  0  0  0  0  0
   19.5591    2.2260  -13.4632 O   0  0  0  0  0  0  0  0  0  0  0  0
   20.0074    0.6626  -11.7499 C   0  0  0  0  0  0  0  0  0  0  0  0
   19.1891    1.2801  -10.8882 C   0  0  0  0  0  0  0  0  0  0  0  0
   21.1363    1.9646  -15.8325 C   0  0  0  0  0  0  0  0  0  0  0  0
   21.4881    2.1655  -17.1607 C   0  0  0  0  0  0  0  0  0  0  0  0
   22.0673    1.1261  -17.9184 C   0  0  0  0  0  0  0  0  0  0  0  0
   22.4649    1.2229  -19.2639 C   0  0  0  0  0  0  0  0  0  0  0  0
   22.2438    2.4448  -19.9509 N   0  0  0  0  0  0  0  0  0  0  0  0
   22.4284    2.6638  -21.2699 C   0  0  0  0  0  0  0  0  0  0  0  0
   22.5532    3.8429  -21.9620 C   0  0  0  0  0  0  0  0  0  0  0  0
   22.6857    3.4542  -23.3068 C   0  0  0  0  0  0  0  0  0  0  0  0
   22.6571    2.1281  -23.4653 N   0  0  0  0  0  0  0  0  0  0  0  0
   22.5071    1.6681  -22.2070 N   0  3  0  0  0  0  0  0  0  0  0  0
   25.1052   -0.9312  -21.1435 H   0  0  0  0  0  0  0  0  0  0  0  0
   26.1359   -2.8744  -22.2581 H   0  0  0  0  0  0  0  0  0  0  0  0
   25.3694   -5.1736  -21.7273 H   0  0  0  0  0  0  0  0  0  0  0  0
   23.5575   -5.5257  -20.0658 H   0  0  0  0  0  0  0  0  0  0  0  0
   22.5290   -3.5930  -18.9320 H   0  0  0  0  0  0  0  0  0  0  0  0
   22.0968   -1.2768  -15.5435 H   0  0  0  0  0  0  0  0  0  0  0  0
   21.3237   -0.4330  -13.5279 H   0  0  0  0  0  0  0  0  0  0  0  0
   20.5583   -0.2224  -11.4668 H   0  0  0  0  0  0  0  0  0  0  0  0
   19.0526    0.9082   -9.8792 H   0  0  0  0  0  0  0  0  0  0  0  0
   18.6368    2.1736  -11.1754 H   0  0  0  0  0  0  0  0  0  0  0  0
   20.7144    2.8044  -15.2897 H   0  0  0  0  0  0  0  0  0  0  0  0
   21.2948    3.1457  -17.5863 H   0  0  0  0  0  0  0  0  0  0  0  0
   22.3330    3.2487  -19.3408 H   0  0  0  0  0  0  0  0  0  0  0  0
   22.5461    4.8419  -21.5528 H   0  0  0  0  0  0  0  0  0  0  0  0
   22.8013    4.0862  -24.1769 H   0  0  0  0  0  0  0  0  0  0  0  0
   22.4789    0.6681  -22.0321 H   0  0  0  0  0  0  0  0  0  0  0  0
  1  2  2  0  0  0  0
  1  6  1  0  0  0  0
  1 28  1  0  0  0  0
  2  3  1  0  0  0  0
  2 29  1  0  0  0  0
  3  4  2  0  0  0  0
  3 30  1  0  0  0  0
  4  5  1  0  0  0  0
  4 31  1  0  0  0  0
  5  6  2  0  0  0  0
  5 32  1  0  0  0  0
  6  7  1  0  0  0  0
  7  8  2  0  0  0  0
  7  9  1  0  0  0  0
  8 21  1  0  0  0  0
  9 10  2  0  0  0  0
 10 11  1  0  0  0  0
 10 20  1  0  0  0  0
 11 12  2  0  0  0  0
 11 33  1  0  0  0  0
 12 13  1  0  0  0  0
 12 18  1  0  0  0  0
 13 14  1  0  0  0  0
 13 34  1  0  0  0  0
 14 15  2  0  0  0  0
 14 16  1  0  0  0  0
 16 17  2  0  0  0  0
 16 35  1  0  0  0  0
 17 36  1  0  0  0  0
 17 37  1  0  0  0  0
 18 19  2  0  0  0  0
 18 38  1  0  0  0  0
 19 20  1  0  0  0  0
 19 39  1  0  0  0  0
 20 21  2  0  0  0  0
 21 22  1  0  0  0  0
 22 23  1  0  0  0  0
 22 40  1  0  0  0  0
 23 24  1  0  0  0  0
 23 27  2  0  0  0  0
 24 25  2  0  0  0  0
 24 41  1  0  0  0  0
 25 26  1  0  0  0  0
 25 42  1  0  0  0  0
 26 27  1  0  0  0  0
 27 43  1  0  0  0  0
M  CHG  1  27   1
M  END
$$$$
