GA4
 OpenBabel04091911393D

 47 51  0  0  1  0  0  0  0  0999 V2000
   30.5320   46.4698   14.2488 C   0  0  0  0  0  0  0  0  0  0  0  0
   29.4302   46.2093   13.2166 C   0  0  0  0  0  0  0  0  0  0  0  0
   29.5575   44.8052   12.5771 C   0  0  2  0  0  0  0  0  0  0  0  0
   29.0052   43.8692   13.5114 O   0  0  0  0  0  0  0  0  0  0  0  0
   31.0179   44.4263   12.2157 C   0  0  1  0  0  0  0  0  0  0  0  0
   31.8505   44.4847   13.4997 C   0  0  1  0  0  0  0  0  0  0  0  0
   33.3305   44.1029   13.4736 C   0  0  2  0  0  0  0  0  0  0  0  0
   33.5576   42.6014   13.7461 C   0  0  0  0  0  0  0  0  0  0  0  0
   32.8878   42.0369   14.6282 O   0  0  0  0  0  0  0  0  0  0  0  0
   34.4404   42.1620   12.9508 O   0  0  0  0  0  0  0  0  0  0  0  0
   34.0244   45.0701   14.4561 C   0  0  2  0  0  0  0  0  0  0  0  0
   33.0640   46.2922   14.6113 C   0  0  2  0  0  0  0  0  0  0  0  0
   31.8794   45.9890   13.6923 C   0  0  2  0  0  0  0  0  0  0  0  0
   33.7731   47.6306   14.3382 C   0  0  0  0  0  0  0  0  0  0  0  0
   35.1049   47.7572   15.1128 C   0  0  0  0  0  0  0  0  0  0  0  0
   35.8465   46.4101   15.2121 C   0  0  2  0  0  0  0  0  0  0  0  0
   35.4213   45.5626   14.0152 C   0  0  0  0  0  0  0  0  0  0  0  0
   34.3466   44.5099   15.8449 C   0  0  0  0  0  0  0  0  0  0  0  0
   35.3382   45.5348   16.3524 C   0  0  0  0  0  0  0  0  0  0  0  0
   35.6844   45.6385   17.6264 C   0  0  0  0  0  0  0  0  0  0  0  0
   31.1024   43.0989   11.4796 C   0  0  0  0  0  0  0  0  0  0  0  0
   31.6068   45.5834   11.4205 C   0  0  0  0  0  0  0  0  0  0  0  0
   31.5752   45.7516   10.2157 O   0  0  0  0  0  0  0  0  0  0  0  0
   32.0809   46.4961   12.3447 O   0  0  0  0  0  0  0  0  0  0  0  0
   30.2885   45.9294   15.1773 H   0  0  0  0  0  0  0  0  0  0  0  0
   30.5660   47.5395   14.4932 H   0  0  0  0  0  0  0  0  0  0  0  0
   29.5160   46.9730   12.4313 H   0  0  0  0  0  0  0  0  0  0  0  0
   28.4508   46.3282   13.6934 H   0  0  0  0  0  0  0  0  0  0  0  0
   28.9335   44.7813   11.6813 H   0  0  0  0  0  0  0  0  0  0  0  0
   29.1069   42.9704   13.1472 H   0  0  0  0  0  0  0  0  0  0  0  0
   31.3391   43.9373   14.2961 H   0  0  0  0  0  0  0  0  0  0  0  0
   33.7398   44.3194   12.4749 H   0  0  0  0  0  0  0  0  0  0  0  0
   32.6975   46.3258   15.6468 H   0  0  0  0  0  0  0  0  0  0  0  0
   33.1131   48.4602   14.6007 H   0  0  0  0  0  0  0  0  0  0  0  0
   33.9866   47.7188   13.2615 H   0  0  0  0  0  0  0  0  0  0  0  0
   34.9003   48.1546   16.1126 H   0  0  0  0  0  0  0  0  0  0  0  0
   35.7467   48.4869   14.5936 H   0  0  0  0  0  0  0  0  0  0  0  0
   36.9354   46.5539   15.2838 H   0  0  0  0  0  0  0  0  0  0  0  0
   35.3732   46.1673   13.1066 H   0  0  0  0  0  0  0  0  0  0  0  0
   36.1153   44.7366   13.8480 H   0  0  0  0  0  0  0  0  0  0  0  0
   34.8281   43.5264   15.8014 H   0  0  0  0  0  0  0  0  0  0  0  0
   33.4629   44.4495   16.4889 H   0  0  0  0  0  0  0  0  0  0  0  0
   36.3877   46.3950   17.9455 H   0  0  0  0  0  0  0  0  0  0  0  0
   35.2683   44.9392   18.3433 H   0  0  0  0  0  0  0  0  0  0  0  0
   30.4871   43.1106   10.5697 H   0  0  0  0  0  0  0  0  0  0  0  0
   30.7526   42.2779   12.1142 H   0  0  0  0  0  0  0  0  0  0  0  0
   32.1320   42.8824   11.1794 H   0  0  0  0  0  0  0  0  0  0  0  0
  1  2  1  0  0  0  0
  1 25  1  0  0  0  0
  1 26  1  0  0  0  0
  2  3  1  0  0  0  0
  2 27  1  0  0  0  0
  2 28  1  0  0  0  0
  3  4  1  0  0  0  0
  3  5  1  0  0  0  0
  3 29  1  6  0  0  0
  4 30  1  0  0  0  0
  5  6  1  0  0  0  0
  5 21  1  6  0  0  0
  5 22  1  0  0  0  0
  6  7  1  0  0  0  0
  6 13  1  0  0  0  0
  6 31  1  1  0  0  0
  7  8  1  0  0  0  0
  7 11  1  0  0  0  0
  7 32  1  6  0  0  0
  8  9  2  0  0  0  0
  8 10  1  0  0  0  0
 11 12  1  0  0  0  0
 11 17  1  6  0  0  0
 11 18  1  0  0  0  0
 12 13  1  0  0  0  0
 12 14  1  0  0  0  0
 12 33  1  1  0  0  0
 13  1  1  1  0  0  0
 13 24  1  0  0  0  0
 14 15  1  0  0  0  0
 14 34  1  0  0  0  0
 14 35  1  0  0  0  0
 15 16  1  0  0  0  0
 15 36  1  0  0  0  0
 15 37  1  0  0  0  0
 16 17  1  0  0  0  0
 16 19  1  0  0  0  0
 16 38  1  1  0  0  0
 17 39  1  0  0  0  0
 17 40  1  0  0  0  0
 18 19  1  0  0  0  0
 18 41  1  0  0  0  0
 18 42  1  0  0  0  0
 19 20  2  0  0  0  0
 20 43  1  0  0  0  0
 20 44  1  0  0  0  0
 21 45  1  0  0  0  0
 21 46  1  0  0  0  0
 21 47  1  0  0  0  0
 22 23  2  0  0  0  0
 22 24  1  0  0  0  0
M  END
$$$$
