GB6
 OpenBabel04091911283D

 38 39  0  0  1  0  0  0  0  0999 V2000
   27.3326   67.6315   11.5519 C   0  0  0  0  0  0  0  0  0  0  0  0
   27.0419   68.9790   11.7557 C   0  0  0  0  0  0  0  0  0  0  0  0
   27.9335   69.7922   12.4578 C   0  0  0  0  0  0  0  0  0  0  0  0
   29.1185   69.2730   12.9739 C   0  0  0  0  0  0  0  0  0  0  0  0
   29.4167   67.9298   12.7873 C   0  0  0  0  0  0  0  0  0  0  0  0
   28.5234   67.0978   12.0789 C   0  0  0  0  0  0  0  0  0  0  0  0
   28.8431   65.6358   11.9090 C   0  0  2  0  0  0  0  0  0  0  0  0
   29.0988   65.0136   13.2986 C   0  0  0  0  0  0  0  0  0  0  0  0
   29.1501   63.6036   13.1296 O   0  0  0  0  0  0  0  0  0  0  0  0
   30.0712   65.3953   11.0232 N   0  3  0  0  0  0  0  0  0  0  0  0
   29.9999   66.1039    9.7206 C   0  0  0  0  0  0  0  0  0  0  0  0
   31.0894   65.7183    8.7102 C   0  0  1  0  0  0  0  0  0  0  0  0
   30.7719   66.3721    7.4506 N   0  0  0  0  0  0  0  0  0  0  0  0
   31.8447   67.0483    6.8802 C   0  0  0  0  0  0  0  0  0  0  0  0
   31.7409   67.6538    5.8167 O   0  0  0  0  0  0  0  0  0  0  0  0
   33.0354   66.8598    7.7576 C   0  0  2  0  0  0  0  0  0  0  0  0
   33.9219   65.9924    7.0749 O   0  0  0  0  0  0  0  0  0  0  0  0
   32.4877   66.2527    9.0575 C   0  0  2  0  0  0  0  0  0  0  0  0
   33.3147   65.2114    9.5758 O   0  0  0  0  0  0  0  0  0  0  0  0
   26.6152   67.0240   10.9957 H   0  0  0  0  0  0  0  0  0  0  0  0
   26.1125   69.4090   11.3803 H   0  0  0  0  0  0  0  0  0  0  0  0
   27.6984   70.8442   12.6014 H   0  0  0  0  0  0  0  0  0  0  0  0
   29.8012   69.9185   13.5250 H   0  0  0  0  0  0  0  0  0  0  0  0
   30.3413   67.5472   13.2198 H   0  0  0  0  0  0  0  0  0  0  0  0
   28.0175   65.0980   11.4165 H   0  0  0  0  0  0  0  0  0  0  0  0
   28.3009   65.2914   14.0013 H   0  0  0  0  0  0  0  0  0  0  0  0
   30.0527   65.3556   13.7239 H   0  0  0  0  0  0  0  0  0  0  0  0
   29.2698   63.1911   14.0069 H   0  0  0  0  0  0  0  0  0  0  0  0
   30.9073   65.6944   11.5350 H   0  0  0  0  0  0  0  0  0  0  0  0
   30.0704   67.1766    9.9286 H   0  0  0  0  0  0  0  0  0  0  0  0
   29.0118   65.8876    9.2958 H   0  0  0  0  0  0  0  0  0  0  0  0
   31.0978   64.6235    8.5812 H   0  0  0  0  0  0  0  0  0  0  0  0
   29.8549   66.3821    7.0118 H   0  0  0  0  0  0  0  0  0  0  0  0
   33.5099   67.8359    7.9611 H   0  0  0  0  0  0  0  0  0  0  0  0
   34.7289   65.8681    7.6016 H   0  0  0  0  0  0  0  0  0  0  0  0
   32.4117   67.0292    9.8249 H   0  0  0  0  0  0  0  0  0  0  0  0
   34.2111   65.5708    9.7210 H   0  0  0  0  0  0  0  0  0  0  0  0
   30.1809   64.3781   10.8763 H   0  0  0  0  0  0  0  0  0  0  0  0
  1  2  2  0  0  0  0
  1  6  1  0  0  0  0
  1 20  1  0  0  0  0
  2  3  1  0  0  0  0
  2 21  1  0  0  0  0
  3  4  2  0  0  0  0
  3 22  1  0  0  0  0
  4  5  1  0  0  0  0
  4 23  1  0  0  0  0
  5  6  2  0  0  0  0
  5 24  1  0  0  0  0
  6  7  1  0  0  0  0
  7  8  1  0  0  0  0
  7 10  1  0  0  0  0
  7 25  1  6  0  0  0
  8  9  1  0  0  0  0
  8 26  1  0  0  0  0
  8 27  1  0  0  0  0
  9 28  1  0  0  0  0
 10 11  1  0  0  0  0
 10 29  1  0  0  0  0
 10 38  1  0  0  0  0
 11 12  1  0  0  0  0
 11 30  1  0  0  0  0
 11 31  1  0  0  0  0
 12 13  1  0  0  0  0
 12 18  1  0  0  0  0
 12 32  1  6  0  0  0
 13 14  1  0  0  0  0
 13 33  1  0  0  0  0
 14 15  2  0  0  0  0
 14 16  1  0  0  0  0
 16 17  1  0  0  0  0
 16 18  1  0  0  0  0
 16 34  1  1  0  0  0
 17 35  1  0  0  0  0
 18 19  1  0  0  0  0
 18 36  1  1  0  0  0
 19 37  1  0  0  0  0
M  CHG  1  10   1
M  END
$$$$
