GB7
 OpenBabel04091911283D

 41 42  0  0  1  0  0  0  0  0999 V2000
   29.6899   67.8188   12.8090 C   0  0  0  0  0  0  0  0  0  0  0  0
   29.5049   69.1608   13.1375 C   0  0  0  0  0  0  0  0  0  0  0  0
   28.3570   69.8240   12.7420 C   0  0  0  0  0  0  0  0  0  0  0  0
   27.3531   69.1142   12.1028 C   0  0  0  0  0  0  0  0  0  0  0  0
   27.5263   67.7553   11.8045 C   0  0  0  0  0  0  0  0  0  0  0  0
   28.6943   67.1027   12.1540 C   0  0  0  0  0  0  0  0  0  0  0  0
   28.9135   65.6399   11.9042 C   0  0  2  0  0  0  0  0  0  0  0  0
   29.1040   64.9939   13.2927 C   0  0  0  0  0  0  0  0  0  0  0  0
   29.3162   63.5984   13.1966 O   0  0  0  0  0  0  0  0  0  0  0  0
   30.1585   65.4306   11.0611 N   0  3  0  0  0  0  0  0  0  0  0  0
   30.0948   66.1239    9.7566 C   0  0  0  0  0  0  0  0  0  0  0  0
   31.1706   65.7160    8.7433 C   0  0  1  0  0  0  0  0  0  0  0  0
   30.8512   66.3663    7.4904 N   0  0  0  0  0  0  0  0  0  0  0  0
   29.5515   66.2585    6.8430 C   0  0  0  0  0  0  0  0  0  0  0  0
   31.9178   66.9947    6.8824 C   0  0  0  0  0  0  0  0  0  0  0  0
   31.9199   67.5837    5.8366 O   0  0  0  0  0  0  0  0  0  0  0  0
   33.1698   66.7740    7.7418 C   0  0  2  0  0  0  0  0  0  0  0  0
   34.1233   65.9804    7.0432 O   0  0  0  0  0  0  0  0  0  0  0  0
   32.6029   66.1997    9.0663 C   0  0  2  0  0  0  0  0  0  0  0  0
   33.4040   65.2014    9.6903 O   0  0  0  0  0  0  0  0  0  0  0  0
   30.6347   67.3496   13.0751 H   0  0  0  0  0  0  0  0  0  0  0  0
   30.2537   69.6611   13.7194 H   0  0  0  0  0  0  0  0  0  0  0  0
   28.2528   70.9009   12.9247 H   0  0  0  0  0  0  0  0  0  0  0  0
   26.4155   69.6085   11.8453 H   0  0  0  0  0  0  0  0  0  0  0  0
   26.7332   67.2335   11.2675 H   0  0  0  0  0  0  0  0  0  0  0  0
   28.0897   65.1618   11.3625 H   0  0  0  0  0  0  0  0  0  0  0  0
   28.2167   65.2045   13.8931 H   0  0  0  0  0  0  0  0  0  0  0  0
   29.9789   65.4339   13.7893 H   0  0  0  0  0  0  0  0  0  0  0  0
   29.4005   63.2625   14.1181 H   0  0  0  0  0  0  0  0  0  0  0  0
   30.9686   65.7679   11.5921 H   0  0  0  0  0  0  0  0  0  0  0  0
   30.1487   67.2009    9.9474 H   0  0  0  0  0  0  0  0  0  0  0  0
   29.1082   65.8850    9.3518 H   0  0  0  0  0  0  0  0  0  0  0  0
   31.1595   64.6283    8.6191 H   0  0  0  0  0  0  0  0  0  0  0  0
   29.5224   66.8303    5.9164 H   0  0  0  0  0  0  0  0  0  0  0  0
   28.7790   66.6453    7.5110 H   0  0  0  0  0  0  0  0  0  0  0  0
   29.3579   65.2041    6.6366 H   0  0  0  0  0  0  0  0  0  0  0  0
   33.6345   67.7303    7.9810 H   0  0  0  0  0  0  0  0  0  0  0  0
   34.3546   66.4983    6.2385 H   0  0  0  0  0  0  0  0  0  0  0  0
   32.5348   67.0231    9.7881 H   0  0  0  0  0  0  0  0  0  0  0  0
   34.2882   65.6001    9.8472 H   0  0  0  0  0  0  0  0  0  0  0  0
   30.2942   64.4147   10.9387 H   0  0  0  0  0  0  0  0  0  0  0  0
  1  2  2  0  0  0  0
  1  6  1  0  0  0  0
  1 21  1  0  0  0  0
  2  3  1  0  0  0  0
  2 22  1  0  0  0  0
  3  4  2  0  0  0  0
  3 23  1  0  0  0  0
  4  5  1  0  0  0  0
  4 24  1  0  0  0  0
  5  6  2  0  0  0  0
  5 25  1  0  0  0  0
  6  7  1  0  0  0  0
  7  8  1  0  0  0  0
  7 10  1  0  0  0  0
  7 26  1  6  0  0  0
  8  9  1  0  0  0  0
  8 27  1  0  0  0  0
  8 28  1  0  0  0  0
  9 29  1  0  0  0  0
 10 11  1  0  0  0  0
 10 30  1  0  0  0  0
 10 41  1  0  0  0  0
 11 12  1  0  0  0  0
 11 31  1  0  0  0  0
 11 32  1  0  0  0  0
 12 13  1  0  0  0  0
 12 19  1  0  0  0  0
 12 33  1  6  0  0  0
 13 14  1  0  0  0  0
 13 15  1  0  0  0  0
 14 34  1  0  0  0  0
 14 35  1  0  0  0  0
 14 36  1  0  0  0  0
 15 16  2  0  0  0  0
 15 17  1  0  0  0  0
 17 18  1  0  0  0  0
 17 19  1  0  0  0  0
 17 37  1  1  0  0  0
 18 38  1  0  0  0  0
 19 20  1  0  0  0  0
 19 39  1  1  0  0  0
 20 40  1  0  0  0  0
M  CHG  1  10   1
M  END
$$$$
