GC2
 OpenBabel04091915233D

 35 36  0  0  1  0  0  0  0  0999 V2000
   33.2664   19.8295  -15.7857 O   0  0  0  0  0  0  0  0  0  0  0  0
   33.1468   19.5785  -16.9621 C   0  0  0  0  0  0  0  0  0  0  0  0
   32.0311   20.1208  -17.8281 C   0  0  0  0  0  0  0  0  0  0  0  0
   34.0380   18.7825  -17.6669 N   0  0  0  0  0  0  0  0  0  0  0  0
   35.2224   18.1440  -17.0702 C   0  0  2  0  0  0  0  0  0  0  0  0
   34.8498   16.9626  -16.1437 C   0  0  1  0  0  0  0  0  0  0  0  0
   34.3427   15.8781  -16.9427 O   0  0  0  0  0  0  0  0  0  0  0  0
   36.0257   16.3991  -15.3248 C   0  0  2  0  0  0  0  0  0  0  0  0
   35.5070   15.6436  -14.2289 O   0  0  0  0  0  0  0  0  0  0  0  0
   36.1150   19.1683  -16.3564 C   0  0  0  0  0  0  0  0  0  0  0  0
   37.3089   18.4273  -15.8508 N   0  3  2  0  0  0  0  0  0  0  0  0
   36.8940   17.4961  -14.7471 C   0  0  2  0  0  0  0  0  0  0  0  0
   38.4370   19.1988  -15.2460 C   0  0  0  0  0  0  0  0  0  0  0  0
   39.2349   18.0964  -14.5598 C   0  0  0  0  0  0  0  0  0  0  0  0
   38.2200   17.0224  -14.1405 C   0  0  2  0  0  0  0  0  0  0  0  0
   38.6054   15.7600  -14.6648 O   0  0  0  0  0  0  0  0  0  0  0  0
   32.1317   19.7751  -18.8615 H   0  0  0  0  0  0  0  0  0  0  0  0
   32.0651   21.2120  -17.8188 H   0  0  0  0  0  0  0  0  0  0  0  0
   31.0766   19.7756  -17.4314 H   0  0  0  0  0  0  0  0  0  0  0  0
   33.8467   18.6250  -18.6461 H   0  0  0  0  0  0  0  0  0  0  0  0
   35.7930   17.7324  -17.9171 H   0  0  0  0  0  0  0  0  0  0  0  0
   34.0552   17.2721  -15.4589 H   0  0  0  0  0  0  0  0  0  0  0  0
   33.5391   16.1844  -17.3992 H   0  0  0  0  0  0  0  0  0  0  0  0
   36.6291   15.7343  -15.9565 H   0  0  0  0  0  0  0  0  0  0  0  0
   36.2263   15.2936  -13.6813 H   0  0  0  0  0  0  0  0  0  0  0  0
   35.6154   19.6264  -15.4994 H   0  0  0  0  0  0  0  0  0  0  0  0
   36.4574   19.9496  -17.0395 H   0  0  0  0  0  0  0  0  0  0  0  0
   36.3398   18.0767  -13.9993 H   0  0  0  0  0  0  0  0  0  0  0  0
   38.0183   19.9228  -14.5391 H   0  0  0  0  0  0  0  0  0  0  0  0
   38.9886   19.7149  -16.0355 H   0  0  0  0  0  0  0  0  0  0  0  0
   39.7581   18.5063  -13.6927 H   0  0  0  0  0  0  0  0  0  0  0  0
   39.9776   17.6850  -15.2549 H   0  0  0  0  0  0  0  0  0  0  0  0
   38.1540   16.9436  -13.0510 H   0  0  0  0  0  0  0  0  0  0  0  0
   37.9714   15.0632  -14.3951 H   0  0  0  0  0  0  0  0  0  0  0  0
   37.7043   17.8526  -16.6156 H   0  0  0  0  0  0  0  0  0  0  0  0
  1  2  2  0  0  0  0
  2  3  1  0  0  0  0
  2  4  1  0  0  0  0
  3 17  1  0  0  0  0
  3 18  1  0  0  0  0
  3 19  1  0  0  0  0
  4  5  1  0  0  0  0
  4 20  1  0  0  0  0
  5  6  1  0  0  0  0
  5 10  1  0  0  0  0
  5 21  1  6  0  0  0
  6  7  1  0  0  0  0
  6  8  1  0  0  0  0
  6 22  1  1  0  0  0
  7 23  1  0  0  0  0
  8  9  1  0  0  0  0
  8 12  1  0  0  0  0
  8 24  1  6  0  0  0
  9 25  1  0  0  0  0
 10 11  1  0  0  0  0
 10 26  1  0  0  0  0
 10 27  1  0  0  0  0
 11 12  1  0  0  0  0
 11 13  1  0  0  0  0
 11 35  1  6  0  0  0
 12 15  1  0  0  0  0
 12 28  1  1  0  0  0
 13 14  1  0  0  0  0
 13 29  1  0  0  0  0
 13 30  1  0  0  0  0
 14 15  1  0  0  0  0
 14 31  1  0  0  0  0
 14 32  1  0  0  0  0
 15 16  1  0  0  0  0
 15 33  1  1  0  0  0
 16 34  1  0  0  0  0
M  CHG  1  11   1
M  END
$$$$
