GDP
 OpenBabel04091911003D

 40 42  0  0  1  0  0  0  0  0999 V2000
   21.6211   38.1857   33.6127 P   0  0  0  0  0  0  0  0  0  0  0  0
   20.2578   38.8573   33.6618 O   0  0  0  0  0  0  0  0  0  0  0  0
   22.7443   39.1206   34.0719 O   0  0  0  0  0  0  0  0  0  0  0  0
   21.6953   36.8349   34.3230 O   0  0  0  0  0  0  0  0  0  0  0  0
   21.9528   37.8765   32.0653 O   0  0  0  0  0  0  0  0  0  0  0  0
   21.2113   37.1443   30.8519 P   0  0  1  0  0  0  0  0  0  0  0  0
   19.7047   37.0264   30.9407 O   0  0  0  0  0  0  0  0  0  0  0  0
   21.8035   37.6363   29.5333 O   0  0  0  0  0  0  0  0  0  0  0  0
   21.7927   35.6173   30.9945 O   0  0  0  0  0  0  0  0  0  0  0  0
   21.1058   34.8091   31.9343 C   0  0  0  0  0  0  0  0  0  0  0  0
   22.0342   33.7510   32.4837 C   0  0  1  0  0  0  0  0  0  0  0  0
   22.4593   32.8312   31.4365 O   0  0  0  0  0  0  0  0  0  0  0  0
   23.3005   34.3196   33.1108 C   0  0  1  0  0  0  0  0  0  0  0  0
   23.1124   34.8044   34.4227 O   0  0  0  0  0  0  0  0  0  0  0  0
   24.1854   33.0844   33.0992 C   0  0  1  0  0  0  0  0  0  0  0  0
   23.8283   32.1625   34.1596 O   0  0  0  0  0  0  0  0  0  0  0  0
   23.8000   32.4617   31.7599 C   0  0  2  0  0  0  0  0  0  0  0  0
   24.6894   32.8017   30.6627 N   0  3  0  0  0  0  0  0  0  0  0  0
   24.7885   34.0005   29.9972 C   0  0  0  0  0  0  0  0  0  0  0  0
   25.7565   33.9811   29.0982 N   0  0  0  0  0  0  0  0  0  0  0  0
   26.2905   32.7324   29.1788 C   0  0  0  0  0  0  0  0  0  0  0  0
   27.3622   32.1072   28.4167 C   0  0  0  0  0  0  0  0  0  0  0  0
   28.0247   32.6458   27.5257 O   0  0  0  0  0  0  0  0  0  0  0  0
   27.6070   30.7712   28.7878 N   0  3  0  0  0  0  0  0  0  0  0  0
   26.9339   30.0888   29.7779 C   0  0  0  0  0  0  0  0  0  0  0  0
   27.3092   28.8684   29.9304 N   0  0  0  0  0  0  0  0  0  0  0  0
   25.9478   30.7293   30.4680 N   0  3  0  0  0  0  0  0  0  0  0  0
   25.6532   31.9970   30.1460 C   0  0  0  0  0  0  0  0  0  0  0  0
   20.2640   34.3273   31.4269 H   0  0  0  0  0  0  0  0  0  0  0  0
   20.7168   35.4080   32.7543 H   0  0  0  0  0  0  0  0  0  0  0  0
   21.4880   33.1496   33.2197 H   0  0  0  0  0  0  0  0  0  0  0  0
   23.7616   35.0984   32.4890 H   0  0  0  0  0  0  0  0  0  0  0  0
   22.5210   35.6302   34.3457 H   0  0  0  0  0  0  0  0  0  0  0  0
   25.2521   33.3094   33.2016 H   0  0  0  0  0  0  0  0  0  0  0  0
   24.4384   31.4211   34.1462 H   0  0  0  0  0  0  0  0  0  0  0  0
   23.7973   31.3675   31.8439 H   0  0  0  0  0  0  0  0  0  0  0  0
   24.1210   34.8408   30.1974 H   0  0  0  0  0  0  0  0  0  0  0  0
   28.3200   30.2905   28.2874 H   0  0  0  0  0  0  0  0  0  0  0  0
   26.7435   28.4550   30.6871 H   0  0  0  0  0  0  0  0  0  0  0  0
   25.4194   30.2007   31.1453 H   0  0  0  0  0  0  0  0  0  0  0  0
  1  2  2  0  0  0  0
  1  3  1  0  0  0  0
  1  4  1  0  0  0  0
  1  5  1  0  0  0  0
  6  5  1  1  0  0  0
  6  7  2  0  0  0  0
  6  8  1  0  0  0  0
  6  9  1  0  0  0  0
  9 10  1  0  0  0  0
 10 11  1  0  0  0  0
 10 29  1  0  0  0  0
 10 30  1  0  0  0  0
 11 12  1  0  0  0  0
 11 13  1  0  0  0  0
 11 31  1  1  0  0  0
 12 17  1  0  0  0  0
 13 14  1  0  0  0  0
 13 15  1  0  0  0  0
 13 32  1  6  0  0  0
 14 33  1  0  0  0  0
 15 16  1  0  0  0  0
 15 17  1  0  0  0  0
 15 34  1  1  0  0  0
 16 35  1  0  0  0  0
 17 18  1  0  0  0  0
 17 36  1  1  0  0  0
 18 19  2  0  0  0  0
 18 28  1  0  0  0  0
 19 20  1  0  0  0  0
 19 37  1  0  0  0  0
 20 21  2  0  0  0  0
 21 22  1  0  0  0  0
 21 28  1  0  0  0  0
 22 23  2  0  0  0  0
 22 24  1  0  0  0  0
 24 25  1  0  0  0  0
 24 38  1  0  0  0  0
 25 26  2  0  0  0  0
 25 27  1  0  0  0  0
 26 39  1  0  0  0  0
 27 28  2  0  0  0  0
 27 40  1  0  0  0  0
M  CHG  3  18   1  24   1  27   1
M  END
$$$$
