GDS
 OpenBabel04091913443D

 70 69  0  0  1  0  0  0  0  0999 V2000
   12.3443   -9.7099  -12.0317 N   0  3  0  0  0  0  0  0  0  0  0  0
   11.7728  -11.0985  -12.1067 C   0  0  2  0  0  0  0  0  0  0  0  0
   10.2788  -11.0103  -12.5477 C   0  0  0  0  0  0  0  0  0  0  0  0
    9.8943   -9.7960  -12.5518 O   0  0  0  0  0  0  0  0  0  0  0  0
    9.7023  -12.0663  -12.8880 O   0  0  0  0  0  0  0  0  0  0  0  0
   11.9004  -11.7201  -10.7189 C   0  0  0  0  0  0  0  0  0  0  0  0
   13.3647  -12.0012  -10.3444 C   0  0  0  0  0  0  0  0  0  0  0  0
   13.8408  -13.2505  -11.0527 C   0  0  0  0  0  0  0  0  0  0  0  0
   13.2955  -14.3303  -10.8693 O   0  0  0  0  0  0  0  0  0  0  0  0
   14.8282  -13.0501  -11.9956 N   0  0  0  0  0  0  0  0  0  0  0  0
   15.3180  -14.1695  -12.8442 C   0  0  2  0  0  0  0  0  0  0  0  0
   16.8122  -14.3287  -12.5393 C   0  0  0  0  0  0  0  0  0  0  0  0
   17.5206  -13.3101  -12.4723 O   0  0  0  0  0  0  0  0  0  0  0  0
   15.1213  -13.7231  -14.3018 C   0  0  0  0  0  0  0  0  0  0  0  0
   15.4590  -14.9311  -15.6179 S   0  0  0  0  0  0  0  0  0  0  0  0
   17.2858  -15.5913  -12.3642 N   0  0  0  0  0  0  0  0  0  0  0  0
   18.7313  -15.8780  -12.3210 C   0  0  0  0  0  0  0  0  0  0  0  0
   19.1955  -17.1892  -12.9918 C   0  0  0  0  0  0  0  0  0  0  0  0
   18.3866  -17.6674  -13.8348 O   0  0  0  0  0  0  0  0  0  0  0  0
   20.3631  -17.5635  -12.6730 O   0  0  0  0  0  0  0  0  0  0  0  0
   15.1010  -20.1583  -13.1051 N   0  0  0  0  0  0  0  0  0  0  0  0
   15.4809  -20.8895  -11.8943 C   0  0  0  0  0  0  0  0  0  0  0  0
   14.4465  -20.9342  -10.7440 C   0  0  0  0  0  0  0  0  0  0  0  0
   14.9117  -21.2536   -9.6050 O   0  0  0  0  0  0  0  0  0  0  0  0
   13.2322  -20.7203  -11.0589 O   0  0  0  0  0  0  0  0  0  0  0  0
   15.2603  -18.8006  -13.1976 C   0  0  0  0  0  0  0  0  0  0  0  0
   15.5165  -18.0630  -12.2415 O   0  0  0  0  0  0  0  0  0  0  0  0
   15.0200  -18.1793  -14.5906 C   0  0  1  0  0  0  0  0  0  0  0  0
   14.8194  -19.1122  -15.7116 N   0  0  0  0  0  0  0  0  0  0  0  0
   13.8104  -17.2360  -14.4577 C   0  0  0  0  0  0  0  0  0  0  0  0
   13.6950  -15.9776  -15.7932 S   0  0  0  0  0  0  0  0  0  0  0  0
   15.8495  -23.0321  -16.8578 C   0  0  1  0  0  0  0  0  0  0  0  0
   15.9258  -22.8196  -15.3271 C   0  0  0  0  0  0  0  0  0  0  0  0
   14.7651  -22.5105  -14.8992 O   0  0  0  0  0  0  0  0  0  0  0  0
   16.9863  -23.1926  -14.7839 O   0  0  0  0  0  0  0  0  0  0  0  0
   14.4161  -23.3456  -17.2594 N   0  3  0  0  0  0  0  0  0  0  0  0
   16.3481  -21.8397  -17.6623 C   0  0  0  0  0  0  0  0  0  0  0  0
   15.4980  -20.5691  -17.5191 C   0  0  0  0  0  0  0  0  0  0  0  0
   15.8792  -19.7463  -16.3111 C   0  0  0  0  0  0  0  0  0  0  0  0
   17.0535  -19.6270  -16.0020 O   0  0  0  0  0  0  0  0  0  0  0  0
   13.2857   -9.5800  -11.6694 H   0  0  0  0  0  0  0  0  0  0  0  0
   12.2142   -9.2706  -12.9598 H   0  0  0  0  0  0  0  0  0  0  0  0
   12.3647  -11.6212  -12.8586 H   0  0  0  0  0  0  0  0  0  0  0  0
   11.3049  -12.6405  -10.6707 H   0  0  0  0  0  0  0  0  0  0  0  0
   11.4554  -11.0415   -9.9735 H   0  0  0  0  0  0  0  0  0  0  0  0
   13.4350  -12.1736   -9.2637 H   0  0  0  0  0  0  0  0  0  0  0  0
   14.0103  -11.1495  -10.5692 H   0  0  0  0  0  0  0  0  0  0  0  0
   15.4802  -12.2814  -11.9064 H   0  0  0  0  0  0  0  0  0  0  0  0
   14.7706  -15.0774  -12.5969 H   0  0  0  0  0  0  0  0  0  0  0  0
   15.7821  -12.8712  -14.4990 H   0  0  0  0  0  0  0  0  0  0  0  0
   14.1005  -13.3364  -14.4411 H   0  0  0  0  0  0  0  0  0  0  0  0
   16.6976  -16.4390  -12.3699 H   0  0  0  0  0  0  0  0  0  0  0  0
   19.0432  -15.8597  -11.2721 H   0  0  0  0  0  0  0  0  0  0  0  0
   19.2491  -15.0703  -12.8498 H   0  0  0  0  0  0  0  0  0  0  0  0
   14.7076  -20.7207  -13.8493 H   0  0  0  0  0  0  0  0  0  0  0  0
   16.4240  -20.4671  -11.5341 H   0  0  0  0  0  0  0  0  0  0  0  0
   15.6815  -21.9237  -12.2080 H   0  0  0  0  0  0  0  0  0  0  0  0
   15.9336  -17.6160  -14.8032 H   0  0  0  0  0  0  0  0  0  0  0  0
   13.8705  -19.3582  -15.9385 H   0  0  0  0  0  0  0  0  0  0  0  0
   13.7803  -16.7069  -13.5033 H   0  0  0  0  0  0  0  0  0  0  0  0
   12.8810  -17.8169  -14.5004 H   0  0  0  0  0  0  0  0  0  0  0  0
   16.4135  -23.9348  -17.1171 H   0  0  0  0  0  0  0  0  0  0  0  0
   14.2574  -23.4671  -18.2561 H   0  0  0  0  0  0  0  0  0  0  0  0
   14.1310  -24.1523  -16.6948 H   0  0  0  0  0  0  0  0  0  0  0  0
   16.3626  -22.1273  -18.7207 H   0  0  0  0  0  0  0  0  0  0  0  0
   17.3931  -21.6440  -17.3876 H   0  0  0  0  0  0  0  0  0  0  0  0
   14.4264  -20.7810  -17.5253 H   0  0  0  0  0  0  0  0  0  0  0  0
   15.6904  -19.9252  -18.3854 H   0  0  0  0  0  0  0  0  0  0  0  0
   11.6432   -9.1726  -11.4779 H   0  0  0  0  0  0  0  0  0  0  0  0
   13.8492  -22.5978  -16.8224 H   0  0  0  0  0  0  0  0  0  0  0  0
  1  2  1  0  0  0  0
  1 41  1  0  0  0  0
  1 42  1  0  0  0  0
  1 69  1  0  0  0  0
  2  3  1  0  0  0  0
  2  6  1  0  0  0  0
  2 43  1  6  0  0  0
  3  4  2  0  0  0  0
  3  5  1  0  0  0  0
  6  7  1  0  0  0  0
  6 44  1  0  0  0  0
  6 45  1  0  0  0  0
  7  8  1  0  0  0  0
  7 46  1  0  0  0  0
  7 47  1  0  0  0  0
  8  9  2  0  0  0  0
  8 10  1  0  0  0  0
 10 11  1  0  0  0  0
 10 48  1  0  0  0  0
 11 12  1  0  0  0  0
 11 14  1  0  0  0  0
 11 49  1  1  0  0  0
 12 13  2  0  0  0  0
 12 16  1  0  0  0  0
 14 15  1  0  0  0  0
 14 50  1  0  0  0  0
 14 51  1  0  0  0  0
 15 31  1  0  0  0  0
 16 17  1  0  0  0  0
 16 52  1  0  0  0  0
 17 18  1  0  0  0  0
 17 53  1  0  0  0  0
 17 54  1  0  0  0  0
 18 19  2  0  0  0  0
 18 20  1  0  0  0  0
 21 22  1  0  0  0  0
 21 26  1  0  0  0  0
 21 55  1  0  0  0  0
 22 23  1  0  0  0  0
 22 56  1  0  0  0  0
 22 57  1  0  0  0  0
 23 24  2  0  0  0  0
 23 25  1  0  0  0  0
 26 27  2  0  0  0  0
 26 28  1  0  0  0  0
 28 29  1  0  0  0  0
 28 30  1  0  0  0  0
 28 58  1  6  0  0  0
 29 39  1  0  0  0  0
 29 59  1  0  0  0  0
 30 31  1  0  0  0  0
 30 60  1  0  0  0  0
 30 61  1  0  0  0  0
 32 33  1  0  0  0  0
 32 36  1  0  0  0  0
 32 37  1  0  0  0  0
 32 62  1  6  0  0  0
 33 34  2  0  0  0  0
 33 35  1  0  0  0  0
 36 63  1  0  0  0  0
 36 64  1  0  0  0  0
 36 70  1  0  0  0  0
 37 38  1  0  0  0  0
 37 65  1  0  0  0  0
 37 66  1  0  0  0  0
 38 39  1  0  0  0  0
 38 67  1  0  0  0  0
 38 68  1  0  0  0  0
 39 40  2  0  0  0  0
M  CHG  2   1   1  36   1
M  END
$$$$
