GDS
 OpenBabel04091912503D

 70 69  0  0  1  0  0  0  0  0999 V2000
   28.3626   43.3342   52.6278 N   0  3  0  0  0  0  0  0  0  0  0  0
   29.1003   42.5723   51.5620 C   0  0  2  0  0  0  0  0  0  0  0  0
   30.6508   42.7328   51.6811 C   0  0  0  0  0  0  0  0  0  0  0  0
   30.9839   43.8741   52.1330 O   0  0  0  0  0  0  0  0  0  0  0  0
   31.3411   41.7310   51.3889 O   0  0  0  0  0  0  0  0  0  0  0  0
   28.6546   43.1110   50.1995 C   0  0  0  0  0  0  0  0  0  0  0  0
   28.9893   42.1367   49.0683 C   0  0  0  0  0  0  0  0  0  0  0  0
   28.1940   40.8593   49.1773 C   0  0  0  0  0  0  0  0  0  0  0  0
   26.9953   40.8578   49.4799 O   0  0  0  0  0  0  0  0  0  0  0  0
   28.8916   39.7340   48.8089 N   0  0  0  0  0  0  0  0  0  0  0  0
   28.3470   38.3721   48.9014 C   0  0  2  0  0  0  0  0  0  0  0  0
   29.3017   37.5052   49.7489 C   0  0  0  0  0  0  0  0  0  0  0  0
   30.5007   37.7670   49.8320 O   0  0  0  0  0  0  0  0  0  0  0  0
   28.2595   37.7268   47.5177 C   0  0  0  0  0  0  0  0  0  0  0  0
   26.9692   38.4377   46.4230 S   0  0  0  0  0  0  0  0  0  0  0  0
   28.7275   36.3808   50.2907 N   0  0  0  0  0  0  0  0  0  0  0  0
   29.4542   35.3956   51.1104 C   0  0  0  0  0  0  0  0  0  0  0  0
   28.7143   34.0444   51.3058 C   0  0  0  0  0  0  0  0  0  0  0  0
   28.8281   33.5012   52.4466 O   0  0  0  0  0  0  0  0  0  0  0  0
   28.0100   33.6591   50.3279 O   0  0  0  0  0  0  0  0  0  0  0  0
   24.2407   41.1904   50.6208 N   0  0  0  0  0  0  0  0  0  0  0  0
   23.6103   42.3561   51.2454 C   0  0  0  0  0  0  0  0  0  0  0  0
   24.5267   43.2058   52.1802 C   0  0  0  0  0  0  0  0  0  0  0  0
   25.7531   42.8599   52.2867 O   0  0  0  0  0  0  0  0  0  0  0  0
   23.9651   44.2033   52.7193 O   0  0  0  0  0  0  0  0  0  0  0  0
   23.5680   40.1009   50.1554 C   0  0  0  0  0  0  0  0  0  0  0  0
   22.3377   40.0089   50.1700 O   0  0  0  0  0  0  0  0  0  0  0  0
   24.4581   38.9874   49.5927 C   0  0  1  0  0  0  0  0  0  0  0  0
   23.9252   37.7237   50.0890 N   0  0  0  0  0  0  0  0  0  0  0  0
   24.4419   39.0892   48.0640 C   0  0  0  0  0  0  0  0  0  0  0  0
   25.2133   37.6760   47.1759 S   0  0  0  0  0  0  0  0  0  0  0  0
   24.1320   33.6521   52.8438 C   0  0  1  0  0  0  0  0  0  0  0  0
   23.3685   32.6892   51.8835 C   0  0  0  0  0  0  0  0  0  0  0  0
   22.2171   33.0629   51.5398 O   0  0  0  0  0  0  0  0  0  0  0  0
   23.9659   31.5832   51.7301 O   0  0  0  0  0  0  0  0  0  0  0  0
   25.1469   32.9237   53.7017 N   0  3  0  0  0  0  0  0  0  0  0  0
   24.8875   34.7397   52.1051 C   0  0  0  0  0  0  0  0  0  0  0  0
   23.9639   35.6542   51.3098 C   0  0  0  0  0  0  0  0  0  0  0  0
   24.7271   36.8274   50.7492 C   0  0  0  0  0  0  0  0  0  0  0  0
   25.9394   36.9654   50.8751 O   0  0  0  0  0  0  0  0  0  0  0  0
   27.3167   43.2535   52.5286 H   0  0  0  0  0  0  0  0  0  0  0  0
   28.6409   42.9663   53.5377 H   0  0  0  0  0  0  0  0  0  0  0  0
   28.8133   41.5243   51.7110 H   0  0  0  0  0  0  0  0  0  0  0  0
   29.1381   44.0749   49.9898 H   0  0  0  0  0  0  0  0  0  0  0  0
   27.5743   43.3071   50.2029 H   0  0  0  0  0  0  0  0  0  0  0  0
   30.0646   41.9321   49.0389 H   0  0  0  0  0  0  0  0  0  0  0  0
   28.7299   42.6013   48.1040 H   0  0  0  0  0  0  0  0  0  0  0  0
   29.9034   39.7923   48.7505 H   0  0  0  0  0  0  0  0  0  0  0  0
   27.3797   38.3986   49.3976 H   0  0  0  0  0  0  0  0  0  0  0  0
   28.1187   36.6420   47.5710 H   0  0  0  0  0  0  0  0  0  0  0  0
   29.2123   37.8823   46.9943 H   0  0  0  0  0  0  0  0  0  0  0  0
   27.7148   36.2527   50.2642 H   0  0  0  0  0  0  0  0  0  0  0  0
   29.6190   35.8623   52.0877 H   0  0  0  0  0  0  0  0  0  0  0  0
   30.4333   35.2198   50.6535 H   0  0  0  0  0  0  0  0  0  0  0  0
   25.2619   41.2365   50.5749 H   0  0  0  0  0  0  0  0  0  0  0  0
   22.7249   42.0147   51.7925 H   0  0  0  0  0  0  0  0  0  0  0  0
   23.2584   42.9975   50.4278 H   0  0  0  0  0  0  0  0  0  0  0  0
   25.4657   39.1162   49.9803 H   0  0  0  0  0  0  0  0  0  0  0  0
   22.9177   37.6055   50.0873 H   0  0  0  0  0  0  0  0  0  0  0  0
   24.8876   40.0344   47.7319 H   0  0  0  0  0  0  0  0  0  0  0  0
   23.4013   39.1083   47.7175 H   0  0  0  0  0  0  0  0  0  0  0  0
   23.4125   34.0845   53.5493 H   0  0  0  0  0  0  0  0  0  0  0  0
   25.6860   33.5274   54.3240 H   0  0  0  0  0  0  0  0  0  0  0  0
   24.6761   32.1540   54.1769 H   0  0  0  0  0  0  0  0  0  0  0  0
   25.6256   34.2940   51.4283 H   0  0  0  0  0  0  0  0  0  0  0  0
   25.4537   35.3386   52.8324 H   0  0  0  0  0  0  0  0  0  0  0  0
   23.1663   36.0364   51.9578 H   0  0  0  0  0  0  0  0  0  0  0  0
   23.5124   35.1152   50.4714 H   0  0  0  0  0  0  0  0  0  0  0  0
   28.6917   44.3108   52.5975 H   0  0  0  0  0  0  0  0  0  0  0  0
   25.7995   32.4674   53.0361 H   0  0  0  0  0  0  0  0  0  0  0  0
  1  2  1  0  0  0  0
  1 41  1  0  0  0  0
  1 42  1  0  0  0  0
  1 69  1  0  0  0  0
  2  3  1  0  0  0  0
  2  6  1  0  0  0  0
  2 43  1  1  0  0  0
  3  4  2  0  0  0  0
  3  5  1  0  0  0  0
  6  7  1  0  0  0  0
  6 44  1  0  0  0  0
  6 45  1  0  0  0  0
  7  8  1  0  0  0  0
  7 46  1  0  0  0  0
  7 47  1  0  0  0  0
  8  9  2  0  0  0  0
  8 10  1  0  0  0  0
 10 11  1  0  0  0  0
 10 48  1  0  0  0  0
 11 12  1  0  0  0  0
 11 14  1  0  0  0  0
 11 49  1  1  0  0  0
 12 13  2  0  0  0  0
 12 16  1  0  0  0  0
 14 15  1  0  0  0  0
 14 50  1  0  0  0  0
 14 51  1  0  0  0  0
 15 31  1  0  0  0  0
 16 17  1  0  0  0  0
 16 52  1  0  0  0  0
 17 18  1  0  0  0  0
 17 53  1  0  0  0  0
 17 54  1  0  0  0  0
 18 19  2  0  0  0  0
 18 20  1  0  0  0  0
 21 22  1  0  0  0  0
 21 26  1  0  0  0  0
 21 55  1  0  0  0  0
 22 23  1  0  0  0  0
 22 56  1  0  0  0  0
 22 57  1  0  0  0  0
 23 24  2  0  0  0  0
 23 25  1  0  0  0  0
 26 27  2  0  0  0  0
 26 28  1  0  0  0  0
 28 29  1  0  0  0  0
 28 30  1  0  0  0  0
 28 58  1  1  0  0  0
 29 39  1  0  0  0  0
 29 59  1  0  0  0  0
 30 31  1  0  0  0  0
 30 60  1  0  0  0  0
 30 61  1  0  0  0  0
 32 33  1  0  0  0  0
 32 36  1  0  0  0  0
 32 37  1  0  0  0  0
 32 62  1  1  0  0  0
 33 34  2  0  0  0  0
 33 35  1  0  0  0  0
 36 63  1  0  0  0  0
 36 64  1  0  0  0  0
 36 70  1  0  0  0  0
 37 38  1  0  0  0  0
 37 65  1  0  0  0  0
 37 66  1  0  0  0  0
 38 39  1  0  0  0  0
 38 67  1  0  0  0  0
 38 68  1  0  0  0  0
 39 40  2  0  0  0  0
M  CHG  2   1   1  36   1
M  END
$$$$
