GEN
 OpenBabel04091913273D

 29 31  0  0  0  0  0  0  0  0999 V2000
   -0.8964    0.5230   -2.5201 C   0  0  0  0  0  0  0  0  0  0  0  0
   -0.0070   -0.0735   -1.6537 C   0  0  0  0  0  0  0  0  0  0  0  0
   -0.1715    0.0344   -0.3009 O   0  0  0  0  0  0  0  0  0  0  0  0
    1.1030   -0.7735   -2.1216 C   0  0  0  0  0  0  0  0  0  0  0  0
    1.4010   -0.9410   -3.4840 C   0  0  0  0  0  0  0  0  0  0  0  0
    2.4507   -1.5912   -3.8144 O   0  0  0  0  0  0  0  0  0  0  0  0
    0.4563   -0.3333   -4.3577 C   0  0  0  0  0  0  0  0  0  0  0  0
    0.6243   -0.4227   -5.8299 C   0  0  0  0  0  0  0  0  0  0  0  0
    1.5584   -0.9574   -6.4196 O   0  0  0  0  0  0  0  0  0  0  0  0
   -0.4335    0.2094   -6.6463 C   0  0  0  0  0  0  0  0  0  0  0  0
   -1.4523    0.8381   -6.0581 C   0  0  0  0  0  0  0  0  0  0  0  0
   -1.6286    0.9610   -4.7071 O   0  3  0  0  0  0  0  0  0  0  0  0
   -0.6823    0.3746   -3.8847 C   0  0  0  0  0  0  0  0  0  0  0  0
   -0.3196    0.1306   -8.0956 C   0  0  0  0  0  0  0  0  0  0  0  0
   -0.1594    1.2974   -8.8428 C   0  0  0  0  0  0  0  0  0  0  0  0
    0.0162    1.2026  -10.2148 C   0  0  0  0  0  0  0  0  0  0  0  0
    0.0486   -0.0534  -10.8141 C   0  0  0  0  0  0  0  0  0  0  0  0
    0.2106   -0.1050  -12.1675 O   0  0  0  0  0  0  0  0  0  0  0  0
   -0.0703   -1.2255  -10.0728 C   0  0  0  0  0  0  0  0  0  0  0  0
   -0.2561   -1.1306   -8.7037 C   0  0  0  0  0  0  0  0  0  0  0  0
   -1.7767    1.0509   -2.1480 H   0  0  0  0  0  0  0  0  0  0  0  0
   -0.1927    0.9865   -0.1172 H   0  0  0  0  0  0  0  0  0  0  0  0
    1.7963   -1.2106   -1.4049 H   0  0  0  0  0  0  0  0  0  0  0  0
   -2.2489    1.3214   -6.6112 H   0  0  0  0  0  0  0  0  0  0  0  0
   -0.1266    2.2649   -8.3468 H   0  0  0  0  0  0  0  0  0  0  0  0
    0.1454    2.1029  -10.8042 H   0  0  0  0  0  0  0  0  0  0  0  0
    0.2459   -1.0439  -12.4115 H   0  0  0  0  0  0  0  0  0  0  0  0
   -0.0022   -2.2100  -10.5214 H   0  0  0  0  0  0  0  0  0  0  0  0
   -0.2938   -2.0331   -8.0924 H   0  0  0  0  0  0  0  0  0  0  0  0
  1  2  2  0  0  0  0
  1 13  1  0  0  0  0
  1 21  1  0  0  0  0
  2  3  1  0  0  0  0
  2  4  1  0  0  0  0
  3 22  1  0  0  0  0
  4  5  2  0  0  0  0
  4 23  1  0  0  0  0
  5  6  1  0  0  0  0
  5  7  1  0  0  0  0
  7  8  1  0  0  0  0
  7 13  2  0  0  0  0
  8  9  2  0  0  0  0
  8 10  1  0  0  0  0
 10 11  2  0  0  0  0
 10 14  1  0  0  0  0
 11 12  1  0  0  0  0
 11 24  1  0  0  0  0
 12 13  1  0  0  0  0
 14 15  2  0  0  0  0
 14 20  1  0  0  0  0
 15 16  1  0  0  0  0
 15 25  1  0  0  0  0
 16 17  2  0  0  0  0
 16 26  1  0  0  0  0
 17 18  1  0  0  0  0
 17 19  1  0  0  0  0
 18 27  1  0  0  0  0
 19 20  2  0  0  0  0
 19 28  1  0  0  0  0
 20 29  1  0  0  0  0
M  CHG  1  12   1
M  END
$$$$
