GF1
 OpenBabel04091912393D

 31 33  0  0  1  0  0  0  0  0999 V2000
   -3.1610   40.5799   23.9720 O   0  0  0  0  0  0  0  0  0  0  0  0
   -1.9939   40.6003   24.3371 C   0  0  0  0  0  0  0  0  0  0  0  0
   -0.8906   40.1026   23.6931 N   0  0  0  0  0  0  0  0  0  0  0  0
   -0.9446   39.3179   22.4474 C   0  0  1  0  0  0  0  0  0  0  0  0
   -1.7879   38.0151   22.5601 C   0  0  0  0  0  0  0  0  0  0  0  0
   -1.7561   37.4543   23.6952 O   0  0  0  0  0  0  0  0  0  0  0  0
   -2.3778   37.6357   21.5081 O   0  0  0  0  0  0  0  0  0  0  0  0
   -1.3783   40.1670   21.2591 C   0  0  0  0  0  0  0  0  0  0  0  0
   -1.5423   41.2855   25.6035 C   0  0  1  0  0  0  0  0  0  0  0  0
   -0.0247   41.0851   25.6365 C   0  0  1  0  0  0  0  0  0  0  0  0
    0.2680   40.3046   24.3867 C   0  0  0  0  0  0  0  0  0  0  0  0
    1.4082   39.9841   24.0570 O   0  0  0  0  0  0  0  0  0  0  0  0
   -1.6815   42.8235   25.6383 C   0  0  2  0  0  0  0  0  0  0  0  0
   -1.2118   43.4656   24.3208 C   0  0  0  0  0  0  0  0  0  0  0  0
    0.3110   43.2732   24.3643 C   0  0  0  0  0  0  0  0  0  0  0  0
   -0.5254   43.2080   26.5661 C   0  0  0  0  0  0  0  0  0  0  0  0
    0.5282   42.5224   25.6875 C   0  0  1  0  0  0  0  0  0  0  0  0
    0.0799   38.9819   22.2350 H   0  0  0  0  0  0  0  0  0  0  0  0
   -1.3857   39.5758   20.3358 H   0  0  0  0  0  0  0  0  0  0  0  0
   -0.6932   41.0063   21.1055 H   0  0  0  0  0  0  0  0  0  0  0  0
   -2.3849   40.5697   21.4051 H   0  0  0  0  0  0  0  0  0  0  0  0
   -2.0287   40.8269   26.4685 H   0  0  0  0  0  0  0  0  0  0  0  0
    0.2899   40.5110   26.5116 H   0  0  0  0  0  0  0  0  0  0  0  0
   -2.6695   43.1616   25.9579 H   0  0  0  0  0  0  0  0  0  0  0  0
   -1.4649   44.5328   24.3023 H   0  0  0  0  0  0  0  0  0  0  0  0
   -1.6562   43.0008   23.4374 H   0  0  0  0  0  0  0  0  0  0  0  0
    0.8177   44.2462   24.3864 H   0  0  0  0  0  0  0  0  0  0  0  0
    0.6797   42.7213   23.4974 H   0  0  0  0  0  0  0  0  0  0  0  0
   -0.6020   42.7693   27.5655 H   0  0  0  0  0  0  0  0  0  0  0  0
   -0.3778   44.2914   26.6434 H   0  0  0  0  0  0  0  0  0  0  0  0
    1.5551   42.5842   26.0557 H   0  0  0  0  0  0  0  0  0  0  0  0
  1  2  2  0  0  0  0
  2  3  1  0  0  0  0
  2  9  1  0  0  0  0
  3  4  1  0  0  0  0
  3 11  1  0  0  0  0
  4  5  1  0  0  0  0
  4  8  1  0  0  0  0
  4 18  1  6  0  0  0
  5  6  2  0  0  0  0
  5  7  1  0  0  0  0
  8 19  1  0  0  0  0
  8 20  1  0  0  0  0
  8 21  1  0  0  0  0
  9 10  1  0  0  0  0
  9 13  1  0  0  0  0
  9 22  1  1  0  0  0
 10 11  1  0  0  0  0
 10 17  1  0  0  0  0
 10 23  1  1  0  0  0
 11 12  2  0  0  0  0
 13 14  1  0  0  0  0
 13 16  1  0  0  0  0
 13 24  1  1  0  0  0
 14 15  1  0  0  0  0
 14 25  1  0  0  0  0
 14 26  1  0  0  0  0
 15 17  1  0  0  0  0
 15 27  1  0  0  0  0
 15 28  1  0  0  0  0
 16 17  1  0  0  0  0
 16 29  1  0  0  0  0
 16 30  1  0  0  0  0
 17 31  1  1  0  0  0
M  END
$$$$
