GIM
 OpenBabel04091911213D

 26 27  0  0  1  0  0  0  0  0999 V2000
   30.8139   65.9309    9.6893 C   0  0  0  0  0  0  0  0  0  0  0  0
   31.9353   65.3132    8.9323 C   0  0  1  0  0  0  0  0  0  0  0  0
   29.8212   66.6167    8.9923 N   0  3  0  0  0  0  0  0  0  0  0  0
   32.3718   66.2868    7.8281 C   0  0  2  0  0  0  0  0  0  0  0  0
   31.1932   66.4409    6.8663 C   0  0  1  0  0  0  0  0  0  0  0  0
   29.8591   66.8409    7.5472 C   0  0  1  0  0  0  0  0  0  0  0  0
   28.7445   66.1015    6.8066 C   0  0  0  0  0  0  0  0  0  0  0  0
   29.3785   66.6431   11.1289 C   0  0  0  0  0  0  0  0  0  0  0  0
   28.8993   67.0195    9.8939 C   0  0  0  0  0  0  0  0  0  0  0  0
   30.5558   65.9806   10.9934 N   0  0  0  0  0  0  0  0  0  0  0  0
   33.4820   65.6933    7.1477 O   0  0  0  0  0  0  0  0  0  0  0  0
   33.0217   64.9326    9.7648 O   0  0  0  0  0  0  0  0  0  0  0  0
   31.4751   67.4481    5.8896 O   0  0  0  0  0  0  0  0  0  0  0  0
   27.4599   66.4773    7.2637 O   0  0  0  0  0  0  0  0  0  0  0  0
   31.5835   64.3854    8.4585 H   0  0  0  0  0  0  0  0  0  0  0  0
   32.6792   67.2598    8.2272 H   0  0  0  0  0  0  0  0  0  0  0  0
   31.0737   65.4877    6.3298 H   0  0  0  0  0  0  0  0  0  0  0  0
   29.7149   67.9188    7.4206 H   0  0  0  0  0  0  0  0  0  0  0  0
   28.8490   65.0173    6.9385 H   0  0  0  0  0  0  0  0  0  0  0  0
   28.7877   66.3003    5.7302 H   0  0  0  0  0  0  0  0  0  0  0  0
   28.8921   66.8491   12.0731 H   0  0  0  0  0  0  0  0  0  0  0  0
   27.9658   67.5179    9.6495 H   0  0  0  0  0  0  0  0  0  0  0  0
   33.7751   66.2649    6.4014 H   0  0  0  0  0  0  0  0  0  0  0  0
   33.4150   65.7446   10.1479 H   0  0  0  0  0  0  0  0  0  0  0  0
   32.3021   67.2183    5.4227 H   0  0  0  0  0  0  0  0  0  0  0  0
   27.3732   67.4520    7.1555 H   0  0  0  0  0  0  0  0  0  0  0  0
  1  2  1  0  0  0  0
  1  3  2  0  0  0  0
  1 10  1  0  0  0  0
  2  4  1  0  0  0  0
  2 12  1  0  0  0  0
  2 15  1  6  0  0  0
  3  6  1  0  0  0  0
  3  9  1  0  0  0  0
  4  5  1  0  0  0  0
  4 11  1  0  0  0  0
  4 16  1  1  0  0  0
  5  6  1  0  0  0  0
  5 13  1  0  0  0  0
  5 17  1  6  0  0  0
  6  7  1  0  0  0  0
  6 18  1  6  0  0  0
  7 14  1  0  0  0  0
  7 19  1  0  0  0  0
  7 20  1  0  0  0  0
  8  9  2  0  0  0  0
  8 10  1  0  0  0  0
  8 21  1  0  0  0  0
  9 22  1  0  0  0  0
 11 23  1  0  0  0  0
 12 24  1  0  0  0  0
 13 25  1  0  0  0  0
 14 26  1  0  0  0  0
M  CHG  1   3   1
M  END
$$$$
