GJW
 OpenBabel04091912453D

 38 41  0  0  0  0  0  0  0  0999 V2000
   51.0316   55.4492    9.0504 C   0  0  0  0  0  0  0  0  0  0  0  0
   49.5615   55.8770   10.6917 C   0  0  0  0  0  0  0  0  0  0  0  0
   48.9116   54.1425    9.1293 C   0  0  0  0  0  0  0  0  0  0  0  0
   48.2376   52.4642    7.5733 C   0  0  0  0  0  0  0  0  0  0  0  0
   47.0367   52.3260    8.2788 C   0  0  0  0  0  0  0  0  0  0  0  0
   45.8838   50.1603    8.6186 N   0  3  0  0  0  0  0  0  0  0  0  0
   44.6023   49.4425    8.3380 C   0  0  0  0  0  0  0  0  0  0  0  0
   47.0168   49.1877    8.4503 C   0  0  0  0  0  0  0  0  0  0  0  0
   51.5748   56.4372    9.8376 C   0  0  0  0  0  0  0  0  0  0  0  0
   49.8206   55.1097    9.5800 N   0  3  0  0  0  0  0  0  0  0  0  0
   50.6461   56.7114   10.8738 C   0  0  0  0  0  0  0  0  0  0  0  0
   47.7298   53.9856    9.8620 C   0  0  0  0  0  0  0  0  0  0  0  0
   47.4808   54.7626   11.0026 N   0  3  0  0  0  0  0  0  0  0  0  0
   48.3483   55.7403   11.4535 C   0  0  0  0  0  0  0  0  0  0  0  0
   49.1829   53.3807    7.9969 C   0  0  0  0  0  0  0  0  0  0  0  0
   46.7827   53.0723    9.4393 C   0  0  0  0  0  0  0  0  0  0  0  0
   48.0563   56.4116   12.4376 O   0  0  0  0  0  0  0  0  0  0  0  0
   46.0011   51.3809    7.7702 C   0  0  0  0  0  0  0  0  0  0  0  0
   44.8880   47.9974    8.6439 C   0  0  0  0  0  0  0  0  0  0  0  0
   46.3963   47.8286    8.6738 C   0  0  0  0  0  0  0  0  0  0  0  0
   51.4390   54.9794    8.1621 H   0  0  0  0  0  0  0  0  0  0  0  0
   48.4412   51.8845    6.6731 H   0  0  0  0  0  0  0  0  0  0  0  0
   44.3431   49.5904    7.2839 H   0  0  0  0  0  0  0  0  0  0  0  0
   43.8266   49.8749    8.9785 H   0  0  0  0  0  0  0  0  0  0  0  0
   47.7937   49.4265    9.1859 H   0  0  0  0  0  0  0  0  0  0  0  0
   47.4252   49.2804    7.4379 H   0  0  0  0  0  0  0  0  0  0  0  0
   52.5319   56.9080    9.6819 H   0  0  0  0  0  0  0  0  0  0  0  0
   50.7486   57.4337   11.6704 H   0  0  0  0  0  0  0  0  0  0  0  0
   46.6358   54.6580   11.5438 H   0  0  0  0  0  0  0  0  0  0  0  0
   50.0990   53.4983    7.4266 H   0  0  0  0  0  0  0  0  0  0  0  0
   45.8522   52.9638    9.9839 H   0  0  0  0  0  0  0  0  0  0  0  0
   46.2312   51.0593    6.7481 H   0  0  0  0  0  0  0  0  0  0  0  0
   45.0299   51.8832    7.7628 H   0  0  0  0  0  0  0  0  0  0  0  0
   44.4307   47.3543    7.8854 H   0  0  0  0  0  0  0  0  0  0  0  0
   44.4542   47.7244    9.6115 H   0  0  0  0  0  0  0  0  0  0  0  0
   46.7107   47.4220    9.6405 H   0  0  0  0  0  0  0  0  0  0  0  0
   46.7276   47.1296    7.8995 H   0  0  0  0  0  0  0  0  0  0  0  0
   45.8775   50.4428    9.6072 H   0  0  0  0  0  0  0  0  0  0  0  0
  1  9  2  0  0  0  0
  1 10  1  0  0  0  0
  1 21  1  0  0  0  0
  2 10  1  0  0  0  0
  2 11  2  0  0  0  0
  2 14  1  0  0  0  0
  3 10  2  0  0  0  0
  3 12  1  0  0  0  0
  3 15  1  0  0  0  0
  4  5  1  0  0  0  0
  4 15  2  0  0  0  0
  4 22  1  0  0  0  0
  5 16  2  0  0  0  0
  5 18  1  0  0  0  0
  6  7  1  0  0  0  0
  6  8  1  0  0  0  0
  6 18  1  0  0  0  0
  6 38  1  0  0  0  0
  7 19  1  0  0  0  0
  7 23  1  0  0  0  0
  7 24  1  0  0  0  0
  8 20  1  0  0  0  0
  8 25  1  0  0  0  0
  8 26  1  0  0  0  0
  9 11  1  0  0  0  0
  9 27  1  0  0  0  0
 11 28  1  0  0  0  0
 12 13  2  0  0  0  0
 12 16  1  0  0  0  0
 13 14  1  0  0  0  0
 13 29  1  0  0  0  0
 14 17  2  0  0  0  0
 15 30  1  0  0  0  0
 16 31  1  0  0  0  0
 18 32  1  0  0  0  0
 18 33  1  0  0  0  0
 19 20  1  0  0  0  0
 19 34  1  0  0  0  0
 19 35  1  0  0  0  0
 20 36  1  0  0  0  0
 20 37  1  0  0  0  0
M  CHG  3   6   1  10   1  13   1
M  END
$$$$
