GK6
 OpenBabel04091911253D

 65 69  0  0  0  0  0  0  0  0999 V2000
   46.2712   34.8086   30.9844 O   0  0  0  0  0  0  0  0  0  0  0  0
   45.9919   33.7144   30.5816 C   0  0  0  0  0  0  0  0  0  0  0  0
   46.7846   33.0252   29.6716 N   0  0  0  0  0  0  0  0  0  0  0  0
   47.9718   33.6233   29.0919 C   0  0  0  0  0  0  0  0  0  0  0  0
   49.0540   32.6018   28.8944 C   0  0  0  0  0  0  0  0  0  0  0  0
   50.4314   33.1056   29.2812 C   0  0  0  0  0  0  0  0  0  0  0  0
   49.7255   32.0915   30.1486 C   0  0  0  0  0  0  0  0  0  0  0  0
   44.7239   33.0049   31.0544 C   0  0  0  0  0  0  0  0  0  0  0  0
   44.4012   31.7089   30.6358 C   0  0  0  0  0  0  0  0  0  0  0  0
   43.2399   31.0703   31.0759 C   0  0  0  0  0  0  0  0  0  0  0  0
   43.8443   33.6680   31.9122 C   0  0  0  0  0  0  0  0  0  0  0  0
   42.6778   33.0335   32.3612 C   0  0  0  0  0  0  0  0  0  0  0  0
   42.3748   31.7220   31.9592 C   0  0  0  0  0  0  0  0  0  0  0  0
   41.0970   31.1212   32.3281 C   0  0  0  0  0  0  0  0  0  0  0  0
   39.9418   31.5313   31.6415 C   0  0  0  0  0  0  0  0  0  0  0  0
   40.0373   32.5618   30.5522 C   0  0  0  0  0  0  0  0  0  0  0  0
   40.9859   30.1594   33.3408 C   0  0  0  0  0  0  0  0  0  0  0  0
   39.7359   29.6269   33.6685 C   0  0  0  0  0  0  0  0  0  0  0  0
   38.5892   30.0273   32.9733 C   0  0  0  0  0  0  0  0  0  0  0  0
   38.6961   30.9864   31.9681 C   0  0  0  0  0  0  0  0  0  0  0  0
   39.5820   28.6581   34.6795 N   0  0  0  0  0  0  0  0  0  0  0  0
   40.2427   28.6833   35.9107 C   0  0  0  0  0  0  0  0  0  0  0  0
   41.1174   29.4825   36.1827 O   0  0  0  0  0  0  0  0  0  0  0  0
   39.8010   27.7062   36.9461 C   0  0  0  0  0  0  0  0  0  0  0  0
   40.0885   27.9716   38.2920 C   0  0  0  0  0  0  0  0  0  0  0  0
   39.7605   27.0375   39.2767 C   0  0  0  0  0  0  0  0  0  0  0  0
   39.1468   25.8734   38.9253 N   0  0  0  0  0  0  0  0  0  0  0  0
   38.8726   25.6246   37.6231 C   0  0  0  0  0  0  0  0  0  0  0  0
   39.1820   26.5071   36.6058 C   0  0  0  0  0  0  0  0  0  0  0  0
   40.0268   27.2880   40.6140 N   0  0  0  0  0  0  0  0  0  0  0  0
   39.9851   26.1597   41.5634 C   0  0  0  0  0  0  0  0  0  0  0  0
   39.8540   26.6326   43.0171 C   0  0  0  0  0  0  0  0  0  0  0  0
   40.7675   27.7066   43.2976 O   0  0  0  0  0  0  0  0  0  0  0  0
   40.3569   28.8407   42.5207 C   0  0  0  0  0  0  0  0  0  0  0  0
   40.5880   28.5821   41.0342 C   0  0  0  0  0  0  0  0  0  0  0  0
   46.5259   32.1119   29.3683 H   0  0  0  0  0  0  0  0  0  0  0  0
   48.3559   34.3828   29.7723 H   0  0  0  0  0  0  0  0  0  0  0  0
   47.7211   34.0985   28.1398 H   0  0  0  0  0  0  0  0  0  0  0  0
   48.9256   31.9444   28.0267 H   0  0  0  0  0  0  0  0  0  0  0  0
   50.5011   34.1427   29.6159 H   0  0  0  0  0  0  0  0  0  0  0  0
   51.3231   32.8260   28.7306 H   0  0  0  0  0  0  0  0  0  0  0  0
   50.1162   31.0825   30.2143 H   0  0  0  0  0  0  0  0  0  0  0  0
   49.2905   32.4035   31.0971 H   0  0  0  0  0  0  0  0  0  0  0  0
   45.0507   31.1664   29.9661 H   0  0  0  0  0  0  0  0  0  0  0  0
   42.9954   30.0677   30.7305 H   0  0  0  0  0  0  0  0  0  0  0  0
   44.0551   34.6773   32.2481 H   0  0  0  0  0  0  0  0  0  0  0  0
   41.9818   33.5589   33.0151 H   0  0  0  0  0  0  0  0  0  0  0  0
   39.0528   32.7509   30.1262 H   0  0  0  0  0  0  0  0  0  0  0  0
   40.7043   32.2142   29.7533 H   0  0  0  0  0  0  0  0  0  0  0  0
   40.4229   33.5053   30.9560 H   0  0  0  0  0  0  0  0  0  0  0  0
   41.8754   29.8067   33.8577 H   0  0  0  0  0  0  0  0  0  0  0  0
   37.6105   29.6373   33.2415 H   0  0  0  0  0  0  0  0  0  0  0  0
   37.8209   31.3177   31.4305 H   0  0  0  0  0  0  0  0  0  0  0  0
   38.9168   27.9298   34.4907 H   0  0  0  0  0  0  0  0  0  0  0  0
   40.5958   28.8964   38.5589 H   0  0  0  0  0  0  0  0  0  0  0  0
   38.3849   24.6730   37.3952 H   0  0  0  0  0  0  0  0  0  0  0  0
   38.9661   26.2517   35.5772 H   0  0  0  0  0  0  0  0  0  0  0  0
   40.8931   25.5475   41.4815 H   0  0  0  0  0  0  0  0  0  0  0  0
   39.1190   25.5223   41.3470 H   0  0  0  0  0  0  0  0  0  0  0  0
   40.0643   25.8117   43.7146 H   0  0  0  0  0  0  0  0  0  0  0  0
   38.8316   26.9856   43.2079 H   0  0  0  0  0  0  0  0  0  0  0  0
   40.9257   29.7159   42.8546 H   0  0  0  0  0  0  0  0  0  0  0  0
   39.2922   29.0321   42.7072 H   0  0  0  0  0  0  0  0  0  0  0  0
   40.0894   29.3891   40.4815 H   0  0  0  0  0  0  0  0  0  0  0  0
   41.6634   28.6327   40.8209 H   0  0  0  0  0  0  0  0  0  0  0  0
  1  2  2  0  0  0  0
  2  3  1  0  0  0  0
  2  8  1  0  0  0  0
  3  4  1  0  0  0  0
  3 36  1  0  0  0  0
  4  5  1  0  0  0  0
  4 37  1  0  0  0  0
  4 38  1  0  0  0  0
  5  6  1  0  0  0  0
  5  7  1  0  0  0  0
  5 39  1  0  0  0  0
  6  7  1  0  0  0  0
  6 40  1  0  0  0  0
  6 41  1  0  0  0  0
  7 42  1  0  0  0  0
  7 43  1  0  0  0  0
  8  9  2  0  0  0  0
  8 11  1  0  0  0  0
  9 10  1  0  0  0  0
  9 44  1  0  0  0  0
 10 13  2  0  0  0  0
 10 45  1  0  0  0  0
 11 12  2  0  0  0  0
 11 46  1  0  0  0  0
 12 13  1  0  0  0  0
 12 47  1  0  0  0  0
 13 14  1  0  0  0  0
 14 15  2  0  0  0  0
 14 17  1  0  0  0  0
 15 16  1  0  0  0  0
 15 20  1  0  0  0  0
 16 48  1  0  0  0  0
 16 49  1  0  0  0  0
 16 50  1  0  0  0  0
 17 18  2  0  0  0  0
 17 51  1  0  0  0  0
 18 19  1  0  0  0  0
 18 21  1  0  0  0  0
 19 20  2  0  0  0  0
 19 52  1  0  0  0  0
 20 53  1  0  0  0  0
 21 22  1  0  0  0  0
 21 54  1  0  0  0  0
 22 23  2  0  0  0  0
 22 24  1  0  0  0  0
 24 25  2  0  0  0  0
 24 29  1  0  0  0  0
 25 26  1  0  0  0  0
 25 55  1  0  0  0  0
 26 27  2  0  0  0  0
 26 30  1  0  0  0  0
 27 28  1  0  0  0  0
 28 29  2  0  0  0  0
 28 56  1  0  0  0  0
 29 57  1  0  0  0  0
 30 31  1  0  0  0  0
 30 35  1  0  0  0  0
 31 32  1  0  0  0  0
 31 58  1  0  0  0  0
 31 59  1  0  0  0  0
 32 33  1  0  0  0  0
 32 60  1  0  0  0  0
 32 61  1  0  0  0  0
 33 34  1  0  0  0  0
 34 35  1  0  0  0  0
 34 62  1  0  0  0  0
 34 63  1  0  0  0  0
 35 64  1  0  0  0  0
 35 65  1  0  0  0  0
M  END
$$$$
