GLU
 OpenBabel04091915543D

 18 17  0  0  1  0  0  0  0  0999 V2000
   20.9630   21.2286   16.9387 N   0  3  0  0  0  0  0  0  0  0  0  0
   21.4718   21.4210   18.3604 C   0  0  2  0  0  0  0  0  0  0  0  0
   22.6996   20.5097   18.7060 C   0  0  0  0  0  0  0  0  0  0  0  0
   23.1667   19.8974   17.6918 O   0  0  0  0  0  0  0  0  0  0  0  0
   20.3110   21.1460   19.3095 C   0  0  0  0  0  0  0  0  0  0  0  0
   19.3125   22.3031   19.3837 C   0  0  0  0  0  0  0  0  0  0  0  0
   19.8755   23.5196   20.1409 C   0  0  0  0  0  0  0  0  0  0  0  0
   20.8488   23.2953   20.9019 O   0  0  0  0  0  0  0  0  0  0  0  0
   19.3177   24.6227   19.8755 O   0  0  0  0  0  0  0  0  0  0  0  0
   23.0610   20.4569   19.8798 O   0  0  0  0  0  0  0  0  0  0  0  0
   20.1749   21.8348   16.7536 H   0  0  0  0  0  0  0  0  0  0  0  0
   21.7432   21.4184   16.3028 H   0  0  0  0  0  0  0  0  0  0  0  0
   21.7764   22.4698   18.4265 H   0  0  0  0  0  0  0  0  0  0  0  0
   20.7148   20.9637   20.3101 H   0  0  0  0  0  0  0  0  0  0  0  0
   19.7809   20.2386   18.9906 H   0  0  0  0  0  0  0  0  0  0  0  0
   18.4155   21.9581   19.9155 H   0  0  0  0  0  0  0  0  0  0  0  0
   19.0209   22.6020   18.3694 H   0  0  0  0  0  0  0  0  0  0  0  0
   20.7161   20.2416   16.8245 H   0  0  0  0  0  0  0  0  0  0  0  0
  1  2  1  0  0  0  0
  1 11  1  0  0  0  0
  1 12  1  0  0  0  0
  1 18  1  0  0  0  0
  2  3  1  0  0  0  0
  2  5  1  0  0  0  0
  2 13  1  1  0  0  0
  3  4  2  0  0  0  0
  3 10  1  0  0  0  0
  5  6  1  0  0  0  0
  5 14  1  0  0  0  0
  5 15  1  0  0  0  0
  6  7  1  0  0  0  0
  6 16  1  0  0  0  0
  6 17  1  0  0  0  0
  7  8  2  0  0  0  0
  7  9  1  0  0  0  0
M  CHG  1   1   1
M  END
$$$$
