GLU
 OpenBabel04091912303D

 18 17  0  0  1  0  0  0  0  0999 V2000
   18.4792   44.0385   18.2537 N   0  3  0  0  0  0  0  0  0  0  0  0
   18.0822   42.6794   18.8175 C   0  0  2  0  0  0  0  0  0  0  0  0
   19.1574   41.5819   18.5507 C   0  0  0  0  0  0  0  0  0  0  0  0
   19.1388   40.5988   19.3256 O   0  0  0  0  0  0  0  0  0  0  0  0
   16.7563   42.2312   18.2207 C   0  0  0  0  0  0  0  0  0  0  0  0
   16.8001   42.1622   16.6991 C   0  0  0  0  0  0  0  0  0  0  0  0
   15.6176   41.4773   16.0197 C   0  0  0  0  0  0  0  0  0  0  0  0
   14.8864   40.7672   16.7723 O   0  0  0  0  0  0  0  0  0  0  0  0
   15.4951   41.7499   14.8024 O   0  0  0  0  0  0  0  0  0  0  0  0
   19.9867   41.9451   17.6622 O   0  0  0  0  0  0  0  0  0  0  0  0
   17.7566   44.7437   18.3720 H   0  0  0  0  0  0  0  0  0  0  0  0
   19.3781   44.3011   18.6670 H   0  0  0  0  0  0  0  0  0  0  0  0
   17.9771   42.8299   19.8938 H   0  0  0  0  0  0  0  0  0  0  0  0
   15.9608   42.9196   18.5346 H   0  0  0  0  0  0  0  0  0  0  0  0
   16.4963   41.2502   18.6397 H   0  0  0  0  0  0  0  0  0  0  0  0
   17.6975   41.6142   16.3845 H   0  0  0  0  0  0  0  0  0  0  0  0
   16.8760   43.1798   16.2969 H   0  0  0  0  0  0  0  0  0  0  0  0
   18.6992   43.8806   17.2615 H   0  0  0  0  0  0  0  0  0  0  0  0
  1  2  1  0  0  0  0
  1 11  1  0  0  0  0
  1 12  1  0  0  0  0
  1 18  1  0  0  0  0
  2  3  1  0  0  0  0
  2  5  1  0  0  0  0
  2 13  1  1  0  0  0
  3  4  2  0  0  0  0
  3 10  1  0  0  0  0
  5  6  1  0  0  0  0
  5 14  1  0  0  0  0
  5 15  1  0  0  0  0
  6  7  1  0  0  0  0
  6 16  1  0  0  0  0
  6 17  1  0  0  0  0
  7  8  2  0  0  0  0
  7  9  1  0  0  0  0
M  CHG  1   1   1
M  END
$$$$
