GLU
 OpenBabel04091911303D

 18 17  0  0  1  0  0  0  0  0999 V2000
   20.8447   20.6692   13.3639 N   0  3  0  0  0  0  0  0  0  0  0  0
   20.5606   19.3372   14.0702 C   0  0  2  0  0  0  0  0  0  0  0  0
   19.0357   19.0298   14.1378 C   0  0  0  0  0  0  0  0  0  0  0  0
   18.6455   18.0079   14.7356 O   0  0  0  0  0  0  0  0  0  0  0  0
   21.1541   19.4151   15.4721 C   0  0  0  0  0  0  0  0  0  0  0  0
   22.6712   19.3038   15.4953 C   0  0  0  0  0  0  0  0  0  0  0  0
   23.1954   17.8937   15.2369 C   0  0  0  0  0  0  0  0  0  0  0  0
   24.4208   17.8458   14.9208 O   0  0  0  0  0  0  0  0  0  0  0  0
   22.3658   16.9506   15.3250 O   0  0  0  0  0  0  0  0  0  0  0  0
   18.3714   19.9563   13.5278 O   0  0  0  0  0  0  0  0  0  0  0  0
   21.8466   20.8716   13.3068 H   0  0  0  0  0  0  0  0  0  0  0  0
   20.4003   20.6111   12.4413 H   0  0  0  0  0  0  0  0  0  0  0  0
   21.0524   18.5826   13.4550 H   0  0  0  0  0  0  0  0  0  0  0  0
   20.7333   18.6131   16.0840 H   0  0  0  0  0  0  0  0  0  0  0  0
   20.8582   20.3589   15.9502 H   0  0  0  0  0  0  0  0  0  0  0  0
   23.0357   19.6171   16.4860 H   0  0  0  0  0  0  0  0  0  0  0  0
   23.1258   19.9909   14.7650 H   0  0  0  0  0  0  0  0  0  0  0  0
   20.3130   21.3915   13.8596 H   0  0  0  0  0  0  0  0  0  0  0  0
  1  2  1  0  0  0  0
  1 11  1  0  0  0  0
  1 12  1  0  0  0  0
  1 18  1  0  0  0  0
  2  3  1  0  0  0  0
  2  5  1  0  0  0  0
  2 13  1  6  0  0  0
  3  4  2  0  0  0  0
  3 10  1  0  0  0  0
  5  6  1  0  0  0  0
  5 14  1  0  0  0  0
  5 15  1  0  0  0  0
  6  7  1  0  0  0  0
  6 16  1  0  0  0  0
  6 17  1  0  0  0  0
  7  8  2  0  0  0  0
  7  9  1  0  0  0  0
M  CHG  1   1   1
M  END
$$$$
