GLU
 OpenBabel04091912333D

 18 17  0  0  1  0  0  0  0  0999 V2000
    5.9857  -13.8969   18.3934 N   0  3  0  0  0  0  0  0  0  0  0  0
    5.5923  -15.2835   18.9131 C   0  0  2  0  0  0  0  0  0  0  0  0
    4.0750  -15.5410   18.7326 C   0  0  0  0  0  0  0  0  0  0  0  0
    3.5629  -16.5764   19.2414 O   0  0  0  0  0  0  0  0  0  0  0  0
    5.9958  -15.3706   20.3823 C   0  0  0  0  0  0  0  0  0  0  0  0
    7.4948  -15.6023   20.5865 C   0  0  0  0  0  0  0  0  0  0  0  0
    7.9979  -16.9925   20.1573 C   0  0  0  0  0  0  0  0  0  0  0  0
    9.2438  -17.0699   19.9795 O   0  0  0  0  0  0  0  0  0  0  0  0
    7.1081  -17.8684   19.9623 O   0  0  0  0  0  0  0  0  0  0  0  0
    3.5194  -14.5886   18.0896 O   0  0  0  0  0  0  0  0  0  0  0  0
    6.9907  -13.7179   18.5010 H   0  0  0  0  0  0  0  0  0  0  0  0
    5.6754  -13.8590   17.4179 H   0  0  0  0  0  0  0  0  0  0  0  0
    6.1586  -15.9892   18.3045 H   0  0  0  0  0  0  0  0  0  0  0  0
    5.4488  -16.1894   20.8558 H   0  0  0  0  0  0  0  0  0  0  0  0
    5.7004  -14.4471   20.9014 H   0  0  0  0  0  0  0  0  0  0  0  0
    7.7111  -15.4857   21.6562 H   0  0  0  0  0  0  0  0  0  0  0  0
    8.0621  -14.8282   20.0579 H   0  0  0  0  0  0  0  0  0  0  0  0
    5.3994  -13.2134   18.8813 H   0  0  0  0  0  0  0  0  0  0  0  0
  1  2  1  0  0  0  0
  1 11  1  0  0  0  0
  1 12  1  0  0  0  0
  1 18  1  0  0  0  0
  2  3  1  0  0  0  0
  2  5  1  0  0  0  0
  2 13  1  6  0  0  0
  3  4  2  0  0  0  0
  3 10  1  0  0  0  0
  5  6  1  0  0  0  0
  5 14  1  0  0  0  0
  5 15  1  0  0  0  0
  6  7  1  0  0  0  0
  6 16  1  0  0  0  0
  6 17  1  0  0  0  0
  7  8  2  0  0  0  0
  7  9  1  0  0  0  0
M  CHG  1   1   1
M  END
$$$$
