GLU
 OpenBabel04091915143D

 18 17  0  0  1  0  0  0  0  0999 V2000
    3.9656  -30.6244  -13.6526 N   0  3  0  0  0  0  0  0  0  0  0  0
    2.5772  -30.0123  -13.8598 C   0  0  2  0  0  0  0  0  0  0  0  0
    1.4366  -31.0702  -13.6530 C   0  0  0  0  0  0  0  0  0  0  0  0
    0.2687  -30.7449  -13.9962 O   0  0  0  0  0  0  0  0  0  0  0  0
    2.5480  -29.4073  -15.2549 C   0  0  0  0  0  0  0  0  0  0  0  0
    3.3114  -28.0871  -15.3500 C   0  0  0  0  0  0  0  0  0  0  0  0
    2.5724  -26.8983  -14.7267 C   0  0  0  0  0  0  0  0  0  0  0  0
    1.3739  -27.0813  -14.4116 O   0  0  0  0  0  0  0  0  0  0  0  0
    3.3103  -25.8788  -14.5523 O   0  0  0  0  0  0  0  0  0  0  0  0
    1.8913  -32.1614  -13.1976 O   0  0  0  0  0  0  0  0  0  0  0  0
    4.7052  -29.9326  -13.7625 H   0  0  0  0  0  0  0  0  0  0  0  0
    3.9500  -31.0434  -12.7106 H   0  0  0  0  0  0  0  0  0  0  0  0
    2.4938  -29.2533  -13.0808 H   0  0  0  0  0  0  0  0  0  0  0  0
    1.5139  -29.2428  -15.5632 H   0  0  0  0  0  0  0  0  0  0  0  0
    2.9805  -30.1089  -15.9853 H   0  0  0  0  0  0  0  0  0  0  0  0
    3.4761  -27.8505  -16.4066 H   0  0  0  0  0  0  0  0  0  0  0  0
    4.2938  -28.1708  -14.8730 H   0  0  0  0  0  0  0  0  0  0  0  0
    4.0493  -31.4170  -14.2914 H   0  0  0  0  0  0  0  0  0  0  0  0
  1  2  1  0  0  0  0
  1 11  1  0  0  0  0
  1 12  1  0  0  0  0
  1 18  1  0  0  0  0
  2  3  1  0  0  0  0
  2  5  1  0  0  0  0
  2 13  1  1  0  0  0
  3  4  2  0  0  0  0
  3 10  1  0  0  0  0
  5  6  1  0  0  0  0
  5 14  1  0  0  0  0
  5 15  1  0  0  0  0
  6  7  1  0  0  0  0
  6 16  1  0  0  0  0
  6 17  1  0  0  0  0
  7  8  2  0  0  0  0
  7  9  1  0  0  0  0
M  CHG  1   1   1
M  END
$$$$
