GLU
 OpenBabel04091913363D

 18 17  0  0  1  0  0  0  0  0999 V2000
   22.4164   -4.0979   12.0464 N   0  3  0  0  0  0  0  0  0  0  0  0
   21.4634   -4.6576   11.0177 C   0  0  2  0  0  0  0  0  0  0  0  0
   21.2845   -3.7083    9.7870 C   0  0  0  0  0  0  0  0  0  0  0  0
   22.0094   -2.6633    9.8999 O   0  0  0  0  0  0  0  0  0  0  0  0
   20.1409   -4.9871   11.7047 C   0  0  0  0  0  0  0  0  0  0  0  0
   20.2863   -6.0103   12.8243 C   0  0  0  0  0  0  0  0  0  0  0  0
   19.1395   -5.9465   13.8298 C   0  0  0  0  0  0  0  0  0  0  0  0
   18.4995   -7.0218   13.9718 O   0  0  0  0  0  0  0  0  0  0  0  0
   19.0458   -4.8440   14.4388 O   0  0  0  0  0  0  0  0  0  0  0  0
   20.5503   -4.0969    8.8510 O   0  0  0  0  0  0  0  0  0  0  0  0
   22.5427   -4.6965   12.8588 H   0  0  0  0  0  0  0  0  0  0  0  0
   23.2960   -3.8815   11.5672 H   0  0  0  0  0  0  0  0  0  0  0  0
   21.9313   -5.5891   10.6641 H   0  0  0  0  0  0  0  0  0  0  0  0
   19.4317   -5.3792   10.9679 H   0  0  0  0  0  0  0  0  0  0  0  0
   19.6940   -4.0466   12.0811 H   0  0  0  0  0  0  0  0  0  0  0  0
   21.1986   -5.8626   13.4036 H   0  0  0  0  0  0  0  0  0  0  0  0
   20.3566   -7.0164   12.3928 H   0  0  0  0  0  0  0  0  0  0  0  0
   22.0285   -3.1842   12.3233 H   0  0  0  0  0  0  0  0  0  0  0  0
  1  2  1  0  0  0  0
  1 11  1  0  0  0  0
  1 12  1  0  0  0  0
  1 18  1  0  0  0  0
  2  3  1  0  0  0  0
  2  5  1  0  0  0  0
  2 13  1  6  0  0  0
  3  4  2  0  0  0  0
  3 10  1  0  0  0  0
  5  6  1  0  0  0  0
  5 14  1  0  0  0  0
  5 15  1  0  0  0  0
  6  7  1  0  0  0  0
  6 16  1  0  0  0  0
  6 17  1  0  0  0  0
  7  8  2  0  0  0  0
  7  9  1  0  0  0  0
M  CHG  1   1   1
M  END
$$$$
