GNP
 OpenBabel04091914483D

 45 47  0  0  1  0  0  0  0  0999 V2000
   -4.4111  -16.0438    1.3439 P   0  0  0  0  0  0  0  0  0  0  0  0
   -3.8388  -16.1075   -0.0702 O   0  0  0  0  0  0  0  0  0  0  0  0
   -5.5158  -17.0458    1.6167 O   0  0  0  0  0  0  0  0  0  0  0  0
   -4.7059  -14.6155    1.7545 O   0  0  0  0  0  0  0  0  0  0  0  0
   -3.1956  -16.6650    2.3261 N   0  0  0  0  0  0  0  0  0  0  0  0
   -1.9891  -15.6373    2.8795 P   0  0  1  0  0  0  0  0  0  0  0  0
   -0.8414  -15.6655    1.8685 O   0  0  0  0  0  0  0  0  0  0  0  0
   -2.5022  -14.3513    3.4480 O   0  0  0  0  0  0  0  0  0  0  0  0
   -1.4036  -16.5412    4.1031 O   0  0  0  0  0  0  0  0  0  0  0  0
   -1.9322  -16.0754    5.5516 P   0  0  2  0  0  0  0  0  0  0  0  0
   -3.4417  -16.0682    5.6267 O   0  0  0  0  0  0  0  0  0  0  0  0
   -1.0493  -14.9872    6.1562 O   0  0  0  0  0  0  0  0  0  0  0  0
   -1.5057  -17.4312    6.4134 O   0  0  0  0  0  0  0  0  0  0  0  0
   -2.0225  -18.6678    5.9483 C   0  0  0  0  0  0  0  0  0  0  0  0
   -1.8602  -19.7205    7.0371 C   0  0  1  0  0  0  0  0  0  0  0  0
   -0.4547  -20.0833    7.1753 O   0  0  0  0  0  0  0  0  0  0  0  0
   -2.3404  -19.2902    8.4196 C   0  0  1  0  0  0  0  0  0  0  0  0
   -2.8894  -20.4565    9.0997 O   0  0  0  0  0  0  0  0  0  0  0  0
   -1.0673  -18.8614    9.1283 C   0  0  1  0  0  0  0  0  0  0  0  0
   -1.1606  -19.0184   10.5565 O   0  0  0  0  0  0  0  0  0  0  0  0
   -0.0644  -19.8190    8.5205 C   0  0  2  0  0  0  0  0  0  0  0  0
    1.2959  -19.3439    8.5294 N   0  3  0  0  0  0  0  0  0  0  0  0
    1.7802  -18.1820    7.9824 C   0  0  0  0  0  0  0  0  0  0  0  0
    3.0826  -18.0468    8.1678 N   0  0  0  0  0  0  0  0  0  0  0  0
    3.4516  -19.1663    8.8411 C   0  0  0  0  0  0  0  0  0  0  0  0
    4.7723  -19.5782    9.3163 C   0  0  0  0  0  0  0  0  0  0  0  0
    5.8196  -18.9697    9.1937 O   0  0  0  0  0  0  0  0  0  0  0  0
    4.6959  -20.8075    9.9705 N   0  3  0  0  0  0  0  0  0  0  0  0
    3.5766  -21.6040   10.1892 C   0  0  0  0  0  0  0  0  0  0  0  0
    3.7354  -22.6763   10.8078 N   0  0  0  0  0  0  0  0  0  0  0  0
    2.3673  -21.1495    9.7165 N   0  3  0  0  0  0  0  0  0  0  0  0
    2.3564  -19.9791    9.0764 C   0  0  0  0  0  0  0  0  0  0  0  0
   -3.2663  -17.5782    2.6628 H   0  0  0  0  0  0  0  0  0  0  0  0
   -1.4508  -18.9762    5.0694 H   0  0  0  0  0  0  0  0  0  0  0  0
   -3.0828  -18.5834    5.6929 H   0  0  0  0  0  0  0  0  0  0  0  0
   -2.3933  -20.6235    6.7233 H   0  0  0  0  0  0  0  0  0  0  0  0
   -3.0963  -18.5023    8.3837 H   0  0  0  0  0  0  0  0  0  0  0  0
   -3.2171  -20.1416    9.9571 H   0  0  0  0  0  0  0  0  0  0  0  0
   -0.8224  -17.8238    8.8972 H   0  0  0  0  0  0  0  0  0  0  0  0
   -1.3097  -19.9620   10.7278 H   0  0  0  0  0  0  0  0  0  0  0  0
   -0.1025  -20.7785    9.0712 H   0  0  0  0  0  0  0  0  0  0  0  0
    1.1467  -17.4691    7.4682 H   0  0  0  0  0  0  0  0  0  0  0  0
    5.5809  -21.1569   10.3234 H   0  0  0  0  0  0  0  0  0  0  0  0
    2.8259  -23.1778   10.9056 H   0  0  0  0  0  0  0  0  0  0  0  0
    1.5459  -21.7269    9.8618 H   0  0  0  0  0  0  0  0  0  0  0  0
  1  2  2  0  0  0  0
  1  3  1  0  0  0  0
  1  4  1  0  0  0  0
  1  5  1  0  0  0  0
  5 33  1  0  0  0  0
  6  5  1  6  0  0  0
  6  7  2  0  0  0  0
  6  8  1  0  0  0  0
  6  9  1  0  0  0  0
 10  9  1  6  0  0  0
 10 11  2  0  0  0  0
 10 12  1  0  0  0  0
 10 13  1  0  0  0  0
 13 14  1  0  0  0  0
 14 15  1  0  0  0  0
 14 34  1  0  0  0  0
 14 35  1  0  0  0  0
 15 16  1  0  0  0  0
 15 17  1  0  0  0  0
 15 36  1  6  0  0  0
 16 21  1  0  0  0  0
 17 18  1  0  0  0  0
 17 19  1  0  0  0  0
 17 37  1  6  0  0  0
 18 38  1  0  0  0  0
 19 20  1  0  0  0  0
 19 21  1  0  0  0  0
 19 39  1  6  0  0  0
 20 40  1  0  0  0  0
 21 22  1  0  0  0  0
 21 41  1  1  0  0  0
 22 23  2  0  0  0  0
 22 32  1  0  0  0  0
 23 24  1  0  0  0  0
 23 42  1  0  0  0  0
 24 25  2  0  0  0  0
 25 26  1  0  0  0  0
 25 32  1  0  0  0  0
 26 27  2  0  0  0  0
 26 28  1  0  0  0  0
 28 29  1  0  0  0  0
 28 43  1  0  0  0  0
 29 30  2  0  0  0  0
 29 31  1  0  0  0  0
 30 44  1  0  0  0  0
 31 32  2  0  0  0  0
 31 45  1  0  0  0  0
M  CHG  3  22   1  28   1  31   1
M  END
$$$$
