GOO
 OpenBabel04091911333D

 25 25  0  0  1  0  0  0  0  0999 V2000
   28.8921   65.9921    6.3033 C   0  0  0  0  0  0  0  0  0  0  0  0
   29.4207   66.0998    7.6179 O   0  0  0  0  0  0  0  0  0  0  0  0
   30.8441   65.9788    7.6518 C   0  0  1  0  0  0  0  0  0  0  0  0
   31.6204   67.2074    7.1497 C   0  0  2  0  0  0  0  0  0  0  0  0
   31.6258   67.3030    5.7378 O   0  0  0  0  0  0  0  0  0  0  0  0
   33.0236   66.9551    7.7382 C   0  0  2  0  0  0  0  0  0  0  0  0
   33.6847   65.9377    6.9858 O   0  0  0  0  0  0  0  0  0  0  0  0
   32.7357   66.4387    9.1623 C   0  0  2  0  0  0  0  0  0  0  0  0
   33.5759   65.3476    9.5591 O   0  0  0  0  0  0  0  0  0  0  0  0
   31.2686   65.9766    9.1264 C   0  0  2  0  0  0  0  0  0  0  0  0
   31.1120   64.6366    9.7534 N   0  3  0  0  0  0  0  0  0  0  0  0
   27.8045   66.1195    6.3617 H   0  0  0  0  0  0  0  0  0  0  0  0
   29.1010   65.0049    5.8789 H   0  0  0  0  0  0  0  0  0  0  0  0
   29.2767   66.7765    5.6448 H   0  0  0  0  0  0  0  0  0  0  0  0
   31.1459   65.0586    7.1315 H   0  0  0  0  0  0  0  0  0  0  0  0
   31.1707   68.1233    7.5515 H   0  0  0  0  0  0  0  0  0  0  0  0
   32.1628   68.0711    5.4749 H   0  0  0  0  0  0  0  0  0  0  0  0
   33.6395   67.8589    7.7222 H   0  0  0  0  0  0  0  0  0  0  0  0
   34.6052   65.8568    7.2920 H   0  0  0  0  0  0  0  0  0  0  0  0
   32.8445   67.2428    9.8968 H   0  0  0  0  0  0  0  0  0  0  0  0
   34.5038   65.6551    9.5474 H   0  0  0  0  0  0  0  0  0  0  0  0
   30.6341   66.6569    9.7079 H   0  0  0  0  0  0  0  0  0  0  0  0
   31.3560   64.6671   10.7450 H   0  0  0  0  0  0  0  0  0  0  0  0
   30.1610   64.2681    9.6412 H   0  0  0  0  0  0  0  0  0  0  0  0
   31.7900   63.9887    9.3268 H   0  0  0  0  0  0  0  0  0  0  0  0
  1  2  1  0  0  0  0
  1 12  1  0  0  0  0
  1 13  1  0  0  0  0
  1 14  1  0  0  0  0
  2  3  1  0  0  0  0
  3  4  1  0  0  0  0
  3 10  1  0  0  0  0
  3 15  1  6  0  0  0
  4  5  1  0  0  0  0
  4  6  1  0  0  0  0
  4 16  1  1  0  0  0
  5 17  1  0  0  0  0
  6  7  1  0  0  0  0
  6  8  1  0  0  0  0
  6 18  1  1  0  0  0
  7 19  1  0  0  0  0
  8  9  1  0  0  0  0
  8 10  1  0  0  0  0
  8 20  1  1  0  0  0
  9 21  1  0  0  0  0
 10 11  1  0  0  0  0
 10 22  1  1  0  0  0
 11 23  1  0  0  0  0
 11 24  1  0  0  0  0
 11 25  1  0  0  0  0
M  CHG  1  11   1
M  END
$$$$
