GOX
 OpenBabel04091911223D

 26 26  0  0  1  0  0  0  0  0999 V2000
   30.7807   65.8402    9.7273 C   0  0  0  0  0  0  0  0  0  0  0  0
   30.6864   65.7624   11.0414 N   0  3  0  0  0  0  0  0  0  0  0  0
   31.9532   65.2210    9.0369 C   0  0  2  0  0  0  0  0  0  0  0  0
   29.8751   66.4478    8.9890 N   0  0  0  0  0  0  0  0  0  0  0  0
   29.5929   66.4163   11.6162 O   0  0  0  0  0  0  0  0  0  0  0  0
   32.9707   64.9154   10.0017 O   0  0  0  0  0  0  0  0  0  0  0  0
   32.4056   66.1675    7.9116 C   0  0  1  0  0  0  0  0  0  0  0  0
   33.5552   65.6093    7.2829 O   0  0  0  0  0  0  0  0  0  0  0  0
   31.2555   66.2737    6.8877 C   0  0  2  0  0  0  0  0  0  0  0  0
   31.5720   67.2590    5.9207 O   0  0  0  0  0  0  0  0  0  0  0  0
   29.9383   66.6820    7.5375 C   0  0  1  0  0  0  0  0  0  0  0  0
   28.7511   65.9677    6.8581 C   0  0  0  0  0  0  0  0  0  0  0  0
   27.5404   66.3766    7.4938 O   0  0  0  0  0  0  0  0  0  0  0  0
   31.6428   64.2704    8.5957 H   0  0  0  0  0  0  0  0  0  0  0  0
   29.0447   66.7689    9.4911 H   0  0  0  0  0  0  0  0  0  0  0  0
   29.6894   66.2740   12.5808 H   0  0  0  0  0  0  0  0  0  0  0  0
   33.4999   65.7159   10.1762 H   0  0  0  0  0  0  0  0  0  0  0  0
   32.6906   67.1528    8.2992 H   0  0  0  0  0  0  0  0  0  0  0  0
   33.8933   66.2141    6.5976 H   0  0  0  0  0  0  0  0  0  0  0  0
   31.1646   65.3102    6.3709 H   0  0  0  0  0  0  0  0  0  0  0  0
   32.3058   66.9261    5.3472 H   0  0  0  0  0  0  0  0  0  0  0  0
   29.7734   67.7596    7.4071 H   0  0  0  0  0  0  0  0  0  0  0  0
   28.8329   64.8794    6.9614 H   0  0  0  0  0  0  0  0  0  0  0  0
   28.7059   66.2083    5.7924 H   0  0  0  0  0  0  0  0  0  0  0  0
   27.4064   67.3254    7.3107 H   0  0  0  0  0  0  0  0  0  0  0  0
   31.3784   65.2749   11.6157 H   0  0  0  0  0  0  0  0  0  0  0  0
  1  2  2  0  0  0  0
  1  3  1  0  0  0  0
  1  4  1  0  0  0  0
  2  5  1  0  0  0  0
  2 26  1  0  0  0  0
  3  6  1  0  0  0  0
  3  7  1  0  0  0  0
  3 14  1  6  0  0  0
  4 11  1  0  0  0  0
  4 15  1  0  0  0  0
  5 16  1  0  0  0  0
  6 17  1  0  0  0  0
  7  8  1  0  0  0  0
  7  9  1  0  0  0  0
  7 18  1  1  0  0  0
  8 19  1  0  0  0  0
  9 10  1  0  0  0  0
  9 11  1  0  0  0  0
  9 20  1  6  0  0  0
 10 21  1  0  0  0  0
 11 12  1  0  0  0  0
 11 22  1  6  0  0  0
 12 13  1  0  0  0  0
 12 23  1  0  0  0  0
 12 24  1  0  0  0  0
 13 25  1  0  0  0  0
M  CHG  1   2   1
M  END
$$$$
