GPR
 OpenBabel04091912473D

 61 63  0  0  1  0  0  0  0  0999 V2000
   14.5992   14.7460   25.1310 N   0  3  0  0  0  0  0  0  0  0  0  0
   14.1477   15.4328   26.4010 C   0  0  2  0  0  0  0  0  0  0  0  0
   13.1331   16.5672   26.1298 C   0  0  0  0  0  0  0  0  0  0  0  0
   12.4033   16.8875   27.0964 O   0  0  0  0  0  0  0  0  0  0  0  0
   13.1684   16.9290   24.9160 O   0  0  0  0  0  0  0  0  0  0  0  0
   15.3501   16.0495   27.1182 C   0  0  0  0  0  0  0  0  0  0  0  0
   15.7577   15.1116   28.2452 C   0  0  0  0  0  0  0  0  0  0  0  0
   16.7923   15.6875   29.1700 C   0  0  0  0  0  0  0  0  0  0  0  0
   17.9865   15.6170   28.8922 O   0  0  0  0  0  0  0  0  0  0  0  0
   16.2897   16.2792   30.2980 N   0  0  0  0  0  0  0  0  0  0  0  0
   17.1744   16.9233   31.2721 C   0  0  2  0  0  0  0  0  0  0  0  0
   16.9974   16.4309   32.7037 C   0  0  0  0  0  0  0  0  0  0  0  0
   17.5585   16.9976   33.6369 O   0  0  0  0  0  0  0  0  0  0  0  0
   16.9563   18.4387   31.3319 C   0  0  0  0  0  0  0  0  0  0  0  0
   17.2172   19.2068   29.7276 S   0  0  0  0  0  0  0  0  0  0  0  0
   16.1358   15.3721   32.8318 N   0  0  0  0  0  0  0  0  0  0  0  0
   15.8970   14.7729   34.1511 C   0  0  0  0  0  0  0  0  0  0  0  0
   16.6882   13.4907   34.5109 C   0  0  0  0  0  0  0  0  0  0  0  0
   17.4923   13.0745   33.6210 O   0  0  0  0  0  0  0  0  0  0  0  0
   16.3815   12.9815   35.6204 O   0  0  0  0  0  0  0  0  0  0  0  0
   19.0484   19.1146   29.8144 C   0  0  2  0  0  0  0  0  0  0  0  0
   19.5662   20.4441   30.3148 C   0  0  0  0  0  0  0  0  0  0  0  0
   19.7072   20.6804   31.6958 C   0  0  0  0  0  0  0  0  0  0  0  0
   20.1106   21.9187   32.1670 C   0  0  0  0  0  0  0  0  0  0  0  0
   20.3828   22.9283   31.2526 C   0  0  0  0  0  0  0  0  0  0  0  0
   20.2405   22.7002   29.8821 C   0  0  0  0  0  0  0  0  0  0  0  0
   19.8311   21.4652   29.3767 C   0  0  0  0  0  0  0  0  0  0  0  0
   19.6501   21.1898   27.9260 C   0  0  0  0  0  0  0  0  0  0  0  0
   19.5509   22.2135   26.9702 C   0  0  0  0  0  0  0  0  0  0  0  0
   19.3379   21.9162   25.6244 C   0  0  0  0  0  0  0  0  0  0  0  0
   19.2055   20.6059   25.1941 C   0  0  0  0  0  0  0  0  0  0  0  0
   19.3264   19.5620   26.1157 C   0  0  0  0  0  0  0  0  0  0  0  0
   19.5318   19.8566   27.4655 C   0  0  0  0  0  0  0  0  0  0  0  0
   19.6056   18.7157   28.4415 C   0  0  1  0  0  0  0  0  0  0  0  0
   20.9741   18.3140   28.5576 O   0  0  0  0  0  0  0  0  0  0  0  0
   13.7604   14.3606   24.6801 H   0  0  0  0  0  0  0  0  0  0  0  0
   14.8790   15.5092   24.4933 H   0  0  0  0  0  0  0  0  0  0  0  0
   13.6624   14.6462   26.9891 H   0  0  0  0  0  0  0  0  0  0  0  0
   15.1136   17.0430   27.5228 H   0  0  0  0  0  0  0  0  0  0  0  0
   16.1914   16.2077   26.4284 H   0  0  0  0  0  0  0  0  0  0  0  0
   16.1728   14.1918   27.8219 H   0  0  0  0  0  0  0  0  0  0  0  0
   14.8799   14.8337   28.8399 H   0  0  0  0  0  0  0  0  0  0  0  0
   15.2961   16.2944   30.4970 H   0  0  0  0  0  0  0  0  0  0  0  0
   18.2080   16.6763   31.0135 H   0  0  0  0  0  0  0  0  0  0  0  0
   17.6624   18.8863   32.0358 H   0  0  0  0  0  0  0  0  0  0  0  0
   15.9619   18.7184   31.6881 H   0  0  0  0  0  0  0  0  0  0  0  0
   16.0655   14.7401   32.0433 H   0  0  0  0  0  0  0  0  0  0  0  0
   14.8296   14.5422   34.1669 H   0  0  0  0  0  0  0  0  0  0  0  0
   16.0987   15.5316   34.9128 H   0  0  0  0  0  0  0  0  0  0  0  0
   19.3770   18.3465   30.5216 H   0  0  0  0  0  0  0  0  0  0  0  0
   19.4859   19.8978   32.4290 H   0  0  0  0  0  0  0  0  0  0  0  0
   20.2101   22.1012   33.2339 H   0  0  0  0  0  0  0  0  0  0  0  0
   20.7020   23.9048   31.6101 H   0  0  0  0  0  0  0  0  0  0  0  0
   20.4659   23.5294   29.2124 H   0  0  0  0  0  0  0  0  0  0  0  0
   19.6099   23.2548   27.2587 H   0  0  0  0  0  0  0  0  0  0  0  0
   19.2549   22.7347   24.9043 H   0  0  0  0  0  0  0  0  0  0  0  0
   19.0419   20.3801   24.1567 H   0  0  0  0  0  0  0  0  0  0  0  0
   19.2241   18.5360   25.7808 H   0  0  0  0  0  0  0  0  0  0  0  0
   19.0554   17.8431   28.0640 H   0  0  0  0  0  0  0  0  0  0  0  0
   21.4451   19.0833   28.9245 H   0  0  0  0  0  0  0  0  0  0  0  0
   15.3250   14.0406   25.2523 H   0  0  0  0  0  0  0  0  0  0  0  0
  1  2  1  0  0  0  0
  1 36  1  0  0  0  0
  1 37  1  0  0  0  0
  1 61  1  0  0  0  0
  2  6  1  0  0  0  0
  2  3  1  0  0  0  0
  2 38  1  1  0  0  0
  3  5  2  0  0  0  0
  3  4  1  0  0  0  0
  6  7  1  0  0  0  0
  6 39  1  0  0  0  0
  6 40  1  0  0  0  0
  7  8  1  0  0  0  0
  7 41  1  0  0  0  0
  7 42  1  0  0  0  0
  8 10  1  0  0  0  0
  8  9  2  0  0  0  0
 10 11  1  0  0  0  0
 10 43  1  0  0  0  0
 11 14  1  0  0  0  0
 11 12  1  0  0  0  0
 11 44  1  6  0  0  0
 12 16  1  0  0  0  0
 12 13  2  0  0  0  0
 14 15  1  0  0  0  0
 14 45  1  0  0  0  0
 14 46  1  0  0  0  0
 15 21  1  0  0  0  0
 16 17  1  0  0  0  0
 16 47  1  0  0  0  0
 17 18  1  0  0  0  0
 17 48  1  0  0  0  0
 17 49  1  0  0  0  0
 18 20  2  0  0  0  0
 18 19  1  0  0  0  0
 21 22  1  0  0  0  0
 21 34  1  0  0  0  0
 21 50  1  1  0  0  0
 22 27  1  0  0  0  0
 22 23  2  0  0  0  0
 23 24  1  0  0  0  0
 23 51  1  0  0  0  0
 24 25  2  0  0  0  0
 24 52  1  0  0  0  0
 25 26  1  0  0  0  0
 25 53  1  0  0  0  0
 26 27  2  0  0  0  0
 26 54  1  0  0  0  0
 27 28  1  0  0  0  0
 28 33  1  0  0  0  0
 28 29  2  0  0  0  0
 29 30  1  0  0  0  0
 29 55  1  0  0  0  0
 30 31  2  0  0  0  0
 30 56  1  0  0  0  0
 31 32  1  0  0  0  0
 31 57  1  0  0  0  0
 32 33  2  0  0  0  0
 32 58  1  0  0  0  0
 33 34  1  0  0  0  0
 34 35  1  0  0  0  0
 34 59  1  6  0  0  0
 35 60  1  0  0  0  0
M  CHG  1   1   1
M  END
$$$$
