GR6
 OpenBabel04091913063D

 86 90  0  0  1  0  0  0  0  0999 V2000
   12.2940  -24.8807   -3.0266 C   0  0  0  0  0  0  0  0  0  0  0  0
   12.3022  -24.6327   -4.3998 C   0  0  0  0  0  0  0  0  0  0  0  0
   13.3143  -23.8640   -4.9854 C   0  0  0  0  0  0  0  0  0  0  0  0
   14.3152  -23.3281   -4.1604 C   0  0  0  0  0  0  0  0  0  0  0  0
   14.3051  -23.5725   -2.7793 C   0  0  0  0  0  0  0  0  0  0  0  0
   13.2928  -24.3443   -2.2139 C   0  0  0  0  0  0  0  0  0  0  0  0
   15.7582  -22.5198   -4.8268 S   0  0  0  0  0  0  0  0  0  0  0  0
   16.6856  -22.3659   -3.6961 O   0  0  0  0  0  0  0  0  0  0  0  0
   16.1699  -23.1984   -6.0003 O   0  0  0  0  0  0  0  0  0  0  0  0
   15.3244  -20.9608   -5.2635 N   0  0  0  0  0  0  0  0  0  0  0  0
   14.7861  -20.7109   -6.6244 C   0  0  0  0  0  0  0  0  0  0  0  0
   15.8873  -20.5609   -7.6815 C   0  0  0  0  0  0  0  0  0  0  0  0
   15.3930  -19.9820   -9.0106 C   0  0  0  0  0  0  0  0  0  0  0  0
   14.4275  -20.8251   -9.8611 C   0  0  0  0  0  0  0  0  0  0  0  0
   15.1967  -19.9326   -4.2334 C   0  0  0  0  0  0  0  0  0  0  0  0
   16.1613  -18.7895   -4.5490 C   0  0  1  0  0  0  0  0  0  0  0  0
   15.7837  -17.6364   -3.7828 O   0  0  0  0  0  0  0  0  0  0  0  0
   17.6500  -19.1361   -4.3132 C   0  0  1  0  0  0  0  0  0  0  0  0
   18.4624  -18.0644   -4.9005 N   0  0  0  0  0  0  0  0  0  0  0  0
   19.1835  -18.2440   -6.0375 C   0  0  0  0  0  0  0  0  0  0  0  0
   19.3349  -19.2992   -6.6387 O   0  0  0  0  0  0  0  0  0  0  0  0
   19.7225  -17.0672   -6.3925 O   0  0  0  0  0  0  0  0  0  0  0  0
   20.7311  -17.0454   -7.4235 C   0  0  1  0  0  0  0  0  0  0  0  0
   20.4367  -15.7984   -8.2345 C   0  0  0  0  0  0  0  0  0  0  0  0
   20.9667  -14.7029   -7.4679 O   0  0  0  0  0  0  0  0  0  0  0  0
   22.1026  -15.1894   -6.7393 C   0  0  1  0  0  0  0  0  0  0  0  0
   21.9965  -14.7999   -5.3605 O   0  0  0  0  0  0  0  0  0  0  0  0
   21.8066  -15.9656   -4.5554 C   0  0  0  0  0  0  0  0  0  0  0  0
   22.3207  -17.1307   -5.3718 C   0  0  0  0  0  0  0  0  0  0  0  0
   22.0979  -16.7139   -6.8102 C   0  0  1  0  0  0  0  0  0  0  0  0
   18.0024  -19.2639   -2.8267 C   0  0  0  0  0  0  0  0  0  0  0  0
   20.2934  -18.4657   -2.1322 C   0  0  0  0  0  0  0  0  0  0  0  0
   21.6721  -18.6401   -2.0311 C   0  0  0  0  0  0  0  0  0  0  0  0
   22.2482  -19.8251   -2.4884 C   0  0  0  0  0  0  0  0  0  0  0  0
   21.4584  -20.8323   -3.0473 C   0  0  0  0  0  0  0  0  0  0  0  0
   20.0812  -20.6569   -3.1445 C   0  0  0  0  0  0  0  0  0  0  0  0
   19.4901  -19.4768   -2.6754 C   0  0  0  0  0  0  0  0  0  0  0  0
   11.3315  -25.6239   -2.3957 O   0  0  0  0  0  0  0  0  0  0  0  0
   10.5359  -26.4297   -3.2654 C   0  0  0  0  0  0  0  0  0  0  0  0
   13.3507  -23.6241   -6.3268 O   0  0  0  0  0  0  0  0  0  0  0  0
   12.2773  -24.1259   -7.1274 C   0  0  0  0  0  0  0  0  0  0  0  0
   12.5609  -23.9761   -8.6210 C   0  0  0  0  0  0  0  0  0  0  0  0
   12.8600  -22.5630   -9.0152 C   0  0  0  0  0  0  0  0  0  0  0  0
   14.0797  -22.2204   -9.4600 C   0  0  0  0  0  0  0  0  0  0  0  0
   11.5152  -25.0517   -5.0131 H   0  0  0  0  0  0  0  0  0  0  0  0
   15.0939  -23.1745   -2.1395 H   0  0  0  0  0  0  0  0  0  0  0  0
   13.2943  -24.5325   -1.1421 H   0  0  0  0  0  0  0  0  0  0  0  0
   14.1680  -19.8089   -6.6179 H   0  0  0  0  0  0  0  0  0  0  0  0
   14.1630  -21.5522   -6.8925 H   0  0  0  0  0  0  0  0  0  0  0  0
   16.3450  -21.5332   -7.8852 H   0  0  0  0  0  0  0  0  0  0  0  0
   16.6714  -19.8968   -7.2966 H   0  0  0  0  0  0  0  0  0  0  0  0
   16.2696  -19.7568   -9.6418 H   0  0  0  0  0  0  0  0  0  0  0  0
   14.8958  -19.0194   -8.8098 H   0  0  0  0  0  0  0  0  0  0  0  0
   14.8502  -20.8829  -10.8723 H   0  0  0  0  0  0  0  0  0  0  0  0
   13.4889  -20.2623   -9.9233 H   0  0  0  0  0  0  0  0  0  0  0  0
   15.4299  -20.3530   -3.2440 H   0  0  0  0  0  0  0  0  0  0  0  0
   14.1653  -19.5566   -4.1670 H   0  0  0  0  0  0  0  0  0  0  0  0
   16.0446  -18.5233   -5.6065 H   0  0  0  0  0  0  0  0  0  0  0  0
   15.8316  -17.8723   -2.8426 H   0  0  0  0  0  0  0  0  0  0  0  0
   17.8828  -20.0766   -4.8352 H   0  0  0  0  0  0  0  0  0  0  0  0
   18.5122  -17.1655   -4.4408 H   0  0  0  0  0  0  0  0  0  0  0  0
   20.7225  -17.9647   -8.0349 H   0  0  0  0  0  0  0  0  0  0  0  0
   19.3637  -15.6395   -8.3832 H   0  0  0  0  0  0  0  0  0  0  0  0
   20.9452  -15.8030   -9.2034 H   0  0  0  0  0  0  0  0  0  0  0  0
   23.0193  -14.7422   -7.1616 H   0  0  0  0  0  0  0  0  0  0  0  0
   20.7416  -16.0847   -4.3151 H   0  0  0  0  0  0  0  0  0  0  0  0
   22.3505  -15.8450   -3.6104 H   0  0  0  0  0  0  0  0  0  0  0  0
   21.7985  -18.0526   -5.1168 H   0  0  0  0  0  0  0  0  0  0  0  0
   23.3912  -17.2722   -5.1645 H   0  0  0  0  0  0  0  0  0  0  0  0
   22.8958  -17.0923   -7.4633 H   0  0  0  0  0  0  0  0  0  0  0  0
   17.4658  -20.1002   -2.3591 H   0  0  0  0  0  0  0  0  0  0  0  0
   17.7110  -18.3511   -2.2831 H   0  0  0  0  0  0  0  0  0  0  0  0
   19.8399  -17.5405   -1.7843 H   0  0  0  0  0  0  0  0  0  0  0  0
   22.2899  -17.8550   -1.5978 H   0  0  0  0  0  0  0  0  0  0  0  0
   23.3207  -19.9701   -2.4098 H   0  0  0  0  0  0  0  0  0  0  0  0
   21.9132  -21.7543   -3.4028 H   0  0  0  0  0  0  0  0  0  0  0  0
   19.4667  -21.4426   -3.5877 H   0  0  0  0  0  0  0  0  0  0  0  0
    9.8042  -26.9741   -2.6635 H   0  0  0  0  0  0  0  0  0  0  0  0
   11.1675  -27.1511   -3.7970 H   0  0  0  0  0  0  0  0  0  0  0  0
    9.9880  -25.8076   -3.9823 H   0  0  0  0  0  0  0  0  0  0  0  0
   11.3584  -23.5784   -6.8925 H   0  0  0  0  0  0  0  0  0  0  0  0
   12.1416  -25.1941   -6.9290 H   0  0  0  0  0  0  0  0  0  0  0  0
   11.6861  -24.3226   -9.1887 H   0  0  0  0  0  0  0  0  0  0  0  0
   13.4134  -24.6131   -8.8903 H   0  0  0  0  0  0  0  0  0  0  0  0
   12.0834  -21.8074   -8.9026 H   0  0  0  0  0  0  0  0  0  0  0  0
   14.8417  -22.9923   -9.5611 H   0  0  0  0  0  0  0  0  0  0  0  0
  1  2  2  0  0  0  0
  1  6  1  0  0  0  0
  1 38  1  0  0  0  0
  2  3  1  0  0  0  0
  2 45  1  0  0  0  0
  3  4  2  0  0  0  0
  3 40  1  0  0  0  0
  4  5  1  0  0  0  0
  4  7  1  0  0  0  0
  5  6  2  0  0  0  0
  5 46  1  0  0  0  0
  6 47  1  0  0  0  0
  7  8  2  0  0  0  0
  7  9  2  0  0  0  0
  7 10  1  0  0  0  0
 10 11  1  0  0  0  0
 10 15  1  0  0  0  0
 11 12  1  0  0  0  0
 11 48  1  0  0  0  0
 11 49  1  0  0  0  0
 12 13  1  0  0  0  0
 12 50  1  0  0  0  0
 12 51  1  0  0  0  0
 13 14  1  0  0  0  0
 13 52  1  0  0  0  0
 13 53  1  0  0  0  0
 14 44  1  0  0  0  0
 14 54  1  0  0  0  0
 14 55  1  0  0  0  0
 15 16  1  0  0  0  0
 15 56  1  0  0  0  0
 15 57  1  0  0  0  0
 16 17  1  0  0  0  0
 16 18  1  0  0  0  0
 16 58  1  6  0  0  0
 17 59  1  0  0  0  0
 18 19  1  0  0  0  0
 18 31  1  0  0  0  0
 18 60  1  6  0  0  0
 19 20  1  0  0  0  0
 19 61  1  0  0  0  0
 20 21  2  0  0  0  0
 20 22  1  0  0  0  0
 22 23  1  0  0  0  0
 23 24  1  0  0  0  0
 23 30  1  0  0  0  0
 23 62  1  6  0  0  0
 24 25  1  0  0  0  0
 24 63  1  0  0  0  0
 24 64  1  0  0  0  0
 25 26  1  0  0  0  0
 26 27  1  0  0  0  0
 26 30  1  0  0  0  0
 26 65  1  6  0  0  0
 27 28  1  0  0  0  0
 28 29  1  0  0  0  0
 28 66  1  0  0  0  0
 28 67  1  0  0  0  0
 29 30  1  0  0  0  0
 29 68  1  0  0  0  0
 29 69  1  0  0  0  0
 30 70  1  6  0  0  0
 31 37  1  0  0  0  0
 31 71  1  0  0  0  0
 31 72  1  0  0  0  0
 32 33  2  0  0  0  0
 32 37  1  0  0  0  0
 32 73  1  0  0  0  0
 33 34  1  0  0  0  0
 33 74  1  0  0  0  0
 34 35  2  0  0  0  0
 34 75  1  0  0  0  0
 35 36  1  0  0  0  0
 35 76  1  0  0  0  0
 36 37  2  0  0  0  0
 36 77  1  0  0  0  0
 38 39  1  0  0  0  0
 39 78  1  0  0  0  0
 39 79  1  0  0  0  0
 39 80  1  0  0  0  0
 40 41  1  0  0  0  0
 41 42  1  0  0  0  0
 41 81  1  0  0  0  0
 41 82  1  0  0  0  0
 42 43  1  0  0  0  0
 42 83  1  0  0  0  0
 42 84  1  0  0  0  0
 43 44  2  0  0  0  0
 43 85  1  0  0  0  0
 44 86  1  0  0  0  0
M  END
$$$$
