GRI
 OpenBabel04091915173D

 32 34  0  0  0  0  0  0  0  0999 V2000
    4.0547   82.6830   25.9784 C   0  0  0  0  0  0  0  0  0  0  0  0
    3.9695   88.8711   22.5302 O   0  0  0  0  0  0  0  0  0  0  0  0
   -3.2136   84.6065   25.3788 O   0  0  0  0  0  0  0  0  0  0  0  0
    4.1803   87.0141   23.7770 O   0  0  0  0  0  0  0  0  0  0  0  0
   -0.0577   89.3152   23.2189 C   0  0  0  0  0  0  0  0  0  0  0  0
    1.3029   89.1601   23.0386 C   0  0  0  0  0  0  0  0  0  0  0  0
   -0.1984   83.0202   26.6738 C   0  0  0  0  0  0  0  0  0  0  0  0
    1.1742   82.8457   26.4697 C   0  0  0  0  0  0  0  0  0  0  0  0
   -0.7618   88.2930   23.8417 C   0  0  0  0  0  0  0  0  0  0  0  0
   -2.3670   84.2995   26.4782 C   0  0  0  0  0  0  0  0  0  0  0  0
   -0.8340   86.1956   24.9469 N   0  0  0  0  0  0  0  0  0  0  0  0
    1.8587   85.8394   24.5168 N   0  0  0  0  0  0  0  0  0  0  0  0
    3.2169   83.7031   25.4430 O   0  0  0  0  0  0  0  0  0  0  0  0
    3.4762   87.9255   23.2508 C   0  0  0  0  0  0  0  0  0  0  0  0
   -0.8996   84.1217   26.1312 C   0  0  0  0  0  0  0  0  0  0  0  0
    1.8712   83.7792   25.7151 C   0  0  0  0  0  0  0  0  0  0  0  0
    1.9797   88.0010   23.4608 C   0  0  0  0  0  0  0  0  0  0  0  0
   -0.1217   87.1353   24.2911 C   0  0  0  0  0  0  0  0  0  0  0  0
   -0.2045   85.0898   25.4022 C   0  0  0  0  0  0  0  0  0  0  0  0
    1.2727   86.9706   24.0887 C   0  0  0  0  0  0  0  0  0  0  0  0
    1.1861   84.9035   25.1938 C   0  0  0  0  0  0  0  0  0  0  0  0
    5.0700   82.8504   25.5962 H   0  0  0  0  0  0  0  0  0  0  0  0
    3.7531   81.6852   25.6462 H   0  0  0  0  0  0  0  0  0  0  0  0
    4.1149   82.7326   27.0698 H   0  0  0  0  0  0  0  0  0  0  0  0
   -4.0930   84.7969   25.7462 H   0  0  0  0  0  0  0  0  0  0  0  0
   -0.5545   90.2294   22.8922 H   0  0  0  0  0  0  0  0  0  0  0  0
    1.8733   89.9582   22.5509 H   0  0  0  0  0  0  0  0  0  0  0  0
   -0.7292   82.2896   27.2820 H   0  0  0  0  0  0  0  0  0  0  0  0
    1.6753   81.9913   26.9096 H   0  0  0  0  0  0  0  0  0  0  0  0
   -1.8334   88.3965   23.9813 H   0  0  0  0  0  0  0  0  0  0  0  0
   -2.7605   83.3679   26.8936 H   0  0  0  0  0  0  0  0  0  0  0  0
   -2.4642   85.0801   27.2420 H   0  0  0  0  0  0  0  0  0  0  0  0
  1 13  1  0  0  0  0
  1 22  1  0  0  0  0
  1 23  1  0  0  0  0
  1 24  1  0  0  0  0
  2 14  2  0  0  0  0
  3 10  1  0  0  0  0
  3 25  1  0  0  0  0
  4 14  1  0  0  0  0
  5  6  2  0  0  0  0
  5  9  1  0  0  0  0
  5 26  1  0  0  0  0
  6 17  1  0  0  0  0
  6 27  1  0  0  0  0
  7  8  1  0  0  0  0
  7 15  2  0  0  0  0
  7 28  1  0  0  0  0
  8 16  2  0  0  0  0
  8 29  1  0  0  0  0
  9 18  2  0  0  0  0
  9 30  1  0  0  0  0
 10 15  1  0  0  0  0
 10 31  1  0  0  0  0
 10 32  1  0  0  0  0
 11 18  1  0  0  0  0
 11 19  2  0  0  0  0
 12 20  1  0  0  0  0
 12 21  2  0  0  0  0
 13 16  1  0  0  0  0
 14 17  1  0  0  0  0
 15 19  1  0  0  0  0
 16 21  1  0  0  0  0
 17 20  2  0  0  0  0
 18 20  1  0  0  0  0
 19 21  1  0  0  0  0
M  END
$$$$
