GTP
 OpenBabel04091911463D

 44 46  0  0  1  0  0  0  0  0999 V2000
   27.9624   30.8136  -39.5332 P   0  0  0  0  0  0  0  0  0  0  0  0
   26.6386   31.5652  -39.3848 O   0  0  0  0  0  0  0  0  0  0  0  0
   28.9378   31.2224  -38.4425 O   0  0  0  0  0  0  0  0  0  0  0  0
   28.5430   30.9408  -40.9351 O   0  0  0  0  0  0  0  0  0  0  0  0
   27.6063   29.2438  -39.3163 O   0  0  0  0  0  0  0  0  0  0  0  0
   28.6092   28.0086  -39.6199 P   0  0  1  0  0  0  0  0  0  0  0  0
   29.7417   27.9729  -38.5931 O   0  0  0  0  0  0  0  0  0  0  0  0
   27.8314   26.6750  -39.6838 O   0  0  0  0  0  0  0  0  0  0  0  0
   29.2276   28.2571  -41.0816 O   0  0  0  0  0  0  0  0  0  0  0  0
   28.5119   28.1315  -42.5020 P   0  0  2  0  0  0  0  0  0  0  0  0
   29.3913   28.6842  -43.6204 O   0  0  0  0  0  0  0  0  0  0  0  0
   27.0254   28.4871  -42.5012 O   0  0  0  0  0  0  0  0  0  0  0  0
   28.6000   26.4933  -42.7693 O   0  0  0  0  0  0  0  0  0  0  0  0
   27.4806   25.7825  -43.3209 C   0  0  0  0  0  0  0  0  0  0  0  0
   27.8981   24.7994  -44.4375 C   0  0  1  0  0  0  0  0  0  0  0  0
   27.7206   25.3872  -45.7526 O   0  0  0  0  0  0  0  0  0  0  0  0
   29.3315   24.2891  -44.3984 C   0  0  1  0  0  0  0  0  0  0  0  0
   29.5122   23.1921  -43.5040 O   0  0  0  0  0  0  0  0  0  0  0  0
   29.5785   23.8739  -45.8519 C   0  0  1  0  0  0  0  0  0  0  0  0
   29.1608   22.4983  -46.0921 O   0  0  0  0  0  0  0  0  0  0  0  0
   28.6935   24.8338  -46.6339 C   0  0  2  0  0  0  0  0  0  0  0  0
   29.4009   25.8969  -47.3052 N   0  3  0  0  0  0  0  0  0  0  0  0
   30.0589   26.9606  -46.7429 C   0  0  0  0  0  0  0  0  0  0  0  0
   30.5786   27.7658  -47.6597 N   0  0  0  0  0  0  0  0  0  0  0  0
   30.2274   27.2216  -48.8390 C   0  0  0  0  0  0  0  0  0  0  0  0
   30.5022   27.6958  -50.1998 C   0  0  0  0  0  0  0  0  0  0  0  0
   31.1088   28.7081  -50.5185 O   0  0  0  0  0  0  0  0  0  0  0  0
   29.9909   26.8084  -51.1378 N   0  3  0  0  0  0  0  0  0  0  0  0
   29.2927   25.6329  -50.8984 C   0  0  0  0  0  0  0  0  0  0  0  0
   28.9292   24.9895  -51.9302 N   0  0  0  0  0  0  0  0  0  0  0  0
   29.0756   25.2551  -49.6194 N   0  3  0  0  0  0  0  0  0  0  0  0
   29.5258   26.0424  -48.6513 C   0  0  0  0  0  0  0  0  0  0  0  0
   26.7396   26.4675  -43.7374 H   0  0  0  0  0  0  0  0  0  0  0  0
   27.0019   25.1926  -42.5256 H   0  0  0  0  0  0  0  0  0  0  0  0
   27.2213   23.9279  -44.3934 H   0  0  0  0  0  0  0  0  0  0  0  0
   30.0259   25.0904  -44.1404 H   0  0  0  0  0  0  0  0  0  0  0  0
   28.9050   22.4896  -43.7878 H   0  0  0  0  0  0  0  0  0  0  0  0
   30.6353   23.9426  -46.1297 H   0  0  0  0  0  0  0  0  0  0  0  0
   29.3514   22.2981  -47.0256 H   0  0  0  0  0  0  0  0  0  0  0  0
   28.1363   24.2647  -47.3955 H   0  0  0  0  0  0  0  0  0  0  0  0
   30.1334   27.1020  -45.6693 H   0  0  0  0  0  0  0  0  0  0  0  0
   30.1456   27.0793  -52.1102 H   0  0  0  0  0  0  0  0  0  0  0  0
   28.4147   24.1258  -51.6455 H   0  0  0  0  0  0  0  0  0  0  0  0
   28.5472   24.3989  -49.4558 H   0  0  0  0  0  0  0  0  0  0  0  0
  1  2  2  0  0  0  0
  1  3  1  0  0  0  0
  1  4  1  0  0  0  0
  1  5  1  0  0  0  0
  6  5  1  1  0  0  0
  6  7  2  0  0  0  0
  6  8  1  0  0  0  0
  6  9  1  0  0  0  0
 10  9  1  1  0  0  0
 10 11  2  0  0  0  0
 10 12  1  0  0  0  0
 10 13  1  0  0  0  0
 13 14  1  0  0  0  0
 14 15  1  0  0  0  0
 14 33  1  0  0  0  0
 14 34  1  0  0  0  0
 15 16  1  0  0  0  0
 15 17  1  0  0  0  0
 15 35  1  1  0  0  0
 16 21  1  0  0  0  0
 17 18  1  0  0  0  0
 17 19  1  0  0  0  0
 17 36  1  1  0  0  0
 18 37  1  0  0  0  0
 19 20  1  0  0  0  0
 19 21  1  0  0  0  0
 19 38  1  6  0  0  0
 20 39  1  0  0  0  0
 21 22  1  0  0  0  0
 21 40  1  6  0  0  0
 22 23  2  0  0  0  0
 22 32  1  0  0  0  0
 23 24  1  0  0  0  0
 23 41  1  0  0  0  0
 24 25  2  0  0  0  0
 25 26  1  0  0  0  0
 25 32  1  0  0  0  0
 26 27  2  0  0  0  0
 26 28  1  0  0  0  0
 28 29  1  0  0  0  0
 28 42  1  0  0  0  0
 29 30  2  0  0  0  0
 29 31  1  0  0  0  0
 30 43  1  0  0  0  0
 31 32  2  0  0  0  0
 31 44  1  0  0  0  0
M  CHG  3  22   1  28   1  31   1
M  END
$$$$
