GUS
 OpenBabel04091910503D

 32 32  0  0  1  0  0  0  0  0999 V2000
   -0.5558   18.8104   21.2999 C   0  0  0  0  0  0  0  0  0  0  0  0
   -1.2191   16.8030   19.9468 N   0  0  0  0  0  0  0  0  0  0  0  0
   -0.8705   19.9657   21.7198 O   0  0  0  0  0  0  0  0  0  0  0  0
   -1.5857   18.1911   20.2919 C   0  0  1  0  0  0  0  0  0  0  0  0
   -2.9560   18.1594   20.9495 C   0  0  0  0  0  0  0  0  0  0  0  0
   -2.5102   14.2521   14.1747 N   0  0  0  0  0  0  0  0  0  0  0  0
   -2.6213   12.9955   14.6086 C   0  0  0  0  0  0  0  0  0  0  0  0
   -2.5202   12.5828   15.8794 N   0  0  0  0  0  0  0  0  0  0  0  0
   -1.8468   13.1742   16.9717 C   0  0  0  0  0  0  0  0  0  0  0  0
   -0.9964   12.3300   17.6982 C   0  0  0  0  0  0  0  0  0  0  0  0
   -0.3829   12.8045   18.8688 C   0  0  0  0  0  0  0  0  0  0  0  0
   -2.8505   12.0306   13.7163 N   0  0  0  0  0  0  0  0  0  0  0  0
   -2.1466   14.4341   17.3960 C   0  0  0  0  0  0  0  0  0  0  0  0
   -1.5415   14.8979   18.5832 C   0  0  0  0  0  0  0  0  0  0  0  0
   -0.6727   14.0836   19.2875 C   0  0  0  0  0  0  0  0  0  0  0  0
   -0.0528   14.4204   20.4743 O   0  0  0  0  0  0  0  0  0  0  0  0
   -1.8648   16.2709   18.9820 C   0  0  0  0  0  0  0  0  0  0  0  0
    0.4665   18.1194   21.5743 O   0  0  0  0  0  0  0  0  0  0  0  0
   -1.6048   18.8217   19.3920 H   0  0  0  0  0  0  0  0  0  0  0  0
   -3.6993   17.7285   20.2738 H   0  0  0  0  0  0  0  0  0  0  0  0
   -3.2916   19.1646   21.2164 H   0  0  0  0  0  0  0  0  0  0  0  0
   -2.9344   17.5439   21.8539 H   0  0  0  0  0  0  0  0  0  0  0  0
   -2.6596   14.4782   13.1966 H   0  0  0  0  0  0  0  0  0  0  0  0
   -2.9099   11.6636   16.0700 H   0  0  0  0  0  0  0  0  0  0  0  0
   -0.7687   11.3185   17.3776 H   0  0  0  0  0  0  0  0  0  0  0  0
    0.3076   12.1880   19.4298 H   0  0  0  0  0  0  0  0  0  0  0  0
   -2.9256   12.2273   12.7274 H   0  0  0  0  0  0  0  0  0  0  0  0
   -2.8478   11.0651   14.0104 H   0  0  0  0  0  0  0  0  0  0  0  0
   -2.8813   15.0478   16.8970 H   0  0  0  0  0  0  0  0  0  0  0  0
   -0.6787   14.9575   21.0023 H   0  0  0  0  0  0  0  0  0  0  0  0
   -2.6716   16.7842   18.4467 H   0  0  0  0  0  0  0  0  0  0  0  0
   -2.3669   15.0324   14.7997 H   0  0  0  0  0  0  0  0  0  0  0  0
  1  3  2  0  0  0  0
  1  4  1  0  0  0  0
  1 18  1  0  0  0  0
  2  4  1  0  0  0  0
  2 17  2  0  0  0  0
  4  5  1  0  0  0  0
  4 19  1  6  0  0  0
  5 20  1  0  0  0  0
  5 21  1  0  0  0  0
  5 22  1  0  0  0  0
  6  7  2  0  0  0  0
  6 23  1  0  0  0  0
  6 32  1  0  0  0  0
  7  8  1  0  0  0  0
  7 12  1  0  0  0  0
  8  9  1  0  0  0  0
  8 24  1  0  0  0  0
  9 10  2  0  0  0  0
  9 13  1  0  0  0  0
 10 11  1  0  0  0  0
 10 25  1  0  0  0  0
 11 15  2  0  0  0  0
 11 26  1  0  0  0  0
 12 27  1  0  0  0  0
 12 28  1  0  0  0  0
 13 14  2  0  0  0  0
 13 29  1  0  0  0  0
 14 15  1  0  0  0  0
 14 17  1  0  0  0  0
 15 16  1  0  0  0  0
 16 30  1  0  0  0  0
 17 31  1  0  0  0  0
M  END
$$$$
