GZ2
 OpenBabel04091912393D

 21 22  0  0  0  0  0  0  0  0999 V2000
   -6.3044   51.5186    8.7524 O   0  0  0  0  0  0  0  0  0  0  0  0
   -6.4634   51.8235    9.9386 C   0  0  0  0  0  0  0  0  0  0  0  0
   -5.3487   52.3851   10.7235 C   0  0  0  0  0  0  0  0  0  0  0  0
   -5.4755   52.7329   12.0185 C   0  0  0  0  0  0  0  0  0  0  0  0
   -6.8002   52.5658   12.7326 C   0  0  0  0  0  0  0  0  0  0  0  0
   -7.9987   52.4999   11.7937 C   0  0  0  0  0  0  0  0  0  0  0  0
   -7.7735   51.5606   10.6305 C   0  0  0  0  0  0  0  0  0  0  0  0
   -4.4458   53.2201   12.8145 N   0  0  0  0  0  0  0  0  0  0  0  0
   -3.0940   53.3413   12.5203 C   0  0  0  0  0  0  0  0  0  0  0  0
   -2.5456   53.5710   11.3074 N   0  0  0  0  0  0  0  0  0  0  0  0
   -1.2114   53.5730   11.5183 N   0  0  0  0  0  0  0  0  0  0  0  0
   -0.9726   53.3541   12.8275 N   0  0  0  0  0  0  0  0  0  0  0  0
   -2.1529   53.2525   13.4854 N   0  0  0  0  0  0  0  0  0  0  0  0
   -4.4125   52.4636   10.1844 H   0  0  0  0  0  0  0  0  0  0  0  0
   -6.9581   53.4053   13.4212 H   0  0  0  0  0  0  0  0  0  0  0  0
   -6.7566   51.6552   13.3443 H   0  0  0  0  0  0  0  0  0  0  0  0
   -8.2073   53.5056   11.4091 H   0  0  0  0  0  0  0  0  0  0  0  0
   -8.8859   52.1797   12.3525 H   0  0  0  0  0  0  0  0  0  0  0  0
   -7.7740   50.5128   10.9550 H   0  0  0  0  0  0  0  0  0  0  0  0
   -8.5714   51.6944    9.8950 H   0  0  0  0  0  0  0  0  0  0  0  0
   -4.6606   53.3066   13.7977 H   0  0  0  0  0  0  0  0  0  0  0  0
  1  2  2  0  0  0  0
  2  3  1  0  0  0  0
  2  7  1  0  0  0  0
  3  4  2  0  0  0  0
  3 14  1  0  0  0  0
  4  5  1  0  0  0  0
  4  8  1  0  0  0  0
  5  6  1  0  0  0  0
  5 15  1  0  0  0  0
  5 16  1  0  0  0  0
  6  7  1  0  0  0  0
  6 17  1  0  0  0  0
  6 18  1  0  0  0  0
  7 19  1  0  0  0  0
  7 20  1  0  0  0  0
  8  9  1  0  0  0  0
  8 21  1  0  0  0  0
  9 10  1  0  0  0  0
  9 13  2  0  0  0  0
 10 11  1  0  0  0  0
 11 12  2  0  0  0  0
 12 13  1  0  0  0  0
M  END
$$$$
