GZC
 OpenBabel04091910513D

 52 53  0  0  0  0  0  0  0  0999 V2000
    0.0428   21.6262   29.2798 N   0  0  0  0  0  0  0  0  0  0  0  0
    0.5486   20.4704   28.8559 C   0  0  0  0  0  0  0  0  0  0  0  0
    1.3599   20.4453   27.7817 N   0  0  0  0  0  0  0  0  0  0  0  0
    0.9825   19.7006   26.6458 C   0  0  0  0  0  0  0  0  0  0  0  0
    1.2069   18.3264   26.6165 C   0  0  0  0  0  0  0  0  0  0  0  0
    0.7986   17.5935   25.5090 C   0  0  0  0  0  0  0  0  0  0  0  0
   -0.0610   14.7319   19.4924 C   0  0  0  0  0  0  0  0  0  0  0  0
   -0.4150   14.0122   18.3611 C   0  0  0  0  0  0  0  0  0  0  0  0
   -1.3482   14.5267   17.4694 C   0  0  0  0  0  0  0  0  0  0  0  0
   -1.6191   13.8562   16.2676 N   0  0  0  0  0  0  0  0  0  0  0  0
   -2.2503   14.2916   15.1249 C   0  0  0  0  0  0  0  0  0  0  0  0
   -2.7782   13.3940   14.2656 N   0  0  0  0  0  0  0  0  0  0  0  0
    0.2741   19.3443   29.5198 N   0  0  0  0  0  0  0  0  0  0  0  0
    0.3894   20.3537   25.5794 C   0  0  0  0  0  0  0  0  0  0  0  0
   -0.0323   19.6256   24.4774 C   0  0  0  0  0  0  0  0  0  0  0  0
    0.1710   18.2392   24.4364 C   0  0  0  0  0  0  0  0  0  0  0  0
   -0.2436   17.4456   23.4098 O   0  0  0  0  0  0  0  0  0  0  0  0
   -0.1239   16.6008   20.8359 O   0  0  0  0  0  0  0  0  0  0  0  0
   -0.6092   15.9993   19.7193 C   0  0  0  0  0  0  0  0  0  0  0  0
   -1.5512   16.5472   18.8482 C   0  0  0  0  0  0  0  0  0  0  0  0
   -1.9355   15.7713   17.7539 C   0  0  0  0  0  0  0  0  0  0  0  0
   -2.2819   15.5903   14.7595 N   0  0  0  0  0  0  0  0  0  0  0  0
   -0.6707   20.4162   23.3815 C   0  0  0  0  0  0  0  0  0  0  0  0
   -1.1057   19.8757   22.3112 N   0  0  0  0  0  0  0  0  0  0  0  0
   -1.6492   20.7634   21.2741 C   0  0  0  0  0  0  0  0  0  0  0  0
   -2.2329   19.8189   20.2367 C   0  0  0  0  0  0  0  0  0  0  0  0
   -1.5119   18.8812   19.7584 N   0  0  0  0  0  0  0  0  0  0  0  0
   -2.2314   17.9031   18.9613 C   0  0  0  0  0  0  0  0  0  0  0  0
   -0.6001   21.6650   30.0589 H   0  0  0  0  0  0  0  0  0  0  0  0
    2.2401   20.9641   27.7954 H   0  0  0  0  0  0  0  0  0  0  0  0
    1.7029   17.8101   27.4338 H   0  0  0  0  0  0  0  0  0  0  0  0
    0.9568   16.5162   25.4943 H   0  0  0  0  0  0  0  0  0  0  0  0
    0.6759   14.3363   20.1903 H   0  0  0  0  0  0  0  0  0  0  0  0
    0.0591   13.0549   18.1896 H   0  0  0  0  0  0  0  0  0  0  0  0
   -1.4444   12.8570   16.3137 H   0  0  0  0  0  0  0  0  0  0  0  0
   -3.2328   13.6826   13.4205 H   0  0  0  0  0  0  0  0  0  0  0  0
   -0.3273   19.3475   30.3589 H   0  0  0  0  0  0  0  0  0  0  0  0
    0.7188   18.4750   29.2541 H   0  0  0  0  0  0  0  0  0  0  0  0
    0.2357   21.4284   25.6149 H   0  0  0  0  0  0  0  0  0  0  0  0
    0.3246   16.6538   23.3655 H   0  0  0  0  0  0  0  0  0  0  0  0
   -0.8490   16.6000   21.5003 H   0  0  0  0  0  0  0  0  0  0  0  0
   -2.7287   16.1574   17.1239 H   0  0  0  0  0  0  0  0  0  0  0  0
   -1.7510   16.2611   15.2938 H   0  0  0  0  0  0  0  0  0  0  0  0
   -2.8327   15.9270   13.9757 H   0  0  0  0  0  0  0  0  0  0  0  0
   -0.7400   21.5144   23.5358 H   0  0  0  0  0  0  0  0  0  0  0  0
   -0.8643   21.3634   20.8056 H   0  0  0  0  0  0  0  0  0  0  0  0
   -2.4424   21.4046   21.6612 H   0  0  0  0  0  0  0  0  0  0  0  0
   -3.2884   19.9818   19.9766 H   0  0  0  0  0  0  0  0  0  0  0  0
   -3.2431   17.7269   19.3606 H   0  0  0  0  0  0  0  0  0  0  0  0
   -2.3404   18.3187   17.9518 H   0  0  0  0  0  0  0  0  0  0  0  0
    0.1797   22.4723   28.7456 H   0  0  0  0  0  0  0  0  0  0  0  0
   -2.7555   12.4073   14.4804 H   0  0  0  0  0  0  0  0  0  0  0  0
  1  2  2  0  0  0  0
  1 29  1  0  0  0  0
  1 51  1  0  0  0  0
  2  3  1  0  0  0  0
  2 13  1  0  0  0  0
  3  4  1  0  0  0  0
  3 30  1  0  0  0  0
  4  5  2  0  0  0  0
  4 14  1  0  0  0  0
  5  6  1  0  0  0  0
  5 31  1  0  0  0  0
  6 16  2  0  0  0  0
  6 32  1  0  0  0  0
  7  8  2  0  0  0  0
  7 19  1  0  0  0  0
  7 33  1  0  0  0  0
  8  9  1  0  0  0  0
  8 34  1  0  0  0  0
  9 10  1  0  0  0  0
  9 21  2  0  0  0  0
 10 11  1  0  0  0  0
 10 35  1  0  0  0  0
 11 12  2  0  0  0  0
 11 22  1  0  0  0  0
 12 36  1  0  0  0  0
 12 52  1  0  0  0  0
 13 37  1  0  0  0  0
 13 38  1  0  0  0  0
 14 15  2  0  0  0  0
 14 39  1  0  0  0  0
 15 16  1  0  0  0  0
 15 23  1  0  0  0  0
 16 17  1  0  0  0  0
 17 40  1  0  0  0  0
 18 19  1  0  0  0  0
 18 41  1  0  0  0  0
 19 20  2  0  0  0  0
 20 21  1  0  0  0  0
 20 28  1  0  0  0  0
 21 42  1  0  0  0  0
 22 43  1  0  0  0  0
 22 44  1  0  0  0  0
 23 24  2  0  0  0  0
 23 45  1  0  0  0  0
 24 25  1  0  0  0  0
 25 26  1  0  0  0  0
 25 46  1  0  0  0  0
 25 47  1  0  0  0  0
 26 27  2  0  0  0  0
 26 48  1  0  0  0  0
 27 28  1  0  0  0  0
 28 49  1  0  0  0  0
 28 50  1  0  0  0  0
M  END
$$$$
