H1I
 OpenBabel04091916433D

 71 75  0  0  0  0  0  0  0  0999 V2000
   30.7239   50.0594   -4.1569 C   0  0  0  0  0  0  0  0  0  0  0  0
   30.0299   48.8491   -4.2459 C   0  0  0  0  0  0  0  0  0  0  0  0
   29.0148   48.5541   -3.3565 C   0  0  0  0  0  0  0  0  0  0  0  0
   28.7191   49.4940   -2.3917 C   0  0  0  0  0  0  0  0  0  0  0  0
   29.3724   50.7173   -2.2654 C   0  0  0  0  0  0  0  0  0  0  0  0
   30.4028   51.0054   -3.1776 C   0  0  0  0  0  0  0  0  0  0  0  0
   28.9165   51.5068   -1.2352 N   0  0  0  0  0  0  0  0  0  0  0  0
   27.9511   50.8679   -0.6187 C   0  0  0  0  0  0  0  0  0  0  0  0
   27.5301   49.3150   -1.2182 S   0  0  0  0  0  0  0  0  0  0  0  0
   27.2931   51.3342    0.4427 N   0  0  0  0  0  0  0  0  0  0  0  0
   26.3156   50.5822    0.9596 N   0  0  0  0  0  0  0  0  0  0  0  0
   25.6550   50.9969    1.9796 C   0  0  0  0  0  0  0  0  0  0  0  0
   25.9082   52.3152    2.6125 C   0  0  0  0  0  0  0  0  0  0  0  0
   24.6125   50.1279    2.4223 C   0  0  0  0  0  0  0  0  0  0  0  0
   23.9956   49.9154    3.6367 C   0  0  0  0  0  0  0  0  0  0  0  0
   23.0020   48.9421    3.3999 C   0  0  0  0  0  0  0  0  0  0  0  0
   23.0776   48.6003    2.0683 C   0  0  0  0  0  0  0  0  0  0  0  0
   24.0670   49.3009    1.4725 O   0  0  0  0  0  0  0  0  0  0  0  0
   22.2942   47.7191    1.2276 C   0  0  0  0  0  0  0  0  0  0  0  0
   22.8489   46.9805    0.1793 C   0  0  0  0  0  0  0  0  0  0  0  0
   22.0573   46.1057   -0.5717 C   0  0  0  0  0  0  0  0  0  0  0  0
   20.7070   45.9662   -0.2908 C   0  0  0  0  0  0  0  0  0  0  0  0
   20.1515   46.7047    0.7431 C   0  0  0  0  0  0  0  0  0  0  0  0
   20.9355   47.5751    1.5002 C   0  0  0  0  0  0  0  0  0  0  0  0
   18.4458   46.4407    1.1250 S   0  0  0  0  0  0  0  0  0  0  0  0
   17.8668   45.6643    0.0515 O   0  0  0  0  0  0  0  0  0  0  0  0
   18.3588   46.0057    2.4970 O   0  0  0  0  0  0  0  0  0  0  0  0
   17.7967   47.9533    0.9697 N   0  0  0  0  0  0  0  0  0  0  0  0
   17.8698   48.9204    1.9870 C   0  0  0  0  0  0  0  0  0  0  0  0
   18.5420   48.7990    3.0039 O   0  0  0  0  0  0  0  0  0  0  0  0
   17.0823   50.1341    1.6924 C   0  0  0  0  0  0  0  0  0  0  0  0
   15.6612   49.9317    2.2170 C   0  0  0  0  0  0  0  0  0  0  0  0
   15.1901   51.2502    2.8066 C   0  0  0  0  0  0  0  0  0  0  0  0
   13.8096   51.1296    3.4040 C   0  0  0  0  0  0  0  0  0  0  0  0
   13.4312   52.3909    4.1802 C   0  0  0  0  0  0  0  0  0  0  0  0
   12.0266   52.3079    4.7170 C   0  0  0  0  0  0  0  0  0  0  0  0
   11.0215   51.6380    4.0053 C   0  0  0  0  0  0  0  0  0  0  0  0
    9.7264   51.5553    4.4957 C   0  0  0  0  0  0  0  0  0  0  0  0
    9.4119   52.1609    5.7046 C   0  0  0  0  0  0  0  0  0  0  0  0
   10.3934   52.8469    6.4190 C   0  0  0  0  0  0  0  0  0  0  0  0
   11.6964   52.9257    5.9264 C   0  0  0  0  0  0  0  0  0  0  0  0
   31.5246   50.2605   -4.8614 H   0  0  0  0  0  0  0  0  0  0  0  0
   30.2681   48.1240   -5.0027 H   0  0  0  0  0  0  0  0  0  0  0  0
   28.4538   47.6296   -3.3831 H   0  0  0  0  0  0  0  0  0  0  0  0
   30.9440   51.9474   -3.1231 H   0  0  0  0  0  0  0  0  0  0  0  0
   27.5329   52.2547    0.7802 H   0  0  0  0  0  0  0  0  0  0  0  0
   25.2630   52.4517    3.4725 H   0  0  0  0  0  0  0  0  0  0  0  0
   25.7023   53.0905    1.8641 H   0  0  0  0  0  0  0  0  0  0  0  0
   26.9594   52.3765    2.9092 H   0  0  0  0  0  0  0  0  0  0  0  0
   24.2211   50.3913    4.5810 H   0  0  0  0  0  0  0  0  0  0  0  0
   22.2992   48.5259    4.1017 H   0  0  0  0  0  0  0  0  0  0  0  0
   23.9078   47.0665   -0.0489 H   0  0  0  0  0  0  0  0  0  0  0  0
   22.4909   45.5235   -1.3769 H   0  0  0  0  0  0  0  0  0  0  0  0
   20.0949   45.2680   -0.8557 H   0  0  0  0  0  0  0  0  0  0  0  0
   20.5135   48.1402    2.3213 H   0  0  0  0  0  0  0  0  0  0  0  0
   17.1668   48.0451    0.1790 H   0  0  0  0  0  0  0  0  0  0  0  0
   17.0756   50.3318    0.6235 H   0  0  0  0  0  0  0  0  0  0  0  0
   17.5865   50.9412    2.2063 H   0  0  0  0  0  0  0  0  0  0  0  0
   15.6184   49.1432    2.9806 H   0  0  0  0  0  0  0  0  0  0  0  0
   15.0043   49.6190    1.3952 H   0  0  0  0  0  0  0  0  0  0  0  0
   15.1806   52.0142    2.0199 H   0  0  0  0  0  0  0  0  0  0  0  0
   15.8898   51.5694    3.5849 H   0  0  0  0  0  0  0  0  0  0  0  0
   13.7471   50.2610    4.0714 H   0  0  0  0  0  0  0  0  0  0  0  0
   13.1167   50.9611    2.5750 H   0  0  0  0  0  0  0  0  0  0  0  0
   13.5174   53.2741    3.5354 H   0  0  0  0  0  0  0  0  0  0  0  0
   14.1371   52.5184    5.0127 H   0  0  0  0  0  0  0  0  0  0  0  0
   11.2316   51.1550    3.0574 H   0  0  0  0  0  0  0  0  0  0  0  0
    8.9739   51.0184    3.9264 H   0  0  0  0  0  0  0  0  0  0  0  0
    8.3987   52.0981    6.0872 H   0  0  0  0  0  0  0  0  0  0  0  0
   10.1415   53.3209    7.3629 H   0  0  0  0  0  0  0  0  0  0  0  0
   12.4523   53.4606    6.4955 H   0  0  0  0  0  0  0  0  0  0  0  0
  1  2  2  0  0  0  0
  1  6  1  0  0  0  0
  1 42  1  0  0  0  0
  2  3  1  0  0  0  0
  2 43  1  0  0  0  0
  3  4  2  0  0  0  0
  3 44  1  0  0  0  0
  4  5  1  0  0  0  0
  4  9  1  0  0  0  0
  5  6  2  0  0  0  0
  5  7  1  0  0  0  0
  6 45  1  0  0  0  0
  7  8  2  0  0  0  0
  8  9  1  0  0  0  0
  8 10  1  0  0  0  0
 10 11  1  0  0  0  0
 10 46  1  0  0  0  0
 11 12  2  0  0  0  0
 12 13  1  0  0  0  0
 12 14  1  0  0  0  0
 13 47  1  0  0  0  0
 13 48  1  0  0  0  0
 13 49  1  0  0  0  0
 14 15  2  0  0  0  0
 14 18  1  0  0  0  0
 15 16  1  0  0  0  0
 15 50  1  0  0  0  0
 16 17  2  0  0  0  0
 16 51  1  0  0  0  0
 17 18  1  0  0  0  0
 17 19  1  0  0  0  0
 19 20  2  0  0  0  0
 19 24  1  0  0  0  0
 20 21  1  0  0  0  0
 20 52  1  0  0  0  0
 21 22  2  0  0  0  0
 21 53  1  0  0  0  0
 22 23  1  0  0  0  0
 22 54  1  0  0  0  0
 23 24  2  0  0  0  0
 23 25  1  0  0  0  0
 24 55  1  0  0  0  0
 25 26  2  0  0  0  0
 25 27  2  0  0  0  0
 25 28  1  0  0  0  0
 28 29  1  0  0  0  0
 28 56  1  0  0  0  0
 29 30  2  0  0  0  0
 29 31  1  0  0  0  0
 31 32  1  0  0  0  0
 31 57  1  0  0  0  0
 31 58  1  0  0  0  0
 32 33  1  0  0  0  0
 32 59  1  0  0  0  0
 32 60  1  0  0  0  0
 33 34  1  0  0  0  0
 33 61  1  0  0  0  0
 33 62  1  0  0  0  0
 34 35  1  0  0  0  0
 34 63  1  0  0  0  0
 34 64  1  0  0  0  0
 35 36  1  0  0  0  0
 35 65  1  0  0  0  0
 35 66  1  0  0  0  0
 36 37  2  0  0  0  0
 36 41  1  0  0  0  0
 37 38  1  0  0  0  0
 37 67  1  0  0  0  0
 38 39  2  0  0  0  0
 38 68  1  0  0  0  0
 39 40  1  0  0  0  0
 39 69  1  0  0  0  0
 40 41  2  0  0  0  0
 40 70  1  0  0  0  0
 41 71  1  0  0  0  0
M  END
$$$$
