HA5
 OpenBabel04091914383D

 21 22  0  0  1  0  0  0  0  0999 V2000
   57.2666   27.2096   47.1267 N   0  3  0  0  0  0  0  0  0  0  0  0
   58.4453   27.7481   46.5595 O   0  0  0  0  0  0  0  0  0  0  0  0
   58.3043   27.3808   45.2338 C   0  0  0  0  0  0  0  0  0  0  0  0
   59.3801   27.6676   44.2433 C   0  0  0  0  0  0  0  0  0  0  0  0
   59.2447   26.7135   43.1220 N   0  3  0  0  0  0  0  0  0  0  0  0
   57.8105   26.7423   42.5259 C   0  0  1  0  0  0  0  0  0  0  0  0
   57.7744   26.0845   41.1320 C   0  0  0  0  0  0  0  0  0  0  0  0
   56.6570   25.7274   40.7021 O   0  0  0  0  0  0  0  0  0  0  0  0
   58.9491   26.0115   40.6514 O   0  0  0  0  0  0  0  0  0  0  0  0
   56.8363   26.1840   43.5753 C   0  0  0  0  0  0  0  0  0  0  0  0
   57.2050   26.6989   44.9235 C   0  0  0  0  0  0  0  0  0  0  0  0
   56.4833   26.5873   46.1799 C   0  0  0  0  0  0  0  0  0  0  0  0
   55.4117   26.0482   46.3402 O   0  0  0  0  0  0  0  0  0  0  0  0
   57.0421   27.3394   48.1027 H   0  0  0  0  0  0  0  0  0  0  0  0
   60.3851   27.5513   44.6562 H   0  0  0  0  0  0  0  0  0  0  0  0
   59.2699   28.6746   43.8260 H   0  0  0  0  0  0  0  0  0  0  0  0
   59.8495   26.8520   42.2883 H   0  0  0  0  0  0  0  0  0  0  0  0
   57.6061   27.8082   42.3539 H   0  0  0  0  0  0  0  0  0  0  0  0
   56.8629   25.0882   43.5748 H   0  0  0  0  0  0  0  0  0  0  0  0
   55.8141   26.4849   43.3198 H   0  0  0  0  0  0  0  0  0  0  0  0
   59.4399   25.7403   43.3927 H   0  0  0  0  0  0  0  0  0  0  0  0
  1  2  1  0  0  0  0
  1 12  1  0  0  0  0
  1 14  1  0  0  0  0
  2  3  1  0  0  0  0
  3  4  1  0  0  0  0
  3 11  2  0  0  0  0
  4  5  1  0  0  0  0
  4 15  1  0  0  0  0
  4 16  1  0  0  0  0
  5  6  1  0  0  0  0
  5 17  1  0  0  0  0
  5 21  1  0  0  0  0
  6  7  1  0  0  0  0
  6 10  1  0  0  0  0
  6 18  1  6  0  0  0
  7  8  2  0  0  0  0
  7  9  1  0  0  0  0
 10 11  1  0  0  0  0
 10 19  1  0  0  0  0
 10 20  1  0  0  0  0
 11 12  1  0  0  0  0
 12 13  2  0  0  0  0
M  CHG  2   1   1   5   1
M  END
$$$$
