HA7
 OpenBabel04091914383D

 21 22  0  0  1  0  0  0  0  0999 V2000
   45.0627   27.2585   40.7620 C   0  0  0  0  0  0  0  0  0  0  0  0
   45.1158   28.5009   41.3194 N   0  3  0  0  0  0  0  0  0  0  0  0
   45.9590   28.5271   42.4621 O   0  0  0  0  0  0  0  0  0  0  0  0
   45.9457   26.4268   41.5552 C   0  0  0  0  0  0  0  0  0  0  0  0
   47.8161   25.2601   43.2003 N   0  3  0  0  0  0  0  0  0  0  0  0
   45.8215   27.4256   45.3134 O   0  0  0  0  0  0  0  0  0  0  0  0
   46.1929   24.9747   41.3793 C   0  0  0  0  0  0  0  0  0  0  0  0
   47.5056   25.9198   45.7420 O   0  0  0  0  0  0  0  0  0  0  0  0
   46.6772   24.4160   42.7156 C   0  0  0  0  0  0  0  0  0  0  0  0
   44.4357   26.8778   39.7949 O   0  0  0  0  0  0  0  0  0  0  0  0
   47.3504   26.7197   43.5679 C   0  0  1  0  0  0  0  0  0  0  0  0
   46.3966   27.2111   42.5218 C   0  0  0  0  0  0  0  0  0  0  0  0
   46.8370   26.7432   45.0412 C   0  0  0  0  0  0  0  0  0  0  0  0
   44.5627   29.3044   41.0578 H   0  0  0  0  0  0  0  0  0  0  0  0
   48.1489   24.9099   44.1265 H   0  0  0  0  0  0  0  0  0  0  0  0
   46.9802   24.8498   40.6113 H   0  0  0  0  0  0  0  0  0  0  0  0
   45.3087   24.4559   41.0393 H   0  0  0  0  0  0  0  0  0  0  0  0
   45.8887   24.4443   43.4742 H   0  0  0  0  0  0  0  0  0  0  0  0
   47.0398   23.3928   42.6102 H   0  0  0  0  0  0  0  0  0  0  0  0
   48.2784   27.2976   43.5433 H   0  0  0  0  0  0  0  0  0  0  0  0
   48.5984   25.2991   42.5490 H   0  0  0  0  0  0  0  0  0  0  0  0
  1  2  1  0  0  0  0
  1  4  1  0  0  0  0
  1 10  2  0  0  0  0
  2  3  1  0  0  0  0
  2 14  1  0  0  0  0
  3 12  1  0  0  0  0
  4  7  1  0  0  0  0
  4 12  2  0  0  0  0
  5  9  1  0  0  0  0
  5 11  1  0  0  0  0
  5 15  1  0  0  0  0
  5 21  1  0  0  0  0
  6 13  2  0  0  0  0
  7  9  1  0  0  0  0
  7 16  1  0  0  0  0
  7 17  1  0  0  0  0
  8 13  1  0  0  0  0
  9 18  1  0  0  0  0
  9 19  1  0  0  0  0
 11 12  1  0  0  0  0
 11 13  1  0  0  0  0
 11 20  1  6  0  0  0
M  CHG  2   2   1   5   1
M  END
$$$$
