HAR
 OpenBabel04091913373D

 28 27  0  0  1  0  0  0  0  0999 V2000
   21.1552  -17.7184    5.2150 N   0  3  0  0  0  0  0  0  0  0  0  0
   21.1050  -17.5831    6.7300 C   0  0  2  0  0  0  0  0  0  0  0  0
   20.2977  -16.3483    7.1818 C   0  0  0  0  0  0  0  0  0  0  0  0
   20.2612  -16.1314    8.4342 O   0  0  0  0  0  0  0  0  0  0  0  0
   22.5336  -17.6617    7.2699 C   0  0  0  0  0  0  0  0  0  0  0  0
   23.3744  -16.4768    7.7570 C   0  0  0  0  0  0  0  0  0  0  0  0
   23.5686  -15.1049    7.1123 C   0  0  0  0  0  0  0  0  0  0  0  0
   24.6259  -14.4385    7.9679 N   0  0  0  0  0  0  0  0  0  0  0  0
   25.8297  -13.9454    7.6132 C   0  0  0  0  0  0  0  0  0  0  0  0
   26.1938  -13.7992    6.3153 N   0  3  0  0  0  0  0  0  0  0  0  0
   26.6899  -13.5858    8.5844 N   0  0  0  0  0  0  0  0  0  0  0  0
   27.4514  -13.3614    5.8663 O   0  0  0  0  0  0  0  0  0  0  0  0
   19.9392  -15.6739    6.1966 O   0  0  0  0  0  0  0  0  0  0  0  0
   21.6422  -18.5294    4.8530 H   0  0  0  0  0  0  0  0  0  0  0  0
   20.1672  -17.7098    4.9209 H   0  0  0  0  0  0  0  0  0  0  0  0
   20.5563  -18.4755    7.0507 H   0  0  0  0  0  0  0  0  0  0  0  0
   23.1465  -18.2655    6.5814 H   0  0  0  0  0  0  0  0  0  0  0  0
   22.4557  -18.2934    8.1723 H   0  0  0  0  0  0  0  0  0  0  0  0
   24.3916  -16.8878    7.8150 H   0  0  0  0  0  0  0  0  0  0  0  0
   23.0881  -16.2828    8.7964 H   0  0  0  0  0  0  0  0  0  0  0  0
   22.6839  -14.4652    7.1579 H   0  0  0  0  0  0  0  0  0  0  0  0
   23.9200  -15.1661    6.0823 H   0  0  0  0  0  0  0  0  0  0  0  0
   24.4482  -14.4920    8.9623 H   0  0  0  0  0  0  0  0  0  0  0  0
   25.4621  -13.8875    5.6058 H   0  0  0  0  0  0  0  0  0  0  0  0
   27.5376  -13.0848    8.3622 H   0  0  0  0  0  0  0  0  0  0  0  0
   28.1071  -13.7358    6.4897 H   0  0  0  0  0  0  0  0  0  0  0  0
   21.4825  -16.8170    4.8454 H   0  0  0  0  0  0  0  0  0  0  0  0
   26.4664  -13.6830    9.5668 H   0  0  0  0  0  0  0  0  0  0  0  0
  1  2  1  0  0  0  0
  1 14  1  0  0  0  0
  1 15  1  0  0  0  0
  1 27  1  0  0  0  0
  2  3  1  0  0  0  0
  2  5  1  0  0  0  0
  2 16  1  1  0  0  0
  3  4  2  0  0  0  0
  3 13  1  0  0  0  0
  5  6  1  0  0  0  0
  5 17  1  0  0  0  0
  5 18  1  0  0  0  0
  6  7  1  0  0  0  0
  6 19  1  0  0  0  0
  6 20  1  0  0  0  0
  7  8  1  0  0  0  0
  7 21  1  0  0  0  0
  7 22  1  0  0  0  0
  8  9  1  0  0  0  0
  8 23  1  0  0  0  0
  9 10  1  0  0  0  0
  9 11  2  0  0  0  0
 10 12  1  0  0  0  0
 10 24  1  0  0  0  0
 11 25  1  0  0  0  0
 11 28  1  0  0  0  0
 12 26  1  0  0  0  0
M  CHG  2   1   1  10   1
M  END
$$$$
