HDX
 OpenBabel04091914183D

 28 28  0  0  0  0  0  0  0  0999 V2000
   12.2725    0.2880   18.7070 O   0  0  0  0  0  0  0  0  0  0  0  0
   16.5100   -0.2930   15.8136 O   0  0  0  0  0  0  0  0  0  0  0  0
   12.8136    6.8975   12.7255 O   0  0  0  0  0  0  0  0  0  0  0  0
   10.1711    1.6159   17.5735 O   0  0  0  0  0  0  0  0  0  0  0  0
   16.8831    1.9510   17.0398 O   0  0  0  0  0  0  0  0  0  0  0  0
   17.3850   -0.2570   18.2221 O   0  0  0  0  0  0  0  0  0  0  0  0
   10.8450    5.9143   11.4426 O   0  0  0  0  0  0  0  0  0  0  0  0
   10.4279    7.1952   13.5956 O   0  0  0  0  0  0  0  0  0  0  0  0
   13.0343    2.5174   15.4372 C   0  0  0  0  0  0  0  0  0  0  0  0
   14.0235    1.8384   16.0482 C   0  0  0  0  0  0  0  0  0  0  0  0
   11.0959    4.7775   14.9637 C   0  0  0  0  0  0  0  0  0  0  0  0
   10.6650    3.3210   15.1913 C   0  0  0  0  0  0  0  0  0  0  0  0
   14.8212    0.3309   17.8281 C   0  0  0  0  0  0  0  0  0  0  0  0
   11.5668    4.9214   13.6261 O   0  0  0  0  0  0  0  0  0  0  0  0
   12.4864    0.9911   17.7148 C   0  0  0  0  0  0  0  0  0  0  0  0
   11.6851    2.4839   15.9441 C   0  0  0  0  0  0  0  0  0  0  0  0
   11.3193    1.7564   17.0357 C   0  0  0  0  0  0  0  0  0  0  0  0
   13.7578    1.0798   17.1581 N   0  3  0  0  0  0  0  0  0  0  0  0
   16.5614    0.4617   17.1446 P   0  0  0  0  0  0  0  0  0  0  0  0
   11.4025    6.3287   12.8040 P   0  0  0  0  0  0  0  0  0  0  0  0
   13.2639    3.1327   14.5798 H   0  0  0  0  0  0  0  0  0  0  0  0
   15.0358    1.8860   15.6744 H   0  0  0  0  0  0  0  0  0  0  0  0
   11.8861    5.0466   15.6757 H   0  0  0  0  0  0  0  0  0  0  0  0
   10.2354    5.4270   15.1444 H   0  0  0  0  0  0  0  0  0  0  0  0
   10.4425    2.8334   14.2364 H   0  0  0  0  0  0  0  0  0  0  0  0
    9.7305    3.3290   15.7705 H   0  0  0  0  0  0  0  0  0  0  0  0
   14.5620   -0.7371   17.8054 H   0  0  0  0  0  0  0  0  0  0  0  0
   14.8650    0.6411   18.8809 H   0  0  0  0  0  0  0  0  0  0  0  0
  1 15  2  0  0  0  0
  2 19  2  0  0  0  0
  3 20  2  0  0  0  0
  4 17  1  0  0  0  0
  5 19  1  0  0  0  0
  6 19  1  0  0  0  0
  7 20  1  0  0  0  0
  8 20  1  0  0  0  0
  9 10  2  0  0  0  0
  9 16  1  0  0  0  0
  9 21  1  0  0  0  0
 10 18  1  0  0  0  0
 10 22  1  0  0  0  0
 11 12  1  0  0  0  0
 11 14  1  0  0  0  0
 11 23  1  0  0  0  0
 11 24  1  0  0  0  0
 12 16  1  0  0  0  0
 12 25  1  0  0  0  0
 12 26  1  0  0  0  0
 13 18  1  0  0  0  0
 13 19  1  0  0  0  0
 13 27  1  0  0  0  0
 13 28  1  0  0  0  0
 14 20  1  0  0  0  0
 15 17  1  0  0  0  0
 15 18  1  0  0  0  0
 16 17  2  0  0  0  0
M  CHG  1  18   1
M  END
$$$$
