HI0
 OpenBabel04091914513D

105111  0  0  1  0  0  0  0  0999 V2000
  -12.4284  -19.2546   11.0075 C   0  0  0  0  0  0  0  0  0  0  0  0
  -12.5760  -19.8882   12.3755 N   0  3  2  0  0  0  0  0  0  0  0  0
  -13.0088   -8.3949   11.2278 O   0  0  0  0  0  0  0  0  0  0  0  0
  -12.3955   -9.1909   10.2140 S   0  0  0  0  0  0  0  0  0  0  0  0
   -6.8080  -23.1421    8.9978 Cl  0  0  0  0  0  0  0  0  0  0  0  0
  -11.6772  -19.1707   13.3496 C   0  0  0  0  0  0  0  0  0  0  0  0
  -12.2847  -17.0668   12.0912 N   0  0  0  0  0  0  0  0  0  0  0  0
  -12.7746   -9.0511    8.8085 O   0  0  0  0  0  0  0  0  0  0  0  0
   -4.9685  -11.0159   11.6817 S   0  0  0  0  0  0  0  0  0  0  0  0
  -12.0381  -17.6800   13.4164 C   0  0  0  0  0  0  0  0  0  0  0  0
  -11.3964  -12.7542   13.9935 N   0  0  0  0  0  0  0  0  0  0  0  0
   -8.3604   -9.9175    7.0266 O   0  0  0  0  0  0  0  0  0  0  0  0
  -13.0075  -17.8526   11.0772 C   0  0  0  0  0  0  0  0  0  0  0  0
  -11.7049  -10.7418   12.7453 N   0  0  0  0  0  0  0  0  0  0  0  0
   -6.4965   -9.2424    7.9570 O   0  0  0  0  0  0  0  0  0  0  0  0
  -12.3285  -21.3591   12.3501 C   0  0  0  0  0  0  0  0  0  0  0  0
  -12.5676  -10.7982   10.5400 N   0  0  0  0  0  0  0  0  0  0  0  0
  -13.1926  -22.0618   11.3342 C   0  0  0  0  0  0  0  0  0  0  0  0
   -7.7240   -9.4428    7.9782 N   0  0  0  0  0  0  0  0  0  0  0  0
  -14.5914  -22.0363   11.4802 C   0  0  0  0  0  0  0  0  0  0  0  0
   -6.4505   -8.3805   10.4113 N   0  0  0  0  0  0  0  0  0  0  0  0
  -15.4093  -22.6243   10.5192 C   0  0  0  0  0  0  0  0  0  0  0  0
   -3.2945   -5.6128   10.4551 N   0  3  0  0  0  0  0  0  0  0  0  0
  -14.8631  -23.2382    9.4048 C   0  0  0  0  0  0  0  0  0  0  0  0
  -13.4754  -23.2504    9.2381 C   0  0  0  0  0  0  0  0  0  0  0  0
  -12.6304  -22.6640   10.1888 C   0  0  0  0  0  0  0  0  0  0  0  0
  -11.1921  -22.7084    9.9414 C   0  0  0  0  0  0  0  0  0  0  0  0
  -10.6380  -22.0429    8.8376 C   0  0  0  0  0  0  0  0  0  0  0  0
   -9.2822  -22.1747    8.5479 C   0  0  0  0  0  0  0  0  0  0  0  0
   -8.4734  -22.9570    9.3704 C   0  0  0  0  0  0  0  0  0  0  0  0
   -9.0014  -23.5943   10.4926 C   0  0  0  0  0  0  0  0  0  0  0  0
  -10.3603  -23.4681   10.7755 C   0  0  0  0  0  0  0  0  0  0  0  0
  -12.3232  -15.6772   11.9987 C   0  0  0  0  0  0  0  0  0  0  0  0
  -11.8867  -14.8431   13.0424 C   0  0  0  0  0  0  0  0  0  0  0  0
  -12.7441  -15.0382   10.8311 C   0  0  0  0  0  0  0  0  0  0  0  0
  -12.7260  -13.6601   10.7089 C   0  0  0  0  0  0  0  0  0  0  0  0
  -12.2830  -12.8549   11.7737 C   0  0  0  0  0  0  0  0  0  0  0  0
  -11.8653  -13.4566   12.9565 C   0  0  0  0  0  0  0  0  0  0  0  0
  -11.3524  -11.4217   13.8426 C   0  0  0  0  0  0  0  0  0  0  0  0
  -12.1885  -11.4606   11.7368 C   0  0  0  0  0  0  0  0  0  0  0  0
  -10.6367   -8.9584   10.2749 C   0  0  0  0  0  0  0  0  0  0  0  0
   -9.8688   -9.2713    9.1540 C   0  0  0  0  0  0  0  0  0  0  0  0
   -8.4761   -9.0788    9.1974 C   0  0  0  0  0  0  0  0  0  0  0  0
   -7.8243   -8.5817   10.3561 C   0  0  0  0  0  0  0  0  0  0  0  0
   -8.6469   -8.2854   11.4580 C   0  0  0  0  0  0  0  0  0  0  0  0
  -10.0337   -8.4629   11.4212 C   0  0  0  0  0  0  0  0  0  0  0  0
   -5.6522   -8.2421   11.6252 C   0  0  2  0  0  0  0  0  0  0  0  0
   -4.2121   -7.7862   11.3327 C   0  0  0  0  0  0  0  0  0  0  0  0
   -4.0151   -6.8990   10.1156 C   0  0  0  0  0  0  0  0  0  0  0  0
   -3.1211   -4.7893    9.2057 C   0  0  0  0  0  0  0  0  0  0  0  0
   -1.9601   -5.7983   11.1183 C   0  0  0  0  0  0  0  0  0  0  0  0
   -5.5860   -9.5033   12.5175 C   0  0  0  0  0  0  0  0  0  0  0  0
   -6.4832  -11.7863   11.1605 C   0  0  0  0  0  0  0  0  0  0  0  0
   -7.5296  -12.0257   12.0524 C   0  0  0  0  0  0  0  0  0  0  0  0
   -8.6665  -12.7044   11.6201 C   0  0  0  0  0  0  0  0  0  0  0  0
   -8.7904  -13.1454   10.3028 C   0  0  0  0  0  0  0  0  0  0  0  0
   -7.7478  -12.9033    9.4108 C   0  0  0  0  0  0  0  0  0  0  0  0
   -6.6103  -12.2440    9.8417 C   0  0  0  0  0  0  0  0  0  0  0  0
  -12.9750  -19.8308   10.2603 H   0  0  0  0  0  0  0  0  0  0  0  0
  -11.3608  -19.2345   10.7567 H   0  0  0  0  0  0  0  0  0  0  0  0
  -10.6438  -19.3046   13.0067 H   0  0  0  0  0  0  0  0  0  0  0  0
  -11.7961  -19.6372   14.3325 H   0  0  0  0  0  0  0  0  0  0  0  0
  -11.1737  -17.2137   13.8983 H   0  0  0  0  0  0  0  0  0  0  0  0
  -12.9167  -17.5436   14.0586 H   0  0  0  0  0  0  0  0  0  0  0  0
  -14.0828  -17.8840   11.3026 H   0  0  0  0  0  0  0  0  0  0  0  0
  -12.8861  -17.4625   10.0648 H   0  0  0  0  0  0  0  0  0  0  0  0
  -12.5434  -21.7429   13.3517 H   0  0  0  0  0  0  0  0  0  0  0  0
  -11.2575  -21.4705   12.1713 H   0  0  0  0  0  0  0  0  0  0  0  0
  -13.0646  -11.2920    9.8009 H   0  0  0  0  0  0  0  0  0  0  0  0
  -15.0598  -21.5565   12.3353 H   0  0  0  0  0  0  0  0  0  0  0  0
   -5.9674   -8.5715    9.5252 H   0  0  0  0  0  0  0  0  0  0  0  0
  -16.4944  -22.6198   10.6434 H   0  0  0  0  0  0  0  0  0  0  0  0
  -15.4874  -23.7166    8.6633 H   0  0  0  0  0  0  0  0  0  0  0  0
  -13.0502  -23.7412    8.3595 H   0  0  0  0  0  0  0  0  0  0  0  0
  -11.2692  -21.4505    8.1763 H   0  0  0  0  0  0  0  0  0  0  0  0
   -8.8697  -21.6899    7.6664 H   0  0  0  0  0  0  0  0  0  0  0  0
   -8.3763  -24.2091   11.1300 H   0  0  0  0  0  0  0  0  0  0  0  0
  -10.7745  -23.9913   11.6359 H   0  0  0  0  0  0  0  0  0  0  0  0
  -11.5296  -15.2563   13.9807 H   0  0  0  0  0  0  0  0  0  0  0  0
  -13.1024  -15.5705    9.9592 H   0  0  0  0  0  0  0  0  0  0  0  0
  -13.0525  -13.2469    9.7631 H   0  0  0  0  0  0  0  0  0  0  0  0
  -10.9689  -10.8643   14.6967 H   0  0  0  0  0  0  0  0  0  0  0  0
  -10.3561   -9.6516    8.2610 H   0  0  0  0  0  0  0  0  0  0  0  0
   -8.2305   -7.8955   12.3799 H   0  0  0  0  0  0  0  0  0  0  0  0
  -10.6415   -8.2126   12.2934 H   0  0  0  0  0  0  0  0  0  0  0  0
   -6.1001   -7.4340   12.2188 H   0  0  0  0  0  0  0  0  0  0  0  0
   -3.5589   -8.6556   11.1931 H   0  0  0  0  0  0  0  0  0  0  0  0
   -3.8652   -7.3070   12.2537 H   0  0  0  0  0  0  0  0  0  0  0  0
   -3.3936   -7.4182    9.3754 H   0  0  0  0  0  0  0  0  0  0  0  0
   -4.9554   -6.6023    9.6465 H   0  0  0  0  0  0  0  0  0  0  0  0
   -2.6432   -3.8487    9.4874 H   0  0  0  0  0  0  0  0  0  0  0  0
   -4.1066   -4.6046    8.7721 H   0  0  0  0  0  0  0  0  0  0  0  0
   -2.4891   -5.3584    8.5175 H   0  0  0  0  0  0  0  0  0  0  0  0
   -2.0841   -6.3537   12.0482 H   0  0  0  0  0  0  0  0  0  0  0  0
   -1.5644   -4.8059   11.3481 H   0  0  0  0  0  0  0  0  0  0  0  0
   -1.3097   -6.3374   10.4258 H   0  0  0  0  0  0  0  0  0  0  0  0
   -4.8534   -9.3091   13.3119 H   0  0  0  0  0  0  0  0  0  0  0  0
   -6.5352   -9.6746   13.0272 H   0  0  0  0  0  0  0  0  0  0  0  0
   -7.4686  -11.7187   13.0916 H   0  0  0  0  0  0  0  0  0  0  0  0
   -9.4396  -12.9067   12.3363 H   0  0  0  0  0  0  0  0  0  0  0  0
   -9.6712  -13.6788    9.9885 H   0  0  0  0  0  0  0  0  0  0  0  0
   -7.8223  -13.2456    8.3818 H   0  0  0  0  0  0  0  0  0  0  0  0
   -5.7807  -12.0828    9.1377 H   0  0  0  0  0  0  0  0  0  0  0  0
  -13.5440  -19.7391   12.6815 H   0  0  0  0  0  0  0  0  0  0  0  0
   -3.9044   -5.0771   11.0927 H   0  0  0  0  0  0  0  0  0  0  0  0
  1  2  1  0  0  0  0
  1 13  1  0  0  0  0
  1 59  1  0  0  0  0
  1 60  1  0  0  0  0
  2  6  1  0  0  0  0
  2 16  1  0  0  0  0
  2104  1  1  0  0  0
  3  4  2  0  0  0  0
  4  8  2  0  0  0  0
  4 17  1  0  0  0  0
  4 41  1  0  0  0  0
  5 30  1  0  0  0  0
  6 10  1  0  0  0  0
  6 61  1  0  0  0  0
  6 62  1  0  0  0  0
  7 10  1  0  0  0  0
  7 13  1  0  0  0  0
  7 33  1  0  0  0  0
  9 52  1  0  0  0  0
  9 53  1  0  0  0  0
 10 63  1  0  0  0  0
 10 64  1  0  0  0  0
 11 38  2  0  0  0  0
 11 39  1  0  0  0  0
 12 19  2  0  0  0  0
 13 65  1  0  0  0  0
 13 66  1  0  0  0  0
 14 39  2  0  0  0  0
 14 40  1  0  0  0  0
 15 19  2  0  0  0  0
 16 18  1  0  0  0  0
 16 67  1  0  0  0  0
 16 68  1  0  0  0  0
 17 40  1  0  0  0  0
 17 69  1  0  0  0  0
 18 20  2  0  0  0  0
 18 26  1  0  0  0  0
 19 43  1  0  0  0  0
 20 22  1  0  0  0  0
 20 70  1  0  0  0  0
 21 44  1  0  0  0  0
 21 47  1  0  0  0  0
 21 71  1  0  0  0  0
 22 24  2  0  0  0  0
 22 72  1  0  0  0  0
 23 49  1  0  0  0  0
 23 50  1  0  0  0  0
 23 51  1  0  0  0  0
 23105  1  0  0  0  0
 24 25  1  0  0  0  0
 24 73  1  0  0  0  0
 25 26  2  0  0  0  0
 25 74  1  0  0  0  0
 26 27  1  0  0  0  0
 27 28  2  0  0  0  0
 27 32  1  0  0  0  0
 28 29  1  0  0  0  0
 28 75  1  0  0  0  0
 29 30  2  0  0  0  0
 29 76  1  0  0  0  0
 30 31  1  0  0  0  0
 31 32  2  0  0  0  0
 31 77  1  0  0  0  0
 32 78  1  0  0  0  0
 33 34  2  0  0  0  0
 33 35  1  0  0  0  0
 34 38  1  0  0  0  0
 34 79  1  0  0  0  0
 35 36  2  0  0  0  0
 35 80  1  0  0  0  0
 36 37  1  0  0  0  0
 36 81  1  0  0  0  0
 37 38  1  0  0  0  0
 37 40  2  0  0  0  0
 39 82  1  0  0  0  0
 41 42  2  0  0  0  0
 41 46  1  0  0  0  0
 42 43  1  0  0  0  0
 42 83  1  0  0  0  0
 43 44  2  0  0  0  0
 44 45  1  0  0  0  0
 45 46  2  0  0  0  0
 45 84  1  0  0  0  0
 46 85  1  0  0  0  0
 47 48  1  0  0  0  0
 47 52  1  0  0  0  0
 47 86  1  1  0  0  0
 48 49  1  0  0  0  0
 48 87  1  0  0  0  0
 48 88  1  0  0  0  0
 49 89  1  0  0  0  0
 49 90  1  0  0  0  0
 50 91  1  0  0  0  0
 50 92  1  0  0  0  0
 50 93  1  0  0  0  0
 51 94  1  0  0  0  0
 51 95  1  0  0  0  0
 51 96  1  0  0  0  0
 52 97  1  0  0  0  0
 52 98  1  0  0  0  0
 53 54  2  0  0  0  0
 53 58  1  0  0  0  0
 54 55  1  0  0  0  0
 54 99  1  0  0  0  0
 55 56  2  0  0  0  0
 55100  1  0  0  0  0
 56 57  1  0  0  0  0
 56101  1  0  0  0  0
 57 58  2  0  0  0  0
 57102  1  0  0  0  0
 58103  1  0  0  0  0
M  CHG  2   2   1  23   1
M  END
$$$$
