HJZ
 OpenBabel04091913463D

 50 53  0  0  1  0  0  0  0  0999 V2000
   77.4816   31.8028   -8.2771 S   0  0  0  0  0  0  0  0  0  0  0  0
   75.9773   31.9982   -9.0414 C   0  0  0  0  0  0  0  0  0  0  0  0
   76.1138   32.6621  -10.2402 C   0  0  0  0  0  0  0  0  0  0  0  0
   77.4499   32.9985  -10.5393 C   0  0  0  0  0  0  0  0  0  0  0  0
   78.3231   32.5929   -9.5445 C   0  0  0  0  0  0  0  0  0  0  0  0
   74.7628   31.5661   -8.3515 C   0  0  0  0  0  0  0  0  0  0  0  0
   79.8146   32.7480   -9.4339 C   0  0  0  0  0  0  0  0  0  0  0  0
   77.8080   33.6379  -11.7875 C   0  0  0  0  0  0  0  0  0  0  0  0
   80.3347   32.2588   -8.4265 O   0  0  0  0  0  0  0  0  0  0  0  0
   80.4736   33.3635  -10.3468 O   0  0  0  0  0  0  0  0  0  0  0  0
   77.7878   35.0397  -11.9437 C   0  0  0  0  0  0  0  0  0  0  0  0
   78.4237   34.7370  -14.3087 C   0  0  0  0  0  0  0  0  0  0  0  0
   78.4187   33.3380  -14.1283 C   0  0  0  0  0  0  0  0  0  0  0  0
   78.0887   35.5838  -13.2193 C   0  0  0  0  0  0  0  0  0  0  0  0
   78.0966   32.7863  -12.8842 C   0  0  0  0  0  0  0  0  0  0  0  0
   73.6061   32.3484   -8.5657 C   0  0  0  0  0  0  0  0  0  0  0  0
   72.4296   30.8942   -6.9835 C   0  0  0  0  0  0  0  0  0  0  0  0
   73.5770   30.1144   -6.7502 C   0  0  0  0  0  0  0  0  0  0  0  0
   72.4450   32.0040   -7.8744 C   0  0  0  0  0  0  0  0  0  0  0  0
   74.7484   30.4479   -7.4460 C   0  0  0  0  0  0  0  0  0  0  0  0
   77.3522   35.9197  -10.7700 C   0  0  1  0  0  0  0  0  0  0  0  0
   78.2775   37.1148  -10.4856 C   0  0  0  0  0  0  0  0  0  0  0  0
   77.6823   37.9413   -9.3340 C   0  0  0  0  0  0  0  0  0  0  0  0
   76.2447   38.4067   -9.6553 C   0  0  1  0  0  0  0  0  0  0  0  0
   75.2766   37.2744  -10.0764 C   0  0  0  0  0  0  0  0  0  0  0  0
   75.9005   36.3213  -11.1036 C   0  0  0  0  0  0  0  0  0  0  0  0
   75.6702   39.2843   -8.5336 C   0  0  0  0  0  0  0  0  0  0  0  0
   75.3194   32.9278  -10.9239 H   0  0  0  0  0  0  0  0  0  0  0  0
   78.6920   35.1633  -15.2832 H   0  0  0  0  0  0  0  0  0  0  0  0
   78.6714   32.6682  -14.9551 H   0  0  0  0  0  0  0  0  0  0  0  0
   78.0651   36.6715  -13.3712 H   0  0  0  0  0  0  0  0  0  0  0  0
   78.0852   31.7063  -12.7171 H   0  0  0  0  0  0  0  0  0  0  0  0
   73.6279   33.2181   -9.2480 H   0  0  0  0  0  0  0  0  0  0  0  0
   71.5008   30.6392   -6.4680 H   0  0  0  0  0  0  0  0  0  0  0  0
   73.5513   29.2716   -6.0411 H   0  0  0  0  0  0  0  0  0  0  0  0
   71.5409   32.5983   -8.0230 H   0  0  0  0  0  0  0  0  0  0  0  0
   75.6509   29.8408   -7.2762 H   0  0  0  0  0  0  0  0  0  0  0  0
   77.3716   35.3434   -9.8299 H   0  0  0  0  0  0  0  0  0  0  0  0
   78.3775   37.7313  -11.3894 H   0  0  0  0  0  0  0  0  0  0  0  0
   79.2911   36.7602  -10.2192 H   0  0  0  0  0  0  0  0  0  0  0  0
   78.3133   38.8265   -9.1545 H   0  0  0  0  0  0  0  0  0  0  0  0
   77.6782   37.3402   -8.4132 H   0  0  0  0  0  0  0  0  0  0  0  0
   76.3496   39.0614  -10.5238 H   0  0  0  0  0  0  0  0  0  0  0  0
   74.3628   37.7226  -10.5119 H   0  0  0  0  0  0  0  0  0  0  0  0
   74.9570   36.6878   -9.2018 H   0  0  0  0  0  0  0  0  0  0  0  0
   75.2881   35.4032  -11.1894 H   0  0  0  0  0  0  0  0  0  0  0  0
   75.8757   36.7959  -12.1020 H   0  0  0  0  0  0  0  0  0  0  0  0
   76.3876   40.0683   -8.2455 H   0  0  0  0  0  0  0  0  0  0  0  0
   75.4312   38.6916   -7.6426 H   0  0  0  0  0  0  0  0  0  0  0  0
   74.7526   39.7798   -8.8799 H   0  0  0  0  0  0  0  0  0  0  0  0
  1  2  1  0  0  0  0
  1  5  1  0  0  0  0
  2  3  2  0  0  0  0
  2  6  1  0  0  0  0
  3  4  1  0  0  0  0
  3 28  1  0  0  0  0
  4  5  2  0  0  0  0
  4  8  1  0  0  0  0
  5  7  1  0  0  0  0
  6 16  2  0  0  0  0
  6 20  1  0  0  0  0
  7  9  2  0  0  0  0
  7 10  1  0  0  0  0
  8 11  2  0  0  0  0
  8 15  1  0  0  0  0
 11 14  1  0  0  0  0
 11 21  1  0  0  0  0
 12 13  1  0  0  0  0
 12 14  2  0  0  0  0
 12 29  1  0  0  0  0
 13 15  2  0  0  0  0
 13 30  1  0  0  0  0
 14 31  1  0  0  0  0
 15 32  1  0  0  0  0
 16 19  1  0  0  0  0
 16 33  1  0  0  0  0
 17 18  1  0  0  0  0
 17 19  2  0  0  0  0
 17 34  1  0  0  0  0
 18 20  2  0  0  0  0
 18 35  1  0  0  0  0
 19 36  1  0  0  0  0
 20 37  1  0  0  0  0
 21 22  1  0  0  0  0
 21 26  1  0  0  0  0
 21 38  1  1  0  0  0
 22 23  1  0  0  0  0
 22 39  1  0  0  0  0
 22 40  1  0  0  0  0
 23 24  1  0  0  0  0
 23 41  1  0  0  0  0
 23 42  1  0  0  0  0
 24 25  1  0  0  0  0
 24 27  1  0  0  0  0
 24 43  1  6  0  0  0
 25 26  1  0  0  0  0
 25 44  1  0  0  0  0
 25 45  1  0  0  0  0
 26 46  1  0  0  0  0
 26 47  1  0  0  0  0
 27 48  1  0  0  0  0
 27 49  1  0  0  0  0
 27 50  1  0  0  0  0
M  END
$$$$
