HN3
 OpenBabel04091911423D

 46 48  0  0  1  0  0  0  0  0999 V2000
   26.6291   64.7110    8.4581 O   0  0  0  0  0  0  0  0  0  0  0  0
   26.9845   65.7683    8.9751 C   0  0  0  0  0  0  0  0  0  0  0  0
   25.9920   66.6293    9.6907 C   0  0  0  0  0  0  0  0  0  0  0  0
   24.6434   66.2613    9.6802 C   0  0  0  0  0  0  0  0  0  0  0  0
   23.7006   67.0377   10.3672 C   0  0  0  0  0  0  0  0  0  0  0  0
   24.0932   68.1912   11.0618 C   0  0  0  0  0  0  0  0  0  0  0  0
   23.0834   69.0225   11.7970 C   0  0  0  0  0  0  0  0  0  0  0  0
   25.4460   68.5572   11.0553 C   0  0  0  0  0  0  0  0  0  0  0  0
   26.3860   67.7925   10.3700 C   0  0  0  0  0  0  0  0  0  0  0  0
   28.4314   66.2156    8.9360 C   0  0  0  0  0  0  0  0  0  0  0  0
   29.3320   65.1590    8.2736 C   0  0  1  0  0  0  0  0  0  0  0  0
   29.1777   65.0653    6.7420 C   0  0  0  0  0  0  0  0  0  0  0  0
   29.7036   66.3005    6.0011 C   0  0  0  0  0  0  0  0  0  0  0  0
   31.1730   66.5831    6.3231 C   0  0  1  0  0  0  0  0  0  0  0  0
   31.5295   67.8329    5.7420 O   0  0  0  0  0  0  0  0  0  0  0  0
   31.3675   66.6631    7.8368 C   0  0  2  0  0  0  0  0  0  0  0  0
   32.8177   66.6937    8.3259 C   0  0  2  0  0  0  0  0  0  0  0  0
   33.6667   65.9215    7.4658 O   0  0  0  0  0  0  0  0  0  0  0  0
   30.8155   65.4462    8.5187 N   0  3  1  0  0  0  0  0  0  0  0  0
   31.3309   65.5677    9.9365 C   0  0  0  0  0  0  0  0  0  0  0  0
   32.7688   66.0942    9.7463 C   0  0  1  0  0  0  0  0  0  0  0  0
   33.6825   65.0006    9.8328 O   0  0  0  0  0  0  0  0  0  0  0  0
   24.3124   65.3663    9.1587 H   0  0  0  0  0  0  0  0  0  0  0  0
   22.6533   66.7400   10.3563 H   0  0  0  0  0  0  0  0  0  0  0  0
   23.5537   69.8907   12.2752 H   0  0  0  0  0  0  0  0  0  0  0  0
   22.6031   68.4288   12.5774 H   0  0  0  0  0  0  0  0  0  0  0  0
   22.3262   69.3947   11.1005 H   0  0  0  0  0  0  0  0  0  0  0  0
   25.7703   69.4479   11.5945 H   0  0  0  0  0  0  0  0  0  0  0  0
   27.4189   68.1200   10.4113 H   0  0  0  0  0  0  0  0  0  0  0  0
   28.7387   66.3637    9.9663 H   0  0  0  0  0  0  0  0  0  0  0  0
   28.4878   67.1705    8.3997 H   0  0  0  0  0  0  0  0  0  0  0  0
   29.1501   64.1710    8.7192 H   0  0  0  0  0  0  0  0  0  0  0  0
   28.1330   64.9014    6.4647 H   0  0  0  0  0  0  0  0  0  0  0  0
   29.7283   64.1838    6.3816 H   0  0  0  0  0  0  0  0  0  0  0  0
   29.0947   67.1786    6.2473 H   0  0  0  0  0  0  0  0  0  0  0  0
   29.5852   66.1644    4.9182 H   0  0  0  0  0  0  0  0  0  0  0  0
   31.7891   65.7992    5.8673 H   0  0  0  0  0  0  0  0  0  0  0  0
   32.5038   67.9106    5.7393 H   0  0  0  0  0  0  0  0  0  0  0  0
   30.8371   67.5314    8.2558 H   0  0  0  0  0  0  0  0  0  0  0  0
   33.2071   67.7173    8.3339 H   0  0  0  0  0  0  0  0  0  0  0  0
   33.6618   64.9861    7.7523 H   0  0  0  0  0  0  0  0  0  0  0  0
   31.2670   64.5886   10.4196 H   0  0  0  0  0  0  0  0  0  0  0  0
   30.7259   66.3123   10.4569 H   0  0  0  0  0  0  0  0  0  0  0  0
   33.0033   66.8319   10.5192 H   0  0  0  0  0  0  0  0  0  0  0  0
   34.5892   65.3718    9.7815 H   0  0  0  0  0  0  0  0  0  0  0  0
   31.3040   64.6170    8.1364 H   0  0  0  0  0  0  0  0  0  0  0  0
  1  2  2  0  0  0  0
  2  3  1  0  0  0  0
  2 10  1  0  0  0  0
  3  4  2  0  0  0  0
  3  9  1  0  0  0  0
  4  5  1  0  0  0  0
  4 23  1  0  0  0  0
  5  6  2  0  0  0  0
  5 24  1  0  0  0  0
  6  7  1  0  0  0  0
  6  8  1  0  0  0  0
  7 25  1  0  0  0  0
  7 26  1  0  0  0  0
  7 27  1  0  0  0  0
  8  9  2  0  0  0  0
  8 28  1  0  0  0  0
  9 29  1  0  0  0  0
 10 11  1  0  0  0  0
 10 30  1  0  0  0  0
 10 31  1  0  0  0  0
 11 12  1  0  0  0  0
 11 19  1  0  0  0  0
 11 32  1  1  0  0  0
 12 13  1  0  0  0  0
 12 33  1  0  0  0  0
 12 34  1  0  0  0  0
 13 14  1  0  0  0  0
 13 35  1  0  0  0  0
 13 36  1  0  0  0  0
 14 15  1  0  0  0  0
 14 16  1  0  0  0  0
 14 37  1  6  0  0  0
 15 38  1  0  0  0  0
 16 17  1  0  0  0  0
 16 19  1  0  0  0  0
 16 39  1  1  0  0  0
 17 18  1  0  0  0  0
 17 21  1  0  0  0  0
 17 40  1  1  0  0  0
 18 41  1  0  0  0  0
 19 20  1  0  0  0  0
 19 46  1  6  0  0  0
 20 21  1  0  0  0  0
 20 42  1  0  0  0  0
 20 43  1  0  0  0  0
 21 22  1  0  0  0  0
 21 44  1  1  0  0  0
 22 45  1  0  0  0  0
M  CHG  1  19   1
M  END
$$$$
