HN4
 OpenBabel04091911433D

 55 57  0  0  1  0  0  0  0  0999 V2000
   26.6646   65.3037    8.3065 O   0  0  0  0  0  0  0  0  0  0  0  0
   27.1098   66.3161    8.8308 C   0  0  0  0  0  0  0  0  0  0  0  0
   26.2118   67.2359    9.5738 C   0  0  0  0  0  0  0  0  0  0  0  0
   26.7281   68.3054   10.3264 C   0  0  0  0  0  0  0  0  0  0  0  0
   25.8664   69.1500   10.9985 C   0  0  0  0  0  0  0  0  0  0  0  0
   24.4775   68.9778   10.9408 C   0  0  0  0  0  0  0  0  0  0  0  0
   23.5550   69.9411   11.6904 C   0  0  0  0  0  0  0  0  0  0  0  0
   23.8152   71.3762   11.1990 C   0  0  0  0  0  0  0  0  0  0  0  0
   22.0623   69.6543   11.4467 C   0  0  0  0  0  0  0  0  0  0  0  0
   23.8458   69.8402   13.1945 C   0  0  0  0  0  0  0  0  0  0  0  0
   23.9787   67.8983   10.1922 C   0  0  0  0  0  0  0  0  0  0  0  0
   24.8414   67.0341    9.5110 C   0  0  0  0  0  0  0  0  0  0  0  0
   28.5772   66.6740    8.7572 C   0  0  0  0  0  0  0  0  0  0  0  0
   29.4079   65.5753    8.0914 C   0  0  2  0  0  0  0  0  0  0  0  0
   30.8952   65.8143    8.3013 N   0  3  2  0  0  0  0  0  0  0  0  0
   31.4239   65.9591    9.7056 C   0  0  0  0  0  0  0  0  0  0  0  0
   32.8509   66.5000    9.5135 C   0  0  1  0  0  0  0  0  0  0  0  0
   33.7745   65.4348    9.7130 O   0  0  0  0  0  0  0  0  0  0  0  0
   32.9239   67.0504    8.0745 C   0  0  1  0  0  0  0  0  0  0  0  0
   33.7531   66.2358    7.2453 O   0  0  0  0  0  0  0  0  0  0  0  0
   31.4653   67.0180    7.5884 C   0  0  1  0  0  0  0  0  0  0  0  0
   31.2338   66.9138    6.0794 C   0  0  2  0  0  0  0  0  0  0  0  0
   31.6135   68.1392    5.4631 O   0  0  0  0  0  0  0  0  0  0  0  0
   29.7426   66.6857    5.8011 C   0  0  0  0  0  0  0  0  0  0  0  0
   29.1919   65.4825    6.5702 C   0  0  0  0  0  0  0  0  0  0  0  0
   27.7889   68.4906   10.4251 H   0  0  0  0  0  0  0  0  0  0  0  0
   26.3001   69.9702   11.5842 H   0  0  0  0  0  0  0  0  0  0  0  0
   23.1659   72.0909   11.7203 H   0  0  0  0  0  0  0  0  0  0  0  0
   23.6143   71.4598   10.1249 H   0  0  0  0  0  0  0  0  0  0  0  0
   24.8480   71.6955   11.3681 H   0  0  0  0  0  0  0  0  0  0  0  0
   21.7781   68.6546   11.7930 H   0  0  0  0  0  0  0  0  0  0  0  0
   21.8164   69.7303   10.3793 H   0  0  0  0  0  0  0  0  0  0  0  0
   21.4278   70.3748   11.9756 H   0  0  0  0  0  0  0  0  0  0  0  0
   24.8956   70.0537   13.4276 H   0  0  0  0  0  0  0  0  0  0  0  0
   23.6297   68.8341   13.5726 H   0  0  0  0  0  0  0  0  0  0  0  0
   23.2407   70.5548   13.7671 H   0  0  0  0  0  0  0  0  0  0  0  0
   22.9137   67.7114   10.1084 H   0  0  0  0  0  0  0  0  0  0  0  0
   24.4125   66.2162    8.9407 H   0  0  0  0  0  0  0  0  0  0  0  0
   28.9088   66.8030    9.7870 H   0  0  0  0  0  0  0  0  0  0  0  0
   28.6744   67.6266    8.2296 H   0  0  0  0  0  0  0  0  0  0  0  0
   29.1966   64.6039    8.5553 H   0  0  0  0  0  0  0  0  0  0  0  0
   31.3634   64.9860   10.2004 H   0  0  0  0  0  0  0  0  0  0  0  0
   30.8256   66.7026   10.2301 H   0  0  0  0  0  0  0  0  0  0  0  0
   33.0448   67.2884   10.2504 H   0  0  0  0  0  0  0  0  0  0  0  0
   34.6814   65.7768    9.6427 H   0  0  0  0  0  0  0  0  0  0  0  0
   33.3132   68.0722    8.0463 H   0  0  0  0  0  0  0  0  0  0  0  0
   34.6587   66.2223    7.6205 H   0  0  0  0  0  0  0  0  0  0  0  0
   30.9525   67.9039    7.9858 H   0  0  0  0  0  0  0  0  0  0  0  0
   31.8071   66.0931    5.6317 H   0  0  0  0  0  0  0  0  0  0  0  0
   32.5823   68.2388    5.5304 H   0  0  0  0  0  0  0  0  0  0  0  0
   29.5824   66.5427    4.7255 H   0  0  0  0  0  0  0  0  0  0  0  0
   29.1744   67.5897    6.0552 H   0  0  0  0  0  0  0  0  0  0  0  0
   28.1267   65.3727    6.3408 H   0  0  0  0  0  0  0  0  0  0  0  0
   29.6805   64.5743    6.1971 H   0  0  0  0  0  0  0  0  0  0  0  0
   31.3863   64.9872    7.9153 H   0  0  0  0  0  0  0  0  0  0  0  0
  1  2  2  0  0  0  0
  2  3  1  0  0  0  0
  2 13  1  0  0  0  0
  3  4  2  0  0  0  0
  3 12  1  0  0  0  0
  4  5  1  0  0  0  0
  4 26  1  0  0  0  0
  5  6  2  0  0  0  0
  5 27  1  0  0  0  0
  6  7  1  0  0  0  0
  6 11  1  0  0  0  0
  7  8  1  0  0  0  0
  7  9  1  0  0  0  0
  7 10  1  0  0  0  0
  8 28  1  0  0  0  0
  8 29  1  0  0  0  0
  8 30  1  0  0  0  0
  9 31  1  0  0  0  0
  9 32  1  0  0  0  0
  9 33  1  0  0  0  0
 10 34  1  0  0  0  0
 10 35  1  0  0  0  0
 10 36  1  0  0  0  0
 11 12  2  0  0  0  0
 11 37  1  0  0  0  0
 12 38  1  0  0  0  0
 13 14  1  0  0  0  0
 13 39  1  0  0  0  0
 13 40  1  0  0  0  0
 14 15  1  0  0  0  0
 14 25  1  0  0  0  0
 14 41  1  1  0  0  0
 15 16  1  0  0  0  0
 15 21  1  0  0  0  0
 15 55  1  6  0  0  0
 16 17  1  0  0  0  0
 16 42  1  0  0  0  0
 16 43  1  0  0  0  0
 17 18  1  0  0  0  0
 17 19  1  0  0  0  0
 17 44  1  1  0  0  0
 18 45  1  0  0  0  0
 19 20  1  0  0  0  0
 19 21  1  0  0  0  0
 19 46  1  1  0  0  0
 20 47  1  0  0  0  0
 21 22  1  0  0  0  0
 21 48  1  1  0  0  0
 22 23  1  0  0  0  0
 22 24  1  0  0  0  0
 22 49  1  6  0  0  0
 23 50  1  0  0  0  0
 24 25  1  0  0  0  0
 24 51  1  0  0  0  0
 24 52  1  0  0  0  0
 25 53  1  0  0  0  0
 25 54  1  0  0  0  0
M  CHG  1  15   1
M  END
$$$$
