HS3
 OpenBabel04091911473D

 33 33  0  0  1  0  0  0  0  0999 V2000
   -3.9902   -3.2111   -4.1474 O   0  0  0  0  0  0  0  0  0  0  0  0
   -2.8001   -3.2770   -4.4035 C   0  0  0  0  0  0  0  0  0  0  0  0
   -2.0993   -2.4387   -5.2537 N   0  0  0  0  0  0  0  0  0  0  0  0
   -2.8377   -1.5035   -5.9930 O   0  0  0  0  0  0  0  0  0  0  0  0
   -1.8445   -4.2841   -3.7778 C   0  0  1  0  0  0  0  0  0  0  0  0
   -1.3882   -3.9460   -2.3717 C   0  0  0  0  0  0  0  0  0  0  0  0
   -2.4726   -3.5924   -1.5295 O   0  0  0  0  0  0  0  0  0  0  0  0
   -2.3388   -5.6466   -3.8270 N   0  0  0  0  0  0  0  0  0  0  0  0
   -1.7812   -6.5964   -5.0732 S   0  0  0  0  0  0  0  0  0  0  0  0
   -1.8998   -7.9717   -4.6441 O   0  0  0  0  0  0  0  0  0  0  0  0
   -0.5234   -6.0450   -5.5349 O   0  0  0  0  0  0  0  0  0  0  0  0
   -2.9900   -6.2834   -6.3127 C   0  0  0  0  0  0  0  0  0  0  0  0
   -4.1392   -7.0742   -6.3288 C   0  0  0  0  0  0  0  0  0  0  0  0
   -5.0481   -6.9405   -7.3761 C   0  0  0  0  0  0  0  0  0  0  0  0
   -4.8133   -6.0183   -8.3976 C   0  0  0  0  0  0  0  0  0  0  0  0
   -3.6702   -5.2100   -8.3494 C   0  0  0  0  0  0  0  0  0  0  0  0
   -2.7500   -5.3387   -7.3113 C   0  0  0  0  0  0  0  0  0  0  0  0
   -5.6203   -5.8227   -9.4843 O   0  0  0  0  0  0  0  0  0  0  0  0
   -6.7064   -6.7286   -9.6594 C   0  0  0  0  0  0  0  0  0  0  0  0
   -1.1175   -2.5760   -5.4838 H   0  0  0  0  0  0  0  0  0  0  0  0
   -2.1777   -1.1282   -6.6056 H   0  0  0  0  0  0  0  0  0  0  0  0
   -0.9062   -4.2294   -4.3493 H   0  0  0  0  0  0  0  0  0  0  0  0
   -0.6629   -3.1248   -2.3892 H   0  0  0  0  0  0  0  0  0  0  0  0
   -0.8884   -4.8178   -1.9402 H   0  0  0  0  0  0  0  0  0  0  0  0
   -2.9742   -2.8775   -1.9703 H   0  0  0  0  0  0  0  0  0  0  0  0
   -2.7624   -6.0707   -3.0142 H   0  0  0  0  0  0  0  0  0  0  0  0
   -4.3141   -7.8049   -5.5444 H   0  0  0  0  0  0  0  0  0  0  0  0
   -5.9201   -7.5839   -7.3684 H   0  0  0  0  0  0  0  0  0  0  0  0
   -3.4792   -4.4880   -9.1419 H   0  0  0  0  0  0  0  0  0  0  0  0
   -1.8541   -4.7274   -7.2999 H   0  0  0  0  0  0  0  0  0  0  0  0
   -7.2510   -6.4245  -10.5589 H   0  0  0  0  0  0  0  0  0  0  0  0
   -7.4112   -6.6861   -8.8219 H   0  0  0  0  0  0  0  0  0  0  0  0
   -6.3480   -7.7519   -9.8184 H   0  0  0  0  0  0  0  0  0  0  0  0
  1  2  2  0  0  0  0
  2  3  1  0  0  0  0
  2  5  1  0  0  0  0
  3  4  1  0  0  0  0
  3 20  1  0  0  0  0
  4 21  1  0  0  0  0
  5  6  1  0  0  0  0
  5  8  1  0  0  0  0
  5 22  1  6  0  0  0
  6  7  1  0  0  0  0
  6 23  1  0  0  0  0
  6 24  1  0  0  0  0
  7 25  1  0  0  0  0
  8  9  1  0  0  0  0
  8 26  1  0  0  0  0
  9 10  2  0  0  0  0
  9 11  2  0  0  0  0
  9 12  1  0  0  0  0
 12 13  2  0  0  0  0
 12 17  1  0  0  0  0
 13 14  1  0  0  0  0
 13 27  1  0  0  0  0
 14 15  2  0  0  0  0
 14 28  1  0  0  0  0
 15 16  1  0  0  0  0
 15 18  1  0  0  0  0
 16 17  2  0  0  0  0
 16 29  1  0  0  0  0
 17 30  1  0  0  0  0
 18 19  1  0  0  0  0
 19 31  1  0  0  0  0
 19 32  1  0  0  0  0
 19 33  1  0  0  0  0
M  END
$$$$
