HS5
 OpenBabel04091911473D

 32 32  0  0  0  0  0  0  0  0999 V2000
  -12.9722   -7.5277  -20.1398 O   0  0  0  0  0  0  0  0  0  0  0  0
  -13.1964   -6.2369  -19.6068 S   0  0  0  0  0  0  0  0  0  0  0  0
  -14.4170   -5.8263  -18.9438 O   0  0  0  0  0  0  0  0  0  0  0  0
  -12.9351   -5.2229  -20.9065 N   0  0  0  0  0  0  0  0  0  0  0  0
  -13.4521   -3.8593  -20.8476 C   0  0  0  0  0  0  0  0  0  0  0  0
  -12.4239   -2.9584  -20.1565 C   0  0  0  0  0  0  0  0  0  0  0  0
  -11.2819   -2.9027  -20.5814 O   0  0  0  0  0  0  0  0  0  0  0  0
  -12.8828   -2.3094  -19.0706 N   0  0  0  0  0  0  0  0  0  0  0  0
  -11.9110   -1.5435  -18.4091 O   0  0  0  0  0  0  0  0  0  0  0  0
  -12.9877   -5.9182  -22.2247 C   0  0  0  0  0  0  0  0  0  0  0  0
  -11.6820   -6.2788  -22.9564 C   0  0  0  0  0  0  0  0  0  0  0  0
  -11.7019   -7.7023  -23.1594 O   0  0  0  0  0  0  0  0  0  0  0  0
  -11.8842   -6.0315  -18.4515 C   0  0  0  0  0  0  0  0  0  0  0  0
  -12.1141   -5.3572  -17.2927 C   0  0  0  0  0  0  0  0  0  0  0  0
  -11.1339   -5.3319  -16.3641 C   0  0  0  0  0  0  0  0  0  0  0  0
   -9.9174   -6.0009  -16.5306 C   0  0  0  0  0  0  0  0  0  0  0  0
   -8.9480   -5.9685  -15.6071 F   0  0  0  0  0  0  0  0  0  0  0  0
   -9.7113   -6.7521  -17.7084 C   0  0  0  0  0  0  0  0  0  0  0  0
  -10.7290   -6.7792  -18.6705 C   0  0  0  0  0  0  0  0  0  0  0  0
  -14.4207   -3.7562  -20.3341 H   0  0  0  0  0  0  0  0  0  0  0  0
  -13.5834   -3.4857  -21.8647 H   0  0  0  0  0  0  0  0  0  0  0  0
  -13.8434   -2.3297  -18.7768 H   0  0  0  0  0  0  0  0  0  0  0  0
  -12.3870   -1.1149  -17.6630 H   0  0  0  0  0  0  0  0  0  0  0  0
  -13.5475   -5.3037  -22.8980 H   0  0  0  0  0  0  0  0  0  0  0  0
  -13.5028   -6.8791  -22.1250 H   0  0  0  0  0  0  0  0  0  0  0  0
  -10.7594   -5.9911  -22.4595 H   0  0  0  0  0  0  0  0  0  0  0  0
  -11.7241   -5.8208  -23.9546 H   0  0  0  0  0  0  0  0  0  0  0  0
  -10.9318   -7.9765  -23.6867 H   0  0  0  0  0  0  0  0  0  0  0  0
  -13.0455   -4.8356  -17.1109 H   0  0  0  0  0  0  0  0  0  0  0  0
  -11.2530   -4.7532  -15.4134 H   0  0  0  0  0  0  0  0  0  0  0  0
   -8.7944   -7.2759  -17.8603 H   0  0  0  0  0  0  0  0  0  0  0  0
  -10.5864   -7.3641  -19.5641 H   0  0  0  0  0  0  0  0  0  0  0  0
  1  2  2  0  0  0  0
  2  3  2  0  0  0  0
  2  4  1  0  0  0  0
  2 13  1  0  0  0  0
  4  5  1  0  0  0  0
  4 10  1  0  0  0  0
  5  6  1  0  0  0  0
  5 20  1  0  0  0  0
  5 21  1  0  0  0  0
  6  7  2  0  0  0  0
  6  8  1  0  0  0  0
  8  9  1  0  0  0  0
  8 22  1  0  0  0  0
  9 23  1  0  0  0  0
 10 11  1  0  0  0  0
 10 24  1  0  0  0  0
 10 25  1  0  0  0  0
 11 12  1  0  0  0  0
 11 26  1  0  0  0  0
 11 27  1  0  0  0  0
 12 28  1  0  0  0  0
 13 14  2  0  0  0  0
 13 19  1  0  0  0  0
 14 15  1  0  0  0  0
 14 29  1  0  0  0  0
 15 16  2  0  0  0  0
 15 30  1  0  0  0  0
 16 17  1  0  0  0  0
 16 18  1  0  0  0  0
 18 19  2  0  0  0  0
 18 31  1  0  0  0  0
 19 32  1  0  0  0  0
M  END
$$$$
