HS7
 OpenBabel04091911483D

 25 25  0  0  0  0  0  0  0  0999 V2000
   -3.2603   -2.9269   -4.0047 O   0  0  0  0  0  0  0  0  0  0  0  0
   -2.1036   -2.9772   -4.4205 C   0  0  0  0  0  0  0  0  0  0  0  0
   -1.6092   -2.2460   -5.4794 N   0  0  0  0  0  0  0  0  0  0  0  0
   -2.5300   -1.3968   -6.1274 O   0  0  0  0  0  0  0  0  0  0  0  0
   -1.0758   -3.8801   -3.7694 C   0  0  0  0  0  0  0  0  0  0  0  0
   -1.4742   -5.2797   -3.7275 N   0  0  0  0  0  0  0  0  0  0  0  0
   -1.2392   -6.2723   -5.0405 S   0  0  0  0  0  0  0  0  0  0  0  0
   -0.0619   -5.7880   -5.7340 O   0  0  0  0  0  0  0  0  0  0  0  0
   -1.3359   -7.6293   -4.5550 O   0  0  0  0  0  0  0  0  0  0  0  0
   -2.6439   -5.9862   -6.0830 C   0  0  0  0  0  0  0  0  0  0  0  0
   -2.4701   -5.3805   -7.3318 C   0  0  0  0  0  0  0  0  0  0  0  0
   -3.8947   -6.4872   -5.7033 C   0  0  0  0  0  0  0  0  0  0  0  0
   -4.9777   -6.3658   -6.5766 C   0  0  0  0  0  0  0  0  0  0  0  0
   -4.8055   -5.7591   -7.8218 C   0  0  0  0  0  0  0  0  0  0  0  0
   -3.5554   -5.2662   -8.1995 C   0  0  0  0  0  0  0  0  0  0  0  0
   -0.6737   -2.3368   -5.8492 H   0  0  0  0  0  0  0  0  0  0  0  0
   -2.0211   -1.0040   -6.8578 H   0  0  0  0  0  0  0  0  0  0  0  0
   -0.9291   -3.5303   -2.7421 H   0  0  0  0  0  0  0  0  0  0  0  0
   -0.1024   -3.7783   -4.2605 H   0  0  0  0  0  0  0  0  0  0  0  0
   -2.0533   -5.6233   -2.9637 H   0  0  0  0  0  0  0  0  0  0  0  0
   -1.4940   -5.0207   -7.6460 H   0  0  0  0  0  0  0  0  0  0  0  0
   -4.0277   -6.9869   -4.7465 H   0  0  0  0  0  0  0  0  0  0  0  0
   -5.9525   -6.7559   -6.2937 H   0  0  0  0  0  0  0  0  0  0  0  0
   -5.6478   -5.6768   -8.5047 H   0  0  0  0  0  0  0  0  0  0  0  0
   -3.4246   -4.8065   -9.1760 H   0  0  0  0  0  0  0  0  0  0  0  0
  1  2  2  0  0  0  0
  2  3  1  0  0  0  0
  2  5  1  0  0  0  0
  3  4  1  0  0  0  0
  3 16  1  0  0  0  0
  4 17  1  0  0  0  0
  5  6  1  0  0  0  0
  5 18  1  0  0  0  0
  5 19  1  0  0  0  0
  6  7  1  0  0  0  0
  6 20  1  0  0  0  0
  7  8  2  0  0  0  0
  7  9  2  0  0  0  0
  7 10  1  0  0  0  0
 10 11  2  0  0  0  0
 10 12  1  0  0  0  0
 11 15  1  0  0  0  0
 11 21  1  0  0  0  0
 12 13  2  0  0  0  0
 12 22  1  0  0  0  0
 13 14  1  0  0  0  0
 13 23  1  0  0  0  0
 14 15  2  0  0  0  0
 14 24  1  0  0  0  0
 15 25  1  0  0  0  0
M  END
$$$$
