HSM
 OpenBabel04091911043D

 18 18  0  0  0  0  0  0  0  0999 V2000
   18.1822   22.9676    7.5810 N   0  3  0  0  0  0  0  0  0  0  0  0
   17.3563   23.1377    8.8023 C   0  0  0  0  0  0  0  0  0  0  0  0
   16.2989   24.2138    8.5661 C   0  0  0  0  0  0  0  0  0  0  0  0
   15.4931   24.4732    9.7814 C   0  0  0  0  0  0  0  0  0  0  0  0
   15.9857   25.0135   10.9529 N   0  3  0  0  0  0  0  0  0  0  0  0
   14.1485   24.2939   10.0293 C   0  0  0  0  0  0  0  0  0  0  0  0
   14.9516   25.0929   11.8381 C   0  0  0  0  0  0  0  0  0  0  0  0
   13.8357   24.6586   11.3089 N   0  0  0  0  0  0  0  0  0  0  0  0
   18.9126   22.2541    7.7234 H   0  0  0  0  0  0  0  0  0  0  0  0
   17.6137   22.6592    6.7790 H   0  0  0  0  0  0  0  0  0  0  0  0
   18.0451   23.4111    9.6084 H   0  0  0  0  0  0  0  0  0  0  0  0
   16.9114   22.1626    9.0287 H   0  0  0  0  0  0  0  0  0  0  0  0
   15.6316   23.8810    7.7563 H   0  0  0  0  0  0  0  0  0  0  0  0
   16.7644   25.1437    8.2242 H   0  0  0  0  0  0  0  0  0  0  0  0
   16.9367   25.3064   11.1491 H   0  0  0  0  0  0  0  0  0  0  0  0
   13.3863   23.9140    9.3589 H   0  0  0  0  0  0  0  0  0  0  0  0
   15.0728   25.4767   12.8413 H   0  0  0  0  0  0  0  0  0  0  0  0
   18.6557   23.8398    7.3104 H   0  0  0  0  0  0  0  0  0  0  0  0
  1  2  1  0  0  0  0
  1  9  1  0  0  0  0
  1 10  1  0  0  0  0
  1 18  1  0  0  0  0
  2  3  1  0  0  0  0
  2 11  1  0  0  0  0
  2 12  1  0  0  0  0
  3  4  1  0  0  0  0
  3 13  1  0  0  0  0
  3 14  1  0  0  0  0
  4  5  1  0  0  0  0
  4  6  2  0  0  0  0
  5  7  2  0  0  0  0
  5 15  1  0  0  0  0
  6  8  1  0  0  0  0
  6 16  1  0  0  0  0
  7  8  1  0  0  0  0
  7 17  1  0  0  0  0
M  CHG  2   1   1   5   1
M  END
$$$$
