HTJ
 OpenBabel04091914143D

 38 41  0  0  0  0  0  0  0  0999 V2000
  -26.0298   -6.7259   15.7509 C   0  0  0  0  0  0  0  0  0  0  0  0
  -26.5137   -6.6281   14.4506 C   0  0  0  0  0  0  0  0  0  0  0  0
  -25.6012   -6.4900   13.3998 C   0  0  0  0  0  0  0  0  0  0  0  0
  -24.2372   -6.4800   13.7317 C   0  0  0  0  0  0  0  0  0  0  0  0
  -23.8544   -6.5767   15.0584 C   0  0  0  0  0  0  0  0  0  0  0  0
  -24.7216   -6.7035   16.0805 N   0  0  0  0  0  0  0  0  0  0  0  0
  -26.0868   -6.3876   11.9662 C   0  0  0  0  0  0  0  0  0  0  0  0
  -25.1008   -5.7902   11.0762 N   0  3  0  0  0  0  0  0  0  0  0  0
  -24.0594   -6.4449   10.4589 C   0  0  0  0  0  0  0  0  0  0  0  0
  -23.2367   -5.4420    9.9689 C   0  0  0  0  0  0  0  0  0  0  0  0
  -23.8958   -4.2399   10.3116 C   0  0  0  0  0  0  0  0  0  0  0  0
  -25.0494   -4.4398   10.9611 N   0  0  0  0  0  0  0  0  0  0  0  0
  -23.8366   -7.7789   10.4280 N   0  0  0  0  0  0  0  0  0  0  0  0
  -22.6719   -8.1389    9.8122 C   0  0  0  0  0  0  0  0  0  0  0  0
  -21.7861   -7.1997    9.2704 C   0  0  0  0  0  0  0  0  0  0  0  0
  -22.0462   -5.8178    9.3352 C   0  0  0  0  0  0  0  0  0  0  0  0
  -21.0965   -4.8072    8.7652 C   0  0  0  0  0  0  0  0  0  0  0  0
  -20.2143   -5.2500    7.9667 O   0  0  0  0  0  0  0  0  0  0  0  0
  -21.2408   -3.6003    9.1243 O   0  0  0  0  0  0  0  0  0  0  0  0
  -22.4017   -9.6112    9.7586 C   0  0  0  0  0  0  0  0  0  0  0  0
  -23.1576  -10.5155   10.5316 C   0  0  0  0  0  0  0  0  0  0  0  0
  -22.9345  -11.9000   10.4867 C   0  0  0  0  0  0  0  0  0  0  0  0
  -21.9417  -12.4198    9.6656 C   0  0  0  0  0  0  0  0  0  0  0  0
  -21.1712  -11.5608    8.8949 C   0  0  0  0  0  0  0  0  0  0  0  0
  -21.3997  -10.1756    8.9429 C   0  0  0  0  0  0  0  0  0  0  0  0
  -26.7067   -6.8207   16.5933 H   0  0  0  0  0  0  0  0  0  0  0  0
  -27.5839   -6.6477   14.2736 H   0  0  0  0  0  0  0  0  0  0  0  0
  -23.4577   -6.3798   12.9885 H   0  0  0  0  0  0  0  0  0  0  0  0
  -22.8032   -6.5463   15.3197 H   0  0  0  0  0  0  0  0  0  0  0  0
  -26.9784   -5.7472   11.9160 H   0  0  0  0  0  0  0  0  0  0  0  0
  -26.3527   -7.3733   11.5718 H   0  0  0  0  0  0  0  0  0  0  0  0
  -23.5559   -3.2284   10.1222 H   0  0  0  0  0  0  0  0  0  0  0  0
  -20.8578   -7.4994    8.7925 H   0  0  0  0  0  0  0  0  0  0  0  0
  -23.9420  -10.1412   11.1864 H   0  0  0  0  0  0  0  0  0  0  0  0
  -23.5437  -12.5619   11.0951 H   0  0  0  0  0  0  0  0  0  0  0  0
  -21.7687  -13.4921    9.6274 H   0  0  0  0  0  0  0  0  0  0  0  0
  -20.3909  -11.9514    8.2495 H   0  0  0  0  0  0  0  0  0  0  0  0
  -20.7750   -9.5502    8.3076 H   0  0  0  0  0  0  0  0  0  0  0  0
  1  2  2  0  0  0  0
  1  6  1  0  0  0  0
  1 26  1  0  0  0  0
  2  3  1  0  0  0  0
  2 27  1  0  0  0  0
  3  4  2  0  0  0  0
  3  7  1  0  0  0  0
  4  5  1  0  0  0  0
  4 28  1  0  0  0  0
  5  6  2  0  0  0  0
  5 29  1  0  0  0  0
  7  8  1  0  0  0  0
  7 30  1  0  0  0  0
  7 31  1  0  0  0  0
  8  9  2  0  0  0  0
  8 12  1  0  0  0  0
  9 10  1  0  0  0  0
  9 13  1  0  0  0  0
 10 11  2  0  0  0  0
 10 16  1  0  0  0  0
 11 12  1  0  0  0  0
 11 32  1  0  0  0  0
 13 14  2  0  0  0  0
 14 15  1  0  0  0  0
 14 20  1  0  0  0  0
 15 16  2  0  0  0  0
 15 33  1  0  0  0  0
 16 17  1  0  0  0  0
 17 18  2  0  0  0  0
 17 19  1  0  0  0  0
 20 21  2  0  0  0  0
 20 25  1  0  0  0  0
 21 22  1  0  0  0  0
 21 34  1  0  0  0  0
 22 23  2  0  0  0  0
 22 35  1  0  0  0  0
 23 24  1  0  0  0  0
 23 36  1  0  0  0  0
 24 25  2  0  0  0  0
 24 37  1  0  0  0  0
 25 38  1  0  0  0  0
M  CHG  1   8   1
M  END
$$$$
