I45
 OpenBabel04091912573D

 49 51  0  0  0  0  0  0  0  0999 V2000
   36.6926   36.6489   18.2575 C   0  0  0  0  0  0  0  0  0  0  0  0
   38.0261   37.0456   18.1576 C   0  0  0  0  0  0  0  0  0  0  0  0
   38.6142   37.3085   16.9420 C   0  0  0  0  0  0  0  0  0  0  0  0
   37.8547   37.1897   15.7952 C   0  0  0  0  0  0  0  0  0  0  0  0
   36.5264   36.8082   15.8631 C   0  0  0  0  0  0  0  0  0  0  0  0
   35.9349   36.5474   17.0948 C   0  0  0  0  0  0  0  0  0  0  0  0
   36.0672   36.4471   19.5907 C   0  0  0  0  0  0  0  0  0  0  0  0
   35.6533   37.7454   19.9659 O   0  0  0  0  0  0  0  0  0  0  0  0
   35.3263   38.0082   21.2743 C   0  0  0  0  0  0  0  0  0  0  0  0
   35.0749   39.2486   21.6651 C   0  0  0  0  0  0  0  0  0  0  0  0
   34.7081   39.5144   23.0874 C   0  0  0  0  0  0  0  0  0  0  0  0
   34.6510   38.4010   23.9166 N   0  3  0  0  0  0  0  0  0  0  0  0
   34.9307   37.1185   23.4681 C   0  0  0  0  0  0  0  0  0  0  0  0
   35.2568   36.8998   22.1949 C   0  0  0  0  0  0  0  0  0  0  0  0
   34.2297   38.6189   25.2466 C   0  0  0  0  0  0  0  0  0  0  0  0
   35.1554   39.1055   26.1505 C   0  0  0  0  0  0  0  0  0  0  0  0
   34.7741   39.2653   27.4700 C   0  0  0  0  0  0  0  0  0  0  0  0
   33.4727   38.9792   27.8773 C   0  0  0  0  0  0  0  0  0  0  0  0
   32.5565   38.4872   26.9733 C   0  0  0  0  0  0  0  0  0  0  0  0
   32.9241   38.2974   25.6501 C   0  0  0  0  0  0  0  0  0  0  0  0
   38.7710   37.1695   19.2637 F   0  0  0  0  0  0  0  0  0  0  0  0
   38.4237   37.4540   14.6141 F   0  0  0  0  0  0  0  0  0  0  0  0
   35.1584   40.7252   20.5060 Br  0  0  0  0  0  0  0  0  0  0  0  0
   34.4513   40.6708   23.4686 O   0  0  0  0  0  0  0  0  0  0  0  0
   34.8586   35.9845   24.4411 C   0  0  0  0  0  0  0  0  0  0  0  0
   35.7297   39.7974   28.4488 C   0  0  0  0  0  0  0  0  0  0  0  0
   36.5847   40.5938   28.0862 O   0  0  0  0  0  0  0  0  0  0  0  0
   35.5220   39.4147   29.7547 N   0  0  0  0  0  0  0  0  0  0  0  0
   35.5214   38.0400   30.2022 C   0  0  0  0  0  0  0  0  0  0  0  0
   31.8866   37.7638   24.7192 C   0  0  0  0  0  0  0  0  0  0  0  0
   39.6495   37.6017   16.8909 H   0  0  0  0  0  0  0  0  0  0  0  0
   35.9356   36.7139   14.9569 H   0  0  0  0  0  0  0  0  0  0  0  0
   34.8858   36.2670   17.1526 H   0  0  0  0  0  0  0  0  0  0  0  0
   36.7990   36.0200   20.2860 H   0  0  0  0  0  0  0  0  0  0  0  0
   35.2057   35.7686   19.5199 H   0  0  0  0  0  0  0  0  0  0  0  0
   35.4597   35.8926   21.8728 H   0  0  0  0  0  0  0  0  0  0  0  0
   36.1733   39.3483   25.8328 H   0  0  0  0  0  0  0  0  0  0  0  0
   33.1741   39.1326   28.9092 H   0  0  0  0  0  0  0  0  0  0  0  0
   31.5442   38.2547   27.2950 H   0  0  0  0  0  0  0  0  0  0  0  0
   35.1022   35.0448   23.9498 H   0  0  0  0  0  0  0  0  0  0  0  0
   33.8468   35.9021   24.8437 H   0  0  0  0  0  0  0  0  0  0  0  0
   35.5606   36.1522   25.2609 H   0  0  0  0  0  0  0  0  0  0  0  0
   35.4070   40.1529   30.4363 H   0  0  0  0  0  0  0  0  0  0  0  0
   35.3436   38.0178   31.2811 H   0  0  0  0  0  0  0  0  0  0  0  0
   36.4928   37.5896   29.9825 H   0  0  0  0  0  0  0  0  0  0  0  0
   34.7393   37.4759   29.6932 H   0  0  0  0  0  0  0  0  0  0  0  0
   32.2806   37.6521   23.7100 H   0  0  0  0  0  0  0  0  0  0  0  0
   31.0394   38.4516   24.6875 H   0  0  0  0  0  0  0  0  0  0  0  0
   31.5520   36.7849   25.0745 H   0  0  0  0  0  0  0  0  0  0  0  0
  1  2  2  0  0  0  0
  1  6  1  0  0  0  0
  1  7  1  0  0  0  0
  2  3  1  0  0  0  0
  2 21  1  0  0  0  0
  3  4  2  0  0  0  0
  3 31  1  0  0  0  0
  4  5  1  0  0  0  0
  4 22  1  0  0  0  0
  5  6  2  0  0  0  0
  5 32  1  0  0  0  0
  6 33  1  0  0  0  0
  7  8  1  0  0  0  0
  7 34  1  0  0  0  0
  7 35  1  0  0  0  0
  8  9  1  0  0  0  0
  9 10  2  0  0  0  0
  9 14  1  0  0  0  0
 10 11  1  0  0  0  0
 10 23  1  0  0  0  0
 11 12  1  0  0  0  0
 11 24  2  0  0  0  0
 12 13  1  0  0  0  0
 12 15  1  0  0  0  0
 13 14  2  0  0  0  0
 13 25  1  0  0  0  0
 14 36  1  0  0  0  0
 15 16  2  0  0  0  0
 15 20  1  0  0  0  0
 16 17  1  0  0  0  0
 16 37  1  0  0  0  0
 17 18  2  0  0  0  0
 17 26  1  0  0  0  0
 18 19  1  0  0  0  0
 18 38  1  0  0  0  0
 19 20  2  0  0  0  0
 19 39  1  0  0  0  0
 20 30  1  0  0  0  0
 25 40  1  0  0  0  0
 25 41  1  0  0  0  0
 25 42  1  0  0  0  0
 26 27  2  0  0  0  0
 26 28  1  0  0  0  0
 28 29  1  0  0  0  0
 28 43  1  0  0  0  0
 29 44  1  0  0  0  0
 29 45  1  0  0  0  0
 29 46  1  0  0  0  0
 30 47  1  0  0  0  0
 30 48  1  0  0  0  0
 30 49  1  0  0  0  0
M  CHG  1  12   1
M  END
$$$$
