I47
 OpenBabel04091912563D

 48 51  0  0  0  0  0  0  0  0999 V2000
   35.5000   35.7716   20.0378 C   0  0  0  0  0  0  0  0  0  0  0  0
   35.0084   34.5237   20.1324 N   0  0  0  0  0  0  0  0  0  0  0  0
   34.3980   34.4861   21.3125 N   0  3  0  0  0  0  0  0  0  0  0  0
   34.4635   35.6555   22.0124 C   0  0  0  0  0  0  0  0  0  0  0  0
   35.1771   36.5350   21.2063 C   0  0  0  0  0  0  0  0  0  0  0  0
   36.2470   36.1868   18.8486 C   0  0  0  0  0  0  0  0  0  0  0  0
   35.4414   37.9347   21.5168 C   0  0  0  0  0  0  0  0  0  0  0  0
   33.8882   35.8224   23.3795 C   0  0  0  0  0  0  0  0  0  0  0  0
   35.7215   35.9158   17.5773 C   0  0  0  0  0  0  0  0  0  0  0  0
   36.3997   36.3305   16.4292 C   0  0  0  0  0  0  0  0  0  0  0  0
   37.6128   37.0060   16.5449 C   0  0  0  0  0  0  0  0  0  0  0  0
   38.1622   37.2635   17.7999 C   0  0  0  0  0  0  0  0  0  0  0  0
   37.4772   36.8543   18.9512 C   0  0  0  0  0  0  0  0  0  0  0  0
   35.7611   38.3738   22.7864 C   0  0  0  0  0  0  0  0  0  0  0  0
   35.9104   39.7270   22.9581 C   0  0  0  0  0  0  0  0  0  0  0  0
   35.7979   40.6082   21.9569 N   0  0  0  0  0  0  0  0  0  0  0  0
   35.5153   40.0848   20.7558 C   0  0  0  0  0  0  0  0  0  0  0  0
   35.3202   38.7870   20.4835 N   0  0  0  0  0  0  0  0  0  0  0  0
   32.5423   35.1256   23.5953 C   0  0  0  0  0  0  0  0  0  0  0  0
   32.0625   35.3673   25.0214 C   0  0  0  0  0  0  0  0  0  0  0  0
   33.0910   35.0402   26.0048 N   0  0  0  0  0  0  0  0  0  0  0  0
   34.4188   35.6013   25.8198 C   0  0  0  0  0  0  0  0  0  0  0  0
   34.9145   35.3385   24.4120 C   0  0  0  0  0  0  0  0  0  0  0  0
   38.4322   37.5353   15.1261 Cl  0  0  0  0  0  0  0  0  0  0  0  0
   32.7580   34.2835   27.1147 C   0  0  0  0  0  0  0  0  0  0  0  0
   31.9229   33.3817   27.0757 O   0  0  0  0  0  0  0  0  0  0  0  0
   33.4557   34.6941   28.4203 C   0  0  0  0  0  0  0  0  0  0  0  0
   33.0103   33.9668   29.5482 O   0  0  0  0  0  0  0  0  0  0  0  0
   33.9484   33.6109   21.5919 H   0  0  0  0  0  0  0  0  0  0  0  0
   33.6980   36.8907   23.5421 H   0  0  0  0  0  0  0  0  0  0  0  0
   34.7725   35.3908   17.4843 H   0  0  0  0  0  0  0  0  0  0  0  0
   35.9723   36.1232   15.4517 H   0  0  0  0  0  0  0  0  0  0  0  0
   39.1114   37.7920   17.8923 H   0  0  0  0  0  0  0  0  0  0  0  0
   37.9101   37.0692   19.9245 H   0  0  0  0  0  0  0  0  0  0  0  0
   35.8778   37.7247   23.6336 H   0  0  0  0  0  0  0  0  0  0  0  0
   36.1229   40.1439   23.9384 H   0  0  0  0  0  0  0  0  0  0  0  0
   35.4342   40.7752   19.9263 H   0  0  0  0  0  0  0  0  0  0  0  0
   32.6292   34.0456   23.4286 H   0  0  0  0  0  0  0  0  0  0  0  0
   31.7973   35.5074   22.8862 H   0  0  0  0  0  0  0  0  0  0  0  0
   31.1427   34.8074   25.2170 H   0  0  0  0  0  0  0  0  0  0  0  0
   31.8223   36.4300   25.1593 H   0  0  0  0  0  0  0  0  0  0  0  0
   35.1317   35.1315   26.5013 H   0  0  0  0  0  0  0  0  0  0  0  0
   34.3831   36.6718   26.0466 H   0  0  0  0  0  0  0  0  0  0  0  0
   35.8879   35.8210   24.2856 H   0  0  0  0  0  0  0  0  0  0  0  0
   35.1051   34.2656   24.2752 H   0  0  0  0  0  0  0  0  0  0  0  0
   33.2452   35.7566   28.5907 H   0  0  0  0  0  0  0  0  0  0  0  0
   34.5339   34.5496   28.3495 H   0  0  0  0  0  0  0  0  0  0  0  0
   33.0340   33.0297   29.2797 H   0  0  0  0  0  0  0  0  0  0  0  0
  1  2  1  0  0  0  0
  1  5  2  0  0  0  0
  1  6  1  0  0  0  0
  2  3  1  0  0  0  0
  3  4  2  0  0  0  0
  3 29  1  0  0  0  0
  4  5  1  0  0  0  0
  4  8  1  0  0  0  0
  5  7  1  0  0  0  0
  6  9  2  0  0  0  0
  6 13  1  0  0  0  0
  7 14  2  0  0  0  0
  7 18  1  0  0  0  0
  8 19  1  0  0  0  0
  8 23  1  0  0  0  0
  8 30  1  0  0  0  0
  9 10  1  0  0  0  0
  9 31  1  0  0  0  0
 10 11  2  0  0  0  0
 10 32  1  0  0  0  0
 11 12  1  0  0  0  0
 11 24  1  0  0  0  0
 12 13  2  0  0  0  0
 12 33  1  0  0  0  0
 13 34  1  0  0  0  0
 14 15  1  0  0  0  0
 14 35  1  0  0  0  0
 15 16  2  0  0  0  0
 15 36  1  0  0  0  0
 16 17  1  0  0  0  0
 17 18  2  0  0  0  0
 17 37  1  0  0  0  0
 19 20  1  0  0  0  0
 19 38  1  0  0  0  0
 19 39  1  0  0  0  0
 20 21  1  0  0  0  0
 20 40  1  0  0  0  0
 20 41  1  0  0  0  0
 21 22  1  0  0  0  0
 21 25  1  0  0  0  0
 22 23  1  0  0  0  0
 22 42  1  0  0  0  0
 22 43  1  0  0  0  0
 23 44  1  0  0  0  0
 23 45  1  0  0  0  0
 25 26  2  0  0  0  0
 25 27  1  0  0  0  0
 27 28  1  0  0  0  0
 27 46  1  0  0  0  0
 27 47  1  0  0  0  0
 28 48  1  0  0  0  0
M  CHG  1   3   1
M  END
$$$$
