IHP
 OpenBabel04091911403D

 42 42  0  0  1  0  0  0  0  0999 V2000
  -49.0246   -2.3729    4.0344 C   0  0  2  0  0  0  0  0  0  0  0  0
  -47.7506   -2.4236    4.8630 C   0  0  1  0  0  0  0  0  0  0  0  0
  -46.9115   -3.6163    4.4368 C   0  0  1  0  0  0  0  0  0  0  0  0
  -46.5809   -3.5835    2.9354 C   0  0  2  0  0  0  0  0  0  0  0  0
  -47.9218   -3.5600    2.1585 C   0  0  1  0  0  0  0  0  0  0  0  0
  -48.7077   -2.3090    2.5456 C   0  0  1  0  0  0  0  0  0  0  0  0
  -49.7948   -1.2147    4.3775 O   0  0  0  0  0  0  0  0  0  0  0  0
  -51.0332   -1.2915    5.3371 P   0  0  0  0  0  0  0  0  0  0  0  0
  -51.7760    0.0758    5.2612 O   0  0  0  0  0  0  0  0  0  0  0  0
  -50.6356   -1.5967    6.8026 O   0  0  0  0  0  0  0  0  0  0  0  0
  -52.0038   -2.4301    4.9211 O   0  0  0  0  0  0  0  0  0  0  0  0
  -46.9652   -1.2373    4.5998 O   0  0  0  0  0  0  0  0  0  0  0  0
  -46.8095   -0.1455    5.7602 P   0  0  0  0  0  0  0  0  0  0  0  0
  -46.4903    1.2009    5.0162 O   0  0  0  0  0  0  0  0  0  0  0  0
  -47.9932   -0.0271    6.6475 O   0  0  0  0  0  0  0  0  0  0  0  0
  -45.5425   -0.4763    6.6088 O   0  0  0  0  0  0  0  0  0  0  0  0
  -45.7160   -3.6201    5.2438 O   0  0  0  0  0  0  0  0  0  0  0  0
  -45.3052   -4.9695    5.9913 P   0  0  0  0  0  0  0  0  0  0  0  0
  -43.8553   -5.3754    5.6970 O   0  0  0  0  0  0  0  0  0  0  0  0
  -46.3171   -6.0991    5.7110 O   0  0  0  0  0  0  0  0  0  0  0  0
  -45.3323   -4.6683    7.5303 O   0  0  0  0  0  0  0  0  0  0  0  0
  -45.8362   -4.7811    2.5963 O   0  0  0  0  0  0  0  0  0  0  0  0
  -44.3129   -4.6509    2.0864 P   0  0  0  0  0  0  0  0  0  0  0  0
  -43.3699   -4.1626    3.1754 O   0  0  0  0  0  0  0  0  0  0  0  0
  -43.8753   -6.0836    1.6239 O   0  0  0  0  0  0  0  0  0  0  0  0
  -44.2157   -3.6891    0.9004 O   0  0  0  0  0  0  0  0  0  0  0  0
  -47.7025   -3.5292    0.7284 O   0  0  0  0  0  0  0  0  0  0  0  0
  -48.4418   -4.6100   -0.2009 P   0  0  0  0  0  0  0  0  0  0  0  0
  -48.9740   -5.8069    0.6119 O   0  0  0  0  0  0  0  0  0  0  0  0
  -49.6125   -4.0131   -1.0101 O   0  0  0  0  0  0  0  0  0  0  0  0
  -47.3959   -5.0757   -1.2502 O   0  0  0  0  0  0  0  0  0  0  0  0
  -49.9419   -2.2350    1.7915 O   0  0  0  0  0  0  0  0  0  0  0  0
  -50.2073   -0.9543    0.8409 P   0  0  0  0  0  0  0  0  0  0  0  0
  -49.7640   -1.2006   -0.6141 O   0  0  0  0  0  0  0  0  0  0  0  0
  -51.7571   -0.7525    0.8081 O   0  0  0  0  0  0  0  0  0  0  0  0
  -49.4964    0.3051    1.3247 O   0  0  0  0  0  0  0  0  0  0  0  0
  -49.6311   -3.2791    4.2444 H   0  0  0  0  0  0  0  0  0  0  0  0
  -47.9877   -2.4903    5.9295 H   0  0  0  0  0  0  0  0  0  0  0  0
  -47.4987   -4.5157    4.6365 H   0  0  0  0  0  0  0  0  0  0  0  0
  -45.9954   -2.6931    2.6848 H   0  0  0  0  0  0  0  0  0  0  0  0
  -48.4938   -4.4562    2.4277 H   0  0  0  0  0  0  0  0  0  0  0  0
  -48.0962   -1.4254    2.3392 H   0  0  0  0  0  0  0  0  0  0  0  0
  1  2  1  0  0  0  0
  1  6  1  0  0  0  0
  1  7  1  0  0  0  0
  1 37  1  1  0  0  0
  2  3  1  0  0  0  0
  2 12  1  0  0  0  0
  2 38  1  1  0  0  0
  3  4  1  0  0  0  0
  3 17  1  0  0  0  0
  3 39  1  1  0  0  0
  4  5  1  0  0  0  0
  4 22  1  0  0  0  0
  4 40  1  6  0  0  0
  5  6  1  0  0  0  0
  5 27  1  0  0  0  0
  5 41  1  1  0  0  0
  6 32  1  0  0  0  0
  6 42  1  6  0  0  0
  7  8  1  0  0  0  0
  8  9  2  0  0  0  0
  8 10  1  0  0  0  0
  8 11  1  0  0  0  0
 12 13  1  0  0  0  0
 13 14  2  0  0  0  0
 13 15  1  0  0  0  0
 13 16  1  0  0  0  0
 17 18  1  0  0  0  0
 18 19  2  0  0  0  0
 18 20  1  0  0  0  0
 18 21  1  0  0  0  0
 22 23  1  0  0  0  0
 23 24  2  0  0  0  0
 23 25  1  0  0  0  0
 23 26  1  0  0  0  0
 27 28  1  0  0  0  0
 28 29  2  0  0  0  0
 28 30  1  0  0  0  0
 28 31  1  0  0  0  0
 32 33  1  0  0  0  0
 33 34  2  0  0  0  0
 33 35  1  0  0  0  0
 33 36  1  0  0  0  0
M  END
$$$$
