IHP
 OpenBabel04091912373D

 42 42  0  0  1  0  0  0  0  0999 V2000
    6.4105   20.0678   39.0620 C   0  0  2  0  0  0  0  0  0  0  0  0
    7.5469   19.5069   39.9020 C   0  0  1  0  0  0  0  0  0  0  0  0
    7.4869   17.9697   39.8797 C   0  0  1  0  0  0  0  0  0  0  0  0
    7.5383   17.4009   38.4498 C   0  0  2  0  0  0  0  0  0  0  0  0
    6.3082   17.9675   37.7058 C   0  0  1  0  0  0  0  0  0  0  0  0
    6.4522   19.4977   37.6369 C   0  0  1  0  0  0  0  0  0  0  0  0
    6.5111   21.5154   38.9775 O   0  0  0  0  0  0  0  0  0  0  0  0
    5.6536   22.5187   39.8350 P   0  0  0  0  0  0  0  0  0  0  0  0
    6.0017   23.9517   39.2923 O   0  0  0  0  0  0  0  0  0  0  0  0
    5.9914   22.4388   41.3383 O   0  0  0  0  0  0  0  0  0  0  0  0
    4.1518   22.2524   39.6768 O   0  0  0  0  0  0  0  0  0  0  0  0
    8.7927   19.8967   39.2958 O   0  0  0  0  0  0  0  0  0  0  0  0
    9.7431   21.0374   39.9057 P   0  0  0  0  0  0  0  0  0  0  0  0
   10.3737   21.7572   38.6754 O   0  0  0  0  0  0  0  0  0  0  0  0
    9.0751   21.9743   40.8656 O   0  0  0  0  0  0  0  0  0  0  0  0
   10.9028   20.3037   40.6409 O   0  0  0  0  0  0  0  0  0  0  0  0
    8.5545   17.4518   40.6951 O   0  0  0  0  0  0  0  0  0  0  0  0
    8.3206   16.3091   41.8110 P   0  0  0  0  0  0  0  0  0  0  0  0
    9.1167   15.0916   41.5547 O   0  0  0  0  0  0  0  0  0  0  0  0
    6.7874   16.0142   41.9859 O   0  0  0  0  0  0  0  0  0  0  0  0
    8.7909   16.9220   43.1768 O   0  0  0  0  0  0  0  0  0  0  0  0
    7.4532   15.9653   38.4703 O   0  0  0  0  0  0  0  0  0  0  0  0
    8.6768   14.9837   38.0385 P   0  0  0  0  0  0  0  0  0  0  0  0
    9.8913   15.0816   38.9108 O   0  0  0  0  0  0  0  0  0  0  0  0
    8.0458   13.5528   38.0362 O   0  0  0  0  0  0  0  0  0  0  0  0
    9.1663   15.2996   36.5924 O   0  0  0  0  0  0  0  0  0  0  0  0
    6.1996   17.3657   36.3853 O   0  0  0  0  0  0  0  0  0  0  0  0
    4.7810   16.7799   35.8905 P   0  0  0  0  0  0  0  0  0  0  0  0
    3.8688   16.4563   37.1023 O   0  0  0  0  0  0  0  0  0  0  0  0
    4.0230   17.6874   34.9328 O   0  0  0  0  0  0  0  0  0  0  0  0
    5.0642   15.4753   35.0839 O   0  0  0  0  0  0  0  0  0  0  0  0
    5.3596   20.0533   36.9091 O   0  0  0  0  0  0  0  0  0  0  0  0
    5.6494   20.8312   35.5033 P   0  0  0  0  0  0  0  0  0  0  0  0
    5.5555   19.8761   34.3187 O   0  0  0  0  0  0  0  0  0  0  0  0
    4.4665   21.8567   35.4050 O   0  0  0  0  0  0  0  0  0  0  0  0
    6.9974   21.5145   35.4423 O   0  0  0  0  0  0  0  0  0  0  0  0
    5.4435   19.8304   39.5345 H   0  0  0  0  0  0  0  0  0  0  0  0
    7.4885   19.8743   40.9335 H   0  0  0  0  0  0  0  0  0  0  0  0
    6.5279   17.6723   40.3296 H   0  0  0  0  0  0  0  0  0  0  0  0
    8.4632   17.7004   37.9469 H   0  0  0  0  0  0  0  0  0  0  0  0
    5.4093   17.7282   38.2866 H   0  0  0  0  0  0  0  0  0  0  0  0
    7.4004   19.7630   37.1633 H   0  0  0  0  0  0  0  0  0  0  0  0
  1  2  1  0  0  0  0
  1  6  1  0  0  0  0
  1  7  1  0  0  0  0
  1 37  1  1  0  0  0
  2  3  1  0  0  0  0
  2 12  1  0  0  0  0
  2 38  1  1  0  0  0
  3  4  1  0  0  0  0
  3 17  1  0  0  0  0
  3 39  1  1  0  0  0
  4  5  1  0  0  0  0
  4 22  1  0  0  0  0
  4 40  1  6  0  0  0
  5  6  1  0  0  0  0
  5 27  1  0  0  0  0
  5 41  1  1  0  0  0
  6 32  1  0  0  0  0
  6 42  1  6  0  0  0
  7  8  1  0  0  0  0
  8  9  2  0  0  0  0
  8 10  1  0  0  0  0
  8 11  1  0  0  0  0
 12 13  1  0  0  0  0
 13 14  2  0  0  0  0
 13 15  1  0  0  0  0
 13 16  1  0  0  0  0
 17 18  1  0  0  0  0
 18 19  2  0  0  0  0
 18 20  1  0  0  0  0
 18 21  1  0  0  0  0
 22 23  1  0  0  0  0
 23 24  2  0  0  0  0
 23 25  1  0  0  0  0
 23 26  1  0  0  0  0
 27 28  1  0  0  0  0
 28 29  2  0  0  0  0
 28 30  1  0  0  0  0
 28 31  1  0  0  0  0
 32 33  1  0  0  0  0
 33 34  2  0  0  0  0
 33 35  1  0  0  0  0
 33 36  1  0  0  0  0
M  END
$$$$
