IHS
 OpenBabel04091913233D

 42 42  0  0  1  0  0  0  0  0999 V2000
   -5.4307   11.5697   35.3771 C   0  0  2  0  0  0  0  0  0  0  0  0
   -6.2837   12.4237   36.0074 O   0  0  0  0  0  0  0  0  0  0  0  0
   -6.4210   13.9399   35.4559 S   0  0  0  0  0  0  0  0  0  0  0  0
   -6.2372   10.5129   34.6653 C   0  0  1  0  0  0  0  0  0  0  0  0
   -5.3893   14.7000   36.1365 O   0  0  0  0  0  0  0  0  0  0  0  0
   -8.6819   10.3446   35.7364 S   0  0  0  0  0  0  0  0  0  0  0  0
   -5.2645    9.5597   34.0467 C   0  0  1  0  0  0  0  0  0  0  0  0
   -7.7930   14.2712   35.8863 O   0  0  0  0  0  0  0  0  0  0  0  0
   -6.3328    8.3898   32.0767 S   0  0  0  0  0  0  0  0  0  0  0  0
   -3.9220    9.3280   34.7468 C   0  0  2  0  0  0  0  0  0  0  0  0
   -6.2675   13.9649   33.9994 O   0  0  0  0  0  0  0  0  0  0  0  0
   -2.3063    7.6093   33.7180 S   0  0  0  0  0  0  0  0  0  0  0  0
   -3.3275   10.6214   35.3261 C   0  0  1  0  0  0  0  0  0  0  0  0
   -0.7839   11.2681   35.2426 S   0  0  0  0  0  0  0  0  0  0  0  0
   -4.3416   11.1388   36.3408 C   0  0  1  0  0  0  0  0  0  0  0  0
   -3.5612   12.4566   38.5636 S   0  0  0  0  0  0  0  0  0  0  0  0
   -7.1672    9.7804   35.4439 O   0  0  0  0  0  0  0  0  0  0  0  0
   -5.8871    8.3569   33.6432 O   0  0  0  0  0  0  0  0  0  0  0  0
   -3.1597    8.9515   33.6240 O   0  0  0  0  0  0  0  0  0  0  0  0
   -2.0509   10.4547   35.9072 O   0  0  0  0  0  0  0  0  0  0  0  0
   -3.8099   12.2987   36.9643 O   0  0  0  0  0  0  0  0  0  0  0  0
   -8.5522   10.9858   37.0549 O   0  0  0  0  0  0  0  0  0  0  0  0
   -6.8401    7.0500   31.8032 O   0  0  0  0  0  0  0  0  0  0  0  0
   -2.2059    7.0870   32.3372 O   0  0  0  0  0  0  0  0  0  0  0  0
   -0.8605   11.0862   33.7952 O   0  0  0  0  0  0  0  0  0  0  0  0
   -2.6744   11.3613   38.9484 O   0  0  0  0  0  0  0  0  0  0  0  0
   -9.0963   11.2053   34.6752 O   0  0  0  0  0  0  0  0  0  0  0  0
   -5.1176    8.7301   31.3455 O   0  0  0  0  0  0  0  0  0  0  0  0
   -3.0084    6.7100   34.6109 O   0  0  0  0  0  0  0  0  0  0  0  0
   -0.9458   12.6761   35.6214 O   0  0  0  0  0  0  0  0  0  0  0  0
   -4.8524   12.3820   39.2237 O   0  0  0  0  0  0  0  0  0  0  0  0
   -9.4749    9.1086   35.8440 O   0  0  0  0  0  0  0  0  0  0  0  0
   -7.3458    9.4335   31.9735 O   0  0  0  0  0  0  0  0  0  0  0  0
   -1.0135    8.0784   34.2220 O   0  0  0  0  0  0  0  0  0  0  0  0
    0.4042   10.6713   35.8586 O   0  0  0  0  0  0  0  0  0  0  0  0
   -2.9275   13.7824   38.7026 O   0  0  0  0  0  0  0  0  0  0  0  0
   -4.9290   12.1546   34.5763 H   0  0  0  0  0  0  0  0  0  0  0  0
   -6.7834   11.0091   33.8431 H   0  0  0  0  0  0  0  0  0  0  0  0
   -4.9483   10.0728   33.1421 H   0  0  0  0  0  0  0  0  0  0  0  0
   -3.9730    8.5722   35.5136 H   0  0  0  0  0  0  0  0  0  0  0  0
   -3.2304   11.3526   34.5156 H   0  0  0  0  0  0  0  0  0  0  0  0
   -4.6649   10.3809   37.0801 H   0  0  0  0  0  0  0  0  0  0  0  0
  1  2  1  0  0  0  0
  1  4  1  0  0  0  0
  1 15  1  0  0  0  0
  1 37  1  6  0  0  0
  2  3  1  0  0  0  0
  3  5  2  0  0  0  0
  3  8  2  0  0  0  0
  3 11  1  0  0  0  0
  4  7  1  0  0  0  0
  4 17  1  0  0  0  0
  4 38  1  6  0  0  0
  6 17  1  0  0  0  0
  6 22  2  0  0  0  0
  6 27  2  0  0  0  0
  6 32  1  0  0  0  0
  7 10  1  0  0  0  0
  7 18  1  0  0  0  0
  7 39  1  6  0  0  0
  9 18  1  0  0  0  0
  9 23  2  0  0  0  0
  9 28  2  0  0  0  0
  9 33  1  0  0  0  0
 10 13  1  0  0  0  0
 10 19  1  0  0  0  0
 10 40  1  1  0  0  0
 12 19  1  0  0  0  0
 12 24  2  0  0  0  0
 12 29  2  0  0  0  0
 12 34  1  0  0  0  0
 13 15  1  0  0  0  0
 13 20  1  0  0  0  0
 13 41  1  6  0  0  0
 14 20  1  0  0  0  0
 14 25  2  0  0  0  0
 14 30  2  0  0  0  0
 14 35  1  0  0  0  0
 15 21  1  0  0  0  0
 15 42  1  1  0  0  0
 16 21  1  0  0  0  0
 16 26  2  0  0  0  0
 16 31  2  0  0  0  0
 16 36  1  0  0  0  0
M  END
$$$$
