IPT
 OpenBabel04091916143D

 33 33  0  0  1  0  0  0  0  0999 V2000
  -14.7302  -27.5486  -26.2790 C   0  0  1  0  0  0  0  0  0  0  0  0
  -13.4065  -27.3708  -25.4904 C   0  0  2  0  0  0  0  0  0  0  0  0
  -13.4600  -26.1810  -24.6929 O   0  0  0  0  0  0  0  0  0  0  0  0
  -12.1831  -27.2570  -26.4120 C   0  0  1  0  0  0  0  0  0  0  0  0
  -10.9876  -27.3327  -25.6046 O   0  0  0  0  0  0  0  0  0  0  0  0
  -12.1766  -28.3220  -27.5122 C   0  0  1  0  0  0  0  0  0  0  0  0
  -11.8977  -29.6003  -26.9214 O   0  0  0  0  0  0  0  0  0  0  0  0
  -13.5561  -28.2984  -28.2032 C   0  0  2  0  0  0  0  0  0  0  0  0
  -14.5975  -28.5729  -27.2594 O   0  0  0  0  0  0  0  0  0  0  0  0
  -13.7059  -29.3141  -29.3275 C   0  0  0  0  0  0  0  0  0  0  0  0
  -12.6107  -29.2647  -30.2330 O   0  0  0  0  0  0  0  0  0  0  0  0
  -16.0074  -27.9880  -25.0250 S   0  0  0  0  0  0  0  0  0  0  0  0
  -17.5722  -28.3021  -25.9275 C   0  0  0  0  0  0  0  0  0  0  0  0
  -18.6223  -27.3426  -25.3631 C   0  0  0  0  0  0  0  0  0  0  0  0
  -17.5655  -28.2460  -27.4447 C   0  0  0  0  0  0  0  0  0  0  0  0
  -15.0050  -26.6071  -26.7687 H   0  0  0  0  0  0  0  0  0  0  0  0
  -13.2473  -28.2194  -24.8115 H   0  0  0  0  0  0  0  0  0  0  0  0
  -12.6015  -26.1039  -24.2580 H   0  0  0  0  0  0  0  0  0  0  0  0
  -12.1634  -26.2623  -26.8674 H   0  0  0  0  0  0  0  0  0  0  0  0
  -10.9479  -28.2493  -25.2615 H   0  0  0  0  0  0  0  0  0  0  0  0
  -11.3704  -28.1058  -28.2227 H   0  0  0  0  0  0  0  0  0  0  0  0
  -11.8678  -30.2511  -27.6423 H   0  0  0  0  0  0  0  0  0  0  0  0
  -13.7087  -27.2999  -28.6369 H   0  0  0  0  0  0  0  0  0  0  0  0
  -14.6347  -29.1235  -29.8769 H   0  0  0  0  0  0  0  0  0  0  0  0
  -13.7854  -30.3361  -28.9326 H   0  0  0  0  0  0  0  0  0  0  0  0
  -12.6147  -28.3916  -30.6634 H   0  0  0  0  0  0  0  0  0  0  0  0
  -17.8710  -29.3163  -25.6349 H   0  0  0  0  0  0  0  0  0  0  0  0
  -19.6075  -27.5417  -25.8005 H   0  0  0  0  0  0  0  0  0  0  0  0
  -18.3691  -26.2981  -25.5758 H   0  0  0  0  0  0  0  0  0  0  0  0
  -18.7267  -27.4601  -24.2780 H   0  0  0  0  0  0  0  0  0  0  0  0
  -18.5707  -28.4670  -27.8316 H   0  0  0  0  0  0  0  0  0  0  0  0
  -16.9060  -29.0056  -27.8686 H   0  0  0  0  0  0  0  0  0  0  0  0
  -17.2831  -27.2588  -27.8174 H   0  0  0  0  0  0  0  0  0  0  0  0
  1  2  1  0  0  0  0
  1  9  1  0  0  0  0
  1 12  1  0  0  0  0
  1 16  1  6  0  0  0
  2  3  1  0  0  0  0
  2  4  1  0  0  0  0
  2 17  1  1  0  0  0
  3 18  1  0  0  0  0
  4  5  1  0  0  0  0
  4  6  1  0  0  0  0
  4 19  1  6  0  0  0
  5 20  1  0  0  0  0
  6  7  1  0  0  0  0
  6  8  1  0  0  0  0
  6 21  1  6  0  0  0
  7 22  1  0  0  0  0
  8  9  1  0  0  0  0
  8 10  1  0  0  0  0
  8 23  1  6  0  0  0
 10 11  1  0  0  0  0
 10 24  1  0  0  0  0
 10 25  1  0  0  0  0
 11 26  1  0  0  0  0
 12 13  1  0  0  0  0
 13 14  1  0  0  0  0
 13 15  1  0  0  0  0
 13 27  1  0  0  0  0
 14 28  1  0  0  0  0
 14 29  1  0  0  0  0
 14 30  1  0  0  0  0
 15 31  1  0  0  0  0
 15 32  1  0  0  0  0
 15 33  1  0  0  0  0
M  END
$$$$
