IPT
 OpenBabel04091916123D

 33 33  0  0  1  0  0  0  0  0999 V2000
  -14.6980  -27.5703  -26.3152 C   0  0  1  0  0  0  0  0  0  0  0  0
  -13.3789  -27.3796  -25.5423 C   0  0  2  0  0  0  0  0  0  0  0  0
  -13.4654  -26.1797  -24.7518 O   0  0  0  0  0  0  0  0  0  0  0  0
  -12.1826  -27.2448  -26.4932 C   0  0  1  0  0  0  0  0  0  0  0  0
  -10.9677  -27.3017  -25.7210 O   0  0  0  0  0  0  0  0  0  0  0  0
  -12.1840  -28.3061  -27.6039 C   0  0  1  0  0  0  0  0  0  0  0  0
  -11.8512  -29.5737  -27.0253 O   0  0  0  0  0  0  0  0  0  0  0  0
  -13.5737  -28.3202  -28.2662 C   0  0  2  0  0  0  0  0  0  0  0  0
  -14.5875  -28.5926  -27.2980 O   0  0  0  0  0  0  0  0  0  0  0  0
  -13.7427  -29.3643  -29.3696 C   0  0  0  0  0  0  0  0  0  0  0  0
  -12.6542  -29.3565  -30.2781 O   0  0  0  0  0  0  0  0  0  0  0  0
  -16.0152  -28.0290  -25.1317 S   0  0  0  0  0  0  0  0  0  0  0  0
  -17.5127  -27.5312  -26.0475 C   0  0  0  0  0  0  0  0  0  0  0  0
  -17.7278  -28.3340  -27.3267 C   0  0  0  0  0  0  0  0  0  0  0  0
  -18.6854  -27.7406  -25.0880 C   0  0  0  0  0  0  0  0  0  0  0  0
  -14.9788  -26.6270  -26.8000 H   0  0  0  0  0  0  0  0  0  0  0  0
  -13.1971  -28.2211  -24.8568 H   0  0  0  0  0  0  0  0  0  0  0  0
  -12.5865  -26.0919  -24.3157 H   0  0  0  0  0  0  0  0  0  0  0  0
  -12.1951  -26.2461  -26.9502 H   0  0  0  0  0  0  0  0  0  0  0  0
  -10.8927  -28.2305  -25.4185 H   0  0  0  0  0  0  0  0  0  0  0  0
  -11.3984  -28.0699  -28.3329 H   0  0  0  0  0  0  0  0  0  0  0  0
  -11.8273  -30.2205  -27.7587 H   0  0  0  0  0  0  0  0  0  0  0  0
  -13.7607  -27.3316  -28.7088 H   0  0  0  0  0  0  0  0  0  0  0  0
  -14.6737  -29.1698  -29.9192 H   0  0  0  0  0  0  0  0  0  0  0  0
  -13.8469  -30.3705  -28.9485 H   0  0  0  0  0  0  0  0  0  0  0  0
  -12.6566  -28.5021  -30.7426 H   0  0  0  0  0  0  0  0  0  0  0  0
  -17.4478  -26.4623  -26.2916 H   0  0  0  0  0  0  0  0  0  0  0  0
  -18.6706  -28.0433  -27.8047 H   0  0  0  0  0  0  0  0  0  0  0  0
  -17.7803  -29.4091  -27.1237 H   0  0  0  0  0  0  0  0  0  0  0  0
  -16.9380  -28.1528  -28.0583 H   0  0  0  0  0  0  0  0  0  0  0  0
  -19.6288  -27.4555  -25.5606 H   0  0  0  0  0  0  0  0  0  0  0  0
  -18.5842  -27.1366  -24.1864 H   0  0  0  0  0  0  0  0  0  0  0  0
  -18.7741  -28.7924  -24.7853 H   0  0  0  0  0  0  0  0  0  0  0  0
  1  2  1  0  0  0  0
  1  9  1  0  0  0  0
  1 12  1  0  0  0  0
  1 16  1  6  0  0  0
  2  3  1  0  0  0  0
  2  4  1  0  0  0  0
  2 17  1  1  0  0  0
  3 18  1  0  0  0  0
  4  5  1  0  0  0  0
  4  6  1  0  0  0  0
  4 19  1  6  0  0  0
  5 20  1  0  0  0  0
  6  7  1  0  0  0  0
  6  8  1  0  0  0  0
  6 21  1  6  0  0  0
  7 22  1  0  0  0  0
  8  9  1  0  0  0  0
  8 10  1  0  0  0  0
  8 23  1  6  0  0  0
 10 11  1  0  0  0  0
 10 24  1  0  0  0  0
 10 25  1  0  0  0  0
 11 26  1  0  0  0  0
 12 13  1  0  0  0  0
 13 14  1  0  0  0  0
 13 15  1  0  0  0  0
 13 27  1  0  0  0  0
 14 28  1  0  0  0  0
 14 29  1  0  0  0  0
 14 30  1  0  0  0  0
 15 31  1  0  0  0  0
 15 32  1  0  0  0  0
 15 33  1  0  0  0  0
M  END
$$$$
