IPT
 OpenBabel04091915283D

 33 33  0  0  1  0  0  0  0  0999 V2000
  -14.6777  -27.5357  -26.4082 C   0  0  1  0  0  0  0  0  0  0  0  0
  -13.3900  -27.3307  -25.5959 C   0  0  2  0  0  0  0  0  0  0  0  0
  -13.5206  -26.1771  -24.7520 O   0  0  0  0  0  0  0  0  0  0  0  0
  -12.1966  -27.1067  -26.5336 C   0  0  1  0  0  0  0  0  0  0  0  0
  -10.9932  -27.1266  -25.7485 O   0  0  0  0  0  0  0  0  0  0  0  0
  -12.1365  -28.1516  -27.6683 C   0  0  1  0  0  0  0  0  0  0  0  0
  -11.7596  -29.4188  -27.1033 O   0  0  0  0  0  0  0  0  0  0  0  0
  -13.5181  -28.2064  -28.3472 C   0  0  2  0  0  0  0  0  0  0  0  0
  -14.5266  -28.5410  -27.4011 O   0  0  0  0  0  0  0  0  0  0  0  0
  -13.6119  -29.2132  -29.4899 C   0  0  0  0  0  0  0  0  0  0  0  0
  -12.4321  -29.2296  -30.2851 O   0  0  0  0  0  0  0  0  0  0  0  0
  -16.0055  -28.0317  -25.2563 S   0  0  0  0  0  0  0  0  0  0  0  0
  -17.4482  -27.3948  -26.1698 C   0  0  0  0  0  0  0  0  0  0  0  0
  -17.7509  -28.2470  -27.3947 C   0  0  0  0  0  0  0  0  0  0  0  0
  -18.6027  -27.4149  -25.1945 C   0  0  0  0  0  0  0  0  0  0  0  0
  -14.9604  -26.5921  -26.8884 H   0  0  0  0  0  0  0  0  0  0  0  0
  -13.1889  -28.2006  -24.9648 H   0  0  0  0  0  0  0  0  0  0  0  0
  -12.6692  -26.0874  -24.2839 H   0  0  0  0  0  0  0  0  0  0  0  0
  -12.2624  -26.1066  -26.9736 H   0  0  0  0  0  0  0  0  0  0  0  0
  -10.9114  -28.0421  -25.4132 H   0  0  0  0  0  0  0  0  0  0  0  0
  -11.3564  -27.8586  -28.3812 H   0  0  0  0  0  0  0  0  0  0  0  0
  -11.7096  -30.0428  -27.8552 H   0  0  0  0  0  0  0  0  0  0  0  0
  -13.7445  -27.2140  -28.7624 H   0  0  0  0  0  0  0  0  0  0  0  0
  -14.4657  -28.9631  -30.1291 H   0  0  0  0  0  0  0  0  0  0  0  0
  -13.7950  -30.2251  -29.1131 H   0  0  0  0  0  0  0  0  0  0  0  0
  -12.3015  -28.3368  -30.6470 H   0  0  0  0  0  0  0  0  0  0  0  0
  -17.2528  -26.3577  -26.4803 H   0  0  0  0  0  0  0  0  0  0  0  0
  -18.6457  -27.8663  -27.8997 H   0  0  0  0  0  0  0  0  0  0  0  0
  -17.9418  -29.2894  -27.1212 H   0  0  0  0  0  0  0  0  0  0  0  0
  -16.9380  -28.2209  -28.1254 H   0  0  0  0  0  0  0  0  0  0  0  0
  -19.5248  -27.0456  -25.6739 H   0  0  0  0  0  0  0  0  0  0  0  0
  -18.4059  -26.7717  -24.3297 H   0  0  0  0  0  0  0  0  0  0  0  0
  -18.8061  -28.4312  -24.8296 H   0  0  0  0  0  0  0  0  0  0  0  0
  1  2  1  0  0  0  0
  1  9  1  0  0  0  0
  1 12  1  0  0  0  0
  1 16  1  6  0  0  0
  2  3  1  0  0  0  0
  2  4  1  0  0  0  0
  2 17  1  1  0  0  0
  3 18  1  0  0  0  0
  4  5  1  0  0  0  0
  4  6  1  0  0  0  0
  4 19  1  6  0  0  0
  5 20  1  0  0  0  0
  6  7  1  0  0  0  0
  6  8  1  0  0  0  0
  6 21  1  6  0  0  0
  7 22  1  0  0  0  0
  8  9  1  0  0  0  0
  8 10  1  0  0  0  0
  8 23  1  6  0  0  0
 10 11  1  0  0  0  0
 10 24  1  0  0  0  0
 10 25  1  0  0  0  0
 11 26  1  0  0  0  0
 12 13  1  0  0  0  0
 13 14  1  0  0  0  0
 13 15  1  0  0  0  0
 13 27  1  0  0  0  0
 14 28  1  0  0  0  0
 14 29  1  0  0  0  0
 14 30  1  0  0  0  0
 15 31  1  0  0  0  0
 15 32  1  0  0  0  0
 15 33  1  0  0  0  0
M  END
$$$$
