IPT
 OpenBabel04091915333D

 33 33  0  0  1  0  0  0  0  0999 V2000
  -14.8412  -27.5941  -26.0810 C   0  0  1  0  0  0  0  0  0  0  0  0
  -13.5066  -27.3313  -25.3322 C   0  0  2  0  0  0  0  0  0  0  0  0
  -13.5740  -26.1632  -24.5015 O   0  0  0  0  0  0  0  0  0  0  0  0
  -12.3407  -27.1438  -26.3107 C   0  0  1  0  0  0  0  0  0  0  0  0
  -11.1173  -27.1523  -25.5521 O   0  0  0  0  0  0  0  0  0  0  0  0
  -12.3053  -28.2399  -27.3766 C   0  0  1  0  0  0  0  0  0  0  0  0
  -11.9632  -29.4722  -26.7252 O   0  0  0  0  0  0  0  0  0  0  0  0
  -13.6792  -28.2961  -28.0611 C   0  0  2  0  0  0  0  0  0  0  0  0
  -14.6785  -28.6075  -27.0797 O   0  0  0  0  0  0  0  0  0  0  0  0
  -13.7659  -29.3441  -29.1780 C   0  0  0  0  0  0  0  0  0  0  0  0
  -12.7111  -29.2233  -30.1217 O   0  0  0  0  0  0  0  0  0  0  0  0
  -16.0525  -28.1780  -24.8231 S   0  0  0  0  0  0  0  0  0  0  0  0
  -17.6587  -28.2821  -25.7065 C   0  0  0  0  0  0  0  0  0  0  0  0
  -18.6371  -27.3258  -25.0209 C   0  0  0  0  0  0  0  0  0  0  0  0
  -17.6697  -28.0657  -27.2128 C   0  0  0  0  0  0  0  0  0  0  0  0
  -15.2125  -26.6665  -26.5314 H   0  0  0  0  0  0  0  0  0  0  0  0
  -13.2683  -28.1802  -24.6772 H   0  0  0  0  0  0  0  0  0  0  0  0
  -12.6701  -26.0439  -24.1472 H   0  0  0  0  0  0  0  0  0  0  0  0
  -12.4083  -26.1570  -26.7830 H   0  0  0  0  0  0  0  0  0  0  0  0
  -10.8829  -28.0979  -25.4412 H   0  0  0  0  0  0  0  0  0  0  0  0
  -11.5035  -28.0297  -28.0956 H   0  0  0  0  0  0  0  0  0  0  0  0
  -12.7928  -29.8780  -26.3922 H   0  0  0  0  0  0  0  0  0  0  0  0
  -13.8986  -27.3154  -28.5051 H   0  0  0  0  0  0  0  0  0  0  0  0
  -14.7202  -29.2399  -29.7087 H   0  0  0  0  0  0  0  0  0  0  0  0
  -13.7557  -30.3593  -28.7672 H   0  0  0  0  0  0  0  0  0  0  0  0
  -12.8074  -28.3758  -30.5903 H   0  0  0  0  0  0  0  0  0  0  0  0
  -18.0155  -29.3017  -25.5184 H   0  0  0  0  0  0  0  0  0  0  0  0
  -19.6427  -27.4402  -25.4424 H   0  0  0  0  0  0  0  0  0  0  0  0
  -18.3411  -26.2788  -25.1485 H   0  0  0  0  0  0  0  0  0  0  0  0
  -18.7180  -27.5342  -23.9473 H   0  0  0  0  0  0  0  0  0  0  0  0
  -18.6905  -28.1839  -27.5974 H   0  0  0  0  0  0  0  0  0  0  0  0
  -17.0599  -28.8096  -27.7314 H   0  0  0  0  0  0  0  0  0  0  0  0
  -17.3356  -27.0624  -27.4916 H   0  0  0  0  0  0  0  0  0  0  0  0
  1  2  1  0  0  0  0
  1  9  1  0  0  0  0
  1 12  1  0  0  0  0
  1 16  1  6  0  0  0
  2  3  1  0  0  0  0
  2  4  1  0  0  0  0
  2 17  1  1  0  0  0
  3 18  1  0  0  0  0
  4  5  1  0  0  0  0
  4  6  1  0  0  0  0
  4 19  1  6  0  0  0
  5 20  1  0  0  0  0
  6  7  1  0  0  0  0
  6  8  1  0  0  0  0
  6 21  1  6  0  0  0
  7 22  1  0  0  0  0
  8  9  1  0  0  0  0
  8 10  1  0  0  0  0
  8 23  1  6  0  0  0
 10 11  1  0  0  0  0
 10 24  1  0  0  0  0
 10 25  1  0  0  0  0
 11 26  1  0  0  0  0
 12 13  1  0  0  0  0
 13 14  1  0  0  0  0
 13 15  1  0  0  0  0
 13 27  1  0  0  0  0
 14 28  1  0  0  0  0
 14 29  1  0  0  0  0
 14 30  1  0  0  0  0
 15 31  1  0  0  0  0
 15 32  1  0  0  0  0
 15 33  1  0  0  0  0
M  END
$$$$
