IPT
 OpenBabel04091913523D

 33 33  0  0  1  0  0  0  0  0999 V2000
   14.7383   27.5720   75.7863 C   0  0  1  0  0  0  0  0  0  0  0  0
   13.4382   27.4353   76.6065 C   0  0  2  0  0  0  0  0  0  0  0  0
   13.5039   26.3583   77.5554 O   0  0  0  0  0  0  0  0  0  0  0  0
   12.2689   27.1430   75.6575 C   0  0  1  0  0  0  0  0  0  0  0  0
   11.0541   27.1135   76.4132 O   0  0  0  0  0  0  0  0  0  0  0  0
   12.1778   28.1977   74.5546 C   0  0  1  0  0  0  0  0  0  0  0  0
   11.8123   29.4405   75.1749 O   0  0  0  0  0  0  0  0  0  0  0  0
   13.5357   28.2750   73.8309 C   0  0  2  0  0  0  0  0  0  0  0  0
   14.6009   28.5462   74.7478 O   0  0  0  0  0  0  0  0  0  0  0  0
   13.5615   29.3630   72.7497 C   0  0  0  0  0  0  0  0  0  0  0  0
   12.4561   29.2374   71.8638 O   0  0  0  0  0  0  0  0  0  0  0  0
   16.1186   28.0501   76.9021 S   0  0  0  0  0  0  0  0  0  0  0  0
   17.5312   27.9261   75.7475 C   0  0  0  0  0  0  0  0  0  0  0  0
   17.6897   29.2180   74.9517 C   0  0  0  0  0  0  0  0  0  0  0  0
   18.7945   27.6580   76.5653 C   0  0  0  0  0  0  0  0  0  0  0  0
   15.0011   26.6031   75.3462 H   0  0  0  0  0  0  0  0  0  0  0  0
   13.2313   28.3561   77.1676 H   0  0  0  0  0  0  0  0  0  0  0  0
   12.6091   26.3092   77.9465 H   0  0  0  0  0  0  0  0  0  0  0  0
   12.3849   26.1461   75.2214 H   0  0  0  0  0  0  0  0  0  0  0  0
   10.8132   28.0512   76.5566 H   0  0  0  0  0  0  0  0  0  0  0  0
   11.3678   27.9380   73.8641 H   0  0  0  0  0  0  0  0  0  0  0  0
   11.6885   30.0939   74.4606 H   0  0  0  0  0  0  0  0  0  0  0  0
   13.7307   27.3100   73.3459 H   0  0  0  0  0  0  0  0  0  0  0  0
   14.4924   29.3100   72.1742 H   0  0  0  0  0  0  0  0  0  0  0  0
   13.5336   30.3594   73.1974 H   0  0  0  0  0  0  0  0  0  0  0  0
   12.5965   28.4407   71.3213 H   0  0  0  0  0  0  0  0  0  0  0  0
   17.3733   27.0831   75.0691 H   0  0  0  0  0  0  0  0  0  0  0  0
   18.5658   29.1548   74.2951 H   0  0  0  0  0  0  0  0  0  0  0  0
   17.8329   30.0844   75.6076 H   0  0  0  0  0  0  0  0  0  0  0  0
   16.8296   29.4166   74.3087 H   0  0  0  0  0  0  0  0  0  0  0  0
   19.6677   27.5822   75.9056 H   0  0  0  0  0  0  0  0  0  0  0  0
   18.7222   26.7148   77.1169 H   0  0  0  0  0  0  0  0  0  0  0  0
   18.9974   28.4614   77.2833 H   0  0  0  0  0  0  0  0  0  0  0  0
  1  2  1  0  0  0  0
  1  9  1  0  0  0  0
  1 12  1  0  0  0  0
  1 16  1  6  0  0  0
  2  3  1  0  0  0  0
  2  4  1  0  0  0  0
  2 17  1  1  0  0  0
  3 18  1  0  0  0  0
  4  5  1  0  0  0  0
  4  6  1  0  0  0  0
  4 19  1  6  0  0  0
  5 20  1  0  0  0  0
  6  7  1  0  0  0  0
  6  8  1  0  0  0  0
  6 21  1  6  0  0  0
  7 22  1  0  0  0  0
  8  9  1  0  0  0  0
  8 10  1  0  0  0  0
  8 23  1  6  0  0  0
 10 11  1  0  0  0  0
 10 24  1  0  0  0  0
 10 25  1  0  0  0  0
 11 26  1  0  0  0  0
 12 13  1  0  0  0  0
 13 14  1  0  0  0  0
 13 15  1  0  0  0  0
 13 27  1  0  0  0  0
 14 28  1  0  0  0  0
 14 29  1  0  0  0  0
 14 30  1  0  0  0  0
 15 31  1  0  0  0  0
 15 32  1  0  0  0  0
 15 33  1  0  0  0  0
M  END
$$$$
