IX6
 OpenBabel04091912563D

 73 77  0  0  1  0  0  0  0  0999 V2000
   39.3418    3.8085  -19.0270 C   0  0  0  0  0  0  0  0  0  0  0  0
   38.9813    3.7641  -17.6844 C   0  0  0  0  0  0  0  0  0  0  0  0
   37.9473    2.9278  -17.2683 C   0  0  0  0  0  0  0  0  0  0  0  0
   37.2438    2.1406  -18.1964 C   0  0  0  0  0  0  0  0  0  0  0  0
   37.5839    2.1861  -19.5578 C   0  0  0  0  0  0  0  0  0  0  0  0
   38.6499    3.0213  -19.9435 C   0  0  0  0  0  0  0  0  0  0  0  0
   34.8591    1.5580  -18.4162 C   0  0  2  0  0  0  0  0  0  0  0  0
   35.6742   -0.0768  -21.9316 C   0  0  0  0  0  0  0  0  0  0  0  0
   34.4010    3.6316  -19.9059 C   0  0  0  0  0  0  0  0  0  0  0  0
   34.5476    3.0484  -18.6379 C   0  0  0  0  0  0  0  0  0  0  0  0
   34.2108    5.0079  -20.0581 C   0  0  0  0  0  0  0  0  0  0  0  0
   34.1573    5.8421  -18.9477 C   0  0  0  0  0  0  0  0  0  0  0  0
   34.4736    3.9052  -17.5333 C   0  0  0  0  0  0  0  0  0  0  0  0
   33.5139    0.8584  -22.8923 C   0  0  0  0  0  0  0  0  0  0  0  0
   31.3005    7.3378  -20.0129 C   0  0  0  0  0  0  0  0  0  0  0  0
   39.0018    3.0217  -21.2718 O   0  0  0  0  0  0  0  0  0  0  0  0
   36.2126    0.5324  -16.6040 C   0  0  0  0  0  0  0  0  0  0  0  0
   37.5329    0.0293  -16.1956 C   0  0  0  0  0  0  0  0  0  0  0  0
   38.4633   -0.6287  -16.9821 C   0  0  0  0  0  0  0  0  0  0  0  0
   39.1648   -0.5290  -14.9443 C   0  0  0  0  0  0  0  0  0  0  0  0
   40.1166   -0.7946  -13.8459 C   0  0  0  0  0  0  0  0  0  0  0  0
   38.5236   -1.0444  -18.3936 C   0  0  0  0  0  0  0  0  0  0  0  0
   34.6277    3.4117  -16.2963 F   0  0  0  0  0  0  0  0  0  0  0  0
   34.2903    5.2805  -17.6779 C   0  0  0  0  0  0  0  0  0  0  0  0
   33.9698    7.1992  -18.9770 O   0  0  0  0  0  0  0  0  0  0  0  0
   33.7506    7.8234  -20.2521 C   0  0  0  0  0  0  0  0  0  0  0  0
   32.3582    7.5753  -20.8027 C   0  0  0  0  0  0  0  0  0  0  0  0
   32.2209    7.5719  -22.3020 C   0  0  0  0  0  0  0  0  0  0  0  0
   36.1571    1.3414  -17.7468 N   0  0  0  0  0  0  0  0  0  0  0  0
   38.0023    0.0745  -14.8933 N   0  0  0  0  0  0  0  0  0  0  0  0
   39.5217   -0.9785  -16.1879 O   0  0  0  0  0  0  0  0  0  0  0  0
   35.2035    0.1714  -16.0022 O   0  0  0  0  0  0  0  0  0  0  0  0
   34.8358    0.7018  -19.6676 C   0  0  0  0  0  0  0  0  0  0  0  0
   33.3901   -0.2517  -19.8056 S   0  0  0  0  0  0  0  0  0  0  0  0
   32.2632    0.6502  -19.9304 O   0  0  0  0  0  0  0  0  0  0  0  0
   33.4025   -1.2594  -18.7635 O   0  0  0  0  0  0  0  0  0  0  0  0
   33.5033   -1.1404  -21.3329 C   0  0  0  0  0  0  0  0  0  0  0  0
   34.2607   -0.4075  -22.4324 C   0  0  0  0  0  0  0  0  0  0  0  0
   34.3899   -1.3473  -23.6492 C   0  0  0  0  0  0  0  0  0  0  0  0
   35.7974    0.6869  -20.6199 C   0  0  0  0  0  0  0  0  0  0  0  0
   36.9625    1.4290  -20.5765 N   0  0  0  0  0  0  0  0  0  0  0  0
   40.1531    4.4577  -19.3394 H   0  0  0  0  0  0  0  0  0  0  0  0
   39.4947    4.3887  -16.9576 H   0  0  0  0  0  0  0  0  0  0  0  0
   37.6548    2.9390  -16.2180 H   0  0  0  0  0  0  0  0  0  0  0  0
   34.0682    1.2052  -17.7408 H   0  0  0  0  0  0  0  0  0  0  0  0
   36.1675    0.5033  -22.7241 H   0  0  0  0  0  0  0  0  0  0  0  0
   36.2656   -0.9980  -21.8248 H   0  0  0  0  0  0  0  0  0  0  0  0
   34.4622    3.0433  -20.8137 H   0  0  0  0  0  0  0  0  0  0  0  0
   34.1110    5.3850  -21.0702 H   0  0  0  0  0  0  0  0  0  0  0  0
   32.5180    0.6090  -23.2755 H   0  0  0  0  0  0  0  0  0  0  0  0
   34.0601    1.3716  -23.6916 H   0  0  0  0  0  0  0  0  0  0  0  0
   33.3760    1.5814  -22.0874 H   0  0  0  0  0  0  0  0  0  0  0  0
   30.3127    7.1357  -20.4156 H   0  0  0  0  0  0  0  0  0  0  0  0
   31.3979    7.3310  -18.9290 H   0  0  0  0  0  0  0  0  0  0  0  0
   39.7289    3.6552  -21.3919 H   0  0  0  0  0  0  0  0  0  0  0  0
   39.7335   -0.3788  -12.9084 H   0  0  0  0  0  0  0  0  0  0  0  0
   41.0864   -0.3343  -14.0530 H   0  0  0  0  0  0  0  0  0  0  0  0
   40.2602   -1.8703  -13.7071 H   0  0  0  0  0  0  0  0  0  0  0  0
   39.4308   -1.6145  -18.6157 H   0  0  0  0  0  0  0  0  0  0  0  0
   38.5395   -0.1798  -19.0514 H   0  0  0  0  0  0  0  0  0  0  0  0
   37.6550   -1.6575  -18.6527 H   0  0  0  0  0  0  0  0  0  0  0  0
   34.2586    5.9051  -16.7920 H   0  0  0  0  0  0  0  0  0  0  0  0
   34.5436    7.5405  -20.9549 H   0  0  0  0  0  0  0  0  0  0  0  0
   33.8632    8.9039  -20.0953 H   0  0  0  0  0  0  0  0  0  0  0  0
   31.1970    7.3401  -22.6139 H   0  0  0  0  0  0  0  0  0  0  0  0
   32.8741    6.8171  -22.7480 H   0  0  0  0  0  0  0  0  0  0  0  0
   32.4826    8.5507  -22.7160 H   0  0  0  0  0  0  0  0  0  0  0  0
   32.4768   -1.3698  -21.6439 H   0  0  0  0  0  0  0  0  0  0  0  0
   33.9941   -2.0944  -21.1051 H   0  0  0  0  0  0  0  0  0  0  0  0
   34.9431   -0.8674  -24.4647 H   0  0  0  0  0  0  0  0  0  0  0  0
   33.4059   -1.6363  -24.0342 H   0  0  0  0  0  0  0  0  0  0  0  0
   34.9252   -2.2667  -23.3839 H   0  0  0  0  0  0  0  0  0  0  0  0
   37.5341    1.4579  -21.4251 H   0  0  0  0  0  0  0  0  0  0  0  0
  1  2  2  0  0  0  0
  1  6  1  0  0  0  0
  1 42  1  0  0  0  0
  2  3  1  0  0  0  0
  2 43  1  0  0  0  0
  3  4  2  0  0  0  0
  3 44  1  0  0  0  0
  4  5  1  0  0  0  0
  4 29  1  0  0  0  0
  5  6  2  0  0  0  0
  5 41  1  0  0  0  0
  6 16  1  0  0  0  0
  7 10  1  0  0  0  0
  7 29  1  0  0  0  0
  7 33  1  0  0  0  0
  7 45  1  1  0  0  0
  8 38  1  0  0  0  0
  8 40  1  0  0  0  0
  8 46  1  0  0  0  0
  8 47  1  0  0  0  0
  9 10  2  0  0  0  0
  9 11  1  0  0  0  0
  9 48  1  0  0  0  0
 10 13  1  0  0  0  0
 11 12  2  0  0  0  0
 11 49  1  0  0  0  0
 12 24  1  0  0  0  0
 12 25  1  0  0  0  0
 13 23  1  0  0  0  0
 13 24  2  0  0  0  0
 14 38  1  0  0  0  0
 14 50  1  0  0  0  0
 14 51  1  0  0  0  0
 14 52  1  0  0  0  0
 15 27  2  0  0  0  0
 15 53  1  0  0  0  0
 15 54  1  0  0  0  0
 16 55  1  0  0  0  0
 17 18  1  0  0  0  0
 17 29  1  0  0  0  0
 17 32  2  0  0  0  0
 18 19  2  0  0  0  0
 18 30  1  0  0  0  0
 19 22  1  0  0  0  0
 19 31  1  0  0  0  0
 20 21  1  0  0  0  0
 20 30  2  0  0  0  0
 20 31  1  0  0  0  0
 21 56  1  0  0  0  0
 21 57  1  0  0  0  0
 21 58  1  0  0  0  0
 22 59  1  0  0  0  0
 22 60  1  0  0  0  0
 22 61  1  0  0  0  0
 24 62  1  0  0  0  0
 25 26  1  0  0  0  0
 26 27  1  0  0  0  0
 26 63  1  0  0  0  0
 26 64  1  0  0  0  0
 27 28  1  0  0  0  0
 28 65  1  0  0  0  0
 28 66  1  0  0  0  0
 28 67  1  0  0  0  0
 33 34  1  0  0  0  0
 33 40  2  0  0  0  0
 34 35  2  0  0  0  0
 34 36  2  0  0  0  0
 34 37  1  0  0  0  0
 37 38  1  0  0  0  0
 37 68  1  0  0  0  0
 37 69  1  0  0  0  0
 38 39  1  0  0  0  0
 39 70  1  0  0  0  0
 39 71  1  0  0  0  0
 39 72  1  0  0  0  0
 40 41  1  0  0  0  0
 41 73  1  0  0  0  0
M  END
$$$$
