IXY
 OpenBabel04091916373D

 66 70  0  0  1  0  0  0  0  0999 V2000
   48.3727   11.3065    9.5074 C   0  0  0  0  0  0  0  0  0  0  0  0
   47.5365   10.0023    9.2670 C   0  0  0  0  0  0  0  0  0  0  0  0
   46.1550    9.8684    9.0962 C   0  0  0  0  0  0  0  0  0  0  0  0
   45.3880   11.1882    9.1112 C   0  0  0  0  0  0  0  0  0  0  0  0
   46.1390   12.3427    9.8460 C   0  0  0  0  0  0  0  0  0  0  0  0
   47.5309   12.5583    9.2583 C   0  0  0  0  0  0  0  0  0  0  0  0
   48.2825    8.4715    9.2037 S   0  0  0  0  0  0  0  0  0  0  0  0
   46.8934    7.5325    8.9363 C   0  0  0  0  0  0  0  0  0  0  0  0
   45.7564    8.3478    8.8686 C   0  0  0  0  0  0  0  0  0  0  0  0
   44.4444    7.6618    8.6705 C   0  0  0  0  0  0  0  0  0  0  0  0
   43.5717    7.6854    9.4707 O   0  0  0  0  0  0  0  0  0  0  0  0
   44.3858    6.8460    7.5269 N   0  0  0  0  0  0  0  0  0  0  0  0
   43.1543    6.1410    7.1479 C   0  0  0  0  0  0  0  0  0  0  0  0
   42.0913    7.0819    6.6670 C   0  0  0  0  0  0  0  0  0  0  0  0
   42.4206    8.3625    6.2207 C   0  0  0  0  0  0  0  0  0  0  0  0
   41.4288    9.2339    5.7832 C   0  0  0  0  0  0  0  0  0  0  0  0
   40.0952    8.8354    5.7722 C   0  0  0  0  0  0  0  0  0  0  0  0
   39.7517    7.5554    6.1941 C   0  0  0  0  0  0  0  0  0  0  0  0
   40.7496    6.6861    6.6371 C   0  0  0  0  0  0  0  0  0  0  0  0
   47.0650    6.1478    8.7916 N   0  0  0  0  0  0  0  0  0  0  0  0
   46.7462    5.2846    9.8036 C   0  0  0  0  0  0  0  0  0  0  0  0
   46.3362    5.5785   10.9152 O   0  0  0  0  0  0  0  0  0  0  0  0
   46.9513    3.8044    9.4417 C   0  0  0  0  0  0  0  0  0  0  0  0
   46.2016    2.9394   10.3952 N   0  3  0  0  0  0  0  0  0  0  0  0
   44.7315    2.8430   10.2242 C   0  0  0  0  0  0  0  0  0  0  0  0
   44.1863    1.8584   11.2458 C   0  0  0  0  0  0  0  0  0  0  0  0
   42.7249    1.6991   11.0332 C   0  0  1  0  0  0  0  0  0  0  0  0
   41.7616    2.6650   11.1919 C   0  0  0  0  0  0  0  0  0  0  0  0
   40.5242    2.1412   10.8890 N   0  3  0  0  0  0  0  0  0  0  0  0
   40.6959    0.8169   10.5181 C   0  0  1  0  0  0  0  0  0  0  0  0
   42.0678    0.5315   10.5988 C   0  0  2  0  0  0  0  0  0  0  0  0
   42.5635   -0.7436   10.2814 C   0  0  0  0  0  0  0  0  0  0  0  0
   41.6517   -1.7173    9.8982 C   0  0  0  0  0  0  0  0  0  0  0  0
   40.2899   -1.4248    9.8215 C   0  0  0  0  0  0  0  0  0  0  0  0
   39.7756   -0.1557   10.1229 C   0  0  0  0  0  0  0  0  0  0  0  0
   49.2566   11.3520    8.8436 H   0  0  0  0  0  0  0  0  0  0  0  0
   48.7521   11.3550   10.5474 H   0  0  0  0  0  0  0  0  0  0  0  0
   44.4295   11.0780    9.6148 H   0  0  0  0  0  0  0  0  0  0  0  0
   45.2467   11.5375    8.0810 H   0  0  0  0  0  0  0  0  0  0  0  0
   46.2441   12.0975   10.9131 H   0  0  0  0  0  0  0  0  0  0  0  0
   45.5684   13.2738    9.7578 H   0  0  0  0  0  0  0  0  0  0  0  0
   47.4468   12.7362    8.1783 H   0  0  0  0  0  0  0  0  0  0  0  0
   47.9955   13.4489    9.7146 H   0  0  0  0  0  0  0  0  0  0  0  0
   45.1326    6.8851    6.8606 H   0  0  0  0  0  0  0  0  0  0  0  0
   42.8042    5.5710    8.0204 H   0  0  0  0  0  0  0  0  0  0  0  0
   43.4119    5.4247    6.3512 H   0  0  0  0  0  0  0  0  0  0  0  0
   43.4555    8.6969    6.2260 H   0  0  0  0  0  0  0  0  0  0  0  0
   41.6988   10.2286    5.4448 H   0  0  0  0  0  0  0  0  0  0  0  0
   39.3269    9.5243    5.4332 H   0  0  0  0  0  0  0  0  0  0  0  0
   38.7120    7.2370    6.1771 H   0  0  0  0  0  0  0  0  0  0  0  0
   40.4719    5.6906    6.9658 H   0  0  0  0  0  0  0  0  0  0  0  0
   47.3885    5.7534    7.9124 H   0  0  0  0  0  0  0  0  0  0  0  0
   48.0092    3.5345    9.5436 H   0  0  0  0  0  0  0  0  0  0  0  0
   46.5989    3.5824    8.4344 H   0  0  0  0  0  0  0  0  0  0  0  0
   46.5935    1.9992   10.3462 H   0  0  0  0  0  0  0  0  0  0  0  0
   44.5360    2.4893    9.2093 H   0  0  0  0  0  0  0  0  0  0  0  0
   44.2962    3.8329   10.3793 H   0  0  0  0  0  0  0  0  0  0  0  0
   44.3811    2.2284   12.2614 H   0  0  0  0  0  0  0  0  0  0  0  0
   44.7096    0.8951   11.1385 H   0  0  0  0  0  0  0  0  0  0  0  0
   41.8863    3.6873   11.5119 H   0  0  0  0  0  0  0  0  0  0  0  0
   39.6313    2.6405   10.9319 H   0  0  0  0  0  0  0  0  0  0  0  0
   43.6240   -0.9730   10.3395 H   0  0  0  0  0  0  0  0  0  0  0  0
   42.0048   -2.7157    9.6571 H   0  0  0  0  0  0  0  0  0  0  0  0
   39.6052   -2.2126    9.5163 H   0  0  0  0  0  0  0  0  0  0  0  0
   38.7099    0.0385   10.0476 H   0  0  0  0  0  0  0  0  0  0  0  0
   46.3679    3.3363   11.3340 H   0  0  0  0  0  0  0  0  0  0  0  0
  1  2  1  0  0  0  0
  1  6  1  0  0  0  0
  1 36  1  0  0  0  0
  1 37  1  0  0  0  0
  2  3  2  0  0  0  0
  2  7  1  0  0  0  0
  3  4  1  0  0  0  0
  3  9  1  0  0  0  0
  4  5  1  0  0  0  0
  4 38  1  0  0  0  0
  4 39  1  0  0  0  0
  5  6  1  0  0  0  0
  5 40  1  0  0  0  0
  5 41  1  0  0  0  0
  6 42  1  0  0  0  0
  6 43  1  0  0  0  0
  7  8  1  0  0  0  0
  8  9  2  0  0  0  0
  8 20  1  0  0  0  0
  9 10  1  0  0  0  0
 10 11  2  0  0  0  0
 10 12  1  0  0  0  0
 12 13  1  0  0  0  0
 12 44  1  0  0  0  0
 13 14  1  0  0  0  0
 13 45  1  0  0  0  0
 13 46  1  0  0  0  0
 14 15  2  0  0  0  0
 14 19  1  0  0  0  0
 15 16  1  0  0  0  0
 15 47  1  0  0  0  0
 16 17  2  0  0  0  0
 16 48  1  0  0  0  0
 17 18  1  0  0  0  0
 17 49  1  0  0  0  0
 18 19  2  0  0  0  0
 18 50  1  0  0  0  0
 19 51  1  0  0  0  0
 20 21  1  0  0  0  0
 20 52  1  0  0  0  0
 21 22  2  0  0  0  0
 21 23  1  0  0  0  0
 23 24  1  0  0  0  0
 23 53  1  0  0  0  0
 23 54  1  0  0  0  0
 24 25  1  0  0  0  0
 24 55  1  0  0  0  0
 24 66  1  0  0  0  0
 25 26  1  0  0  0  0
 25 56  1  0  0  0  0
 25 57  1  0  0  0  0
 26 58  1  0  0  0  0
 26 59  1  0  0  0  0
 27 26  1  6  0  0  0
 27 28  1  0  0  0  0
 27 31  1  0  0  0  0
 28 29  1  0  0  0  0
 28 60  1  0  0  0  0
 29 61  1  0  0  0  0
 30 29  1  1  0  0  0
 30 31  1  0  0  0  0
 30 35  1  0  0  0  0
 31 32  1  1  0  0  0
 32 33  1  0  0  0  0
 32 62  1  0  0  0  0
 33 34  1  0  0  0  0
 33 63  1  0  0  0  0
 34 35  1  0  0  0  0
 34 64  1  0  0  0  0
 35 65  1  0  0  0  0
M  CHG  2  24   1  29   1
M  END
$$$$
