IXZ
 OpenBabel04091916373D

 59 62  0  0  0  0  0  0  0  0999 V2000
   46.4089    5.8378   10.8399 O   0  0  0  0  0  0  0  0  0  0  0  0
   47.0828    5.5812    9.8414 C   0  0  0  0  0  0  0  0  0  0  0  0
   47.5606    4.1363    9.6634 C   0  0  0  0  0  0  0  0  0  0  0  0
   46.5924    3.2103   10.3677 N   0  3  0  0  0  0  0  0  0  0  0  0
   45.3679    2.9835    9.5578 C   0  0  0  0  0  0  0  0  0  0  0  0
   44.3333    2.1529   10.2394 C   0  0  0  0  0  0  0  0  0  0  0  0
   44.4303    0.7547   10.2338 C   0  0  0  0  0  0  0  0  0  0  0  0
   43.4303   -0.0176   10.8212 C   0  0  0  0  0  0  0  0  0  0  0  0
   42.3329    0.5992   11.4194 C   0  0  0  0  0  0  0  0  0  0  0  0
   42.2332    1.9890   11.4367 C   0  0  0  0  0  0  0  0  0  0  0  0
   43.2319    2.7663   10.8540 C   0  0  0  0  0  0  0  0  0  0  0  0
   47.3970    6.4522    8.8156 N   0  0  0  0  0  0  0  0  0  0  0  0
   46.8613    7.7289    8.8164 C   0  0  0  0  0  0  0  0  0  0  0  0
   47.9706    9.0092    8.7712 S   0  0  0  0  0  0  0  0  0  0  0  0
   45.5388    8.1349    8.8259 C   0  0  0  0  0  0  0  0  0  0  0  0
   45.4510    9.5890    8.7857 C   0  0  0  0  0  0  0  0  0  0  0  0
   44.2350   10.4098    8.7179 C   0  0  0  0  0  0  0  0  0  0  0  0
   44.1112   11.5679    9.4672 C   0  0  0  0  0  0  0  0  0  0  0  0
   42.9236   12.3040    9.4032 C   0  0  0  0  0  0  0  0  0  0  0  0
   41.8536   11.8851    8.6155 C   0  0  0  0  0  0  0  0  0  0  0  0
   41.9739   10.7343    7.8614 C   0  0  0  0  0  0  0  0  0  0  0  0
   43.1701    9.9978    7.8989 C   0  0  0  0  0  0  0  0  0  0  0  0
   46.7117   10.1814    8.7941 C   0  0  0  0  0  0  0  0  0  0  0  0
   44.4056    7.2387    8.8332 C   0  0  0  0  0  0  0  0  0  0  0  0
   43.5188    7.2906    9.6817 O   0  0  0  0  0  0  0  0  0  0  0  0
   44.3840    6.2877    7.8067 N   0  0  0  0  0  0  0  0  0  0  0  0
   43.1905    5.5035    7.5660 C   0  0  0  0  0  0  0  0  0  0  0  0
   42.0147    6.2909    7.0539 C   0  0  0  0  0  0  0  0  0  0  0  0
   42.1317    7.1112    5.9249 C   0  0  0  0  0  0  0  0  0  0  0  0
   41.0410    7.8578    5.4781 C   0  0  0  0  0  0  0  0  0  0  0  0
   39.8169    7.7706    6.1390 C   0  0  0  0  0  0  0  0  0  0  0  0
   39.6798    6.9391    7.2476 C   0  0  0  0  0  0  0  0  0  0  0  0
   40.7724    6.1999    7.7014 C   0  0  0  0  0  0  0  0  0  0  0  0
   48.5406    3.9885   10.1216 H   0  0  0  0  0  0  0  0  0  0  0  0
   47.5820    3.8475    8.6086 H   0  0  0  0  0  0  0  0  0  0  0  0
   47.0210    2.3210   10.6456 H   0  0  0  0  0  0  0  0  0  0  0  0
   45.6863    2.4963    8.6307 H   0  0  0  0  0  0  0  0  0  0  0  0
   44.9590    3.9638    9.3034 H   0  0  0  0  0  0  0  0  0  0  0  0
   45.2638    0.2490    9.7503 H   0  0  0  0  0  0  0  0  0  0  0  0
   43.4969   -1.1037   10.8063 H   0  0  0  0  0  0  0  0  0  0  0  0
   41.5499   -0.0055   11.8718 H   0  0  0  0  0  0  0  0  0  0  0  0
   41.3714    2.4656   11.9004 H   0  0  0  0  0  0  0  0  0  0  0  0
   43.1236    3.8515   10.8677 H   0  0  0  0  0  0  0  0  0  0  0  0
   48.1925    6.2953    8.2042 H   0  0  0  0  0  0  0  0  0  0  0  0
   44.9070   11.9213   10.1169 H   0  0  0  0  0  0  0  0  0  0  0  0
   42.8193   13.1718   10.0451 H   0  0  0  0  0  0  0  0  0  0  0  0
   40.9184   12.4495    8.5891 H   0  0  0  0  0  0  0  0  0  0  0  0
   41.1460   10.3719    7.2567 H   0  0  0  0  0  0  0  0  0  0  0  0
   43.2384    9.1033    7.3008 H   0  0  0  0  0  0  0  0  0  0  0  0
   46.9469   11.2360    8.7822 H   0  0  0  0  0  0  0  0  0  0  0  0
   45.0849    6.3499    7.0812 H   0  0  0  0  0  0  0  0  0  0  0  0
   42.9289    5.0042    8.5052 H   0  0  0  0  0  0  0  0  0  0  0  0
   43.4451    4.7309    6.8336 H   0  0  0  0  0  0  0  0  0  0  0  0
   43.0832    7.2059    5.4092 H   0  0  0  0  0  0  0  0  0  0  0  0
   41.1512    8.5231    4.6254 H   0  0  0  0  0  0  0  0  0  0  0  0
   38.9690    8.3565    5.7927 H   0  0  0  0  0  0  0  0  0  0  0  0
   38.7258    6.8750    7.7661 H   0  0  0  0  0  0  0  0  0  0  0  0
   40.6474    5.5662    8.5780 H   0  0  0  0  0  0  0  0  0  0  0  0
   46.3048    3.6843   11.2444 H   0  0  0  0  0  0  0  0  0  0  0  0
  1  2  2  0  0  0  0
  2  3  1  0  0  0  0
  2 12  1  0  0  0  0
  3  4  1  0  0  0  0
  3 34  1  0  0  0  0
  3 35  1  0  0  0  0
  4  5  1  0  0  0  0
  4 36  1  0  0  0  0
  4 59  1  0  0  0  0
  5  6  1  0  0  0  0
  5 37  1  0  0  0  0
  5 38  1  0  0  0  0
  6  7  2  0  0  0  0
  6 11  1  0  0  0  0
  7  8  1  0  0  0  0
  7 39  1  0  0  0  0
  8  9  2  0  0  0  0
  8 40  1  0  0  0  0
  9 10  1  0  0  0  0
  9 41  1  0  0  0  0
 10 11  2  0  0  0  0
 10 42  1  0  0  0  0
 11 43  1  0  0  0  0
 12 13  1  0  0  0  0
 12 44  1  0  0  0  0
 13 14  1  0  0  0  0
 13 15  2  0  0  0  0
 14 23  1  0  0  0  0
 15 16  1  0  0  0  0
 15 24  1  0  0  0  0
 16 17  1  0  0  0  0
 16 23  2  0  0  0  0
 17 18  2  0  0  0  0
 17 22  1  0  0  0  0
 18 19  1  0  0  0  0
 18 45  1  0  0  0  0
 19 20  2  0  0  0  0
 19 46  1  0  0  0  0
 20 21  1  0  0  0  0
 20 47  1  0  0  0  0
 21 22  2  0  0  0  0
 21 48  1  0  0  0  0
 22 49  1  0  0  0  0
 23 50  1  0  0  0  0
 24 25  2  0  0  0  0
 24 26  1  0  0  0  0
 26 27  1  0  0  0  0
 26 51  1  0  0  0  0
 27 28  1  0  0  0  0
 27 52  1  0  0  0  0
 27 53  1  0  0  0  0
 28 29  2  0  0  0  0
 28 33  1  0  0  0  0
 29 30  1  0  0  0  0
 29 54  1  0  0  0  0
 30 31  2  0  0  0  0
 30 55  1  0  0  0  0
 31 32  1  0  0  0  0
 31 56  1  0  0  0  0
 32 33  2  0  0  0  0
 32 57  1  0  0  0  0
 33 58  1  0  0  0  0
M  CHG  1   4   1
M  END
$$$$
