J45
 OpenBabel04091913433D

 29 30  0  0  0  0  0  0  0  0999 V2000
   -5.9548    7.9524   11.2025 N   0  0  0  0  0  0  0  0  0  0  0  0
   -6.5061    6.9549   11.8890 C   0  0  0  0  0  0  0  0  0  0  0  0
   -5.8616    6.1375   12.7153 N   0  0  0  0  0  0  0  0  0  0  0  0
   -4.5290    6.3290   12.9354 C   0  0  0  0  0  0  0  0  0  0  0  0
   -3.8750    7.3359   12.2614 C   0  0  0  0  0  0  0  0  0  0  0  0
   -4.6329    8.1155   11.4080 C   0  0  0  0  0  0  0  0  0  0  0  0
   -3.8465    5.4008   13.7520 N   0  0  0  0  0  0  0  0  0  0  0  0
   -4.3745    4.3856   14.5754 C   0  0  0  0  0  0  0  0  0  0  0  0
   -3.5048    3.4132   15.0984 C   0  0  0  0  0  0  0  0  0  0  0  0
   -4.0057    2.3289   15.8341 C   0  0  0  0  0  0  0  0  0  0  0  0
   -5.3861    2.2028   16.0285 C   0  0  0  0  0  0  0  0  0  0  0  0
   -6.2620    3.1523   15.5196 C   0  0  0  0  0  0  0  0  0  0  0  0
   -5.7455    4.2296   14.8011 C   0  0  0  0  0  0  0  0  0  0  0  0
   -6.0385    0.8325   16.9181 S   0  0  0  0  0  0  0  0  0  0  0  0
   -5.4182    0.8247   18.2213 O   0  0  0  0  0  0  0  0  0  0  0  0
   -7.4740    0.8040   16.7487 O   0  0  0  0  0  0  0  0  0  0  0  0
   -5.4650   -0.4818   16.0609 N   0  0  0  0  0  0  0  0  0  0  0  0
   -2.4924    7.5369   12.4344 N   0  0  0  0  0  0  0  0  0  0  0  0
   -2.0701    7.6816   13.5884 O   0  0  0  0  0  0  0  0  0  0  0  0
   -1.7852    7.4626   11.4234 O   0  0  0  0  0  0  0  0  0  0  0  0
   -4.0109    9.4290   10.4722 Cl  0  0  0  0  0  0  0  0  0  0  0  0
   -7.5700    6.7723   11.7678 H   0  0  0  0  0  0  0  0  0  0  0  0
   -2.8833    5.6246   13.9771 H   0  0  0  0  0  0  0  0  0  0  0  0
   -2.4327    3.4895   14.9375 H   0  0  0  0  0  0  0  0  0  0  0  0
   -3.3150    1.5954   16.2404 H   0  0  0  0  0  0  0  0  0  0  0  0
   -7.3345    3.0780   15.6679 H   0  0  0  0  0  0  0  0  0  0  0  0
   -6.4777    4.9465   14.4481 H   0  0  0  0  0  0  0  0  0  0  0  0
   -5.4940   -1.3625   16.5717 H   0  0  0  0  0  0  0  0  0  0  0  0
   -4.7285   -0.3367   15.3760 H   0  0  0  0  0  0  0  0  0  0  0  0
  1  2  2  0  0  0  0
  1  6  1  0  0  0  0
  2  3  1  0  0  0  0
  2 22  1  0  0  0  0
  3  4  2  0  0  0  0
  4  5  1  0  0  0  0
  4  7  1  0  0  0  0
  5  6  2  0  0  0  0
  5 18  1  0  0  0  0
  6 21  1  0  0  0  0
  7  8  1  0  0  0  0
  7 23  1  0  0  0  0
  8  9  2  0  0  0  0
  8 13  1  0  0  0  0
  9 10  1  0  0  0  0
  9 24  1  0  0  0  0
 10 11  2  0  0  0  0
 10 25  1  0  0  0  0
 11 12  1  0  0  0  0
 11 14  1  0  0  0  0
 12 13  2  0  0  0  0
 12 26  1  0  0  0  0
 13 27  1  0  0  0  0
 14 15  2  0  0  0  0
 14 16  2  0  0  0  0
 14 17  1  0  0  0  0
 17 28  1  0  0  0  0
 17 29  1  0  0  0  0
 18 19  2  0  0  0  0
 18 20  2  0  0  0  0
M  END
$$$$
