J71
 OpenBabel04091913483D

 36 37  0  0  0  0  0  0  0  0999 V2000
   -3.3117    9.9134   11.0352 N   0  0  0  0  0  0  0  0  0  0  0  0
   -2.4977    9.1383   11.7976 C   0  0  0  0  0  0  0  0  0  0  0  0
   -2.7906    7.9173   12.3027 N   0  0  0  0  0  0  0  0  0  0  0  0
   -4.0257    7.3980   11.9911 C   0  0  0  0  0  0  0  0  0  0  0  0
   -4.9520    8.1473   11.1879 C   0  0  0  0  0  0  0  0  0  0  0  0
   -4.5643    9.4415   10.7533 C   0  0  0  0  0  0  0  0  0  0  0  0
   -4.3248    6.1670   12.5547 N   0  0  0  0  0  0  0  0  0  0  0  0
   -4.0714    4.3159   14.1846 C   0  0  0  0  0  0  0  0  0  0  0  0
   -5.4155    4.3075   14.6050 C   0  0  0  0  0  0  0  0  0  0  0  0
   -5.8826    3.2377   15.3721 C   0  0  0  0  0  0  0  0  0  0  0  0
   -5.0191    2.1817   15.7028 C   0  0  0  0  0  0  0  0  0  0  0  0
   -3.6837    2.1736   15.3008 C   0  0  0  0  0  0  0  0  0  0  0  0
   -3.2258    3.2428   14.5457 C   0  0  0  0  0  0  0  0  0  0  0  0
   -5.6899    0.8197   16.6200 S   0  0  0  0  0  0  0  0  0  0  0  0
   -5.0680    0.9529   17.9601 O   0  0  0  0  0  0  0  0  0  0  0  0
   -7.0926    0.7675   16.4237 O   0  0  0  0  0  0  0  0  0  0  0  0
   -4.9650   -0.4944   15.9195 N   0  0  0  0  0  0  0  0  0  0  0  0
   -6.2380    7.5034   10.8838 N   0  0  0  0  0  0  0  0  0  0  0  0
   -6.1791    6.3898   10.3033 O   0  0  0  0  0  0  0  0  0  0  0  0
   -7.2754    7.9516   11.4104 O   0  0  0  0  0  0  0  0  0  0  0  0
   -5.2939   10.2380    9.8579 O   0  0  0  0  0  0  0  0  0  0  0  0
   -5.6576   11.6206   10.2193 C   0  0  0  0  0  0  0  0  0  0  0  0
   -3.3982    5.4305   13.3890 C   0  0  0  0  0  0  0  0  0  0  0  0
   -1.4990    9.5469   12.0279 H   0  0  0  0  0  0  0  0  0  0  0  0
   -5.1836    5.6867   12.3250 H   0  0  0  0  0  0  0  0  0  0  0  0
   -6.1048    5.1075   14.3282 H   0  0  0  0  0  0  0  0  0  0  0  0
   -6.9021    3.2154   15.7593 H   0  0  0  0  0  0  0  0  0  0  0  0
   -2.9967    1.3820   15.5918 H   0  0  0  0  0  0  0  0  0  0  0  0
   -2.1953    3.2537   14.2007 H   0  0  0  0  0  0  0  0  0  0  0  0
   -5.1150   -1.4094   16.3320 H   0  0  0  0  0  0  0  0  0  0  0  0
   -4.3144   -0.3808   15.1490 H   0  0  0  0  0  0  0  0  0  0  0  0
   -6.1902   12.1251    9.3754 H   0  0  0  0  0  0  0  0  0  0  0  0
   -4.8076   12.2777   10.4690 H   0  0  0  0  0  0  0  0  0  0  0  0
   -6.3781   11.6136   11.0481 H   0  0  0  0  0  0  0  0  0  0  0  0
   -2.8972    6.1015   14.0946 H   0  0  0  0  0  0  0  0  0  0  0  0
   -2.6337    4.9532   12.7572 H   0  0  0  0  0  0  0  0  0  0  0  0
  1  2  2  0  0  0  0
  1  6  1  0  0  0  0
  2  3  1  0  0  0  0
  2 24  1  0  0  0  0
  3  4  2  0  0  0  0
  4  5  1  0  0  0  0
  4  7  1  0  0  0  0
  5  6  2  0  0  0  0
  5 18  1  0  0  0  0
  6 21  1  0  0  0  0
  7 23  1  0  0  0  0
  7 25  1  0  0  0  0
  8  9  2  0  0  0  0
  8 13  1  0  0  0  0
  8 23  1  0  0  0  0
  9 10  1  0  0  0  0
  9 26  1  0  0  0  0
 10 11  2  0  0  0  0
 10 27  1  0  0  0  0
 11 12  1  0  0  0  0
 11 14  1  0  0  0  0
 12 13  2  0  0  0  0
 12 28  1  0  0  0  0
 13 29  1  0  0  0  0
 14 15  2  0  0  0  0
 14 16  2  0  0  0  0
 14 17  1  0  0  0  0
 17 30  1  0  0  0  0
 17 31  1  0  0  0  0
 18 19  2  0  0  0  0
 18 20  2  0  0  0  0
 21 22  1  0  0  0  0
 22 32  1  0  0  0  0
 22 33  1  0  0  0  0
 22 34  1  0  0  0  0
 23 35  1  0  0  0  0
 23 36  1  0  0  0  0
M  END
$$$$
