J75
 OpenBabel04091913483D

 47 49  0  0  0  0  0  0  0  0999 V2000
   -3.3845    9.9065   11.1072 N   0  0  0  0  0  0  0  0  0  0  0  0
   -2.4830    9.2246   11.8610 C   0  0  0  0  0  0  0  0  0  0  0  0
   -2.7641    8.0314   12.4952 N   0  0  0  0  0  0  0  0  0  0  0  0
   -4.0096    7.5157   12.3690 C   0  0  0  0  0  0  0  0  0  0  0  0
   -4.9790    8.1747   11.6107 C   0  0  0  0  0  0  0  0  0  0  0  0
   -4.6256    9.3725   10.9801 C   0  0  0  0  0  0  0  0  0  0  0  0
   -4.2863    6.3126   13.0159 N   0  0  0  0  0  0  0  0  0  0  0  0
   -4.0261    4.4378   14.6000 C   0  0  0  0  0  0  0  0  0  0  0  0
   -3.2493    3.3285   14.9811 C   0  0  0  0  0  0  0  0  0  0  0  0
   -3.8084    2.2355   15.6765 C   0  0  0  0  0  0  0  0  0  0  0  0
   -5.1630    2.2429   16.0273 C   0  0  0  0  0  0  0  0  0  0  0  0
   -5.9619    3.3112   15.6425 C   0  0  0  0  0  0  0  0  0  0  0  0
   -5.3975    4.4077   14.9314 C   0  0  0  0  0  0  0  0  0  0  0  0
   -5.8560    0.8607   16.9050 S   0  0  0  0  0  0  0  0  0  0  0  0
   -7.2879    0.8148   16.6727 O   0  0  0  0  0  0  0  0  0  0  0  0
   -5.2970    0.8003   18.2357 O   0  0  0  0  0  0  0  0  0  0  0  0
   -5.2346   -0.4715   16.0494 N   0  0  0  0  0  0  0  0  0  0  0  0
   -6.3538    7.6638   11.4894 N   0  0  0  0  0  0  0  0  0  0  0  0
   -7.0664    8.1212   10.5516 O   0  0  0  0  0  0  0  0  0  0  0  0
   -6.7699    6.7985   12.2504 O   0  0  0  0  0  0  0  0  0  0  0  0
   -5.5971   10.0874   10.2707 N   0  0  0  0  0  0  0  0  0  0  0  0
   -5.4364   11.3619    9.6003 C   0  0  0  0  0  0  0  0  0  0  0  0
   -5.7552   12.6079   10.4198 C   0  0  0  0  0  0  0  0  0  0  0  0
   -4.7245   13.2752   11.1131 C   0  0  0  0  0  0  0  0  0  0  0  0
   -4.9560   14.4859   11.7875 C   0  0  0  0  0  0  0  0  0  0  0  0
   -6.2300   15.0523   11.7913 C   0  0  0  0  0  0  0  0  0  0  0  0
   -7.2596   14.4287   11.0817 C   0  0  0  0  0  0  0  0  0  0  0  0
   -7.0245   13.2176   10.3990 C   0  0  0  0  0  0  0  0  0  0  0  0
   -3.3535    5.6150   13.8735 C   0  0  0  0  0  0  0  0  0  0  0  0
   -1.4828    9.6400   11.9650 H   0  0  0  0  0  0  0  0  0  0  0  0
   -5.2057    5.8930   12.9037 H   0  0  0  0  0  0  0  0  0  0  0  0
   -2.1930    3.3020   14.7109 H   0  0  0  0  0  0  0  0  0  0  0  0
   -3.1678    1.4005   15.9527 H   0  0  0  0  0  0  0  0  0  0  0  0
   -7.0236    3.3466   15.8940 H   0  0  0  0  0  0  0  0  0  0  0  0
   -6.0496    5.2246   14.6192 H   0  0  0  0  0  0  0  0  0  0  0  0
   -5.4869   -1.4288   16.3216 H   0  0  0  0  0  0  0  0  0  0  0  0
   -4.7015   -0.3184   15.1987 H   0  0  0  0  0  0  0  0  0  0  0  0
   -6.4609    9.5766   10.0317 H   0  0  0  0  0  0  0  0  0  0  0  0
   -6.1115   11.3651    8.7279 H   0  0  0  0  0  0  0  0  0  0  0  0
   -4.4174   11.4297    9.2384 H   0  0  0  0  0  0  0  0  0  0  0  0
   -3.7203   12.8506   11.1122 H   0  0  0  0  0  0  0  0  0  0  0  0
   -4.1352   14.9850   12.3120 H   0  0  0  0  0  0  0  0  0  0  0  0
   -6.4127   15.9785   12.3499 H   0  0  0  0  0  0  0  0  0  0  0  0
   -8.2528   14.8829   11.0571 H   0  0  0  0  0  0  0  0  0  0  0  0
   -7.8368   12.7591    9.8302 H   0  0  0  0  0  0  0  0  0  0  0  0
   -2.9301    6.3069   14.6126 H   0  0  0  0  0  0  0  0  0  0  0  0
   -2.5358    5.2206   13.2558 H   0  0  0  0  0  0  0  0  0  0  0  0
  1  2  2  0  0  0  0
  1  6  1  0  0  0  0
  2  3  1  0  0  0  0
  2 30  1  0  0  0  0
  3  4  2  0  0  0  0
  4  5  1  0  0  0  0
  4  7  1  0  0  0  0
  5  6  2  0  0  0  0
  5 18  1  0  0  0  0
  6 21  1  0  0  0  0
  7 29  1  0  0  0  0
  7 31  1  0  0  0  0
  8  9  2  0  0  0  0
  8 13  1  0  0  0  0
  8 29  1  0  0  0  0
  9 10  1  0  0  0  0
  9 32  1  0  0  0  0
 10 11  2  0  0  0  0
 10 33  1  0  0  0  0
 11 12  1  0  0  0  0
 11 14  1  0  0  0  0
 12 13  2  0  0  0  0
 12 34  1  0  0  0  0
 13 35  1  0  0  0  0
 14 15  2  0  0  0  0
 14 16  2  0  0  0  0
 14 17  1  0  0  0  0
 17 36  1  0  0  0  0
 17 37  1  0  0  0  0
 18 19  2  0  0  0  0
 18 20  2  0  0  0  0
 21 22  1  0  0  0  0
 21 38  1  0  0  0  0
 22 23  1  0  0  0  0
 22 39  1  0  0  0  0
 22 40  1  0  0  0  0
 23 24  2  0  0  0  0
 23 28  1  0  0  0  0
 24 25  1  0  0  0  0
 24 41  1  0  0  0  0
 25 26  2  0  0  0  0
 25 42  1  0  0  0  0
 26 27  1  0  0  0  0
 26 43  1  0  0  0  0
 27 28  2  0  0  0  0
 27 44  1  0  0  0  0
 28 45  1  0  0  0  0
 29 46  1  0  0  0  0
 29 47  1  0  0  0  0
M  END
$$$$
