J8Z
 OpenBabel04091913103D

 45 47  0  0  1  0  0  0  0  0999 V2000
   13.3246    2.8496    1.2851 N   0  0  0  0  0  0  0  0  0  0  0  0
   14.6508    2.8307    1.9506 C   0  0  1  0  0  0  0  0  0  0  0  0
   15.3537    1.4911    1.6774 C   0  0  0  0  0  0  0  0  0  0  0  0
   16.7162    1.5600    2.0507 O   0  0  0  0  0  0  0  0  0  0  0  0
   12.1973    3.3930    1.8802 C   0  0  0  0  0  0  0  0  0  0  0  0
   12.1635    3.7174    3.0668 O   0  0  0  0  0  0  0  0  0  0  0  0
   17.1500    0.4939    3.2157 P   0  0  0  0  0  0  0  0  0  0  0  0
   17.2301   -0.8113    2.4384 O   0  0  0  0  0  0  0  0  0  0  0  0
   18.4742    1.0299    3.7308 O   0  0  0  0  0  0  0  0  0  0  0  0
   16.0043    0.5793    4.2132 O   0  0  0  0  0  0  0  0  0  0  0  0
   11.0498    3.5852    0.9887 C   0  0  0  0  0  0  0  0  0  0  0  0
   10.7820    2.9420   -0.1977 C   0  0  0  0  0  0  0  0  0  0  0  0
    9.5636    3.3649   -0.8224 C   0  0  0  0  0  0  0  0  0  0  0  0
    8.9135    4.3630   -0.1035 C   0  0  0  0  0  0  0  0  0  0  0  0
    9.8042    4.7189    1.3433 S   0  0  0  0  0  0  0  0  0  0  0  0
    9.0005    2.8959   -2.0255 C   0  0  0  0  0  0  0  0  0  0  0  0
    7.8175    3.4533   -2.5064 C   0  0  0  0  0  0  0  0  0  0  0  0
    7.1733    4.4530   -1.7916 C   0  0  0  0  0  0  0  0  0  0  0  0
    7.7046    4.9256   -0.5773 C   0  0  0  0  0  0  0  0  0  0  0  0
   15.5294    3.9814    1.4005 C   0  0  0  0  0  0  0  0  0  0  0  0
   14.0259    5.9889    0.9940 C   0  0  0  0  0  0  0  0  0  0  0  0
   15.0506    5.3787    1.7283 C   0  0  0  0  0  0  0  0  0  0  0  0
   15.6383    6.0813    2.7869 C   0  0  0  0  0  0  0  0  0  0  0  0
   15.2220    7.3801    3.1048 C   0  0  0  0  0  0  0  0  0  0  0  0
   14.1845    7.9657    2.3694 C   0  0  0  0  0  0  0  0  0  0  0  0
   13.5809    7.2675    1.3248 C   0  0  0  0  0  0  0  0  0  0  0  0
   15.8833    8.1368    4.2146 C   0  0  0  0  0  0  0  0  0  0  0  0
   13.3512    2.6688    0.2960 H   0  0  0  0  0  0  0  0  0  0  0  0
   14.5215    2.9595    3.0326 H   0  0  0  0  0  0  0  0  0  0  0  0
   15.3012    1.2443    0.6110 H   0  0  0  0  0  0  0  0  0  0  0  0
   14.8275    0.6851    2.1959 H   0  0  0  0  0  0  0  0  0  0  0  0
   11.4031    2.1684   -0.6081 H   0  0  0  0  0  0  0  0  0  0  0  0
    9.4984    2.1096   -2.5747 H   0  0  0  0  0  0  0  0  0  0  0  0
    7.4108    3.0967   -3.4474 H   0  0  0  0  0  0  0  0  0  0  0  0
    6.2501    4.8695   -2.1795 H   0  0  0  0  0  0  0  0  0  0  0  0
    7.1931    5.7008   -0.0241 H   0  0  0  0  0  0  0  0  0  0  0  0
   15.5985    3.8838    0.3088 H   0  0  0  0  0  0  0  0  0  0  0  0
   16.5595    3.8888    1.7678 H   0  0  0  0  0  0  0  0  0  0  0  0
   13.5546    5.4565    0.1732 H   0  0  0  0  0  0  0  0  0  0  0  0
   16.4313    5.6014    3.3655 H   0  0  0  0  0  0  0  0  0  0  0  0
   13.8418    8.9676    2.6119 H   0  0  0  0  0  0  0  0  0  0  0  0
   12.7618    7.7133    0.7704 H   0  0  0  0  0  0  0  0  0  0  0  0
   16.6595    7.5361    4.6997 H   0  0  0  0  0  0  0  0  0  0  0  0
   15.1509    8.4205    4.9771 H   0  0  0  0  0  0  0  0  0  0  0  0
   16.3578    9.0394    3.8162 H   0  0  0  0  0  0  0  0  0  0  0  0
  1  2  1  0  0  0  0
  1  5  1  0  0  0  0
  1 28  1  0  0  0  0
  2  3  1  0  0  0  0
  2 20  1  0  0  0  0
  2 29  1  1  0  0  0
  3  4  1  0  0  0  0
  3 30  1  0  0  0  0
  3 31  1  0  0  0  0
  4  7  1  0  0  0  0
  5  6  2  0  0  0  0
  5 11  1  0  0  0  0
  7  8  2  0  0  0  0
  7  9  1  0  0  0  0
  7 10  1  0  0  0  0
 11 12  2  0  0  0  0
 11 15  1  0  0  0  0
 12 13  1  0  0  0  0
 12 32  1  0  0  0  0
 13 14  2  0  0  0  0
 13 16  1  0  0  0  0
 14 15  1  0  0  0  0
 14 19  1  0  0  0  0
 16 17  2  0  0  0  0
 16 33  1  0  0  0  0
 17 18  1  0  0  0  0
 17 34  1  0  0  0  0
 18 19  2  0  0  0  0
 18 35  1  0  0  0  0
 19 36  1  0  0  0  0
 20 22  1  0  0  0  0
 20 37  1  0  0  0  0
 20 38  1  0  0  0  0
 21 22  2  0  0  0  0
 21 26  1  0  0  0  0
 21 39  1  0  0  0  0
 22 23  1  0  0  0  0
 23 24  2  0  0  0  0
 23 40  1  0  0  0  0
 24 25  1  0  0  0  0
 24 27  1  0  0  0  0
 25 26  2  0  0  0  0
 25 41  1  0  0  0  0
 26 42  1  0  0  0  0
 27 43  1  0  0  0  0
 27 44  1  0  0  0  0
 27 45  1  0  0  0  0
M  END
$$$$
