J90
 OpenBabel04091913473D

 32 33  0  0  0  0  0  0  0  0999 V2000
   -0.3923    9.0535   14.6358 N   0  0  0  0  0  0  0  0  0  0  0  0
   -1.5707    8.7447   15.1984 C   0  0  0  0  0  0  0  0  0  0  0  0
   -2.3998    7.7620   14.8362 N   0  0  0  0  0  0  0  0  0  0  0  0
   -1.9828    6.9915   13.8057 C   0  0  0  0  0  0  0  0  0  0  0  0
   -0.7617    7.2445   13.1466 C   0  0  0  0  0  0  0  0  0  0  0  0
    0.0392    8.3143   13.5910 C   0  0  0  0  0  0  0  0  0  0  0  0
   -2.8579    5.9790   13.4369 N   0  0  0  0  0  0  0  0  0  0  0  0
   -4.6408    4.6713   14.5401 C   0  0  0  0  0  0  0  0  0  0  0  0
   -3.7251    3.6644   14.8929 C   0  0  0  0  0  0  0  0  0  0  0  0
   -4.1362    2.5222   15.5908 C   0  0  0  0  0  0  0  0  0  0  0  0
   -5.4837    2.3735   15.9280 C   0  0  0  0  0  0  0  0  0  0  0  0
   -6.4082    3.3589   15.5812 C   0  0  0  0  0  0  0  0  0  0  0  0
   -5.9903    4.5034   14.8942 C   0  0  0  0  0  0  0  0  0  0  0  0
   -6.0566    0.9377   16.7863 S   0  0  0  0  0  0  0  0  0  0  0  0
   -5.4684    0.9378   18.1039 O   0  0  0  0  0  0  0  0  0  0  0  0
   -7.4904    0.8262   16.5923 O   0  0  0  0  0  0  0  0  0  0  0  0
   -5.4068   -0.3447   15.9357 N   0  0  0  0  0  0  0  0  0  0  0  0
   -0.3562    6.3917   12.0078 N   0  0  0  0  0  0  0  0  0  0  0  0
    0.7433    6.5257   11.4526 O   0  0  0  0  0  0  0  0  0  0  0  0
   -1.1498    5.5012   11.6364 O   0  0  0  0  0  0  0  0  0  0  0  0
    1.1563    8.7138   13.1377 O   0  0  0  0  0  0  0  0  0  0  0  0
   -4.2515    5.9401   13.8015 C   0  0  0  0  0  0  0  0  0  0  0  0
   -1.8828    9.3723   16.0335 H   0  0  0  0  0  0  0  0  0  0  0  0
   -2.4782    5.2230   12.8755 H   0  0  0  0  0  0  0  0  0  0  0  0
   -2.6715    3.7684   14.6392 H   0  0  0  0  0  0  0  0  0  0  0  0
   -3.3975    1.7807   15.8785 H   0  0  0  0  0  0  0  0  0  0  0  0
   -7.4607    3.2510   15.8419 H   0  0  0  0  0  0  0  0  0  0  0  0
   -6.7279    5.2593   14.6399 H   0  0  0  0  0  0  0  0  0  0  0  0
   -5.4496   -1.2392   16.4186 H   0  0  0  0  0  0  0  0  0  0  0  0
   -4.6406   -0.1697   15.2924 H   0  0  0  0  0  0  0  0  0  0  0  0
   -4.8347    5.9728   12.8709 H   0  0  0  0  0  0  0  0  0  0  0  0
   -4.5622    6.8073   14.3948 H   0  0  0  0  0  0  0  0  0  0  0  0
  1  2  2  0  0  0  0
  1  6  1  0  0  0  0
  2  3  1  0  0  0  0
  2 23  1  0  0  0  0
  3  4  2  0  0  0  0
  4  5  1  0  0  0  0
  4  7  1  0  0  0  0
  5  6  2  0  0  0  0
  5 18  1  0  0  0  0
  6 21  1  0  0  0  0
  7 22  1  0  0  0  0
  7 24  1  0  0  0  0
  8  9  2  0  0  0  0
  8 13  1  0  0  0  0
  8 22  1  0  0  0  0
  9 10  1  0  0  0  0
  9 25  1  0  0  0  0
 10 11  2  0  0  0  0
 10 26  1  0  0  0  0
 11 12  1  0  0  0  0
 11 14  1  0  0  0  0
 12 13  2  0  0  0  0
 12 27  1  0  0  0  0
 13 28  1  0  0  0  0
 14 15  2  0  0  0  0
 14 16  2  0  0  0  0
 14 17  1  0  0  0  0
 17 29  1  0  0  0  0
 17 30  1  0  0  0  0
 18 19  2  0  0  0  0
 18 20  2  0  0  0  0
 22 31  1  0  0  0  0
 22 32  1  0  0  0  0
M  END
$$$$
