JLZ
 OpenBabel04091914053D

 21 21  0  0  0  0  0  0  0  0999 V2000
   26.8866   14.8563   19.0644 F   0  0  0  0  0  0  0  0  0  0  0  0
   27.8393   14.4276   18.2240 C   0  0  0  0  0  0  0  0  0  0  0  0
   28.5690   13.2842   18.5209 C   0  0  0  0  0  0  0  0  0  0  0  0
   29.5574   12.8762   17.6161 C   0  0  0  0  0  0  0  0  0  0  0  0
   29.8048   13.6148   16.4519 C   0  0  0  0  0  0  0  0  0  0  0  0
   29.0609   14.7722   16.1427 C   0  0  0  0  0  0  0  0  0  0  0  0
   28.0683   15.1589   17.0593 C   0  0  0  0  0  0  0  0  0  0  0  0
   29.3231   15.5563   14.9134 C   0  0  0  0  0  0  0  0  0  0  0  0
   28.9675   16.8214   14.8396 N   0  0  0  0  0  0  0  0  0  0  0  0
   29.9195   15.0014   13.8784 N   0  0  0  0  0  0  0  0  0  0  0  0
   28.3194   12.4951   19.7702 C   0  0  0  0  0  0  0  0  0  0  0  0
   30.1461   11.9831   17.8242 H   0  0  0  0  0  0  0  0  0  0  0  0
   30.6068   13.2627   15.8092 H   0  0  0  0  0  0  0  0  0  0  0  0
   27.4302   16.0222   16.8974 H   0  0  0  0  0  0  0  0  0  0  0  0
   29.1175   17.3830   14.0131 H   0  0  0  0  0  0  0  0  0  0  0  0
   30.1804   14.0235   13.8849 H   0  0  0  0  0  0  0  0  0  0  0  0
   30.1302   15.5170   13.0348 H   0  0  0  0  0  0  0  0  0  0  0  0
   27.5242   12.9394   20.3784 H   0  0  0  0  0  0  0  0  0  0  0  0
   29.2270   12.4606   20.3807 H   0  0  0  0  0  0  0  0  0  0  0  0
   28.0161   11.4743   19.5171 H   0  0  0  0  0  0  0  0  0  0  0  0
   28.5271   17.2946   15.6240 H   0  0  0  0  0  0  0  0  0  0  0  0
  1  2  1  0  0  0  0
  2  3  2  0  0  0  0
  2  7  1  0  0  0  0
  3  4  1  0  0  0  0
  3 11  1  0  0  0  0
  4  5  2  0  0  0  0
  4 12  1  0  0  0  0
  5  6  1  0  0  0  0
  5 13  1  0  0  0  0
  6  7  2  0  0  0  0
  6  8  1  0  0  0  0
  7 14  1  0  0  0  0
  8  9  2  0  0  0  0
  8 10  1  0  0  0  0
  9 15  1  0  0  0  0
  9 21  1  0  0  0  0
 10 16  1  0  0  0  0
 10 17  1  0  0  0  0
 11 18  1  0  0  0  0
 11 19  1  0  0  0  0
 11 20  1  0  0  0  0
M  END
$$$$
