JS7
 OpenBabel04091913433D

 39 40  0  0  0  0  0  0  0  0999 V2000
   -0.6123   10.2963   14.9390 N   0  0  0  0  0  0  0  0  0  0  0  0
   -0.6825    9.0538   15.4394 C   0  0  0  0  0  0  0  0  0  0  0  0
   -1.1481    7.9781   14.7894 N   0  0  0  0  0  0  0  0  0  0  0  0
   -1.5993    8.1438   13.5314 C   0  0  0  0  0  0  0  0  0  0  0  0
   -1.5949    9.3995   12.9585 C   0  0  0  0  0  0  0  0  0  0  0  0
   -1.0813   10.4448   13.6841 C   0  0  0  0  0  0  0  0  0  0  0  0
   -2.1866    7.0631   12.8973 N   0  0  0  0  0  0  0  0  0  0  0  0
   -4.4186    4.5007   14.5364 C   0  0  0  0  0  0  0  0  0  0  0  0
   -5.7669    4.3972   14.8926 C   0  0  0  0  0  0  0  0  0  0  0  0
   -6.2361    3.2702   15.5732 C   0  0  0  0  0  0  0  0  0  0  0  0
   -5.3452    2.2452   15.9049 C   0  0  0  0  0  0  0  0  0  0  0  0
   -3.9938    2.3376   15.5565 C   0  0  0  0  0  0  0  0  0  0  0  0
   -3.5400    3.4567   14.8696 C   0  0  0  0  0  0  0  0  0  0  0  0
   -5.9154    0.8318   16.7784 S   0  0  0  0  0  0  0  0  0  0  0  0
   -5.2927    0.8404   18.0903 O   0  0  0  0  0  0  0  0  0  0  0  0
   -7.3478    0.7284   16.6045 O   0  0  0  0  0  0  0  0  0  0  0  0
   -5.2449   -0.4438   15.9437 N   0  0  0  0  0  0  0  0  0  0  0  0
   -2.1303    9.5709   11.6437 N   0  0  0  0  0  0  0  0  0  0  0  0
   -3.0921   10.3365   11.5012 O   0  0  0  0  0  0  0  0  0  0  0  0
   -1.6284    8.8819   10.7390 O   0  0  0  0  0  0  0  0  0  0  0  0
   -1.1404   11.7270   13.1920 O   0  0  0  0  0  0  0  0  0  0  0  0
    0.0947   12.4241   13.3294 C   0  0  0  0  0  0  0  0  0  0  0  0
   -2.4564    5.8537   13.6377 C   0  0  0  0  0  0  0  0  0  0  0  0
   -3.9697    5.7379   13.8057 C   0  0  0  0  0  0  0  0  0  0  0  0
   -0.3473    8.8984   16.4582 H   0  0  0  0  0  0  0  0  0  0  0  0
   -2.0333    6.9577   11.8959 H   0  0  0  0  0  0  0  0  0  0  0  0
   -6.4632    5.2005   14.6506 H   0  0  0  0  0  0  0  0  0  0  0  0
   -7.2812    3.2115   15.8580 H   0  0  0  0  0  0  0  0  0  0  0  0
   -3.2872    1.5585   15.8286 H   0  0  0  0  0  0  0  0  0  0  0  0
   -2.4813    3.4937   14.6224 H   0  0  0  0  0  0  0  0  0  0  0  0
   -5.5178   -1.3703   16.2446 H   0  0  0  0  0  0  0  0  0  0  0  0
   -4.7366   -0.2914   15.0805 H   0  0  0  0  0  0  0  0  0  0  0  0
   -0.0906   13.4773   13.0960 H   0  0  0  0  0  0  0  0  0  0  0  0
    0.8110   12.0389   12.5965 H   0  0  0  0  0  0  0  0  0  0  0  0
    0.5213   12.3809   14.3373 H   0  0  0  0  0  0  0  0  0  0  0  0
   -1.9738    5.8183   14.6226 H   0  0  0  0  0  0  0  0  0  0  0  0
   -2.0633    5.0036   13.0680 H   0  0  0  0  0  0  0  0  0  0  0  0
   -4.3314    6.6223   14.3503 H   0  0  0  0  0  0  0  0  0  0  0  0
   -4.4465    5.7605   12.8172 H   0  0  0  0  0  0  0  0  0  0  0  0
  1  2  2  0  0  0  0
  1  6  1  0  0  0  0
  2  3  1  0  0  0  0
  2 25  1  0  0  0  0
  3  4  2  0  0  0  0
  4  5  1  0  0  0  0
  4  7  1  0  0  0  0
  5  6  2  0  0  0  0
  5 18  1  0  0  0  0
  6 21  1  0  0  0  0
  7 23  1  0  0  0  0
  7 26  1  0  0  0  0
  8  9  2  0  0  0  0
  8 13  1  0  0  0  0
  8 24  1  0  0  0  0
  9 10  1  0  0  0  0
  9 27  1  0  0  0  0
 10 11  2  0  0  0  0
 10 28  1  0  0  0  0
 11 12  1  0  0  0  0
 11 14  1  0  0  0  0
 12 13  2  0  0  0  0
 12 29  1  0  0  0  0
 13 30  1  0  0  0  0
 14 15  2  0  0  0  0
 14 16  2  0  0  0  0
 14 17  1  0  0  0  0
 17 31  1  0  0  0  0
 17 32  1  0  0  0  0
 18 19  2  0  0  0  0
 18 20  2  0  0  0  0
 21 22  1  0  0  0  0
 22 33  1  0  0  0  0
 22 34  1  0  0  0  0
 22 35  1  0  0  0  0
 23 24  1  0  0  0  0
 23 36  1  0  0  0  0
 23 37  1  0  0  0  0
 24 38  1  0  0  0  0
 24 39  1  0  0  0  0
M  END
$$$$
