JT5
 OpenBabel04091913573D

 42 43  0  0  0  0  0  0  0  0999 V2000
    1.7475   -1.9685    4.1118 C   0  0  0  0  0  0  0  0  0  0  0  0
    0.6019   -2.6056    3.3590 C   0  0  0  0  0  0  0  0  0  0  0  0
    2.1001   -4.2278    2.2076 C   0  0  0  0  0  0  0  0  0  0  0  0
    1.3369   -1.3767    5.2332 N   0  0  0  0  0  0  0  0  0  0  0  0
    2.3436   -0.8140    6.0069 O   0  0  0  0  0  0  0  0  0  0  0  0
    2.9528   -1.9962    3.8229 O   0  0  0  0  0  0  0  0  0  0  0  0
    1.0160   -3.9799    3.1689 N   0  0  0  0  0  0  0  0  0  0  0  0
    0.6769   -5.1812    4.2146 S   0  0  0  0  0  0  0  0  0  0  0  0
    1.6021   -4.2987    0.7771 C   0  0  0  0  0  0  0  0  0  0  0  0
    0.8764   -3.1181    0.4355 O   0  0  0  0  0  0  0  0  0  0  0  0
    0.5876   -6.4119    3.4351 O   0  0  0  0  0  0  0  0  0  0  0  0
    2.0397   -5.3109    5.2521 C   0  0  0  0  0  0  0  0  0  0  0  0
   -0.4535   -4.8795    5.0928 O   0  0  0  0  0  0  0  0  0  0  0  0
    3.1170   -6.0796    4.8322 C   0  0  0  0  0  0  0  0  0  0  0  0
    4.1885   -6.2964    5.6664 C   0  0  0  0  0  0  0  0  0  0  0  0
    4.1556   -5.7889    6.9730 C   0  0  0  0  0  0  0  0  0  0  0  0
    3.0554   -4.9853    7.3643 C   0  0  0  0  0  0  0  0  0  0  0  0
    1.9957   -4.7300    6.5111 C   0  0  0  0  0  0  0  0  0  0  0  0
    5.2566   -6.1042    7.9066 C   0  0  0  0  0  0  0  0  0  0  0  0
    4.9890   -6.3973    9.2613 C   0  0  0  0  0  0  0  0  0  0  0  0
    6.0269   -6.6951   10.1649 C   0  0  0  0  0  0  0  0  0  0  0  0
    7.3491   -6.7680    9.7125 C   0  0  0  0  0  0  0  0  0  0  0  0
    7.6228   -6.5499    8.3545 C   0  0  0  0  0  0  0  0  0  0  0  0
    6.5879   -6.2248    7.4627 C   0  0  0  0  0  0  0  0  0  0  0  0
    0.4451   -2.1262    2.3911 H   0  0  0  0  0  0  0  0  0  0  0  0
   -0.3498   -2.5475    3.9215 H   0  0  0  0  0  0  0  0  0  0  0  0
    2.5735   -5.1833    2.4380 H   0  0  0  0  0  0  0  0  0  0  0  0
    2.8404   -3.4395    2.2701 H   0  0  0  0  0  0  0  0  0  0  0  0
    0.3641   -1.3419    5.4930 H   0  0  0  0  0  0  0  0  0  0  0  0
    1.8928   -0.4270    6.7669 H   0  0  0  0  0  0  0  0  0  0  0  0
    0.9500   -5.1690    0.6509 H   0  0  0  0  0  0  0  0  0  0  0  0
    2.4667   -4.3965    0.1031 H   0  0  0  0  0  0  0  0  0  0  0  0
    1.4595   -2.3479    0.5541 H   0  0  0  0  0  0  0  0  0  0  0  0
    3.1198   -6.5072    3.8405 H   0  0  0  0  0  0  0  0  0  0  0  0
    5.0484   -6.8641    5.3034 H   0  0  0  0  0  0  0  0  0  0  0  0
    3.0464   -4.5457    8.3620 H   0  0  0  0  0  0  0  0  0  0  0  0
    1.1623   -4.0995    6.8141 H   0  0  0  0  0  0  0  0  0  0  0  0
    3.9514   -6.4133    9.6082 H   0  0  0  0  0  0  0  0  0  0  0  0
    5.7959   -6.8641   11.2193 H   0  0  0  0  0  0  0  0  0  0  0  0
    8.1642   -6.9983   10.4076 H   0  0  0  0  0  0  0  0  0  0  0  0
    8.6431   -6.6264    7.9809 H   0  0  0  0  0  0  0  0  0  0  0  0
    6.8192   -6.0791    6.4042 H   0  0  0  0  0  0  0  0  0  0  0  0
  1  2  1  0  0  0  0
  1  4  1  0  0  0  0
  1  6  2  0  0  0  0
  2  7  1  0  0  0  0
  2 25  1  0  0  0  0
  2 26  1  0  0  0  0
  3  7  1  0  0  0  0
  3  9  1  0  0  0  0
  3 27  1  0  0  0  0
  3 28  1  0  0  0  0
  4  5  1  0  0  0  0
  4 29  1  0  0  0  0
  5 30  1  0  0  0  0
  7  8  1  0  0  0  0
  8 11  2  0  0  0  0
  8 12  1  0  0  0  0
  8 13  2  0  0  0  0
  9 10  1  0  0  0  0
  9 31  1  0  0  0  0
  9 32  1  0  0  0  0
 10 33  1  0  0  0  0
 12 14  2  0  0  0  0
 12 18  1  0  0  0  0
 14 15  1  0  0  0  0
 14 34  1  0  0  0  0
 15 16  2  0  0  0  0
 15 35  1  0  0  0  0
 16 17  1  0  0  0  0
 16 19  1  0  0  0  0
 17 18  2  0  0  0  0
 17 36  1  0  0  0  0
 18 37  1  0  0  0  0
 19 20  2  0  0  0  0
 19 24  1  0  0  0  0
 20 21  1  0  0  0  0
 20 38  1  0  0  0  0
 21 22  2  0  0  0  0
 21 39  1  0  0  0  0
 22 23  1  0  0  0  0
 22 40  1  0  0  0  0
 23 24  2  0  0  0  0
 23 41  1  0  0  0  0
 24 42  1  0  0  0  0
M  END
$$$$
