JZG
 OpenBabel04091914123D

 68 73  0  0  1  0  0  0  0  0999 V2000
   27.7509    3.8596    0.0140 C   0  0  1  0  0  0  0  0  0  0  0  0
   28.6877    4.4741    0.8226 N   0  3  1  0  0  0  0  0  0  0  0  0
   24.3637    2.6920   -0.5742 O   0  0  0  0  0  0  0  0  0  0  0  0
   26.3896    3.5817    0.2120 C   0  0  0  0  0  0  0  0  0  0  0  0
   31.7347    3.0397   -2.2217 N   0  0  0  0  0  0  0  0  0  0  0  0
   24.5936    2.4225   -3.6653 O   0  0  0  0  0  0  0  0  0  0  0  0
   25.6838    2.9504   -0.8175 C   0  0  1  0  0  0  0  0  0  0  0  0
   32.4124    3.2952   -3.3420 N   0  0  0  0  0  0  0  0  0  0  0  0
   26.0789    0.7205   -3.4396 O   0  0  0  0  0  0  0  0  0  0  0  0
   26.2956    2.5791   -2.0122 C   0  0  1  0  0  0  0  0  0  0  0  0
   31.8235    4.3513   -3.9310 N   0  3  1  0  0  0  0  0  0  0  0  0
   34.7172    7.0382   -6.0994 O   0  0  0  0  0  0  0  0  0  0  0  0
   27.6599    2.8703   -2.1893 C   0  0  0  0  0  0  0  0  0  0  0  0
   34.7849    6.8156   -3.8270 N   0  0  0  0  0  0  0  0  0  0  0  0
   28.3966    3.5211   -1.1785 C   0  0  1  0  0  0  0  0  0  0  0  0
   25.5892    1.8402   -3.1108 C   0  0  0  0  0  0  0  0  0  0  0  0
   29.7378    3.9703   -1.0668 C   0  0  2  0  0  0  0  0  0  0  0  0
   29.9069    4.5558    0.1742 C   0  0  1  0  0  0  0  0  0  0  0  0
   28.4277    4.9973    2.1475 C   0  0  0  0  0  0  0  0  0  0  0  0
   31.0943    5.1823    0.7359 C   0  0  0  0  0  0  0  0  0  0  0  0
   31.4020    6.5149    0.4424 C   0  0  0  0  0  0  0  0  0  0  0  0
   32.5622    7.0928    0.9588 C   0  0  0  0  0  0  0  0  0  0  0  0
   33.4156    6.3398    1.7663 C   0  0  0  0  0  0  0  0  0  0  0  0
   33.1115    5.0096    2.0578 C   0  0  0  0  0  0  0  0  0  0  0  0
   31.9564    4.4296    1.5369 C   0  0  0  0  0  0  0  0  0  0  0  0
   30.6962    3.9263   -2.1563 C   0  0  1  0  0  0  0  0  0  0  0  0
   30.7293    4.7662   -3.2394 C   0  0  0  0  0  0  0  0  0  0  0  0
   32.3523    4.9361   -5.1481 C   0  0  0  0  0  0  0  0  0  0  0  0
   32.6820    6.4087   -4.9708 C   0  0  0  0  0  0  0  0  0  0  0  0
   34.1557    6.7279   -5.0528 C   0  0  0  0  0  0  0  0  0  0  0  0
   35.1214    5.6176   -3.1558 C   0  0  2  0  0  0  0  0  0  0  0  0
   34.6897    5.4950   -1.8471 C   0  0  0  0  0  0  0  0  0  0  0  0
   34.9879    4.3485   -1.1194 C   0  0  0  0  0  0  0  0  0  0  0  0
   35.7412    3.3145   -1.6814 C   0  0  2  0  0  0  0  0  0  0  0  0
   36.2056    3.4566   -2.9978 C   0  0  0  0  0  0  0  0  0  0  0  0
   35.9034    4.6068   -3.7371 C   0  0  0  0  0  0  0  0  0  0  0  0
   36.0061    2.1056   -0.9012 C   0  0  0  0  0  0  0  0  0  0  0  0
   36.9597    2.1099    0.1336 C   0  0  0  0  0  0  0  0  0  0  0  0
   37.1868    0.9745    0.8953 C   0  0  0  0  0  0  0  0  0  0  0  0
   36.4629   -0.1877    0.6446 C   0  0  0  0  0  0  0  0  0  0  0  0
   35.5068   -0.2090   -0.3695 C   0  0  0  0  0  0  0  0  0  0  0  0
   35.2766    0.9317   -1.1334 C   0  0  0  0  0  0  0  0  0  0  0  0
   24.3541    2.0049    0.1098 H   0  0  0  0  0  0  0  0  0  0  0  0
   25.8759    3.8553    1.1251 H   0  0  0  0  0  0  0  0  0  0  0  0
   28.1422    2.5816   -3.1230 H   0  0  0  0  0  0  0  0  0  0  0  0
   35.6186    7.3836   -3.9391 H   0  0  0  0  0  0  0  0  0  0  0  0
   27.3900    4.8204    2.4345 H   0  0  0  0  0  0  0  0  0  0  0  0
   28.6179    6.0738    2.1408 H   0  0  0  0  0  0  0  0  0  0  0  0
   29.0858    4.4893    2.8566 H   0  0  0  0  0  0  0  0  0  0  0  0
   30.7487    7.0956   -0.2048 H   0  0  0  0  0  0  0  0  0  0  0  0
   32.8105    8.1213    0.7124 H   0  0  0  0  0  0  0  0  0  0  0  0
   34.3326    6.7799    2.1475 H   0  0  0  0  0  0  0  0  0  0  0  0
   33.7896    4.4083    2.6568 H   0  0  0  0  0  0  0  0  0  0  0  0
   31.7413    3.3801    1.7270 H   0  0  0  0  0  0  0  0  0  0  0  0
   30.1038    5.5936   -3.5340 H   0  0  0  0  0  0  0  0  0  0  0  0
   31.5530    4.8253   -5.8913 H   0  0  0  0  0  0  0  0  0  0  0  0
   33.2062    4.3400   -5.4839 H   0  0  0  0  0  0  0  0  0  0  0  0
   32.3121    6.8119   -4.0199 H   0  0  0  0  0  0  0  0  0  0  0  0
   32.1876    6.9998   -5.7514 H   0  0  0  0  0  0  0  0  0  0  0  0
   34.0849    6.2753   -1.3945 H   0  0  0  0  0  0  0  0  0  0  0  0
   34.5917    4.2413   -0.1153 H   0  0  0  0  0  0  0  0  0  0  0  0
   36.7941    2.6598   -3.4460 H   0  0  0  0  0  0  0  0  0  0  0  0
   36.2781    4.6884   -4.7561 H   0  0  0  0  0  0  0  0  0  0  0  0
   37.5194    3.0224    0.3417 H   0  0  0  0  0  0  0  0  0  0  0  0
   37.9294    0.9912    1.6931 H   0  0  0  0  0  0  0  0  0  0  0  0
   36.6365   -1.0848    1.2433 H   0  0  0  0  0  0  0  0  0  0  0  0
   34.9278   -1.1107   -0.5585 H   0  0  0  0  0  0  0  0  0  0  0  0
   34.5064    0.9171   -1.9046 H   0  0  0  0  0  0  0  0  0  0  0  0
  1  2  1  0  0  0  0
  1  4  1  6  0  0  0
  1 15  1  0  0  0  0
  2 18  1  0  0  0  0
  2 19  1  6  0  0  0
  3 43  1  0  0  0  0
  4  7  1  0  0  0  0
  4 44  1  0  0  0  0
  5  8  1  0  0  0  0
  6 16  2  0  0  0  0
  7  3  1  1  0  0  0
  7 10  1  0  0  0  0
  8 11  1  0  0  0  0
  9 16  1  0  0  0  0
 10 13  1  0  0  0  0
 10 16  1  1  0  0  0
 11 27  1  0  0  0  0
 11 28  1  1  0  0  0
 12 30  2  0  0  0  0
 13 45  1  0  0  0  0
 14 30  1  0  0  0  0
 14 46  1  0  0  0  0
 15 13  1  6  0  0  0
 15 17  1  0  0  0  0
 17 18  1  0  0  0  0
 17 26  1  6  0  0  0
 18 20  1  6  0  0  0
 19 47  1  0  0  0  0
 19 48  1  0  0  0  0
 19 49  1  0  0  0  0
 20 21  1  0  0  0  0
 20 25  1  0  0  0  0
 21 22  1  0  0  0  0
 21 50  1  0  0  0  0
 22 23  1  0  0  0  0
 22 51  1  0  0  0  0
 23 24  1  0  0  0  0
 23 52  1  0  0  0  0
 24 25  1  0  0  0  0
 24 53  1  0  0  0  0
 25 54  1  0  0  0  0
 26  5  1  1  0  0  0
 26 27  1  0  0  0  0
 27 55  1  0  0  0  0
 28 29  1  0  0  0  0
 28 56  1  0  0  0  0
 28 57  1  0  0  0  0
 29 30  1  0  0  0  0
 29 58  1  0  0  0  0
 29 59  1  0  0  0  0
 31 14  1  1  0  0  0
 31 32  1  0  0  0  0
 31 36  1  0  0  0  0
 32 33  1  0  0  0  0
 32 60  1  0  0  0  0
 33 34  1  0  0  0  0
 33 61  1  0  0  0  0
 34 35  1  0  0  0  0
 34 37  1  6  0  0  0
 35 36  1  0  0  0  0
 35 62  1  0  0  0  0
 36 63  1  0  0  0  0
 37 38  1  0  0  0  0
 37 42  1  0  0  0  0
 38 39  1  0  0  0  0
 38 64  1  0  0  0  0
 39 40  1  0  0  0  0
 39 65  1  0  0  0  0
 40 41  1  0  0  0  0
 40 66  1  0  0  0  0
 41 42  1  0  0  0  0
 41 67  1  0  0  0  0
 42 68  1  0  0  0  0
M  CHG  2   2   1  11   1
M  END
$$$$
