K13
 OpenBabel04091914153D

 78 81  0  0  1  0  0  0  0  0999 V2000
   14.2786   34.9756   18.1741 N   0  0  0  0  0  0  0  0  0  0  0  0
   15.1704   34.3835   17.3021 C   0  0  0  0  0  0  0  0  0  0  0  0
   16.2650   35.0862   16.7992 C   0  0  0  0  0  0  0  0  0  0  0  0
   17.1542   34.4554   15.9336 C   0  0  0  0  0  0  0  0  0  0  0  0
   16.9514   33.1156   15.5950 C   0  0  0  0  0  0  0  0  0  0  0  0
   15.8772   32.4024   16.1000 C   0  0  0  0  0  0  0  0  0  0  0  0
   14.9847   33.0499   16.9417 C   0  0  0  0  0  0  0  0  0  0  0  0
   18.0163   32.3060   14.4454 S   0  0  0  0  0  0  0  0  0  0  0  0
   17.2913   31.1806   13.9055 O   0  0  0  0  0  0  0  0  0  0  0  0
   18.5846   33.3243   13.5882 O   0  0  0  0  0  0  0  0  0  0  0  0
   19.2456   31.7268   15.4541 N   0  0  0  0  0  0  0  0  0  0  0  0
   19.9779   32.7360   16.2476 C   0  0  0  0  0  0  0  0  0  0  0  0
   21.4751   32.4349   16.3229 C   0  0  1  0  0  0  0  0  0  0  0  0
   22.1381   32.4350   14.9437 C   0  0  0  0  0  0  0  0  0  0  0  0
   22.1524   33.4238   17.2836 C   0  0  0  0  0  0  0  0  0  0  0  0
   18.9844   30.4668   16.1707 C   0  0  0  0  0  0  0  0  0  0  0  0
   19.9040   29.3738   15.6153 C   0  0  1  0  0  0  0  0  0  0  0  0
   22.1567   34.8590   16.7847 C   0  0  0  0  0  0  0  0  0  0  0  0
   19.8869   28.2460   16.5015 O   0  0  0  0  0  0  0  0  0  0  0  0
   19.5886   28.9492   14.1621 C   0  0  1  0  0  0  0  0  0  0  0  0
   20.7040   28.1247   13.6964 N   0  0  0  0  0  0  0  0  0  0  0  0
   21.5977   28.4984   12.7457 C   0  0  0  0  0  0  0  0  0  0  0  0
   21.6078   29.5563   12.1402 O   0  0  0  0  0  0  0  0  0  0  0  0
   22.4629   27.4783   12.5509 O   0  0  0  0  0  0  0  0  0  0  0  0
   23.3617   27.5522   11.4243 C   0  0  1  0  0  0  0  0  0  0  0  0
   24.6682   26.9194   11.8648 C   0  0  0  0  0  0  0  0  0  0  0  0
   24.5303   25.5079   11.6463 O   0  0  0  0  0  0  0  0  0  0  0  0
   23.5413   25.3012   10.6342 C   0  0  1  0  0  0  0  0  0  0  0  0
   22.5062   24.4191   11.0767 O   0  0  0  0  0  0  0  0  0  0  0  0
   21.2676   25.1300   11.0976 C   0  0  0  0  0  0  0  0  0  0  0  0
   21.4351   26.3442   10.2131 C   0  0  0  0  0  0  0  0  0  0  0  0
   22.9112   26.6388   10.2916 C   0  0  1  0  0  0  0  0  0  0  0  0
   18.2749   28.1511   14.0273 C   0  0  0  0  0  0  0  0  0  0  0  0
   18.1580   26.4056   12.2001 C   0  0  0  0  0  0  0  0  0  0  0  0
   17.9780   26.0477   10.8629 C   0  0  0  0  0  0  0  0  0  0  0  0
   17.6444   27.0108    9.9141 C   0  0  0  0  0  0  0  0  0  0  0  0
   17.5020   28.3389   10.3029 C   0  0  0  0  0  0  0  0  0  0  0  0
   17.6777   28.6964   11.6369 C   0  0  0  0  0  0  0  0  0  0  0  0
   18.0129   27.7378   12.5985 C   0  0  0  0  0  0  0  0  0  0  0  0
   14.3752   35.9511   18.4139 H   0  0  0  0  0  0  0  0  0  0  0  0
   13.4683   34.4691   18.4894 H   0  0  0  0  0  0  0  0  0  0  0  0
   16.4260   36.1280   17.0653 H   0  0  0  0  0  0  0  0  0  0  0  0
   17.9943   35.0136   15.5274 H   0  0  0  0  0  0  0  0  0  0  0  0
   15.7045   31.3641   15.8285 H   0  0  0  0  0  0  0  0  0  0  0  0
   14.1469   32.4937   17.3238 H   0  0  0  0  0  0  0  0  0  0  0  0
   19.5558   32.7760   17.2618 H   0  0  0  0  0  0  0  0  0  0  0  0
   19.8416   33.7250   15.8046 H   0  0  0  0  0  0  0  0  0  0  0  0
   21.6086   31.4378   16.7540 H   0  0  0  0  0  0  0  0  0  0  0  0
   23.2081   32.2214   15.0377 H   0  0  0  0  0  0  0  0  0  0  0  0
   22.0236   33.3963   14.4330 H   0  0  0  0  0  0  0  0  0  0  0  0
   21.7017   31.6694   14.2964 H   0  0  0  0  0  0  0  0  0  0  0  0
   23.1857   33.1051   17.4585 H   0  0  0  0  0  0  0  0  0  0  0  0
   21.6351   33.3918   18.2508 H   0  0  0  0  0  0  0  0  0  0  0  0
   17.9428   30.1614   16.0725 H   0  0  0  0  0  0  0  0  0  0  0  0
   19.1495   30.5861   17.2477 H   0  0  0  0  0  0  0  0  0  0  0  0
   20.9349   29.7437   15.6231 H   0  0  0  0  0  0  0  0  0  0  0  0
   22.6444   35.5096   17.5144 H   0  0  0  0  0  0  0  0  0  0  0  0
   21.1393   35.2291   16.6321 H   0  0  0  0  0  0  0  0  0  0  0  0
   22.7023   34.9429   15.8414 H   0  0  0  0  0  0  0  0  0  0  0  0
   18.9720   27.9248   16.5647 H   0  0  0  0  0  0  0  0  0  0  0  0
   19.5339   29.8438   13.5304 H   0  0  0  0  0  0  0  0  0  0  0  0
   20.8373   27.2191   14.1217 H   0  0  0  0  0  0  0  0  0  0  0  0
   23.5119   28.5822   11.0833 H   0  0  0  0  0  0  0  0  0  0  0  0
   24.8784   27.0969   12.9245 H   0  0  0  0  0  0  0  0  0  0  0  0
   25.5213   27.2703   11.2733 H   0  0  0  0  0  0  0  0  0  0  0  0
   24.0273   24.8442    9.7651 H   0  0  0  0  0  0  0  0  0  0  0  0
   21.0413   25.4128   12.1303 H   0  0  0  0  0  0  0  0  0  0  0  0
   20.4659   24.4730   10.7487 H   0  0  0  0  0  0  0  0  0  0  0  0
   20.8113   27.1829   10.5268 H   0  0  0  0  0  0  0  0  0  0  0  0
   21.1500   26.0907    9.1859 H   0  0  0  0  0  0  0  0  0  0  0  0
   23.2947   27.0126    9.3351 H   0  0  0  0  0  0  0  0  0  0  0  0
   17.4191   28.7347   14.3817 H   0  0  0  0  0  0  0  0  0  0  0  0
   18.3095   27.2542   14.6576 H   0  0  0  0  0  0  0  0  0  0  0  0
   18.4268   25.6413   12.9245 H   0  0  0  0  0  0  0  0  0  0  0  0
   18.1165   25.0149   10.5572 H   0  0  0  0  0  0  0  0  0  0  0  0
   17.4931   26.7289    8.8763 H   0  0  0  0  0  0  0  0  0  0  0  0
   17.2561   29.1018    9.5701 H   0  0  0  0  0  0  0  0  0  0  0  0
   17.5632   29.7395   11.9233 H   0  0  0  0  0  0  0  0  0  0  0  0
  1  2  1  0  0  0  0
  1 40  1  0  0  0  0
  1 41  1  0  0  0  0
  2  3  2  0  0  0  0
  2  7  1  0  0  0  0
  3  4  1  0  0  0  0
  3 42  1  0  0  0  0
  4  5  2  0  0  0  0
  4 43  1  0  0  0  0
  5  6  1  0  0  0  0
  5  8  1  0  0  0  0
  6  7  2  0  0  0  0
  6 44  1  0  0  0  0
  7 45  1  0  0  0  0
  8  9  2  0  0  0  0
  8 10  2  0  0  0  0
  8 11  1  0  0  0  0
 11 12  1  0  0  0  0
 11 16  1  0  0  0  0
 12 13  1  0  0  0  0
 12 46  1  0  0  0  0
 12 47  1  0  0  0  0
 13 14  1  0  0  0  0
 13 15  1  0  0  0  0
 13 48  1  1  0  0  0
 14 49  1  0  0  0  0
 14 50  1  0  0  0  0
 14 51  1  0  0  0  0
 15 18  1  0  0  0  0
 15 52  1  0  0  0  0
 15 53  1  0  0  0  0
 16 17  1  0  0  0  0
 16 54  1  0  0  0  0
 16 55  1  0  0  0  0
 17 19  1  0  0  0  0
 17 20  1  0  0  0  0
 17 56  1  1  0  0  0
 18 57  1  0  0  0  0
 18 58  1  0  0  0  0
 18 59  1  0  0  0  0
 19 60  1  0  0  0  0
 20 21  1  0  0  0  0
 20 33  1  0  0  0  0
 20 61  1  6  0  0  0
 21 22  1  0  0  0  0
 21 62  1  0  0  0  0
 22 23  2  0  0  0  0
 22 24  1  0  0  0  0
 24 25  1  0  0  0  0
 25 26  1  0  0  0  0
 25 32  1  0  0  0  0
 25 63  1  6  0  0  0
 26 27  1  0  0  0  0
 26 64  1  0  0  0  0
 26 65  1  0  0  0  0
 27 28  1  0  0  0  0
 28 29  1  0  0  0  0
 28 32  1  0  0  0  0
 28 66  1  6  0  0  0
 29 30  1  0  0  0  0
 30 31  1  0  0  0  0
 30 67  1  0  0  0  0
 30 68  1  0  0  0  0
 31 32  1  0  0  0  0
 31 69  1  0  0  0  0
 31 70  1  0  0  0  0
 32 71  1  6  0  0  0
 33 39  1  0  0  0  0
 33 72  1  0  0  0  0
 33 73  1  0  0  0  0
 34 35  2  0  0  0  0
 34 39  1  0  0  0  0
 34 74  1  0  0  0  0
 35 36  1  0  0  0  0
 35 75  1  0  0  0  0
 36 37  2  0  0  0  0
 36 76  1  0  0  0  0
 37 38  1  0  0  0  0
 37 77  1  0  0  0  0
 38 39  2  0  0  0  0
 38 78  1  0  0  0  0
M  END
$$$$
