K14
 OpenBabel04091914153D

 80 83  0  0  1  0  0  0  0  0999 V2000
   15.2632   36.8497   18.8444 C   0  0  0  0  0  0  0  0  0  0  0  0
   14.8943   35.4997   18.5673 O   0  0  0  0  0  0  0  0  0  0  0  0
   15.6633   34.8267   17.6580 C   0  0  0  0  0  0  0  0  0  0  0  0
   16.6744   35.4027   16.8894 C   0  0  0  0  0  0  0  0  0  0  0  0
   17.3772   34.6294   15.9704 C   0  0  0  0  0  0  0  0  0  0  0  0
   17.0886   33.2719   15.8290 C   0  0  0  0  0  0  0  0  0  0  0  0
   16.0819   32.6759   16.5865 C   0  0  0  0  0  0  0  0  0  0  0  0
   15.3726   33.4620   17.5001 C   0  0  0  0  0  0  0  0  0  0  0  0
   18.0100   32.3323   14.6321 S   0  0  0  0  0  0  0  0  0  0  0  0
   17.1935   31.2203   14.2195 O   0  0  0  0  0  0  0  0  0  0  0  0
   18.5410   33.2721   13.6681 O   0  0  0  0  0  0  0  0  0  0  0  0
   19.3136   31.7376   15.5596 N   0  0  0  0  0  0  0  0  0  0  0  0
   20.0897   32.7686   16.2935 C   0  0  0  0  0  0  0  0  0  0  0  0
   21.5860   32.4645   16.3924 C   0  0  1  0  0  0  0  0  0  0  0  0
   22.2526   32.3897   15.0164 C   0  0  0  0  0  0  0  0  0  0  0  0
   22.2642   33.5180   17.2926 C   0  0  0  0  0  0  0  0  0  0  0  0
   19.0751   30.4910   16.3206 C   0  0  0  0  0  0  0  0  0  0  0  0
   19.9344   29.3500   15.7593 C   0  0  1  0  0  0  0  0  0  0  0  0
   22.1548   34.9543   16.7932 C   0  0  0  0  0  0  0  0  0  0  0  0
   19.9024   28.2328   16.6633 O   0  0  0  0  0  0  0  0  0  0  0  0
   19.5667   28.9079   14.3255 C   0  0  1  0  0  0  0  0  0  0  0  0
   20.6544   28.0646   13.8377 N   0  0  0  0  0  0  0  0  0  0  0  0
   21.5126   28.4393   12.8609 C   0  0  0  0  0  0  0  0  0  0  0  0
   21.5071   29.4951   12.2473 O   0  0  0  0  0  0  0  0  0  0  0  0
   22.3697   27.4141   12.6544 O   0  0  0  0  0  0  0  0  0  0  0  0
   23.2602   27.5291   11.5392 C   0  0  1  0  0  0  0  0  0  0  0  0
   24.5929   26.9598   11.9746 C   0  0  0  0  0  0  0  0  0  0  0  0
   24.4752   25.5351   11.8372 O   0  0  0  0  0  0  0  0  0  0  0  0
   23.5267   25.2735   10.7999 C   0  0  1  0  0  0  0  0  0  0  0  0
   22.5172   24.3547   11.2175 O   0  0  0  0  0  0  0  0  0  0  0  0
   21.2495   25.0123   11.1851 C   0  0  0  0  0  0  0  0  0  0  0  0
   21.3958   26.2370   10.3091 C   0  0  0  0  0  0  0  0  0  0  0  0
   22.8590   26.5833   10.4166 C   0  0  1  0  0  0  0  0  0  0  0  0
   18.2391   28.1286   14.2234 C   0  0  0  0  0  0  0  0  0  0  0  0
   18.1001   26.3977   12.3865 C   0  0  0  0  0  0  0  0  0  0  0  0
   17.9070   26.0464   11.0508 C   0  0  0  0  0  0  0  0  0  0  0  0
   17.5715   27.0212   10.1135 C   0  0  0  0  0  0  0  0  0  0  0  0
   17.4198   28.3470   10.5106 C   0  0  0  0  0  0  0  0  0  0  0  0
   17.5977   28.6978   11.8474 C   0  0  0  0  0  0  0  0  0  0  0  0
   17.9456   27.7279   12.7954 C   0  0  0  0  0  0  0  0  0  0  0  0
   14.5578   37.2509   19.5778 H   0  0  0  0  0  0  0  0  0  0  0  0
   15.1982   37.4814   17.9507 H   0  0  0  0  0  0  0  0  0  0  0  0
   16.2658   36.8977   19.2843 H   0  0  0  0  0  0  0  0  0  0  0  0
   16.9363   36.4515   16.9673 H   0  0  0  0  0  0  0  0  0  0  0  0
   18.1554   35.0984   15.3717 H   0  0  0  0  0  0  0  0  0  0  0  0
   15.8397   31.6233   16.4680 H   0  0  0  0  0  0  0  0  0  0  0  0
   14.5787   33.0092   18.0909 H   0  0  0  0  0  0  0  0  0  0  0  0
   19.6675   32.8731   17.3009 H   0  0  0  0  0  0  0  0  0  0  0  0
   19.9735   33.7305   15.7898 H   0  0  0  0  0  0  0  0  0  0  0  0
   21.7235   31.4934   16.8818 H   0  0  0  0  0  0  0  0  0  0  0  0
   23.3234   32.1853   15.1227 H   0  0  0  0  0  0  0  0  0  0  0  0
   22.1384   33.3217   14.4543 H   0  0  0  0  0  0  0  0  0  0  0  0
   21.8221   31.5873   14.4106 H   0  0  0  0  0  0  0  0  0  0  0  0
   23.3235   33.2618   17.4083 H   0  0  0  0  0  0  0  0  0  0  0  0
   21.8219   33.4648   18.2955 H   0  0  0  0  0  0  0  0  0  0  0  0
   18.0199   30.2034   16.3205 H   0  0  0  0  0  0  0  0  0  0  0  0
   19.3184   30.6355   17.3806 H   0  0  0  0  0  0  0  0  0  0  0  0
   20.9794   29.6794   15.7436 H   0  0  0  0  0  0  0  0  0  0  0  0
   22.6550   35.6338   17.4882 H   0  0  0  0  0  0  0  0  0  0  0  0
   21.1130   35.2805   16.7199 H   0  0  0  0  0  0  0  0  0  0  0  0
   22.6226   35.0739   15.8120 H   0  0  0  0  0  0  0  0  0  0  0  0
   18.9820   27.9317   16.7456 H   0  0  0  0  0  0  0  0  0  0  0  0
   19.5197   29.7933   13.6820 H   0  0  0  0  0  0  0  0  0  0  0  0
   20.8289   27.1717   14.2774 H   0  0  0  0  0  0  0  0  0  0  0  0
   23.3612   28.5640   11.1966 H   0  0  0  0  0  0  0  0  0  0  0  0
   24.8385   27.2021   13.0135 H   0  0  0  0  0  0  0  0  0  0  0  0
   25.4070   27.2912   11.3222 H   0  0  0  0  0  0  0  0  0  0  0  0
   24.0546   24.8200    9.9546 H   0  0  0  0  0  0  0  0  0  0  0  0
   20.9743   25.2709   12.2115 H   0  0  0  0  0  0  0  0  0  0  0  0
   20.4951   24.3195   10.7987 H   0  0  0  0  0  0  0  0  0  0  0  0
   20.7264   27.0498   10.5985 H   0  0  0  0  0  0  0  0  0  0  0  0
   21.1496   25.9748    9.2731 H   0  0  0  0  0  0  0  0  0  0  0  0
   23.2624   26.9538    9.4683 H   0  0  0  0  0  0  0  0  0  0  0  0
   17.3959   28.7134   14.6061 H   0  0  0  0  0  0  0  0  0  0  0  0
   18.2782   27.2233   14.8418 H   0  0  0  0  0  0  0  0  0  0  0  0
   18.4015   25.6336   13.0992 H   0  0  0  0  0  0  0  0  0  0  0  0
   18.0414   25.0152   10.7372 H   0  0  0  0  0  0  0  0  0  0  0  0
   17.4358   26.7499    9.0706 H   0  0  0  0  0  0  0  0  0  0  0  0
   17.1717   29.1141    9.7823 H   0  0  0  0  0  0  0  0  0  0  0  0
   17.4893   29.7402   12.1383 H   0  0  0  0  0  0  0  0  0  0  0  0
  1  2  1  0  0  0  0
  1 41  1  0  0  0  0
  1 42  1  0  0  0  0
  1 43  1  0  0  0  0
  2  3  1  0  0  0  0
  3  4  2  0  0  0  0
  3  8  1  0  0  0  0
  4  5  1  0  0  0  0
  4 44  1  0  0  0  0
  5  6  2  0  0  0  0
  5 45  1  0  0  0  0
  6  7  1  0  0  0  0
  6  9  1  0  0  0  0
  7  8  2  0  0  0  0
  7 46  1  0  0  0  0
  8 47  1  0  0  0  0
  9 10  2  0  0  0  0
  9 11  2  0  0  0  0
  9 12  1  0  0  0  0
 12 13  1  0  0  0  0
 12 17  1  0  0  0  0
 13 14  1  0  0  0  0
 13 48  1  0  0  0  0
 13 49  1  0  0  0  0
 14 15  1  0  0  0  0
 14 16  1  0  0  0  0
 14 50  1  1  0  0  0
 15 51  1  0  0  0  0
 15 52  1  0  0  0  0
 15 53  1  0  0  0  0
 16 19  1  0  0  0  0
 16 54  1  0  0  0  0
 16 55  1  0  0  0  0
 17 18  1  0  0  0  0
 17 56  1  0  0  0  0
 17 57  1  0  0  0  0
 18 20  1  0  0  0  0
 18 21  1  0  0  0  0
 18 58  1  6  0  0  0
 19 59  1  0  0  0  0
 19 60  1  0  0  0  0
 19 61  1  0  0  0  0
 20 62  1  0  0  0  0
 21 22  1  0  0  0  0
 21 34  1  0  0  0  0
 21 63  1  6  0  0  0
 22 23  1  0  0  0  0
 22 64  1  0  0  0  0
 23 24  2  0  0  0  0
 23 25  1  0  0  0  0
 25 26  1  0  0  0  0
 26 27  1  0  0  0  0
 26 33  1  0  0  0  0
 26 65  1  6  0  0  0
 27 28  1  0  0  0  0
 27 66  1  0  0  0  0
 27 67  1  0  0  0  0
 28 29  1  0  0  0  0
 29 30  1  0  0  0  0
 29 33  1  0  0  0  0
 29 68  1  6  0  0  0
 30 31  1  0  0  0  0
 31 32  1  0  0  0  0
 31 69  1  0  0  0  0
 31 70  1  0  0  0  0
 32 33  1  0  0  0  0
 32 71  1  0  0  0  0
 32 72  1  0  0  0  0
 33 73  1  6  0  0  0
 34 40  1  0  0  0  0
 34 74  1  0  0  0  0
 34 75  1  0  0  0  0
 35 36  2  0  0  0  0
 35 40  1  0  0  0  0
 35 76  1  0  0  0  0
 36 37  1  0  0  0  0
 36 77  1  0  0  0  0
 37 38  2  0  0  0  0
 37 78  1  0  0  0  0
 38 39  1  0  0  0  0
 38 79  1  0  0  0  0
 39 40  2  0  0  0  0
 39 80  1  0  0  0  0
M  END
$$$$
