K19
 OpenBabel04091914163D

 78 82  0  0  1  0  0  0  0  0999 V2000
   15.4051   36.5577   18.5141 C   0  0  0  0  0  0  0  0  0  0  0  0
   14.9466   35.3292   18.6139 N   0  0  0  0  0  0  0  0  0  0  0  0
   16.6334   36.8175   17.3539 S   0  0  0  0  0  0  0  0  0  0  0  0
   15.6015   34.5095   17.7070 C   0  0  0  0  0  0  0  0  0  0  0  0
   16.5635   35.1507   16.9246 C   0  0  0  0  0  0  0  0  0  0  0  0
   17.3132   34.4673   15.9598 C   0  0  0  0  0  0  0  0  0  0  0  0
   17.0741   33.0944   15.8033 C   0  0  0  0  0  0  0  0  0  0  0  0
   16.1136   32.4258   16.5529 C   0  0  0  0  0  0  0  0  0  0  0  0
   15.3750   33.1270   17.5088 C   0  0  0  0  0  0  0  0  0  0  0  0
   18.0140   32.1985   14.5898 S   0  0  0  0  0  0  0  0  0  0  0  0
   18.5432   33.1609   13.6573 O   0  0  0  0  0  0  0  0  0  0  0  0
   17.1992   31.0816   14.1457 O   0  0  0  0  0  0  0  0  0  0  0  0
   19.3017   31.5822   15.5168 N   0  0  0  0  0  0  0  0  0  0  0  0
   20.0902   32.5985   16.2526 C   0  0  0  0  0  0  0  0  0  0  0  0
   21.5904   32.2963   16.3099 C   0  0  1  0  0  0  0  0  0  0  0  0
   22.2349   32.2203   14.9243 C   0  0  0  0  0  0  0  0  0  0  0  0
   22.2923   33.3528   17.1867 C   0  0  0  0  0  0  0  0  0  0  0  0
   19.0462   30.3375   16.2709 C   0  0  0  0  0  0  0  0  0  0  0  0
   19.9225   29.2065   15.7233 C   0  0  1  0  0  0  0  0  0  0  0  0
   22.1628   34.7813   16.6707 C   0  0  0  0  0  0  0  0  0  0  0  0
   19.9026   28.0936   16.6306 O   0  0  0  0  0  0  0  0  0  0  0  0
   19.5698   28.7592   14.2873 C   0  0  1  0  0  0  0  0  0  0  0  0
   20.6719   27.9297   13.8167 N   0  0  0  0  0  0  0  0  0  0  0  0
   21.5344   28.3077   12.8480 C   0  0  0  0  0  0  0  0  0  0  0  0
   21.5166   29.3586   12.2290 O   0  0  0  0  0  0  0  0  0  0  0  0
   22.4055   27.2977   12.6612 O   0  0  0  0  0  0  0  0  0  0  0  0
   23.2768   27.3957   11.5252 C   0  0  1  0  0  0  0  0  0  0  0  0
   24.6009   26.7944   11.9466 C   0  0  0  0  0  0  0  0  0  0  0  0
   24.4494   25.3765   11.7989 O   0  0  0  0  0  0  0  0  0  0  0  0
   23.4983   25.1461   10.7561 C   0  0  1  0  0  0  0  0  0  0  0  0
   22.4967   24.2116   11.1555 O   0  0  0  0  0  0  0  0  0  0  0  0
   21.2342   24.8759   11.2030 C   0  0  0  0  0  0  0  0  0  0  0  0
   21.3526   26.1267   10.3604 C   0  0  0  0  0  0  0  0  0  0  0  0
   22.8235   26.4638   10.4122 C   0  0  1  0  0  0  0  0  0  0  0  0
   18.2585   27.9546   14.1756 C   0  0  0  0  0  0  0  0  0  0  0  0
   17.6510   28.5479   11.7951 C   0  0  0  0  0  0  0  0  0  0  0  0
   17.4339   28.2033   10.4626 C   0  0  0  0  0  0  0  0  0  0  0  0
   17.5164   26.8715   10.0655 C   0  0  0  0  0  0  0  0  0  0  0  0
   17.8191   25.8843   11.0010 C   0  0  0  0  0  0  0  0  0  0  0  0
   18.0472   26.2286   12.3342 C   0  0  0  0  0  0  0  0  0  0  0  0
   17.9619   27.5653   12.7439 C   0  0  0  0  0  0  0  0  0  0  0  0
   15.0340   37.3680   19.1266 H   0  0  0  0  0  0  0  0  0  0  0  0
   18.0581   34.9915   15.3661 H   0  0  0  0  0  0  0  0  0  0  0  0
   15.9315   31.3652   16.3972 H   0  0  0  0  0  0  0  0  0  0  0  0
   14.6208   32.6114   18.0945 H   0  0  0  0  0  0  0  0  0  0  0  0
   19.6950   32.6758   17.2742 H   0  0  0  0  0  0  0  0  0  0  0  0
   19.9494   33.5718   15.7794 H   0  0  0  0  0  0  0  0  0  0  0  0
   21.7389   31.3266   16.7987 H   0  0  0  0  0  0  0  0  0  0  0  0
   23.3077   32.0178   15.0187 H   0  0  0  0  0  0  0  0  0  0  0  0
   22.1149   33.1515   14.3625 H   0  0  0  0  0  0  0  0  0  0  0  0
   21.7988   31.4165   14.3253 H   0  0  0  0  0  0  0  0  0  0  0  0
   23.3555   33.1022   17.2739 H   0  0  0  0  0  0  0  0  0  0  0  0
   21.8721   33.3086   18.1994 H   0  0  0  0  0  0  0  0  0  0  0  0
   17.9953   30.0430   16.2320 H   0  0  0  0  0  0  0  0  0  0  0  0
   19.2543   30.4819   17.3374 H   0  0  0  0  0  0  0  0  0  0  0  0
   20.9624   29.5519   15.7086 H   0  0  0  0  0  0  0  0  0  0  0  0
   22.6777   35.4726   17.3423 H   0  0  0  0  0  0  0  0  0  0  0  0
   21.1179   35.1005   16.6187 H   0  0  0  0  0  0  0  0  0  0  0  0
   22.6039   34.8864   15.6759 H   0  0  0  0  0  0  0  0  0  0  0  0
   18.9881   27.7731   16.7030 H   0  0  0  0  0  0  0  0  0  0  0  0
   19.5094   29.6439   13.6446 H   0  0  0  0  0  0  0  0  0  0  0  0
   20.8402   27.0359   14.2599 H   0  0  0  0  0  0  0  0  0  0  0  0
   23.3969   28.4305   11.1859 H   0  0  0  0  0  0  0  0  0  0  0  0
   24.8489   27.0200   12.9885 H   0  0  0  0  0  0  0  0  0  0  0  0
   25.4242   27.1136   11.2993 H   0  0  0  0  0  0  0  0  0  0  0  0
   24.0318   24.7259    9.8973 H   0  0  0  0  0  0  0  0  0  0  0  0
   21.0004   25.1072   12.2469 H   0  0  0  0  0  0  0  0  0  0  0  0
   20.4607   24.1998   10.8269 H   0  0  0  0  0  0  0  0  0  0  0  0
   20.7025   26.9316   10.7088 H   0  0  0  0  0  0  0  0  0  0  0  0
   21.0537   25.8999    9.3310 H   0  0  0  0  0  0  0  0  0  0  0  0
   23.1811   26.8409    9.4467 H   0  0  0  0  0  0  0  0  0  0  0  0
   17.4037   28.5178   14.5679 H   0  0  0  0  0  0  0  0  0  0  0  0
   18.3222   27.0423   14.7827 H   0  0  0  0  0  0  0  0  0  0  0  0
   17.5930   29.5948   12.0849 H   0  0  0  0  0  0  0  0  0  0  0  0
   17.2036   28.9789    9.7375 H   0  0  0  0  0  0  0  0  0  0  0  0
   17.3461   26.6056    9.0264 H   0  0  0  0  0  0  0  0  0  0  0  0
   17.8919   24.8462   10.6886 H   0  0  0  0  0  0  0  0  0  0  0  0
   18.3116   25.4495   13.0451 H   0  0  0  0  0  0  0  0  0  0  0  0
  1  2  2  0  0  0  0
  1  3  1  0  0  0  0
  1 42  1  0  0  0  0
  2  4  1  0  0  0  0
  3  5  1  0  0  0  0
  4  5  2  0  0  0  0
  4  9  1  0  0  0  0
  5  6  1  0  0  0  0
  6  7  2  0  0  0  0
  6 43  1  0  0  0  0
  7  8  1  0  0  0  0
  7 10  1  0  0  0  0
  8  9  2  0  0  0  0
  8 44  1  0  0  0  0
  9 45  1  0  0  0  0
 10 11  2  0  0  0  0
 10 12  2  0  0  0  0
 10 13  1  0  0  0  0
 13 14  1  0  0  0  0
 13 18  1  0  0  0  0
 14 15  1  0  0  0  0
 14 46  1  0  0  0  0
 14 47  1  0  0  0  0
 15 16  1  0  0  0  0
 15 17  1  0  0  0  0
 15 48  1  1  0  0  0
 16 49  1  0  0  0  0
 16 50  1  0  0  0  0
 16 51  1  0  0  0  0
 17 20  1  0  0  0  0
 17 52  1  0  0  0  0
 17 53  1  0  0  0  0
 18 19  1  0  0  0  0
 18 54  1  0  0  0  0
 18 55  1  0  0  0  0
 19 21  1  0  0  0  0
 19 22  1  0  0  0  0
 19 56  1  6  0  0  0
 20 57  1  0  0  0  0
 20 58  1  0  0  0  0
 20 59  1  0  0  0  0
 21 60  1  0  0  0  0
 22 23  1  0  0  0  0
 22 35  1  0  0  0  0
 22 61  1  6  0  0  0
 23 24  1  0  0  0  0
 23 62  1  0  0  0  0
 24 25  2  0  0  0  0
 24 26  1  0  0  0  0
 26 27  1  0  0  0  0
 27 28  1  0  0  0  0
 27 34  1  0  0  0  0
 27 63  1  6  0  0  0
 28 29  1  0  0  0  0
 28 64  1  0  0  0  0
 28 65  1  0  0  0  0
 29 30  1  0  0  0  0
 30 31  1  0  0  0  0
 30 34  1  0  0  0  0
 30 66  1  6  0  0  0
 31 32  1  0  0  0  0
 32 33  1  0  0  0  0
 32 67  1  0  0  0  0
 32 68  1  0  0  0  0
 33 34  1  0  0  0  0
 33 69  1  0  0  0  0
 33 70  1  0  0  0  0
 34 71  1  6  0  0  0
 35 41  1  0  0  0  0
 35 72  1  0  0  0  0
 35 73  1  0  0  0  0
 36 37  2  0  0  0  0
 36 41  1  0  0  0  0
 36 74  1  0  0  0  0
 37 38  1  0  0  0  0
 37 75  1  0  0  0  0
 38 39  2  0  0  0  0
 38 76  1  0  0  0  0
 39 40  1  0  0  0  0
 39 77  1  0  0  0  0
 40 41  2  0  0  0  0
 40 78  1  0  0  0  0
M  END
$$$$
