K54
 OpenBabel04091913553D

 80 84  0  0  1  0  0  0  0  0999 V2000
   15.4477   36.7284   18.3834 C   0  0  0  0  0  0  0  0  0  0  0  0
   24.7220   26.5198    8.9877 F   0  0  0  0  0  0  0  0  0  0  0  0
   14.9905   35.4999   18.4692 N   0  0  0  0  0  0  0  0  0  0  0  0
   16.7172   36.9945   17.2679 S   0  0  0  0  0  0  0  0  0  0  0  0
   15.6692   34.6904   17.5751 C   0  0  0  0  0  0  0  0  0  0  0  0
   24.8361   24.6347   10.0632 F   0  0  0  0  0  0  0  0  0  0  0  0
   16.6564   35.3316   16.8232 C   0  0  0  0  0  0  0  0  0  0  0  0
   25.6143   24.7843    8.0416 F   0  0  0  0  0  0  0  0  0  0  0  0
   17.4262   34.6494   15.8724 C   0  0  0  0  0  0  0  0  0  0  0  0
   17.1865   33.2787   15.7003 C   0  0  0  0  0  0  0  0  0  0  0  0
   16.2001   32.6105   16.4236 C   0  0  0  0  0  0  0  0  0  0  0  0
   15.4428   33.3118   17.3682 C   0  0  0  0  0  0  0  0  0  0  0  0
   18.1369   32.4055   14.4712 S   0  0  0  0  0  0  0  0  0  0  0  0
   17.3152   31.3311   13.9716 O   0  0  0  0  0  0  0  0  0  0  0  0
   18.6937   33.3983   13.5788 O   0  0  0  0  0  0  0  0  0  0  0  0
   19.4143   31.7481   15.3956 N   0  0  0  0  0  0  0  0  0  0  0  0
   20.2563   32.7335   16.1270 C   0  0  0  0  0  0  0  0  0  0  0  0
   21.7378   32.3392   16.1621 C   0  0  0  0  0  0  0  0  0  0  0  0
   22.3437   32.3004   14.7581 C   0  0  0  0  0  0  0  0  0  0  0  0
   22.5055   33.3388   17.0309 C   0  0  0  0  0  0  0  0  0  0  0  0
   19.1533   30.4715   16.1119 C   0  0  0  0  0  0  0  0  0  0  0  0
   20.0017   29.3271   15.5228 C   0  0  1  0  0  0  0  0  0  0  0  0
   19.8717   28.1549   16.3433 O   0  0  0  0  0  0  0  0  0  0  0  0
   19.6509   28.9893   14.0568 C   0  0  1  0  0  0  0  0  0  0  0  0
   20.7539   28.2202   13.4696 N   0  0  0  0  0  0  0  0  0  0  0  0
   21.4069   28.6353   12.3313 C   0  0  0  0  0  0  0  0  0  0  0  0
   21.3127   29.7615   11.8522 O   0  0  0  0  0  0  0  0  0  0  0  0
   22.1456   25.9550   10.1134 N   0  0  0  0  0  0  0  0  0  0  0  0
   21.8847   27.3509   10.2559 C   0  0  0  0  0  0  0  0  0  0  0  0
   22.1239   25.3415   11.3500 C   0  0  0  0  0  0  0  0  0  0  0  0
   22.1061   24.1456   11.5855 O   0  0  0  0  0  0  0  0  0  0  0  0
   22.1270   26.2933   12.3305 O   0  0  0  0  0  0  0  0  0  0  0  0
   22.2833   27.5710   11.6993 C   0  0  2  0  0  0  0  0  0  0  0  0
   18.3256   28.2090   13.9076 C   0  0  0  0  0  0  0  0  0  0  0  0
   18.2205   26.4957   12.0566 C   0  0  0  0  0  0  0  0  0  0  0  0
   18.0171   26.1433   10.7244 C   0  0  0  0  0  0  0  0  0  0  0  0
   17.6574   27.1136    9.7902 C   0  0  0  0  0  0  0  0  0  0  0  0
   17.4848   28.4360   10.1924 C   0  0  0  0  0  0  0  0  0  0  0  0
   17.6717   28.7884   11.5286 C   0  0  0  0  0  0  0  0  0  0  0  0
   18.0452   27.8218   12.4716 C   0  0  0  0  0  0  0  0  0  0  0  0
   21.8676   23.6236    6.6440 C   0  0  0  0  0  0  0  0  0  0  0  0
   23.1184   23.9714    7.1553 C   0  0  0  0  0  0  0  0  0  0  0  0
   23.2263   24.7903    8.2928 C   0  0  0  0  0  0  0  0  0  0  0  0
   22.0533   25.2499    8.9084 C   0  0  0  0  0  0  0  0  0  0  0  0
   20.8025   24.9189    8.3791 C   0  0  0  0  0  0  0  0  0  0  0  0
   20.7102   24.1011    7.2521 C   0  0  0  0  0  0  0  0  0  0  0  0
   24.5780   25.1697    8.8388 C   0  0  0  0  0  0  0  0  0  0  0  0
   15.0498   37.5358   18.9832 H   0  0  0  0  0  0  0  0  0  0  0  0
   18.1793   35.1730   15.2892 H   0  0  0  0  0  0  0  0  0  0  0  0
   16.0029   31.5535   16.2585 H   0  0  0  0  0  0  0  0  0  0  0  0
   14.6685   32.8090   17.9402 H   0  0  0  0  0  0  0  0  0  0  0  0
   19.8679   32.8390   17.1478 H   0  0  0  0  0  0  0  0  0  0  0  0
   20.1827   33.7196   15.6562 H   0  0  0  0  0  0  0  0  0  0  0  0
   21.8500   31.3522   16.6227 H   0  0  0  0  0  0  0  0  0  0  0  0
   23.4039   32.0297   14.8021 H   0  0  0  0  0  0  0  0  0  0  0  0
   22.2648   33.2757   14.2656 H   0  0  0  0  0  0  0  0  0  0  0  0
   21.8406   31.5631   14.1255 H   0  0  0  0  0  0  0  0  0  0  0  0
   22.0882   33.3731   18.0431 H   0  0  0  0  0  0  0  0  0  0  0  0
   22.4563   34.3494   16.6109 H   0  0  0  0  0  0  0  0  0  0  0  0
   23.5596   33.0551   17.1124 H   0  0  0  0  0  0  0  0  0  0  0  0
   18.0951   30.1952   16.0957 H   0  0  0  0  0  0  0  0  0  0  0  0
   19.3887   30.5805   17.1781 H   0  0  0  0  0  0  0  0  0  0  0  0
   21.0603   29.6058   15.5583 H   0  0  0  0  0  0  0  0  0  0  0  0
   20.2994   28.3438   17.1967 H   0  0  0  0  0  0  0  0  0  0  0  0
   19.5790   29.9207   13.4870 H   0  0  0  0  0  0  0  0  0  0  0  0
   20.8664   27.2526   13.7608 H   0  0  0  0  0  0  0  0  0  0  0  0
   20.8243   27.5523   10.0706 H   0  0  0  0  0  0  0  0  0  0  0  0
   22.4923   27.9437    9.5648 H   0  0  0  0  0  0  0  0  0  0  0  0
   23.3316   27.8747   11.8045 H   0  0  0  0  0  0  0  0  0  0  0  0
   17.4794   28.7935   14.2849 H   0  0  0  0  0  0  0  0  0  0  0  0
   18.3488   27.2980   14.5186 H   0  0  0  0  0  0  0  0  0  0  0  0
   18.5285   25.7316   12.7670 H   0  0  0  0  0  0  0  0  0  0  0  0
   18.1502   25.1091   10.4193 H   0  0  0  0  0  0  0  0  0  0  0  0
   17.5129   26.8420    8.7483 H   0  0  0  0  0  0  0  0  0  0  0  0
   17.2080   29.1978    9.4683 H   0  0  0  0  0  0  0  0  0  0  0  0
   17.5418   29.8273   11.8261 H   0  0  0  0  0  0  0  0  0  0  0  0
   21.7967   22.9727    5.7752 H   0  0  0  0  0  0  0  0  0  0  0  0
   24.0147   23.5889    6.6690 H   0  0  0  0  0  0  0  0  0  0  0  0
   19.8925   25.2568    8.8592 H   0  0  0  0  0  0  0  0  0  0  0  0
   19.7347   23.8153    6.8647 H   0  0  0  0  0  0  0  0  0  0  0  0
  1  3  2  0  0  0  0
  1  4  1  0  0  0  0
  1 48  1  0  0  0  0
  2 47  1  0  0  0  0
  3  5  1  0  0  0  0
  4  7  1  0  0  0  0
  5  7  2  0  0  0  0
  5 12  1  0  0  0  0
  6 47  1  0  0  0  0
  7  9  1  0  0  0  0
  8 47  1  0  0  0  0
  9 10  2  0  0  0  0
  9 49  1  0  0  0  0
 10 11  1  0  0  0  0
 10 13  1  0  0  0  0
 11 12  2  0  0  0  0
 11 50  1  0  0  0  0
 12 51  1  0  0  0  0
 13 14  2  0  0  0  0
 13 15  2  0  0  0  0
 13 16  1  0  0  0  0
 16 17  1  0  0  0  0
 16 21  1  0  0  0  0
 17 18  1  0  0  0  0
 17 52  1  0  0  0  0
 17 53  1  0  0  0  0
 18 19  1  0  0  0  0
 18 20  1  0  0  0  0
 18 54  1  0  0  0  0
 19 55  1  0  0  0  0
 19 56  1  0  0  0  0
 19 57  1  0  0  0  0
 20 58  1  0  0  0  0
 20 59  1  0  0  0  0
 20 60  1  0  0  0  0
 21 22  1  0  0  0  0
 21 61  1  0  0  0  0
 21 62  1  0  0  0  0
 22 23  1  0  0  0  0
 22 24  1  0  0  0  0
 22 63  1  1  0  0  0
 23 64  1  0  0  0  0
 24 25  1  0  0  0  0
 24 34  1  0  0  0  0
 24 65  1  6  0  0  0
 25 26  1  0  0  0  0
 25 66  1  0  0  0  0
 26 27  2  0  0  0  0
 26 33  1  0  0  0  0
 28 29  1  0  0  0  0
 28 30  1  0  0  0  0
 28 44  1  0  0  0  0
 29 33  1  0  0  0  0
 29 67  1  0  0  0  0
 29 68  1  0  0  0  0
 30 31  2  0  0  0  0
 30 32  1  0  0  0  0
 32 33  1  0  0  0  0
 33 69  1  1  0  0  0
 34 40  1  0  0  0  0
 34 70  1  0  0  0  0
 34 71  1  0  0  0  0
 35 36  2  0  0  0  0
 35 40  1  0  0  0  0
 35 72  1  0  0  0  0
 36 37  1  0  0  0  0
 36 73  1  0  0  0  0
 37 38  2  0  0  0  0
 37 74  1  0  0  0  0
 38 39  1  0  0  0  0
 38 75  1  0  0  0  0
 39 40  2  0  0  0  0
 39 76  1  0  0  0  0
 41 42  2  0  0  0  0
 41 46  1  0  0  0  0
 41 77  1  0  0  0  0
 42 43  1  0  0  0  0
 42 78  1  0  0  0  0
 43 44  2  0  0  0  0
 43 47  1  0  0  0  0
 44 45  1  0  0  0  0
 45 46  2  0  0  0  0
 45 79  1  0  0  0  0
 46 80  1  0  0  0  0
M  END
$$$$
