K62
 OpenBabel04091912443D

 83 87  0  0  1  0  0  0  0  0999 V2000
   18.4517   27.6612    5.8779 O   0  0  0  0  0  0  0  0  0  0  0  0
   18.7299   26.4872    5.6367 C   0  0  0  0  0  0  0  0  0  0  0  0
   18.1164   25.7869    4.4477 C   0  0  0  0  0  0  0  0  0  0  0  0
   19.6674   25.7576    6.5414 C   0  0  0  0  0  0  0  0  0  0  0  0
   20.1890   24.5069    6.2083 C   0  0  0  0  0  0  0  0  0  0  0  0
   21.0265   23.8399    7.0960 C   0  0  0  0  0  0  0  0  0  0  0  0
   21.3505   24.4204    8.3195 C   0  0  0  0  0  0  0  0  0  0  0  0
   20.0306   26.3538    7.7642 C   0  0  0  0  0  0  0  0  0  0  0  0
   20.8651   25.6849    8.6716 C   0  0  0  0  0  0  0  0  0  0  0  0
   21.2251   26.2712    9.9051 N   0  0  0  0  0  0  0  0  0  0  0  0
   21.5735   25.5949   11.0599 C   0  0  0  0  0  0  0  0  0  0  0  0
   21.5998   24.3897   11.2522 O   0  0  0  0  0  0  0  0  0  0  0  0
   21.8447   26.4807   12.0656 O   0  0  0  0  0  0  0  0  0  0  0  0
   21.2377   27.6821   10.1424 C   0  0  0  0  0  0  0  0  0  0  0  0
   21.8687   27.7908   11.5142 C   0  0  1  0  0  0  0  0  0  0  0  0
   21.1176   28.8245   12.3293 C   0  0  0  0  0  0  0  0  0  0  0  0
   21.0918   30.0018   11.9622 O   0  0  0  0  0  0  0  0  0  0  0  0
   20.4771   28.3692   13.4524 N   0  0  0  0  0  0  0  0  0  0  0  0
   19.4276   29.1648   14.1041 C   0  0  1  0  0  0  0  0  0  0  0  0
   18.0814   28.4172   13.9956 C   0  0  0  0  0  0  0  0  0  0  0  0
   17.7417   28.1019   12.5525 C   0  0  0  0  0  0  0  0  0  0  0  0
   17.3629   29.1194   11.6661 C   0  0  0  0  0  0  0  0  0  0  0  0
   17.1210   28.8354   10.3226 C   0  0  0  0  0  0  0  0  0  0  0  0
   17.2586   27.5327    9.8514 C   0  0  0  0  0  0  0  0  0  0  0  0
   17.6459   26.5147   10.7212 C   0  0  0  0  0  0  0  0  0  0  0  0
   17.8880   26.7972   12.0652 C   0  0  0  0  0  0  0  0  0  0  0  0
   19.8420   29.4991   15.5540 C   0  0  2  0  0  0  0  0  0  0  0  0
   19.7457   28.3314   16.3856 O   0  0  0  0  0  0  0  0  0  0  0  0
   18.9971   30.6364   16.1665 C   0  0  0  0  0  0  0  0  0  0  0  0
   19.2485   31.9280   15.4803 N   0  0  0  0  0  0  0  0  0  0  0  0
   20.0726   32.8949   16.2485 C   0  0  0  0  0  0  0  0  0  0  0  0
   21.5433   32.4746   16.3025 C   0  0  0  0  0  0  0  0  0  0  0  0
   22.3153   33.4395   17.1993 C   0  0  0  0  0  0  0  0  0  0  0  0
   22.1683   32.4447   14.9083 C   0  0  0  0  0  0  0  0  0  0  0  0
   17.9675   32.6051   14.5797 S   0  0  0  0  0  0  0  0  0  0  0  0
   18.5199   33.6116   13.6993 O   0  0  0  0  0  0  0  0  0  0  0  0
   17.1412   31.5341   14.0738 O   0  0  0  0  0  0  0  0  0  0  0  0
   17.0215   33.4547   15.8239 C   0  0  0  0  0  0  0  0  0  0  0  0
   16.0286   32.7522   16.5232 C   0  0  0  0  0  0  0  0  0  0  0  0
   15.2605   33.4127   17.4825 C   0  0  0  0  0  0  0  0  0  0  0  0
   17.2488   34.8203   16.0419 C   0  0  0  0  0  0  0  0  0  0  0  0
   16.4780   35.4367   17.0038 C   0  0  0  0  0  0  0  0  0  0  0  0
   16.5565   36.7447   17.3748 O   0  0  0  0  0  0  0  0  0  0  0  0
   15.5140   34.7526   17.7046 C   0  0  0  0  0  0  0  0  0  0  0  0
   14.8643   35.5410   18.5985 O   0  0  0  0  0  0  0  0  0  0  0  0
   15.5580   36.7949   18.4178 C   0  0  0  0  0  0  0  0  0  0  0  0
   18.3813   24.7349    4.3673 H   0  0  0  0  0  0  0  0  0  0  0  0
   18.4373   26.2882    3.5311 H   0  0  0  0  0  0  0  0  0  0  0  0
   17.0277   25.8277    4.5398 H   0  0  0  0  0  0  0  0  0  0  0  0
   19.9803   24.0205    5.2631 H   0  0  0  0  0  0  0  0  0  0  0  0
   21.4331   22.8684    6.8275 H   0  0  0  0  0  0  0  0  0  0  0  0
   22.0341   23.8792    8.9693 H   0  0  0  0  0  0  0  0  0  0  0  0
   19.6089   27.3245    8.0170 H   0  0  0  0  0  0  0  0  0  0  0  0
   20.2270   28.0969   10.0955 H   0  0  0  0  0  0  0  0  0  0  0  0
   21.8564   28.1806    9.3873 H   0  0  0  0  0  0  0  0  0  0  0  0
   22.9131   28.1193   11.4613 H   0  0  0  0  0  0  0  0  0  0  0  0
   20.5033   27.3706   13.6551 H   0  0  0  0  0  0  0  0  0  0  0  0
   19.3481   30.1079   13.5536 H   0  0  0  0  0  0  0  0  0  0  0  0
   17.2608   28.9909   14.4384 H   0  0  0  0  0  0  0  0  0  0  0  0
   18.1321   27.4811   14.5656 H   0  0  0  0  0  0  0  0  0  0  0  0
   17.2736   30.1478   12.0084 H   0  0  0  0  0  0  0  0  0  0  0  0
   16.8319   29.6341    9.6439 H   0  0  0  0  0  0  0  0  0  0  0  0
   17.0768   27.3172    8.8016 H   0  0  0  0  0  0  0  0  0  0  0  0
   17.7722   25.5009   10.3511 H   0  0  0  0  0  0  0  0  0  0  0  0
   18.2118   25.9966   12.7262 H   0  0  0  0  0  0  0  0  0  0  0  0
   20.9010   29.7817   15.5462 H   0  0  0  0  0  0  0  0  0  0  0  0
   20.0838   28.5680   17.2673 H   0  0  0  0  0  0  0  0  0  0  0  0
   19.2294   30.7277   17.2346 H   0  0  0  0  0  0  0  0  0  0  0  0
   17.9408   30.3610   16.1406 H   0  0  0  0  0  0  0  0  0  0  0  0
   19.6631   32.9710   17.2638 H   0  0  0  0  0  0  0  0  0  0  0  0
   20.0118   33.8935   15.8025 H   0  0  0  0  0  0  0  0  0  0  0  0
   21.6265   31.4772   16.7470 H   0  0  0  0  0  0  0  0  0  0  0  0
   23.3702   33.1539   17.2549 H   0  0  0  0  0  0  0  0  0  0  0  0
   21.9081   33.4298   18.2159 H   0  0  0  0  0  0  0  0  0  0  0  0
   22.2566   34.4648   16.8188 H   0  0  0  0  0  0  0  0  0  0  0  0
   21.6349   31.7578   14.2447 H   0  0  0  0  0  0  0  0  0  0  0  0
   23.2090   32.1097   14.9632 H   0  0  0  0  0  0  0  0  0  0  0  0
   22.1531   33.4379   14.4473 H   0  0  0  0  0  0  0  0  0  0  0  0
   15.8480   31.6978   16.3190 H   0  0  0  0  0  0  0  0  0  0  0  0
   14.4842   32.8899   18.0312 H   0  0  0  0  0  0  0  0  0  0  0  0
   18.0006   35.3708   15.4855 H   0  0  0  0  0  0  0  0  0  0  0  0
   14.8281   37.5783   18.1808 H   0  0  0  0  0  0  0  0  0  0  0  0
   16.0491   37.0601   19.3622 H   0  0  0  0  0  0  0  0  0  0  0  0
  1  2  2  0  0  0  0
  2  3  1  0  0  0  0
  2  4  1  0  0  0  0
  3 47  1  0  0  0  0
  3 48  1  0  0  0  0
  3 49  1  0  0  0  0
  4  5  2  0  0  0  0
  4  8  1  0  0  0  0
  5  6  1  0  0  0  0
  5 50  1  0  0  0  0
  6  7  2  0  0  0  0
  6 51  1  0  0  0  0
  7  9  1  0  0  0  0
  7 52  1  0  0  0  0
  8  9  2  0  0  0  0
  8 53  1  0  0  0  0
  9 10  1  0  0  0  0
 10 11  1  0  0  0  0
 10 14  1  0  0  0  0
 11 12  2  0  0  0  0
 11 13  1  0  0  0  0
 13 15  1  0  0  0  0
 14 15  1  0  0  0  0
 14 54  1  0  0  0  0
 14 55  1  0  0  0  0
 15 16  1  0  0  0  0
 15 56  1  6  0  0  0
 16 17  2  0  0  0  0
 16 18  1  0  0  0  0
 18 19  1  0  0  0  0
 18 57  1  0  0  0  0
 19 20  1  0  0  0  0
 19 27  1  0  0  0  0
 19 58  1  6  0  0  0
 20 21  1  0  0  0  0
 20 59  1  0  0  0  0
 20 60  1  0  0  0  0
 21 22  2  0  0  0  0
 21 26  1  0  0  0  0
 22 23  1  0  0  0  0
 22 61  1  0  0  0  0
 23 24  2  0  0  0  0
 23 62  1  0  0  0  0
 24 25  1  0  0  0  0
 24 63  1  0  0  0  0
 25 26  2  0  0  0  0
 25 64  1  0  0  0  0
 26 65  1  0  0  0  0
 27 28  1  0  0  0  0
 27 29  1  0  0  0  0
 27 66  1  6  0  0  0
 28 67  1  0  0  0  0
 29 30  1  0  0  0  0
 29 68  1  0  0  0  0
 29 69  1  0  0  0  0
 30 31  1  0  0  0  0
 30 35  1  0  0  0  0
 31 32  1  0  0  0  0
 31 70  1  0  0  0  0
 31 71  1  0  0  0  0
 32 33  1  0  0  0  0
 32 34  1  0  0  0  0
 32 72  1  0  0  0  0
 33 73  1  0  0  0  0
 33 74  1  0  0  0  0
 33 75  1  0  0  0  0
 34 76  1  0  0  0  0
 34 77  1  0  0  0  0
 34 78  1  0  0  0  0
 35 36  2  0  0  0  0
 35 37  2  0  0  0  0
 35 38  1  0  0  0  0
 38 39  2  0  0  0  0
 38 41  1  0  0  0  0
 39 40  1  0  0  0  0
 39 79  1  0  0  0  0
 40 44  2  0  0  0  0
 40 80  1  0  0  0  0
 41 42  2  0  0  0  0
 41 81  1  0  0  0  0
 42 43  1  0  0  0  0
 42 44  1  0  0  0  0
 43 46  1  0  0  0  0
 44 45  1  0  0  0  0
 45 46  1  0  0  0  0
 46 82  1  0  0  0  0
 46 83  1  0  0  0  0
M  END
$$$$
