KAA
 OpenBabel04091910493D

 59 61  0  0  1  0  0  0  0  0999 V2000
   -3.7207   -4.2245    3.3011 N   0  3  0  0  0  0  0  0  0  0  0  0
   -3.1480   -2.8582    3.2662 C   0  0  0  0  0  0  0  0  0  0  0  0
   -2.2916   -2.6920    2.0198 C   0  0  0  0  0  0  0  0  0  0  0  0
   -3.0913   -2.8660    0.7263 C   0  0  0  0  0  0  0  0  0  0  0  0
   -2.2469   -2.4655   -0.4791 C   0  0  0  0  0  0  0  0  0  0  0  0
   -3.0296   -2.5182   -1.7921 C   0  0  2  0  0  0  0  0  0  0  0  0
   -3.2854   -3.9666   -2.1223 N   0  3  0  0  0  0  0  0  0  0  0  0
   -2.2149   -1.9449   -2.9333 C   0  0  0  0  0  0  0  0  0  0  0  0
   -1.7944   -2.7601   -3.7684 O   0  0  0  0  0  0  0  0  0  0  0  0
   -2.0794   -0.6316   -2.8331 N   0  0  0  0  0  0  0  0  0  0  0  0
   -1.4531    0.1313   -4.0747 S   0  0  0  0  0  0  0  0  0  0  0  0
   -2.0473   -0.2063   -5.3596 O   0  0  0  0  0  0  0  0  0  0  0  0
   -1.2618    1.5591   -3.8537 O   0  0  0  0  0  0  0  0  0  0  0  0
    0.0643   -0.4671   -4.1414 O   0  0  0  0  0  0  0  0  0  0  0  0
    1.0236   -0.0922   -3.1584 C   0  0  0  0  0  0  0  0  0  0  0  0
    2.2794    0.4760   -3.8098 C   0  0  1  0  0  0  0  0  0  0  0  0
    2.8100   -0.3951   -4.8274 O   0  0  0  0  0  0  0  0  0  0  0  0
    2.0802    1.8244   -4.4823 C   0  0  1  0  0  0  0  0  0  0  0  0
    2.0298    2.8845   -3.5320 O   0  0  0  0  0  0  0  0  0  0  0  0
    3.3271    1.9040   -5.3482 C   0  0  1  0  0  0  0  0  0  0  0  0
    4.4341    2.4095   -4.5787 O   0  0  0  0  0  0  0  0  0  0  0  0
    3.5815    0.4415   -5.7250 C   0  0  2  0  0  0  0  0  0  0  0  0
    3.2182    0.1367   -7.0945 N   0  3  0  0  0  0  0  0  0  0  0  0
    1.9566   -0.0937   -7.5711 C   0  0  0  0  0  0  0  0  0  0  0  0
    1.9568   -0.3205   -8.8679 N   0  0  0  0  0  0  0  0  0  0  0  0
    3.2819   -0.2399   -9.2376 C   0  0  0  0  0  0  0  0  0  0  0  0
    4.0878    0.0622   -8.1526 C   0  0  0  0  0  0  0  0  0  0  0  0
    5.4206    0.2340   -8.1602 N   0  0  0  0  0  0  0  0  0  0  0  0
    5.9202    0.0589   -9.4023 C   0  0  0  0  0  0  0  0  0  0  0  0
    5.2632   -0.2486  -10.5420 N   0  0  0  0  0  0  0  0  0  0  0  0
    3.9225   -0.3985  -10.4773 C   0  0  0  0  0  0  0  0  0  0  0  0
    3.2250   -0.7026  -11.6210 N   0  0  0  0  0  0  0  0  0  0  0  0
   -4.2945   -4.3586    4.1466 H   0  0  0  0  0  0  0  0  0  0  0  0
   -4.3342   -4.4147    2.5021 H   0  0  0  0  0  0  0  0  0  0  0  0
   -2.5534   -2.7364    4.1750 H   0  0  0  0  0  0  0  0  0  0  0  0
   -3.9870   -2.1559    3.2758 H   0  0  0  0  0  0  0  0  0  0  0  0
   -1.4642   -3.4128    2.0335 H   0  0  0  0  0  0  0  0  0  0  0  0
   -1.8423   -1.6917    2.0401 H   0  0  0  0  0  0  0  0  0  0  0  0
   -3.9963   -2.2479    0.7627 H   0  0  0  0  0  0  0  0  0  0  0  0
   -3.4094   -3.9087    0.6252 H   0  0  0  0  0  0  0  0  0  0  0  0
   -1.3610   -3.1125   -0.5402 H   0  0  0  0  0  0  0  0  0  0  0  0
   -1.8725   -1.4485   -0.3158 H   0  0  0  0  0  0  0  0  0  0  0  0
   -4.0150   -2.0480   -1.7248 H   0  0  0  0  0  0  0  0  0  0  0  0
   -3.7445   -3.9970   -3.0467 H   0  0  0  0  0  0  0  0  0  0  0  0
   -2.3724   -4.4063   -2.3251 H   0  0  0  0  0  0  0  0  0  0  0  0
    1.2804   -1.0001   -2.6036 H   0  0  0  0  0  0  0  0  0  0  0  0
    0.6161    0.6267   -2.4395 H   0  0  0  0  0  0  0  0  0  0  0  0
    3.0434    0.5668   -3.0256 H   0  0  0  0  0  0  0  0  0  0  0  0
    1.1737    1.8275   -5.1083 H   0  0  0  0  0  0  0  0  0  0  0  0
    1.7554    3.6881   -4.0078 H   0  0  0  0  0  0  0  0  0  0  0  0
    3.2055    2.5754   -6.2044 H   0  0  0  0  0  0  0  0  0  0  0  0
    4.1299    3.2391   -4.1651 H   0  0  0  0  0  0  0  0  0  0  0  0
    4.6350    0.1653   -5.5815 H   0  0  0  0  0  0  0  0  0  0  0  0
    1.0741   -0.0862   -6.9348 H   0  0  0  0  0  0  0  0  0  0  0  0
    6.9980    0.1793   -9.5061 H   0  0  0  0  0  0  0  0  0  0  0  0
    3.7353   -0.8381  -12.4827 H   0  0  0  0  0  0  0  0  0  0  0  0
    2.2278   -0.8468  -11.5478 H   0  0  0  0  0  0  0  0  0  0  0  0
   -2.9818   -4.9408    3.3230 H   0  0  0  0  0  0  0  0  0  0  0  0
   -3.8259   -4.4985   -1.4473 H   0  0  0  0  0  0  0  0  0  0  0  0
  1  2  1  0  0  0  0
  1 33  1  0  0  0  0
  1 34  1  0  0  0  0
  1 58  1  0  0  0  0
  2  3  1  0  0  0  0
  2 35  1  0  0  0  0
  2 36  1  0  0  0  0
  3  4  1  0  0  0  0
  3 37  1  0  0  0  0
  3 38  1  0  0  0  0
  4  5  1  0  0  0  0
  4 39  1  0  0  0  0
  4 40  1  0  0  0  0
  5  6  1  0  0  0  0
  5 41  1  0  0  0  0
  5 42  1  0  0  0  0
  6  7  1  0  0  0  0
  6  8  1  0  0  0  0
  6 43  1  1  0  0  0
  7 44  1  0  0  0  0
  7 45  1  0  0  0  0
  7 59  1  0  0  0  0
  8  9  2  0  0  0  0
  8 10  1  0  0  0  0
 10 11  1  0  0  0  0
 11 12  2  0  0  0  0
 11 13  2  0  0  0  0
 11 14  1  0  0  0  0
 14 15  1  0  0  0  0
 15 16  1  0  0  0  0
 15 46  1  0  0  0  0
 15 47  1  0  0  0  0
 16 17  1  0  0  0  0
 16 18  1  0  0  0  0
 16 48  1  1  0  0  0
 17 22  1  0  0  0  0
 18 19  1  0  0  0  0
 18 20  1  0  0  0  0
 18 49  1  6  0  0  0
 19 50  1  0  0  0  0
 20 21  1  0  0  0  0
 20 22  1  0  0  0  0
 20 51  1  6  0  0  0
 21 52  1  0  0  0  0
 22 23  1  0  0  0  0
 22 53  1  1  0  0  0
 23 24  2  0  0  0  0
 23 27  1  0  0  0  0
 24 25  1  0  0  0  0
 24 54  1  0  0  0  0
 25 26  1  0  0  0  0
 26 27  2  0  0  0  0
 26 31  1  0  0  0  0
 27 28  1  0  0  0  0
 28 29  2  0  0  0  0
 29 30  1  0  0  0  0
 29 55  1  0  0  0  0
 30 31  2  0  0  0  0
 31 32  1  0  0  0  0
 32 56  1  0  0  0  0
 32 57  1  0  0  0  0
M  CHG  3   1   1   7   1  23   1
M  END
$$$$
