KAF
 OpenBabel04091911033D

 65 67  0  0  1  0  0  0  0  0999 V2000
   44.2843   46.2519   39.8700 C   0  0  0  0  0  0  0  0  0  0  0  0
   43.0716   46.7753   39.4390 C   0  0  0  0  0  0  0  0  0  0  0  0
   43.0192   48.0597   38.9109 C   0  0  0  0  0  0  0  0  0  0  0  0
   44.1761   48.8213   38.8161 C   0  0  0  0  0  0  0  0  0  0  0  0
   45.3919   48.2958   39.2515 C   0  0  0  0  0  0  0  0  0  0  0  0
   45.4584   47.0049   39.7729 C   0  0  0  0  0  0  0  0  0  0  0  0
   46.7762   46.4360   40.2427 C   0  0  0  0  0  0  0  0  0  0  0  0
   47.2556   46.9700   41.5933 C   0  0  1  0  0  0  0  0  0  0  0  0
   47.9307   48.3657   41.4197 C   0  0  0  0  0  0  0  0  0  0  0  0
   47.2540   49.3527   41.8754 O   0  0  0  0  0  0  0  0  0  0  0  0
   49.0403   48.3768   40.8239 O   0  0  0  0  0  0  0  0  0  0  0  0
   46.1692   46.9383   42.5834 N   0  0  0  0  0  0  0  0  0  0  0  0
   46.4315   47.2858   43.8638 C   0  0  0  0  0  0  0  0  0  0  0  0
   47.5698   47.4622   44.2847 O   0  0  0  0  0  0  0  0  0  0  0  0
   45.2240   47.3085   44.7795 C   0  0  0  0  0  0  0  0  0  0  0  0
   45.6937   47.0560   46.2053 C   0  0  0  0  0  0  0  0  0  0  0  0
   45.2322   45.6981   46.7308 C   0  0  0  0  0  0  0  0  0  0  0  0
   45.5084   44.6640   45.7846 O   0  0  0  0  0  0  0  0  0  0  0  0
   43.8174   45.7596   46.9062 O   0  0  0  0  0  0  0  0  0  0  0  0
   45.9085   45.3785   48.0940 C   0  0  2  0  0  0  0  0  0  0  0  0
   47.4307   45.5386   48.0359 C   0  0  0  0  0  0  0  0  0  0  0  0
   48.0804   45.3036   49.3659 C   0  0  0  0  0  0  0  0  0  0  0  0
   48.2035   46.3422   50.2895 C   0  0  0  0  0  0  0  0  0  0  0  0
   48.7810   46.1115   51.5314 C   0  0  0  0  0  0  0  0  0  0  0  0
   49.2333   44.8386   51.8631 C   0  0  0  0  0  0  0  0  0  0  0  0
   49.1100   43.7950   50.9510 C   0  0  0  0  0  0  0  0  0  0  0  0
   48.5352   44.0308   49.7077 C   0  0  0  0  0  0  0  0  0  0  0  0
   45.5993   44.0245   48.5354 N   0  0  0  0  0  0  0  0  0  0  0  0
   44.4805   43.7430   49.2816 C   0  0  0  0  0  0  0  0  0  0  0  0
   43.6951   44.5788   49.6441 O   0  0  0  0  0  0  0  0  0  0  0  0
   44.3446   42.2936   49.6535 C   0  0  0  0  0  0  0  0  0  0  0  0
   45.1072   41.3034   49.0356 C   0  0  0  0  0  0  0  0  0  0  0  0
   44.9544   39.9632   49.3763 C   0  0  0  0  0  0  0  0  0  0  0  0
   44.0319   39.5979   50.3470 C   0  0  0  0  0  0  0  0  0  0  0  0
   43.2654   40.5741   50.9725 C   0  0  0  0  0  0  0  0  0  0  0  0
   43.4232   41.9214   50.6233 C   0  0  0  0  0  0  0  0  0  0  0  0
   44.3228   45.2520   40.2868 H   0  0  0  0  0  0  0  0  0  0  0  0
   42.1713   46.1786   39.5126 H   0  0  0  0  0  0  0  0  0  0  0  0
   42.0758   48.4712   38.5721 H   0  0  0  0  0  0  0  0  0  0  0  0
   44.1467   49.8232   38.4119 H   0  0  0  0  0  0  0  0  0  0  0  0
   46.2959   48.8979   39.1863 H   0  0  0  0  0  0  0  0  0  0  0  0
   47.5245   46.6380   39.4700 H   0  0  0  0  0  0  0  0  0  0  0  0
   46.6576   45.3455   40.3148 H   0  0  0  0  0  0  0  0  0  0  0  0
   48.0301   46.2753   41.9652 H   0  0  0  0  0  0  0  0  0  0  0  0
   45.2221   46.8736   42.2552 H   0  0  0  0  0  0  0  0  0  0  0  0
   44.4984   46.5483   44.4727 H   0  0  0  0  0  0  0  0  0  0  0  0
   44.7527   48.2923   44.7113 H   0  0  0  0  0  0  0  0  0  0  0  0
   45.3235   47.8460   46.8678 H   0  0  0  0  0  0  0  0  0  0  0  0
   46.7810   47.0977   46.2282 H   0  0  0  0  0  0  0  0  0  0  0  0
   46.4675   44.6274   45.6327 H   0  0  0  0  0  0  0  0  0  0  0  0
   43.6286   46.4344   47.5825 H   0  0  0  0  0  0  0  0  0  0  0  0
   45.4995   46.0735   48.8330 H   0  0  0  0  0  0  0  0  0  0  0  0
   47.6864   46.5553   47.7320 H   0  0  0  0  0  0  0  0  0  0  0  0
   47.8524   44.8463   47.3009 H   0  0  0  0  0  0  0  0  0  0  0  0
   47.8515   47.3360   50.0352 H   0  0  0  0  0  0  0  0  0  0  0  0
   48.8777   46.9255   52.2403 H   0  0  0  0  0  0  0  0  0  0  0  0
   49.6834   44.6582   52.8333 H   0  0  0  0  0  0  0  0  0  0  0  0
   49.4604   42.8058   51.2044 H   0  0  0  0  0  0  0  0  0  0  0  0
   48.4379   43.2146   49.0004 H   0  0  0  0  0  0  0  0  0  0  0  0
   46.2155   43.2958   48.2540 H   0  0  0  0  0  0  0  0  0  0  0  0
   45.8262   41.5471   48.2634 H   0  0  0  0  0  0  0  0  0  0  0  0
   45.5538   39.2076   48.8804 H   0  0  0  0  0  0  0  0  0  0  0  0
   43.9103   38.5534   50.6149 H   0  0  0  0  0  0  0  0  0  0  0  0
   42.5417   40.2915   51.7313 H   0  0  0  0  0  0  0  0  0  0  0  0
   42.8171   42.6707   51.1203 H   0  0  0  0  0  0  0  0  0  0  0  0
  1  2  2  0  0  0  0
  1  6  1  0  0  0  0
  1 37  1  0  0  0  0
  2  3  1  0  0  0  0
  2 38  1  0  0  0  0
  3  4  2  0  0  0  0
  3 39  1  0  0  0  0
  4  5  1  0  0  0  0
  4 40  1  0  0  0  0
  5  6  2  0  0  0  0
  5 41  1  0  0  0  0
  6  7  1  0  0  0  0
  7  8  1  0  0  0  0
  7 42  1  0  0  0  0
  7 43  1  0  0  0  0
  8  9  1  0  0  0  0
  8 12  1  0  0  0  0
  8 44  1  1  0  0  0
  9 10  2  0  0  0  0
  9 11  1  0  0  0  0
 12 13  1  0  0  0  0
 12 45  1  0  0  0  0
 13 14  2  0  0  0  0
 13 15  1  0  0  0  0
 15 16  1  0  0  0  0
 15 46  1  0  0  0  0
 15 47  1  0  0  0  0
 16 17  1  0  0  0  0
 16 48  1  0  0  0  0
 16 49  1  0  0  0  0
 17 18  1  0  0  0  0
 17 19  1  0  0  0  0
 17 20  1  0  0  0  0
 18 50  1  0  0  0  0
 19 51  1  0  0  0  0
 20 21  1  0  0  0  0
 20 28  1  0  0  0  0
 20 52  1  1  0  0  0
 21 22  1  0  0  0  0
 21 53  1  0  0  0  0
 21 54  1  0  0  0  0
 22 23  2  0  0  0  0
 22 27  1  0  0  0  0
 23 24  1  0  0  0  0
 23 55  1  0  0  0  0
 24 25  2  0  0  0  0
 24 56  1  0  0  0  0
 25 26  1  0  0  0  0
 25 57  1  0  0  0  0
 26 27  2  0  0  0  0
 26 58  1  0  0  0  0
 27 59  1  0  0  0  0
 28 29  1  0  0  0  0
 28 60  1  0  0  0  0
 29 30  2  0  0  0  0
 29 31  1  0  0  0  0
 31 32  2  0  0  0  0
 31 36  1  0  0  0  0
 32 33  1  0  0  0  0
 32 61  1  0  0  0  0
 33 34  2  0  0  0  0
 33 62  1  0  0  0  0
 34 35  1  0  0  0  0
 34 63  1  0  0  0  0
 35 36  2  0  0  0  0
 35 64  1  0  0  0  0
 36 65  1  0  0  0  0
M  END
$$$$
