KAI
 OpenBabel04091915543D

 29 29  0  0  1  0  0  0  0  0999 V2000
   44.2593   34.7592   16.9337 N   0  3  0  0  0  0  0  0  0  0  0  0
   45.6233   35.2968   17.0811 C   0  0  0  0  0  0  0  0  0  0  0  0
   47.3029   36.1292   20.4264 C   0  0  0  0  0  0  0  0  0  0  0  0
   48.2864   35.9506   18.1763 C   0  0  0  0  0  0  0  0  0  0  0  0
   43.7148   34.5195   18.3539 C   0  0  1  0  0  0  0  0  0  0  0  0
   44.9275   34.6890   19.2496 C   0  0  1  0  0  0  0  0  0  0  0  0
   45.7494   33.3994   19.3937 C   0  0  0  0  0  0  0  0  0  0  0  0
   45.7222   35.7768   18.5213 C   0  0  1  0  0  0  0  0  0  0  0  0
   45.1884   32.2809   20.2989 C   0  0  0  0  0  0  0  0  0  0  0  0
   47.1131   35.9914   19.1046 C   0  0  0  0  0  0  0  0  0  0  0  0
   42.5719   35.5142   18.7279 C   0  0  0  0  0  0  0  0  0  0  0  0
   42.1768   36.1770   17.7018 O   0  0  0  0  0  0  0  0  0  0  0  0
   44.2447   32.5936   21.0629 O   0  0  0  0  0  0  0  0  0  0  0  0
   45.7330   31.1486   20.1427 O   0  0  0  0  0  0  0  0  0  0  0  0
   42.2460   35.5714   19.9066 O   0  0  0  0  0  0  0  0  0  0  0  0
   43.5970   35.4563   16.5303 H   0  0  0  0  0  0  0  0  0  0  0  0
   45.7513   36.1034   16.3647 H   0  0  0  0  0  0  0  0  0  0  0  0
   46.3060   34.4736   16.8700 H   0  0  0  0  0  0  0  0  0  0  0  0
   48.2913   36.2648   20.8775 H   0  0  0  0  0  0  0  0  0  0  0  0
   46.4606   36.0719   21.1226 H   0  0  0  0  0  0  0  0  0  0  0  0
   49.2073   36.1218   18.7455 H   0  0  0  0  0  0  0  0  0  0  0  0
   48.1858   36.7276   17.4130 H   0  0  0  0  0  0  0  0  0  0  0  0
   48.3563   34.9684   17.6919 H   0  0  0  0  0  0  0  0  0  0  0  0
   43.3471   33.4924   18.3914 H   0  0  0  0  0  0  0  0  0  0  0  0
   44.6257   35.0478   20.2271 H   0  0  0  0  0  0  0  0  0  0  0  0
   46.7215   33.6894   19.8085 H   0  0  0  0  0  0  0  0  0  0  0  0
   45.9279   32.9938   18.3901 H   0  0  0  0  0  0  0  0  0  0  0  0
   45.1688   36.7235   18.5902 H   0  0  0  0  0  0  0  0  0  0  0  0
   44.1926   33.8871   16.4241 H   0  0  0  0  0  0  0  0  0  0  0  0
  1  2  1  0  0  0  0
  1  5  1  0  0  0  0
  1 16  1  0  0  0  0
  1 29  1  0  0  0  0
  2  8  1  0  0  0  0
  2 17  1  0  0  0  0
  2 18  1  0  0  0  0
  3 10  2  0  0  0  0
  3 19  1  0  0  0  0
  3 20  1  0  0  0  0
  4 10  1  0  0  0  0
  4 21  1  0  0  0  0
  4 22  1  0  0  0  0
  4 23  1  0  0  0  0
  5  6  1  0  0  0  0
  5 11  1  0  0  0  0
  5 24  1  1  0  0  0
  6  7  1  0  0  0  0
  6  8  1  0  0  0  0
  6 25  1  1  0  0  0
  7  9  1  0  0  0  0
  7 26  1  0  0  0  0
  7 27  1  0  0  0  0
  8 10  1  0  0  0  0
  8 28  1  1  0  0  0
  9 13  2  0  0  0  0
  9 14  1  0  0  0  0
 11 12  2  0  0  0  0
 11 15  1  0  0  0  0
M  CHG  1   1   1
M  END
$$$$
