KAW
 OpenBabel04091911033D

 69 72  0  0  1  0  0  0  0  0999 V2000
   44.0300   47.3248   39.2896 C   0  0  1  0  0  0  0  0  0  0  0  0
   43.0792   46.3738   39.7017 C   0  0  0  0  0  0  0  0  0  0  0  0
   41.7410   46.5439   39.3345 C   0  0  0  0  0  0  0  0  0  0  0  0
   41.3432   47.6328   38.5860 C   0  0  0  0  0  0  0  0  0  0  0  0
   42.2654   48.6057   38.1612 C   0  0  0  0  0  0  0  0  0  0  0  0
   43.6007   48.4160   38.5359 C   0  0  1  0  0  0  0  0  0  0  0  0
   44.7100   49.1932   38.2825 N   0  3  0  0  0  0  0  0  0  0  0  0
   45.8182   48.6146   38.8333 C   0  0  0  0  0  0  0  0  0  0  0  0
   45.4372   47.4550   39.4706 C   0  0  1  0  0  0  0  0  0  0  0  0
   46.3560   46.5329   40.2115 C   0  0  0  0  0  0  0  0  0  0  0  0
   46.7916   47.0368   41.5827 C   0  0  1  0  0  0  0  0  0  0  0  0
   47.6031   48.3729   41.4435 C   0  0  0  0  0  0  0  0  0  0  0  0
   48.7676   48.2464   40.9583 O   0  0  0  0  0  0  0  0  0  0  0  0
   46.9921   49.4297   41.7898 O   0  0  0  0  0  0  0  0  0  0  0  0
   45.6366   47.0678   42.4944 N   0  0  0  0  0  0  0  0  0  0  0  0
   45.8826   47.2690   43.8207 C   0  0  0  0  0  0  0  0  0  0  0  0
   47.0117   47.2045   44.3000 O   0  0  0  0  0  0  0  0  0  0  0  0
   44.6417   47.4664   44.6718 C   0  0  0  0  0  0  0  0  0  0  0  0
   45.0315   47.2386   46.1281 C   0  0  0  0  0  0  0  0  0  0  0  0
   44.7067   45.8134   46.5867 C   0  0  0  0  0  0  0  0  0  0  0  0
   45.1215   44.8299   45.6391 O   0  0  0  0  0  0  0  0  0  0  0  0
   43.2844   45.7348   46.6847 O   0  0  0  0  0  0  0  0  0  0  0  0
   45.3668   45.5210   47.9658 C   0  0  2  0  0  0  0  0  0  0  0  0
   46.8958   45.6676   47.9276 C   0  0  0  0  0  0  0  0  0  0  0  0
   47.5248   45.4503   49.2743 C   0  0  0  0  0  0  0  0  0  0  0  0
   47.7166   46.5297   50.1424 C   0  0  0  0  0  0  0  0  0  0  0  0
   48.2733   46.3197   51.4002 C   0  0  0  0  0  0  0  0  0  0  0  0
   48.6285   45.0330   51.7957 C   0  0  0  0  0  0  0  0  0  0  0  0
   48.4371   43.9527   50.9565 C   0  0  0  0  0  0  0  0  0  0  0  0
   47.8807   44.1591   49.6768 C   0  0  0  0  0  0  0  0  0  0  0  0
   45.0466   44.1726   48.4097 N   0  0  0  0  0  0  0  0  0  0  0  0
   43.9682   43.8902   49.2045 C   0  0  0  0  0  0  0  0  0  0  0  0
   43.1983   44.7415   49.6181 O   0  0  0  0  0  0  0  0  0  0  0  0
   43.8251   42.4553   49.5761 C   0  0  0  0  0  0  0  0  0  0  0  0
   43.0508   42.1142   50.6875 C   0  0  0  0  0  0  0  0  0  0  0  0
   42.8936   40.7712   51.0381 C   0  0  0  0  0  0  0  0  0  0  0  0
   43.5046   39.7704   50.2821 C   0  0  0  0  0  0  0  0  0  0  0  0
   44.2854   40.1065   49.1810 C   0  0  0  0  0  0  0  0  0  0  0  0
   44.4456   41.4413   48.8300 C   0  0  0  0  0  0  0  0  0  0  0  0
   43.3843   45.5149   40.3001 H   0  0  0  0  0  0  0  0  0  0  0  0
   41.0106   45.8046   39.6534 H   0  0  0  0  0  0  0  0  0  0  0  0
   40.2907   47.7531   38.3060 H   0  0  0  0  0  0  0  0  0  0  0  0
   41.9545   49.4557   37.5774 H   0  0  0  0  0  0  0  0  0  0  0  0
   44.7114   50.0688   37.7757 H   0  0  0  0  0  0  0  0  0  0  0  0
   46.7947   49.0827   38.7803 H   0  0  0  0  0  0  0  0  0  0  0  0
   47.2296   46.3325   39.5842 H   0  0  0  0  0  0  0  0  0  0  0  0
   45.8419   45.5700   40.3471 H   0  0  0  0  0  0  0  0  0  0  0  0
   47.4844   46.2955   42.0071 H   0  0  0  0  0  0  0  0  0  0  0  0
   44.7269   47.2776   42.1028 H   0  0  0  0  0  0  0  0  0  0  0  0
   43.8646   46.7656   44.3565 H   0  0  0  0  0  0  0  0  0  0  0  0
   44.2606   48.4879   44.5456 H   0  0  0  0  0  0  0  0  0  0  0  0
   44.5284   47.9626   46.7764 H   0  0  0  0  0  0  0  0  0  0  0  0
   46.0949   47.4389   46.2431 H   0  0  0  0  0  0  0  0  0  0  0  0
   46.0716   44.9493   45.4705 H   0  0  0  0  0  0  0  0  0  0  0  0
   43.0165   46.3212   47.4139 H   0  0  0  0  0  0  0  0  0  0  0  0
   44.9463   46.2171   48.6988 H   0  0  0  0  0  0  0  0  0  0  0  0
   47.1844   46.6680   47.6012 H   0  0  0  0  0  0  0  0  0  0  0  0
   47.3325   44.9611   47.2098 H   0  0  0  0  0  0  0  0  0  0  0  0
   47.4324   47.5322   49.8383 H   0  0  0  0  0  0  0  0  0  0  0  0
   48.4269   47.1611   52.0682 H   0  0  0  0  0  0  0  0  0  0  0  0
   49.0639   44.8697   52.7788 H   0  0  0  0  0  0  0  0  0  0  0  0
   48.6998   42.9467   51.2506 H   0  0  0  0  0  0  0  0  0  0  0  0
   47.7204   43.3121   49.0235 H   0  0  0  0  0  0  0  0  0  0  0  0
   45.6473   43.4412   48.0647 H   0  0  0  0  0  0  0  0  0  0  0  0
   42.5729   42.8910   51.2814 H   0  0  0  0  0  0  0  0  0  0  0  0
   42.2814   40.5031   51.8933 H   0  0  0  0  0  0  0  0  0  0  0  0
   43.3690   38.7263   50.5439 H   0  0  0  0  0  0  0  0  0  0  0  0
   44.7557   39.3337   48.5780 H   0  0  0  0  0  0  0  0  0  0  0  0
   45.0387   41.6634   47.9508 H   0  0  0  0  0  0  0  0  0  0  0  0
  1  2  1  1  0  0  0
  1  6  1  0  0  0  0
  1  9  1  0  0  0  0
  2  3  1  0  0  0  0
  2 40  1  0  0  0  0
  3  4  1  0  0  0  0
  3 41  1  0  0  0  0
  4  5  1  0  0  0  0
  4 42  1  0  0  0  0
  5 43  1  0  0  0  0
  6  5  1  1  0  0  0
  6  7  1  0  0  0  0
  7  8  1  0  0  0  0
  7 44  1  0  0  0  0
  8  9  1  0  0  0  0
  8 45  1  0  0  0  0
  9 10  1  1  0  0  0
 10 11  1  0  0  0  0
 10 46  1  0  0  0  0
 10 47  1  0  0  0  0
 11 12  1  0  0  0  0
 11 15  1  0  0  0  0
 11 48  1  1  0  0  0
 12 13  2  0  0  0  0
 12 14  1  0  0  0  0
 15 16  1  0  0  0  0
 15 49  1  0  0  0  0
 16 17  2  0  0  0  0
 16 18  1  0  0  0  0
 18 19  1  0  0  0  0
 18 50  1  0  0  0  0
 18 51  1  0  0  0  0
 19 20  1  0  0  0  0
 19 52  1  0  0  0  0
 19 53  1  0  0  0  0
 20 21  1  0  0  0  0
 20 22  1  0  0  0  0
 20 23  1  0  0  0  0
 21 54  1  0  0  0  0
 22 55  1  0  0  0  0
 23 24  1  0  0  0  0
 23 31  1  0  0  0  0
 23 56  1  1  0  0  0
 24 25  1  0  0  0  0
 24 57  1  0  0  0  0
 24 58  1  0  0  0  0
 25 26  1  0  0  0  0
 25 30  1  0  0  0  0
 26 27  1  0  0  0  0
 26 59  1  0  0  0  0
 27 28  1  0  0  0  0
 27 60  1  0  0  0  0
 28 29  1  0  0  0  0
 28 61  1  0  0  0  0
 29 30  1  0  0  0  0
 29 62  1  0  0  0  0
 30 63  1  0  0  0  0
 31 32  1  0  0  0  0
 31 64  1  0  0  0  0
 32 33  2  0  0  0  0
 32 34  1  0  0  0  0
 34 35  1  0  0  0  0
 34 39  1  0  0  0  0
 35 36  1  0  0  0  0
 35 65  1  0  0  0  0
 36 37  1  0  0  0  0
 36 66  1  0  0  0  0
 37 38  1  0  0  0  0
 37 67  1  0  0  0  0
 38 39  1  0  0  0  0
 38 68  1  0  0  0  0
 39 69  1  0  0  0  0
M  CHG  1   7   1
M  END
$$$$
