KD0
 OpenBabel04091911363D

 32 31  0  0  1  0  0  0  0  0999 V2000
   39.7697   55.8180   13.7218 O   0  0  0  0  0  0  0  0  0  0  0  0
   39.6772   56.0550   15.2203 P   0  0  0  0  0  0  0  0  0  0  0  0
   39.1106   57.4101   15.6193 O   0  0  0  0  0  0  0  0  0  0  0  0
   40.8951   55.6147   16.0152 O   0  0  0  0  0  0  0  0  0  0  0  0
   38.5229   55.0019   15.6730 O   0  0  0  0  0  0  0  0  0  0  0  0
   37.9385   55.2099   16.9393 C   0  0  0  0  0  0  0  0  0  0  0  0
   37.4783   53.8425   17.4420 C   0  0  1  0  0  0  0  0  0  0  0  0
   38.5344   53.2469   18.2214 O   0  0  0  0  0  0  0  0  0  0  0  0
   36.2386   53.9917   18.3261 C   0  0  1  0  0  0  0  0  0  0  0  0
   35.1071   54.5189   17.6151 O   0  0  0  0  0  0  0  0  0  0  0  0
   35.8035   52.6635   18.9923 C   0  0  2  0  0  0  0  0  0  0  0  0
   35.5812   51.6054   18.0425 O   0  0  0  0  0  0  0  0  0  0  0  0
   34.5071   52.8826   19.7971 C   0  0  2  0  0  0  0  0  0  0  0  0
   34.6573   54.0023   20.6787 O   0  0  0  0  0  0  0  0  0  0  0  0
   34.2012   51.6537   20.6395 C   0  0  0  0  0  0  0  0  0  0  0  0
   32.7664   51.6825   21.0738 C   0  0  0  0  0  0  0  0  0  0  0  0
   31.8281   51.4483   20.2770 O   0  0  0  0  0  0  0  0  0  0  0  0
   32.4041   51.9897   22.5313 C   0  0  0  0  0  0  0  0  0  0  0  0
   31.1703   51.9815   22.8561 O   0  0  0  0  0  0  0  0  0  0  0  0
   33.3779   52.1649   23.3290 O   0  0  0  0  0  0  0  0  0  0  0  0
   37.0980   55.9010   16.7831 H   0  0  0  0  0  0  0  0  0  0  0  0
   38.6258   55.6734   17.6551 H   0  0  0  0  0  0  0  0  0  0  0  0
   37.2606   53.1890   16.5899 H   0  0  0  0  0  0  0  0  0  0  0  0
   38.3344   52.3169   18.3897 H   0  0  0  0  0  0  0  0  0  0  0  0
   36.4973   54.7048   19.1180 H   0  0  0  0  0  0  0  0  0  0  0  0
   35.3656   55.3463   17.1745 H   0  0  0  0  0  0  0  0  0  0  0  0
   36.5938   52.3242   19.6715 H   0  0  0  0  0  0  0  0  0  0  0  0
   36.3599   51.5276   17.4688 H   0  0  0  0  0  0  0  0  0  0  0  0
   33.6765   53.0849   19.1091 H   0  0  0  0  0  0  0  0  0  0  0  0
   34.7679   54.7897   20.1186 H   0  0  0  0  0  0  0  0  0  0  0  0
   34.8663   51.6060   21.5033 H   0  0  0  0  0  0  0  0  0  0  0  0
   34.3394   50.7257   20.0721 H   0  0  0  0  0  0  0  0  0  0  0  0
  1  2  2  0  0  0  0
  2  3  1  0  0  0  0
  2  4  1  0  0  0  0
  2  5  1  0  0  0  0
  5  6  1  0  0  0  0
  6  7  1  0  0  0  0
  6 21  1  0  0  0  0
  6 22  1  0  0  0  0
  7  8  1  0  0  0  0
  7  9  1  0  0  0  0
  7 23  1  6  0  0  0
  8 24  1  0  0  0  0
  9 10  1  0  0  0  0
  9 11  1  0  0  0  0
  9 25  1  1  0  0  0
 10 26  1  0  0  0  0
 11 12  1  0  0  0  0
 11 13  1  0  0  0  0
 11 27  1  1  0  0  0
 12 28  1  0  0  0  0
 13 14  1  0  0  0  0
 13 15  1  0  0  0  0
 13 29  1  6  0  0  0
 14 30  1  0  0  0  0
 15 16  1  0  0  0  0
 15 31  1  0  0  0  0
 15 32  1  0  0  0  0
 16 17  2  0  0  0  0
 16 18  1  0  0  0  0
 18 19  2  0  0  0  0
 18 20  1  0  0  0  0
M  END
$$$$
