KDO
 OpenBabel04091913013D

 29 29  0  0  1  0  0  0  0  0999 V2000
   -9.4909    0.4774    0.5917 C   0  0  0  0  0  0  0  0  0  0  0  0
  -10.4097    0.8409   -0.1912 O   0  0  0  0  0  0  0  0  0  0  0  0
   -9.4293   -0.5697    1.3227 O   0  0  0  0  0  0  0  0  0  0  0  0
   -8.2516    1.4595    0.7804 C   0  0  1  0  0  0  0  0  0  0  0  0
   -7.3564    0.9749    1.7986 O   0  0  0  0  0  0  0  0  0  0  0  0
   -7.5118    1.5899   -0.5578 C   0  0  0  0  0  0  0  0  0  0  0  0
   -6.3640    2.5881   -0.4036 C   0  0  1  0  0  0  0  0  0  0  0  0
   -5.7178    2.8033   -1.6681 O   0  0  0  0  0  0  0  0  0  0  0  0
   -6.8877    3.9324    0.1253 C   0  0  1  0  0  0  0  0  0  0  0  0
   -7.7112    4.5741   -0.8653 O   0  0  0  0  0  0  0  0  0  0  0  0
   -7.6798    3.6924    1.4158 C   0  0  2  0  0  0  0  0  0  0  0  0
   -8.7241    2.7396    1.2152 O   0  0  0  0  0  0  0  0  0  0  0  0
   -8.3271    4.9655    1.9306 C   0  0  2  0  0  0  0  0  0  0  0  0
   -7.3496    5.9826    2.1731 O   0  0  0  0  0  0  0  0  0  0  0  0
   -9.0764    4.6682    3.2390 C   0  0  0  0  0  0  0  0  0  0  0  0
   -9.7433    5.8496    3.6863 O   0  0  0  0  0  0  0  0  0  0  0  0
   -7.9868    0.5403    2.4120 H   0  0  0  0  0  0  0  0  0  0  0  0
   -8.1907    1.9436   -1.3411 H   0  0  0  0  0  0  0  0  0  0  0  0
   -7.1204    0.6250   -0.8940 H   0  0  0  0  0  0  0  0  0  0  0  0
   -5.6217    2.1898    0.2776 H   0  0  0  0  0  0  0  0  0  0  0  0
   -4.9250    3.3375   -1.4779 H   0  0  0  0  0  0  0  0  0  0  0  0
   -6.0477    4.6070    0.3004 H   0  0  0  0  0  0  0  0  0  0  0  0
   -7.2860    4.3929   -1.7241 H   0  0  0  0  0  0  0  0  0  0  0  0
   -6.9849    3.3243    2.1831 H   0  0  0  0  0  0  0  0  0  0  0  0
   -9.0506    5.3737    1.2127 H   0  0  0  0  0  0  0  0  0  0  0  0
   -7.8463    6.7294    2.5493 H   0  0  0  0  0  0  0  0  0  0  0  0
   -8.3731    4.3737    4.0246 H   0  0  0  0  0  0  0  0  0  0  0  0
   -9.8188    3.8654    3.1311 H   0  0  0  0  0  0  0  0  0  0  0  0
  -10.4671    5.9834    3.0519 H   0  0  0  0  0  0  0  0  0  0  0  0
  1  2  2  0  0  0  0
  1  3  1  0  0  0  0
  4  1  1  6  0  0  0
  4  5  1  0  0  0  0
  4  6  1  0  0  0  0
  4 12  1  0  0  0  0
  5 17  1  0  0  0  0
  6  7  1  0  0  0  0
  6 18  1  0  0  0  0
  6 19  1  0  0  0  0
  7  8  1  0  0  0  0
  7  9  1  0  0  0  0
  7 20  1  1  0  0  0
  8 21  1  0  0  0  0
  9 10  1  0  0  0  0
  9 11  1  0  0  0  0
  9 22  1  1  0  0  0
 10 23  1  0  0  0  0
 11 12  1  0  0  0  0
 11 13  1  0  0  0  0
 11 24  1  1  0  0  0
 13 14  1  0  0  0  0
 13 15  1  0  0  0  0
 13 25  1  6  0  0  0
 14 26  1  0  0  0  0
 15 16  1  0  0  0  0
 15 27  1  0  0  0  0
 15 28  1  0  0  0  0
 16 29  1  0  0  0  0
M  END
$$$$
