KEL
 OpenBabel04091910593D

 38 38  0  0  1  0  0  0  0  0999 V2000
   34.1406    4.1386    3.2892 O   0  0  0  0  0  0  0  0  0  0  0  0
   34.9299    4.2734    2.3390 C   0  0  0  0  0  0  0  0  0  0  0  0
   36.1639    3.6979    2.2374 N   0  0  0  0  0  0  0  0  0  0  0  0
   36.5880    3.0013    3.3968 O   0  0  0  0  0  0  0  0  0  0  0  0
   34.6202    5.1897    1.1946 C   0  0  0  0  0  0  0  0  0  0  0  0
   34.7215    6.6363    1.7308 C   0  0  2  0  0  0  0  0  0  0  0  0
   34.3380    7.4860    0.5657 C   0  0  0  0  0  0  0  0  0  0  0  0
   34.9931    7.4501   -0.4776 O   0  0  0  0  0  0  0  0  0  0  0  0
   33.1666    8.1797    0.7390 N   0  0  0  0  0  0  0  0  0  0  0  0
   32.7710    9.0806   -0.3419 C   0  0  1  0  0  0  0  0  0  0  0  0
   31.4804    9.7978    0.0044 C   0  0  0  0  0  0  0  0  0  0  0  0
   33.8816   10.0924   -0.7937 C   0  0  0  0  0  0  0  0  0  0  0  0
   34.0094   10.2293   -2.0440 O   0  0  0  0  0  0  0  0  0  0  0  0
   34.5134   10.6655    0.1414 O   0  0  0  0  0  0  0  0  0  0  0  0
   36.1503    6.9825    2.1569 C   0  0  0  0  0  0  0  0  0  0  0  0
   36.2665    8.3261    2.8335 C   0  0  0  0  0  0  0  0  0  0  0  0
   36.1343    8.4215    4.2208 C   0  0  0  0  0  0  0  0  0  0  0  0
   36.2200    9.6621    4.8550 C   0  0  0  0  0  0  0  0  0  0  0  0
   36.4133   10.8267    4.1160 C   0  0  0  0  0  0  0  0  0  0  0  0
   36.5576   10.7437    2.7360 C   0  0  0  0  0  0  0  0  0  0  0  0
   36.4939    9.4973    2.1018 C   0  0  0  0  0  0  0  0  0  0  0  0
   36.8114    3.8429    1.4679 H   0  0  0  0  0  0  0  0  0  0  0  0
   37.4802    2.7302    3.1647 H   0  0  0  0  0  0  0  0  0  0  0  0
   33.6175    4.9520    0.8309 H   0  0  0  0  0  0  0  0  0  0  0  0
   35.3087    5.0169    0.3669 H   0  0  0  0  0  0  0  0  0  0  0  0
   34.0216    6.7541    2.5619 H   0  0  0  0  0  0  0  0  0  0  0  0
   32.7657    8.3029    1.6618 H   0  0  0  0  0  0  0  0  0  0  0  0
   32.5670    8.4166   -1.1899 H   0  0  0  0  0  0  0  0  0  0  0  0
   31.1370   10.4087   -0.8360 H   0  0  0  0  0  0  0  0  0  0  0  0
   31.6014   10.4477    0.8774 H   0  0  0  0  0  0  0  0  0  0  0  0
   30.6903    9.0723    0.2383 H   0  0  0  0  0  0  0  0  0  0  0  0
   36.8343    6.9402    1.2999 H   0  0  0  0  0  0  0  0  0  0  0  0
   36.5186    6.2315    2.8640 H   0  0  0  0  0  0  0  0  0  0  0  0
   35.9664    7.5249    4.8108 H   0  0  0  0  0  0  0  0  0  0  0  0
   36.1334    9.7193    5.9345 H   0  0  0  0  0  0  0  0  0  0  0  0
   36.4446   11.7923    4.6123 H   0  0  0  0  0  0  0  0  0  0  0  0
   36.6947   11.6415    2.1363 H   0  0  0  0  0  0  0  0  0  0  0  0
   36.5791    9.4653    1.0143 H   0  0  0  0  0  0  0  0  0  0  0  0
  1  2  2  0  0  0  0
  2  3  1  0  0  0  0
  2  5  1  0  0  0  0
  3  4  1  0  0  0  0
  3 22  1  0  0  0  0
  4 23  1  0  0  0  0
  5  6  1  0  0  0  0
  5 24  1  0  0  0  0
  5 25  1  0  0  0  0
  6  7  1  0  0  0  0
  6 15  1  0  0  0  0
  6 26  1  1  0  0  0
  7  8  2  0  0  0  0
  7  9  1  0  0  0  0
  9 10  1  0  0  0  0
  9 27  1  0  0  0  0
 10 11  1  0  0  0  0
 10 12  1  0  0  0  0
 10 28  1  6  0  0  0
 11 29  1  0  0  0  0
 11 30  1  0  0  0  0
 11 31  1  0  0  0  0
 12 13  2  0  0  0  0
 12 14  1  0  0  0  0
 15 16  1  0  0  0  0
 15 32  1  0  0  0  0
 15 33  1  0  0  0  0
 16 17  2  0  0  0  0
 16 21  1  0  0  0  0
 17 18  1  0  0  0  0
 17 34  1  0  0  0  0
 18 19  2  0  0  0  0
 18 35  1  0  0  0  0
 19 20  1  0  0  0  0
 19 36  1  0  0  0  0
 20 21  2  0  0  0  0
 20 37  1  0  0  0  0
 21 38  1  0  0  0  0
M  END
$$$$
