KNJ
 OpenBabel04091910493D

 80 82  0  0  1  0  0  0  0  0999 V2000
   11.0251   18.9058   16.8421 C   0  0  0  0  0  0  0  0  0  0  0  0
   10.9700   18.0940   18.0957 C   0  0  0  0  0  0  0  0  0  0  0  0
   10.0128   17.0769   18.2111 C   0  0  0  0  0  0  0  0  0  0  0  0
    9.9117   16.2945   19.3545 C   0  0  0  0  0  0  0  0  0  0  0  0
   11.7685   17.5502   20.3163 C   0  0  0  0  0  0  0  0  0  0  0  0
    8.9583   15.2987   19.4527 N   0  0  0  0  0  0  0  0  0  0  0  0
   10.7959   16.5400   20.3953 C   0  0  0  0  0  0  0  0  0  0  0  0
   12.7068   17.7841   21.4560 C   0  0  0  0  0  0  0  0  0  0  0  0
   11.8512   18.3146   19.1511 C   0  0  0  0  0  0  0  0  0  0  0  0
   12.7628   19.3328   19.0605 O   0  0  0  0  0  0  0  0  0  0  0  0
   14.0088   18.8120   18.6010 C   0  0  0  0  0  0  0  0  0  0  0  0
   14.9361   19.9386   18.2004 C   0  0  0  0  0  0  0  0  0  0  0  0
   16.1337   19.7640   18.0722 O   0  0  0  0  0  0  0  0  0  0  0  0
   14.3602   21.1772   17.9927 N   0  0  0  0  0  0  0  0  0  0  0  0
   15.1539   22.3234   17.5401 C   0  0  1  0  0  0  0  0  0  0  0  0
   14.5301   22.9387   16.2809 C   0  0  0  0  0  0  0  0  0  0  0  0
   14.3096   21.9127   15.2001 C   0  0  0  0  0  0  0  0  0  0  0  0
   15.3816   21.4088   14.4539 C   0  0  0  0  0  0  0  0  0  0  0  0
   15.1757   20.3986   13.5207 C   0  0  0  0  0  0  0  0  0  0  0  0
   13.9069   19.8663   13.3403 C   0  0  0  0  0  0  0  0  0  0  0  0
   12.8346   20.3838   14.0541 C   0  0  0  0  0  0  0  0  0  0  0  0
   13.0257   21.4080   14.9775 C   0  0  0  0  0  0  0  0  0  0  0  0
   15.2735   23.3355   18.6790 C   0  0  2  0  0  0  0  0  0  0  0  0
   14.1267   24.1810   18.7006 O   0  0  0  0  0  0  0  0  0  0  0  0
   16.5634   24.1363   18.4842 C   0  0  0  0  0  0  0  0  0  0  0  0
   16.5857   25.1829   17.8613 O   0  0  0  0  0  0  0  0  0  0  0  0
   17.6873   23.6268   19.0810 N   0  0  0  0  0  0  0  0  0  0  0  0
   17.7498   22.4096   19.8736 C   0  0  0  0  0  0  0  0  0  0  0  0
   19.4835   22.0774   20.1481 S   0  0  0  0  0  0  0  0  0  0  0  0
   19.8799   23.8480   20.0112 C   0  0  0  0  0  0  0  0  0  0  0  0
   19.4879   24.5396   21.3222 C   0  0  0  0  0  0  0  0  0  0  0  0
   21.3470   24.0319   19.7267 C   0  0  0  0  0  0  0  0  0  0  0  0
   18.9513   24.3489   18.9112 C   0  0  1  0  0  0  0  0  0  0  0  0
   19.4573   24.1341   17.4561 C   0  0  0  0  0  0  0  0  0  0  0  0
   19.2495   23.1067   16.8371 O   0  0  0  0  0  0  0  0  0  0  0  0
   20.1864   25.1800   16.9485 N   0  0  0  0  0  0  0  0  0  0  0  0
   20.6989   25.1637   15.5939 C   0  0  0  0  0  0  0  0  0  0  0  0
   19.8425   26.0124   14.7003 C   0  0  0  0  0  0  0  0  0  0  0  0
   18.4436   25.5209   14.4544 C   0  0  0  0  0  0  0  0  0  0  0  0
   20.3307   27.1239   14.1293 C   0  0  0  0  0  0  0  0  0  0  0  0
   10.2652   18.5621   16.1321 H   0  0  0  0  0  0  0  0  0  0  0  0
   12.0054   18.8044   16.3682 H   0  0  0  0  0  0  0  0  0  0  0  0
   10.8360   19.9590   17.0688 H   0  0  0  0  0  0  0  0  0  0  0  0
    9.3314   16.9010   17.3857 H   0  0  0  0  0  0  0  0  0  0  0  0
    8.8962   14.7400   20.2897 H   0  0  0  0  0  0  0  0  0  0  0  0
    8.3224   15.1303   18.6877 H   0  0  0  0  0  0  0  0  0  0  0  0
   10.7301   15.9300   21.2928 H   0  0  0  0  0  0  0  0  0  0  0  0
   12.5048   17.0865   22.2712 H   0  0  0  0  0  0  0  0  0  0  0  0
   12.5968   18.8073   21.8230 H   0  0  0  0  0  0  0  0  0  0  0  0
   13.7359   17.6271   21.1288 H   0  0  0  0  0  0  0  0  0  0  0  0
   13.8825   18.1515   17.7393 H   0  0  0  0  0  0  0  0  0  0  0  0
   14.5138   18.2667   19.4028 H   0  0  0  0  0  0  0  0  0  0  0  0
   13.3670   21.2888   18.1425 H   0  0  0  0  0  0  0  0  0  0  0  0
   16.1508   21.9589   17.2748 H   0  0  0  0  0  0  0  0  0  0  0  0
   15.1914   23.7208   15.8968 H   0  0  0  0  0  0  0  0  0  0  0  0
   13.5633   23.3964   16.5284 H   0  0  0  0  0  0  0  0  0  0  0  0
   16.3871   21.7926   14.5982 H   0  0  0  0  0  0  0  0  0  0  0  0
   15.9976   20.0128   12.9282 H   0  0  0  0  0  0  0  0  0  0  0  0
   13.7487   19.0546   12.6408 H   0  0  0  0  0  0  0  0  0  0  0  0
   11.8516   19.9704   13.8788 H   0  0  0  0  0  0  0  0  0  0  0  0
   12.1785   21.8040   15.5305 H   0  0  0  0  0  0  0  0  0  0  0  0
   15.3098   22.8237   19.6495 H   0  0  0  0  0  0  0  0  0  0  0  0
   14.2581   24.8372   19.4079 H   0  0  0  0  0  0  0  0  0  0  0  0
   17.2557   21.5837   19.3778 H   0  0  0  0  0  0  0  0  0  0  0  0
   17.2606   22.5983   20.8399 H   0  0  0  0  0  0  0  0  0  0  0  0
   19.7158   25.6117   21.2625 H   0  0  0  0  0  0  0  0  0  0  0  0
   20.0288   24.1172   22.1743 H   0  0  0  0  0  0  0  0  0  0  0  0
   18.4109   24.4480   21.5185 H   0  0  0  0  0  0  0  0  0  0  0  0
   21.5762   25.1000   19.6668 H   0  0  0  0  0  0  0  0  0  0  0  0
   21.6123   23.5612   18.7782 H   0  0  0  0  0  0  0  0  0  0  0  0
   21.9526   23.5863   20.5210 H   0  0  0  0  0  0  0  0  0  0  0  0
   18.7825   25.4297   19.0223 H   0  0  0  0  0  0  0  0  0  0  0  0
   20.3079   26.0044   17.5203 H   0  0  0  0  0  0  0  0  0  0  0  0
   20.7447   24.1404   15.2164 H   0  0  0  0  0  0  0  0  0  0  0  0
   21.7132   25.5729   15.6223 H   0  0  0  0  0  0  0  0  0  0  0  0
   17.9033   26.1973   13.7830 H   0  0  0  0  0  0  0  0  0  0  0  0
   17.8970   25.4676   15.4006 H   0  0  0  0  0  0  0  0  0  0  0  0
   18.4627   24.5225   14.0024 H   0  0  0  0  0  0  0  0  0  0  0  0
   21.3530   27.4338   14.3270 H   0  0  0  0  0  0  0  0  0  0  0  0
   19.7281   27.7407   13.4673 H   0  0  0  0  0  0  0  0  0  0  0  0
  1  2  1  0  0  0  0
  1 41  1  0  0  0  0
  1 42  1  0  0  0  0
  1 43  1  0  0  0  0
  2  3  2  0  0  0  0
  2  9  1  0  0  0  0
  3  4  1  0  0  0  0
  3 44  1  0  0  0  0
  4  6  1  0  0  0  0
  4  7  2  0  0  0  0
  5  7  1  0  0  0  0
  5  8  1  0  0  0  0
  5  9  2  0  0  0  0
  6 45  1  0  0  0  0
  6 46  1  0  0  0  0
  7 47  1  0  0  0  0
  8 48  1  0  0  0  0
  8 49  1  0  0  0  0
  8 50  1  0  0  0  0
  9 10  1  0  0  0  0
 10 11  1  0  0  0  0
 11 12  1  0  0  0  0
 11 51  1  0  0  0  0
 11 52  1  0  0  0  0
 12 13  2  0  0  0  0
 12 14  1  0  0  0  0
 14 15  1  0  0  0  0
 14 53  1  0  0  0  0
 15 16  1  0  0  0  0
 15 23  1  0  0  0  0
 15 54  1  6  0  0  0
 16 17  1  0  0  0  0
 16 55  1  0  0  0  0
 16 56  1  0  0  0  0
 17 18  2  0  0  0  0
 17 22  1  0  0  0  0
 18 19  1  0  0  0  0
 18 57  1  0  0  0  0
 19 20  2  0  0  0  0
 19 58  1  0  0  0  0
 20 21  1  0  0  0  0
 20 59  1  0  0  0  0
 21 22  2  0  0  0  0
 21 60  1  0  0  0  0
 22 61  1  0  0  0  0
 23 24  1  0  0  0  0
 23 25  1  0  0  0  0
 23 62  1  1  0  0  0
 24 63  1  0  0  0  0
 25 26  2  0  0  0  0
 25 27  1  0  0  0  0
 27 28  1  0  0  0  0
 27 33  1  0  0  0  0
 28 29  1  0  0  0  0
 28 64  1  0  0  0  0
 28 65  1  0  0  0  0
 29 30  1  0  0  0  0
 30 31  1  0  0  0  0
 30 32  1  0  0  0  0
 30 33  1  0  0  0  0
 31 66  1  0  0  0  0
 31 67  1  0  0  0  0
 31 68  1  0  0  0  0
 32 69  1  0  0  0  0
 32 70  1  0  0  0  0
 32 71  1  0  0  0  0
 33 34  1  0  0  0  0
 33 72  1  1  0  0  0
 34 35  2  0  0  0  0
 34 36  1  0  0  0  0
 36 37  1  0  0  0  0
 36 73  1  0  0  0  0
 37 38  1  0  0  0  0
 37 74  1  0  0  0  0
 37 75  1  0  0  0  0
 38 39  1  0  0  0  0
 38 40  2  0  0  0  0
 39 76  1  0  0  0  0
 39 77  1  0  0  0  0
 39 78  1  0  0  0  0
 40 79  1  0  0  0  0
 40 80  1  0  0  0  0
M  END
$$$$
