KO2
 OpenBabel04091913093D

 39 39  0  0  1  0  0  0  0  0999 V2000
   -9.6488    0.4415   -0.0408 C   0  0  0  0  0  0  0  0  0  0  0  0
   -8.6639    0.8108    0.6690 O   0  0  0  0  0  0  0  0  0  0  0  0
   -9.3166   -0.5381   -1.2556 C   0  0  2  0  0  0  0  0  0  0  0  0
  -10.5252   -0.7479   -2.0578 O   0  0  0  0  0  0  0  0  0  0  0  0
  -10.3126   -1.6074   -3.1852 C   0  0  2  0  0  0  0  0  0  0  0  0
  -11.5721   -1.5945   -4.0626 C   0  0  1  0  0  0  0  0  0  0  0  0
  -11.8574   -0.1952   -4.6171 C   0  0  0  0  0  0  0  0  0  0  0  0
  -13.0536   -0.2283   -5.4088 O   0  0  0  0  0  0  0  0  0  0  0  0
  -11.4029   -2.4921   -5.1757 O   0  0  0  0  0  0  0  0  0  0  0  0
   -9.9983   -3.0107   -2.6534 C   0  0  2  0  0  0  0  0  0  0  0  0
  -11.1284   -3.5321   -1.9320 O   0  0  0  0  0  0  0  0  0  0  0  0
   -8.7341   -2.9224   -1.7678 C   0  0  2  0  0  0  0  0  0  0  0  0
   -8.3522   -4.2065   -1.2523 O   0  0  0  0  0  0  0  0  0  0  0  0
   -8.8905   -1.8917   -0.6302 C   0  0  2  0  0  0  0  0  0  0  0  0
   -9.8298   -2.4256    0.3266 O   0  0  0  0  0  0  0  0  0  0  0  0
   -8.3486    0.0250   -2.1683 O   0  0  0  0  0  0  0  0  0  0  0  0
   -4.9013    1.2104   -2.8025 C   0  0  0  0  0  0  0  0  0  0  0  0
   -6.3601    0.8550   -2.9830 C   0  0  0  0  0  0  0  0  0  0  0  0
   -7.0158    0.2673   -1.7386 C   0  0  0  0  0  0  0  0  0  0  0  0
  -10.8741    0.7322    0.1178 O   0  0  0  0  0  0  0  0  0  0  0  0
   -9.4693   -1.2572   -3.7980 H   0  0  0  0  0  0  0  0  0  0  0  0
  -12.4437   -1.9272   -3.4857 H   0  0  0  0  0  0  0  0  0  0  0  0
  -11.0418    0.1388   -5.2677 H   0  0  0  0  0  0  0  0  0  0  0  0
  -11.9958    0.5385   -3.8190 H   0  0  0  0  0  0  0  0  0  0  0  0
  -12.8498   -0.7730   -6.1859 H   0  0  0  0  0  0  0  0  0  0  0  0
  -12.2960   -2.6474   -5.5268 H   0  0  0  0  0  0  0  0  0  0  0  0
   -9.8184   -3.7143   -3.4713 H   0  0  0  0  0  0  0  0  0  0  0  0
  -11.4912   -2.7894   -1.4313 H   0  0  0  0  0  0  0  0  0  0  0  0
   -7.9027   -2.6085   -2.4094 H   0  0  0  0  0  0  0  0  0  0  0  0
   -8.4659   -4.8490   -1.9693 H   0  0  0  0  0  0  0  0  0  0  0  0
   -7.9381   -1.8034   -0.0977 H   0  0  0  0  0  0  0  0  0  0  0  0
  -10.7059   -2.0537    0.1317 H   0  0  0  0  0  0  0  0  0  0  0  0
   -4.5164    1.6304   -3.7368 H   0  0  0  0  0  0  0  0  0  0  0  0
   -4.3022    0.3287   -2.5570 H   0  0  0  0  0  0  0  0  0  0  0  0
   -4.7675    1.9598   -2.0178 H   0  0  0  0  0  0  0  0  0  0  0  0
   -6.4632    0.1414   -3.8062 H   0  0  0  0  0  0  0  0  0  0  0  0
   -6.9188    1.7477   -3.2822 H   0  0  0  0  0  0  0  0  0  0  0  0
   -6.5184   -0.6669   -1.4424 H   0  0  0  0  0  0  0  0  0  0  0  0
   -6.9609    0.9827   -0.9124 H   0  0  0  0  0  0  0  0  0  0  0  0
  1  2  2  0  0  0  0
  1 20  1  0  0  0  0
  3  1  1  1  0  0  0
  3  4  1  0  0  0  0
  3 14  1  0  0  0  0
  3 16  1  0  0  0  0
  4  5  1  0  0  0  0
  5  6  1  0  0  0  0
  5 10  1  0  0  0  0
  5 21  1  6  0  0  0
  6  7  1  0  0  0  0
  6  9  1  0  0  0  0
  6 22  1  1  0  0  0
  7  8  1  0  0  0  0
  7 23  1  0  0  0  0
  7 24  1  0  0  0  0
  8 25  1  0  0  0  0
  9 26  1  0  0  0  0
 10 11  1  0  0  0  0
 10 12  1  0  0  0  0
 10 27  1  6  0  0  0
 11 28  1  0  0  0  0
 12 13  1  0  0  0  0
 12 14  1  0  0  0  0
 12 29  1  6  0  0  0
 13 30  1  0  0  0  0
 14 15  1  0  0  0  0
 14 31  1  1  0  0  0
 15 32  1  0  0  0  0
 16 19  1  0  0  0  0
 17 18  1  0  0  0  0
 17 33  1  0  0  0  0
 17 34  1  0  0  0  0
 17 35  1  0  0  0  0
 18 19  1  0  0  0  0
 18 36  1  0  0  0  0
 18 37  1  0  0  0  0
 19 38  1  0  0  0  0
 19 39  1  0  0  0  0
M  END
$$$$
