KRC
 OpenBabel04091910553D

 64 68  0  0  1  0  0  0  0  0999 V2000
   15.7946   50.8345   64.6331 C   0  0  0  0  0  0  0  0  0  0  0  0
   16.2459   51.3227   63.4475 C   0  0  0  0  0  0  0  0  0  0  0  0
   15.8753   50.6504   62.1923 C   0  0  0  0  0  0  0  0  0  0  0  0
   15.1746   49.5114   62.2096 C   0  0  0  0  0  0  0  0  0  0  0  0
   14.9555   48.7157   63.4578 C   0  0  1  0  0  0  0  0  0  0  0  0
   14.9019   49.6317   64.6599 C   0  0  0  0  0  0  0  0  0  0  0  0
   14.4161   48.9974   61.1542 O   0  0  0  0  0  0  0  0  0  0  0  0
   13.4615   48.1699   61.7295 C   0  0  0  0  0  0  0  0  0  0  0  0
   13.6804   47.9957   63.0975 C   0  0  0  0  0  0  0  0  0  0  0  0
   12.3490   47.6041   61.1053 C   0  0  0  0  0  0  0  0  0  0  0  0
   11.4305   46.8474   61.8753 C   0  0  0  0  0  0  0  0  0  0  0  0
   11.6728   46.6661   63.2454 C   0  0  0  0  0  0  0  0  0  0  0  0
   12.8121   47.2299   63.8464 C   0  0  0  0  0  0  0  0  0  0  0  0
   14.2667   49.2947   65.6653 O   0  0  0  0  0  0  0  0  0  0  0  0
   13.0069   46.9607   65.1772 O   0  0  0  0  0  0  0  0  0  0  0  0
   10.3741   46.3011   61.2002 O   0  0  0  0  0  0  0  0  0  0  0  0
   12.1622   47.8234   59.6574 C   0  0  0  0  0  0  0  0  0  0  0  0
   10.8718   48.0400   59.2385 N   0  0  0  0  0  0  0  0  0  0  0  0
   16.1193   47.7285   63.6221 C   0  0  0  0  0  0  0  0  0  0  0  0
   13.1138   47.8085   58.8788 O   0  0  0  0  0  0  0  0  0  0  0  0
   16.2366   51.4438   65.9249 C   0  0  0  0  0  0  0  0  0  0  0  0
   16.9161   52.3530   63.1766 O   0  0  0  0  0  0  0  0  0  0  0  0
   17.7258   51.5331   66.1689 C   0  0  0  0  0  0  0  0  0  0  0  0
   15.4361   51.7172   66.8227 O   0  0  0  0  0  0  0  0  0  0  0  0
    9.2550   45.7635   61.9293 C   0  0  0  0  0  0  0  0  0  0  0  0
   10.5674   48.1083   57.8384 C   0  0  0  0  0  0  0  0  0  0  0  0
    9.1254   48.5069   57.6341 C   0  0  0  0  0  0  0  0  0  0  0  0
    8.8002   49.8482   57.3321 C   0  0  0  0  0  0  0  0  0  0  0  0
    7.4590   50.2121   57.1691 C   0  0  0  0  0  0  0  0  0  0  0  0
    6.4425   49.2732   57.3316 C   0  0  0  0  0  0  0  0  0  0  0  0
    6.7414   47.9419   57.6572 C   0  0  0  0  0  0  0  0  0  0  0  0
    8.0900   47.5460   57.8152 C   0  0  0  0  0  0  0  0  0  0  0  0
    5.7140   47.0020   57.8362 C   0  0  0  0  0  0  0  0  0  0  0  0
    6.0005   45.6771   58.1705 C   0  0  0  0  0  0  0  0  0  0  0  0
    7.3173   45.2762   58.3329 C   0  0  0  0  0  0  0  0  0  0  0  0
    8.3449   46.1993   58.1595 C   0  0  0  0  0  0  0  0  0  0  0  0
    9.8674   50.9022   57.1389 C   0  0  0  0  0  0  0  0  0  0  0  0
   10.3940   50.8861   55.7108 C   0  0  0  0  0  0  0  0  0  0  0  0
   16.1321   51.1326   61.2487 H   0  0  0  0  0  0  0  0  0  0  0  0
   11.0027   46.0888   63.8721 H   0  0  0  0  0  0  0  0  0  0  0  0
   13.6403   47.6186   65.5334 H   0  0  0  0  0  0  0  0  0  0  0  0
   10.1158   47.8762   59.9024 H   0  0  0  0  0  0  0  0  0  0  0  0
   17.0630   48.2518   63.8179 H   0  0  0  0  0  0  0  0  0  0  0  0
   16.2683   47.1190   62.7218 H   0  0  0  0  0  0  0  0  0  0  0  0
   15.9466   47.0452   64.4621 H   0  0  0  0  0  0  0  0  0  0  0  0
   17.9032   51.9357   67.1710 H   0  0  0  0  0  0  0  0  0  0  0  0
   18.2212   52.1918   65.4569 H   0  0  0  0  0  0  0  0  0  0  0  0
   18.1652   50.5306   66.1224 H   0  0  0  0  0  0  0  0  0  0  0  0
    8.5301   45.3947   61.1944 H   0  0  0  0  0  0  0  0  0  0  0  0
    8.7578   46.5392   62.5150 H   0  0  0  0  0  0  0  0  0  0  0  0
    9.5436   44.9136   62.5531 H   0  0  0  0  0  0  0  0  0  0  0  0
   10.7844   47.1460   57.3591 H   0  0  0  0  0  0  0  0  0  0  0  0
   11.2765   48.7972   57.3750 H   0  0  0  0  0  0  0  0  0  0  0  0
    7.2012   51.2379   56.9169 H   0  0  0  0  0  0  0  0  0  0  0  0
    5.4100   49.5931   57.2070 H   0  0  0  0  0  0  0  0  0  0  0  0
    4.6715   47.2946   57.7188 H   0  0  0  0  0  0  0  0  0  0  0  0
    5.1947   44.9618   58.3073 H   0  0  0  0  0  0  0  0  0  0  0  0
    7.5596   44.2507   58.5993 H   0  0  0  0  0  0  0  0  0  0  0  0
    9.3610   45.8437   58.3138 H   0  0  0  0  0  0  0  0  0  0  0  0
   10.6850   50.7550   57.8540 H   0  0  0  0  0  0  0  0  0  0  0  0
    9.4643   51.8927   57.3782 H   0  0  0  0  0  0  0  0  0  0  0  0
   11.1879   51.6286   55.5922 H   0  0  0  0  0  0  0  0  0  0  0  0
    9.5956   51.1151   54.9974 H   0  0  0  0  0  0  0  0  0  0  0  0
   10.8045   49.9078   55.4368 H   0  0  0  0  0  0  0  0  0  0  0  0
  1  2  2  0  0  0  0
  1  6  1  0  0  0  0
  1 21  1  0  0  0  0
  2  3  1  0  0  0  0
  2 22  1  0  0  0  0
  3  4  2  0  0  0  0
  3 39  1  0  0  0  0
  4  5  1  0  0  0  0
  4  7  1  0  0  0  0
  5  6  1  0  0  0  0
  5  9  1  0  0  0  0
  5 19  1  1  0  0  0
  6 14  2  0  0  0  0
  7  8  1  0  0  0  0
  8  9  2  0  0  0  0
  8 10  1  0  0  0  0
  9 13  1  0  0  0  0
 10 11  2  0  0  0  0
 10 17  1  0  0  0  0
 11 12  1  0  0  0  0
 11 16  1  0  0  0  0
 12 13  2  0  0  0  0
 12 40  1  0  0  0  0
 13 15  1  0  0  0  0
 15 41  1  0  0  0  0
 16 25  1  0  0  0  0
 17 18  1  0  0  0  0
 17 20  2  0  0  0  0
 18 26  1  0  0  0  0
 18 42  1  0  0  0  0
 19 43  1  0  0  0  0
 19 44  1  0  0  0  0
 19 45  1  0  0  0  0
 21 23  1  0  0  0  0
 21 24  2  0  0  0  0
 23 46  1  0  0  0  0
 23 47  1  0  0  0  0
 23 48  1  0  0  0  0
 25 49  1  0  0  0  0
 25 50  1  0  0  0  0
 25 51  1  0  0  0  0
 26 27  1  0  0  0  0
 26 52  1  0  0  0  0
 26 53  1  0  0  0  0
 27 28  2  0  0  0  0
 27 32  1  0  0  0  0
 28 29  1  0  0  0  0
 28 37  1  0  0  0  0
 29 30  2  0  0  0  0
 29 54  1  0  0  0  0
 30 31  1  0  0  0  0
 30 55  1  0  0  0  0
 31 32  2  0  0  0  0
 31 33  1  0  0  0  0
 32 36  1  0  0  0  0
 33 34  2  0  0  0  0
 33 56  1  0  0  0  0
 34 35  1  0  0  0  0
 34 57  1  0  0  0  0
 35 36  2  0  0  0  0
 35 58  1  0  0  0  0
 36 59  1  0  0  0  0
 37 38  1  0  0  0  0
 37 60  1  0  0  0  0
 37 61  1  0  0  0  0
 38 62  1  0  0  0  0
 38 63  1  0  0  0  0
 38 64  1  0  0  0  0
M  END
$$$$
