KRW
 OpenBabel04091916513D

 44 48  0  0  0  0  0  0  0  0999 V2000
   16.3352   78.7379   -1.1608 O   0  0  0  0  0  0  0  0  0  0  0  0
   16.4479   79.6923   -0.1083 C   0  0  0  0  0  0  0  0  0  0  0  0
   17.9056   80.0549    0.1294 C   0  0  0  0  0  0  0  0  0  0  0  0
   18.0710   81.0029    1.2110 N   0  3  0  0  0  0  0  0  0  0  0  0
   17.8873   80.7715    2.5486 C   0  0  0  0  0  0  0  0  0  0  0  0
   18.4647   82.2577    0.9358 N   0  0  0  0  0  0  0  0  0  0  0  0
   18.5326   82.8345    2.1371 C   0  0  0  0  0  0  0  0  0  0  0  0
   18.1707   81.9612    3.1897 C   0  0  0  0  0  0  0  0  0  0  0  0
   18.1144   82.2387    4.6145 C   0  0  0  0  0  0  0  0  0  0  0  0
   18.4846   83.5039    4.9540 N   0  0  0  0  0  0  0  0  0  0  0  0
   18.4293   83.6878    6.2906 C   0  0  0  0  0  0  0  0  0  0  0  0
   18.7552   84.7872    7.0302 N   0  3  0  0  0  0  0  0  0  0  0  0
   18.5330   84.5803    8.3498 N   0  0  0  0  0  0  0  0  0  0  0  0
   18.0941   83.3283    8.4900 N   0  0  0  0  0  0  0  0  0  0  0  0
   18.0310   82.7637    7.2469 C   0  0  0  0  0  0  0  0  0  0  0  0
   17.6449   81.5069    6.9086 N   0  0  0  0  0  0  0  0  0  0  0  0
   17.7130   81.2897    5.5642 C   0  0  0  0  0  0  0  0  0  0  0  0
   19.2397   86.0615    6.5428 C   0  0  0  0  0  0  0  0  0  0  0  0
   20.6890   85.9821    6.1288 C   0  0  0  0  0  0  0  0  0  0  0  0
   21.0409   85.7667    4.7881 C   0  0  0  0  0  0  0  0  0  0  0  0
   22.3911   85.6597    4.4023 C   0  0  0  0  0  0  0  0  0  0  0  0
   22.7632   85.4379    3.0698 C   0  0  0  0  0  0  0  0  0  0  0  0
   24.1081   85.3364    2.7344 C   0  0  0  0  0  0  0  0  0  0  0  0
   25.0389   85.4623    3.7481 C   0  0  0  0  0  0  0  0  0  0  0  0
   24.7192   85.6765    5.0431 N   0  0  0  0  0  0  0  0  0  0  0  0
   23.4156   85.7722    5.3644 C   0  0  0  0  0  0  0  0  0  0  0  0
   23.0504   85.9832    6.6862 C   0  0  0  0  0  0  0  0  0  0  0  0
   21.7099   86.0855    7.0771 C   0  0  0  0  0  0  0  0  0  0  0  0
   16.5971   79.1761   -1.9901 H   0  0  0  0  0  0  0  0  0  0  0  0
   16.0075   79.2446    0.7887 H   0  0  0  0  0  0  0  0  0  0  0  0
   15.8490   80.5725   -0.3661 H   0  0  0  0  0  0  0  0  0  0  0  0
   18.3391   80.4868   -0.7810 H   0  0  0  0  0  0  0  0  0  0  0  0
   18.5006   79.1661    0.3673 H   0  0  0  0  0  0  0  0  0  0  0  0
   17.5732   79.7996    2.9045 H   0  0  0  0  0  0  0  0  0  0  0  0
   18.8394   83.8705    2.2061 H   0  0  0  0  0  0  0  0  0  0  0  0
   17.4210   80.2862    5.2711 H   0  0  0  0  0  0  0  0  0  0  0  0
   19.1046   86.8107    7.3322 H   0  0  0  0  0  0  0  0  0  0  0  0
   18.6014   86.3615    5.7034 H   0  0  0  0  0  0  0  0  0  0  0  0
   20.2610   85.6656    4.0355 H   0  0  0  0  0  0  0  0  0  0  0  0
   22.0117   85.3390    2.2900 H   0  0  0  0  0  0  0  0  0  0  0  0
   24.4209   85.1638    1.7112 H   0  0  0  0  0  0  0  0  0  0  0  0
   26.1035   85.3914    3.5421 H   0  0  0  0  0  0  0  0  0  0  0  0
   23.8334   86.0646    7.4368 H   0  0  0  0  0  0  0  0  0  0  0  0
   21.4787   86.2386    8.1300 H   0  0  0  0  0  0  0  0  0  0  0  0
  1  2  1  0  0  0  0
  1 29  1  0  0  0  0
  2  3  1  0  0  0  0
  2 30  1  0  0  0  0
  2 31  1  0  0  0  0
  3  4  1  0  0  0  0
  3 32  1  0  0  0  0
  3 33  1  0  0  0  0
  4  5  2  0  0  0  0
  4  6  1  0  0  0  0
  5  8  1  0  0  0  0
  5 34  1  0  0  0  0
  6  7  1  0  0  0  0
  7  8  2  0  0  0  0
  7 35  1  0  0  0  0
  8  9  1  0  0  0  0
  9 10  2  0  0  0  0
  9 17  1  0  0  0  0
 10 11  1  0  0  0  0
 11 12  2  0  0  0  0
 11 15  1  0  0  0  0
 12 13  1  0  0  0  0
 12 18  1  0  0  0  0
 13 14  1  0  0  0  0
 14 15  2  0  0  0  0
 15 16  1  0  0  0  0
 16 17  2  0  0  0  0
 17 36  1  0  0  0  0
 18 19  1  0  0  0  0
 18 37  1  0  0  0  0
 18 38  1  0  0  0  0
 19 20  2  0  0  0  0
 19 28  1  0  0  0  0
 20 21  1  0  0  0  0
 20 39  1  0  0  0  0
 21 22  2  0  0  0  0
 21 26  1  0  0  0  0
 22 23  1  0  0  0  0
 22 40  1  0  0  0  0
 23 24  2  0  0  0  0
 23 41  1  0  0  0  0
 24 25  1  0  0  0  0
 24 42  1  0  0  0  0
 25 26  2  0  0  0  0
 26 27  1  0  0  0  0
 27 28  2  0  0  0  0
 27 43  1  0  0  0  0
 28 44  1  0  0  0  0
M  CHG  2   4   1  12   1
M  END
$$$$
