KXB
 OpenBabel04091915253D

 45 47  0  0  0  0  0  0  0  0999 V2000
   47.4882   49.1761   37.1799 C   0  0  0  0  0  0  0  0  0  0  0  0
   47.3553   48.7048   38.4778 C   0  0  0  0  0  0  0  0  0  0  0  0
   48.4644   50.6849   39.3466 C   0  0  0  0  0  0  0  0  0  0  0  0
   48.1182   50.3998   36.9494 C   0  0  0  0  0  0  0  0  0  0  0  0
   48.2837   50.9036   35.5780 C   0  0  0  0  0  0  0  0  0  0  0  0
   49.5087   50.7813   34.9504 C   0  0  0  0  0  0  0  0  0  0  0  0
   47.2559   51.5601   34.8648 C   0  0  0  0  0  0  0  0  0  0  0  0
   47.8419   49.4586   39.5497 C   0  0  0  0  0  0  0  0  0  0  0  0
   48.6070   51.1329   38.0478 C   0  0  0  0  0  0  0  0  0  0  0  0
   49.6749   51.2999   33.6782 C   0  0  0  0  0  0  0  0  0  0  0  0
   47.5254   52.0628   33.5762 C   0  0  0  0  0  0  0  0  0  0  0  0
   51.0652   51.0106   33.2078 C   0  0  0  0  0  0  0  0  0  0  0  0
   50.7829   50.1521   35.4247 C   0  0  0  0  0  0  0  0  0  0  0  0
   46.4854   52.7709   32.7559 C   0  0  0  0  0  0  0  0  0  0  0  0
   55.2867   51.9263   35.8594 C   0  0  0  0  0  0  0  0  0  0  0  0
   45.8998   51.7225   35.4741 C   0  0  0  0  0  0  0  0  0  0  0  0
   53.0404   49.8063   34.2088 C   0  0  0  0  0  0  0  0  0  0  0  0
   53.8579   50.0394   35.4965 C   0  0  0  0  0  0  0  0  0  0  0  0
   48.7277   51.9307   32.9677 N   0  0  0  0  0  0  0  0  0  0  0  0
   51.6666   50.3140   34.2766 N   0  0  0  0  0  0  0  0  0  0  0  0
   45.9454   52.7184   36.5532 N   0  3  0  0  0  0  0  0  0  0  0  0
   51.5586   51.2868   32.1486 O   0  0  0  0  0  0  0  0  0  0  0  0
   53.9451   51.4468   35.7645 O   0  0  0  0  0  0  0  0  0  0  0  0
   47.6708   48.8741   41.1424 Cl  0  0  0  0  0  0  0  0  0  0  0  0
   49.3607   52.6626   37.7891 Cl  0  0  0  0  0  0  0  0  0  0  0  0
   47.1144   48.5844   36.3451 H   0  0  0  0  0  0  0  0  0  0  0  0
   46.8834   47.7426   38.6632 H   0  0  0  0  0  0  0  0  0  0  0  0
   48.8465   51.2653   40.1852 H   0  0  0  0  0  0  0  0  0  0  0  0
   50.6371   49.0937   35.6678 H   0  0  0  0  0  0  0  0  0  0  0  0
   51.1835   50.6767   36.2995 H   0  0  0  0  0  0  0  0  0  0  0  0
   46.9126   53.0648   31.7935 H   0  0  0  0  0  0  0  0  0  0  0  0
   46.1394   53.6705   33.2769 H   0  0  0  0  0  0  0  0  0  0  0  0
   45.6369   52.1033   32.5725 H   0  0  0  0  0  0  0  0  0  0  0  0
   55.2729   53.0083   36.0355 H   0  0  0  0  0  0  0  0  0  0  0  0
   55.8363   51.7331   34.9308 H   0  0  0  0  0  0  0  0  0  0  0  0
   55.8016   51.4441   36.6969 H   0  0  0  0  0  0  0  0  0  0  0  0
   45.5412   50.7872   35.9096 H   0  0  0  0  0  0  0  0  0  0  0  0
   45.1605   52.0771   34.7564 H   0  0  0  0  0  0  0  0  0  0  0  0
   52.9796   48.7326   33.9814 H   0  0  0  0  0  0  0  0  0  0  0  0
   53.5434   50.2955   33.3628 H   0  0  0  0  0  0  0  0  0  0  0  0
   54.8620   49.6049   35.4027 H   0  0  0  0  0  0  0  0  0  0  0  0
   53.3655   49.5538   36.3520 H   0  0  0  0  0  0  0  0  0  0  0  0
   45.0263   52.8394   36.9884 H   0  0  0  0  0  0  0  0  0  0  0  0
   46.6067   52.4249   37.2759 H   0  0  0  0  0  0  0  0  0  0  0  0
   46.2698   53.6200   36.1879 H   0  0  0  0  0  0  0  0  0  0  0  0
  1  2  2  0  0  0  0
  1  4  1  0  0  0  0
  1 26  1  0  0  0  0
  2  8  1  0  0  0  0
  2 27  1  0  0  0  0
  3  8  2  0  0  0  0
  3  9  1  0  0  0  0
  3 28  1  0  0  0  0
  4  5  1  0  0  0  0
  4  9  2  0  0  0  0
  5  6  2  0  0  0  0
  5  7  1  0  0  0  0
  6 10  1  0  0  0  0
  6 13  1  0  0  0  0
  7 11  2  0  0  0  0
  7 16  1  0  0  0  0
  8 24  1  0  0  0  0
  9 25  1  0  0  0  0
 10 12  1  0  0  0  0
 10 19  2  0  0  0  0
 11 14  1  0  0  0  0
 11 19  1  0  0  0  0
 12 20  1  0  0  0  0
 12 22  2  0  0  0  0
 13 20  1  0  0  0  0
 13 29  1  0  0  0  0
 13 30  1  0  0  0  0
 14 31  1  0  0  0  0
 14 32  1  0  0  0  0
 14 33  1  0  0  0  0
 15 23  1  0  0  0  0
 15 34  1  0  0  0  0
 15 35  1  0  0  0  0
 15 36  1  0  0  0  0
 16 21  1  0  0  0  0
 16 37  1  0  0  0  0
 16 38  1  0  0  0  0
 17 18  1  0  0  0  0
 17 20  1  0  0  0  0
 17 39  1  0  0  0  0
 17 40  1  0  0  0  0
 18 23  1  0  0  0  0
 18 41  1  0  0  0  0
 18 42  1  0  0  0  0
 21 43  1  0  0  0  0
 21 44  1  0  0  0  0
 21 45  1  0  0  0  0
M  CHG  1  21   1
M  END
$$$$
