L14
 OpenBabel04091914443D

 22 22  0  0  1  0  0  0  0  0999 V2000
    2.2578   23.2446   43.9775 O   0  0  0  0  0  0  0  0  0  0  0  0
   -3.5603   25.7183   47.0380 O   0  0  0  0  0  0  0  0  0  0  0  0
    3.4538   24.8800   44.9942 O   0  0  0  0  0  0  0  0  0  0  0  0
   -2.0883   25.3572   48.7300 O   0  0  0  0  0  0  0  0  0  0  0  0
    0.3764   23.1951   46.0200 C   0  0  0  0  0  0  0  0  0  0  0  0
   -0.7435   23.5764   46.9764 C   0  0  0  0  0  0  0  0  0  0  0  0
    0.6354   25.6172   45.3635 C   0  0  0  0  0  0  0  0  0  0  0  0
   -0.4910   26.0040   46.2996 C   0  0  0  0  0  0  0  0  0  0  0  0
    2.4482   24.1312   44.8454 C   0  0  0  0  0  0  0  0  0  0  0  0
   -2.4536   25.3458   47.5315 C   0  0  0  0  0  0  0  0  0  0  0  0
    1.3464   24.3634   45.8703 C   0  0  2  0  0  0  0  0  0  0  0  0
   -1.4569   24.8383   46.4971 C   0  0  2  0  0  0  0  0  0  0  0  0
   -0.0496   22.9317   45.0443 H   0  0  0  0  0  0  0  0  0  0  0  0
    0.9119   22.3189   46.4018 H   0  0  0  0  0  0  0  0  0  0  0  0
   -0.3201   23.7421   47.9744 H   0  0  0  0  0  0  0  0  0  0  0  0
   -1.4643   22.7546   47.0487 H   0  0  0  0  0  0  0  0  0  0  0  0
    1.3450   26.4523   45.2879 H   0  0  0  0  0  0  0  0  0  0  0  0
    0.2235   25.4323   44.3621 H   0  0  0  0  0  0  0  0  0  0  0  0
   -1.0279   26.8679   45.8861 H   0  0  0  0  0  0  0  0  0  0  0  0
   -0.0625   26.3032   47.2657 H   0  0  0  0  0  0  0  0  0  0  0  0
    1.7960   24.5712   46.8517 H   0  0  0  0  0  0  0  0  0  0  0  0
   -1.9653   24.6188   45.5465 H   0  0  0  0  0  0  0  0  0  0  0  0
  1  9  2  0  0  0  0
  2 10  2  0  0  0  0
  3  9  1  0  0  0  0
  4 10  1  0  0  0  0
  5  6  1  0  0  0  0
  5 11  1  0  0  0  0
  5 13  1  0  0  0  0
  5 14  1  0  0  0  0
  6 12  1  0  0  0  0
  6 15  1  0  0  0  0
  6 16  1  0  0  0  0
  7  8  1  0  0  0  0
  7 11  1  0  0  0  0
  7 17  1  0  0  0  0
  7 18  1  0  0  0  0
  8 12  1  0  0  0  0
  8 19  1  0  0  0  0
  8 20  1  0  0  0  0
  9 11  1  0  0  0  0
 10 12  1  0  0  0  0
 11 21  1  1  0  0  0
 12 22  1  6  0  0  0
M  END
$$$$
