L3L
 OpenBabel04091913323D

 37 39  0  0  0  0  0  0  0  0999 V2000
  -28.7274   65.0996   24.2976 C   0  0  0  0  0  0  0  0  0  0  0  0
  -27.8492   65.9556   23.6169 C   0  0  0  0  0  0  0  0  0  0  0  0
  -28.2752   64.3258   25.3460 C   0  0  0  0  0  0  0  0  0  0  0  0
  -26.0724   65.2292   25.0085 C   0  0  0  0  0  0  0  0  0  0  0  0
  -26.5050   66.0236   23.9758 C   0  0  0  0  0  0  0  0  0  0  0  0
  -26.9490   64.3923   25.6956 C   0  0  0  0  0  0  0  0  0  0  0  0
  -24.7445   65.0552   25.6260 C   0  0  0  0  0  0  0  0  0  0  0  0
  -25.6667   66.9500   23.2215 C   0  0  0  0  0  0  0  0  0  0  0  0
  -26.2649   63.6606   26.7798 C   0  0  0  0  0  0  0  0  0  0  0  0
  -23.3485   62.4622   27.1948 C   0  0  0  0  0  0  0  0  0  0  0  0
  -24.2816   63.8502   29.0263 C   0  0  0  0  0  0  0  0  0  0  0  0
  -22.1678   62.1439   28.0709 C   0  0  0  0  0  0  0  0  0  0  0  0
  -23.0978   63.4795   29.8757 C   0  0  0  0  0  0  0  0  0  0  0  0
  -23.8619   63.8429   27.5672 C   0  0  0  0  0  0  0  0  0  0  0  0
  -22.6573   62.1192   29.4735 N   0  3  0  0  0  0  0  0  0  0  0  0
  -24.9452   64.2355   26.7211 N   0  0  0  0  0  0  0  0  0  0  0  0
  -24.3457   66.9212   23.4447 N   0  0  0  0  0  0  0  0  0  0  0  0
  -23.6811   65.4808   25.2767 O   0  0  0  0  0  0  0  0  0  0  0  0
  -26.1629   67.7216   22.4027 O   0  0  0  0  0  0  0  0  0  0  0  0
  -29.7624   65.0621   23.9850 H   0  0  0  0  0  0  0  0  0  0  0  0
  -28.2212   66.5705   22.7994 H   0  0  0  0  0  0  0  0  0  0  0  0
  -28.9604   63.6802   25.8845 H   0  0  0  0  0  0  0  0  0  0  0  0
  -26.2229   62.5849   26.5818 H   0  0  0  0  0  0  0  0  0  0  0  0
  -26.7236   63.8529   27.7520 H   0  0  0  0  0  0  0  0  0  0  0  0
  -24.1438   61.7187   27.3509 H   0  0  0  0  0  0  0  0  0  0  0  0
  -23.0390   62.4394   26.1518 H   0  0  0  0  0  0  0  0  0  0  0  0
  -24.6314   64.8432   29.3096 H   0  0  0  0  0  0  0  0  0  0  0  0
  -25.0948   63.1268   29.1807 H   0  0  0  0  0  0  0  0  0  0  0  0
  -21.4020   62.9225   28.0098 H   0  0  0  0  0  0  0  0  0  0  0  0
  -21.7449   61.1694   27.8403 H   0  0  0  0  0  0  0  0  0  0  0  0
  -23.3574   63.4527   30.9305 H   0  0  0  0  0  0  0  0  0  0  0  0
  -22.2573   64.1555   29.6989 H   0  0  0  0  0  0  0  0  0  0  0  0
  -23.0418   64.5647   27.4361 H   0  0  0  0  0  0  0  0  0  0  0  0
  -23.4398   61.4550   29.5579 H   0  0  0  0  0  0  0  0  0  0  0  0
  -23.6897   67.5211   22.9818 H   0  0  0  0  0  0  0  0  0  0  0  0
  -23.9440   66.2886   24.1222 H   0  0  0  0  0  0  0  0  0  0  0  0
  -21.9116   61.7771   30.1158 H   0  0  0  0  0  0  0  0  0  0  0  0
  1  2  2  0  0  0  0
  1  3  1  0  0  0  0
  1 20  1  0  0  0  0
  2  5  1  0  0  0  0
  2 21  1  0  0  0  0
  3  6  2  0  0  0  0
  3 22  1  0  0  0  0
  4  5  2  0  0  0  0
  4  6  1  0  0  0  0
  4  7  1  0  0  0  0
  5  8  1  0  0  0  0
  6  9  1  0  0  0  0
  7 16  1  0  0  0  0
  7 18  2  0  0  0  0
  8 17  1  0  0  0  0
  8 19  2  0  0  0  0
  9 16  1  0  0  0  0
  9 23  1  0  0  0  0
  9 24  1  0  0  0  0
 10 12  1  0  0  0  0
 10 14  1  0  0  0  0
 10 25  1  0  0  0  0
 10 26  1  0  0  0  0
 11 13  1  0  0  0  0
 11 14  1  0  0  0  0
 11 27  1  0  0  0  0
 11 28  1  0  0  0  0
 12 15  1  0  0  0  0
 12 29  1  0  0  0  0
 12 30  1  0  0  0  0
 13 15  1  0  0  0  0
 13 31  1  0  0  0  0
 13 32  1  0  0  0  0
 14 16  1  0  0  0  0
 14 33  1  0  0  0  0
 15 34  1  0  0  0  0
 15 37  1  0  0  0  0
 17 35  1  0  0  0  0
 17 36  1  0  0  0  0
M  CHG  1  15   1
M  END
$$$$
