L4T
 OpenBabel04091914273D

105110  0  0  1  0  0  0  0  0999 V2000
   39.5434   43.5293    9.2628 C   0  0  0  0  0  0  0  0  0  0  0  0
   38.6043   43.9399    8.6003 O   0  0  0  0  0  0  0  0  0  0  0  0
   39.8820   42.2271    9.3836 O   0  0  0  0  0  0  0  0  0  0  0  0
   40.3542   41.6353    8.1856 C   0  0  0  0  0  0  0  0  0  0  0  0
   39.3052   41.2285    7.1612 C   0  0  0  0  0  0  0  0  0  0  0  0
   40.0931   40.2795    6.2545 C   0  0  0  0  0  0  0  0  0  0  0  0
   41.1774   39.6631    7.1432 C   0  0  0  0  0  0  0  0  0  0  0  0
   40.9445   40.2692    8.5164 C   0  0  0  0  0  0  0  0  0  0  0  0
   40.3788   44.2858   10.0205 N   0  0  0  0  0  0  0  0  0  0  0  0
   40.2575   45.7365   10.0845 C   0  0  1  0  0  0  0  0  0  0  0  0
   40.6677   46.2834   11.4825 C   0  0  0  0  0  0  0  0  0  0  0  0
   40.4195   47.7996   11.5339 C   0  0  0  0  0  0  0  0  0  0  0  0
   42.1348   46.0039   11.8486 C   0  0  0  0  0  0  0  0  0  0  0  0
   39.7855   45.6185   12.5603 C   0  0  0  0  0  0  0  0  0  0  0  0
   41.0583   46.3384    8.9046 C   0  0  0  0  0  0  0  0  0  0  0  0
   42.2449   46.0388    8.7388 O   0  0  0  0  0  0  0  0  0  0  0  0
   42.2362   48.6652    7.4592 C   0  0  0  0  0  0  0  0  0  0  0  0
   42.0849   49.3202    8.4869 O   0  0  0  0  0  0  0  0  0  0  0  0
   41.1114   47.7960    6.9001 C   0  0  2  0  0  0  0  0  0  0  0  0
   40.0474   48.6414    6.1958 C   0  0  0  0  0  0  0  0  0  0  0  0
   38.7599   47.8803    6.5164 C   0  0  2  0  0  0  0  0  0  0  0  0
   38.9821   47.5187    7.9859 C   0  0  0  0  0  0  0  0  0  0  0  0
   40.3988   47.1796    8.0330 N   0  0  0  0  0  0  0  0  0  0  0  0
   38.7059   46.6247    5.8104 O   0  0  0  0  0  0  0  0  0  0  0  0
   38.2589   46.5688    4.5181 C   0  0  0  0  0  0  0  0  0  0  0  0
   37.6834   47.6655    3.8863 C   0  0  0  0  0  0  0  0  0  0  0  0
   37.2518   47.5051    2.5802 C   0  0  0  0  0  0  0  0  0  0  0  0
   37.3784   46.3356    1.9116 N   0  0  0  0  0  0  0  0  0  0  0  0
   37.9304   45.2596    2.5079 C   0  0  0  0  0  0  0  0  0  0  0  0
   38.3929   45.3160    3.8401 C   0  0  0  0  0  0  0  0  0  0  0  0
   38.9609   44.1473    4.4113 C   0  0  0  0  0  0  0  0  0  0  0  0
   39.0718   42.9438    3.6958 C   0  0  0  0  0  0  0  0  0  0  0  0
   38.6203   42.8611    2.3798 C   0  0  0  0  0  0  0  0  0  0  0  0
   38.0607   44.0389    1.8142 C   0  0  0  0  0  0  0  0  0  0  0  0
   37.4442   43.9552   -0.0029 Br  0  0  0  0  0  0  0  0  0  0  0  0
   38.6722   41.7491    1.5929 O   0  0  0  0  0  0  0  0  0  0  0  0
   39.2086   40.5333    2.1069 C   0  0  0  0  0  0  0  0  0  0  0  0
   36.5883   48.6160    1.8964 C   0  0  0  0  0  0  0  0  0  0  0  0
   36.1670   48.5557    0.5834 C   0  0  0  0  0  0  0  0  0  0  0  0
   35.3904   50.0240    0.1556 S   0  0  0  0  0  0  0  0  0  0  0  0
   35.6737   50.6283    1.7225 C   0  0  0  0  0  0  0  0  0  0  0  0
   36.3306   49.8306    2.5319 N   0  0  0  0  0  0  0  0  0  0  0  0
   35.2955   51.8838    2.1290 N   0  0  0  0  0  0  0  0  0  0  0  0
   34.3854   52.7170    1.5136 C   0  0  0  0  0  0  0  0  0  0  0  0
   33.7525   52.4789    0.4903 O   0  0  0  0  0  0  0  0  0  0  0  0
   34.1502   54.0059    2.3126 C   0  0  0  0  0  0  0  0  0  0  0  0
   32.9473   53.8549    3.2445 C   0  0  0  0  0  0  0  0  0  0  0  0
   33.9425   55.1969    1.3840 C   0  0  0  0  0  0  0  0  0  0  0  0
   43.4131   48.5265    6.7501 N   0  0  0  0  0  0  0  0  0  0  0  0
   44.6821   48.9898    7.3023 C   0  0  1  0  0  0  0  0  0  0  0  0
   45.2978   48.0473    8.3439 C   0  0  1  0  0  0  0  0  0  0  0  0
   45.9167   48.1413    6.9832 C   0  0  0  0  0  0  0  0  0  0  0  0
   46.0251   48.5102    9.5278 C   0  0  0  0  0  0  0  0  0  0  0  0
   45.7432   48.1447   10.7880 C   0  0  0  0  0  0  0  0  0  0  0  0
   44.9024   50.4942    7.2963 C   0  0  0  0  0  0  0  0  0  0  0  0
   46.0051   50.9711    7.7243 O   0  0  0  0  0  0  0  0  0  0  0  0
   43.9952   51.2167    6.7501 O   0  0  0  0  0  0  0  0  0  0  0  0
   41.1200   42.2745    7.7217 H   0  0  0  0  0  0  0  0  0  0  0  0
   38.8749   42.0755    6.6246 H   0  0  0  0  0  0  0  0  0  0  0  0
   38.4740   40.6984    7.6438 H   0  0  0  0  0  0  0  0  0  0  0  0
   40.5845   40.8356    5.4500 H   0  0  0  0  0  0  0  0  0  0  0  0
   39.4517   39.5213    5.7977 H   0  0  0  0  0  0  0  0  0  0  0  0
   42.1705   39.9531    6.7775 H   0  0  0  0  0  0  0  0  0  0  0  0
   41.1264   38.5721    7.1566 H   0  0  0  0  0  0  0  0  0  0  0  0
   40.2110   39.6691    9.0757 H   0  0  0  0  0  0  0  0  0  0  0  0
   41.8443   40.3289    9.1301 H   0  0  0  0  0  0  0  0  0  0  0  0
   41.2176   43.8385   10.3642 H   0  0  0  0  0  0  0  0  0  0  0  0
   39.1983   45.9564    9.9526 H   0  0  0  0  0  0  0  0  0  0  0  0
   40.6810   48.2093   12.5155 H   0  0  0  0  0  0  0  0  0  0  0  0
   39.3649   48.0300   11.3459 H   0  0  0  0  0  0  0  0  0  0  0  0
   41.0192   48.3290   10.7880 H   0  0  0  0  0  0  0  0  0  0  0  0
   42.3608   44.9328   11.8417 H   0  0  0  0  0  0  0  0  0  0  0  0
   42.3592   46.3710   12.8574 H   0  0  0  0  0  0  0  0  0  0  0  0
   42.8228   46.5033   11.1637 H   0  0  0  0  0  0  0  0  0  0  0  0
   38.7219   45.7754   12.3509 H   0  0  0  0  0  0  0  0  0  0  0  0
   39.9984   46.0324   13.5517 H   0  0  0  0  0  0  0  0  0  0  0  0
   39.9631   44.5384   12.6132 H   0  0  0  0  0  0  0  0  0  0  0  0
   41.4917   47.0022    6.2459 H   0  0  0  0  0  0  0  0  0  0  0  0
   40.2438   48.7373    5.1237 H   0  0  0  0  0  0  0  0  0  0  0  0
   40.0079   49.6517    6.6249 H   0  0  0  0  0  0  0  0  0  0  0  0
   37.8443   48.4681    6.4081 H   0  0  0  0  0  0  0  0  0  0  0  0
   38.3430   46.6908    8.2933 H   0  0  0  0  0  0  0  0  0  0  0  0
   38.8264   48.3809    8.6439 H   0  0  0  0  0  0  0  0  0  0  0  0
   37.5573   48.6150    4.3559 H   0  0  0  0  0  0  0  0  0  0  0  0
   39.3286   44.1720    5.4371 H   0  0  0  0  0  0  0  0  0  0  0  0
   39.5060   42.0757    4.1753 H   0  0  0  0  0  0  0  0  0  0  0  0
   39.1514   39.7805    1.3151 H   0  0  0  0  0  0  0  0  0  0  0  0
   38.6201   40.1641    2.9521 H   0  0  0  0  0  0  0  0  0  0  0  0
   40.2634   40.6473    2.3742 H   0  0  0  0  0  0  0  0  0  0  0  0
   36.2681   47.7356   -0.1137 H   0  0  0  0  0  0  0  0  0  0  0  0
   35.6839   52.1416    3.0250 H   0  0  0  0  0  0  0  0  0  0  0  0
   35.0371   54.2119    2.9237 H   0  0  0  0  0  0  0  0  0  0  0  0
   32.7731   54.7818    3.8004 H   0  0  0  0  0  0  0  0  0  0  0  0
   33.1120   53.0520    3.9725 H   0  0  0  0  0  0  0  0  0  0  0  0
   32.0354   53.6194    2.6881 H   0  0  0  0  0  0  0  0  0  0  0  0
   34.7941   55.3082    0.7057 H   0  0  0  0  0  0  0  0  0  0  0  0
   33.8485   56.1213    1.9645 H   0  0  0  0  0  0  0  0  0  0  0  0
   33.0378   55.0853    0.7768 H   0  0  0  0  0  0  0  0  0  0  0  0
   43.4073   48.2417    5.7834 H   0  0  0  0  0  0  0  0  0  0  0  0
   44.7420   47.1312    8.5342 H   0  0  0  0  0  0  0  0  0  0  0  0
   46.8674   48.6480    6.8678 H   0  0  0  0  0  0  0  0  0  0  0  0
   45.7913   47.3003    6.3127 H   0  0  0  0  0  0  0  0  0  0  0  0
   46.8495   49.2033    9.3677 H   0  0  0  0  0  0  0  0  0  0  0  0
   46.3115   48.5344   11.6230 H   0  0  0  0  0  0  0  0  0  0  0  0
   44.9187   47.4734   10.9959 H   0  0  0  0  0  0  0  0  0  0  0  0
  1  2  2  0  0  0  0
  1  3  1  0  0  0  0
  1  9  1  0  0  0  0
  3  4  1  0  0  0  0
  4  5  1  0  0  0  0
  4  8  1  0  0  0  0
  4 58  1  0  0  0  0
  5  6  1  0  0  0  0
  5 59  1  0  0  0  0
  5 60  1  0  0  0  0
  6  7  1  0  0  0  0
  6 61  1  0  0  0  0
  6 62  1  0  0  0  0
  7  8  1  0  0  0  0
  7 63  1  0  0  0  0
  7 64  1  0  0  0  0
  8 65  1  0  0  0  0
  8 66  1  0  0  0  0
  9 10  1  0  0  0  0
  9 67  1  0  0  0  0
 10 11  1  0  0  0  0
 10 15  1  0  0  0  0
 10 68  1  6  0  0  0
 11 12  1  0  0  0  0
 11 13  1  0  0  0  0
 11 14  1  0  0  0  0
 12 69  1  0  0  0  0
 12 70  1  0  0  0  0
 12 71  1  0  0  0  0
 13 72  1  0  0  0  0
 13 73  1  0  0  0  0
 13 74  1  0  0  0  0
 14 75  1  0  0  0  0
 14 76  1  0  0  0  0
 14 77  1  0  0  0  0
 15 16  2  0  0  0  0
 15 23  1  0  0  0  0
 17 18  2  0  0  0  0
 17 19  1  0  0  0  0
 17 49  1  0  0  0  0
 19 20  1  0  0  0  0
 19 23  1  0  0  0  0
 19 78  1  6  0  0  0
 20 21  1  0  0  0  0
 20 79  1  0  0  0  0
 20 80  1  0  0  0  0
 21 22  1  0  0  0  0
 21 24  1  0  0  0  0
 21 81  1  6  0  0  0
 22 23  1  0  0  0  0
 22 82  1  0  0  0  0
 22 83  1  0  0  0  0
 24 25  1  0  0  0  0
 25 26  2  0  0  0  0
 25 30  1  0  0  0  0
 26 27  1  0  0  0  0
 26 84  1  0  0  0  0
 27 28  2  0  0  0  0
 27 38  1  0  0  0  0
 28 29  1  0  0  0  0
 29 30  2  0  0  0  0
 29 34  1  0  0  0  0
 30 31  1  0  0  0  0
 31 32  2  0  0  0  0
 31 85  1  0  0  0  0
 32 33  1  0  0  0  0
 32 86  1  0  0  0  0
 33 34  2  0  0  0  0
 33 36  1  0  0  0  0
 34 35  1  0  0  0  0
 36 37  1  0  0  0  0
 37 87  1  0  0  0  0
 37 88  1  0  0  0  0
 37 89  1  0  0  0  0
 38 39  2  0  0  0  0
 38 42  1  0  0  0  0
 39 40  1  0  0  0  0
 39 90  1  0  0  0  0
 40 41  1  0  0  0  0
 41 42  2  0  0  0  0
 41 43  1  0  0  0  0
 43 44  1  0  0  0  0
 43 91  1  0  0  0  0
 44 45  2  0  0  0  0
 44 46  1  0  0  0  0
 46 47  1  0  0  0  0
 46 48  1  0  0  0  0
 46 92  1  0  0  0  0
 47 93  1  0  0  0  0
 47 94  1  0  0  0  0
 47 95  1  0  0  0  0
 48 96  1  0  0  0  0
 48 97  1  0  0  0  0
 48 98  1  0  0  0  0
 49 99  1  0  0  0  0
 50 49  1  6  0  0  0
 50 51  1  0  0  0  0
 50 52  1  0  0  0  0
 50 55  1  0  0  0  0
 51 52  1  0  0  0  0
 51 53  1  0  0  0  0
 51100  1  1  0  0  0
 52101  1  0  0  0  0
 52102  1  0  0  0  0
 53 54  2  0  0  0  0
 53103  1  0  0  0  0
 54104  1  0  0  0  0
 54105  1  0  0  0  0
 55 56  2  0  0  0  0
 55 57  1  0  0  0  0
M  END
$$$$
