L5T
 OpenBabel04091914273D

105110  0  0  1  0  0  0  0  0999 V2000
   39.3979   43.6453    9.1498 C   0  0  0  0  0  0  0  0  0  0  0  0
   38.4367   44.1439    8.5836 O   0  0  0  0  0  0  0  0  0  0  0  0
   39.6515   42.3147    9.1629 O   0  0  0  0  0  0  0  0  0  0  0  0
   40.2011   41.8409    7.9410 C   0  0  0  0  0  0  0  0  0  0  0  0
   39.1836   41.4439    6.8774 C   0  0  0  0  0  0  0  0  0  0  0  0
   39.9990   40.5637    5.9278 C   0  0  0  0  0  0  0  0  0  0  0  0
   41.1503   40.0004    6.7659 C   0  0  0  0  0  0  0  0  0  0  0  0
   40.8950   40.5047    8.1773 C   0  0  0  0  0  0  0  0  0  0  0  0
   40.3267   44.3189    9.8862 N   0  0  0  0  0  0  0  0  0  0  0  0
   40.2959   45.7782   10.0232 C   0  0  1  0  0  0  0  0  0  0  0  0
   40.6875   46.2409   11.4695 C   0  0  0  0  0  0  0  0  0  0  0  0
   40.3387   47.7319   11.6277 C   0  0  0  0  0  0  0  0  0  0  0  0
   42.1696   46.0413   11.8334 C   0  0  0  0  0  0  0  0  0  0  0  0
   39.8488   45.4623   12.5109 C   0  0  0  0  0  0  0  0  0  0  0  0
   41.1373   46.4132    8.8695 C   0  0  0  0  0  0  0  0  0  0  0  0
   42.3200   46.0883    8.7161 O   0  0  0  0  0  0  0  0  0  0  0  0
   42.4111   48.8042    7.4206 C   0  0  0  0  0  0  0  0  0  0  0  0
   42.2616   49.4979    8.4285 O   0  0  0  0  0  0  0  0  0  0  0  0
   41.2720   47.9199    6.8850 C   0  0  2  0  0  0  0  0  0  0  0  0
   40.2258   48.7538    6.1301 C   0  0  0  0  0  0  0  0  0  0  0  0
   38.9225   48.0026    6.4023 C   0  0  2  0  0  0  0  0  0  0  0  0
   39.1022   47.6064    7.8768 C   0  0  0  0  0  0  0  0  0  0  0  0
   40.5214   47.2972    7.9977 N   0  0  0  0  0  0  0  0  0  0  0  0
   38.8473   46.7947    5.5994 O   0  0  0  0  0  0  0  0  0  0  0  0
   38.3009   46.8427    4.3295 C   0  0  0  0  0  0  0  0  0  0  0  0
   37.6828   47.9849    3.8259 C   0  0  0  0  0  0  0  0  0  0  0  0
   37.1364   47.9572    2.5517 C   0  0  0  0  0  0  0  0  0  0  0  0
   37.2066   46.8407    1.7669 N   0  0  0  0  0  0  0  0  0  0  0  0
   37.7977   45.7126    2.2321 C   0  0  0  0  0  0  0  0  0  0  0  0
   38.3782   45.6472    3.5261 C   0  0  0  0  0  0  0  0  0  0  0  0
   38.9743   44.4134    3.9157 C   0  0  0  0  0  0  0  0  0  0  0  0
   39.0079   43.2714    3.0702 C   0  0  0  0  0  0  0  0  0  0  0  0
   38.4392   43.3344    1.8141 C   0  0  0  0  0  0  0  0  0  0  0  0
   37.8548   44.5505    1.4291 C   0  0  0  0  0  0  0  0  0  0  0  0
   38.3824   42.3156    0.8817 O   0  0  0  0  0  0  0  0  0  0  0  0
   38.9475   41.0458    1.1770 C   0  0  0  0  0  0  0  0  0  0  0  0
   36.4796   49.1637    2.0273 C   0  0  0  0  0  0  0  0  0  0  0  0
   35.9651   49.2763    0.7513 C   0  0  0  0  0  0  0  0  0  0  0  0
   35.2260   50.8162    0.5428 S   0  0  0  0  0  0  0  0  0  0  0  0
   35.6455   51.2380    2.1400 C   0  0  0  0  0  0  0  0  0  0  0  0
   36.3165   50.3236    2.8057 N   0  0  0  0  0  0  0  0  0  0  0  0
   35.3615   52.4709    2.6918 N   0  0  0  0  0  0  0  0  0  0  0  0
   34.4209   53.3819    2.2564 C   0  0  0  0  0  0  0  0  0  0  0  0
   33.6949   53.2701    1.2678 O   0  0  0  0  0  0  0  0  0  0  0  0
   34.3163   54.6158    3.1713 C   0  0  0  0  0  0  0  0  0  0  0  0
   32.8890   54.8119    3.6839 C   0  0  0  0  0  0  0  0  0  0  0  0
   34.7811   55.8632    2.4256 C   0  0  0  0  0  0  0  0  0  0  0  0
   43.5865   48.6384    6.7125 N   0  0  0  0  0  0  0  0  0  0  0  0
   44.8946   49.0297    7.2474 C   0  0  1  0  0  0  0  0  0  0  0  0
   45.4707   48.0601    8.2845 C   0  0  1  0  0  0  0  0  0  0  0  0
   46.0701   48.0973    6.9126 C   0  0  0  0  0  0  0  0  0  0  0  0
   46.2636   48.4746    9.4440 C   0  0  0  0  0  0  0  0  0  0  0  0
   45.8511   48.3867   10.7162 C   0  0  0  0  0  0  0  0  0  0  0  0
   45.2285   50.5138    7.2094 C   0  0  0  0  0  0  0  0  0  0  0  0
   44.3761   51.2943    6.6583 O   0  0  0  0  0  0  0  0  0  0  0  0
   46.3721   50.9123    7.6176 O   0  0  0  0  0  0  0  0  0  0  0  0
   40.9186   42.5677    7.5352 H   0  0  0  0  0  0  0  0  0  0  0  0
   38.7387   42.3043    6.3714 H   0  0  0  0  0  0  0  0  0  0  0  0
   38.3617   40.8664    7.3197 H   0  0  0  0  0  0  0  0  0  0  0  0
   40.4075   41.1601    5.1055 H   0  0  0  0  0  0  0  0  0  0  0  0
   39.3896   39.7666    5.4913 H   0  0  0  0  0  0  0  0  0  0  0  0
   42.1059   40.3936    6.3981 H   0  0  0  0  0  0  0  0  0  0  0  0
   41.1962   38.9089    6.7200 H   0  0  0  0  0  0  0  0  0  0  0  0
   40.2284   39.8155    8.7141 H   0  0  0  0  0  0  0  0  0  0  0  0
   41.8067   40.6008    8.7725 H   0  0  0  0  0  0  0  0  0  0  0  0
   41.1362   43.7996   10.1984 H   0  0  0  0  0  0  0  0  0  0  0  0
   39.2540   46.0656    9.8882 H   0  0  0  0  0  0  0  0  0  0  0  0
   40.5785   48.0906   12.6355 H   0  0  0  0  0  0  0  0  0  0  0  0
   39.2674   47.8984   11.4670 H   0  0  0  0  0  0  0  0  0  0  0  0
   40.8901   48.3507   10.9138 H   0  0  0  0  0  0  0  0  0  0  0  0
   42.4722   44.9925   11.7522 H   0  0  0  0  0  0  0  0  0  0  0  0
   42.3575   46.3493   12.8714 H   0  0  0  0  0  0  0  0  0  0  0  0
   42.8292   46.6439   11.2039 H   0  0  0  0  0  0  0  0  0  0  0  0
   38.7777   45.5580   12.3037 H   0  0  0  0  0  0  0  0  0  0  0  0
   40.0257   45.8409   13.5247 H   0  0  0  0  0  0  0  0  0  0  0  0
   40.1003   44.3958   12.5173 H   0  0  0  0  0  0  0  0  0  0  0  0
   41.6643   47.1197    6.2466 H   0  0  0  0  0  0  0  0  0  0  0  0
   40.4595   48.8328    5.0645 H   0  0  0  0  0  0  0  0  0  0  0  0
   40.1686   49.7716    6.5416 H   0  0  0  0  0  0  0  0  0  0  0  0
   38.0246   48.6223    6.3146 H   0  0  0  0  0  0  0  0  0  0  0  0
   38.4611   46.7703    8.1525 H   0  0  0  0  0  0  0  0  0  0  0  0
   38.9059   48.4594    8.5393 H   0  0  0  0  0  0  0  0  0  0  0  0
   37.5958   48.9021    4.3897 H   0  0  0  0  0  0  0  0  0  0  0  0
   39.4348   44.3303    4.9042 H   0  0  0  0  0  0  0  0  0  0  0  0
   39.4744   42.3649    3.4231 H   0  0  0  0  0  0  0  0  0  0  0  0
   37.4014   44.6078    0.4359 H   0  0  0  0  0  0  0  0  0  0  0  0
   38.7946   40.3909    0.3049 H   0  0  0  0  0  0  0  0  0  0  0  0
   38.4490   40.5590    2.0241 H   0  0  0  0  0  0  0  0  0  0  0  0
   40.0306   41.1029    1.3383 H   0  0  0  0  0  0  0  0  0  0  0  0
   35.9785   48.5482   -0.0462 H   0  0  0  0  0  0  0  0  0  0  0  0
   35.8210   52.6155    3.5812 H   0  0  0  0  0  0  0  0  0  0  0  0
   34.9654   54.4822    4.0447 H   0  0  0  0  0  0  0  0  0  0  0  0
   32.8258   55.7022    4.3215 H   0  0  0  0  0  0  0  0  0  0  0  0
   32.5670   53.9518    4.2795 H   0  0  0  0  0  0  0  0  0  0  0  0
   32.1736   54.9377    2.8639 H   0  0  0  0  0  0  0  0  0  0  0  0
   35.7983   55.7322    2.0443 H   0  0  0  0  0  0  0  0  0  0  0  0
   34.7778   56.7340    3.0911 H   0  0  0  0  0  0  0  0  0  0  0  0
   34.1295   56.0897    1.5742 H   0  0  0  0  0  0  0  0  0  0  0  0
   43.5672   48.3333    5.7506 H   0  0  0  0  0  0  0  0  0  0  0  0
   44.8534   47.1910    8.5035 H   0  0  0  0  0  0  0  0  0  0  0  0
   47.0534   48.5393    6.7844 H   0  0  0  0  0  0  0  0  0  0  0  0
   45.8918   47.2556    6.2561 H   0  0  0  0  0  0  0  0  0  0  0  0
   47.2588   48.8736    9.2528 H   0  0  0  0  0  0  0  0  0  0  0  0
   46.4843   48.7094   11.5330 H   0  0  0  0  0  0  0  0  0  0  0  0
   44.8571   48.0186   10.9465 H   0  0  0  0  0  0  0  0  0  0  0  0
  1  2  2  0  0  0  0
  1  3  1  0  0  0  0
  1  9  1  0  0  0  0
  3  4  1  0  0  0  0
  4  5  1  0  0  0  0
  4  8  1  0  0  0  0
  4 57  1  0  0  0  0
  5  6  1  0  0  0  0
  5 58  1  0  0  0  0
  5 59  1  0  0  0  0
  6  7  1  0  0  0  0
  6 60  1  0  0  0  0
  6 61  1  0  0  0  0
  7  8  1  0  0  0  0
  7 62  1  0  0  0  0
  7 63  1  0  0  0  0
  8 64  1  0  0  0  0
  8 65  1  0  0  0  0
  9 10  1  0  0  0  0
  9 66  1  0  0  0  0
 10 11  1  0  0  0  0
 10 15  1  0  0  0  0
 10 67  1  6  0  0  0
 11 12  1  0  0  0  0
 11 13  1  0  0  0  0
 11 14  1  0  0  0  0
 12 68  1  0  0  0  0
 12 69  1  0  0  0  0
 12 70  1  0  0  0  0
 13 71  1  0  0  0  0
 13 72  1  0  0  0  0
 13 73  1  0  0  0  0
 14 74  1  0  0  0  0
 14 75  1  0  0  0  0
 14 76  1  0  0  0  0
 15 16  2  0  0  0  0
 15 23  1  0  0  0  0
 17 18  2  0  0  0  0
 17 19  1  0  0  0  0
 17 48  1  0  0  0  0
 19 20  1  0  0  0  0
 19 23  1  0  0  0  0
 19 77  1  6  0  0  0
 20 21  1  0  0  0  0
 20 78  1  0  0  0  0
 20 79  1  0  0  0  0
 21 22  1  0  0  0  0
 21 24  1  0  0  0  0
 21 80  1  6  0  0  0
 22 23  1  0  0  0  0
 22 81  1  0  0  0  0
 22 82  1  0  0  0  0
 24 25  1  0  0  0  0
 25 26  2  0  0  0  0
 25 30  1  0  0  0  0
 26 27  1  0  0  0  0
 26 83  1  0  0  0  0
 27 28  2  0  0  0  0
 27 37  1  0  0  0  0
 28 29  1  0  0  0  0
 29 30  2  0  0  0  0
 29 34  1  0  0  0  0
 30 31  1  0  0  0  0
 31 32  2  0  0  0  0
 31 84  1  0  0  0  0
 32 33  1  0  0  0  0
 32 85  1  0  0  0  0
 33 34  2  0  0  0  0
 33 35  1  0  0  0  0
 34 86  1  0  0  0  0
 35 36  1  0  0  0  0
 36 87  1  0  0  0  0
 36 88  1  0  0  0  0
 36 89  1  0  0  0  0
 37 38  2  0  0  0  0
 37 41  1  0  0  0  0
 38 39  1  0  0  0  0
 38 90  1  0  0  0  0
 39 40  1  0  0  0  0
 40 41  2  0  0  0  0
 40 42  1  0  0  0  0
 42 43  1  0  0  0  0
 42 91  1  0  0  0  0
 43 44  2  0  0  0  0
 43 45  1  0  0  0  0
 45 46  1  0  0  0  0
 45 47  1  0  0  0  0
 45 92  1  0  0  0  0
 46 93  1  0  0  0  0
 46 94  1  0  0  0  0
 46 95  1  0  0  0  0
 47 96  1  0  0  0  0
 47 97  1  0  0  0  0
 47 98  1  0  0  0  0
 48 99  1  0  0  0  0
 49 48  1  6  0  0  0
 49 50  1  0  0  0  0
 49 51  1  0  0  0  0
 49 54  1  0  0  0  0
 50 51  1  0  0  0  0
 50 52  1  0  0  0  0
 50100  1  1  0  0  0
 51101  1  0  0  0  0
 51102  1  0  0  0  0
 52 53  2  0  0  0  0
 52103  1  0  0  0  0
 53104  1  0  0  0  0
 53105  1  0  0  0  0
 54 55  2  0  0  0  0
 54 56  1  0  0  0  0
M  END
$$$$
