L7A
 OpenBabel04091914513D

 35 37  0  0  0  0  0  0  0  0999 V2000
   34.3327   50.8009   14.6156 C   0  0  0  0  0  0  0  0  0  0  0  0
   43.1912   52.1672   13.3992 N   0  0  0  0  0  0  0  0  0  0  0  0
   36.0904   48.6115   10.5116 O   0  0  0  0  0  0  0  0  0  0  0  0
   34.1340   51.4938   15.8206 C   0  0  0  0  0  0  0  0  0  0  0  0
   35.8552   50.0447   12.8651 N   0  0  0  0  0  0  0  0  0  0  0  0
   36.5957   51.3750   14.6103 O   0  0  0  0  0  0  0  0  0  0  0  0
   32.8684   51.5511   16.4054 C   0  0  0  0  0  0  0  0  0  0  0  0
   38.3066   49.0801   10.3563 N   0  0  0  0  0  0  0  0  0  0  0  0
   31.7918   50.9180   15.7887 C   0  0  0  0  0  0  0  0  0  0  0  0
   31.9781   50.2298   14.5887 C   0  0  0  0  0  0  0  0  0  0  0  0
   33.2457   50.1690   14.0003 C   0  0  0  0  0  0  0  0  0  0  0  0
   35.7069   50.7649   14.0274 C   0  0  0  0  0  0  0  0  0  0  0  0
   39.4708   49.6475   10.7877 C   0  0  0  0  0  0  0  0  0  0  0  0
   39.5422   50.3636   11.9190 C   0  0  0  0  0  0  0  0  0  0  0  0
   38.3090   50.5882   12.7521 C   0  0  0  0  0  0  0  0  0  0  0  0
   37.0157   49.9522   12.2753 C   0  0  0  0  0  0  0  0  0  0  0  0
   37.0841   49.1529   10.9767 C   0  0  0  0  0  0  0  0  0  0  0  0
   41.9759   52.5869   13.7945 C   0  0  0  0  0  0  0  0  0  0  0  0
   43.2121   51.1519   12.5146 C   0  0  0  0  0  0  0  0  0  0  0  0
   42.0738   50.5405   12.0023 C   0  0  0  0  0  0  0  0  0  0  0  0
   40.8102   50.9891   12.4075 C   0  0  0  0  0  0  0  0  0  0  0  0
   40.7853   52.0402   13.3380 C   0  0  0  0  0  0  0  0  0  0  0  0
   34.9674   51.9932   16.3113 H   0  0  0  0  0  0  0  0  0  0  0  0
   32.7258   52.0888   17.3395 H   0  0  0  0  0  0  0  0  0  0  0  0
   38.3032   48.5454    9.4937 H   0  0  0  0  0  0  0  0  0  0  0  0
   30.8050   50.9617   16.2436 H   0  0  0  0  0  0  0  0  0  0  0  0
   31.1345   49.7391   14.1098 H   0  0  0  0  0  0  0  0  0  0  0  0
   33.3728   49.6284   13.0649 H   0  0  0  0  0  0  0  0  0  0  0  0
   40.3220   49.4743   10.1357 H   0  0  0  0  0  0  0  0  0  0  0  0
   38.1095   51.6649   12.7870 H   0  0  0  0  0  0  0  0  0  0  0  0
   38.5069   50.2027   13.7598 H   0  0  0  0  0  0  0  0  0  0  0  0
   41.9739   53.4005   14.5154 H   0  0  0  0  0  0  0  0  0  0  0  0
   44.2043   50.8223   12.2190 H   0  0  0  0  0  0  0  0  0  0  0  0
   42.2039   49.7154   11.3123 H   0  0  0  0  0  0  0  0  0  0  0  0
   39.8625   52.4566   13.7273 H   0  0  0  0  0  0  0  0  0  0  0  0
  1  4  2  0  0  0  0
  1 11  1  0  0  0  0
  1 12  1  0  0  0  0
  2 18  2  0  0  0  0
  2 19  1  0  0  0  0
  3 17  2  0  0  0  0
  4  7  1  0  0  0  0
  4 23  1  0  0  0  0
  5 12  1  0  0  0  0
  5 16  2  0  0  0  0
  6 12  2  0  0  0  0
  7  9  2  0  0  0  0
  7 24  1  0  0  0  0
  8 13  1  0  0  0  0
  8 17  1  0  0  0  0
  8 25  1  0  0  0  0
  9 10  1  0  0  0  0
  9 26  1  0  0  0  0
 10 11  2  0  0  0  0
 10 27  1  0  0  0  0
 11 28  1  0  0  0  0
 13 14  2  0  0  0  0
 13 29  1  0  0  0  0
 14 15  1  0  0  0  0
 14 21  1  0  0  0  0
 15 16  1  0  0  0  0
 15 30  1  0  0  0  0
 15 31  1  0  0  0  0
 16 17  1  0  0  0  0
 18 22  1  0  0  0  0
 18 32  1  0  0  0  0
 19 20  2  0  0  0  0
 19 33  1  0  0  0  0
 20 21  1  0  0  0  0
 20 34  1  0  0  0  0
 21 22  2  0  0  0  0
 22 35  1  0  0  0  0
M  END
$$$$
