L7O
 OpenBabel04091914513D

 54 57  0  0  1  0  0  0  0  0999 V2000
   28.9289   50.9012   14.3353 C   0  0  0  0  0  0  0  0  0  0  0  0
   29.7461   50.1555   15.3143 N   0  0  0  0  0  0  0  0  0  0  0  0
   36.2442   48.6978   10.4409 O   0  0  0  0  0  0  0  0  0  0  0  0
   27.5079   51.0507   14.8817 C   0  0  0  0  0  0  0  0  0  0  0  0
   35.7530   50.2207   12.6889 N   0  0  0  0  0  0  0  0  0  0  0  0
   36.0732   51.0530   14.8039 O   0  0  0  0  0  0  0  0  0  0  0  0
   26.8938   49.6951   15.2260 C   0  0  0  0  0  0  0  0  0  0  0  0
   38.5002   49.0614   10.4541 N   0  0  0  0  0  0  0  0  0  0  0  0
   27.8241   48.8678   16.1145 C   0  0  0  0  0  0  0  0  0  0  0  0
   44.1410   50.7066   12.5491 N   0  0  0  0  0  0  0  0  0  0  0  0
   29.2379   48.7884   15.5335 C   0  0  0  0  0  0  0  0  0  0  0  0
   42.9497   52.2821   13.7462 N   0  0  0  0  0  0  0  0  0  0  0  0
   32.9897   49.6619   13.5065 C   0  0  0  0  0  0  0  0  0  0  0  0
   41.8013   50.7819   12.3215 N   0  0  0  0  0  0  0  0  0  0  0  0
   35.3141   50.6071   13.9478 C   0  0  0  0  0  0  0  0  0  0  0  0
   39.4718   49.7219   11.0006 C   0  0  0  0  0  0  0  0  0  0  0  0
   39.4055   50.6415   12.1727 C   0  0  0  0  0  0  0  0  0  0  0  0
   38.1945   50.7035   12.7591 C   0  0  0  0  0  0  0  0  0  0  0  0
   37.1096   49.7229   12.4418 C   0  0  2  0  0  0  0  0  0  0  0  0
   37.2408   49.1513   11.0047 C   0  0  0  0  0  0  0  0  0  0  0  0
   41.7645   52.7927   14.1047 C   0  0  0  0  0  0  0  0  0  0  0  0
   42.9373   51.2706   12.8627 C   0  0  0  0  0  0  0  0  0  0  0  0
   40.6215   51.3041   12.7108 C   0  0  0  0  0  0  0  0  0  0  0  0
   40.5613   52.3358   13.6220 C   0  0  0  0  0  0  0  0  0  0  0  0
   33.8565   50.4503   14.2739 C   0  0  0  0  0  0  0  0  0  0  0  0
   33.3468   51.0749   15.4209 C   0  0  0  0  0  0  0  0  0  0  0  0
   31.9911   50.9513   15.7654 C   0  0  0  0  0  0  0  0  0  0  0  0
   31.1151   50.1964   14.9762 C   0  0  0  0  0  0  0  0  0  0  0  0
   31.6378   49.5429   13.8560 C   0  0  0  0  0  0  0  0  0  0  0  0
   44.2253   49.8118   11.4286 C   0  0  0  0  0  0  0  0  0  0  0  0
   28.8979   50.3778   13.3696 H   0  0  0  0  0  0  0  0  0  0  0  0
   29.3468   51.9002   14.1612 H   0  0  0  0  0  0  0  0  0  0  0  0
   26.8800   51.5678   14.1459 H   0  0  0  0  0  0  0  0  0  0  0  0
   27.5294   51.6746   15.7823 H   0  0  0  0  0  0  0  0  0  0  0  0
   35.0789   49.7617   12.0880 H   0  0  0  0  0  0  0  0  0  0  0  0
   26.6844   49.1427   14.3019 H   0  0  0  0  0  0  0  0  0  0  0  0
   25.9325   49.8425   15.7335 H   0  0  0  0  0  0  0  0  0  0  0  0
   27.4155   47.8578   16.2347 H   0  0  0  0  0  0  0  0  0  0  0  0
   27.8647   49.3209   17.1125 H   0  0  0  0  0  0  0  0  0  0  0  0
   44.9486   51.2003   12.8978 H   0  0  0  0  0  0  0  0  0  0  0  0
   29.8813   48.2485   16.2387 H   0  0  0  0  0  0  0  0  0  0  0  0
   29.2120   48.2189   14.5958 H   0  0  0  0  0  0  0  0  0  0  0  0
   33.3224   49.1111   12.6373 H   0  0  0  0  0  0  0  0  0  0  0  0
   40.4667   49.6186   10.5353 H   0  0  0  0  0  0  0  0  0  0  0  0
   38.0346   51.3332   13.6238 H   0  0  0  0  0  0  0  0  0  0  0  0
   37.2309   48.8725   13.1208 H   0  0  0  0  0  0  0  0  0  0  0  0
   41.8019   53.5994   14.8247 H   0  0  0  0  0  0  0  0  0  0  0  0
   39.6327   52.7716   13.9752 H   0  0  0  0  0  0  0  0  0  0  0  0
   34.0011   51.6689   16.0615 H   0  0  0  0  0  0  0  0  0  0  0  0
   31.6140   51.4508   16.6558 H   0  0  0  0  0  0  0  0  0  0  0  0
   30.9931   48.9346   13.2290 H   0  0  0  0  0  0  0  0  0  0  0  0
   45.2659   49.5260   11.2496 H   0  0  0  0  0  0  0  0  0  0  0  0
   43.8413   50.2638   10.5078 H   0  0  0  0  0  0  0  0  0  0  0  0
   43.6628   48.8946   11.6367 H   0  0  0  0  0  0  0  0  0  0  0  0
  1  2  1  0  0  0  0
  1  4  1  0  0  0  0
  1 31  1  0  0  0  0
  1 32  1  0  0  0  0
  2 11  1  0  0  0  0
  2 28  1  0  0  0  0
  3 20  2  0  0  0  0
  4  7  1  0  0  0  0
  4 33  1  0  0  0  0
  4 34  1  0  0  0  0
  5 15  1  0  0  0  0
  5 19  1  0  0  0  0
  5 35  1  0  0  0  0
  6 15  2  0  0  0  0
  7  9  1  0  0  0  0
  7 36  1  0  0  0  0
  7 37  1  0  0  0  0
  8 16  2  0  0  0  0
  8 20  1  0  0  0  0
  9 11  1  0  0  0  0
  9 38  1  0  0  0  0
  9 39  1  0  0  0  0
 10 22  1  0  0  0  0
 10 30  1  0  0  0  0
 10 40  1  0  0  0  0
 11 41  1  0  0  0  0
 11 42  1  0  0  0  0
 12 21  2  0  0  0  0
 12 22  1  0  0  0  0
 13 25  2  0  0  0  0
 13 29  1  0  0  0  0
 13 43  1  0  0  0  0
 14 22  2  0  0  0  0
 14 23  1  0  0  0  0
 15 25  1  0  0  0  0
 16 17  1  0  0  0  0
 16 44  1  0  0  0  0
 17 18  2  0  0  0  0
 17 23  1  0  0  0  0
 18 19  1  0  0  0  0
 18 45  1  0  0  0  0
 19 20  1  0  0  0  0
 19 46  1  1  0  0  0
 21 24  1  0  0  0  0
 21 47  1  0  0  0  0
 23 24  2  0  0  0  0
 24 48  1  0  0  0  0
 25 26  1  0  0  0  0
 26 27  2  0  0  0  0
 26 49  1  0  0  0  0
 27 28  1  0  0  0  0
 27 50  1  0  0  0  0
 28 29  2  0  0  0  0
 29 51  1  0  0  0  0
 30 52  1  0  0  0  0
 30 53  1  0  0  0  0
 30 54  1  0  0  0  0
M  END
$$$$
