LB2
 OpenBabel04091912233D

 45 46  0  0  1  0  0  0  0  0999 V2000
    5.5992    2.2973   42.6655 O   0  0  0  0  0  0  0  0  0  0  0  0
    4.7658    2.2561   41.5192 C   0  0  1  0  0  0  0  0  0  0  0  0
    5.5258    1.6150   40.3335 C   0  0  2  0  0  0  0  0  0  0  0  0
    6.7029    2.3991   40.0716 O   0  0  0  0  0  0  0  0  0  0  0  0
    3.5866    1.5330   41.8266 O   0  0  0  0  0  0  0  0  0  0  0  0
    2.6524    1.4946   40.7453 C   0  0  2  0  0  0  0  0  0  0  0  0
    1.4160    0.6967   41.1759 C   0  0  0  0  0  0  0  0  0  0  0  0
    1.7720   -0.6226   41.5845 O   0  0  0  0  0  0  0  0  0  0  0  0
    3.2708    0.8914   39.4758 C   0  0  1  0  0  0  0  0  0  0  0  0
    2.3402    1.0067   38.3872 O   0  0  0  0  0  0  0  0  0  0  0  0
    4.6014    1.5732   39.1064 C   0  0  2  0  0  0  0  0  0  0  0  0
    5.1314    0.8006   38.0163 O   0  0  0  0  0  0  0  0  0  0  0  0
    5.8210    1.4938   36.9731 C   0  0  1  0  0  0  0  0  0  0  0  0
    6.0137    0.4880   35.7949 C   0  0  2  0  0  0  0  0  0  0  0  0
    7.4181    0.2363   35.5781 O   0  0  0  0  0  0  0  0  0  0  0  0
    5.3474    0.9391   34.4912 C   0  0  1  0  0  0  0  0  0  0  0  0
    5.1300   -0.1741   33.6116 O   0  0  0  0  0  0  0  0  0  0  0  0
    4.0129    1.6060   34.8133 C   0  0  2  0  0  0  0  0  0  0  0  0
    3.3283    1.8872   33.5843 O   0  0  0  0  0  0  0  0  0  0  0  0
    5.2351    2.7542   36.6621 O   0  0  0  0  0  0  0  0  0  0  0  0
    4.3478    2.8970   35.5556 C   0  0  2  0  0  0  0  0  0  0  0  0
    3.1126    3.7110   35.9786 C   0  0  0  0  0  0  0  0  0  0  0  0
    2.1993    2.9673   36.7788 O   0  0  0  0  0  0  0  0  0  0  0  0
    6.4484    2.6537   42.3551 H   0  0  0  0  0  0  0  0  0  0  0  0
    4.5054    3.2991   41.2914 H   0  0  0  0  0  0  0  0  0  0  0  0
    5.8651    0.6076   40.6032 H   0  0  0  0  0  0  0  0  0  0  0  0
    7.2485    1.8740   39.4586 H   0  0  0  0  0  0  0  0  0  0  0  0
    2.3222    2.5260   40.5353 H   0  0  0  0  0  0  0  0  0  0  0  0
    0.6955    0.6118   40.3571 H   0  0  0  0  0  0  0  0  0  0  0  0
    0.9277    1.1919   42.0217 H   0  0  0  0  0  0  0  0  0  0  0  0
    0.9838   -1.0163   41.9975 H   0  0  0  0  0  0  0  0  0  0  0  0
    3.4553   -0.1809   39.6142 H   0  0  0  0  0  0  0  0  0  0  0  0
    2.3364    1.9492   38.1057 H   0  0  0  0  0  0  0  0  0  0  0  0
    4.3973    2.5965   38.7739 H   0  0  0  0  0  0  0  0  0  0  0  0
    6.8127    1.7308   37.3708 H   0  0  0  0  0  0  0  0  0  0  0  0
    5.6050   -0.4897   36.0808 H   0  0  0  0  0  0  0  0  0  0  0  0
    7.8146    1.0252   35.1752 H   0  0  0  0  0  0  0  0  0  0  0  0
    6.0022    1.6231   33.9375 H   0  0  0  0  0  0  0  0  0  0  0  0
    4.5788    0.1757   32.8812 H   0  0  0  0  0  0  0  0  0  0  0  0
    3.3896    0.9203   35.3993 H   0  0  0  0  0  0  0  0  0  0  0  0
    2.3918    2.0523   33.7880 H   0  0  0  0  0  0  0  0  0  0  0  0
    4.8826    3.5524   34.8546 H   0  0  0  0  0  0  0  0  0  0  0  0
    2.5703    4.0874   35.1055 H   0  0  0  0  0  0  0  0  0  0  0  0
    3.4254    4.5708   36.5795 H   0  0  0  0  0  0  0  0  0  0  0  0
    1.7691    2.2970   36.2140 H   0  0  0  0  0  0  0  0  0  0  0  0
  1  2  1  0  0  0  0
  1 24  1  0  0  0  0
  2  3  1  0  0  0  0
  2  5  1  0  0  0  0
  2 25  1  6  0  0  0
  3  4  1  0  0  0  0
  3 11  1  0  0  0  0
  3 26  1  1  0  0  0
  4 27  1  0  0  0  0
  5  6  1  0  0  0  0
  6  7  1  0  0  0  0
  6  9  1  0  0  0  0
  6 28  1  6  0  0  0
  7  8  1  0  0  0  0
  7 29  1  0  0  0  0
  7 30  1  0  0  0  0
  8 31  1  0  0  0  0
  9 10  1  0  0  0  0
  9 11  1  0  0  0  0
  9 32  1  1  0  0  0
 10 33  1  0  0  0  0
 11 12  1  0  0  0  0
 11 34  1  6  0  0  0
 12 13  1  0  0  0  0
 13 14  1  0  0  0  0
 13 20  1  0  0  0  0
 13 35  1  1  0  0  0
 14 15  1  0  0  0  0
 14 16  1  0  0  0  0
 14 36  1  1  0  0  0
 15 37  1  0  0  0  0
 16 17  1  0  0  0  0
 16 18  1  0  0  0  0
 16 38  1  6  0  0  0
 17 39  1  0  0  0  0
 18 19  1  0  0  0  0
 18 21  1  0  0  0  0
 18 40  1  1  0  0  0
 19 41  1  0  0  0  0
 20 21  1  0  0  0  0
 21 22  1  0  0  0  0
 21 42  1  6  0  0  0
 22 23  1  0  0  0  0
 22 43  1  0  0  0  0
 22 44  1  0  0  0  0
 23 45  1  0  0  0  0
M  END
$$$$
