LBT
 OpenBabel04091910533D

 45 46  0  0  1  0  0  0  0  0999 V2000
   23.4471   29.7308   23.3643 C   0  0  2  0  0  0  0  0  0  0  0  0
   22.9120   30.9259   24.1851 C   0  0  1  0  0  0  0  0  0  0  0  0
   21.4120   31.1312   23.9198 C   0  0  2  0  0  0  0  0  0  0  0  0
   21.1029   31.1495   22.4136 C   0  0  2  0  0  0  0  0  0  0  0  0
   21.7049   29.8972   21.7522 C   0  0  1  0  0  0  0  0  0  0  0  0
   21.4763   29.9033   20.2379 C   0  0  0  0  0  0  0  0  0  0  0  0
   24.8734   29.6516   23.5545 O   0  0  0  0  0  0  0  0  0  0  0  0
   23.1059   30.6446   25.5847 O   0  0  0  0  0  0  0  0  0  0  0  0
   20.9642   32.3432   24.5491 O   0  0  0  0  0  0  0  0  0  0  0  0
   21.6510   32.3434   21.8404 O   0  0  0  0  0  0  0  0  0  0  0  0
   23.1304   29.8260   21.9753 O   0  0  0  0  0  0  0  0  0  0  0  0
   21.9621   28.6914   19.6666 O   0  0  0  0  0  0  0  0  0  0  0  0
   27.6501   26.6156   22.4979 C   0  0  1  0  0  0  0  0  0  0  0  0
   27.3735   27.7184   21.4805 C   0  0  1  0  0  0  0  0  0  0  0  0
   26.7238   28.9435   22.1359 C   0  0  2  0  0  0  0  0  0  0  0  0
   25.4833   28.5031   22.9410 C   0  0  1  0  0  0  0  0  0  0  0  0
   25.9491   27.4709   23.9912 C   0  0  1  0  0  0  0  0  0  0  0  0
   24.8017   26.9425   24.8672 C   0  0  0  0  0  0  0  0  0  0  0  0
   28.8205   26.9122   23.2530 O   0  0  0  0  0  0  0  0  0  0  0  0
   28.5760   28.1029   20.7963 O   0  0  0  0  0  0  0  0  0  0  0  0
   26.3974   29.8616   21.0802 O   0  0  0  0  0  0  0  0  0  0  0  0
   26.5398   26.3337   23.3406 O   0  0  0  0  0  0  0  0  0  0  0  0
   23.7888   26.2481   24.1305 O   0  0  0  0  0  0  0  0  0  0  0  0
   23.0038   28.8134   23.7680 H   0  0  0  0  0  0  0  0  0  0  0  0
   23.4654   31.8418   23.9570 H   0  0  0  0  0  0  0  0  0  0  0  0
   20.8512   30.3202   24.3966 H   0  0  0  0  0  0  0  0  0  0  0  0
   20.0201   31.1909   22.2651 H   0  0  0  0  0  0  0  0  0  0  0  0
   21.2544   28.9877   22.1728 H   0  0  0  0  0  0  0  0  0  0  0  0
   22.0112   30.7254   19.7506 H   0  0  0  0  0  0  0  0  0  0  0  0
   20.4110   29.9862   20.0036 H   0  0  0  0  0  0  0  0  0  0  0  0
   24.0720   30.6558   25.7250 H   0  0  0  0  0  0  0  0  0  0  0  0
   20.0597   32.5312   24.2491 H   0  0  0  0  0  0  0  0  0  0  0  0
   21.3149   32.4496   20.9358 H   0  0  0  0  0  0  0  0  0  0  0  0
   22.9241   28.6958   19.8173 H   0  0  0  0  0  0  0  0  0  0  0  0
   27.8643   25.6876   21.9585 H   0  0  0  0  0  0  0  0  0  0  0  0
   26.6887   27.3325   20.7187 H   0  0  0  0  0  0  0  0  0  0  0  0
   27.4369   29.4743   22.7799 H   0  0  0  0  0  0  0  0  0  0  0  0
   24.7893   28.0323   22.2372 H   0  0  0  0  0  0  0  0  0  0  0  0
   26.6873   27.9324   24.6642 H   0  0  0  0  0  0  0  0  0  0  0  0
   24.3186   27.7494   25.4299 H   0  0  0  0  0  0  0  0  0  0  0  0
   25.1965   26.2254   25.5958 H   0  0  0  0  0  0  0  0  0  0  0  0
   29.5361   26.9651   22.5848 H   0  0  0  0  0  0  0  0  0  0  0  0
   28.3708   28.9624   20.3720 H   0  0  0  0  0  0  0  0  0  0  0  0
   25.5698   29.5640   20.6611 H   0  0  0  0  0  0  0  0  0  0  0  0
   23.5199   26.7639   23.3636 H   0  0  0  0  0  0  0  0  0  0  0  0
  1  2  1  0  0  0  0
  1  7  1  0  0  0  0
  1 11  1  0  0  0  0
  1 24  1  1  0  0  0
  2  3  1  0  0  0  0
  2  8  1  0  0  0  0
  2 25  1  6  0  0  0
  3  4  1  0  0  0  0
  3  9  1  0  0  0  0
  3 26  1  1  0  0  0
  4  5  1  0  0  0  0
  4 10  1  0  0  0  0
  4 27  1  6  0  0  0
  5  6  1  0  0  0  0
  5 11  1  0  0  0  0
  5 28  1  1  0  0  0
  6 12  1  0  0  0  0
  6 29  1  0  0  0  0
  6 30  1  0  0  0  0
  7 16  1  0  0  0  0
  8 31  1  0  0  0  0
  9 32  1  0  0  0  0
 10 33  1  0  0  0  0
 12 34  1  0  0  0  0
 13 14  1  0  0  0  0
 13 19  1  0  0  0  0
 13 22  1  0  0  0  0
 13 35  1  6  0  0  0
 14 15  1  0  0  0  0
 14 20  1  0  0  0  0
 14 36  1  6  0  0  0
 15 16  1  0  0  0  0
 15 21  1  0  0  0  0
 15 37  1  1  0  0  0
 16 17  1  0  0  0  0
 16 38  1  6  0  0  0
 17 18  1  0  0  0  0
 17 22  1  0  0  0  0
 17 39  1  1  0  0  0
 18 23  1  0  0  0  0
 18 40  1  0  0  0  0
 18 41  1  0  0  0  0
 19 42  1  0  0  0  0
 20 43  1  0  0  0  0
 21 44  1  0  0  0  0
 23 45  1  0  0  0  0
M  END
$$$$
