LC1
 OpenBabel04091912303D

 26 28  0  0  0  0  0  0  0  0999 V2000
   -6.7780    7.6180   12.1810 C   0  0  0  0  0  0  0  0  0  0  0  0
   -6.6732    9.0362   11.2276 S   0  0  0  0  0  0  0  0  0  0  0  0
   -4.9609    8.9179   11.2855 C   0  0  0  0  0  0  0  0  0  0  0  0
   -4.4631    7.8851   11.9327 N   0  0  0  0  0  0  0  0  0  0  0  0
   -5.5089    7.1492   12.4639 C   0  0  0  0  0  0  0  0  0  0  0  0
   -5.2931    5.9346   13.2739 C   0  0  0  0  0  0  0  0  0  0  0  0
   -4.0791    5.3249   13.4230 N   0  3  0  0  0  0  0  0  0  0  0  0
   -4.2559    4.2121   14.2065 C   0  0  0  0  0  0  0  0  0  0  0  0
   -3.3828    3.2232   14.6516 C   0  0  0  0  0  0  0  0  0  0  0  0
   -3.9236    2.2390   15.4969 C   0  0  0  0  0  0  0  0  0  0  0  0
   -5.2805    2.2692   15.8457 C   0  0  0  0  0  0  0  0  0  0  0  0
   -5.9594    1.0225   16.9093 S   0  0  0  0  0  0  0  0  0  0  0  0
   -7.3977    1.0254   16.7719 O   0  0  0  0  0  0  0  0  0  0  0  0
   -5.3082    1.1393   18.1944 O   0  0  0  0  0  0  0  0  0  0  0  0
   -5.4453   -0.3925   16.2140 N   0  0  0  0  0  0  0  0  0  0  0  0
   -6.1442    3.2611   15.3737 C   0  0  0  0  0  0  0  0  0  0  0  0
   -5.6099    4.2430   14.5294 C   0  0  0  0  0  0  0  0  0  0  0  0
   -6.2411    5.2942   13.9271 N   0  0  0  0  0  0  0  0  0  0  0  0
   -7.7241    7.1831   12.4765 H   0  0  0  0  0  0  0  0  0  0  0  0
   -4.3355    9.6569   10.8009 H   0  0  0  0  0  0  0  0  0  0  0  0
   -3.2234    5.6450   12.9946 H   0  0  0  0  0  0  0  0  0  0  0  0
   -2.3314    3.2192   14.3752 H   0  0  0  0  0  0  0  0  0  0  0  0
   -3.2698    1.4659   15.8828 H   0  0  0  0  0  0  0  0  0  0  0  0
   -5.6504   -1.2431   16.7283 H   0  0  0  0  0  0  0  0  0  0  0  0
   -4.8206   -0.3889   15.4177 H   0  0  0  0  0  0  0  0  0  0  0  0
   -7.1955    3.2931   15.6435 H   0  0  0  0  0  0  0  0  0  0  0  0
  1  2  1  0  0  0  0
  1  5  2  0  0  0  0
  1 19  1  0  0  0  0
  2  3  1  0  0  0  0
  3  4  2  0  0  0  0
  3 20  1  0  0  0  0
  4  5  1  0  0  0  0
  5  6  1  0  0  0  0
  6  7  2  0  0  0  0
  6 18  1  0  0  0  0
  7  8  1  0  0  0  0
  7 21  1  0  0  0  0
  8  9  2  0  0  0  0
  8 17  1  0  0  0  0
  9 10  1  0  0  0  0
  9 22  1  0  0  0  0
 10 11  2  0  0  0  0
 10 23  1  0  0  0  0
 11 12  1  0  0  0  0
 11 16  1  0  0  0  0
 12 13  2  0  0  0  0
 12 14  2  0  0  0  0
 12 15  1  0  0  0  0
 15 24  1  0  0  0  0
 15 25  1  0  0  0  0
 16 17  2  0  0  0  0
 16 26  1  0  0  0  0
 17 18  1  0  0  0  0
M  CHG  1   7   1
M  END
$$$$
