LEU
 OpenBabel04091912213D

 22 21  0  0  1  0  0  0  0  0999 V2000
   25.0950   32.3651   18.9451 N   0  3  0  0  0  0  0  0  0  0  0  0
   26.4365   31.6615   18.8885 C   0  0  2  0  0  0  0  0  0  0  0  0
   26.3193   30.3412   18.0678 C   0  0  0  0  0  0  0  0  0  0  0  0
   27.3532   29.6542   17.9390 O   0  0  0  0  0  0  0  0  0  0  0  0
   26.9057   31.3322   20.3056 C   0  0  0  0  0  0  0  0  0  0  0  0
   26.9618   32.5165   21.2888 C   0  0  0  0  0  0  0  0  0  0  0  0
   27.4105   32.0186   22.6653 C   0  0  0  0  0  0  0  0  0  0  0  0
   27.8952   33.6236   20.7999 C   0  0  0  0  0  0  0  0  0  0  0  0
   25.1304   30.1951   17.6389 O   0  0  0  0  0  0  0  0  0  0  0  0
   25.0720   33.2683   19.4111 H   0  0  0  0  0  0  0  0  0  0  0  0
   24.7768   32.4200   17.9650 H   0  0  0  0  0  0  0  0  0  0  0  0
   27.1143   32.3423   18.3649 H   0  0  0  0  0  0  0  0  0  0  0  0
   27.9041   30.8780   20.2464 H   0  0  0  0  0  0  0  0  0  0  0  0
   26.2512   30.5566   20.7268 H   0  0  0  0  0  0  0  0  0  0  0  0
   25.9572   32.9391   21.4091 H   0  0  0  0  0  0  0  0  0  0  0  0
   27.4574   32.8437   23.3834 H   0  0  0  0  0  0  0  0  0  0  0  0
   28.4011   31.5537   22.6164 H   0  0  0  0  0  0  0  0  0  0  0  0
   26.7069   31.2745   23.0561 H   0  0  0  0  0  0  0  0  0  0  0  0
   27.5788   34.0173   19.8294 H   0  0  0  0  0  0  0  0  0  0  0  0
   28.9231   33.2593   20.7007 H   0  0  0  0  0  0  0  0  0  0  0  0
   27.8984   34.4636   21.5025 H   0  0  0  0  0  0  0  0  0  0  0  0
   24.4274   31.6865   19.3370 H   0  0  0  0  0  0  0  0  0  0  0  0
  1  2  1  0  0  0  0
  1 10  1  0  0  0  0
  1 11  1  0  0  0  0
  1 22  1  0  0  0  0
  2  3  1  0  0  0  0
  2  5  1  0  0  0  0
  2 12  1  6  0  0  0
  3  4  2  0  0  0  0
  3  9  1  0  0  0  0
  5  6  1  0  0  0  0
  5 13  1  0  0  0  0
  5 14  1  0  0  0  0
  6  7  1  0  0  0  0
  6  8  1  0  0  0  0
  6 15  1  0  0  0  0
  7 16  1  0  0  0  0
  7 17  1  0  0  0  0
  7 18  1  0  0  0  0
  8 19  1  0  0  0  0
  8 20  1  0  0  0  0
  8 21  1  0  0  0  0
M  CHG  1   1   1
M  END
$$$$
