LEU
 OpenBabel04091912383D

 60 59  0  0  1  0  0  0  0  0999 V2000
   20.8827   -4.1295  -16.3537 N   0  3  0  0  0  0  0  0  0  0  0  0
   21.1314   -4.8832  -15.0798 C   0  0  2  0  0  0  0  0  0  0  0  0
   22.2765   -5.8710  -15.3389 C   0  0  0  0  0  0  0  0  0  0  0  0
   22.6581   -6.0504  -16.4936 O   0  0  0  0  0  0  0  0  0  0  0  0
   19.8357   -5.5454  -14.6071 C   0  0  0  0  0  0  0  0  0  0  0  0
   18.6952   -4.5549  -14.2755 C   0  0  0  0  0  0  0  0  0  0  0  0
   17.4097   -5.3179  -13.9488 C   0  0  0  0  0  0  0  0  0  0  0  0
   19.0552   -3.6302  -13.1097 C   0  0  0  0  0  0  0  0  0  0  0  0
   22.9019   -6.3543  -14.2197 N   0  0  0  0  0  0  0  0  0  0  0  0
   23.9074   -7.4193  -14.3355 C   0  0  2  0  0  0  0  0  0  0  0  0
   23.1587   -8.7519  -14.5165 C   0  0  0  0  0  0  0  0  0  0  0  0
   22.0549   -8.9017  -13.9914 O   0  0  0  0  0  0  0  0  0  0  0  0
   24.7172   -7.4470  -13.0288 C   0  0  0  0  0  0  0  0  0  0  0  0
   25.8102   -8.5228  -12.9220 C   0  0  0  0  0  0  0  0  0  0  0  0
   26.8819   -8.3598  -13.9971 C   0  0  0  0  0  0  0  0  0  0  0  0
   26.4476   -8.4656  -11.5316 C   0  0  0  0  0  0  0  0  0  0  0  0
   23.9137   -9.7135  -15.1631 N   0  0  0  0  0  0  0  0  0  0  0  0
   23.3682  -11.0206  -15.6212 C   0  0  2  0  0  0  0  0  0  0  0  0
   22.5714  -10.9036  -16.9661 C   0  0  0  0  0  0  0  0  0  0  0  0
   22.8453  -11.7924  -17.8200 O   0  0  0  0  0  0  0  0  0  0  0  0
   22.7240  -11.7773  -14.4533 C   0  0  0  0  0  0  0  0  0  0  0  0
   22.2185  -13.1954  -14.7604 C   0  0  0  0  0  0  0  0  0  0  0  0
   22.1397  -13.9915  -13.4516 C   0  0  0  0  0  0  0  0  0  0  0  0
   20.8255  -13.1677  -15.3946 C   0  0  0  0  0  0  0  0  0  0  0  0
   21.8287   -9.8783  -17.0799 O   0  0  0  0  0  0  0  0  0  0  0  0
   20.1894   -3.3826  -16.2890 H   0  0  0  0  0  0  0  0  0  0  0  0
   21.7784   -3.7513  -16.6962 H   0  0  0  0  0  0  0  0  0  0  0  0
   21.4988   -4.1430  -14.3629 H   0  0  0  0  0  0  0  0  0  0  0  0
   20.0419   -6.1594  -13.7205 H   0  0  0  0  0  0  0  0  0  0  0  0
   19.4896   -6.2471  -15.3784 H   0  0  0  0  0  0  0  0  0  0  0  0
   18.4834   -3.9337  -15.1533 H   0  0  0  0  0  0  0  0  0  0  0  0
   16.5928   -4.6239  -13.7221 H   0  0  0  0  0  0  0  0  0  0  0  0
   17.5453   -5.9762  -13.0844 H   0  0  0  0  0  0  0  0  0  0  0  0
   17.0964   -5.9318  -14.7998 H   0  0  0  0  0  0  0  0  0  0  0  0
   19.9390   -3.0252  -13.3296 H   0  0  0  0  0  0  0  0  0  0  0  0
   19.2537   -4.2035  -12.1979 H   0  0  0  0  0  0  0  0  0  0  0  0
   18.2363   -2.9337  -12.8998 H   0  0  0  0  0  0  0  0  0  0  0  0
   22.3649   -6.3984  -13.3588 H   0  0  0  0  0  0  0  0  0  0  0  0
   24.5332   -7.2122  -15.2093 H   0  0  0  0  0  0  0  0  0  0  0  0
   24.0190   -7.5873  -12.1901 H   0  0  0  0  0  0  0  0  0  0  0  0
   25.1672   -6.4570  -12.8765 H   0  0  0  0  0  0  0  0  0  0  0  0
   25.3591   -9.5167  -13.0202 H   0  0  0  0  0  0  0  0  0  0  0  0
   27.6551   -9.1267  -13.8916 H   0  0  0  0  0  0  0  0  0  0  0  0
   27.3625   -7.3782  -13.9278 H   0  0  0  0  0  0  0  0  0  0  0  0
   26.4670   -8.4553  -15.0038 H   0  0  0  0  0  0  0  0  0  0  0  0
   25.6903   -8.6026  -10.7517 H   0  0  0  0  0  0  0  0  0  0  0  0
   26.9399   -7.5026  -11.3608 H   0  0  0  0  0  0  0  0  0  0  0  0
   27.1940   -9.2575  -11.4143 H   0  0  0  0  0  0  0  0  0  0  0  0
   24.6152   -9.3620  -15.8001 H   0  0  0  0  0  0  0  0  0  0  0  0
   24.2785  -11.5801  -15.8841 H   0  0  0  0  0  0  0  0  0  0  0  0
   21.8903  -11.2089  -14.0323 H   0  0  0  0  0  0  0  0  0  0  0  0
   23.4781  -11.8326  -13.6542 H   0  0  0  0  0  0  0  0  0  0  0  0
   22.9188  -13.7052  -15.4323 H   0  0  0  0  0  0  0  0  0  0  0  0
   21.7492  -14.9987  -13.6284 H   0  0  0  0  0  0  0  0  0  0  0  0
   21.4835  -13.4952  -12.7273 H   0  0  0  0  0  0  0  0  0  0  0  0
   23.1296  -14.0916  -12.9941 H   0  0  0  0  0  0  0  0  0  0  0  0
   20.8113  -12.6353  -16.3465 H   0  0  0  0  0  0  0  0  0  0  0  0
   20.1030  -12.6760  -14.7330 H   0  0  0  0  0  0  0  0  0  0  0  0
   20.4688  -14.1836  -15.5877 H   0  0  0  0  0  0  0  0  0  0  0  0
   20.6147   -4.8115  -17.0736 H   0  0  0  0  0  0  0  0  0  0  0  0
  1  2  1  0  0  0  0
  1 26  1  0  0  0  0
  1 27  1  0  0  0  0
  1 60  1  0  0  0  0
  2  3  1  0  0  0  0
  2  5  1  0  0  0  0
  2 28  1  1  0  0  0
  3  4  2  0  0  0  0
  3  9  1  0  0  0  0
  5  6  1  0  0  0  0
  5 29  1  0  0  0  0
  5 30  1  0  0  0  0
  6  7  1  0  0  0  0
  6  8  1  0  0  0  0
  6 31  1  0  0  0  0
  7 32  1  0  0  0  0
  7 33  1  0  0  0  0
  7 34  1  0  0  0  0
  8 35  1  0  0  0  0
  8 36  1  0  0  0  0
  8 37  1  0  0  0  0
  9 10  1  0  0  0  0
  9 38  1  0  0  0  0
 10 11  1  0  0  0  0
 10 13  1  0  0  0  0
 10 39  1  6  0  0  0
 11 12  2  0  0  0  0
 11 17  1  0  0  0  0
 13 14  1  0  0  0  0
 13 40  1  0  0  0  0
 13 41  1  0  0  0  0
 14 15  1  0  0  0  0
 14 16  1  0  0  0  0
 14 42  1  0  0  0  0
 15 43  1  0  0  0  0
 15 44  1  0  0  0  0
 15 45  1  0  0  0  0
 16 46  1  0  0  0  0
 16 47  1  0  0  0  0
 16 48  1  0  0  0  0
 17 18  1  0  0  0  0
 17 49  1  0  0  0  0
 18 19  1  0  0  0  0
 18 21  1  0  0  0  0
 18 50  1  6  0  0  0
 19 20  2  0  0  0  0
 19 25  1  0  0  0  0
 21 22  1  0  0  0  0
 21 51  1  0  0  0  0
 21 52  1  0  0  0  0
 22 23  1  0  0  0  0
 22 24  1  0  0  0  0
 22 53  1  0  0  0  0
 23 54  1  0  0  0  0
 23 55  1  0  0  0  0
 23 56  1  0  0  0  0
 24 57  1  0  0  0  0
 24 58  1  0  0  0  0
 24 59  1  0  0  0  0
M  CHG  1   1   1
M  END
$$$$
