LN6
 OpenBabel04091914273D

 37 36  0  0  1  0  0  0  0  0999 V2000
   -5.0794   -2.1666   21.5982 C   0  0  0  0  0  0  0  0  0  0  0  0
   -3.3146   -2.3326   23.4004 N   0  3  0  0  0  0  0  0  0  0  0  0
   -3.6132   -1.8422   22.0093 C   0  0  1  0  0  0  0  0  0  0  0  0
   -2.6130   -2.5129   21.0674 C   0  0  0  0  0  0  0  0  0  0  0  0
   -1.4937   -2.3542   18.8055 C   0  0  0  0  0  0  0  0  0  0  0  0
   -1.7602   -3.7249   18.3260 N   0  0  0  0  0  0  0  0  0  0  0  0
   -2.6310   -1.8597   19.6884 C   0  0  0  0  0  0  0  0  0  0  0  0
   -2.7111   -3.9790   17.4259 C   0  0  0  0  0  0  0  0  0  0  0  0
   -5.4500   -1.6361   20.5472 O   0  0  0  0  0  0  0  0  0  0  0  0
   -5.6362   -2.9485   22.4274 O   0  0  0  0  0  0  0  0  0  0  0  0
   -2.9392   -5.3872   16.9589 C   0  0  0  0  0  0  0  0  0  0  0  0
   -3.4345   -3.0145   16.9197 N   0  0  0  0  0  0  0  0  0  0  0  0
   -1.5261   -5.0907   14.8901 C   0  0  0  0  0  0  0  0  0  0  0  0
   -0.3568   -5.6174   14.0804 C   0  0  0  0  0  0  0  0  0  0  0  0
   -1.7515   -5.9185   16.1519 C   0  0  0  0  0  0  0  0  0  0  0  0
   -2.3735   -2.1274   23.6934 H   0  0  0  0  0  0  0  0  0  0  0  0
   -4.0104   -1.9072   24.0301 H   0  0  0  0  0  0  0  0  0  0  0  0
   -3.4454   -0.7600   22.0232 H   0  0  0  0  0  0  0  0  0  0  0  0
   -2.8601   -3.5767   20.9624 H   0  0  0  0  0  0  0  0  0  0  0  0
   -1.5959   -2.4371   21.4763 H   0  0  0  0  0  0  0  0  0  0  0  0
   -1.3829   -1.6929   17.9381 H   0  0  0  0  0  0  0  0  0  0  0  0
   -0.5548   -2.3543   19.3666 H   0  0  0  0  0  0  0  0  0  0  0  0
   -1.1919   -4.4972   18.6559 H   0  0  0  0  0  0  0  0  0  0  0  0
   -2.5467   -0.7721   19.8008 H   0  0  0  0  0  0  0  0  0  0  0  0
   -3.5907   -2.0707   19.2103 H   0  0  0  0  0  0  0  0  0  0  0  0
   -3.8399   -5.4381   16.3276 H   0  0  0  0  0  0  0  0  0  0  0  0
   -3.1066   -6.0494   17.8175 H   0  0  0  0  0  0  0  0  0  0  0  0
   -4.1616   -3.1838   16.2365 H   0  0  0  0  0  0  0  0  0  0  0  0
   -2.4320   -5.1136   14.2741 H   0  0  0  0  0  0  0  0  0  0  0  0
   -1.3260   -4.0512   15.1698 H   0  0  0  0  0  0  0  0  0  0  0  0
   -0.2119   -5.0066   13.1829 H   0  0  0  0  0  0  0  0  0  0  0  0
   -0.5413   -6.6513   13.7717 H   0  0  0  0  0  0  0  0  0  0  0  0
    0.5628   -5.5875   14.6738 H   0  0  0  0  0  0  0  0  0  0  0  0
   -1.9301   -6.9662   15.8696 H   0  0  0  0  0  0  0  0  0  0  0  0
   -0.8493   -5.8872   16.7743 H   0  0  0  0  0  0  0  0  0  0  0  0
   -3.5249   -3.3408   23.4243 H   0  0  0  0  0  0  0  0  0  0  0  0
   -3.3240   -2.0503   17.2133 H   0  0  0  0  0  0  0  0  0  0  0  0
  1  3  1  0  0  0  0
  1  9  2  0  0  0  0
  1 10  1  0  0  0  0
  2  3  1  0  0  0  0
  2 16  1  0  0  0  0
  2 17  1  0  0  0  0
  2 36  1  0  0  0  0
  3  4  1  0  0  0  0
  3 18  1  6  0  0  0
  4  7  1  0  0  0  0
  4 19  1  0  0  0  0
  4 20  1  0  0  0  0
  5  6  1  0  0  0  0
  5  7  1  0  0  0  0
  5 21  1  0  0  0  0
  5 22  1  0  0  0  0
  6  8  1  0  0  0  0
  6 23  1  0  0  0  0
  7 24  1  0  0  0  0
  7 25  1  0  0  0  0
  8 11  1  0  0  0  0
  8 12  2  0  0  0  0
 11 15  1  0  0  0  0
 11 26  1  0  0  0  0
 11 27  1  0  0  0  0
 12 28  1  0  0  0  0
 12 37  1  0  0  0  0
 13 14  1  0  0  0  0
 13 15  1  0  0  0  0
 13 29  1  0  0  0  0
 13 30  1  0  0  0  0
 14 31  1  0  0  0  0
 14 32  1  0  0  0  0
 14 33  1  0  0  0  0
 15 34  1  0  0  0  0
 15 35  1  0  0  0  0
M  CHG  1   2   1
M  END
$$$$
