LTC
 OpenBabel04091914113D

127128  0  0  1  0  0  0  0  0999 V2000
   18.4288   20.5823  -22.3139 C   0  0  1  0  0  0  0  0  0  0  0  0
   17.3055   21.3315  -22.7912 O   0  0  0  0  0  0  0  0  0  0  0  0
   18.7314   20.7660  -20.8096 C   0  0  2  0  0  0  0  0  0  0  0  0
   18.0540   21.7268  -18.6857 O   0  0  0  0  0  0  0  0  0  0  0  0
   17.7228   21.7323  -20.1033 C   0  0  2  0  0  0  0  0  0  0  0  0
   15.3149   22.1620  -19.9415 O   0  0  0  0  0  0  0  0  0  0  0  0
   16.2901   21.3125  -20.5161 C   0  0  1  0  0  0  0  0  0  0  0  0
   20.1022   21.1632  -20.5916 O   0  0  0  0  0  0  0  0  0  0  0  0
   16.0738   21.2207  -22.0523 C   0  0  1  0  0  0  0  0  0  0  0  0
   16.9770   18.6556  -22.3406 O   0  0  0  0  0  0  0  0  0  0  0  0
   18.3028   19.0607  -22.6201 C   0  0  0  0  0  0  0  0  0  0  0  0
   12.6873   19.9124  -26.0841 O   0  0  0  0  0  0  0  0  0  0  0  0
   13.9979   21.2814  -24.8165 O   0  0  0  0  0  0  0  0  0  0  0  0
   24.2161   18.7752  -25.4685 C   0  0  0  0  0  0  0  0  0  0  0  0
   15.1134   22.2080  -22.5279 O   0  0  0  0  0  0  0  0  0  0  0  0
   23.0695   17.8765  -25.9118 C   0  0  0  0  0  0  0  0  0  0  0  0
   10.5035   21.4928  -24.2600 O   0  0  0  0  0  0  0  0  0  0  0  0
   21.9261   17.8227  -24.8993 C   0  0  0  0  0  0  0  0  0  0  0  0
   10.4162   21.4778  -26.5503 O   0  0  0  0  0  0  0  0  0  0  0  0
   20.7191   16.9999  -25.3837 C   0  0  0  0  0  0  0  0  0  0  0  0
   20.8334   15.4801  -25.1566 C   0  0  0  0  0  0  0  0  0  0  0  0
   19.4782   14.7978  -24.9369 C   0  0  0  0  0  0  0  0  0  0  0  0
   18.7464   14.3073  -26.1943 C   0  0  0  0  0  0  0  0  0  0  0  0
   17.1975   14.3911  -26.2113 C   0  0  0  0  0  0  0  0  0  0  0  0
   16.5642   14.9916  -24.9601 C   0  0  0  0  0  0  0  0  0  0  0  0
   15.1968   15.6403  -25.0889 C   0  0  0  0  0  0  0  0  0  0  0  0
   15.2459   16.9526  -25.8897 C   0  0  0  0  0  0  0  0  0  0  0  0
   15.4640   18.2029  -25.0401 C   0  0  0  0  0  0  0  0  0  0  0  0
   16.0549   19.3503  -25.8549 C   0  0  0  0  0  0  0  0  0  0  0  0
   14.9923   20.0588  -26.6918 C   0  0  0  0  0  0  0  0  0  0  0  0
   13.7640   20.4438  -25.8702 C   0  0  0  0  0  0  0  0  0  0  0  0
   13.0149   21.3774  -23.7357 C   0  0  1  0  0  0  0  0  0  0  0  0
   13.7101   21.8722  -22.4157 C   0  0  0  0  0  0  0  0  0  0  0  0
   11.7687   22.2488  -24.1082 C   0  0  0  0  0  0  0  0  0  0  0  0
    9.8674   21.3559  -25.5176 C   0  0  0  0  0  0  0  0  0  0  0  0
    8.3290   21.1617  -25.3816 C   0  0  0  0  0  0  0  0  0  0  0  0
    7.6613   21.0571  -26.7762 C   0  0  0  0  0  0  0  0  0  0  0  0
    6.1955   21.5388  -26.8118 C   0  0  0  0  0  0  0  0  0  0  0  0
    6.0390   22.7577  -27.7346 C   0  0  0  0  0  0  0  0  0  0  0  0
    5.4010   22.4368  -29.0859 C   0  0  0  0  0  0  0  0  0  0  0  0
    6.0276   23.2346  -30.2187 C   0  0  0  0  0  0  0  0  0  0  0  0
   15.4714   20.6622  -16.3415 C   0  0  1  0  0  0  0  0  0  0  0  0
   16.2373   20.7526  -17.5400 O   0  0  0  0  0  0  0  0  0  0  0  0
   15.5133   21.9387  -15.5144 C   0  0  2  0  0  0  0  0  0  0  0  0
   14.4832   21.8412  -14.4196 N   0  3  0  0  0  0  0  0  0  0  0  0
   13.9440   23.3959  -16.6630 O   0  0  0  0  0  0  0  0  0  0  0  0
   15.3273   23.2239  -16.3349 C   0  0  2  0  0  0  0  0  0  0  0  0
   16.2442   23.2644  -17.5978 C   0  0  1  0  0  0  0  0  0  0  0  0
   17.0967   24.5155  -17.6080 N   0  0  0  0  0  0  0  0  0  0  0  0
   17.0950   21.9179  -17.6428 C   0  0  2  0  0  0  0  0  0  0  0  0
   14.0082   20.3072  -16.5560 C   0  0  0  0  0  0  0  0  0  0  0  0
   16.7009   25.8455  -17.6461 C   0  0  0  0  0  0  0  0  0  0  0  0
   15.5723   26.2765  -17.6746 O   0  0  0  0  0  0  0  0  0  0  0  0
   17.8736   26.8102  -17.4825 C   0  0  0  0  0  0  0  0  0  0  0  0
   19.3178   20.9112  -22.8856 H   0  0  0  0  0  0  0  0  0  0  0  0
   18.6461   19.7921  -20.3120 H   0  0  0  0  0  0  0  0  0  0  0  0
   17.9177   22.7522  -20.4505 H   0  0  0  0  0  0  0  0  0  0  0  0
   14.4210   21.8989  -20.2290 H   0  0  0  0  0  0  0  0  0  0  0  0
   16.1148   20.3208  -20.0890 H   0  0  0  0  0  0  0  0  0  0  0  0
   20.7126   20.5379  -21.0494 H   0  0  0  0  0  0  0  0  0  0  0  0
   15.6116   20.2548  -22.2486 H   0  0  0  0  0  0  0  0  0  0  0  0
   16.8677   17.7140  -22.5749 H   0  0  0  0  0  0  0  0  0  0  0  0
   18.9628   18.4682  -21.9781 H   0  0  0  0  0  0  0  0  0  0  0  0
   18.5605   18.8539  -23.6642 H   0  0  0  0  0  0  0  0  0  0  0  0
   25.0111   18.7791  -26.2242 H   0  0  0  0  0  0  0  0  0  0  0  0
   24.6449   18.4222  -24.5251 H   0  0  0  0  0  0  0  0  0  0  0  0
   23.8742   19.8068  -25.3313 H   0  0  0  0  0  0  0  0  0  0  0  0
   23.4610   16.8669  -26.0661 H   0  0  0  0  0  0  0  0  0  0  0  0
   22.6919   18.2532  -26.8689 H   0  0  0  0  0  0  0  0  0  0  0  0
   21.5875   18.8492  -24.7006 H   0  0  0  0  0  0  0  0  0  0  0  0
   22.2974   17.4057  -23.9552 H   0  0  0  0  0  0  0  0  0  0  0  0
   20.5676   17.1833  -26.4532 H   0  0  0  0  0  0  0  0  0  0  0  0
   19.8350   17.3698  -24.8534 H   0  0  0  0  0  0  0  0  0  0  0  0
   21.4505   15.3051  -24.2638 H   0  0  0  0  0  0  0  0  0  0  0  0
   21.3407   15.0254  -26.0127 H   0  0  0  0  0  0  0  0  0  0  0  0
   18.8883   15.5157  -24.3886 H   0  0  0  0  0  0  0  0  0  0  0  0
   19.6197   13.9385  -24.2714 H   0  0  0  0  0  0  0  0  0  0  0  0
   19.0196   13.2539  -26.3527 H   0  0  0  0  0  0  0  0  0  0  0  0
   19.1138   14.8714  -27.0599 H   0  0  0  0  0  0  0  0  0  0  0  0
   16.7942   13.3773  -26.3511 H   0  0  0  0  0  0  0  0  0  0  0  0
   16.9027   14.9716  -27.0945 H   0  0  0  0  0  0  0  0  0  0  0  0
   17.1922   15.7922  -24.5912 H   0  0  0  0  0  0  0  0  0  0  0  0
   16.5059   14.1951  -24.2099 H   0  0  0  0  0  0  0  0  0  0  0  0
   14.8127   15.8454  -24.0804 H   0  0  0  0  0  0  0  0  0  0  0  0
   14.5097   14.9511  -25.5811 H   0  0  0  0  0  0  0  0  0  0  0  0
   14.3092   17.0741  -26.4254 H   0  0  0  0  0  0  0  0  0  0  0  0
   16.0607   16.8906  -26.6135 H   0  0  0  0  0  0  0  0  0  0  0  0
   16.1448   17.9617  -24.2488 H   0  0  0  0  0  0  0  0  0  0  0  0
   14.5193   18.5107  -24.5830 H   0  0  0  0  0  0  0  0  0  0  0  0
   16.8543   18.9629  -26.5040 H   0  0  0  0  0  0  0  0  0  0  0  0
   16.5062   20.0886  -25.1867 H   0  0  0  0  0  0  0  0  0  0  0  0
   14.6843   19.3729  -27.4973 H   0  0  0  0  0  0  0  0  0  0  0  0
   15.4158   20.9403  -27.1830 H   0  0  0  0  0  0  0  0  0  0  0  0
   12.6388   20.3743  -23.5088 H   0  0  0  0  0  0  0  0  0  0  0  0
   13.1945   22.7667  -22.0144 H   0  0  0  0  0  0  0  0  0  0  0  0
   13.5668   21.0907  -21.6451 H   0  0  0  0  0  0  0  0  0  0  0  0
   11.5718   22.9846  -23.3008 H   0  0  0  0  0  0  0  0  0  0  0  0
   11.9954   22.8110  -25.0150 H   0  0  0  0  0  0  0  0  0  0  0  0
    7.8871   22.0228  -24.8613 H   0  0  0  0  0  0  0  0  0  0  0  0
    8.1021   20.2420  -24.8357 H   0  0  0  0  0  0  0  0  0  0  0  0
    7.6841   20.0098  -27.1111 H   0  0  0  0  0  0  0  0  0  0  0  0
    8.2355   21.6353  -27.5079 H   0  0  0  0  0  0  0  0  0  0  0  0
    5.8804   21.8117  -25.7998 H   0  0  0  0  0  0  0  0  0  0  0  0
    5.5456   20.7224  -27.1533 H   0  0  0  0  0  0  0  0  0  0  0  0
    7.0200   23.2158  -27.9009 H   0  0  0  0  0  0  0  0  0  0  0  0
    5.4128   23.4993  -27.2260 H   0  0  0  0  0  0  0  0  0  0  0  0
    4.3317   22.6755  -29.0469 H   0  0  0  0  0  0  0  0  0  0  0  0
    5.5097   21.3717  -29.3151 H   0  0  0  0  0  0  0  0  0  0  0  0
    5.5462   22.9855  -31.1708 H   0  0  0  0  0  0  0  0  0  0  0  0
    7.0945   23.0019  -30.3034 H   0  0  0  0  0  0  0  0  0  0  0  0
    5.9172   24.3096  -30.0448 H   0  0  0  0  0  0  0  0  0  0  0  0
   15.9037   19.8376  -15.7595 H   0  0  0  0  0  0  0  0  0  0  0  0
   16.4726   21.9799  -14.9978 H   0  0  0  0  0  0  0  0  0  0  0  0
   14.4847   22.6857  -13.8572 H   0  0  0  0  0  0  0  0  0  0  0  0
   13.5446   21.7628  -14.8181 H   0  0  0  0  0  0  0  0  0  0  0  0
   13.4072   23.5540  -15.8581 H   0  0  0  0  0  0  0  0  0  0  0  0
   15.6061   24.0550  -15.6862 H   0  0  0  0  0  0  0  0  0  0  0  0
   15.5983   23.3210  -18.4458 H   0  0  0  0  0  0  0  0  0  0  0  0
   18.0686   24.3416  -17.7487 H   0  0  0  0  0  0  0  0  0  0  0  0
   17.7201   21.9470  -16.7352 H   0  0  0  0  0  0  0  0  0  0  0  0
   13.4761   20.2030  -15.6019 H   0  0  0  0  0  0  0  0  0  0  0  0
   13.8589   19.3333  -17.0255 H   0  0  0  0  0  0  0  0  0  0  0  0
   13.4817   21.0703  -17.1431 H   0  0  0  0  0  0  0  0  0  0  0  0
   17.4913   27.8363  -17.4981 H   0  0  0  0  0  0  0  0  0  0  0  0
   18.6004   26.6919  -18.2869 H   0  0  0  0  0  0  0  0  0  0  0  0
   18.3490   26.6360  -16.5127 H   0  0  0  0  0  0  0  0  0  0  0  0
   14.6706   21.0229  -13.8394 H   0  0  0  0  0  0  0  0  0  0  0  0
  1  2  1  0  0  0  0
  1  3  1  0  0  0  0
  1 11  1  0  0  0  0
  1 55  1  6  0  0  0
  2  9  1  0  0  0  0
  3  5  1  0  0  0  0
  3  8  1  0  0  0  0
  3 56  1  1  0  0  0
  4  5  1  0  0  0  0
  4 50  1  0  0  0  0
  5  7  1  0  0  0  0
  5 57  1  6  0  0  0
  6  7  1  0  0  0  0
  6 58  1  0  0  0  0
  7  9  1  0  0  0  0
  7 59  1  1  0  0  0
  8 60  1  0  0  0  0
  9 15  1  0  0  0  0
  9 61  1  6  0  0  0
 10 11  1  0  0  0  0
 10 62  1  0  0  0  0
 11 63  1  0  0  0  0
 11 64  1  0  0  0  0
 12 31  2  0  0  0  0
 13 31  1  0  0  0  0
 13 32  1  0  0  0  0
 14 16  1  0  0  0  0
 14 65  1  0  0  0  0
 14 66  1  0  0  0  0
 14 67  1  0  0  0  0
 15 33  1  0  0  0  0
 16 18  1  0  0  0  0
 16 68  1  0  0  0  0
 16 69  1  0  0  0  0
 17 34  1  0  0  0  0
 17 35  1  0  0  0  0
 18 20  1  0  0  0  0
 18 70  1  0  0  0  0
 18 71  1  0  0  0  0
 19 35  2  0  0  0  0
 20 21  1  0  0  0  0
 20 72  1  0  0  0  0
 20 73  1  0  0  0  0
 21 22  1  0  0  0  0
 21 74  1  0  0  0  0
 21 75  1  0  0  0  0
 22 23  1  0  0  0  0
 22 76  1  0  0  0  0
 22 77  1  0  0  0  0
 23 24  1  0  0  0  0
 23 78  1  0  0  0  0
 23 79  1  0  0  0  0
 24 25  1  0  0  0  0
 24 80  1  0  0  0  0
 24 81  1  0  0  0  0
 25 26  1  0  0  0  0
 25 82  1  0  0  0  0
 25 83  1  0  0  0  0
 26 27  1  0  0  0  0
 26 84  1  0  0  0  0
 26 85  1  0  0  0  0
 27 28  1  0  0  0  0
 27 86  1  0  0  0  0
 27 87  1  0  0  0  0
 28 29  1  0  0  0  0
 28 88  1  0  0  0  0
 28 89  1  0  0  0  0
 29 30  1  0  0  0  0
 29 90  1  0  0  0  0
 29 91  1  0  0  0  0
 30 31  1  0  0  0  0
 30 92  1  0  0  0  0
 30 93  1  0  0  0  0
 32 33  1  0  0  0  0
 32 34  1  0  0  0  0
 32 94  1  1  0  0  0
 33 95  1  0  0  0  0
 33 96  1  0  0  0  0
 34 97  1  0  0  0  0
 34 98  1  0  0  0  0
 35 36  1  0  0  0  0
 36 37  1  0  0  0  0
 36 99  1  0  0  0  0
 36100  1  0  0  0  0
 37 38  1  0  0  0  0
 37101  1  0  0  0  0
 37102  1  0  0  0  0
 38 39  1  0  0  0  0
 38103  1  0  0  0  0
 38104  1  0  0  0  0
 39 40  1  0  0  0  0
 39105  1  0  0  0  0
 39106  1  0  0  0  0
 40 41  1  0  0  0  0
 40107  1  0  0  0  0
 40108  1  0  0  0  0
 41109  1  0  0  0  0
 41110  1  0  0  0  0
 41111  1  0  0  0  0
 42 43  1  0  0  0  0
 42 44  1  0  0  0  0
 42 51  1  0  0  0  0
 42112  1  1  0  0  0
 43 50  1  0  0  0  0
 44 45  1  0  0  0  0
 44 47  1  0  0  0  0
 44113  1  1  0  0  0
 45114  1  0  0  0  0
 45115  1  0  0  0  0
 45127  1  0  0  0  0
 46 47  1  0  0  0  0
 46116  1  0  0  0  0
 47 48  1  0  0  0  0
 47117  1  1  0  0  0
 48 49  1  0  0  0  0
 48 50  1  0  0  0  0
 48118  1  6  0  0  0
 49 52  1  0  0  0  0
 49119  1  0  0  0  0
 50120  1  1  0  0  0
 51121  1  0  0  0  0
 51122  1  0  0  0  0
 51123  1  0  0  0  0
 52 53  2  0  0  0  0
 52 54  1  0  0  0  0
 54124  1  0  0  0  0
 54125  1  0  0  0  0
 54126  1  0  0  0  0
M  CHG  1  45   1
M  END
$$$$
