LYG
 OpenBabel04091913183D

 37 40  0  0  1  0  0  0  0  0999 V2000
  -37.5437   -5.5296    4.2046 C   0  0  1  0  0  0  0  0  0  0  0  0
  -37.7151   -3.4773    3.0397 N   0  3  1  0  0  0  0  0  0  0  0  0
  -36.5298   -6.4685    3.8487 O   0  0  0  0  0  0  0  0  0  0  0  0
  -41.2725   -2.9774   -2.6760 S   0  0  0  0  0  0  0  0  0  0  0  0
  -45.7428   -1.0430    1.1731 Cl  0  0  0  0  0  0  0  0  0  0  0  0
  -36.7894   -4.3799    4.8974 C   0  0  0  0  0  0  0  0  0  0  0  0
  -40.1465   -2.4021    1.0197 N   0  0  0  0  0  0  0  0  0  0  0  0
  -38.2209   -3.6770   -2.3871 O   0  0  0  0  0  0  0  0  0  0  0  0
  -36.3618   -3.5676    3.6946 C   0  0  0  0  0  0  0  0  0  0  0  0
  -38.2499   -3.1764   -0.1968 N   0  3  0  0  0  0  0  0  0  0  0  0
  -37.9403   -2.3847    2.0577 C   0  0  0  0  0  0  0  0  0  0  0  0
  -38.8811   -2.6712    0.9174 C   0  0  0  0  0  0  0  0  0  0  0  0
  -40.8559   -2.5438   -0.1954 C   0  0  0  0  0  0  0  0  0  0  0  0
  -42.2352   -2.2289   -0.3783 C   0  0  0  0  0  0  0  0  0  0  0  0
  -43.2265   -1.7597    0.5191 C   0  0  0  0  0  0  0  0  0  0  0  0
  -44.5372   -1.5713    0.0659 C   0  0  0  0  0  0  0  0  0  0  0  0
  -44.8822   -1.8134   -1.2584 C   0  0  0  0  0  0  0  0  0  0  0  0
  -43.9169   -2.2418   -2.1694 C   0  0  0  0  0  0  0  0  0  0  0  0
  -42.6047   -2.4474   -1.7137 C   0  0  0  0  0  0  0  0  0  0  0  0
  -40.2424   -2.9545   -1.3484 C   0  0  0  0  0  0  0  0  0  0  0  0
  -38.8691   -3.2996   -1.4017 C   0  0  0  0  0  0  0  0  0  0  0  0
  -38.1724   -4.9118    2.9188 C   0  0  0  0  0  0  0  0  0  0  0  0
  -38.2821   -5.9995    4.8603 H   0  0  0  0  0  0  0  0  0  0  0  0
  -36.9290   -7.2255    3.3931 H   0  0  0  0  0  0  0  0  0  0  0  0
  -35.9496   -4.6982    5.5185 H   0  0  0  0  0  0  0  0  0  0  0  0
  -37.4632   -3.7660    5.5148 H   0  0  0  0  0  0  0  0  0  0  0  0
  -35.9869   -2.5666    3.9047 H   0  0  0  0  0  0  0  0  0  0  0  0
  -35.6671   -4.1107    3.0326 H   0  0  0  0  0  0  0  0  0  0  0  0
  -37.2534   -3.3620   -0.2248 H   0  0  0  0  0  0  0  0  0  0  0  0
  -36.9689   -2.0522    1.6799 H   0  0  0  0  0  0  0  0  0  0  0  0
  -38.3743   -1.5704    2.6527 H   0  0  0  0  0  0  0  0  0  0  0  0
  -42.9694   -1.5555    1.5538 H   0  0  0  0  0  0  0  0  0  0  0  0
  -45.9035   -1.6685   -1.6001 H   0  0  0  0  0  0  0  0  0  0  0  0
  -44.1766   -2.4195   -3.2105 H   0  0  0  0  0  0  0  0  0  0  0  0
  -39.2668   -4.9139    2.9229 H   0  0  0  0  0  0  0  0  0  0  0  0
  -37.7754   -5.3631    2.0007 H   0  0  0  0  0  0  0  0  0  0  0  0
  -38.3375   -3.1479    3.7690 H   0  0  0  0  0  0  0  0  0  0  0  0
  1  3  1  0  0  0  0
  1  6  1  0  0  0  0
  1 22  1  0  0  0  0
  1 23  1  1  0  0  0
  2  9  1  0  0  0  0
  2 11  1  0  0  0  0
  2 22  1  0  0  0  0
  2 37  1  1  0  0  0
  3 24  1  0  0  0  0
  4 19  1  0  0  0  0
  4 20  1  0  0  0  0
  5 16  1  0  0  0  0
  6  9  1  0  0  0  0
  6 25  1  0  0  0  0
  6 26  1  0  0  0  0
  7 12  2  0  0  0  0
  7 13  1  0  0  0  0
  8 21  2  0  0  0  0
  9 27  1  0  0  0  0
  9 28  1  0  0  0  0
 10 12  1  0  0  0  0
 10 21  1  0  0  0  0
 10 29  1  0  0  0  0
 11 12  1  0  0  0  0
 11 30  1  0  0  0  0
 11 31  1  0  0  0  0
 13 14  1  0  0  0  0
 13 20  2  0  0  0  0
 14 15  2  0  0  0  0
 14 19  1  0  0  0  0
 15 16  1  0  0  0  0
 15 32  1  0  0  0  0
 16 17  2  0  0  0  0
 17 18  1  0  0  0  0
 17 33  1  0  0  0  0
 18 19  2  0  0  0  0
 18 34  1  0  0  0  0
 20 21  1  0  0  0  0
 22 35  1  0  0  0  0
 22 36  1  0  0  0  0
M  CHG  2   2   1  10   1
M  END
$$$$
