LYS
 OpenBabel04091913493D

 25 24  0  0  1  0  0  0  0  0999 V2000
  -43.4233    9.8007  -15.4162 N   0  3  0  0  0  0  0  0  0  0  0  0
  -44.8304   10.0887  -15.9372 C   0  0  2  0  0  0  0  0  0  0  0  0
  -45.7395   10.4948  -14.7455 C   0  0  0  0  0  0  0  0  0  0  0  0
  -45.2289   10.1221  -13.6480 O   0  0  0  0  0  0  0  0  0  0  0  0
  -45.3395    8.8088  -16.5978 C   0  0  0  0  0  0  0  0  0  0  0  0
  -46.7613    8.9062  -17.1714 C   0  0  0  0  0  0  0  0  0  0  0  0
  -47.1495    7.6121  -17.8941 C   0  0  0  0  0  0  0  0  0  0  0  0
  -48.5036    7.7386  -18.5781 C   0  0  0  0  0  0  0  0  0  0  0  0
  -48.7682    6.5071  -19.3651 N   0  3  0  0  0  0  0  0  0  0  0  0
  -46.7838   11.1198  -15.0399 O   0  0  0  0  0  0  0  0  0  0  0  0
  -42.7293    9.4832  -16.0920 H   0  0  0  0  0  0  0  0  0  0  0  0
  -43.1146   10.6407  -14.9173 H   0  0  0  0  0  0  0  0  0  0  0  0
  -44.7248   10.9094  -16.6497 H   0  0  0  0  0  0  0  0  0  0  0  0
  -45.3131    7.9761  -15.8819 H   0  0  0  0  0  0  0  0  0  0  0  0
  -44.6563    8.5397  -17.4131 H   0  0  0  0  0  0  0  0  0  0  0  0
  -46.8237    9.7558  -17.8634 H   0  0  0  0  0  0  0  0  0  0  0  0
  -47.4879    9.0810  -16.3709 H   0  0  0  0  0  0  0  0  0  0  0  0
  -47.1765    6.7869  -17.1706 H   0  0  0  0  0  0  0  0  0  0  0  0
  -46.3793    7.3624  -18.6356 H   0  0  0  0  0  0  0  0  0  0  0  0
  -48.5261    8.5724  -19.2861 H   0  0  0  0  0  0  0  0  0  0  0  0
  -49.3213    7.8394  -17.8586 H   0  0  0  0  0  0  0  0  0  0  0  0
  -49.6783    6.5714  -19.8429 H   0  0  0  0  0  0  0  0  0  0  0  0
  -48.0560    6.3544  -20.0902 H   0  0  0  0  0  0  0  0  0  0  0  0
  -43.5625    9.1395  -14.6326 H   0  0  0  0  0  0  0  0  0  0  0  0
  -48.7979    5.6712  -18.7686 H   0  0  0  0  0  0  0  0  0  0  0  0
  1  2  1  0  0  0  0
  1 11  1  0  0  0  0
  1 12  1  0  0  0  0
  1 24  1  0  0  0  0
  2  3  1  0  0  0  0
  2  5  1  0  0  0  0
  2 13  1  6  0  0  0
  3  4  2  0  0  0  0
  3 10  1  0  0  0  0
  5  6  1  0  0  0  0
  5 14  1  0  0  0  0
  5 15  1  0  0  0  0
  6  7  1  0  0  0  0
  6 16  1  0  0  0  0
  6 17  1  0  0  0  0
  7  8  1  0  0  0  0
  7 18  1  0  0  0  0
  7 19  1  0  0  0  0
  8  9  1  0  0  0  0
  8 20  1  0  0  0  0
  8 21  1  0  0  0  0
  9 22  1  0  0  0  0
  9 23  1  0  0  0  0
  9 25  1  0  0  0  0
M  CHG  2   1   1   9   1
M  END
$$$$
