LYS
 OpenBabel04091910503D

 25 24  0  0  1  0  0  0  0  0999 V2000
   24.4638   17.9021    1.7153 N   0  3  0  0  0  0  0  0  0  0  0  0
   25.8583   18.4858    1.5625 C   0  0  2  0  0  0  0  0  0  0  0  0
   26.6235   17.8303    0.3726 C   0  0  0  0  0  0  0  0  0  0  0  0
   26.0771   16.7359    0.0426 O   0  0  0  0  0  0  0  0  0  0  0  0
   26.5927   18.2112    2.8696 C   0  0  0  0  0  0  0  0  0  0  0  0
   27.9469   18.9091    3.0146 C   0  0  0  0  0  0  0  0  0  0  0  0
   28.6073   18.4377    4.3115 C   0  0  0  0  0  0  0  0  0  0  0  0
   29.8179   19.2833    4.6465 C   0  0  0  0  0  0  0  0  0  0  0  0
   30.2659   18.9577    6.0259 N   0  3  0  0  0  0  0  0  0  0  0  0
   27.5934   18.4820   -0.0599 O   0  0  0  0  0  0  0  0  0  0  0  0
   23.9198   18.2910    2.4797 H   0  0  0  0  0  0  0  0  0  0  0  0
   23.9846   18.0148    0.8127 H   0  0  0  0  0  0  0  0  0  0  0  0
   25.7279   19.5606    1.4033 H   0  0  0  0  0  0  0  0  0  0  0  0
   26.7530   17.1324    2.9756 H   0  0  0  0  0  0  0  0  0  0  0  0
   25.9668   18.5362    3.7113 H   0  0  0  0  0  0  0  0  0  0  0  0
   27.8095   19.9970    3.0321 H   0  0  0  0  0  0  0  0  0  0  0  0
   28.6063   18.6731    2.1746 H   0  0  0  0  0  0  0  0  0  0  0  0
   28.9094   17.3876    4.2029 H   0  0  0  0  0  0  0  0  0  0  0  0
   27.8787   18.4861    5.1301 H   0  0  0  0  0  0  0  0  0  0  0  0
   29.5724   20.3486    4.6325 H   0  0  0  0  0  0  0  0  0  0  0  0
   30.6496   19.0757    3.9690 H   0  0  0  0  0  0  0  0  0  0  0  0
   31.0870   19.5189    6.2907 H   0  0  0  0  0  0  0  0  0  0  0  0
   29.5338   19.1475    6.7211 H   0  0  0  0  0  0  0  0  0  0  0  0
   24.5801   16.8792    1.7859 H   0  0  0  0  0  0  0  0  0  0  0  0
   30.5318   17.9668    6.1164 H   0  0  0  0  0  0  0  0  0  0  0  0
  1  2  1  0  0  0  0
  1 11  1  0  0  0  0
  1 12  1  0  0  0  0
  1 24  1  0  0  0  0
  2  3  1  0  0  0  0
  2  5  1  0  0  0  0
  2 13  1  6  0  0  0
  3  4  2  0  0  0  0
  3 10  1  0  0  0  0
  5  6  1  0  0  0  0
  5 14  1  0  0  0  0
  5 15  1  0  0  0  0
  6  7  1  0  0  0  0
  6 16  1  0  0  0  0
  6 17  1  0  0  0  0
  7  8  1  0  0  0  0
  7 18  1  0  0  0  0
  7 19  1  0  0  0  0
  8  9  1  0  0  0  0
  8 20  1  0  0  0  0
  8 21  1  0  0  0  0
  9 22  1  0  0  0  0
  9 23  1  0  0  0  0
  9 25  1  0  0  0  0
M  CHG  2   1   1   9   1
M  END
$$$$
