LZP
 OpenBabel04091911373D

 86 90  0  0  1  0  0  0  0  0999 V2000
   39.0303   20.1247   66.4979 C   0  0  0  0  0  0  0  0  0  0  0  0
   38.1297   19.6604   67.4010 C   0  0  0  0  0  0  0  0  0  0  0  0
   37.7890   18.2012   67.4615 C   0  0  0  0  0  0  0  0  0  0  0  0
   38.3765   17.2897   66.6568 C   0  0  0  0  0  0  0  0  0  0  0  0
   39.2689   17.7203   65.5140 C   0  0  1  0  0  0  0  0  0  0  0  0
   39.7164   19.2234   65.5203 C   0  0  0  0  0  0  0  0  0  0  0  0
   40.0698   16.6669   64.6122 C   0  0  0  0  0  0  0  0  0  0  0  0
   41.3235   14.9014   65.9319 C   0  0  0  0  0  0  0  0  0  0  0  0
   42.4946   15.6642   66.1012 C   0  0  0  0  0  0  0  0  0  0  0  0
   43.5677   15.2241   66.9507 C   0  0  0  0  0  0  0  0  0  0  0  0
   43.4785   13.9919   67.6561 C   0  0  0  0  0  0  0  0  0  0  0  0
   42.3359   13.1792   67.5253 C   0  0  0  0  0  0  0  0  0  0  0  0
   41.2608   13.6268   66.6420 C   0  0  0  0  0  0  0  0  0  0  0  0
   42.2709   11.8002   68.3056 C   0  0  0  0  0  0  0  0  0  0  0  0
   42.4894   11.8044   69.8551 C   0  0  0  0  0  0  0  0  0  0  0  0
   43.7440   11.1053   70.3961 C   0  0  0  0  0  0  0  0  0  0  0  0
   44.1407   11.3909   71.9439 C   0  0  0  0  0  0  0  0  0  0  0  0
   45.0592   13.0199   73.7090 C   0  0  0  0  0  0  0  0  0  0  0  0
   44.6059   14.4779   74.0907 C   0  0  0  0  0  0  0  0  0  0  0  0
   43.8936   15.0090   71.7561 C   0  0  0  0  0  0  0  0  0  0  0  0
   44.8387   13.8296   71.3527 C   0  0  0  0  0  0  0  0  0  0  0  0
   44.7003   12.6946   72.2668 N   0  0  0  0  0  0  0  0  0  0  0  0
   43.5192   14.9336   73.1806 N   0  0  0  0  0  0  0  0  0  0  0  0
   40.2415   15.2902   65.1380 O   0  0  0  0  0  0  0  0  0  0  0  0
   41.9781   10.8156   67.6841 O   0  0  0  0  0  0  0  0  0  0  0  0
   44.4296   10.2987   69.7686 O   0  0  0  0  0  0  0  0  0  0  0  0
   44.0123   10.4740   72.7699 O   0  0  0  0  0  0  0  0  0  0  0  0
   42.2043   15.1157   73.7366 C   0  0  0  0  0  0  0  0  0  0  0  0
   41.0027   15.4492   72.7658 C   0  0  0  0  0  0  0  0  0  0  0  0
   39.6557   14.8237   73.1628 C   0  0  0  0  0  0  0  0  0  0  0  0
   39.4101   13.3350   72.8908 C   0  0  0  0  0  0  0  0  0  0  0  0
   40.0167   12.4955   75.3129 C   0  0  0  0  0  0  0  0  0  0  0  0
   39.9740   12.2624   73.8844 C   0  0  0  0  0  0  0  0  0  0  0  0
   40.4453   11.0248   73.3757 C   0  0  0  0  0  0  0  0  0  0  0  0
   40.9891   10.0544   74.2645 C   0  0  0  0  0  0  0  0  0  0  0  0
   41.0432   10.3164   75.6792 C   0  0  0  0  0  0  0  0  0  0  0  0
   40.5182   11.5279   76.2299 C   0  0  0  0  0  0  0  0  0  0  0  0
   39.4649   12.1087   78.4675 C   0  0  0  0  0  0  0  0  0  0  0  0
   37.7708   14.2222   78.4218 C   0  0  0  0  0  0  0  0  0  0  0  0
   39.1669   13.6511   78.6831 C   0  0  0  0  0  0  0  0  0  0  0  0
   40.1550   14.5204   79.1082 C   0  0  0  0  0  0  0  0  0  0  0  0
   39.9131   15.9791   79.2858 C   0  0  0  0  0  0  0  0  0  0  0  0
   38.4989   16.5301   78.9928 C   0  0  0  0  0  0  0  0  0  0  0  0
   37.5009   15.5888   78.5698 C   0  0  0  0  0  0  0  0  0  0  0  0
   41.9494   15.0190   74.9371 O   0  0  0  0  0  0  0  0  0  0  0  0
   41.2352   16.2127   71.8622 O   0  0  0  0  0  0  0  0  0  0  0  0
   38.7657   12.9842   71.9284 O   0  0  0  0  0  0  0  0  0  0  0  0
   40.6483   11.7688   77.6064 O   0  0  0  0  0  0  0  0  0  0  0  0
   39.2947   21.2085   66.4435 H   0  0  0  0  0  0  0  0  0  0  0  0
   37.6486   20.3678   68.1198 H   0  0  0  0  0  0  0  0  0  0  0  0
   37.0492   17.8563   68.2035 H   0  0  0  0  0  0  0  0  0  0  0  0
   38.0973   16.2294   66.6267 H   0  0  0  0  0  0  0  0  0  0  0  0
   38.4769   17.8737   64.7789 H   0  0  0  0  0  0  0  0  0  0  0  0
   40.7904   19.3317   65.6784 H   0  0  0  0  0  0  0  0  0  0  0  0
   39.4708   19.6270   64.5209 H   0  0  0  0  0  0  0  0  0  0  0  0
   41.0213   17.0761   64.2592 H   0  0  0  0  0  0  0  0  0  0  0  0
   39.4504   16.6027   63.6699 H   0  0  0  0  0  0  0  0  0  0  0  0
   42.6211   16.6174   65.5859 H   0  0  0  0  0  0  0  0  0  0  0  0
   44.4679   15.8497   67.0590 H   0  0  0  0  0  0  0  0  0  0  0  0
   44.3276   13.6836   68.2775 H   0  0  0  0  0  0  0  0  0  0  0  0
   40.3829   12.9893   66.5451 H   0  0  0  0  0  0  0  0  0  0  0  0
   41.6065   11.3134   70.2954 H   0  0  0  0  0  0  0  0  0  0  0  0
   42.4943   12.8353   70.1902 H   0  0  0  0  0  0  0  0  0  0  0  0
   44.6210   12.3046   74.4174 H   0  0  0  0  0  0  0  0  0  0  0  0
   46.1563   12.9334   73.8261 H   0  0  0  0  0  0  0  0  0  0  0  0
   45.4527   15.1792   73.9802 H   0  0  0  0  0  0  0  0  0  0  0  0
   44.3108   14.5344   75.1433 H   0  0  0  0  0  0  0  0  0  0  0  0
   43.0158   15.0112   71.0981 H   0  0  0  0  0  0  0  0  0  0  0  0
   44.4045   15.9746   71.5911 H   0  0  0  0  0  0  0  0  0  0  0  0
   45.8852   14.1707   71.3760 H   0  0  0  0  0  0  0  0  0  0  0  0
   44.6494   13.5201   70.3240 H   0  0  0  0  0  0  0  0  0  0  0  0
   38.8781   15.4004   72.6040 H   0  0  0  0  0  0  0  0  0  0  0  0
   39.4550   15.0333   74.2142 H   0  0  0  0  0  0  0  0  0  0  0  0
   39.6506   13.4437   75.6983 H   0  0  0  0  0  0  0  0  0  0  0  0
   40.4168   10.7993   72.2966 H   0  0  0  0  0  0  0  0  0  0  0  0
   41.3723    9.0978   73.8611 H   0  0  0  0  0  0  0  0  0  0  0  0
   41.4735    9.5364   76.3176 H   0  0  0  0  0  0  0  0  0  0  0  0
   38.5972   11.5661   78.0787 H   0  0  0  0  0  0  0  0  0  0  0  0
   39.6550   11.6554   79.4751 H   0  0  0  0  0  0  0  0  0  0  0  0
   36.9617   13.5327   78.0955 H   0  0  0  0  0  0  0  0  0  0  0  0
   41.1586   14.1642   79.3238 H   0  0  0  0  0  0  0  0  0  0  0  0
   40.6225   16.5155   78.6402 H   0  0  0  0  0  0  0  0  0  0  0  0
   40.1686   16.2429   80.3209 H   0  0  0  0  0  0  0  0  0  0  0  0
   38.5826   17.2995   78.2138 H   0  0  0  0  0  0  0  0  0  0  0  0
   38.1285   17.0283   79.8988 H   0  0  0  0  0  0  0  0  0  0  0  0
   36.4707   15.9549   78.3553 H   0  0  0  0  0  0  0  0  0  0  0  0
  1  2  2  0  0  0  0
  1  6  1  0  0  0  0
  1 49  1  0  0  0  0
  2  3  1  0  0  0  0
  2 50  1  0  0  0  0
  3  4  2  0  0  0  0
  3 51  1  0  0  0  0
  4  5  1  0  0  0  0
  4 52  1  0  0  0  0
  5  6  1  0  0  0  0
  5  7  1  0  0  0  0
  5 53  1  6  0  0  0
  6 54  1  0  0  0  0
  6 55  1  0  0  0  0
  7 24  1  0  0  0  0
  7 56  1  0  0  0  0
  7 57  1  0  0  0  0
  8  9  2  0  0  0  0
  8 13  1  0  0  0  0
  8 24  1  0  0  0  0
  9 10  1  0  0  0  0
  9 58  1  0  0  0  0
 10 11  2  0  0  0  0
 10 59  1  0  0  0  0
 11 12  1  0  0  0  0
 11 60  1  0  0  0  0
 12 13  2  0  0  0  0
 12 14  1  0  0  0  0
 13 61  1  0  0  0  0
 14 15  1  0  0  0  0
 14 25  2  0  0  0  0
 15 16  1  0  0  0  0
 15 62  1  0  0  0  0
 15 63  1  0  0  0  0
 16 17  1  0  0  0  0
 16 26  2  0  0  0  0
 17 22  1  0  0  0  0
 17 27  2  0  0  0  0
 18 19  1  0  0  0  0
 18 22  1  0  0  0  0
 18 64  1  0  0  0  0
 18 65  1  0  0  0  0
 19 23  1  0  0  0  0
 19 66  1  0  0  0  0
 19 67  1  0  0  0  0
 20 21  1  0  0  0  0
 20 23  1  0  0  0  0
 20 68  1  0  0  0  0
 20 69  1  0  0  0  0
 21 22  1  0  0  0  0
 21 70  1  0  0  0  0
 21 71  1  0  0  0  0
 23 28  1  0  0  0  0
 28 29  1  0  0  0  0
 28 45  2  0  0  0  0
 29 30  1  0  0  0  0
 29 46  2  0  0  0  0
 30 31  1  0  0  0  0
 30 72  1  0  0  0  0
 30 73  1  0  0  0  0
 31 33  1  0  0  0  0
 31 47  2  0  0  0  0
 32 33  2  0  0  0  0
 32 37  1  0  0  0  0
 32 74  1  0  0  0  0
 33 34  1  0  0  0  0
 34 35  2  0  0  0  0
 34 75  1  0  0  0  0
 35 36  1  0  0  0  0
 35 76  1  0  0  0  0
 36 37  2  0  0  0  0
 36 77  1  0  0  0  0
 37 48  1  0  0  0  0
 38 40  1  0  0  0  0
 38 48  1  0  0  0  0
 38 78  1  0  0  0  0
 38 79  1  0  0  0  0
 39 40  1  0  0  0  0
 39 44  2  0  0  0  0
 39 80  1  0  0  0  0
 40 41  2  0  0  0  0
 41 42  1  0  0  0  0
 41 81  1  0  0  0  0
 42 43  1  0  0  0  0
 42 82  1  0  0  0  0
 42 83  1  0  0  0  0
 43 44  1  0  0  0  0
 43 84  1  0  0  0  0
 43 85  1  0  0  0  0
 44 86  1  0  0  0  0
M  END
$$$$
