LZQ
 OpenBabel04091911383D

 51 53  0  0  1  0  0  0  0  0999 V2000
   45.7996   12.1568    2.4038 C   0  0  0  0  0  0  0  0  0  0  0  0
   45.9442   14.5907    2.6063 C   0  0  1  0  0  0  0  0  0  0  0  0
   47.5448   15.6340    4.2033 C   0  0  0  0  0  0  0  0  0  0  0  0
   48.4276   16.7464    4.6551 C   0  0  0  0  0  0  0  0  0  0  0  0
   49.2866   10.4748   -1.7288 C   0  0  0  0  0  0  0  0  0  0  0  0
   45.7222   10.4425   -3.5353 C   0  0  0  0  0  0  0  0  0  0  0  0
   47.0434   11.7159   -1.6715 N   0  0  0  0  0  0  0  0  0  0  0  0
   47.9598   17.9219    4.4877 O   0  0  0  0  0  0  0  0  0  0  0  0
   45.9277   10.9194    1.8099 C   0  0  0  0  0  0  0  0  0  0  0  0
   49.9917   10.3470   -0.5144 C   0  0  0  0  0  0  0  0  0  0  0  0
   45.4097   10.4216   -4.9229 C   0  0  0  0  0  0  0  0  0  0  0  0
   44.6231   15.0460    2.8237 O   0  0  0  0  0  0  0  0  0  0  0  0
   47.3951   14.6913    4.9767 O   0  0  0  0  0  0  0  0  0  0  0  0
   49.5436   16.4176    5.1228 O   0  0  0  0  0  0  0  0  0  0  0  0
   46.3459   10.8377    0.4691 C   0  0  0  0  0  0  0  0  0  0  0  0
   50.6971    9.1711   -0.1869 C   0  0  0  0  0  0  0  0  0  0  0  0
   45.0973    9.2224   -5.6039 C   0  0  0  0  0  0  0  0  0  0  0  0
   46.6493   11.9587   -0.3270 C   0  0  0  0  0  0  0  0  0  0  0  0
   50.7429    8.0783   -1.0682 C   0  0  0  0  0  0  0  0  0  0  0  0
   45.0705    8.0042   -4.9355 C   0  0  0  0  0  0  0  0  0  0  0  0
   46.5144   13.2241    0.3304 C   0  0  0  0  0  0  0  0  0  0  0  0
   50.0763    8.2081   -2.2937 C   0  0  0  0  0  0  0  0  0  0  0  0
   45.3437    8.0051   -3.5601 C   0  0  0  0  0  0  0  0  0  0  0  0
   46.0995   13.3507    1.6984 C   0  0  0  0  0  0  0  0  0  0  0  0
   49.3685    9.3836   -2.6238 C   0  0  0  0  0  0  0  0  0  0  0  0
   45.6512    9.2029   -2.8803 C   0  0  0  0  0  0  0  0  0  0  0  0
   46.8999   15.7648    2.7811 C   0  0  0  0  0  0  0  0  0  0  0  0
   48.4913   11.7572   -2.0532 C   0  0  0  0  0  0  0  0  0  0  0  0
   46.0110   11.7672   -2.7681 C   0  0  0  0  0  0  0  0  0  0  0  0
   45.5047   12.1950    3.4558 H   0  0  0  0  0  0  0  0  0  0  0  0
   46.1128   14.0643    3.5318 H   0  0  0  0  0  0  0  0  0  0  0  0
   45.7196   10.0293    2.3961 H   0  0  0  0  0  0  0  0  0  0  0  0
   49.9940   11.1652    0.2005 H   0  0  0  0  0  0  0  0  0  0  0  0
   45.3921   11.3407   -5.5030 H   0  0  0  0  0  0  0  0  0  0  0  0
   44.1011   14.9061    2.0204 H   0  0  0  0  0  0  0  0  0  0  0  0
   46.4413    9.8356    0.0600 H   0  0  0  0  0  0  0  0  0  0  0  0
   51.2095    9.0911    0.7719 H   0  0  0  0  0  0  0  0  0  0  0  0
   44.8746    9.2268   -6.6765 H   0  0  0  0  0  0  0  0  0  0  0  0
   51.2630    7.1819   -0.8049 H   0  0  0  0  0  0  0  0  0  0  0  0
   44.8420    7.0795   -5.4430 H   0  0  0  0  0  0  0  0  0  0  0  0
   46.7373   14.1508   -0.2118 H   0  0  0  0  0  0  0  0  0  0  0  0
   50.1064    7.3663   -2.9875 H   0  0  0  0  0  0  0  0  0  0  0  0
   45.3230    7.0633   -3.0140 H   0  0  0  0  0  0  0  0  0  0  0  0
   48.8787    9.4304   -3.5917 H   0  0  0  0  0  0  0  0  0  0  0  0
   45.8418    9.1469   -1.8186 H   0  0  0  0  0  0  0  0  0  0  0  0
   46.3399   16.7130    2.7870 H   0  0  0  0  0  0  0  0  0  0  0  0
   47.6927   15.8350    2.0482 H   0  0  0  0  0  0  0  0  0  0  0  0
   48.5882   11.9430   -3.1364 H   0  0  0  0  0  0  0  0  0  0  0  0
   49.0003   12.6275   -1.6092 H   0  0  0  0  0  0  0  0  0  0  0  0
   45.0561   12.1423   -2.3735 H   0  0  0  0  0  0  0  0  0  0  0  0
   46.3183   12.5146   -3.5172 H   0  0  0  0  0  0  0  0  0  0  0  0
  1  9  2  0  0  0  0
  1 24  1  0  0  0  0
  1 30  1  0  0  0  0
  2 12  1  0  0  0  0
  2 24  1  0  0  0  0
  2 27  1  0  0  0  0
  2 31  1  1  0  0  0
  3  4  1  0  0  0  0
  3 13  2  0  0  0  0
  3 27  1  0  0  0  0
  4  8  2  0  0  0  0
  4 14  1  0  0  0  0
  5 10  2  0  0  0  0
  5 25  1  0  0  0  0
  5 28  1  0  0  0  0
  6 11  2  0  0  0  0
  6 26  1  0  0  0  0
  6 29  1  0  0  0  0
  7 18  1  0  0  0  0
  7 28  1  0  0  0  0
  7 29  1  0  0  0  0
  9 15  1  0  0  0  0
  9 32  1  0  0  0  0
 10 16  1  0  0  0  0
 10 33  1  0  0  0  0
 11 17  1  0  0  0  0
 11 34  1  0  0  0  0
 12 35  1  0  0  0  0
 15 18  2  0  0  0  0
 15 36  1  0  0  0  0
 16 19  2  0  0  0  0
 16 37  1  0  0  0  0
 17 20  2  0  0  0  0
 17 38  1  0  0  0  0
 18 21  1  0  0  0  0
 19 22  1  0  0  0  0
 19 39  1  0  0  0  0
 20 23  1  0  0  0  0
 20 40  1  0  0  0  0
 21 24  2  0  0  0  0
 21 41  1  0  0  0  0
 22 25  2  0  0  0  0
 22 42  1  0  0  0  0
 23 26  2  0  0  0  0
 23 43  1  0  0  0  0
 25 44  1  0  0  0  0
 26 45  1  0  0  0  0
 27 46  1  0  0  0  0
 27 47  1  0  0  0  0
 28 48  1  0  0  0  0
 28 49  1  0  0  0  0
 29 50  1  0  0  0  0
 29 51  1  0  0  0  0
M  END
$$$$
