M35
 OpenBabel04091913423D

 58 61  0  0  0  0  0  0  0  0999 V2000
   11.2010   27.6746   13.2863 C   0  0  0  0  0  0  0  0  0  0  0  0
    2.6997   26.8179   14.2026 F   0  0  0  0  0  0  0  0  0  0  0  0
    7.0264   27.8684   14.4293 N   0  3  0  0  0  0  0  0  0  0  0  0
    6.1210   34.4653   22.1200 S   0  0  0  0  0  0  0  0  0  0  0  0
   10.7189   26.8018   14.2886 C   0  0  0  0  0  0  0  0  0  0  0  0
    3.0754   28.3427   12.6866 F   0  0  0  0  0  0  0  0  0  0  0  0
    9.3374   26.8539   14.6677 C   0  0  0  0  0  0  0  0  0  0  0  0
    3.8488   26.3292   12.3901 F   0  0  0  0  0  0  0  0  0  0  0  0
   10.0013   29.6635   10.4090 N   0  3  0  0  0  0  0  0  0  0  0  0
    8.1880   29.5860   16.3710 O   0  0  0  0  0  0  0  0  0  0  0  0
    8.4403   27.7945   14.0670 C   0  0  0  0  0  0  0  0  0  0  0  0
    7.5973   29.8817   19.2586 F   0  0  0  0  0  0  0  0  0  0  0  0
    5.4006   34.4072   20.8505 O   0  0  0  0  0  0  0  0  0  0  0  0
    8.9348   28.6476   13.0551 C   0  0  0  0  0  0  0  0  0  0  0  0
    6.1960   30.5089   16.9667 N   0  0  0  0  0  0  0  0  0  0  0  0
    5.6328   35.3335   23.1604 O   0  0  0  0  0  0  0  0  0  0  0  0
   10.3109   28.5809   12.6611 C   0  0  0  0  0  0  0  0  0  0  0  0
    6.1146   27.2444   13.6141 N   0  0  0  0  0  0  0  0  0  0  0  0
    6.7792   31.5217   17.7853 C   0  0  0  0  0  0  0  0  0  0  0  0
    6.9323   29.5907   16.2757 C   0  0  0  0  0  0  0  0  0  0  0  0
    6.1110   32.8270   22.7856 C   0  0  0  0  0  0  0  0  0  0  0  0
    4.8940   27.6910   14.0199 C   0  0  0  0  0  0  0  0  0  0  0  0
    3.6362   27.2807   13.3287 C   0  0  0  0  0  0  0  0  0  0  0  0
    5.0069   28.6141   15.0610 C   0  0  0  0  0  0  0  0  0  0  0  0
    6.3379   28.7522   15.2990 C   0  0  0  0  0  0  0  0  0  0  0  0
    8.0623   32.1613   19.8117 C   0  0  0  0  0  0  0  0  0  0  0  0
    9.7860   35.1743   20.3249 C   0  0  0  0  0  0  0  0  0  0  0  0
    7.9488   33.5395   19.5231 C   0  0  0  0  0  0  0  0  0  0  0  0
    8.4997   34.5894   20.5080 C   0  0  0  0  0  0  0  0  0  0  0  0
    7.2564   33.8719   18.2984 C   0  0  0  0  0  0  0  0  0  0  0  0
   10.8547   29.5241   11.6211 C   0  0  0  0  0  0  0  0  0  0  0  0
    7.8231   34.9763   21.7252 C   0  0  0  0  0  0  0  0  0  0  0  0
    6.6491   32.8901   17.4488 C   0  0  0  0  0  0  0  0  0  0  0  0
   10.3697   36.0740   21.2883 C   0  0  0  0  0  0  0  0  0  0  0  0
    8.3933   35.8870   22.6715 C   0  0  0  0  0  0  0  0  0  0  0  0
    9.6814   36.4268   22.4625 C   0  0  0  0  0  0  0  0  0  0  0  0
    7.4923   31.1848   18.9517 C   0  0  0  0  0  0  0  0  0  0  0  0
   12.2738   27.6409   12.9943 H   0  0  0  0  0  0  0  0  0  0  0  0
   11.4075   26.0885   14.7747 H   0  0  0  0  0  0  0  0  0  0  0  0
    8.9854   26.1648   15.4356 H   0  0  0  0  0  0  0  0  0  0  0  0
   10.4205   30.3135    9.7303 H   0  0  0  0  0  0  0  0  0  0  0  0
    9.8716   28.7556    9.9468 H   0  0  0  0  0  0  0  0  0  0  0  0
    8.2526   29.3613   12.5863 H   0  0  0  0  0  0  0  0  0  0  0  0
    5.2002   30.4182   16.9396 H   0  0  0  0  0  0  0  0  0  0  0  0
    6.4515   32.1126   22.0432 H   0  0  0  0  0  0  0  0  0  0  0  0
    5.0722   32.5813   23.0595 H   0  0  0  0  0  0  0  0  0  0  0  0
    6.7307   32.7958   23.6829 H   0  0  0  0  0  0  0  0  0  0  0  0
    4.1827   29.1398   15.5618 H   0  0  0  0  0  0  0  0  0  0  0  0
    8.5836   31.8216   20.7270 H   0  0  0  0  0  0  0  0  0  0  0  0
   10.3817   34.9335   19.4229 H   0  0  0  0  0  0  0  0  0  0  0  0
    7.1536   34.9199   18.0154 H   0  0  0  0  0  0  0  0  0  0  0  0
   10.9652   30.5308   12.0347 H   0  0  0  0  0  0  0  0  0  0  0  0
   11.8235   29.1717   11.2524 H   0  0  0  0  0  0  0  0  0  0  0  0
    6.1182   33.1801   16.5318 H   0  0  0  0  0  0  0  0  0  0  0  0
   11.3668   36.4925   21.1095 H   0  0  0  0  0  0  0  0  0  0  0  0
    7.8226   36.1602   23.5757 H   0  0  0  0  0  0  0  0  0  0  0  0
   10.1213   37.1099   23.2118 H   0  0  0  0  0  0  0  0  0  0  0  0
    9.0736   30.0287   10.6536 H   0  0  0  0  0  0  0  0  0  0  0  0
  1  5  2  0  0  0  0
  1 17  1  0  0  0  0
  1 38  1  0  0  0  0
  2 23  1  0  0  0  0
  3 11  1  0  0  0  0
  3 18  1  0  0  0  0
  3 25  2  0  0  0  0
  4 13  2  0  0  0  0
  4 16  2  0  0  0  0
  4 21  1  0  0  0  0
  4 32  1  0  0  0  0
  5  7  1  0  0  0  0
  5 39  1  0  0  0  0
  6 23  1  0  0  0  0
  7 11  2  0  0  0  0
  7 40  1  0  0  0  0
  8 23  1  0  0  0  0
  9 31  1  0  0  0  0
  9 41  1  0  0  0  0
  9 42  1  0  0  0  0
  9 58  1  0  0  0  0
 10 20  2  0  0  0  0
 11 14  1  0  0  0  0
 12 37  1  0  0  0  0
 14 17  2  0  0  0  0
 14 43  1  0  0  0  0
 15 19  1  0  0  0  0
 15 20  1  0  0  0  0
 15 44  1  0  0  0  0
 17 31  1  0  0  0  0
 18 22  1  0  0  0  0
 19 33  2  0  0  0  0
 19 37  1  0  0  0  0
 20 25  1  0  0  0  0
 21 45  1  0  0  0  0
 21 46  1  0  0  0  0
 21 47  1  0  0  0  0
 22 23  1  0  0  0  0
 22 24  2  0  0  0  0
 24 25  1  0  0  0  0
 24 48  1  0  0  0  0
 26 28  1  0  0  0  0
 26 37  2  0  0  0  0
 26 49  1  0  0  0  0
 27 29  2  0  0  0  0
 27 34  1  0  0  0  0
 27 50  1  0  0  0  0
 28 29  1  0  0  0  0
 28 30  2  0  0  0  0
 29 32  1  0  0  0  0
 30 33  1  0  0  0  0
 30 51  1  0  0  0  0
 31 52  1  0  0  0  0
 31 53  1  0  0  0  0
 32 35  2  0  0  0  0
 33 54  1  0  0  0  0
 34 36  2  0  0  0  0
 34 55  1  0  0  0  0
 35 36  1  0  0  0  0
 35 56  1  0  0  0  0
 36 57  1  0  0  0  0
M  CHG  2   3   1   9   1
M  END
$$$$
