M35
 OpenBabel04091913423D

 58 61  0  0  0  0  0  0  0  0999 V2000
   17.2990   67.1735   25.4495 C   0  0  0  0  0  0  0  0  0  0  0  0
   24.1281   67.9106   21.0716 F   0  0  0  0  0  0  0  0  0  0  0  0
   20.0691   68.5193   22.4428 N   0  3  0  0  0  0  0  0  0  0  0  0
   18.9940   78.5833   21.2757 S   0  0  0  0  0  0  0  0  0  0  0  0
   16.9427   67.0870   24.0846 C   0  0  0  0  0  0  0  0  0  0  0  0
   22.8506   66.3278   20.2725 F   0  0  0  0  0  0  0  0  0  0  0  0
   17.8558   67.5368   23.0902 C   0  0  0  0  0  0  0  0  0  0  0  0
   23.1064   68.1925   19.1651 F   0  0  0  0  0  0  0  0  0  0  0  0
   20.1846   67.1507   27.6059 N   0  3  0  0  0  0  0  0  0  0  0  0
   18.8657   70.9806   23.2566 O   0  0  0  0  0  0  0  0  0  0  0  0
   19.1191   68.0876   23.4533 C   0  0  0  0  0  0  0  0  0  0  0  0
   17.7015   72.9997   21.2774 F   0  0  0  0  0  0  0  0  0  0  0  0
   20.0578   77.6043   21.2107 O   0  0  0  0  0  0  0  0  0  0  0  0
   19.4585   68.1819   24.8180 C   0  0  0  0  0  0  0  0  0  0  0  0
   20.3138   72.2254   22.0267 N   0  0  0  0  0  0  0  0  0  0  0  0
   19.2968   79.9797   20.9491 O   0  0  0  0  0  0  0  0  0  0  0  0
   18.5486   67.7180   25.8161 C   0  0  0  0  0  0  0  0  0  0  0  0
   20.9139   67.5803   21.8834 N   0  0  0  0  0  0  0  0  0  0  0  0
   19.7376   73.4632   22.4040 C   0  0  0  0  0  0  0  0  0  0  0  0
   19.7883   71.0143   22.4612 C   0  0  0  0  0  0  0  0  0  0  0  0
   17.6119   78.0564   20.2439 C   0  0  0  0  0  0  0  0  0  0  0  0
   21.8076   68.3066   21.1490 C   0  0  0  0  0  0  0  0  0  0  0  0
   22.9549   67.6678   20.4150 C   0  0  0  0  0  0  0  0  0  0  0  0
   21.5425   69.6754   21.2507 C   0  0  0  0  0  0  0  0  0  0  0  0
   20.4707   69.8207   22.0780 C   0  0  0  0  0  0  0  0  0  0  0  0
   17.8503   75.0692   22.4671 C   0  0  0  0  0  0  0  0  0  0  0  0
   17.3293   77.5000   24.8757 C   0  0  0  0  0  0  0  0  0  0  0  0
   18.6014   75.9853   23.2373 C   0  0  0  0  0  0  0  0  0  0  0  0
   18.0554   77.3485   23.6661 C   0  0  0  0  0  0  0  0  0  0  0  0
   19.9386   75.5899   23.5797 C   0  0  0  0  0  0  0  0  0  0  0  0
   18.9123   67.8495   27.2673 C   0  0  0  0  0  0  0  0  0  0  0  0
   18.2501   78.5673   22.9282 C   0  0  0  0  0  0  0  0  0  0  0  0
   20.5240   74.3724   23.1537 C   0  0  0  0  0  0  0  0  0  0  0  0
   16.8682   78.7761   25.3405 C   0  0  0  0  0  0  0  0  0  0  0  0
   17.8088   79.8371   23.3935 C   0  0  0  0  0  0  0  0  0  0  0  0
   17.1234   79.9455   24.6145 C   0  0  0  0  0  0  0  0  0  0  0  0
   18.4194   73.8296   22.0637 C   0  0  0  0  0  0  0  0  0  0  0  0
   16.5866   66.8173   26.2160 H   0  0  0  0  0  0  0  0  0  0  0  0
   15.9677   66.6710   23.7910 H   0  0  0  0  0  0  0  0  0  0  0  0
   17.5663   67.4744   22.0441 H   0  0  0  0  0  0  0  0  0  0  0  0
   20.4207   67.2498   28.6025 H   0  0  0  0  0  0  0  0  0  0  0  0
   20.1122   66.1473   27.3870 H   0  0  0  0  0  0  0  0  0  0  0  0
   20.4201   68.6111   25.1018 H   0  0  0  0  0  0  0  0  0  0  0  0
   21.1245   72.2204   21.4450 H   0  0  0  0  0  0  0  0  0  0  0  0
   17.3577   77.0365   20.4809 H   0  0  0  0  0  0  0  0  0  0  0  0
   17.8758   78.1609   19.1996 H   0  0  0  0  0  0  0  0  0  0  0  0
   16.7487   78.7126   20.4660 H   0  0  0  0  0  0  0  0  0  0  0  0
   22.1072   70.4843   20.7693 H   0  0  0  0  0  0  0  0  0  0  0  0
   16.8231   75.3021   22.1577 H   0  0  0  0  0  0  0  0  0  0  0  0
   17.0982   76.6235   25.5021 H   0  0  0  0  0  0  0  0  0  0  0  0
   20.5549   76.2720   24.1647 H   0  0  0  0  0  0  0  0  0  0  0  0
   19.0596   68.8974   27.5493 H   0  0  0  0  0  0  0  0  0  0  0  0
   18.1532   67.4046   27.9201 H   0  0  0  0  0  0  0  0  0  0  0  0
   21.5491   74.1104   23.4421 H   0  0  0  0  0  0  0  0  0  0  0  0
   16.3132   78.8509   26.2786 H   0  0  0  0  0  0  0  0  0  0  0  0
   17.9912   80.7421   22.7937 H   0  0  0  0  0  0  0  0  0  0  0  0
   16.7949   80.9302   24.9783 H   0  0  0  0  0  0  0  0  0  0  0  0
   20.9657   67.5324   27.0573 H   0  0  0  0  0  0  0  0  0  0  0  0
  1  5  2  0  0  0  0
  1 17  1  0  0  0  0
  1 38  1  0  0  0  0
  2 23  1  0  0  0  0
  3 11  1  0  0  0  0
  3 18  1  0  0  0  0
  3 25  2  0  0  0  0
  4 13  2  0  0  0  0
  4 16  2  0  0  0  0
  4 21  1  0  0  0  0
  4 32  1  0  0  0  0
  5  7  1  0  0  0  0
  5 39  1  0  0  0  0
  6 23  1  0  0  0  0
  7 11  2  0  0  0  0
  7 40  1  0  0  0  0
  8 23  1  0  0  0  0
  9 31  1  0  0  0  0
  9 41  1  0  0  0  0
  9 42  1  0  0  0  0
  9 58  1  0  0  0  0
 10 20  2  0  0  0  0
 11 14  1  0  0  0  0
 12 37  1  0  0  0  0
 14 17  2  0  0  0  0
 14 43  1  0  0  0  0
 15 19  1  0  0  0  0
 15 20  1  0  0  0  0
 15 44  1  0  0  0  0
 17 31  1  0  0  0  0
 18 22  1  0  0  0  0
 19 33  2  0  0  0  0
 19 37  1  0  0  0  0
 20 25  1  0  0  0  0
 21 45  1  0  0  0  0
 21 46  1  0  0  0  0
 21 47  1  0  0  0  0
 22 23  1  0  0  0  0
 22 24  2  0  0  0  0
 24 25  1  0  0  0  0
 24 48  1  0  0  0  0
 26 28  1  0  0  0  0
 26 37  2  0  0  0  0
 26 49  1  0  0  0  0
 27 29  2  0  0  0  0
 27 34  1  0  0  0  0
 27 50  1  0  0  0  0
 28 29  1  0  0  0  0
 28 30  2  0  0  0  0
 29 32  1  0  0  0  0
 30 33  1  0  0  0  0
 30 51  1  0  0  0  0
 31 52  1  0  0  0  0
 31 53  1  0  0  0  0
 32 35  2  0  0  0  0
 33 54  1  0  0  0  0
 34 36  2  0  0  0  0
 34 55  1  0  0  0  0
 35 36  1  0  0  0  0
 35 56  1  0  0  0  0
 36 57  1  0  0  0  0
M  CHG  2   3   1   9   1
M  END
$$$$
