M4S
 OpenBabel04091913363D

 21 21  0  0  0  0  0  0  0  0999 V2000
    2.5271   -5.5558    7.6846 C   0  0  0  0  0  0  0  0  0  0  0  0
    2.5525   -5.1574    4.0885 N   0  0  0  0  0  0  0  0  0  0  0  0
    5.4201   -6.2156    9.7934 O   0  0  0  0  0  0  0  0  0  0  0  0
    1.8072   -6.2039    5.1249 S   0  0  0  0  0  0  0  0  0  0  0  0
    3.4052   -5.6036    8.7661 C   0  0  0  0  0  0  0  0  0  0  0  0
    1.9312   -7.5303    4.5591 O   0  0  0  0  0  0  0  0  0  0  0  0
    4.6661   -6.2092    8.6518 C   0  0  0  0  0  0  0  0  0  0  0  0
    0.5468   -5.6176    5.4922 O   0  0  0  0  0  0  0  0  0  0  0  0
    5.0666   -6.7407    7.4254 C   0  0  0  0  0  0  0  0  0  0  0  0
    2.9267   -6.1293    6.4868 C   0  0  0  0  0  0  0  0  0  0  0  0
    6.6325   -6.9672    9.7694 C   0  0  0  0  0  0  0  0  0  0  0  0
    4.1945   -6.7066    6.3416 C   0  0  0  0  0  0  0  0  0  0  0  0
    1.5451   -5.1007    7.7790 H   0  0  0  0  0  0  0  0  0  0  0  0
    3.5201   -5.3306    3.8497 H   0  0  0  0  0  0  0  0  0  0  0  0
    2.0123   -4.3736    3.7452 H   0  0  0  0  0  0  0  0  0  0  0  0
    3.0875   -5.1761    9.7109 H   0  0  0  0  0  0  0  0  0  0  0  0
    6.0410   -7.1958    7.2995 H   0  0  0  0  0  0  0  0  0  0  0  0
    7.1144   -6.8665   10.7475 H   0  0  0  0  0  0  0  0  0  0  0  0
    7.3295   -6.5808    9.0178 H   0  0  0  0  0  0  0  0  0  0  0  0
    6.4356   -8.0321    9.6000 H   0  0  0  0  0  0  0  0  0  0  0  0
    4.4988   -7.1493    5.3907 H   0  0  0  0  0  0  0  0  0  0  0  0
  1  5  2  0  0  0  0
  1 10  1  0  0  0  0
  1 13  1  0  0  0  0
  2  4  1  0  0  0  0
  2 14  1  0  0  0  0
  2 15  1  0  0  0  0
  3  7  1  0  0  0  0
  3 11  1  0  0  0  0
  4  6  2  0  0  0  0
  4  8  2  0  0  0  0
  4 10  1  0  0  0  0
  5  7  1  0  0  0  0
  5 16  1  0  0  0  0
  7  9  2  0  0  0  0
  9 12  1  0  0  0  0
  9 17  1  0  0  0  0
 10 12  2  0  0  0  0
 11 18  1  0  0  0  0
 11 19  1  0  0  0  0
 11 20  1  0  0  0  0
 12 21  1  0  0  0  0
M  END
$$$$
