M8B
 OpenBabel04091916463D

101103  0  0  1  0  0  0  0  0999 V2000
   19.9818   18.0770    6.8237 C   0  0  0  0  0  0  0  0  0  0  0  0
   18.5788   17.9284    6.5620 O   0  0  0  0  0  0  0  0  0  0  0  0
   18.1353   18.8523    5.6562 C   0  0  0  0  0  0  0  0  0  0  0  0
   18.8694   19.6580    5.0932 O   0  0  0  0  0  0  0  0  0  0  0  0
   16.8012   18.7994    5.4888 N   0  0  0  0  0  0  0  0  0  0  0  0
   16.0567   19.8010    4.6987 C   0  0  1  0  0  0  0  0  0  0  0  0
   15.2988   19.1310    3.5344 C   0  0  0  0  0  0  0  0  0  0  0  0
   16.4011   18.5941    2.6086 C   0  0  0  0  0  0  0  0  0  0  0  0
   14.3995   17.9716    3.9998 C   0  0  0  0  0  0  0  0  0  0  0  0
   14.4865   20.1545    2.7232 C   0  0  0  0  0  0  0  0  0  0  0  0
   15.1907   20.5982    5.6814 C   0  0  0  0  0  0  0  0  0  0  0  0
   14.0943   20.2402    6.0606 O   0  0  0  0  0  0  0  0  0  0  0  0
   15.8812   21.7261    6.1247 N   0  0  0  0  0  0  0  0  0  0  0  0
   15.3693   22.4734    7.1927 N   0  0  0  0  0  0  0  0  0  0  0  0
   16.2538   22.3624    8.3620 C   0  0  0  0  0  0  0  0  0  0  0  0
   16.3362   20.9655    8.9067 C   0  0  0  0  0  0  0  0  0  0  0  0
   15.1826   20.2794    9.2960 C   0  0  0  0  0  0  0  0  0  0  0  0
   15.2827   18.9765    9.7763 C   0  0  0  0  0  0  0  0  0  0  0  0
   16.5345   18.3847    9.9334 C   0  0  0  0  0  0  0  0  0  0  0  0
   16.6386   16.6362   10.6491 Br  0  0  0  0  0  0  0  0  0  0  0  0
   17.6901   19.0763    9.5749 C   0  0  0  0  0  0  0  0  0  0  0  0
   17.5857   20.3531    9.0278 C   0  0  0  0  0  0  0  0  0  0  0  0
   15.2812   23.8761    6.7995 C   0  0  0  0  0  0  0  0  0  0  0  0
   13.8758   24.2518    6.3609 C   0  0  0  0  0  0  0  0  0  0  0  0
   13.4135   23.6487    5.0350 C   0  0  0  0  0  0  0  0  0  0  0  0
   12.1258   24.3462    4.5399 C   0  0  2  0  0  0  0  0  0  0  0  0
   11.6825   23.6537    3.2234 C   0  0  0  0  0  0  0  0  0  0  0  0
   12.4413   25.7348    4.3279 O   0  0  0  0  0  0  0  0  0  0  0  0
   10.9562   24.3068    5.5505 C   0  0  0  0  0  0  0  0  0  0  0  0
   10.5374   23.2439    6.0382 O   0  0  0  0  0  0  0  0  0  0  0  0
   10.3390   25.5089    5.8034 N   0  0  0  0  0  0  0  0  0  0  0  0
    9.0439   25.6238    6.4683 C   0  0  1  0  0  0  0  0  0  0  0  0
    9.1764   26.1778    7.9129 C   0  0  0  0  0  0  0  0  0  0  0  0
    9.9755   27.4899    7.9695 C   0  0  0  0  0  0  0  0  0  0  0  0
    7.7754   26.4434    8.4904 C   0  0  0  0  0  0  0  0  0  0  0  0
    9.8912   25.1348    8.7859 C   0  0  0  0  0  0  0  0  0  0  0  0
    8.1665   26.5538    5.5828 C   0  0  0  0  0  0  0  0  0  0  0  0
    8.5943   27.6336    5.1832 O   0  0  0  0  0  0  0  0  0  0  0  0
    6.8810   26.1456    5.3099 N   0  0  0  0  0  0  0  0  0  0  0  0
    6.0491   26.9186    4.4079 C   0  0  0  0  0  0  0  0  0  0  0  0
    5.1124   25.9622    3.7368 C   0  0  0  0  0  0  0  0  0  0  0  0
    5.3028   25.3709    2.5533 C   0  0  0  0  0  0  0  0  0  0  0  0
    6.4646   25.5893    1.6228 C   0  0  0  0  0  0  0  0  0  0  0  0
    7.7931   25.0548    2.0666 C   0  0  0  0  0  0  0  0  0  0  0  0
    8.9370   25.8269    1.8123 C   0  0  0  0  0  0  0  0  0  0  0  0
   10.1994   25.3623    2.1478 C   0  0  0  0  0  0  0  0  0  0  0  0
   10.3294   24.1153    2.7557 C   0  0  0  0  0  0  0  0  0  0  0  0
    9.1917   23.3338    3.0070 C   0  0  0  0  0  0  0  0  0  0  0  0
    7.9293   23.7946    2.6540 C   0  0  0  0  0  0  0  0  0  0  0  0
   20.3141   17.3302    7.5497 H   0  0  0  0  0  0  0  0  0  0  0  0
   20.1892   19.0701    7.2423 H   0  0  0  0  0  0  0  0  0  0  0  0
   20.5543   17.9369    5.9015 H   0  0  0  0  0  0  0  0  0  0  0  0
   16.2698   18.0960    5.9892 H   0  0  0  0  0  0  0  0  0  0  0  0
   16.7755   20.5005    4.2539 H   0  0  0  0  0  0  0  0  0  0  0  0
   15.9772   18.0829    1.7436 H   0  0  0  0  0  0  0  0  0  0  0  0
   17.0540   17.8938    3.1383 H   0  0  0  0  0  0  0  0  0  0  0  0
   17.0254   19.4235    2.2535 H   0  0  0  0  0  0  0  0  0  0  0  0
   13.5951   18.3196    4.6539 H   0  0  0  0  0  0  0  0  0  0  0  0
   14.9630   17.2094    4.5495 H   0  0  0  0  0  0  0  0  0  0  0  0
   13.9332   17.4640    3.1499 H   0  0  0  0  0  0  0  0  0  0  0  0
   15.1225   20.9782    2.3755 H   0  0  0  0  0  0  0  0  0  0  0  0
   13.6697   20.5857    3.3084 H   0  0  0  0  0  0  0  0  0  0  0  0
   14.0491   19.6883    1.8321 H   0  0  0  0  0  0  0  0  0  0  0  0
   16.8011   21.9670    5.7574 H   0  0  0  0  0  0  0  0  0  0  0  0
   15.8872   23.0038    9.1731 H   0  0  0  0  0  0  0  0  0  0  0  0
   17.2606   22.7041    8.0893 H   0  0  0  0  0  0  0  0  0  0  0  0
   14.2077   20.7551    9.1885 H   0  0  0  0  0  0  0  0  0  0  0  0
   14.3790   18.4328   10.0267 H   0  0  0  0  0  0  0  0  0  0  0  0
   18.6741   18.6407    9.7044 H   0  0  0  0  0  0  0  0  0  0  0  0
   18.4742   20.8794    8.6867 H   0  0  0  0  0  0  0  0  0  0  0  0
   16.0069   24.1023    6.0098 H   0  0  0  0  0  0  0  0  0  0  0  0
   15.5406   24.5116    7.6537 H   0  0  0  0  0  0  0  0  0  0  0  0
   13.8604   25.3433    6.2853 H   0  0  0  0  0  0  0  0  0  0  0  0
   13.1636   23.9703    7.1442 H   0  0  0  0  0  0  0  0  0  0  0  0
   13.2606   22.5685    5.1352 H   0  0  0  0  0  0  0  0  0  0  0  0
   14.2035   23.7899    4.2807 H   0  0  0  0  0  0  0  0  0  0  0  0
   11.6487   22.5596    3.3346 H   0  0  0  0  0  0  0  0  0  0  0  0
   12.4021   23.8571    2.4196 H   0  0  0  0  0  0  0  0  0  0  0  0
   13.1842   25.7809    3.7056 H   0  0  0  0  0  0  0  0  0  0  0  0
   10.7440   26.3409    5.3644 H   0  0  0  0  0  0  0  0  0  0  0  0
    8.5811   24.6287    6.5240 H   0  0  0  0  0  0  0  0  0  0  0  0
   10.0840   27.8389    9.0026 H   0  0  0  0  0  0  0  0  0  0  0  0
    9.4637   28.2799    7.4142 H   0  0  0  0  0  0  0  0  0  0  0  0
   10.9814   27.3754    7.5522 H   0  0  0  0  0  0  0  0  0  0  0  0
    7.1639   25.5348    8.4826 H   0  0  0  0  0  0  0  0  0  0  0  0
    7.2519   27.2042    7.9010 H   0  0  0  0  0  0  0  0  0  0  0  0
    7.8264   26.8161    9.5180 H   0  0  0  0  0  0  0  0  0  0  0  0
   10.8978   24.9232    8.4087 H   0  0  0  0  0  0  0  0  0  0  0  0
    9.3317   24.1934    8.7998 H   0  0  0  0  0  0  0  0  0  0  0  0
    9.9911   25.4879    9.8171 H   0  0  0  0  0  0  0  0  0  0  0  0
    6.5477   25.2486    5.6314 H   0  0  0  0  0  0  0  0  0  0  0  0
    6.6461   27.4722    3.6807 H   0  0  0  0  0  0  0  0  0  0  0  0
    5.4777   27.6500    4.9844 H   0  0  0  0  0  0  0  0  0  0  0  0
    4.1900   25.7441    4.2709 H   0  0  0  0  0  0  0  0  0  0  0  0
    4.5452   24.6981    2.1791 H   0  0  0  0  0  0  0  0  0  0  0  0
    6.5544   26.6669    1.4422 H   0  0  0  0  0  0  0  0  0  0  0  0
    6.2192   25.1166    0.6631 H   0  0  0  0  0  0  0  0  0  0  0  0
    8.8393   26.8068    1.3533 H   0  0  0  0  0  0  0  0  0  0  0  0
   11.0744   25.9775    1.9540 H   0  0  0  0  0  0  0  0  0  0  0  0
    9.2832   22.3678    3.4997 H   0  0  0  0  0  0  0  0  0  0  0  0
    7.0607   23.1713    2.8486 H   0  0  0  0  0  0  0  0  0  0  0  0
  1  2  1  0  0  0  0
  1 50  1  0  0  0  0
  1 51  1  0  0  0  0
  1 52  1  0  0  0  0
  2  3  1  0  0  0  0
  3  4  2  0  0  0  0
  3  5  1  0  0  0  0
  5  6  1  0  0  0  0
  5 53  1  0  0  0  0
  6  7  1  0  0  0  0
  6 11  1  0  0  0  0
  6 54  1  6  0  0  0
  7  8  1  0  0  0  0
  7  9  1  0  0  0  0
  7 10  1  0  0  0  0
  8 55  1  0  0  0  0
  8 56  1  0  0  0  0
  8 57  1  0  0  0  0
  9 58  1  0  0  0  0
  9 59  1  0  0  0  0
  9 60  1  0  0  0  0
 10 61  1  0  0  0  0
 10 62  1  0  0  0  0
 10 63  1  0  0  0  0
 11 12  2  0  0  0  0
 11 13  1  0  0  0  0
 13 14  1  0  0  0  0
 13 64  1  0  0  0  0
 14 15  1  0  0  0  0
 14 23  1  0  0  0  0
 15 16  1  0  0  0  0
 15 65  1  0  0  0  0
 15 66  1  0  0  0  0
 16 17  2  0  0  0  0
 16 22  1  0  0  0  0
 17 18  1  0  0  0  0
 17 67  1  0  0  0  0
 18 19  2  0  0  0  0
 18 68  1  0  0  0  0
 19 20  1  0  0  0  0
 19 21  1  0  0  0  0
 21 22  2  0  0  0  0
 21 69  1  0  0  0  0
 22 70  1  0  0  0  0
 23 24  1  0  0  0  0
 23 71  1  0  0  0  0
 23 72  1  0  0  0  0
 24 25  1  0  0  0  0
 24 73  1  0  0  0  0
 24 74  1  0  0  0  0
 25 75  1  0  0  0  0
 25 76  1  0  0  0  0
 26 25  1  1  0  0  0
 26 27  1  0  0  0  0
 26 28  1  0  0  0  0
 26 29  1  0  0  0  0
 27 47  1  0  0  0  0
 27 77  1  0  0  0  0
 27 78  1  0  0  0  0
 28 79  1  0  0  0  0
 29 30  2  0  0  0  0
 29 31  1  0  0  0  0
 31 32  1  0  0  0  0
 31 80  1  0  0  0  0
 32 33  1  0  0  0  0
 32 37  1  0  0  0  0
 32 81  1  1  0  0  0
 33 34  1  0  0  0  0
 33 35  1  0  0  0  0
 33 36  1  0  0  0  0
 34 82  1  0  0  0  0
 34 83  1  0  0  0  0
 34 84  1  0  0  0  0
 35 85  1  0  0  0  0
 35 86  1  0  0  0  0
 35 87  1  0  0  0  0
 36 88  1  0  0  0  0
 36 89  1  0  0  0  0
 36 90  1  0  0  0  0
 37 38  2  0  0  0  0
 37 39  1  0  0  0  0
 39 40  1  0  0  0  0
 39 91  1  0  0  0  0
 40 41  1  0  0  0  0
 40 92  1  0  0  0  0
 40 93  1  0  0  0  0
 41 42  2  0  0  0  0
 41 94  1  0  0  0  0
 42 43  1  0  0  0  0
 42 95  1  0  0  0  0
 43 44  1  0  0  0  0
 43 96  1  0  0  0  0
 43 97  1  0  0  0  0
 44 45  2  0  0  0  0
 44 49  1  0  0  0  0
 45 46  1  0  0  0  0
 45 98  1  0  0  0  0
 46 47  2  0  0  0  0
 46 99  1  0  0  0  0
 47 48  1  0  0  0  0
 48 49  2  0  0  0  0
 48100  1  0  0  0  0
 49101  1  0  0  0  0
M  END
$$$$
