MAL
 OpenBabel04091914043D

 45 46  0  0  1  0  0  0  0  0999 V2000
  -19.9397  -20.4959  -17.7881 C   0  0  1  0  0  0  0  0  0  0  0  0
  -18.9841  -19.7847  -16.8980 C   0  0  1  0  0  0  0  0  0  0  0  0
  -18.4538  -18.5024  -17.5060 C   0  0  2  0  0  0  0  0  0  0  0  0
  -17.9269  -18.7814  -18.9240 C   0  0  1  0  0  0  0  0  0  0  0  0
  -19.0639  -19.4385  -19.7293 C   0  0  1  0  0  0  0  0  0  0  0  0
  -18.5978  -19.9348  -21.0949 C   0  0  0  0  0  0  0  0  0  0  0  0
  -21.2903  -20.0616  -17.7312 O   0  0  0  0  0  0  0  0  0  0  0  0
  -19.5907  -19.4728  -15.6301 O   0  0  0  0  0  0  0  0  0  0  0  0
  -17.4264  -18.1072  -16.6008 O   0  0  0  0  0  0  0  0  0  0  0  0
  -17.5763  -17.5829  -19.5961 O   0  0  0  0  0  0  0  0  0  0  0  0
  -19.5472  -20.6403  -19.1081 O   0  0  0  0  0  0  0  0  0  0  0  0
  -18.4727  -21.3658  -21.1401 O   0  0  0  0  0  0  0  0  0  0  0  0
  -24.1325  -23.2250  -17.8047 C   0  0  1  0  0  0  0  0  0  0  0  0
  -23.3491  -22.9600  -16.5258 C   0  0  1  0  0  0  0  0  0  0  0  0
  -22.4629  -21.7476  -16.4669 C   0  0  2  0  0  0  0  0  0  0  0  0
  -22.0785  -21.2548  -17.8520 C   0  0  1  0  0  0  0  0  0  0  0  0
  -23.3240  -21.0857  -18.6944 C   0  0  1  0  0  0  0  0  0  0  0  0
  -22.9156  -20.4902  -20.0553 C   0  0  0  0  0  0  0  0  0  0  0  0
  -25.5066  -23.4394  -17.5110 O   0  0  0  0  0  0  0  0  0  0  0  0
  -24.1600  -22.8968  -15.3609 O   0  0  0  0  0  0  0  0  0  0  0  0
  -21.3004  -22.1979  -15.7028 O   0  0  0  0  0  0  0  0  0  0  0  0
  -23.9702  -22.3345  -18.9042 O   0  0  0  0  0  0  0  0  0  0  0  0
  -23.2944  -21.3575  -21.0943 O   0  0  0  0  0  0  0  0  0  0  0  0
  -19.9040  -21.5156  -17.4046 H   0  0  0  0  0  0  0  0  0  0  0  0
  -18.1299  -20.4570  -16.7229 H   0  0  0  0  0  0  0  0  0  0  0  0
  -19.2280  -17.7288  -17.5302 H   0  0  0  0  0  0  0  0  0  0  0  0
  -17.0592  -19.4460  -18.8725 H   0  0  0  0  0  0  0  0  0  0  0  0
  -19.8824  -18.7248  -19.8603 H   0  0  0  0  0  0  0  0  0  0  0  0
  -17.6263  -19.5085  -21.3812 H   0  0  0  0  0  0  0  0  0  0  0  0
  -19.3310  -19.6605  -21.8627 H   0  0  0  0  0  0  0  0  0  0  0  0
  -19.8380  -20.2542  -15.1960 H   0  0  0  0  0  0  0  0  0  0  0  0
  -17.1340  -17.2332  -16.8711 H   0  0  0  0  0  0  0  0  0  0  0  0
  -16.8261  -17.1573  -19.0829 H   0  0  0  0  0  0  0  0  0  0  0  0
  -19.3615  -21.7243  -20.7980 H   0  0  0  0  0  0  0  0  0  0  0  0
  -23.7667  -24.1699  -18.2136 H   0  0  0  0  0  0  0  0  0  0  0  0
  -22.6953  -23.8358  -16.4242 H   0  0  0  0  0  0  0  0  0  0  0  0
  -22.9059  -20.9315  -15.8822 H   0  0  0  0  0  0  0  0  0  0  0  0
  -21.4941  -22.0422  -18.3413 H   0  0  0  0  0  0  0  0  0  0  0  0
  -24.0133  -20.4020  -18.1926 H   0  0  0  0  0  0  0  0  0  0  0  0
  -21.8330  -20.3370  -20.1275 H   0  0  0  0  0  0  0  0  0  0  0  0
  -23.3846  -19.5122  -20.1839 H   0  0  0  0  0  0  0  0  0  0  0  0
  -25.5585  -24.0799  -16.7853 H   0  0  0  0  0  0  0  0  0  0  0  0
  -24.7580  -23.6693  -15.3630 H   0  0  0  0  0  0  0  0  0  0  0  0
  -20.8370  -21.4046  -15.5017 H   0  0  0  0  0  0  0  0  0  0  0  0
  -23.0420  -20.9441  -21.9624 H   0  0  0  0  0  0  0  0  0  0  0  0
  1  2  1  0  0  0  0
  1  7  1  0  0  0  0
  1 11  1  0  0  0  0
  1 24  1  1  0  0  0
  2  3  1  0  0  0  0
  2  8  1  0  0  0  0
  2 25  1  1  0  0  0
  3  4  1  0  0  0  0
  3  9  1  0  0  0  0
  3 26  1  6  0  0  0
  4  5  1  0  0  0  0
  4 10  1  0  0  0  0
  4 27  1  1  0  0  0
  5  6  1  0  0  0  0
  5 11  1  0  0  0  0
  5 28  1  6  0  0  0
  6 12  1  0  0  0  0
  6 29  1  0  0  0  0
  6 30  1  0  0  0  0
  7 16  1  0  0  0  0
  8 31  1  0  0  0  0
  9 32  1  0  0  0  0
 10 33  1  0  0  0  0
 12 34  1  0  0  0  0
 13 14  1  0  0  0  0
 13 19  1  0  0  0  0
 13 22  1  0  0  0  0
 13 35  1  6  0  0  0
 14 15  1  0  0  0  0
 14 20  1  0  0  0  0
 14 36  1  1  0  0  0
 15 16  1  0  0  0  0
 15 21  1  0  0  0  0
 15 37  1  1  0  0  0
 16 17  1  0  0  0  0
 16 38  1  6  0  0  0
 17 18  1  0  0  0  0
 17 22  1  0  0  0  0
 17 39  1  1  0  0  0
 18 23  1  0  0  0  0
 18 40  1  0  0  0  0
 18 41  1  0  0  0  0
 19 42  1  0  0  0  0
 20 43  1  0  0  0  0
 21 44  1  0  0  0  0
 23 45  1  0  0  0  0
M  END
$$$$
