MCF
 OpenBabel04091911463D

 40 42  0  0  1  0  0  0  0  0999 V2000
   -8.5211   25.2785  -11.9512 O   0  0  0  0  0  0  0  0  0  0  0  0
   -7.1817   25.1917  -12.4514 C   0  0  2  0  0  0  0  0  0  0  0  0
   -7.0554   24.0123  -13.4202 C   0  0  0  0  0  0  0  0  0  0  0  0
   -7.5709   22.7545  -12.8400 N   0  0  0  0  0  0  0  0  0  0  0  0
   -7.1149   22.1894  -11.7471 C   0  0  0  0  0  0  0  0  0  0  0  0
   -6.2511   22.6279  -10.8527 N   0  0  0  0  0  0  0  0  0  0  0  0
   -5.7506   23.9071  -10.6921 C   0  0  0  0  0  0  0  0  0  0  0  0
   -6.1730   25.0478  -11.3575 C   0  0  0  0  0  0  0  0  0  0  0  0
   -5.5025   26.1530  -10.9052 N   0  0  0  0  0  0  0  0  0  0  0  0
   -4.6616   25.7119  -10.0082 C   0  0  0  0  0  0  0  0  0  0  0  0
   -4.7791   24.3409   -9.8091 N   0  3  0  0  0  0  0  0  0  0  0  0
   -3.9677   23.6536   -8.8421 C   0  0  1  0  0  0  0  0  0  0  0  0
   -4.4068   22.2778   -8.3453 C   0  0  2  0  0  0  0  0  0  0  0  0
   -5.3964   22.3699   -7.3397 O   0  0  0  0  0  0  0  0  0  0  0  0
   -2.6525   23.4571   -9.3838 O   0  0  0  0  0  0  0  0  0  0  0  0
   -2.0844   22.2201   -8.8708 C   0  0  1  0  0  0  0  0  0  0  0  0
   -3.1127   21.6298   -7.8985 C   0  0  1  0  0  0  0  0  0  0  0  0
   -2.8774   22.0027   -6.5394 O   0  0  0  0  0  0  0  0  0  0  0  0
   -1.7377   21.3302  -10.0794 C   0  0  0  0  0  0  0  0  0  0  0  0
   -0.2890   20.2767   -9.7256 S   0  0  0  0  0  0  0  0  0  0  0  0
   -1.0650   18.6805   -9.3774 C   0  0  0  0  0  0  0  0  0  0  0  0
   -8.5638   26.1066  -11.4334 H   0  0  0  0  0  0  0  0  0  0  0  0
   -6.9799   26.1110  -13.0089 H   0  0  0  0  0  0  0  0  0  0  0  0
   -6.0099   23.8450  -13.7020 H   0  0  0  0  0  0  0  0  0  0  0  0
   -7.6282   24.1963  -14.3346 H   0  0  0  0  0  0  0  0  0  0  0  0
   -8.3375   22.2897  -13.3196 H   0  0  0  0  0  0  0  0  0  0  0  0
   -7.4965   21.1933  -11.5494 H   0  0  0  0  0  0  0  0  0  0  0  0
   -3.9477   26.3171   -9.4581 H   0  0  0  0  0  0  0  0  0  0  0  0
   -3.8904   24.3291   -7.9810 H   0  0  0  0  0  0  0  0  0  0  0  0
   -4.7608   21.6238   -9.1323 H   0  0  0  0  0  0  0  0  0  0  0  0
   -4.9428   22.6082   -6.4988 H   0  0  0  0  0  0  0  0  0  0  0  0
   -1.1720   22.4991   -8.3317 H   0  0  0  0  0  0  0  0  0  0  0  0
   -3.1715   20.5370   -7.9361 H   0  0  0  0  0  0  0  0  0  0  0  0
   -2.7113   22.9580   -6.4760 H   0  0  0  0  0  0  0  0  0  0  0  0
   -1.4407   21.9746  -10.9141 H   0  0  0  0  0  0  0  0  0  0  0  0
   -2.5902   20.7480  -10.4438 H   0  0  0  0  0  0  0  0  0  0  0  0
   -0.2844   17.9937   -9.0365 H   0  0  0  0  0  0  0  0  0  0  0  0
   -1.5067   18.2694  -10.2880 H   0  0  0  0  0  0  0  0  0  0  0  0
   -1.8208   18.7483   -8.5919 H   0  0  0  0  0  0  0  0  0  0  0  0
   -6.0704   21.9392  -10.1335 H   0  0  0  0  0  0  0  0  0  0  0  0
  1  2  1  0  0  0  0
  1 22  1  0  0  0  0
  2  3  1  0  0  0  0
  2  8  1  0  0  0  0
  2 23  1  6  0  0  0
  3  4  1  0  0  0  0
  3 24  1  0  0  0  0
  3 25  1  0  0  0  0
  4  5  1  0  0  0  0
  4 26  1  0  0  0  0
  5  6  2  0  0  0  0
  5 27  1  0  0  0  0
  6  7  1  0  0  0  0
  6 40  1  0  0  0  0
  7  8  2  0  0  0  0
  7 11  1  0  0  0  0
  8  9  1  0  0  0  0
  9 10  1  0  0  0  0
 10 11  2  0  0  0  0
 10 28  1  0  0  0  0
 11 12  1  0  0  0  0
 12 13  1  0  0  0  0
 12 15  1  0  0  0  0
 12 29  1  1  0  0  0
 13 14  1  0  0  0  0
 13 17  1  0  0  0  0
 13 30  1  6  0  0  0
 14 31  1  0  0  0  0
 15 16  1  0  0  0  0
 16 17  1  0  0  0  0
 16 19  1  0  0  0  0
 16 32  1  1  0  0  0
 17 18  1  0  0  0  0
 17 33  1  6  0  0  0
 18 34  1  0  0  0  0
 19 20  1  0  0  0  0
 19 35  1  0  0  0  0
 19 36  1  0  0  0  0
 20 21  1  0  0  0  0
 21 37  1  0  0  0  0
 21 38  1  0  0  0  0
 21 39  1  0  0  0  0
M  CHG  1  11   1
M  END
$$$$
