MFS
 OpenBabel04091912543D

 84 85  0  0  1  0  0  0  0  0999 V2000
   16.0734    4.1336   13.8848 C   0  0  1  0  0  0  0  0  0  0  0  0
   16.7061    5.2164   13.0064 C   0  0  2  0  0  0  0  0  0  0  0  0
   16.8850    7.6632   12.8759 O   0  0  0  0  0  0  0  0  0  0  0  0
   18.1669    8.2800   12.9519 C   0  0  1  0  0  0  0  0  0  0  0  0
   18.6299    8.8909   11.5912 C   0  0  1  0  0  0  0  0  0  0  0  0
   20.0425    9.4493   11.6889 C   0  0  2  0  0  0  0  0  0  0  0  0
   20.1772   10.3749   12.8216 C   0  0  2  0  0  0  0  0  0  0  0  0
   19.6776    9.6639   14.0870 C   0  0  1  0  0  0  0  0  0  0  0  0
   19.8163   10.5647   15.2928 C   0  0  0  0  0  0  0  0  0  0  0  0
   18.4654    2.6356   13.2258 C   0  0  0  0  0  0  0  0  0  0  0  0
   17.0796    2.1529   12.8784 C   0  0  0  0  0  0  0  0  0  0  0  0
   16.9320    4.8740   10.6136 C   0  0  0  0  0  0  0  0  0  0  0  0
   17.3505    6.4055   15.0215 C   0  0  2  0  0  0  0  0  0  0  0  0
   17.1894    7.6584   15.8564 C   0  0  0  0  0  0  0  0  0  0  0  0
   20.1978    6.4989   11.8473 C   0  0  0  0  0  0  0  0  0  0  0  0
   19.3894    6.8488   10.6123 C   0  0  0  0  0  0  0  0  0  0  0  0
   19.4277    6.1059    9.6475 O   0  0  0  0  0  0  0  0  0  0  0  0
   18.5100    7.8708   10.5980 O   0  0  0  0  0  0  0  0  0  0  0  0
   20.5496    9.7999   10.4736 O   0  0  0  0  0  0  0  0  0  0  0  0
   21.8577    9.7531   10.2892 C   0  0  0  0  0  0  0  0  0  0  0  0
   22.6832    9.0548   11.3520 C   0  0  0  0  0  0  0  0  0  0  0  0
   22.4496   10.2028    9.2217 O   0  0  0  0  0  0  0  0  0  0  0  0
   19.4920   11.6049   12.5557 O   0  0  0  0  0  0  0  0  0  0  0  0
   20.2940   12.5352   11.9444 C   0  0  0  0  0  0  0  0  0  0  0  0
   20.4157   13.8037   12.7395 C   0  0  0  0  0  0  0  0  0  0  0  0
   20.9489   12.3076   10.9329 O   0  0  0  0  0  0  0  0  0  0  0  0
   20.4971   11.7763   14.9719 O   0  0  0  0  0  0  0  0  0  0  0  0
   21.8291   11.8741   15.2051 C   0  0  0  0  0  0  0  0  0  0  0  0
   22.4708   10.7164   15.8903 C   0  0  0  0  0  0  0  0  0  0  0  0
   22.4782   12.8479   14.8476 O   0  0  0  0  0  0  0  0  0  0  0  0
   18.3018    9.2862   13.9399 O   0  0  0  0  0  0  0  0  0  0  0  0
   16.5754    6.5406   13.7088 C   0  0  2  0  0  0  0  0  0  0  0  0
   16.1715    5.2513   11.6778 O   0  0  0  0  0  0  0  0  0  0  0  0
   18.2594    4.2698   10.9205 C   0  0  0  0  0  0  0  0  0  0  0  0
   16.5554    5.0254    9.4663 O   0  0  0  0  0  0  0  0  0  0  0  0
   15.9998    2.8785   13.2136 O   0  0  0  0  0  0  0  0  0  0  0  0
   16.9320    1.0933   12.2804 O   0  0  0  0  0  0  0  0  0  0  0  0
   16.7502    4.0514   15.2483 C   0  0  2  0  0  0  0  0  0  0  0  0
   15.8409    2.9206   16.4041 S   0  0  0  0  0  0  0  0  0  0  0  0
   16.4012    3.0968   17.7268 O   0  0  0  0  0  0  0  0  0  0  0  0
   14.4232    3.0948   16.1990 O   0  0  0  0  0  0  0  0  0  0  0  0
   16.2356    1.3671   15.9568 N   0  0  0  0  0  0  0  0  0  0  0  0
   16.9036    5.3375   15.8272 O   0  0  0  0  0  0  0  0  0  0  0  0
   16.0368    8.3951   15.4370 O   0  0  0  0  0  0  0  0  0  0  0  0
   14.8078    7.9610   15.8095 C   0  0  0  0  0  0  0  0  0  0  0  0
   14.7359    6.8122   16.7732 C   0  0  0  0  0  0  0  0  0  0  0  0
   13.7984    8.4750   15.3524 O   0  0  0  0  0  0  0  0  0  0  0  0
   15.0520    4.4771   14.0561 H   0  0  0  0  0  0  0  0  0  0  0  0
   17.7547    5.0809   12.9453 H   0  0  0  0  0  0  0  0  0  0  0  0
   18.8052    7.5193   13.3650 H   0  0  0  0  0  0  0  0  0  0  0  0
   17.9002    9.6738   11.4000 H   0  0  0  0  0  0  0  0  0  0  0  0
   20.6336    8.6409   12.0273 H   0  0  0  0  0  0  0  0  0  0  0  0
   21.2128   10.5887   12.9693 H   0  0  0  0  0  0  0  0  0  0  0  0
   20.2537    8.7369   14.2957 H   0  0  0  0  0  0  0  0  0  0  0  0
   20.3901   10.0387   16.0426 H   0  0  0  0  0  0  0  0  0  0  0  0
   18.8635   10.7960   15.7566 H   0  0  0  0  0  0  0  0  0  0  0  0
   19.2207    2.0136   12.7563 H   0  0  0  0  0  0  0  0  0  0  0  0
   18.6806    2.7033   14.2570 H   0  0  0  0  0  0  0  0  0  0  0  0
   18.7248    3.6316   12.9384 H   0  0  0  0  0  0  0  0  0  0  0  0
   18.4071    6.1866   14.8604 H   0  0  0  0  0  0  0  0  0  0  0  0
   18.0757    8.2769   15.7597 H   0  0  0  0  0  0  0  0  0  0  0  0
   17.0964    7.4633   16.9155 H   0  0  0  0  0  0  0  0  0  0  0  0
   20.7526    5.5834   11.7059 H   0  0  0  0  0  0  0  0  0  0  0  0
   19.6514    6.2877   12.7479 H   0  0  0  0  0  0  0  0  0  0  0  0
   21.0048    7.1312   12.1030 H   0  0  0  0  0  0  0  0  0  0  0  0
   23.7325    9.0668   11.0765 H   0  0  0  0  0  0  0  0  0  0  0  0
   22.4139    8.0058   11.4294 H   0  0  0  0  0  0  0  0  0  0  0  0
   22.6039    9.5217   12.3323 H   0  0  0  0  0  0  0  0  0  0  0  0
   21.1160   14.4684   12.2320 H   0  0  0  0  0  0  0  0  0  0  0  0
   20.8254   13.6653   13.7300 H   0  0  0  0  0  0  0  0  0  0  0  0
   19.4622   14.3074   12.8548 H   0  0  0  0  0  0  0  0  0  0  0  0
   23.5284   10.9263   16.0260 H   0  0  0  0  0  0  0  0  0  0  0  0
   22.3699    9.8023   15.2950 H   0  0  0  0  0  0  0  0  0  0  0  0
   22.0230   10.5933   16.8796 H   0  0  0  0  0  0  0  0  0  0  0  0
   15.5110    6.6140   13.9189 H   0  0  0  0  0  0  0  0  0  0  0  0
   18.8883    4.0045   10.0896 H   0  0  0  0  0  0  0  0  0  0  0  0
   18.0611    3.3068   11.3013 H   0  0  0  0  0  0  0  0  0  0  0  0
   18.8788    4.8529   11.5880 H   0  0  0  0  0  0  0  0  0  0  0  0
   17.7708    3.7269   15.2160 H   0  0  0  0  0  0  0  0  0  0  0  0
   15.7970    0.6018   16.4749 H   0  0  0  0  0  0  0  0  0  0  0  0
   16.8368    1.1216   15.1785 H   0  0  0  0  0  0  0  0  0  0  0  0
   13.7011    6.5671   16.9833 H   0  0  0  0  0  0  0  0  0  0  0  0
   15.2500    7.0447   17.7026 H   0  0  0  0  0  0  0  0  0  0  0  0
   15.1131    5.8976   16.3571 H   0  0  0  0  0  0  0  0  0  0  0  0
  1  2  1  0  0  0  0
  1 36  1  0  0  0  0
  1 38  1  0  0  0  0
  1 48  1  1  0  0  0
  2 32  1  0  0  0  0
  2 33  1  0  0  0  0
  2 49  1  6  0  0  0
  3  4  1  0  0  0  0
  3 32  1  0  0  0  0
  4  5  1  0  0  0  0
  4 31  1  0  0  0  0
  4 50  1  1  0  0  0
  5  6  1  0  0  0  0
  5 18  1  0  0  0  0
  5 51  1  6  0  0  0
  6  7  1  0  0  0  0
  6 19  1  0  0  0  0
  6 52  1  1  0  0  0
  7  8  1  0  0  0  0
  7 23  1  0  0  0  0
  7 53  1  1  0  0  0
  8  9  1  0  0  0  0
  8 31  1  0  0  0  0
  8 54  1  1  0  0  0
  9 27  1  0  0  0  0
  9 55  1  0  0  0  0
  9 56  1  0  0  0  0
 10 11  1  0  0  0  0
 10 57  1  0  0  0  0
 10 58  1  0  0  0  0
 10 59  1  0  0  0  0
 11 36  1  0  0  0  0
 11 37  2  0  0  0  0
 12 33  1  0  0  0  0
 12 34  1  0  0  0  0
 12 35  2  0  0  0  0
 13 14  1  0  0  0  0
 13 32  1  0  0  0  0
 13 43  1  0  0  0  0
 13 60  1  6  0  0  0
 14 44  1  0  0  0  0
 14 61  1  0  0  0  0
 14 62  1  0  0  0  0
 15 16  1  0  0  0  0
 15 63  1  0  0  0  0
 15 64  1  0  0  0  0
 15 65  1  0  0  0  0
 16 17  2  0  0  0  0
 16 18  1  0  0  0  0
 19 20  1  0  0  0  0
 20 21  1  0  0  0  0
 20 22  2  0  0  0  0
 21 66  1  0  0  0  0
 21 67  1  0  0  0  0
 21 68  1  0  0  0  0
 23 24  1  0  0  0  0
 24 25  1  0  0  0  0
 24 26  2  0  0  0  0
 25 69  1  0  0  0  0
 25 70  1  0  0  0  0
 25 71  1  0  0  0  0
 27 28  1  0  0  0  0
 28 29  1  0  0  0  0
 28 30  2  0  0  0  0
 29 72  1  0  0  0  0
 29 73  1  0  0  0  0
 29 74  1  0  0  0  0
 32 75  1  1  0  0  0
 34 76  1  0  0  0  0
 34 77  1  0  0  0  0
 34 78  1  0  0  0  0
 38 39  1  0  0  0  0
 38 43  1  0  0  0  0
 38 79  1  6  0  0  0
 39 40  2  0  0  0  0
 39 41  2  0  0  0  0
 39 42  1  0  0  0  0
 42 80  1  0  0  0  0
 42 81  1  0  0  0  0
 44 45  1  0  0  0  0
 45 46  1  0  0  0  0
 45 47  2  0  0  0  0
 46 82  1  0  0  0  0
 46 83  1  0  0  0  0
 46 84  1  0  0  0  0
M  END
$$$$
