MIG
 OpenBabel04091913333D

 32 32  0  0  1  0  0  0  0  0999 V2000
   42.5341   89.4397   34.0283 O   0  0  0  0  0  0  0  0  0  0  0  0
   43.6189   94.1442   36.3242 O   0  0  0  0  0  0  0  0  0  0  0  0
   47.3668   92.2095   32.1279 O   0  0  0  0  0  0  0  0  0  0  0  0
   48.4486   93.7519   34.3643 O   0  0  0  0  0  0  0  0  0  0  0  0
   47.2413   93.4001   36.8659 O   0  0  0  0  0  0  0  0  0  0  0  0
   43.2135   90.1784   35.0330 C   0  0  0  0  0  0  0  0  0  0  0  0
   44.2763   92.9877   36.8898 C   0  0  0  0  0  0  0  0  0  0  0  0
   43.1688   91.6190   34.5600 C   0  0  0  0  0  0  0  0  0  0  0  0
   45.4092   91.7093   33.4460 C   0  0  0  0  0  0  0  0  0  0  0  0
   46.5841   92.6660   33.2333 C   0  0  1  0  0  0  0  0  0  0  0  0
   47.3859   92.8128   34.5358 C   0  0  2  0  0  0  0  0  0  0  0  0
   46.4740   93.3300   35.6614 C   0  0  1  0  0  0  0  0  0  0  0  0
   45.2474   92.4209   35.8579 C   0  0  2  0  0  0  0  0  0  0  0  0
   44.5256   92.2760   34.5154 N   0  3  2  0  0  0  0  0  0  0  0  0
   42.4289   88.5256   34.3485 H   0  0  0  0  0  0  0  0  0  0  0  0
   42.9589   93.9295   35.6594 H   0  0  0  0  0  0  0  0  0  0  0  0
   47.7464   91.3295   32.3287 H   0  0  0  0  0  0  0  0  0  0  0  0
   49.0151   93.7507   35.1574 H   0  0  0  0  0  0  0  0  0  0  0  0
   47.9072   94.1055   36.7512 H   0  0  0  0  0  0  0  0  0  0  0  0
   44.2283   89.7833   35.1311 H   0  0  0  0  0  0  0  0  0  0  0  0
   42.7037   90.0755   36.0012 H   0  0  0  0  0  0  0  0  0  0  0  0
   43.5252   92.2436   37.1827 H   0  0  0  0  0  0  0  0  0  0  0  0
   44.7833   93.2923   37.7874 H   0  0  0  0  0  0  0  0  0  0  0  0
   42.5076   92.1842   35.2149 H   0  0  0  0  0  0  0  0  0  0  0  0
   42.7434   91.7271   33.5503 H   0  0  0  0  0  0  0  0  0  0  0  0
   45.7541   90.7155   33.7655 H   0  0  0  0  0  0  0  0  0  0  0  0
   44.8222   91.5932   32.5338 H   0  0  0  0  0  0  0  0  0  0  0  0
   46.2032   93.6495   32.9410 H   0  0  0  0  0  0  0  0  0  0  0  0
   47.8502   91.8544   34.8146 H   0  0  0  0  0  0  0  0  0  0  0  0
   46.1380   94.3443   35.4229 H   0  0  0  0  0  0  0  0  0  0  0  0
   45.5830   91.4027   36.1714 H   0  0  0  0  0  0  0  0  0  0  0  0
   44.3336   93.2487   34.2207 H   0  0  0  0  0  0  0  0  0  0  0  0
  1  6  1  0  0  0  0
  1 15  1  0  0  0  0
  2  7  1  0  0  0  0
  2 16  1  0  0  0  0
  3 10  1  0  0  0  0
  3 17  1  0  0  0  0
  4 11  1  0  0  0  0
  4 18  1  0  0  0  0
  5 12  1  0  0  0  0
  5 19  1  0  0  0  0
  6  8  1  0  0  0  0
  6 20  1  0  0  0  0
  6 21  1  0  0  0  0
  7 13  1  0  0  0  0
  7 22  1  0  0  0  0
  7 23  1  0  0  0  0
  8 14  1  0  0  0  0
  8 24  1  0  0  0  0
  8 25  1  0  0  0  0
  9 10  1  0  0  0  0
  9 14  1  0  0  0  0
  9 26  1  0  0  0  0
  9 27  1  0  0  0  0
 10 11  1  0  0  0  0
 10 28  1  6  0  0  0
 11 12  1  0  0  0  0
 11 29  1  1  0  0  0
 12 13  1  0  0  0  0
 12 30  1  6  0  0  0
 13 14  1  0  0  0  0
 13 31  1  1  0  0  0
 14 32  1  6  0  0  0
M  CHG  1  14   1
M  END
$$$$
