MKY
 OpenBabel04091914413D

 34 35  0  0  0  0  0  0  0  0999 V2000
   19.8385  -12.0859   20.0831 C   0  0  0  0  0  0  0  0  0  0  0  0
   18.5852  -12.2622   20.9084 C   0  0  0  0  0  0  0  0  0  0  0  0
   17.5520  -11.4388   20.3412 O   0  0  0  0  0  0  0  0  0  0  0  0
   16.3699  -11.5843   20.9953 C   0  0  0  0  0  0  0  0  0  0  0  0
   16.2074  -12.3184   21.9740 O   0  0  0  0  0  0  0  0  0  0  0  0
   15.2339  -10.8705   20.2663 C   0  0  0  0  0  0  0  0  0  0  0  0
   10.7258   -8.9869   24.5002 O   0  0  0  0  0  0  0  0  0  0  0  0
   11.4768   -9.5051   23.6209 C   0  0  0  0  0  0  0  0  0  0  0  0
   12.4848   -8.7869   22.9755 C   0  0  0  0  0  0  0  0  0  0  0  0
   13.3352   -9.3323   22.0067 C   0  0  0  0  0  0  0  0  0  0  0  0
   13.1828  -10.6787   21.6546 C   0  0  0  0  0  0  0  0  0  0  0  0
   13.9599  -11.4166   20.7600 N   0  3  0  0  0  0  0  0  0  0  0  0
   13.6068  -12.7150   20.7017 C   0  0  0  0  0  0  0  0  0  0  0  0
   14.2537  -13.5808   19.9112 N   0  0  0  0  0  0  0  0  0  0  0  0
   14.1503  -14.9733   19.9990 C   0  0  0  0  0  0  0  0  0  0  0  0
   13.6778  -15.5456   21.0343 N   0  0  0  0  0  0  0  0  0  0  0  0
   14.6450  -15.6285   18.9287 N   0  0  0  0  0  0  0  0  0  0  0  0
   12.1802  -13.0315   21.6366 S   0  0  0  0  0  0  0  0  0  0  0  0
   12.1858  -11.4285   22.2592 C   0  0  0  0  0  0  0  0  0  0  0  0
   11.3423  -10.8601   23.2320 C   0  0  0  0  0  0  0  0  0  0  0  0
   20.6436  -12.7187   20.4674 H   0  0  0  0  0  0  0  0  0  0  0  0
   20.1661  -11.0416   20.0998 H   0  0  0  0  0  0  0  0  0  0  0  0
   19.6482  -12.3490   19.0375 H   0  0  0  0  0  0  0  0  0  0  0  0
   18.7700  -11.9636   21.9456 H   0  0  0  0  0  0  0  0  0  0  0  0
   18.2745  -13.3126   20.8756 H   0  0  0  0  0  0  0  0  0  0  0  0
   15.2816  -11.0918   19.1964 H   0  0  0  0  0  0  0  0  0  0  0  0
   15.3289   -9.7946   20.3912 H   0  0  0  0  0  0  0  0  0  0  0  0
   12.6146   -7.7379   23.2504 H   0  0  0  0  0  0  0  0  0  0  0  0
   14.0798   -8.6749   21.5792 H   0  0  0  0  0  0  0  0  0  0  0  0
   14.9255  -13.1895   19.2868 H   0  0  0  0  0  0  0  0  0  0  0  0
   13.7236  -16.5615   20.9528 H   0  0  0  0  0  0  0  0  0  0  0  0
   14.6936  -15.1636   18.0301 H   0  0  0  0  0  0  0  0  0  0  0  0
   14.3669  -16.6012   18.8389 H   0  0  0  0  0  0  0  0  0  0  0  0
   10.5748  -11.4612   23.7135 H   0  0  0  0  0  0  0  0  0  0  0  0
  1  2  1  0  0  0  0
  1 21  1  0  0  0  0
  1 22  1  0  0  0  0
  1 23  1  0  0  0  0
  2  3  1  0  0  0  0
  2 24  1  0  0  0  0
  2 25  1  0  0  0  0
  3  4  1  0  0  0  0
  4  5  2  0  0  0  0
  4  6  1  0  0  0  0
  6 12  1  0  0  0  0
  6 26  1  0  0  0  0
  6 27  1  0  0  0  0
  7  8  1  0  0  0  0
  8  9  2  0  0  0  0
  8 20  1  0  0  0  0
  9 10  1  0  0  0  0
  9 28  1  0  0  0  0
 10 11  2  0  0  0  0
 10 29  1  0  0  0  0
 11 12  1  0  0  0  0
 11 19  1  0  0  0  0
 12 13  2  0  0  0  0
 13 14  1  0  0  0  0
 13 18  1  0  0  0  0
 14 15  1  0  0  0  0
 14 30  1  0  0  0  0
 15 16  2  0  0  0  0
 15 17  1  0  0  0  0
 16 31  1  0  0  0  0
 17 32  1  0  0  0  0
 17 33  1  0  0  0  0
 18 19  1  0  0  0  0
 19 20  2  0  0  0  0
 20 34  1  0  0  0  0
M  CHG  1  12   1
M  END
$$$$
