MLB
 OpenBabel04091910533D

 45 46  0  0  1  0  0  0  0  0999 V2000
   18.2658  -38.2599   32.4526 C   0  0  2  0  0  0  0  0  0  0  0  0
   18.4739  -38.0819   33.8378 O   0  0  0  0  0  0  0  0  0  0  0  0
   19.4020  -37.8399   31.4912 C   0  0  2  0  0  0  0  0  0  0  0  0
   20.5614  -38.6698   31.6679 O   0  0  0  0  0  0  0  0  0  0  0  0
   19.6922  -36.3331   31.6404 C   0  0  1  0  0  0  0  0  0  0  0  0
   20.6836  -35.9276   30.6871 O   0  0  0  0  0  0  0  0  0  0  0  0
   18.3874  -35.4929   31.5271 C   0  0  1  0  0  0  0  0  0  0  0  0
   17.9160  -35.4894   30.1884 O   0  0  0  0  0  0  0  0  0  0  0  0
   17.3349  -36.0738   32.4967 C   0  0  2  0  0  0  0  0  0  0  0  0
   17.0972  -37.4607   32.1676 O   0  0  0  0  0  0  0  0  0  0  0  0
   15.9981  -35.3136   32.5192 C   0  0  0  0  0  0  0  0  0  0  0  0
   15.4387  -35.1520   31.2171 O   0  0  0  0  0  0  0  0  0  0  0  0
   18.5036  -40.3876   37.0461 C   0  0  2  0  0  0  0  0  0  0  0  0
   17.4009  -41.2671   37.1732 O   0  0  0  0  0  0  0  0  0  0  0  0
   19.0457  -40.0126   38.4437 C   0  0  2  0  0  0  0  0  0  0  0  0
   18.0238  -40.1657   39.4471 O   0  0  0  0  0  0  0  0  0  0  0  0
   19.5596  -38.5537   38.4395 C   0  0  1  0  0  0  0  0  0  0  0  0
   20.4845  -38.2693   39.5004 O   0  0  0  0  0  0  0  0  0  0  0  0
   20.2478  -38.2800   37.0958 C   0  0  2  0  0  0  0  0  0  0  0  0
   20.9008  -37.0088   37.1034 O   0  0  0  0  0  0  0  0  0  0  0  0
   19.1499  -38.3117   36.0263 C   0  0  2  0  0  0  0  0  0  0  0  0
   18.0867  -39.2464   36.3287 O   0  0  0  0  0  0  0  0  0  0  0  0
   19.6080  -38.5117   34.5700 C   0  0  0  0  0  0  0  0  0  0  0  0
   18.0110  -39.3092   32.2686 H   0  0  0  0  0  0  0  0  0  0  0  0
   19.0722  -38.0187   30.4604 H   0  0  0  0  0  0  0  0  0  0  0  0
   21.0047  -38.4116   32.4884 H   0  0  0  0  0  0  0  0  0  0  0  0
   20.1475  -36.1506   32.6202 H   0  0  0  0  0  0  0  0  0  0  0  0
   20.5933  -34.9702   30.5437 H   0  0  0  0  0  0  0  0  0  0  0  0
   18.6041  -34.4515   31.7813 H   0  0  0  0  0  0  0  0  0  0  0  0
   16.9526  -35.3087   30.2101 H   0  0  0  0  0  0  0  0  0  0  0  0
   17.7217  -36.0004   33.5167 H   0  0  0  0  0  0  0  0  0  0  0  0
   16.1406  -34.3120   32.9399 H   0  0  0  0  0  0  0  0  0  0  0  0
   15.2743  -35.8543   33.1396 H   0  0  0  0  0  0  0  0  0  0  0  0
   14.5057  -34.9033   31.3431 H   0  0  0  0  0  0  0  0  0  0  0  0
   19.2776  -40.9108   36.4609 H   0  0  0  0  0  0  0  0  0  0  0  0
   16.6979  -40.6840   37.5354 H   0  0  0  0  0  0  0  0  0  0  0  0
   19.8388  -40.7091   38.7291 H   0  0  0  0  0  0  0  0  0  0  0  0
   17.7239  -41.0954   39.3832 H   0  0  0  0  0  0  0  0  0  0  0  0
   18.7304  -37.8634   38.5863 H   0  0  0  0  0  0  0  0  0  0  0  0
   21.0363  -39.0450   39.6656 H   0  0  0  0  0  0  0  0  0  0  0  0
   21.0285  -39.0266   36.9141 H   0  0  0  0  0  0  0  0  0  0  0  0
   21.2294  -36.8771   38.0182 H   0  0  0  0  0  0  0  0  0  0  0  0
   18.6601  -37.3285   36.0499 H   0  0  0  0  0  0  0  0  0  0  0  0
   20.4534  -37.8522   34.3610 H   0  0  0  0  0  0  0  0  0  0  0  0
   19.8609  -39.5509   34.3504 H   0  0  0  0  0  0  0  0  0  0  0  0
  1  2  1  0  0  0  0
  1  3  1  0  0  0  0
  1 10  1  0  0  0  0
  1 24  1  6  0  0  0
  2 23  1  0  0  0  0
  3  4  1  0  0  0  0
  3  5  1  0  0  0  0
  3 25  1  6  0  0  0
  4 26  1  0  0  0  0
  5  6  1  0  0  0  0
  5  7  1  0  0  0  0
  5 27  1  1  0  0  0
  6 28  1  0  0  0  0
  7  8  1  0  0  0  0
  7  9  1  0  0  0  0
  7 29  1  1  0  0  0
  8 30  1  0  0  0  0
  9 10  1  0  0  0  0
  9 11  1  0  0  0  0
  9 31  1  1  0  0  0
 11 12  1  0  0  0  0
 11 32  1  0  0  0  0
 11 33  1  0  0  0  0
 12 34  1  0  0  0  0
 13 14  1  0  0  0  0
 13 15  1  0  0  0  0
 13 22  1  0  0  0  0
 13 35  1  6  0  0  0
 14 36  1  0  0  0  0
 15 16  1  0  0  0  0
 15 17  1  0  0  0  0
 15 37  1  1  0  0  0
 16 38  1  0  0  0  0
 17 18  1  0  0  0  0
 17 19  1  0  0  0  0
 17 39  1  1  0  0  0
 18 40  1  0  0  0  0
 19 20  1  0  0  0  0
 19 21  1  0  0  0  0
 19 41  1  6  0  0  0
 20 42  1  0  0  0  0
 21 22  1  0  0  0  0
 21 23  1  0  0  0  0
 21 43  1  1  0  0  0
 23 44  1  0  0  0  0
 23 45  1  0  0  0  0
M  END
$$$$
