MLR
 OpenBabel04091911143D

 66 68  0  0  1  0  0  0  0  0999 V2000
   14.0519  -20.4133   -3.0856 C   0  0  2  0  0  0  0  0  0  0  0  0
   13.6283  -20.1106   -4.5308 C   0  0  1  0  0  0  0  0  0  0  0  0
   14.9146  -19.8445   -5.3275 C   0  0  2  0  0  0  0  0  0  0  0  0
   15.6761  -18.6731   -4.7025 C   0  0  1  0  0  0  0  0  0  0  0  0
   15.9627  -19.0271   -3.2338 C   0  0  1  0  0  0  0  0  0  0  0  0
   16.6548  -17.8589   -2.5501 C   0  0  0  0  0  0  0  0  0  0  0  0
   12.9465  -20.7816   -2.2805 O   0  0  0  0  0  0  0  0  0  0  0  0
   12.9441  -21.2210   -5.1152 O   0  0  0  0  0  0  0  0  0  0  0  0
   14.5778  -19.5430   -6.6833 O   0  0  0  0  0  0  0  0  0  0  0  0
   16.8915  -18.4852   -5.4253 O   0  0  0  0  0  0  0  0  0  0  0  0
   14.7373  -19.2998   -2.5176 O   0  0  0  0  0  0  0  0  0  0  0  0
   17.0665  -18.1836   -1.2291 O   0  0  0  0  0  0  0  0  0  0  0  0
   16.9788  -17.2492   -6.1549 C   0  0  2  0  0  0  0  0  0  0  0  0
   17.7476  -17.5200   -7.4633 C   0  0  1  0  0  0  0  0  0  0  0  0
   19.1123  -18.0421   -7.0725 C   0  0  2  0  0  0  0  0  0  0  0  0
   19.8612  -17.0112   -6.2255 C   0  0  1  0  0  0  0  0  0  0  0  0
   19.0020  -16.7152   -4.9949 C   0  0  1  0  0  0  0  0  0  0  0  0
   19.6656  -15.6654   -4.1019 C   0  0  0  0  0  0  0  0  0  0  0  0
   17.0349  -18.4882   -8.2592 O   0  0  0  0  0  0  0  0  0  0  0  0
   19.8522  -18.3334   -8.2826 O   0  0  0  0  0  0  0  0  0  0  0  0
   21.1430  -17.5489   -5.8774 O   0  0  0  0  0  0  0  0  0  0  0  0
   17.6749  -16.2652   -5.3712 O   0  0  0  0  0  0  0  0  0  0  0  0
   19.8064  -14.4223   -4.7894 O   0  0  0  0  0  0  0  0  0  0  0  0
   22.2297  -16.6991   -6.2865 C   0  0  2  0  0  0  0  0  0  0  0  0
   23.3008  -17.5509   -7.0096 C   0  0  1  0  0  0  0  0  0  0  0  0
   23.8245  -18.6013   -6.0174 C   0  0  2  0  0  0  0  0  0  0  0  0
   24.4132  -17.8729   -4.8043 C   0  0  1  0  0  0  0  0  0  0  0  0
   23.3212  -16.9931   -4.1871 C   0  0  1  0  0  0  0  0  0  0  0  0
   23.9065  -16.2209   -2.9989 C   0  0  0  0  0  0  0  0  0  0  0  0
   22.7535  -18.1812   -8.1768 O   0  0  0  0  0  0  0  0  0  0  0  0
   24.8127  -19.4197   -6.6505 O   0  0  0  0  0  0  0  0  0  0  0  0
   24.9018  -18.8523   -3.8742 O   0  0  0  0  0  0  0  0  0  0  0  0
   22.8158  -16.0545   -5.1569 O   0  0  0  0  0  0  0  0  0  0  0  0
   22.8704  -15.9170   -2.0769 O   0  0  0  0  0  0  0  0  0  0  0  0
   14.7313  -21.2760   -3.0920 H   0  0  0  0  0  0  0  0  0  0  0  0
   12.9721  -19.2281   -4.5723 H   0  0  0  0  0  0  0  0  0  0  0  0
   15.5341  -20.7585   -5.3253 H   0  0  0  0  0  0  0  0  0  0  0  0
   15.0543  -17.7698   -4.7556 H   0  0  0  0  0  0  0  0  0  0  0  0
   16.6093  -19.9155   -3.1656 H   0  0  0  0  0  0  0  0  0  0  0  0
   16.0137  -16.9782   -2.5252 H   0  0  0  0  0  0  0  0  0  0  0  0
   17.5623  -17.5895   -3.0883 H   0  0  0  0  0  0  0  0  0  0  0  0
   12.3286  -20.0218   -2.2483 H   0  0  0  0  0  0  0  0  0  0  0  0
   12.1232  -21.3750   -4.6000 H   0  0  0  0  0  0  0  0  0  0  0  0
   15.4220  -19.3840   -7.1746 H   0  0  0  0  0  0  0  0  0  0  0  0
   16.2495  -18.4232   -0.7290 H   0  0  0  0  0  0  0  0  0  0  0  0
   15.9724  -16.8861   -6.4036 H   0  0  0  0  0  0  0  0  0  0  0  0
   17.8548  -16.5962   -8.0574 H   0  0  0  0  0  0  0  0  0  0  0  0
   19.0304  -18.9994   -6.5307 H   0  0  0  0  0  0  0  0  0  0  0  0
   19.9730  -16.0990   -6.8182 H   0  0  0  0  0  0  0  0  0  0  0  0
   18.9126  -17.6349   -4.4072 H   0  0  0  0  0  0  0  0  0  0  0  0
   20.6674  -15.9935   -3.8030 H   0  0  0  0  0  0  0  0  0  0  0  0
   19.0863  -15.4919   -3.1868 H   0  0  0  0  0  0  0  0  0  0  0  0
   17.5936  -18.6790   -9.0528 H   0  0  0  0  0  0  0  0  0  0  0  0
   20.6283  -18.7416   -7.9670 H   0  0  0  0  0  0  0  0  0  0  0  0
   18.9009  -14.1216   -5.0288 H   0  0  0  0  0  0  0  0  0  0  0  0
   21.8688  -15.9446   -6.9957 H   0  0  0  0  0  0  0  0  0  0  0  0
   24.1270  -16.9240   -7.3518 H   0  0  0  0  0  0  0  0  0  0  0  0
   23.0053  -19.2631   -5.7006 H   0  0  0  0  0  0  0  0  0  0  0  0
   25.2586  -17.2532   -5.1312 H   0  0  0  0  0  0  0  0  0  0  0  0
   22.4953  -17.6196   -3.8221 H   0  0  0  0  0  0  0  0  0  0  0  0
   24.3798  -15.2971   -3.3415 H   0  0  0  0  0  0  0  0  0  0  0  0
   24.6528  -16.8131   -2.4660 H   0  0  0  0  0  0  0  0  0  0  0  0
   22.1634  -18.8285   -7.8331 H   0  0  0  0  0  0  0  0  0  0  0  0
   25.1385  -20.0626   -5.9784 H   0  0  0  0  0  0  0  0  0  0  0  0
   25.2754  -18.3974   -3.0952 H   0  0  0  0  0  0  0  0  0  0  0  0
   23.2588  -15.4201   -1.3246 H   0  0  0  0  0  0  0  0  0  0  0  0
  1  2  1  0  0  0  0
  1  7  1  0  0  0  0
  1 11  1  0  0  0  0
  1 35  1  6  0  0  0
  2  3  1  0  0  0  0
  2  8  1  0  0  0  0
  2 36  1  6  0  0  0
  3  4  1  0  0  0  0
  3  9  1  0  0  0  0
  3 37  1  1  0  0  0
  4  5  1  0  0  0  0
  4 10  1  0  0  0  0
  4 38  1  6  0  0  0
  5  6  1  0  0  0  0
  5 11  1  0  0  0  0
  5 39  1  1  0  0  0
  6 12  1  0  0  0  0
  6 40  1  0  0  0  0
  6 41  1  0  0  0  0
  7 42  1  0  0  0  0
  8 43  1  0  0  0  0
  9 44  1  0  0  0  0
 10 13  1  0  0  0  0
 12 45  1  0  0  0  0
 13 14  1  0  0  0  0
 13 22  1  0  0  0  0
 13 46  1  6  0  0  0
 14 15  1  0  0  0  0
 14 19  1  0  0  0  0
 14 47  1  6  0  0  0
 15 16  1  0  0  0  0
 15 20  1  0  0  0  0
 15 48  1  1  0  0  0
 16 17  1  0  0  0  0
 16 21  1  0  0  0  0
 16 49  1  6  0  0  0
 17 18  1  0  0  0  0
 17 22  1  0  0  0  0
 17 50  1  1  0  0  0
 18 23  1  0  0  0  0
 18 51  1  0  0  0  0
 18 52  1  0  0  0  0
 19 53  1  0  0  0  0
 20 54  1  0  0  0  0
 21 24  1  0  0  0  0
 23 55  1  0  0  0  0
 24 25  1  0  0  0  0
 24 33  1  0  0  0  0
 24 56  1  6  0  0  0
 25 26  1  0  0  0  0
 25 30  1  0  0  0  0
 25 57  1  6  0  0  0
 26 27  1  0  0  0  0
 26 31  1  0  0  0  0
 26 58  1  1  0  0  0
 27 28  1  0  0  0  0
 27 32  1  0  0  0  0
 27 59  1  6  0  0  0
 28 29  1  0  0  0  0
 28 33  1  0  0  0  0
 28 60  1  1  0  0  0
 29 34  1  0  0  0  0
 29 61  1  0  0  0  0
 29 62  1  0  0  0  0
 30 63  1  0  0  0  0
 31 64  1  0  0  0  0
 32 65  1  0  0  0  0
 34 66  1  0  0  0  0
M  END
$$$$
