MOL
 OpenBabel04091913283D

 44 45  0  0  1  0  0  0  0  0999 V2000
   50.2112   35.0692   39.7315 C   0  0  1  0  0  0  0  0  0  0  0  0
   51.1076   35.3317   38.5019 C   0  0  0  0  0  0  0  0  0  0  0  0
   50.2073   33.5472   39.9739 C   0  0  2  0  0  0  0  0  0  0  0  0
   50.5991   34.9425   37.2623 N   0  0  0  0  0  0  0  0  0  0  0  0
   49.8749   33.7152   34.7638 N   0  3  0  0  0  0  0  0  0  0  0  0
   49.0583   33.1819   40.9277 C   0  0  0  0  0  0  0  0  0  0  0  0
   51.0913   31.0385   44.0632 S   0  0  0  0  0  0  0  0  0  0  0  0
   49.6057   31.4246   44.8414 C   0  0  0  0  0  0  0  0  0  0  0  0
   52.2170   35.8488   38.6068 O   0  0  0  0  0  0  0  0  0  0  0  0
   49.1861   34.6711   36.9707 C   0  0  0  0  0  0  0  0  0  0  0  0
   51.3940   35.2186   36.0723 C   0  0  0  0  0  0  0  0  0  0  0  0
   51.3173   34.0484   35.0885 C   0  0  0  0  0  0  0  0  0  0  0  0
   49.0165   33.5013   35.9859 C   0  0  0  0  0  0  0  0  0  0  0  0
   51.8632   30.6818   45.5567 C   0  0  0  0  0  0  0  0  0  0  0  0
   47.9040   33.0742   40.5200 O   0  0  0  0  0  0  0  0  0  0  0  0
   49.7223   31.2728   46.2102 C   0  0  0  0  0  0  0  0  0  0  0  0
   51.0309   30.8446   46.6078 C   0  0  0  0  0  0  0  0  0  0  0  0
   49.4354   33.1237   42.2466 N   0  0  0  0  0  0  0  0  0  0  0  0
   50.6950   35.7607   40.8822 O   0  0  0  0  0  0  0  0  0  0  0  0
   51.4831   33.1068   40.4227 O   0  0  0  0  0  0  0  0  0  0  0  0
   48.3764   31.8293   44.0607 C   0  0  0  0  0  0  0  0  0  0  0  0
   48.5147   33.1786   43.3638 C   0  0  0  0  0  0  0  0  0  0  0  0
   49.2021   35.4458   39.5466 H   0  0  0  0  0  0  0  0  0  0  0  0
   49.9973   33.0069   39.0431 H   0  0  0  0  0  0  0  0  0  0  0  0
   49.4689   34.4617   34.1844 H   0  0  0  0  0  0  0  0  0  0  0  0
   48.8016   35.5924   36.5209 H   0  0  0  0  0  0  0  0  0  0  0  0
   48.6001   34.4735   37.8634 H   0  0  0  0  0  0  0  0  0  0  0  0
   52.4398   35.4274   36.3183 H   0  0  0  0  0  0  0  0  0  0  0  0
   50.9607   36.1268   35.6324 H   0  0  0  0  0  0  0  0  0  0  0  0
   51.8097   34.2937   34.1436 H   0  0  0  0  0  0  0  0  0  0  0  0
   51.7527   33.1450   35.5227 H   0  0  0  0  0  0  0  0  0  0  0  0
   49.3329   32.5560   36.4363 H   0  0  0  0  0  0  0  0  0  0  0  0
   47.9773   33.4157   35.6444 H   0  0  0  0  0  0  0  0  0  0  0  0
   52.8949   30.3596   45.5706 H   0  0  0  0  0  0  0  0  0  0  0  0
   48.9026   31.4450   46.9001 H   0  0  0  0  0  0  0  0  0  0  0  0
   51.3103   30.6581   47.6191 H   0  0  0  0  0  0  0  0  0  0  0  0
   50.3867   32.8478   42.4627 H   0  0  0  0  0  0  0  0  0  0  0  0
   50.7312   36.7077   40.6472 H   0  0  0  0  0  0  0  0  0  0  0  0
   51.6973   33.6693   41.1950 H   0  0  0  0  0  0  0  0  0  0  0  0
   47.5262   31.8938   44.7548 H   0  0  0  0  0  0  0  0  0  0  0  0
   48.1352   31.0621   43.3189 H   0  0  0  0  0  0  0  0  0  0  0  0
   47.5391   33.5277   43.0085 H   0  0  0  0  0  0  0  0  0  0  0  0
   48.9098   33.9335   44.0538 H   0  0  0  0  0  0  0  0  0  0  0  0
   49.8508   32.8625   34.1837 H   0  0  0  0  0  0  0  0  0  0  0  0
  1  2  1  0  0  0  0
  1  3  1  0  0  0  0
  1 19  1  0  0  0  0
  1 23  1  6  0  0  0
  2  4  1  0  0  0  0
  2  9  2  0  0  0  0
  3  6  1  0  0  0  0
  3 20  1  0  0  0  0
  3 24  1  6  0  0  0
  4 10  1  0  0  0  0
  4 11  1  0  0  0  0
  5 12  1  0  0  0  0
  5 13  1  0  0  0  0
  5 25  1  0  0  0  0
  5 44  1  0  0  0  0
  6 15  2  0  0  0  0
  6 18  1  0  0  0  0
  7  8  1  0  0  0  0
  7 14  1  0  0  0  0
  8 16  2  0  0  0  0
  8 21  1  0  0  0  0
 10 13  1  0  0  0  0
 10 26  1  0  0  0  0
 10 27  1  0  0  0  0
 11 12  1  0  0  0  0
 11 28  1  0  0  0  0
 11 29  1  0  0  0  0
 12 30  1  0  0  0  0
 12 31  1  0  0  0  0
 13 32  1  0  0  0  0
 13 33  1  0  0  0  0
 14 17  2  0  0  0  0
 14 34  1  0  0  0  0
 16 17  1  0  0  0  0
 16 35  1  0  0  0  0
 17 36  1  0  0  0  0
 18 22  1  0  0  0  0
 18 37  1  0  0  0  0
 19 38  1  0  0  0  0
 20 39  1  0  0  0  0
 21 22  1  0  0  0  0
 21 40  1  0  0  0  0
 21 41  1  0  0  0  0
 22 42  1  0  0  0  0
 22 43  1  0  0  0  0
M  CHG  1   5   1
M  END
$$$$
