MPV
 OpenBabel04091914203D

 21 22  0  0  0  0  0  0  0  0999 V2000
   24.3370    7.5690   11.0434 C   0  0  0  0  0  0  0  0  0  0  0  0
   25.5298    8.0116   10.5579 C   0  0  0  0  0  0  0  0  0  0  0  0
   25.2561    8.9804    9.6202 N   0  3  0  0  0  0  0  0  0  0  0  0
   23.9220    9.1460    9.4399 N   0  0  0  0  0  0  0  0  0  0  0  0
   23.3671    8.2907   10.3165 C   0  0  0  0  0  0  0  0  0  0  0  0
   21.8926    8.1182   10.4699 C   0  0  0  0  0  0  0  0  0  0  0  0
   20.7615    8.7102    9.3382 S   0  0  0  0  0  0  0  0  0  0  0  0
   19.4566    8.0818   10.2382 C   0  0  0  0  0  0  0  0  0  0  0  0
   19.8697    7.4375   11.3801 C   0  0  0  0  0  0  0  0  0  0  0  0
   21.2868    7.4532   11.5194 C   0  0  0  0  0  0  0  0  0  0  0  0
   26.1739    9.7767    8.8399 C   0  0  0  0  0  0  0  0  0  0  0  0
   26.7601    7.6016   10.9077 N   0  0  0  0  0  0  0  0  0  0  0  0
   24.1724    6.7911   11.7745 H   0  0  0  0  0  0  0  0  0  0  0  0
   18.4408    8.2244    9.8873 H   0  0  0  0  0  0  0  0  0  0  0  0
   19.1852    6.9832   12.0862 H   0  0  0  0  0  0  0  0  0  0  0  0
   21.8104    7.0179   12.3593 H   0  0  0  0  0  0  0  0  0  0  0  0
   25.6136   10.4630    8.1990 H   0  0  0  0  0  0  0  0  0  0  0  0
   26.7882    9.1255    8.2084 H   0  0  0  0  0  0  0  0  0  0  0  0
   26.8172   10.3592    9.5058 H   0  0  0  0  0  0  0  0  0  0  0  0
   26.8779    6.8727   11.6036 H   0  0  0  0  0  0  0  0  0  0  0  0
   27.6158    7.9931   10.5333 H   0  0  0  0  0  0  0  0  0  0  0  0
  1  2  1  0  0  0  0
  1  5  2  0  0  0  0
  1 13  1  0  0  0  0
  2  3  2  0  0  0  0
  2 12  1  0  0  0  0
  3  4  1  0  0  0  0
  3 11  1  0  0  0  0
  4  5  1  0  0  0  0
  5  6  1  0  0  0  0
  6  7  1  0  0  0  0
  6 10  2  0  0  0  0
  7  8  1  0  0  0  0
  8  9  2  0  0  0  0
  8 14  1  0  0  0  0
  9 10  1  0  0  0  0
  9 15  1  0  0  0  0
 10 16  1  0  0  0  0
 11 17  1  0  0  0  0
 11 18  1  0  0  0  0
 11 19  1  0  0  0  0
 12 20  1  0  0  0  0
 12 21  1  0  0  0  0
M  CHG  1   3   1
M  END
$$$$
