MS8
 OpenBabel04091912413D

 34 35  0  0  1  0  0  0  0  0999 V2000
   -0.8451   45.2643   -1.1145 O   0  0  0  0  0  0  0  0  0  0  0  0
   -1.0574   44.1198   -0.6425 C   0  0  0  0  0  0  0  0  0  0  0  0
   -1.5264   43.0732   -1.1705 O   0  0  0  0  0  0  0  0  0  0  0  0
   -0.6790   43.8535    0.8562 C   0  0  1  0  0  0  0  0  0  0  0  0
   -0.9643   42.4114    1.2635 N   0  3  0  0  0  0  0  0  0  0  0  0
    0.8042   44.1350    1.0463 C   0  0  0  0  0  0  0  0  0  0  0  0
    1.2045   44.1825    2.5293 C   0  0  1  0  0  0  0  0  0  0  0  0
    2.7115   44.4557    2.6763 C   0  0  0  0  0  0  0  0  0  0  0  0
    0.3929   45.2938    3.2716 C   0  0  0  0  0  0  0  0  0  0  0  0
   -0.1755   44.9403    4.3457 O   0  0  0  0  0  0  0  0  0  0  0  0
    0.3338   46.3972    2.6705 O   0  0  0  0  0  0  0  0  0  0  0  0
    0.9626   42.8261    3.0432 O   0  0  0  0  0  0  0  0  0  0  0  0
    2.2095   42.1520    2.8334 C   0  0  1  0  0  0  0  0  0  0  0  0
    3.2641   43.1657    3.2499 C   0  0  2  0  0  0  0  0  0  0  0  0
    2.2549   40.8486    3.5926 C   0  0  0  0  0  0  0  0  0  0  0  0
    2.4087   41.1065    5.0810 C   0  0  0  0  0  0  0  0  0  0  0  0
    3.5832   42.0463    5.3153 C   0  0  0  0  0  0  0  0  0  0  0  0
    3.3675   43.2960    4.6708 O   0  0  0  0  0  0  0  0  0  0  0  0
   -1.3172   44.4579    1.5110 H   0  0  0  0  0  0  0  0  0  0  0  0
   -0.6758   42.2521    2.2402 H   0  0  0  0  0  0  0  0  0  0  0  0
   -1.9601   42.2483    1.0893 H   0  0  0  0  0  0  0  0  0  0  0  0
    1.0897   45.0684    0.5553 H   0  0  0  0  0  0  0  0  0  0  0  0
    1.3739   43.3460    0.5314 H   0  0  0  0  0  0  0  0  0  0  0  0
    2.9287   45.3201    3.3130 H   0  0  0  0  0  0  0  0  0  0  0  0
    3.1588   44.6551    1.6943 H   0  0  0  0  0  0  0  0  0  0  0  0
    2.2731   41.9289    1.7633 H   0  0  0  0  0  0  0  0  0  0  0  0
    4.2555   42.9190    2.8552 H   0  0  0  0  0  0  0  0  0  0  0  0
    3.1136   40.2698    3.2317 H   0  0  0  0  0  0  0  0  0  0  0  0
    1.3482   40.2652    3.4013 H   0  0  0  0  0  0  0  0  0  0  0  0
    2.5635   40.1594    5.6061 H   0  0  0  0  0  0  0  0  0  0  0  0
    1.4869   41.5620    5.4629 H   0  0  0  0  0  0  0  0  0  0  0  0
    4.5152   41.6130    4.9356 H   0  0  0  0  0  0  0  0  0  0  0  0
    3.7081   42.2304    6.3856 H   0  0  0  0  0  0  0  0  0  0  0  0
   -0.4740   41.8047    0.5977 H   0  0  0  0  0  0  0  0  0  0  0  0
  1  2  2  0  0  0  0
  2  3  1  0  0  0  0
  2  4  1  0  0  0  0
  4  5  1  0  0  0  0
  4  6  1  0  0  0  0
  4 19  1  1  0  0  0
  5 20  1  0  0  0  0
  5 21  1  0  0  0  0
  5 34  1  0  0  0  0
  6 22  1  0  0  0  0
  6 23  1  0  0  0  0
  7  6  1  6  0  0  0
  7  8  1  0  0  0  0
  7  9  1  0  0  0  0
  7 12  1  0  0  0  0
  8 14  1  0  0  0  0
  8 24  1  0  0  0  0
  8 25  1  0  0  0  0
  9 10  2  0  0  0  0
  9 11  1  0  0  0  0
 12 13  1  0  0  0  0
 13 14  1  0  0  0  0
 13 15  1  0  0  0  0
 13 26  1  6  0  0  0
 14 18  1  0  0  0  0
 14 27  1  6  0  0  0
 15 16  1  0  0  0  0
 15 28  1  0  0  0  0
 15 29  1  0  0  0  0
 16 17  1  0  0  0  0
 16 30  1  0  0  0  0
 16 31  1  0  0  0  0
 17 18  1  0  0  0  0
 17 32  1  0  0  0  0
 17 33  1  0  0  0  0
M  CHG  1   5   1
M  END
$$$$
