MS9
 OpenBabel04091913513D

 20 20  0  0  0  0  0  0  0  0999 V2000
    0.6653   59.3140   30.6201 Cl  0  0  0  0  0  0  0  0  0  0  0  0
   -1.0344   59.5646   30.6408 C   0  0  0  0  0  0  0  0  0  0  0  0
   -1.5492   60.7690   31.1180 C   0  0  0  0  0  0  0  0  0  0  0  0
   -2.9301   61.0047   31.1464 C   0  0  0  0  0  0  0  0  0  0  0  0
   -3.8076   59.9664   30.7301 C   0  0  0  0  0  0  0  0  0  0  0  0
   -3.2738   58.7549   30.2524 C   0  0  0  0  0  0  0  0  0  0  0  0
   -1.8909   58.5576   30.2022 C   0  0  0  0  0  0  0  0  0  0  0  0
   -5.2831   60.1936   30.7610 C   0  0  0  0  0  0  0  0  0  0  0  0
   -5.7931   61.2646   31.0957 O   0  0  0  0  0  0  0  0  0  0  0  0
   -5.9938   59.1166   30.3402 O   0  0  0  0  0  0  0  0  0  0  0  0
   -7.4034   59.3628   30.2932 C   0  0  0  0  0  0  0  0  0  0  0  0
   -3.3846   62.1623   31.7911 N   0  0  0  0  0  0  0  0  0  0  0  0
   -0.8668   61.5330   31.4825 H   0  0  0  0  0  0  0  0  0  0  0  0
   -3.9252   57.9496   29.9176 H   0  0  0  0  0  0  0  0  0  0  0  0
   -1.4866   57.6184   29.8315 H   0  0  0  0  0  0  0  0  0  0  0  0
   -7.9152   58.4315   30.0291 H   0  0  0  0  0  0  0  0  0  0  0  0
   -7.6271   60.1106   29.5259 H   0  0  0  0  0  0  0  0  0  0  0  0
   -7.7759   59.6930   31.2679 H   0  0  0  0  0  0  0  0  0  0  0  0
   -2.7616   62.9599   31.8470 H   0  0  0  0  0  0  0  0  0  0  0  0
   -4.3668   62.3990   31.6097 H   0  0  0  0  0  0  0  0  0  0  0  0
  1  2  1  0  0  0  0
  2  3  2  0  0  0  0
  2  7  1  0  0  0  0
  3  4  1  0  0  0  0
  3 13  1  0  0  0  0
  4  5  2  0  0  0  0
  4 12  1  0  0  0  0
  5  6  1  0  0  0  0
  5  8  1  0  0  0  0
  6  7  2  0  0  0  0
  6 14  1  0  0  0  0
  7 15  1  0  0  0  0
  8  9  2  0  0  0  0
  8 10  1  0  0  0  0
 10 11  1  0  0  0  0
 11 16  1  0  0  0  0
 11 17  1  0  0  0  0
 11 18  1  0  0  0  0
 12 19  1  0  0  0  0
 12 20  1  0  0  0  0
M  END
$$$$
