MTX
 OpenBabel04091914553D

 53 55  0  0  1  0  0  0  0  0999 V2000
  -15.6460   15.5789  -27.8088 N   0  0  0  0  0  0  0  0  0  0  0  0
  -15.6687   16.7488  -27.1840 C   0  0  0  0  0  0  0  0  0  0  0  0
  -14.4648   17.1764  -26.6238 N   0  0  0  0  0  0  0  0  0  0  0  0
  -16.7003   17.5985  -27.1984 N   0  0  0  0  0  0  0  0  0  0  0  0
  -17.7808   17.1723  -27.8843 C   0  0  0  0  0  0  0  0  0  0  0  0
  -18.8280   18.0865  -27.9855 N   0  0  0  0  0  0  0  0  0  0  0  0
  -17.8806   15.9513  -28.5505 C   0  0  0  0  0  0  0  0  0  0  0  0
  -19.0088   15.5630  -29.2297 N   0  0  0  0  0  0  0  0  0  0  0  0
  -18.9828   14.3397  -29.8188 C   0  0  0  0  0  0  0  0  0  0  0  0
  -17.8483   13.5566  -29.7038 C   0  0  0  0  0  0  0  0  0  0  0  0
  -16.7258   13.9598  -29.0475 N   0  0  0  0  0  0  0  0  0  0  0  0
  -16.7406   15.1612  -28.4592 C   0  0  0  0  0  0  0  0  0  0  0  0
  -20.2325   13.8631  -30.5421 C   0  0  0  0  0  0  0  0  0  0  0  0
  -20.0176   12.6768  -31.3972 N   0  0  0  0  0  0  0  0  0  0  0  0
  -19.3856   12.9673  -32.6910 C   0  0  0  0  0  0  0  0  0  0  0  0
  -22.6493    9.3362  -31.2714 C   0  0  0  0  0  0  0  0  0  0  0  0
  -21.8128    9.5539  -32.3597 C   0  0  0  0  0  0  0  0  0  0  0  0
  -20.9189   10.6179  -32.3572 C   0  0  0  0  0  0  0  0  0  0  0  0
  -20.8926   11.5812  -31.3346 C   0  0  0  0  0  0  0  0  0  0  0  0
  -21.7327   11.3097  -30.2338 C   0  0  0  0  0  0  0  0  0  0  0  0
  -22.5365   10.1554  -30.1608 C   0  0  0  0  0  0  0  0  0  0  0  0
  -23.6558    8.2555  -31.4067 C   0  0  0  0  0  0  0  0  0  0  0  0
  -24.3061    8.1702  -32.4318 O   0  0  0  0  0  0  0  0  0  0  0  0
  -23.6726    7.3074  -30.4046 N   0  0  0  0  0  0  0  0  0  0  0  0
  -22.9025    6.0217  -30.5925 C   0  0  2  0  0  0  0  0  0  0  0  0
  -22.3209    5.5454  -29.2049 C   0  0  0  0  0  0  0  0  0  0  0  0
  -21.7775    6.4831  -28.5345 O   0  0  0  0  0  0  0  0  0  0  0  0
  -22.6942    4.3976  -28.8252 O   0  0  0  0  0  0  0  0  0  0  0  0
  -21.9100    6.0231  -31.7848 C   0  0  0  0  0  0  0  0  0  0  0  0
  -20.4187    6.0165  -31.4713 C   0  0  0  0  0  0  0  0  0  0  0  0
  -19.9089    4.6720  -30.9433 C   0  0  0  0  0  0  0  0  0  0  0  0
  -19.0772    4.7431  -29.9953 O   0  0  0  0  0  0  0  0  0  0  0  0
  -20.2643    3.6635  -31.6231 O   0  0  0  0  0  0  0  0  0  0  0  0
  -13.7656   16.4515  -26.5145 H   0  0  0  0  0  0  0  0  0  0  0  0
  -14.5027   17.9874  -26.0355 H   0  0  0  0  0  0  0  0  0  0  0  0
  -19.7202   17.7035  -28.2795 H   0  0  0  0  0  0  0  0  0  0  0  0
  -18.7918   18.9009  -27.3901 H   0  0  0  0  0  0  0  0  0  0  0  0
  -17.7883   12.5708  -30.1592 H   0  0  0  0  0  0  0  0  0  0  0  0
  -20.6029   14.6819  -31.1710 H   0  0  0  0  0  0  0  0  0  0  0  0
  -20.9968   13.7189  -29.7741 H   0  0  0  0  0  0  0  0  0  0  0  0
  -19.0387   12.0823  -33.2293 H   0  0  0  0  0  0  0  0  0  0  0  0
  -18.4752   13.5575  -32.5553 H   0  0  0  0  0  0  0  0  0  0  0  0
  -20.0775   13.5234  -33.3316 H   0  0  0  0  0  0  0  0  0  0  0  0
  -21.8070    8.8680  -33.2035 H   0  0  0  0  0  0  0  0  0  0  0  0
  -20.2538   10.6365  -33.2099 H   0  0  0  0  0  0  0  0  0  0  0  0
  -21.7986   11.9696  -29.3769 H   0  0  0  0  0  0  0  0  0  0  0  0
  -23.0616    9.9121  -29.2430 H   0  0  0  0  0  0  0  0  0  0  0  0
  -23.5364    7.6111  -29.4454 H   0  0  0  0  0  0  0  0  0  0  0  0
  -23.7003    5.3176  -30.8533 H   0  0  0  0  0  0  0  0  0  0  0  0
  -22.0730    6.8715  -32.4470 H   0  0  0  0  0  0  0  0  0  0  0  0
  -22.1579    5.1745  -32.4334 H   0  0  0  0  0  0  0  0  0  0  0  0
  -20.1490    6.8519  -30.8157 H   0  0  0  0  0  0  0  0  0  0  0  0
  -19.8733    6.1853  -32.4125 H   0  0  0  0  0  0  0  0  0  0  0  0
  1  2  2  0  0  0  0
  1 12  1  0  0  0  0
  2  3  1  0  0  0  0
  2  4  1  0  0  0  0
  3 34  1  0  0  0  0
  3 35  1  0  0  0  0
  4  5  2  0  0  0  0
  5  6  1  0  0  0  0
  5  7  1  0  0  0  0
  6 36  1  0  0  0  0
  6 37  1  0  0  0  0
  7  8  2  0  0  0  0
  7 12  1  0  0  0  0
  8  9  1  0  0  0  0
  9 10  2  0  0  0  0
  9 13  1  0  0  0  0
 10 11  1  0  0  0  0
 10 38  1  0  0  0  0
 11 12  2  0  0  0  0
 13 14  1  0  0  0  0
 13 39  1  0  0  0  0
 13 40  1  0  0  0  0
 14 15  1  0  0  0  0
 14 19  1  0  0  0  0
 15 41  1  0  0  0  0
 15 42  1  0  0  0  0
 15 43  1  0  0  0  0
 16 17  2  0  0  0  0
 16 21  1  0  0  0  0
 16 22  1  0  0  0  0
 17 18  1  0  0  0  0
 17 44  1  0  0  0  0
 18 19  2  0  0  0  0
 18 45  1  0  0  0  0
 19 20  1  0  0  0  0
 20 21  2  0  0  0  0
 20 46  1  0  0  0  0
 21 47  1  0  0  0  0
 22 23  2  0  0  0  0
 22 24  1  0  0  0  0
 24 25  1  0  0  0  0
 24 48  1  0  0  0  0
 25 26  1  0  0  0  0
 25 29  1  0  0  0  0
 25 49  1  6  0  0  0
 26 27  2  0  0  0  0
 26 28  1  0  0  0  0
 29 30  1  0  0  0  0
 29 50  1  0  0  0  0
 29 51  1  0  0  0  0
 30 31  1  0  0  0  0
 30 52  1  0  0  0  0
 30 53  1  0  0  0  0
 31 32  2  0  0  0  0
 31 33  1  0  0  0  0
M  END
$$$$
