MTX
 OpenBabel04091914553D

 53 55  0  0  1  0  0  0  0  0999 V2000
   31.2586  -40.9969   -5.6708 N   0  0  0  0  0  0  0  0  0  0  0  0
   29.9995  -41.0076   -6.0537 C   0  0  0  0  0  0  0  0  0  0  0  0
   29.0522  -40.9903   -5.0597 N   0  0  0  0  0  0  0  0  0  0  0  0
   29.5739  -41.0266   -7.3255 N   0  0  0  0  0  0  0  0  0  0  0  0
   30.5388  -41.0440   -8.2567 C   0  0  0  0  0  0  0  0  0  0  0  0
   30.1270  -41.0731   -9.5862 N   0  0  0  0  0  0  0  0  0  0  0  0
   31.9022  -41.0758   -7.9716 C   0  0  0  0  0  0  0  0  0  0  0  0
   32.8438  -41.1486   -8.9528 N   0  0  0  0  0  0  0  0  0  0  0  0
   34.1396  -41.2283   -8.5615 C   0  0  0  0  0  0  0  0  0  0  0  0
   34.4505  -41.1819   -7.2091 C   0  0  0  0  0  0  0  0  0  0  0  0
   33.4983  -41.0657   -6.2399 N   0  0  0  0  0  0  0  0  0  0  0  0
   32.2074  -41.0405   -6.6109 C   0  0  0  0  0  0  0  0  0  0  0  0
   35.1647  -41.3997   -9.6562 C   0  0  0  0  0  0  0  0  0  0  0  0
   36.4866  -40.8682   -9.3239 N   0  0  0  0  0  0  0  0  0  0  0  0
   36.5655  -39.4108   -9.2811 C   0  0  0  0  0  0  0  0  0  0  0  0
   39.9575  -43.2778   -8.9565 C   0  0  0  0  0  0  0  0  0  0  0  0
   38.7007  -43.8719   -9.1062 C   0  0  0  0  0  0  0  0  0  0  0  0
   37.5592  -43.0750   -9.2374 C   0  0  0  0  0  0  0  0  0  0  0  0
   37.6162  -41.6668   -9.2573 C   0  0  0  0  0  0  0  0  0  0  0  0
   38.9039  -41.1154   -9.1680 C   0  0  0  0  0  0  0  0  0  0  0  0
   40.0502  -41.8988   -9.0048 C   0  0  0  0  0  0  0  0  0  0  0  0
   41.2260  -44.0422   -8.8355 C   0  0  0  0  0  0  0  0  0  0  0  0
   42.2749  -43.5039   -9.1803 O   0  0  0  0  0  0  0  0  0  0  0  0
   41.1214  -45.3343   -8.3925 N   0  0  0  0  0  0  0  0  0  0  0  0
   42.2346  -46.2919   -8.4082 C   0  0  2  0  0  0  0  0  0  0  0  0
   41.8482  -47.6585   -9.0575 C   0  0  0  0  0  0  0  0  0  0  0  0
   42.8170  -48.3946   -9.4134 O   0  0  0  0  0  0  0  0  0  0  0  0
   40.6005  -47.8730   -9.1919 O   0  0  0  0  0  0  0  0  0  0  0  0
   42.7432  -46.6150   -6.9964 C   0  0  0  0  0  0  0  0  0  0  0  0
   43.1410  -45.3598   -6.2195 C   0  0  0  0  0  0  0  0  0  0  0  0
   41.9201  -44.8025   -5.4728 C   0  0  0  0  0  0  0  0  0  0  0  0
   41.2414  -45.6410   -4.8069 O   0  0  0  0  0  0  0  0  0  0  0  0
   41.7613  -43.5514   -5.5430 O   0  0  0  0  0  0  0  0  0  0  0  0
   29.4110  -41.0731   -4.1176 H   0  0  0  0  0  0  0  0  0  0  0  0
   28.0908  -41.1727   -5.2909 H   0  0  0  0  0  0  0  0  0  0  0  0
   30.8399  -40.9881  -10.3025 H   0  0  0  0  0  0  0  0  0  0  0  0
   29.1440  -41.0344   -9.7982 H   0  0  0  0  0  0  0  0  0  0  0  0
   35.4758  -41.2269   -6.8566 H   0  0  0  0  0  0  0  0  0  0  0  0
   34.8040  -40.8607  -10.5439 H   0  0  0  0  0  0  0  0  0  0  0  0
   35.1608  -42.4503   -9.9578 H   0  0  0  0  0  0  0  0  0  0  0  0
   37.5322  -39.0010   -8.9955 H   0  0  0  0  0  0  0  0  0  0  0  0
   35.8658  -39.0260   -8.5328 H   0  0  0  0  0  0  0  0  0  0  0  0
   36.2981  -38.9950  -10.2575 H   0  0  0  0  0  0  0  0  0  0  0  0
   38.6012  -44.9561   -9.1338 H   0  0  0  0  0  0  0  0  0  0  0  0
   36.6180  -43.6131   -9.3179 H   0  0  0  0  0  0  0  0  0  0  0  0
   39.0908  -40.0519   -9.2136 H   0  0  0  0  0  0  0  0  0  0  0  0
   41.0199  -41.4187   -8.9014 H   0  0  0  0  0  0  0  0  0  0  0  0
   40.2439  -45.7354   -8.0906 H   0  0  0  0  0  0  0  0  0  0  0  0
   43.0523  -45.8502   -8.9890 H   0  0  0  0  0  0  0  0  0  0  0  0
   43.6170  -47.2750   -7.0698 H   0  0  0  0  0  0  0  0  0  0  0  0
   41.9850  -47.1910   -6.4518 H   0  0  0  0  0  0  0  0  0  0  0  0
   43.5760  -44.6108   -6.8925 H   0  0  0  0  0  0  0  0  0  0  0  0
   43.9190  -45.6049   -5.4855 H   0  0  0  0  0  0  0  0  0  0  0  0
  1  2  2  0  0  0  0
  1 12  1  0  0  0  0
  2  3  1  0  0  0  0
  2  4  1  0  0  0  0
  3 34  1  0  0  0  0
  3 35  1  0  0  0  0
  4  5  2  0  0  0  0
  5  6  1  0  0  0  0
  5  7  1  0  0  0  0
  6 36  1  0  0  0  0
  6 37  1  0  0  0  0
  7  8  2  0  0  0  0
  7 12  1  0  0  0  0
  8  9  1  0  0  0  0
  9 10  2  0  0  0  0
  9 13  1  0  0  0  0
 10 11  1  0  0  0  0
 10 38  1  0  0  0  0
 11 12  2  0  0  0  0
 13 14  1  0  0  0  0
 13 39  1  0  0  0  0
 13 40  1  0  0  0  0
 14 15  1  0  0  0  0
 14 19  1  0  0  0  0
 15 41  1  0  0  0  0
 15 42  1  0  0  0  0
 15 43  1  0  0  0  0
 16 17  2  0  0  0  0
 16 21  1  0  0  0  0
 16 22  1  0  0  0  0
 17 18  1  0  0  0  0
 17 44  1  0  0  0  0
 18 19  2  0  0  0  0
 18 45  1  0  0  0  0
 19 20  1  0  0  0  0
 20 21  2  0  0  0  0
 20 46  1  0  0  0  0
 21 47  1  0  0  0  0
 22 23  2  0  0  0  0
 22 24  1  0  0  0  0
 24 25  1  0  0  0  0
 24 48  1  0  0  0  0
 25 26  1  0  0  0  0
 25 29  1  0  0  0  0
 25 49  1  6  0  0  0
 26 27  2  0  0  0  0
 26 28  1  0  0  0  0
 29 30  1  0  0  0  0
 29 50  1  0  0  0  0
 29 51  1  0  0  0  0
 30 31  1  0  0  0  0
 30 52  1  0  0  0  0
 30 53  1  0  0  0  0
 31 32  2  0  0  0  0
 31 33  1  0  0  0  0
M  END
$$$$
