MU2
 OpenBabel04091914093D

 65 65  0  0  1  0  0  0  0  0999 V2000
  -17.6574  -21.2490  -19.4060 C   0  0  2  0  0  0  0  0  0  0  0  0
  -17.6039  -20.2860  -18.3221 O   0  0  0  0  0  0  0  0  0  0  0  0
  -16.2715  -21.9058  -19.6433 C   0  0  2  0  0  0  0  0  0  0  0  0
  -15.4114  -21.6744  -18.4695 N   0  0  0  0  0  0  0  0  0  0  0  0
  -15.5714  -22.2191  -17.2236 C   0  0  0  0  0  0  0  0  0  0  0  0
  -16.4902  -22.9332  -16.9337 O   0  0  0  0  0  0  0  0  0  0  0  0
  -14.5548  -21.7018  -16.2482 C   0  0  0  0  0  0  0  0  0  0  0  0
  -15.4889  -21.3127  -20.8321 C   0  0  1  0  0  0  0  0  0  0  0  0
  -14.3604  -22.1687  -21.0741 O   0  0  0  0  0  0  0  0  0  0  0  0
  -16.3847  -20.9189  -22.0067 C   0  0  2  0  0  0  0  0  0  0  0  0
  -15.5839  -20.2702  -22.9985 O   0  0  0  0  0  0  0  0  0  0  0  0
  -17.4331  -19.9754  -21.4339 C   0  0  2  0  0  0  0  0  0  0  0  0
  -18.2906  -20.7059  -20.5645 O   0  0  0  0  0  0  0  0  0  0  0  0
  -18.2493  -19.3084  -22.5468 C   0  0  0  0  0  0  0  0  0  0  0  0
  -17.5191  -18.2248  -23.1353 O   0  0  0  0  0  0  0  0  0  0  0  0
  -14.1594  -22.6360  -22.3968 C   0  0  2  0  0  0  0  0  0  0  0  0
  -14.0561  -24.1531  -22.3913 C   0  0  0  0  0  0  0  0  0  0  0  0
  -12.8989  -22.0378  -23.0619 C   0  0  0  0  0  0  0  0  0  0  0  0
  -12.0638  -21.4828  -22.4033 O   0  0  0  0  0  0  0  0  0  0  0  0
  -12.8829  -22.3028  -24.4066 N   0  0  0  0  0  0  0  0  0  0  0  0
  -11.9780  -21.8355  -25.4427 C   0  0  1  0  0  0  0  0  0  0  0  0
  -12.6137  -20.6793  -26.1833 C   0  0  0  0  0  0  0  0  0  0  0  0
  -10.4961  -21.5348  -25.1671 C   0  0  0  0  0  0  0  0  0  0  0  0
  -10.0913  -21.0797  -24.1263 O   0  0  0  0  0  0  0  0  0  0  0  0
   -9.7563  -21.6520  -26.3136 N   0  0  0  0  0  0  0  0  0  0  0  0
   -8.3041  -21.4328  -26.4853 C   0  0  2  0  0  0  0  0  0  0  0  0
   -8.0691  -21.9741  -27.9025 C   0  0  0  0  0  0  0  0  0  0  0  0
   -6.8530  -21.4260  -28.6025 C   0  0  0  0  0  0  0  0  0  0  0  0
   -5.9935  -22.5614  -29.0885 C   0  0  0  0  0  0  0  0  0  0  0  0
   -6.4162  -23.1955  -30.2182 N   0  0  0  0  0  0  0  0  0  0  0  0
   -4.9839  -22.9466  -28.5049 O   0  0  0  0  0  0  0  0  0  0  0  0
   -7.3548  -22.1472  -25.4658 C   0  0  0  0  0  0  0  0  0  0  0  0
   -7.9221  -22.8482  -24.5707 O   0  0  0  0  0  0  0  0  0  0  0  0
   -6.1229  -21.9895  -25.6814 O   0  0  0  0  0  0  0  0  0  0  0  0
  -18.3316  -22.0364  -19.0619 H   0  0  0  0  0  0  0  0  0  0  0  0
  -17.1817  -20.7836  -17.5795 H   0  0  0  0  0  0  0  0  0  0  0  0
  -16.4363  -22.9894  -19.7889 H   0  0  0  0  0  0  0  0  0  0  0  0
  -14.6532  -21.0285  -18.6169 H   0  0  0  0  0  0  0  0  0  0  0  0
  -14.7517  -22.1522  -15.2822 H   0  0  0  0  0  0  0  0  0  0  0  0
  -14.6190  -20.6080  -16.1614 H   0  0  0  0  0  0  0  0  0  0  0  0
  -13.5628  -21.9813  -16.5989 H   0  0  0  0  0  0  0  0  0  0  0  0
  -15.0600  -20.3727  -20.4603 H   0  0  0  0  0  0  0  0  0  0  0  0
  -16.8441  -21.8189  -22.4378 H   0  0  0  0  0  0  0  0  0  0  0  0
  -16.1524  -20.0171  -23.7472 H   0  0  0  0  0  0  0  0  0  0  0  0
  -16.9330  -19.1760  -20.8803 H   0  0  0  0  0  0  0  0  0  0  0  0
  -19.1936  -18.9216  -22.1522 H   0  0  0  0  0  0  0  0  0  0  0  0
  -18.4856  -20.0254  -23.3446 H   0  0  0  0  0  0  0  0  0  0  0  0
  -17.3099  -17.5815  -22.4328 H   0  0  0  0  0  0  0  0  0  0  0  0
  -14.9995  -22.3963  -23.0435 H   0  0  0  0  0  0  0  0  0  0  0  0
  -13.9133  -24.5496  -23.4047 H   0  0  0  0  0  0  0  0  0  0  0  0
  -14.9708  -24.5867  -21.9762 H   0  0  0  0  0  0  0  0  0  0  0  0
  -13.2113  -24.4759  -21.7741 H   0  0  0  0  0  0  0  0  0  0  0  0
  -13.7002  -22.7582  -24.7590 H   0  0  0  0  0  0  0  0  0  0  0  0
  -11.9432  -22.7016  -26.1311 H   0  0  0  0  0  0  0  0  0  0  0  0
  -11.9786  -20.3270  -27.0010 H   0  0  0  0  0  0  0  0  0  0  0  0
  -12.7866  -19.8527  -25.4891 H   0  0  0  0  0  0  0  0  0  0  0  0
  -13.5777  -20.9922  -26.5978 H   0  0  0  0  0  0  0  0  0  0  0  0
  -10.2299  -22.0233  -27.1100 H   0  0  0  0  0  0  0  0  0  0  0  0
   -8.1134  -20.3519  -26.4354 H   0  0  0  0  0  0  0  0  0  0  0  0
   -8.9459  -21.7229  -28.5191 H   0  0  0  0  0  0  0  0  0  0  0  0
   -8.0174  -23.0691  -27.8421 H   0  0  0  0  0  0  0  0  0  0  0  0
   -6.2572  -20.8076  -27.9368 H   0  0  0  0  0  0  0  0  0  0  0  0
   -7.1509  -20.8188  -29.4658 H   0  0  0  0  0  0  0  0  0  0  0  0
   -5.8742  -23.9815  -30.5662 H   0  0  0  0  0  0  0  0  0  0  0  0
   -7.2438  -22.8949  -30.7002 H   0  0  0  0  0  0  0  0  0  0  0  0
  1  2  1  0  0  0  0
  1  3  1  0  0  0  0
  1 13  1  0  0  0  0
  1 35  1  1  0  0  0
  2 36  1  0  0  0  0
  3  4  1  0  0  0  0
  3  8  1  0  0  0  0
  3 37  1  6  0  0  0
  4  5  1  0  0  0  0
  4 38  1  0  0  0  0
  5  6  2  0  0  0  0
  5  7  1  0  0  0  0
  7 39  1  0  0  0  0
  7 40  1  0  0  0  0
  7 41  1  0  0  0  0
  8  9  1  0  0  0  0
  8 10  1  0  0  0  0
  8 42  1  1  0  0  0
  9 16  1  0  0  0  0
 10 11  1  0  0  0  0
 10 12  1  0  0  0  0
 10 43  1  6  0  0  0
 11 44  1  0  0  0  0
 12 13  1  0  0  0  0
 12 14  1  0  0  0  0
 12 45  1  1  0  0  0
 14 15  1  0  0  0  0
 14 46  1  0  0  0  0
 14 47  1  0  0  0  0
 15 48  1  0  0  0  0
 16 17  1  0  0  0  0
 16 18  1  0  0  0  0
 16 49  1  6  0  0  0
 17 50  1  0  0  0  0
 17 51  1  0  0  0  0
 17 52  1  0  0  0  0
 18 19  2  0  0  0  0
 18 20  1  0  0  0  0
 20 21  1  0  0  0  0
 20 53  1  0  0  0  0
 21 22  1  0  0  0  0
 21 23  1  0  0  0  0
 21 54  1  6  0  0  0
 22 55  1  0  0  0  0
 22 56  1  0  0  0  0
 22 57  1  0  0  0  0
 23 24  2  0  0  0  0
 23 25  1  0  0  0  0
 25 26  1  0  0  0  0
 25 58  1  0  0  0  0
 26 27  1  0  0  0  0
 26 32  1  0  0  0  0
 26 59  1  1  0  0  0
 27 28  1  0  0  0  0
 27 60  1  0  0  0  0
 27 61  1  0  0  0  0
 28 29  1  0  0  0  0
 28 62  1  0  0  0  0
 28 63  1  0  0  0  0
 29 30  1  0  0  0  0
 29 31  2  0  0  0  0
 30 64  1  0  0  0  0
 30 65  1  0  0  0  0
 32 33  2  0  0  0  0
 32 34  1  0  0  0  0
M  END
$$$$
