MV7
 OpenBabel04091913013D

118121  0  0  1  0  0  0  0  0999 V2000
    2.0199   19.6647   28.1153 O   0  0  0  0  0  0  0  0  0  0  0  0
    1.1282   19.1391   28.7621 C   0  0  0  0  0  0  0  0  0  0  0  0
   -0.1949   19.2063   28.4318 N   0  0  0  0  0  0  0  0  0  0  0  0
   -0.6737   19.8189   27.2106 C   0  0  1  0  0  0  0  0  0  0  0  0
   -0.9236   18.7591   26.1474 C   0  0  0  0  0  0  0  0  0  0  0  0
   -0.2554   18.8233   24.9135 C   0  0  0  0  0  0  0  0  0  0  0  0
   -0.4701   17.8612   23.9195 C   0  0  0  0  0  0  0  0  0  0  0  0
   -1.3463   16.8059   24.1554 C   0  0  0  0  0  0  0  0  0  0  0  0
   -2.0011   16.7157   25.3833 C   0  0  0  0  0  0  0  0  0  0  0  0
   -1.7904   17.6806   26.3725 C   0  0  0  0  0  0  0  0  0  0  0  0
   -1.9357   20.5929   27.5765 C   0  0  0  0  0  0  0  0  0  0  0  0
    1.4778   18.3867   29.9731 C   0  0  0  0  0  0  0  0  0  0  0  0
    2.7167   17.7391   30.0297 C   0  0  0  0  0  0  0  0  0  0  0  0
    3.0480   16.9862   31.1506 C   0  0  0  0  0  0  0  0  0  0  0  0
    4.2930   16.2969   31.2784 N   0  0  0  0  0  0  0  0  0  0  0  0
    5.0680   15.5469   30.0013 S   0  0  0  0  0  0  0  0  0  0  0  0
    5.8389   14.4212   30.5698 O   0  0  0  0  0  0  0  0  0  0  0  0
    6.2969   16.7340   29.5491 C   0  0  0  0  0  0  0  0  0  0  0  0
    4.1596   15.3427   28.8971 O   0  0  0  0  0  0  0  0  0  0  0  0
    4.9321   16.1976   32.5920 C   0  0  0  0  0  0  0  0  0  0  0  0
    2.1457   16.9379   32.2235 C   0  0  0  0  0  0  0  0  0  0  0  0
    0.5907   18.3344   31.0399 C   0  0  0  0  0  0  0  0  0  0  0  0
    0.9259   17.5989   32.1645 C   0  0  0  0  0  0  0  0  0  0  0  0
    0.0129   17.5803   33.3134 C   0  0  0  0  0  0  0  0  0  0  0  0
    0.4409   17.7872   34.4490 O   0  0  0  0  0  0  0  0  0  0  0  0
   -1.2997   17.3657   33.0100 N   0  0  0  0  0  0  0  0  0  0  0  0
   -2.3910   17.4323   33.9704 C   0  0  1  0  0  0  0  0  0  0  0  0
   -3.5653   18.0965   33.2518 C   0  0  0  0  0  0  0  0  0  0  0  0
   -3.2580   19.1785   32.3553 O   0  0  0  0  0  0  0  0  0  0  0  0
   -2.4329   20.2158   32.6688 C   0  0  0  0  0  0  0  0  0  0  0  0
   -1.9990   20.9621   31.5715 C   0  0  0  0  0  0  0  0  0  0  0  0
   -1.1190   22.0297   31.7496 C   0  0  0  0  0  0  0  0  0  0  0  0
   -0.7153   22.7217   30.6800 F   0  0  0  0  0  0  0  0  0  0  0  0
   -0.6570   22.3840   33.0094 C   0  0  0  0  0  0  0  0  0  0  0  0
   -1.1022   21.6521   34.0977 C   0  0  0  0  0  0  0  0  0  0  0  0
   -0.6726   21.9788   35.3245 F   0  0  0  0  0  0  0  0  0  0  0  0
   -1.9975   20.5854   33.9376 C   0  0  0  0  0  0  0  0  0  0  0  0
   -2.8120   16.0263   34.4429 C   0  0  1  0  0  0  0  0  0  0  0  0
   -3.3073   15.2847   33.3184 O   0  0  0  0  0  0  0  0  0  0  0  0
   -1.6283   15.2901   35.0185 C   0  0  0  0  0  0  0  0  0  0  0  0
   -2.0538   14.3451   36.1216 C   0  0  1  0  0  0  0  0  0  0  0  0
   -0.9769   13.4358   36.1715 O   0  0  0  0  0  0  0  0  0  0  0  0
   -1.2794   12.2168   36.8124 C   0  0  0  0  0  0  0  0  0  0  0  0
    0.0101   11.4174   36.7600 C   0  0  0  0  0  0  0  0  0  0  0  0
    0.3554   10.9635   38.0687 O   0  0  0  0  0  0  0  0  0  0  0  0
    0.7126   12.0464   38.9312 C   0  0  0  0  0  0  0  0  0  0  0  0
   -2.1308   15.1223   37.4305 C   0  0  0  0  0  0  0  0  0  0  0  0
   -1.1659   15.7371   37.8801 O   0  0  0  0  0  0  0  0  0  0  0  0
   -3.3257   15.0658   38.1174 N   0  0  0  0  0  0  0  0  0  0  0  0
   -3.3679   15.6821   39.4294 C   0  0  1  0  0  0  0  0  0  0  0  0
   -4.6613   15.5068   40.2543 C   0  0  0  0  0  0  0  0  0  0  0  0
   -5.3666   16.8298   40.4750 C   0  0  0  0  0  0  0  0  0  0  0  0
   -5.5798   14.3510   39.8862 C   0  0  0  0  0  0  0  0  0  0  0  0
   -2.3579   14.9518   40.3241 C   0  0  0  0  0  0  0  0  0  0  0  0
   -2.2561   13.7338   40.3051 O   0  0  0  0  0  0  0  0  0  0  0  0
   -1.8393   15.7349   41.3394 N   0  0  0  0  0  0  0  0  0  0  0  0
   -0.9391   15.2151   42.3251 C   0  0  0  0  0  0  0  0  0  0  0  0
    0.3560   15.9562   42.2336 C   0  0  0  0  0  0  0  0  0  0  0  0
    1.2090   15.7070   41.1528 C   0  0  0  0  0  0  0  0  0  0  0  0
    2.4047   16.4014   41.0503 C   0  0  0  0  0  0  0  0  0  0  0  0
    0.6973   16.9146   43.1971 C   0  0  0  0  0  0  0  0  0  0  0  0
    1.8917   17.6169   43.0878 C   0  0  0  0  0  0  0  0  0  0  0  0
    2.7385   17.3529   42.0152 C   0  0  0  0  0  0  0  0  0  0  0  0
   -0.8667   18.7090   28.9901 H   0  0  0  0  0  0  0  0  0  0  0  0
    0.0690   20.5371   26.8352 H   0  0  0  0  0  0  0  0  0  0  0  0
    0.4558   19.6255   24.7296 H   0  0  0  0  0  0  0  0  0  0  0  0
    0.0482   17.9370   22.9663 H   0  0  0  0  0  0  0  0  0  0  0  0
   -1.5141   16.0525   23.3899 H   0  0  0  0  0  0  0  0  0  0  0  0
   -2.6810   15.8902   25.5747 H   0  0  0  0  0  0  0  0  0  0  0  0
   -2.2953   17.5759   27.3284 H   0  0  0  0  0  0  0  0  0  0  0  0
   -2.3618   21.1049   26.7123 H   0  0  0  0  0  0  0  0  0  0  0  0
   -1.7084   21.3423   28.3468 H   0  0  0  0  0  0  0  0  0  0  0  0
   -2.6940   19.9195   27.9942 H   0  0  0  0  0  0  0  0  0  0  0  0
    3.3947   17.8292   29.1844 H   0  0  0  0  0  0  0  0  0  0  0  0
    6.8572   16.2882   28.7228 H   0  0  0  0  0  0  0  0  0  0  0  0
    6.9655   16.8795   30.4046 H   0  0  0  0  0  0  0  0  0  0  0  0
    5.8225   17.6654   29.2478 H   0  0  0  0  0  0  0  0  0  0  0  0
    4.3364   16.6882   33.3620 H   0  0  0  0  0  0  0  0  0  0  0  0
    5.9006   16.7012   32.5783 H   0  0  0  0  0  0  0  0  0  0  0  0
    5.0517   15.1494   32.8804 H   0  0  0  0  0  0  0  0  0  0  0  0
    2.3922   16.3840   33.1235 H   0  0  0  0  0  0  0  0  0  0  0  0
   -0.3368   18.8867   31.0190 H   0  0  0  0  0  0  0  0  0  0  0  0
   -1.5686   17.1644   32.0538 H   0  0  0  0  0  0  0  0  0  0  0  0
   -2.0929   18.0034   34.8601 H   0  0  0  0  0  0  0  0  0  0  0  0
   -4.3343   18.3882   33.9671 H   0  0  0  0  0  0  0  0  0  0  0  0
   -4.0042   17.3326   32.5918 H   0  0  0  0  0  0  0  0  0  0  0  0
   -2.3278   20.7124   30.5663 H   0  0  0  0  0  0  0  0  0  0  0  0
    0.0288   23.2137   33.1410 H   0  0  0  0  0  0  0  0  0  0  0  0
   -2.3326   20.0656   34.8213 H   0  0  0  0  0  0  0  0  0  0  0  0
   -3.6226   16.1001   35.1792 H   0  0  0  0  0  0  0  0  0  0  0  0
   -3.5526   14.3877   33.5987 H   0  0  0  0  0  0  0  0  0  0  0  0
   -0.9000   16.0020   35.4204 H   0  0  0  0  0  0  0  0  0  0  0  0
   -1.1240   14.7190   34.2266 H   0  0  0  0  0  0  0  0  0  0  0  0
   -2.9976   13.8449   35.8906 H   0  0  0  0  0  0  0  0  0  0  0  0
   -2.0873   11.7124   36.2755 H   0  0  0  0  0  0  0  0  0  0  0  0
   -1.6106   12.3907   37.8378 H   0  0  0  0  0  0  0  0  0  0  0  0
    0.8374   12.0091   36.3430 H   0  0  0  0  0  0  0  0  0  0  0  0
   -0.1260   10.5474   36.1057 H   0  0  0  0  0  0  0  0  0  0  0  0
    0.9313   11.6397   39.9206 H   0  0  0  0  0  0  0  0  0  0  0  0
   -0.0968   12.7727   39.0472 H   0  0  0  0  0  0  0  0  0  0  0  0
    1.5965   12.5609   38.5480 H   0  0  0  0  0  0  0  0  0  0  0  0
   -4.1138   14.5540   37.7584 H   0  0  0  0  0  0  0  0  0  0  0  0
   -3.0882   16.7386   39.3196 H   0  0  0  0  0  0  0  0  0  0  0  0
   -4.3443   15.2296   41.2640 H   0  0  0  0  0  0  0  0  0  0  0  0
   -6.2813   16.6730   41.0522 H   0  0  0  0  0  0  0  0  0  0  0  0
   -5.6082   17.3256   39.5337 H   0  0  0  0  0  0  0  0  0  0  0  0
   -4.7106   17.4880   41.0595 H   0  0  0  0  0  0  0  0  0  0  0  0
   -5.0030   13.4329   39.7249 H   0  0  0  0  0  0  0  0  0  0  0  0
   -6.1784   14.5597   38.9977 H   0  0  0  0  0  0  0  0  0  0  0  0
   -6.2599   14.1565   40.7258 H   0  0  0  0  0  0  0  0  0  0  0  0
   -1.9891   16.7267   41.2864 H   0  0  0  0  0  0  0  0  0  0  0  0
   -0.7633   14.1414   42.2052 H   0  0  0  0  0  0  0  0  0  0  0  0
   -1.3937   15.3808   43.3076 H   0  0  0  0  0  0  0  0  0  0  0  0
    0.9286   14.9736   40.3966 H   0  0  0  0  0  0  0  0  0  0  0  0
    3.0727   16.1985   40.2179 H   0  0  0  0  0  0  0  0  0  0  0  0
    0.0313   17.1066   44.0348 H   0  0  0  0  0  0  0  0  0  0  0  0
    2.1605   18.3599   43.8347 H   0  0  0  0  0  0  0  0  0  0  0  0
    3.6769   17.8982   41.9226 H   0  0  0  0  0  0  0  0  0  0  0  0
  1  2  2  0  0  0  0
  2  3  1  0  0  0  0
  2 12  1  0  0  0  0
  3  4  1  0  0  0  0
  3 64  1  0  0  0  0
  4  5  1  0  0  0  0
  4 11  1  0  0  0  0
  4 65  1  6  0  0  0
  5  6  2  0  0  0  0
  5 10  1  0  0  0  0
  6  7  1  0  0  0  0
  6 66  1  0  0  0  0
  7  8  2  0  0  0  0
  7 67  1  0  0  0  0
  8  9  1  0  0  0  0
  8 68  1  0  0  0  0
  9 10  2  0  0  0  0
  9 69  1  0  0  0  0
 10 70  1  0  0  0  0
 11 71  1  0  0  0  0
 11 72  1  0  0  0  0
 11 73  1  0  0  0  0
 12 13  2  0  0  0  0
 12 22  1  0  0  0  0
 13 14  1  0  0  0  0
 13 74  1  0  0  0  0
 14 15  1  0  0  0  0
 14 21  2  0  0  0  0
 15 16  1  0  0  0  0
 15 20  1  0  0  0  0
 16 17  2  0  0  0  0
 16 18  1  0  0  0  0
 16 19  2  0  0  0  0
 18 75  1  0  0  0  0
 18 76  1  0  0  0  0
 18 77  1  0  0  0  0
 20 78  1  0  0  0  0
 20 79  1  0  0  0  0
 20 80  1  0  0  0  0
 21 23  1  0  0  0  0
 21 81  1  0  0  0  0
 22 23  2  0  0  0  0
 22 82  1  0  0  0  0
 23 24  1  0  0  0  0
 24 25  2  0  0  0  0
 24 26  1  0  0  0  0
 26 27  1  0  0  0  0
 26 83  1  0  0  0  0
 27 28  1  0  0  0  0
 27 38  1  0  0  0  0
 27 84  1  1  0  0  0
 28 29  1  0  0  0  0
 28 85  1  0  0  0  0
 28 86  1  0  0  0  0
 29 30  1  0  0  0  0
 30 31  2  0  0  0  0
 30 37  1  0  0  0  0
 31 32  1  0  0  0  0
 31 87  1  0  0  0  0
 32 33  1  0  0  0  0
 32 34  2  0  0  0  0
 34 35  1  0  0  0  0
 34 88  1  0  0  0  0
 35 36  1  0  0  0  0
 35 37  2  0  0  0  0
 37 89  1  0  0  0  0
 38 39  1  0  0  0  0
 38 40  1  0  0  0  0
 38 90  1  1  0  0  0
 39 91  1  0  0  0  0
 40 41  1  0  0  0  0
 40 92  1  0  0  0  0
 40 93  1  0  0  0  0
 41 42  1  0  0  0  0
 41 47  1  0  0  0  0
 41 94  1  6  0  0  0
 42 43  1  0  0  0  0
 43 44  1  0  0  0  0
 43 95  1  0  0  0  0
 43 96  1  0  0  0  0
 44 45  1  0  0  0  0
 44 97  1  0  0  0  0
 44 98  1  0  0  0  0
 45 46  1  0  0  0  0
 46 99  1  0  0  0  0
 46100  1  0  0  0  0
 46101  1  0  0  0  0
 47 48  2  0  0  0  0
 47 49  1  0  0  0  0
 49 50  1  0  0  0  0
 49102  1  0  0  0  0
 50 51  1  0  0  0  0
 50 54  1  0  0  0  0
 50103  1  6  0  0  0
 51 52  1  0  0  0  0
 51 53  1  0  0  0  0
 51104  1  0  0  0  0
 52105  1  0  0  0  0
 52106  1  0  0  0  0
 52107  1  0  0  0  0
 53108  1  0  0  0  0
 53109  1  0  0  0  0
 53110  1  0  0  0  0
 54 55  2  0  0  0  0
 54 56  1  0  0  0  0
 56 57  1  0  0  0  0
 56111  1  0  0  0  0
 57 58  1  0  0  0  0
 57112  1  0  0  0  0
 57113  1  0  0  0  0
 58 59  2  0  0  0  0
 58 61  1  0  0  0  0
 59 60  1  0  0  0  0
 59114  1  0  0  0  0
 60 63  2  0  0  0  0
 60115  1  0  0  0  0
 61 62  2  0  0  0  0
 61116  1  0  0  0  0
 62 63  1  0  0  0  0
 62117  1  0  0  0  0
 63118  1  0  0  0  0
M  END
$$$$
