MYR
 OpenBabel04091915563D

 43 42  0  0  0  0  0  0  0  0999 V2000
   -0.9482    3.7717   19.6345 C   0  0  0  0  0  0  0  0  0  0  0  0
   -1.0189    3.7085   18.3578 O   0  0  0  0  0  0  0  0  0  0  0  0
   -0.8380    2.8528   20.4691 O   0  0  0  0  0  0  0  0  0  0  0  0
   -0.9847    5.1845   20.1948 C   0  0  0  0  0  0  0  0  0  0  0  0
   -2.2685    5.4589   20.9759 C   0  0  0  0  0  0  0  0  0  0  0  0
   -3.3050    6.2630   20.1911 C   0  0  0  0  0  0  0  0  0  0  0  0
   -2.6599    7.2786   19.2526 C   0  0  0  0  0  0  0  0  0  0  0  0
   -3.4507    8.5647   19.1813 C   0  0  0  0  0  0  0  0  0  0  0  0
   -2.5424    9.7661   18.9521 C   0  0  0  0  0  0  0  0  0  0  0  0
   -3.3500   10.9044   18.3598 C   0  0  0  0  0  0  0  0  0  0  0  0
   -2.8574   12.2698   18.8230 C   0  0  0  0  0  0  0  0  0  0  0  0
   -3.4727   13.3325   17.9413 C   0  0  0  0  0  0  0  0  0  0  0  0
   -2.9447   14.7317   18.2247 C   0  0  0  0  0  0  0  0  0  0  0  0
   -3.5530   15.6354   17.1741 C   0  0  0  0  0  0  0  0  0  0  0  0
   -3.7366   17.0515   17.6644 C   0  0  0  0  0  0  0  0  0  0  0  0
   -4.1938   17.9077   16.5101 C   0  0  0  0  0  0  0  0  0  0  0  0
   -0.8638    5.8709   19.3550 H   0  0  0  0  0  0  0  0  0  0  0  0
   -0.1195    5.3553   20.8489 H   0  0  0  0  0  0  0  0  0  0  0  0
   -2.0236    6.0236   21.8858 H   0  0  0  0  0  0  0  0  0  0  0  0
   -2.7241    4.5081   21.2841 H   0  0  0  0  0  0  0  0  0  0  0  0
   -3.9618    6.7775   20.9048 H   0  0  0  0  0  0  0  0  0  0  0  0
   -3.9302    5.5745   19.6072 H   0  0  0  0  0  0  0  0  0  0  0  0
   -2.5796    6.8362   18.2510 H   0  0  0  0  0  0  0  0  0  0  0  0
   -1.6581    7.5311   19.6079 H   0  0  0  0  0  0  0  0  0  0  0  0
   -3.9910    8.7167   20.1188 H   0  0  0  0  0  0  0  0  0  0  0  0
   -4.1791    8.4809   18.3705 H   0  0  0  0  0  0  0  0  0  0  0  0
   -1.7270    9.5011   18.2655 H   0  0  0  0  0  0  0  0  0  0  0  0
   -2.0961   10.0751   19.9074 H   0  0  0  0  0  0  0  0  0  0  0  0
   -4.4055   10.7946   18.6418 H   0  0  0  0  0  0  0  0  0  0  0  0
   -3.2864   10.8407   17.2662 H   0  0  0  0  0  0  0  0  0  0  0  0
   -1.7654   12.3205   18.7566 H   0  0  0  0  0  0  0  0  0  0  0  0
   -3.1535   12.4371   19.8643 H   0  0  0  0  0  0  0  0  0  0  0  0
   -4.5600   13.3321   18.0840 H   0  0  0  0  0  0  0  0  0  0  0  0
   -3.2710   13.0904   16.8908 H   0  0  0  0  0  0  0  0  0  0  0  0
   -1.8507   14.7619   18.1519 H   0  0  0  0  0  0  0  0  0  0  0  0
   -3.2328   15.0591   19.2315 H   0  0  0  0  0  0  0  0  0  0  0  0
   -4.5355   15.2419   16.8767 H   0  0  0  0  0  0  0  0  0  0  0  0
   -2.9050   15.6349   16.2858 H   0  0  0  0  0  0  0  0  0  0  0  0
   -2.7899   17.4353   18.0622 H   0  0  0  0  0  0  0  0  0  0  0  0
   -4.4909   17.0720   18.4622 H   0  0  0  0  0  0  0  0  0  0  0  0
   -4.3342   18.9393   16.8442 H   0  0  0  0  0  0  0  0  0  0  0  0
   -5.1409   17.5282   16.1099 H   0  0  0  0  0  0  0  0  0  0  0  0
   -3.4443   17.8903   15.7115 H   0  0  0  0  0  0  0  0  0  0  0  0
  1  2  2  0  0  0  0
  1  3  1  0  0  0  0
  1  4  1  0  0  0  0
  4  5  1  0  0  0  0
  4 17  1  0  0  0  0
  4 18  1  0  0  0  0
  5  6  1  0  0  0  0
  5 19  1  0  0  0  0
  5 20  1  0  0  0  0
  6  7  1  0  0  0  0
  6 21  1  0  0  0  0
  6 22  1  0  0  0  0
  7  8  1  0  0  0  0
  7 23  1  0  0  0  0
  7 24  1  0  0  0  0
  8  9  1  0  0  0  0
  8 25  1  0  0  0  0
  8 26  1  0  0  0  0
  9 10  1  0  0  0  0
  9 27  1  0  0  0  0
  9 28  1  0  0  0  0
 10 11  1  0  0  0  0
 10 29  1  0  0  0  0
 10 30  1  0  0  0  0
 11 12  1  0  0  0  0
 11 31  1  0  0  0  0
 11 32  1  0  0  0  0
 12 13  1  0  0  0  0
 12 33  1  0  0  0  0
 12 34  1  0  0  0  0
 13 14  1  0  0  0  0
 13 35  1  0  0  0  0
 13 36  1  0  0  0  0
 14 15  1  0  0  0  0
 14 37  1  0  0  0  0
 14 38  1  0  0  0  0
 15 16  1  0  0  0  0
 15 39  1  0  0  0  0
 15 40  1  0  0  0  0
 16 41  1  0  0  0  0
 16 42  1  0  0  0  0
 16 43  1  0  0  0  0
M  END
$$$$
