MYR
 OpenBabel04091916053D

 43 42  0  0  0  0  0  0  0  0999 V2000
    0.1634   -0.2362   11.6294 C   0  0  0  0  0  0  0  0  0  0  0  0
   -0.9386   -0.8490   11.5847 O   0  0  0  0  0  0  0  0  0  0  0  0
    0.4875    0.8061   12.2672 O   0  0  0  0  0  0  0  0  0  0  0  0
    1.2929   -0.8694   10.8187 C   0  0  0  0  0  0  0  0  0  0  0  0
    1.4956   -0.1442    9.4932 C   0  0  0  0  0  0  0  0  0  0  0  0
    2.6132   -0.7948    8.6702 C   0  0  0  0  0  0  0  0  0  0  0  0
    3.3219    0.2182    7.7705 C   0  0  0  0  0  0  0  0  0  0  0  0
    3.9462   -0.4448    6.5411 C   0  0  0  0  0  0  0  0  0  0  0  0
    5.2124    0.2830    6.0982 C   0  0  0  0  0  0  0  0  0  0  0  0
    5.8093   -0.3584    4.8461 C   0  0  0  0  0  0  0  0  0  0  0  0
    6.7583    0.6099    4.1499 C   0  0  0  0  0  0  0  0  0  0  0  0
    7.3676    0.0011    2.8866 C   0  0  0  0  0  0  0  0  0  0  0  0
    8.8213    0.4455    2.6976 C   0  0  0  0  0  0  0  0  0  0  0  0
    9.0201    1.2207    1.3989 C   0  0  0  0  0  0  0  0  0  0  0  0
    9.5191    0.3198    0.2716 C   0  0  0  0  0  0  0  0  0  0  0  0
   10.8776    0.7857   -0.2430 C   0  0  0  0  0  0  0  0  0  0  0  0
    1.0743   -1.9294   10.6528 H   0  0  0  0  0  0  0  0  0  0  0  0
    2.2136   -0.8214   11.4151 H   0  0  0  0  0  0  0  0  0  0  0  0
    1.7164    0.9128    9.6811 H   0  0  0  0  0  0  0  0  0  0  0  0
    0.5670   -0.1683    8.9077 H   0  0  0  0  0  0  0  0  0  0  0  0
    2.1872   -1.6134    8.0781 H   0  0  0  0  0  0  0  0  0  0  0  0
    3.3651   -1.2451    9.3316 H   0  0  0  0  0  0  0  0  0  0  0  0
    4.0959    0.7220    8.3668 H   0  0  0  0  0  0  0  0  0  0  0  0
    2.6289    0.9949    7.4355 H   0  0  0  0  0  0  0  0  0  0  0  0
    3.2116   -0.4178    5.7240 H   0  0  0  0  0  0  0  0  0  0  0  0
    4.1783   -1.4982    6.7280 H   0  0  0  0  0  0  0  0  0  0  0  0
    5.9578    0.2495    6.9044 H   0  0  0  0  0  0  0  0  0  0  0  0
    4.9850    1.3397    5.9169 H   0  0  0  0  0  0  0  0  0  0  0  0
    5.0181   -0.6613    4.1494 H   0  0  0  0  0  0  0  0  0  0  0  0
    6.3547   -1.2660    5.1329 H   0  0  0  0  0  0  0  0  0  0  0  0
    7.5325    0.9133    4.8643 H   0  0  0  0  0  0  0  0  0  0  0  0
    6.2136    1.5209    3.8691 H   0  0  0  0  0  0  0  0  0  0  0  0
    6.7471    0.2854    2.0292 H   0  0  0  0  0  0  0  0  0  0  0  0
    7.3357   -1.0956    2.9257 H   0  0  0  0  0  0  0  0  0  0  0  0
    9.4697   -0.4395    2.7260 H   0  0  0  0  0  0  0  0  0  0  0  0
    9.1594    1.0707    3.5322 H   0  0  0  0  0  0  0  0  0  0  0  0
    9.7245    2.0433    1.5844 H   0  0  0  0  0  0  0  0  0  0  0  0
    8.0844    1.7078    1.0901 H   0  0  0  0  0  0  0  0  0  0  0  0
    8.8021    0.3277   -0.5527 H   0  0  0  0  0  0  0  0  0  0  0  0
    9.6099   -0.7246    0.5986 H   0  0  0  0  0  0  0  0  0  0  0  0
   11.2286    0.1269   -1.0318 H   0  0  0  0  0  0  0  0  0  0  0  0
   11.6170    0.7810    0.5682 H   0  0  0  0  0  0  0  0  0  0  0  0
   10.8080    1.8015   -0.6383 H   0  0  0  0  0  0  0  0  0  0  0  0
  1  2  2  0  0  0  0
  1  3  1  0  0  0  0
  1  4  1  0  0  0  0
  4  5  1  0  0  0  0
  4 17  1  0  0  0  0
  4 18  1  0  0  0  0
  5  6  1  0  0  0  0
  5 19  1  0  0  0  0
  5 20  1  0  0  0  0
  6  7  1  0  0  0  0
  6 21  1  0  0  0  0
  6 22  1  0  0  0  0
  7  8  1  0  0  0  0
  7 23  1  0  0  0  0
  7 24  1  0  0  0  0
  8  9  1  0  0  0  0
  8 25  1  0  0  0  0
  8 26  1  0  0  0  0
  9 10  1  0  0  0  0
  9 27  1  0  0  0  0
  9 28  1  0  0  0  0
 10 11  1  0  0  0  0
 10 29  1  0  0  0  0
 10 30  1  0  0  0  0
 11 12  1  0  0  0  0
 11 31  1  0  0  0  0
 11 32  1  0  0  0  0
 12 13  1  0  0  0  0
 12 33  1  0  0  0  0
 12 34  1  0  0  0  0
 13 14  1  0  0  0  0
 13 35  1  0  0  0  0
 13 36  1  0  0  0  0
 14 15  1  0  0  0  0
 14 37  1  0  0  0  0
 14 38  1  0  0  0  0
 15 16  1  0  0  0  0
 15 39  1  0  0  0  0
 15 40  1  0  0  0  0
 16 41  1  0  0  0  0
 16 42  1  0  0  0  0
 16 43  1  0  0  0  0
M  END
$$$$
