MZB
 OpenBabel04091911323D

 25 25  0  0  1  0  0  0  0  0999 V2000
   28.2221   65.3761    8.8392 O   0  0  0  0  0  0  0  0  0  0  0  0
   28.9543   66.3342    7.9266 S   0  0  2  0  0  0  0  0  0  0  0  0
   28.5987   65.8398    6.2271 C   0  0  0  0  0  0  0  0  0  0  0  0
   30.7328   65.8800    7.9334 C   0  0  2  0  0  0  0  0  0  0  0  0
   31.2216   65.6915    9.3835 C   0  0  1  0  0  0  0  0  0  0  0  0
   30.9243   64.3658    9.9309 N   0  0  0  0  0  0  0  0  0  0  0  0
   32.7283   66.0798    9.3636 C   0  0  1  0  0  0  0  0  0  0  0  0
   33.6058   65.0000    9.6614 O   0  0  0  0  0  0  0  0  0  0  0  0
   32.9994   66.6594    7.9613 C   0  0  1  0  0  0  0  0  0  0  0  0
   33.6445   65.7156    7.1022 O   0  0  0  0  0  0  0  0  0  0  0  0
   31.5977   67.0280    7.4321 C   0  0  1  0  0  0  0  0  0  0  0  0
   31.5467   67.1898    6.0197 O   0  0  0  0  0  0  0  0  0  0  0  0
   29.0625   66.5431    5.5347 H   0  0  0  0  0  0  0  0  0  0  0  0
   27.5148   65.8697    6.0880 H   0  0  0  0  0  0  0  0  0  0  0  0
   28.9534   64.8247    6.0389 H   0  0  0  0  0  0  0  0  0  0  0  0
   30.8619   64.9651    7.3351 H   0  0  0  0  0  0  0  0  0  0  0  0
   30.7159   66.4289   10.0252 H   0  0  0  0  0  0  0  0  0  0  0  0
   31.2743   64.2995   10.8830 H   0  0  0  0  0  0  0  0  0  0  0  0
   29.8949   64.2591    9.9691 H   0  0  0  0  0  0  0  0  0  0  0  0
   32.8776   66.8556   10.1284 H   0  0  0  0  0  0  0  0  0  0  0  0
   34.4670   65.3691    9.9128 H   0  0  0  0  0  0  0  0  0  0  0  0
   33.6570   67.5324    8.0064 H   0  0  0  0  0  0  0  0  0  0  0  0
   34.2891   65.2262    7.6441 H   0  0  0  0  0  0  0  0  0  0  0  0
   31.2857   67.9756    7.8814 H   0  0  0  0  0  0  0  0  0  0  0  0
   32.3043   67.7372    5.7537 H   0  0  0  0  0  0  0  0  0  0  0  0
  2  1  2  1  0  0  0
  2  3  1  0  0  0  0
  2  4  1  0  0  0  0
  3 13  1  0  0  0  0
  3 14  1  0  0  0  0
  3 15  1  0  0  0  0
  4  5  1  0  0  0  0
  4 11  1  0  0  0  0
  4 16  1  6  0  0  0
  5  6  1  0  0  0  0
  5  7  1  0  0  0  0
  5 17  1  1  0  0  0
  6 18  1  0  0  0  0
  6 19  1  0  0  0  0
  7  8  1  0  0  0  0
  7  9  1  0  0  0  0
  7 20  1  1  0  0  0
  8 21  1  0  0  0  0
  9 10  1  0  0  0  0
  9 11  1  0  0  0  0
  9 22  1  1  0  0  0
 10 23  1  0  0  0  0
 11 12  1  0  0  0  0
 11 24  1  1  0  0  0
 12 25  1  0  0  0  0
M  END
$$$$
