MZM
 OpenBabel04091911263D

 23 23  0  0  0  0  0  0  0  0999 V2000
   -5.3790   -0.7374   16.3537 N   0  0  0  0  0  0  0  0  0  0  0  0
   -5.9721    0.6879   16.9354 S   0  0  0  0  0  0  0  0  0  0  0  0
   -7.3566    0.7679   16.5428 O   0  0  0  0  0  0  0  0  0  0  0  0
   -5.5234    0.8474   18.3015 O   0  0  0  0  0  0  0  0  0  0  0  0
   -5.0893    1.8939   16.0203 C   0  0  0  0  0  0  0  0  0  0  0  0
   -6.0423    2.9571   15.1350 S   0  0  0  0  0  0  0  0  0  0  0  0
   -4.6199    3.7417   14.5396 C   0  0  0  0  0  0  0  0  0  0  0  0
   -3.5582    3.1116   15.0495 N   0  3  0  0  0  0  0  0  0  0  0  0
   -2.1751    3.4978   14.8220 C   0  0  0  0  0  0  0  0  0  0  0  0
   -3.7831    2.0166   15.8857 N   0  0  0  0  0  0  0  0  0  0  0  0
   -4.5630    4.7818   13.7325 N   0  0  0  0  0  0  0  0  0  0  0  0
   -5.6984    5.4817   13.1669 C   0  0  0  0  0  0  0  0  0  0  0  0
   -5.3844    6.4119   12.4661 O   0  0  0  0  0  0  0  0  0  0  0  0
   -7.0766    5.0540   13.4757 C   0  0  0  0  0  0  0  0  0  0  0  0
   -5.7447   -1.1144   15.4898 H   0  0  0  0  0  0  0  0  0  0  0  0
   -4.8917   -1.3130   17.0306 H   0  0  0  0  0  0  0  0  0  0  0  0
   -1.4998    2.8428   15.3773 H   0  0  0  0  0  0  0  0  0  0  0  0
   -2.0510    4.5310   15.1593 H   0  0  0  0  0  0  0  0  0  0  0  0
   -1.9689    3.4296   13.7491 H   0  0  0  0  0  0  0  0  0  0  0  0
   -3.6547    5.1379   13.4802 H   0  0  0  0  0  0  0  0  0  0  0  0
   -7.8014    5.6802   12.9702 H   0  0  0  0  0  0  0  0  0  0  0  0
   -7.2501    5.1584   14.5513 H   0  0  0  0  0  0  0  0  0  0  0  0
   -7.2163    4.0327   13.1053 H   0  0  0  0  0  0  0  0  0  0  0  0
  1  2  1  0  0  0  0
  1 15  1  0  0  0  0
  1 16  1  0  0  0  0
  2  3  2  0  0  0  0
  2  4  2  0  0  0  0
  2  5  1  0  0  0  0
  5  6  1  0  0  0  0
  5 10  2  0  0  0  0
  6  7  1  0  0  0  0
  7  8  2  0  0  0  0
  7 11  1  0  0  0  0
  8  9  1  0  0  0  0
  8 10  1  0  0  0  0
  9 17  1  0  0  0  0
  9 18  1  0  0  0  0
  9 19  1  0  0  0  0
 11 12  1  0  0  0  0
 11 20  1  0  0  0  0
 12 13  2  0  0  0  0
 12 14  1  0  0  0  0
 14 21  1  0  0  0  0
 14 22  1  0  0  0  0
 14 23  1  0  0  0  0
M  CHG  1   8   1
M  END
$$$$
