N2Y
 OpenBabel04091916363D

 23 24  0  0  0  0  0  0  0  0999 V2000
    1.5134   22.8478   16.8447 N   0  0  0  0  0  0  0  0  0  0  0  0
    2.4118   22.3927   14.6710 N   0  3  0  0  0  0  0  0  0  0  0  0
    2.2115   23.2046   15.7643 C   0  0  0  0  0  0  0  0  0  0  0  0
    2.7901   24.3685   15.5960 N   0  0  0  0  0  0  0  0  0  0  0  0
    3.3526   24.3367   14.3514 C   0  0  0  0  0  0  0  0  0  0  0  0
    3.1174   23.1233   13.7459 C   0  0  0  0  0  0  0  0  0  0  0  0
    4.6529   17.8570   14.1284 C   0  0  0  0  0  0  0  0  0  0  0  0
    5.8342   16.6190   14.0275 Cl  0  0  0  0  0  0  0  0  0  0  0  0
    5.0613   18.9835   14.7464 N   0  0  0  0  0  0  0  0  0  0  0  0
    4.1625   19.9934   14.8331 C   0  0  0  0  0  0  0  0  0  0  0  0
    2.8711   19.9417   14.3153 C   0  0  0  0  0  0  0  0  0  0  0  0
    2.4843   18.7359   13.7073 C   0  0  0  0  0  0  0  0  0  0  0  0
    3.3880   17.6766   13.6032 C   0  0  0  0  0  0  0  0  0  0  0  0
    1.8618   21.0585   14.4498 C   0  0  0  0  0  0  0  0  0  0  0  0
    1.4317   23.5268   17.5958 H   0  0  0  0  0  0  0  0  0  0  0  0
    1.0589   21.9621   17.0083 H   0  0  0  0  0  0  0  0  0  0  0  0
    3.8883   25.1899   13.9536 H   0  0  0  0  0  0  0  0  0  0  0  0
    3.3850   22.7383   12.7717 H   0  0  0  0  0  0  0  0  0  0  0  0
    4.5395   20.8707   15.3533 H   0  0  0  0  0  0  0  0  0  0  0  0
    1.4795   18.6070   13.3135 H   0  0  0  0  0  0  0  0  0  0  0  0
    3.1075   16.7435   13.1281 H   0  0  0  0  0  0  0  0  0  0  0  0
    1.2608   21.1330   13.5363 H   0  0  0  0  0  0  0  0  0  0  0  0
    1.1839   20.8154   15.2731 H   0  0  0  0  0  0  0  0  0  0  0  0
  1  3  1  0  0  0  0
  1 15  1  0  0  0  0
  1 16  1  0  0  0  0
  2  3  2  0  0  0  0
  2  6  1  0  0  0  0
  2 14  1  0  0  0  0
  3  4  1  0  0  0  0
  4  5  1  0  0  0  0
  5  6  2  0  0  0  0
  5 17  1  0  0  0  0
  6 18  1  0  0  0  0
  7  8  1  0  0  0  0
  7  9  2  0  0  0  0
  7 13  1  0  0  0  0
  9 10  1  0  0  0  0
 10 11  2  0  0  0  0
 10 19  1  0  0  0  0
 11 12  1  0  0  0  0
 11 14  1  0  0  0  0
 12 13  2  0  0  0  0
 12 20  1  0  0  0  0
 13 21  1  0  0  0  0
 14 22  1  0  0  0  0
 14 23  1  0  0  0  0
M  CHG  1   2   1
M  END
$$$$
