N44
 OpenBabel04091916483D

 60 63  0  0  1  0  0  0  0  0999 V2000
   -8.7012   42.1778   -0.2289 C   0  0  0  0  0  0  0  0  0  0  0  0
  -10.5647   47.9907    5.9726 C   0  0  0  0  0  0  0  0  0  0  0  0
   -8.3747   41.6668    1.0240 C   0  0  0  0  0  0  0  0  0  0  0  0
   -8.4727   43.5219   -0.5144 C   0  0  0  0  0  0  0  0  0  0  0  0
  -11.4428   48.8403    5.3161 C   0  0  0  0  0  0  0  0  0  0  0  0
   -9.5605   47.3222    5.2555 C   0  0  0  0  0  0  0  0  0  0  0  0
   -7.8384   42.5049    1.9994 C   0  0  0  0  0  0  0  0  0  0  0  0
   -7.9404   44.3622    0.4619 C   0  0  0  0  0  0  0  0  0  0  0  0
  -11.3208   49.0357    3.9470 C   0  0  0  0  0  0  0  0  0  0  0  0
  -11.4120   45.3714   -1.4430 C   0  0  0  0  0  0  0  0  0  0  0  0
  -12.2341   44.8251   -2.4146 C   0  0  0  0  0  0  0  0  0  0  0  0
   -9.4385   47.4960    3.8767 C   0  0  0  0  0  0  0  0  0  0  0  0
  -13.3050   45.5906    0.1234 C   0  0  0  0  0  0  0  0  0  0  0  0
   -7.6232   43.8604    1.7292 C   0  0  0  0  0  0  0  0  0  0  0  0
  -10.3167   48.3848    3.2133 C   0  0  0  0  0  0  0  0  0  0  0  0
  -11.9255   45.7501   -0.1764 C   0  0  0  0  0  0  0  0  0  0  0  0
  -13.5649   44.6678   -2.0986 C   0  0  0  0  0  0  0  0  0  0  0  0
  -14.0877   45.0404   -0.8787 C   0  0  0  0  0  0  0  0  0  0  0  0
   -9.7573   49.8256   -1.5474 C   0  0  0  0  0  0  0  0  0  0  0  0
  -10.4250   48.6897   -1.3068 C   0  0  0  0  0  0  0  0  0  0  0  0
   -8.3312   46.8182    3.1685 C   0  0  0  0  0  0  0  0  0  0  0  0
  -13.8822   46.0134    1.4472 C   0  0  0  0  0  0  0  0  0  0  0  0
  -15.6784   44.2302   -2.1120 C   0  0  0  0  0  0  0  0  0  0  0  0
   -7.0565   44.7652    2.7873 C   0  0  0  0  0  0  0  0  0  0  0  0
  -10.2417   48.6355    1.7434 C   0  0  0  0  0  0  0  0  0  0  0  0
  -10.9879   46.4203    0.7992 C   0  0  0  0  0  0  0  0  0  0  0  0
  -11.5687   48.6082   -0.3429 C   0  0  0  0  0  0  0  0  0  0  0  0
   -8.0946   45.5037    3.4753 N   0  0  0  0  0  0  0  0  0  0  0  0
  -11.2405   47.8967    0.9258 N   0  3  2  0  0  0  0  0  0  0  0  0
  -14.8239   45.3358    1.9373 O   0  0  0  0  0  0  0  0  0  0  0  0
   -7.6773   47.4372    2.3277 O   0  0  0  0  0  0  0  0  0  0  0  0
  -13.3190   47.0280    1.9879 O   0  0  0  0  0  0  0  0  0  0  0  0
  -14.5000   44.1574   -2.9443 O   0  0  0  0  0  0  0  0  0  0  0  0
  -15.4306   44.8209   -0.8313 O   0  0  0  0  0  0  0  0  0  0  0  0
   -9.1337   41.5264   -0.9847 H   0  0  0  0  0  0  0  0  0  0  0  0
  -10.6473   47.8458    7.0434 H   0  0  0  0  0  0  0  0  0  0  0  0
   -8.5379   40.6146    1.2439 H   0  0  0  0  0  0  0  0  0  0  0  0
   -8.7141   43.9099   -1.4988 H   0  0  0  0  0  0  0  0  0  0  0  0
  -12.2325   49.3450    5.8729 H   0  0  0  0  0  0  0  0  0  0  0  0
   -8.8651   46.6839    5.7957 H   0  0  0  0  0  0  0  0  0  0  0  0
   -7.5810   42.0897    2.9719 H   0  0  0  0  0  0  0  0  0  0  0  0
   -7.7682   45.4136    0.2359 H   0  0  0  0  0  0  0  0  0  0  0  0
  -12.0362   49.6934    3.4444 H   0  0  0  0  0  0  0  0  0  0  0  0
  -10.3621   45.5298   -1.6710 H   0  0  0  0  0  0  0  0  0  0  0  0
  -11.8450   44.5366   -3.3857 H   0  0  0  0  0  0  0  0  0  0  0  0
   -8.9506   49.8543   -2.2705 H   0  0  0  0  0  0  0  0  0  0  0  0
  -10.0114   50.7476   -1.0351 H   0  0  0  0  0  0  0  0  0  0  0  0
  -10.1507   47.8085   -1.8672 H   0  0  0  0  0  0  0  0  0  0  0  0
  -16.0727   43.2185   -1.9724 H   0  0  0  0  0  0  0  0  0  0  0  0
  -16.4286   44.8340   -2.6319 H   0  0  0  0  0  0  0  0  0  0  0  0
   -6.3361   45.4496    2.3266 H   0  0  0  0  0  0  0  0  0  0  0  0
   -6.5114   44.1801    3.5358 H   0  0  0  0  0  0  0  0  0  0  0  0
   -9.2645   48.4431    1.3067 H   0  0  0  0  0  0  0  0  0  0  0  0
  -10.4164   49.7084    1.5895 H   0  0  0  0  0  0  0  0  0  0  0  0
   -9.9515   46.2951    0.4763 H   0  0  0  0  0  0  0  0  0  0  0  0
  -11.0769   45.9504    1.7864 H   0  0  0  0  0  0  0  0  0  0  0  0
  -12.4303   48.1299   -0.8147 H   0  0  0  0  0  0  0  0  0  0  0  0
  -11.9077   49.6107   -0.0601 H   0  0  0  0  0  0  0  0  0  0  0  0
   -8.6924   45.0077    4.1246 H   0  0  0  0  0  0  0  0  0  0  0  0
  -12.1414   47.8644    1.4817 H   0  0  0  0  0  0  0  0  0  0  0  0
  1  3  2  0  0  0  0
  1  4  1  0  0  0  0
  1 35  1  0  0  0  0
  2  5  2  0  0  0  0
  2  6  1  0  0  0  0
  2 36  1  0  0  0  0
  3  7  1  0  0  0  0
  3 37  1  0  0  0  0
  4  8  2  0  0  0  0
  4 38  1  0  0  0  0
  5  9  1  0  0  0  0
  5 39  1  0  0  0  0
  6 12  2  0  0  0  0
  6 40  1  0  0  0  0
  7 14  2  0  0  0  0
  7 41  1  0  0  0  0
  8 14  1  0  0  0  0
  8 42  1  0  0  0  0
  9 15  2  0  0  0  0
  9 43  1  0  0  0  0
 10 11  2  0  0  0  0
 10 16  1  0  0  0  0
 10 44  1  0  0  0  0
 11 17  1  0  0  0  0
 11 45  1  0  0  0  0
 12 15  1  0  0  0  0
 12 21  1  0  0  0  0
 13 16  2  0  0  0  0
 13 18  1  0  0  0  0
 13 22  1  0  0  0  0
 14 24  1  0  0  0  0
 15 25  1  0  0  0  0
 16 26  1  0  0  0  0
 17 18  2  0  0  0  0
 17 33  1  0  0  0  0
 18 34  1  0  0  0  0
 19 20  2  0  0  0  0
 19 46  1  0  0  0  0
 19 47  1  0  0  0  0
 20 27  1  0  0  0  0
 20 48  1  0  0  0  0
 21 28  1  0  0  0  0
 21 31  2  0  0  0  0
 22 30  2  0  0  0  0
 22 32  1  0  0  0  0
 23 33  1  0  0  0  0
 23 34  1  0  0  0  0
 23 49  1  0  0  0  0
 23 50  1  0  0  0  0
 24 28  1  0  0  0  0
 24 51  1  0  0  0  0
 24 52  1  0  0  0  0
 25 29  1  0  0  0  0
 25 53  1  0  0  0  0
 25 54  1  0  0  0  0
 26 29  1  0  0  0  0
 26 55  1  0  0  0  0
 26 56  1  0  0  0  0
 27 29  1  0  0  0  0
 27 57  1  0  0  0  0
 27 58  1  0  0  0  0
 28 59  1  0  0  0  0
 29 60  1  1  0  0  0
M  CHG  1  29   1
M  END
$$$$
