N7O
 OpenBabel04091914003D

 42 44  0  0  1  0  0  0  0  0999 V2000
   -9.1929  -45.2677  -55.3217 C   0  0  0  0  0  0  0  0  0  0  0  0
   -5.4419  -45.1799  -54.7182 C   0  0  0  0  0  0  0  0  0  0  0  0
  -14.9245  -46.8626  -57.3840 C   0  0  0  0  0  0  0  0  0  0  0  0
  -16.3009  -47.6033  -55.4664 C   0  0  0  0  0  0  0  0  0  0  0  0
  -17.2915  -47.6265  -53.2514 C   0  0  0  0  0  0  0  0  0  0  0  0
  -15.6223  -46.4101  -55.1997 C   0  0  0  0  0  0  0  0  0  0  0  0
  -15.3367  -43.4810  -58.4979 C   0  0  0  0  0  0  0  0  0  0  0  0
  -14.6141  -43.1834  -56.8704 P   0  0  2  0  0  0  0  0  0  0  0  0
  -15.7505  -42.8488  -55.9222 O   0  0  0  0  0  0  0  0  0  0  0  0
  -13.4976  -42.1755  -57.0581 O   0  0  0  0  0  0  0  0  0  0  0  0
  -13.8708  -44.7576  -56.3106 C   0  0  2  0  0  0  0  0  0  0  0  0
  -12.5015  -45.0521  -56.9361 C   0  0  0  0  0  0  0  0  0  0  0  0
  -12.3220  -45.2553  -58.1317 O   0  0  0  0  0  0  0  0  0  0  0  0
  -11.4805  -45.1641  -55.9815 N   0  0  0  0  0  0  0  0  0  0  0  0
  -10.1418  -45.3034  -56.2732 C   0  0  0  0  0  0  0  0  0  0  0  0
   -7.7363  -45.2484  -55.5709 C   0  0  0  0  0  0  0  0  0  0  0  0
   -6.8258  -45.2356  -54.4914 C   0  0  0  0  0  0  0  0  0  0  0  0
   -4.9609  -45.1372  -56.0193 C   0  0  0  0  0  0  0  0  0  0  0  0
   -3.6392  -45.0994  -56.2378 F   0  0  0  0  0  0  0  0  0  0  0  0
   -5.8425  -45.1381  -57.0878 C   0  0  0  0  0  0  0  0  0  0  0  0
   -5.3823  -45.1047  -58.3472 F   0  0  0  0  0  0  0  0  0  0  0  0
   -7.2167  -45.1845  -56.8743 C   0  0  0  0  0  0  0  0  0  0  0  0
  -14.7995  -45.9732  -56.3271 C   0  0  0  0  0  0  0  0  0  0  0  0
  -15.9595  -48.1731  -57.0492 S   0  0  0  0  0  0  0  0  0  0  0  0
  -17.1376  -48.2239  -54.5057 C   0  0  0  0  0  0  0  0  0  0  0  0
  -16.6241  -46.4464  -52.9628 C   0  0  0  0  0  0  0  0  0  0  0  0
  -16.7925  -45.7344  -51.4023 Cl  0  0  0  0  0  0  0  0  0  0  0  0
  -15.8047  -45.8337  -53.9161 C   0  0  0  0  0  0  0  0  0  0  0  0
   -9.4926  -45.1926  -54.2782 H   0  0  0  0  0  0  0  0  0  0  0  0
   -4.7390  -45.1689  -53.8907 H   0  0  0  0  0  0  0  0  0  0  0  0
  -14.4350  -46.8117  -58.3431 H   0  0  0  0  0  0  0  0  0  0  0  0
  -17.9365  -48.0899  -52.5103 H   0  0  0  0  0  0  0  0  0  0  0  0
  -16.1464  -44.2213  -58.4542 H   0  0  0  0  0  0  0  0  0  0  0  0
  -14.5855  -43.8095  -59.2150 H   0  0  0  0  0  0  0  0  0  0  0  0
  -15.7740  -42.5458  -58.8693 H   0  0  0  0  0  0  0  0  0  0  0  0
  -13.6798  -44.5416  -55.2515 H   0  0  0  0  0  0  0  0  0  0  0  0
  -11.7260  -44.9827  -55.0172 H   0  0  0  0  0  0  0  0  0  0  0  0
   -9.9181  -45.3936  -57.3337 H   0  0  0  0  0  0  0  0  0  0  0  0
   -7.1826  -45.2590  -53.4624 H   0  0  0  0  0  0  0  0  0  0  0  0
   -7.8573  -45.1578  -57.7448 H   0  0  0  0  0  0  0  0  0  0  0  0
  -17.6540  -49.1515  -54.7351 H   0  0  0  0  0  0  0  0  0  0  0  0
  -15.3127  -44.8920  -53.6784 H   0  0  0  0  0  0  0  0  0  0  0  0
  1 15  2  0  0  0  0
  1 16  1  0  0  0  0
  1 29  1  0  0  0  0
  2 17  2  0  0  0  0
  2 18  1  0  0  0  0
  2 30  1  0  0  0  0
  3 23  2  0  0  0  0
  3 24  1  0  0  0  0
  3 31  1  0  0  0  0
  4  6  2  0  0  0  0
  4 24  1  0  0  0  0
  4 25  1  0  0  0  0
  5 25  2  0  0  0  0
  5 26  1  0  0  0  0
  5 32  1  0  0  0  0
  6 23  1  0  0  0  0
  6 28  1  0  0  0  0
  7 33  1  0  0  0  0
  7 34  1  0  0  0  0
  7 35  1  0  0  0  0
  8  7  1  6  0  0  0
  8  9  2  0  0  0  0
  8 10  1  0  0  0  0
  8 11  1  0  0  0  0
 11 12  1  0  0  0  0
 11 23  1  0  0  0  0
 11 36  1  1  0  0  0
 12 13  2  0  0  0  0
 12 14  1  0  0  0  0
 14 15  1  0  0  0  0
 14 37  1  0  0  0  0
 15 38  1  0  0  0  0
 16 17  1  0  0  0  0
 16 22  2  0  0  0  0
 17 39  1  0  0  0  0
 18 19  1  0  0  0  0
 18 20  2  0  0  0  0
 20 21  1  0  0  0  0
 20 22  1  0  0  0  0
 22 40  1  0  0  0  0
 25 41  1  0  0  0  0
 26 27  1  0  0  0  0
 26 28  2  0  0  0  0
 28 42  1  0  0  0  0
M  END
$$$$
