NDZ
 OpenBabel04091912343D

 36 37  0  0  1  0  0  0  0  0999 V2000
   -3.5277   14.2063   17.2863 O   0  0  0  0  0  0  0  0  0  0  0  0
   -3.9492   15.1727   18.0033 C   0  0  0  0  0  0  0  0  0  0  0  0
   -3.3355   16.1349   18.5106 O   0  0  0  0  0  0  0  0  0  0  0  0
   -5.4764   15.0055   18.2824 C   0  0  1  0  0  0  0  0  0  0  0  0
   -5.9730   13.6644   17.7418 N   0  3  0  0  0  0  0  0  0  0  0  0
   -5.7442   15.0434   19.7877 C   0  0  0  0  0  0  0  0  0  0  0  0
   -7.2285   15.1780   20.1434 C   0  0  2  0  0  0  0  0  0  0  0  0
   -7.8804   16.4834   19.5832 C   0  0  0  0  0  0  0  0  0  0  0  0
   -9.1047   16.3583   19.2697 O   0  0  0  0  0  0  0  0  0  0  0  0
   -7.1144   17.4738   19.4662 O   0  0  0  0  0  0  0  0  0  0  0  0
   -7.4324   15.1760   21.6675 C   0  0  0  0  0  0  0  0  0  0  0  0
   -7.9008   14.0001   19.5997 O   0  0  0  0  0  0  0  0  0  0  0  0
   -8.3535   13.2121   20.7134 C   0  0  1  0  0  0  0  0  0  0  0  0
   -8.5149   14.1443   21.9077 C   0  0  2  0  0  0  0  0  0  0  0  0
   -9.7627   14.8294   21.9893 O   0  0  0  0  0  0  0  0  0  0  0  0
  -10.9069   14.0076   21.7877 C   0  0  0  0  0  0  0  0  0  0  0  0
  -10.8610   13.3453   20.4120 C   0  0  1  0  0  0  0  0  0  0  0  0
  -10.8584   14.2975   19.3468 O   0  0  0  0  0  0  0  0  0  0  0  0
   -9.6211   12.4535   20.3405 C   0  0  1  0  0  0  0  0  0  0  0  0
   -9.4762   11.8940   19.0272 O   0  0  0  0  0  0  0  0  0  0  0  0
   -6.0329   15.7574   17.7187 H   0  0  0  0  0  0  0  0  0  0  0  0
   -6.9673   13.5174   17.9574 H   0  0  0  0  0  0  0  0  0  0  0  0
   -5.7450   13.6547   16.7409 H   0  0  0  0  0  0  0  0  0  0  0  0
   -5.1785   15.8691   20.2600 H   0  0  0  0  0  0  0  0  0  0  0  0
   -5.3638   14.1122   20.2257 H   0  0  0  0  0  0  0  0  0  0  0  0
   -7.6958   16.1638   22.0632 H   0  0  0  0  0  0  0  0  0  0  0  0
   -6.5121   14.8616   22.1738 H   0  0  0  0  0  0  0  0  0  0  0  0
   -7.5403   12.5000   20.8903 H   0  0  0  0  0  0  0  0  0  0  0  0
   -8.3677   13.6119   22.8534 H   0  0  0  0  0  0  0  0  0  0  0  0
  -11.7884   14.6470   21.8778 H   0  0  0  0  0  0  0  0  0  0  0  0
  -10.9557   13.2575   22.5877 H   0  0  0  0  0  0  0  0  0  0  0  0
  -11.7581   12.7347   20.2641 H   0  0  0  0  0  0  0  0  0  0  0  0
  -10.1802   15.0109   19.5182 H   0  0  0  0  0  0  0  0  0  0  0  0
   -9.7498   11.6194   21.0404 H   0  0  0  0  0  0  0  0  0  0  0  0
   -9.5245   12.6865   18.4484 H   0  0  0  0  0  0  0  0  0  0  0  0
   -5.3705   12.9364   18.1405 H   0  0  0  0  0  0  0  0  0  0  0  0
  1  2  2  0  0  0  0
  2  3  1  0  0  0  0
  2  4  1  0  0  0  0
  4  5  1  0  0  0  0
  4  6  1  0  0  0  0
  4 21  1  6  0  0  0
  5 22  1  0  0  0  0
  5 23  1  0  0  0  0
  5 36  1  0  0  0  0
  6 24  1  0  0  0  0
  6 25  1  0  0  0  0
  7  6  1  6  0  0  0
  7  8  1  0  0  0  0
  7 11  1  0  0  0  0
  7 12  1  0  0  0  0
  8  9  2  0  0  0  0
  8 10  1  0  0  0  0
 11 14  1  0  0  0  0
 11 26  1  0  0  0  0
 11 27  1  0  0  0  0
 12 13  1  0  0  0  0
 13 14  1  0  0  0  0
 13 19  1  0  0  0  0
 13 28  1  1  0  0  0
 14 15  1  0  0  0  0
 14 29  1  1  0  0  0
 15 16  1  0  0  0  0
 16 17  1  0  0  0  0
 16 30  1  0  0  0  0
 16 31  1  0  0  0  0
 17 18  1  0  0  0  0
 17 19  1  0  0  0  0
 17 32  1  6  0  0  0
 18 33  1  0  0  0  0
 19 20  1  0  0  0  0
 19 34  1  1  0  0  0
 20 35  1  0  0  0  0
M  CHG  1   5   1
M  END
$$$$
