NF6
 OpenBabel04091916343D

 54 57  0  0  1  0  0  0  0  0999 V2000
  -34.6751   -2.3143  189.4490 O   0  0  0  0  0  0  0  0  0  0  0  0
  -33.7945   -1.1915  189.3214 C   0  0  2  0  0  0  0  0  0  0  0  0
  -32.7539   -0.9214  190.4162 C   0  0  0  0  0  0  0  0  0  0  0  0
  -32.0783    0.3065  190.3625 C   0  0  0  0  0  0  0  0  0  0  0  0
  -32.4379    1.3656  189.5061 C   0  0  0  0  0  0  0  0  0  0  0  0
  -31.7981    2.6136  189.5681 C   0  0  0  0  0  0  0  0  0  0  0  0
  -30.6980    2.7896  190.4516 C   0  0  0  0  0  0  0  0  0  0  0  0
  -30.2717    1.7413  191.2834 C   0  0  0  0  0  0  0  0  0  0  0  0
  -29.1749    1.9487  192.1424 N   0  0  0  0  0  0  0  0  0  0  0  0
  -29.3954    2.3205  193.5291 C   0  0  0  0  0  0  0  0  0  0  0  0
  -27.8198    1.6460  191.7136 C   0  0  0  0  0  0  0  0  0  0  0  0
  -30.9462    0.5006  191.2519 C   0  0  0  0  0  0  0  0  0  0  0  0
  -30.5549   -0.5919  192.0716 C   0  0  0  0  0  0  0  0  0  0  0  0
  -31.2160   -1.8291  192.0511 C   0  0  0  0  0  0  0  0  0  0  0  0
  -32.3116   -2.0026  191.1980 C   0  0  0  0  0  0  0  0  0  0  0  0
  -33.7562    1.2210  188.7460 C   0  0  1  0  0  0  0  0  0  0  0  0
  -34.1009    2.1460  187.7066 O   0  0  0  0  0  0  0  0  0  0  0  0
  -34.3757   -0.0738  188.6194 N   0  0  0  0  0  0  0  0  0  0  0  0
  -35.4404   -0.3086  187.7199 C   0  0  0  0  0  0  0  0  0  0  0  0
  -36.7907    0.2715  188.1638 C   0  0  0  0  0  0  0  0  0  0  0  0
  -37.9339   -0.0508  187.2220 N   0  3  0  0  0  0  0  0  0  0  0  0
  -39.2433    0.5664  187.6758 C   0  0  0  0  0  0  0  0  0  0  0  0
  -39.5901    1.9722  187.1422 C   0  0  0  0  0  0  0  0  0  0  0  0
  -39.7990    2.3902  185.4698 S   0  0  0  0  0  0  0  0  0  0  0  0
  -39.8076    2.9587  187.9527 N   0  0  0  0  0  0  0  0  0  0  0  0
  -40.1509    4.1583  187.2701 N   0  0  0  0  0  0  0  0  0  0  0  0
  -40.1836    4.0128  185.9802 C   0  0  0  0  0  0  0  0  0  0  0  0
  -40.5253    5.1626  185.0300 C   0  0  0  0  0  0  0  0  0  0  0  0
  -34.1808   -2.9686  190.0023 H   0  0  0  0  0  0  0  0  0  0  0  0
  -33.1395   -1.5228  188.5649 H   0  0  0  0  0  0  0  0  0  0  0  0
  -32.1120    3.4522  188.9488 H   0  0  0  0  0  0  0  0  0  0  0  0
  -30.2062    3.7565  190.4538 H   0  0  0  0  0  0  0  0  0  0  0  0
  -28.4498    2.3895  194.0853 H   0  0  0  0  0  0  0  0  0  0  0  0
  -30.0290    1.5971  194.0559 H   0  0  0  0  0  0  0  0  0  0  0  0
  -29.8738    3.3032  193.5704 H   0  0  0  0  0  0  0  0  0  0  0  0
  -27.7946    1.3429  190.6638 H   0  0  0  0  0  0  0  0  0  0  0  0
  -27.3635    0.8430  192.3094 H   0  0  0  0  0  0  0  0  0  0  0  0
  -27.1865    2.5348  191.8289 H   0  0  0  0  0  0  0  0  0  0  0  0
  -29.7006   -0.4637  192.7474 H   0  0  0  0  0  0  0  0  0  0  0  0
  -30.8900   -2.6411  192.6885 H   0  0  0  0  0  0  0  0  0  0  0  0
  -32.7902   -2.9660  191.1881 H   0  0  0  0  0  0  0  0  0  0  0  0
  -34.3955    1.5592  189.5112 H   0  0  0  0  0  0  0  0  0  0  0  0
  -33.5759    2.9634  187.8978 H   0  0  0  0  0  0  0  0  0  0  0  0
  -35.5691   -1.3893  187.5705 H   0  0  0  0  0  0  0  0  0  0  0  0
  -35.1801    0.1209  186.7393 H   0  0  0  0  0  0  0  0  0  0  0  0
  -36.7334    1.3615  188.2079 H   0  0  0  0  0  0  0  0  0  0  0  0
  -37.0637   -0.1397  189.1422 H   0  0  0  0  0  0  0  0  0  0  0  0
  -37.7424    0.2855  186.2705 H   0  0  0  0  0  0  0  0  0  0  0  0
  -39.1632    0.5924  188.7754 H   0  0  0  0  0  0  0  0  0  0  0  0
  -40.0255   -0.1569  187.4221 H   0  0  0  0  0  0  0  0  0  0  0  0
  -40.7274    6.0906  185.5897 H   0  0  0  0  0  0  0  0  0  0  0  0
  -41.4194    4.9482  184.4406 H   0  0  0  0  0  0  0  0  0  0  0  0
  -39.7029    5.3803  184.3449 H   0  0  0  0  0  0  0  0  0  0  0  0
  -38.0675   -1.0748  187.1575 H   0  0  0  0  0  0  0  0  0  0  0  0
  1  2  1  0  0  0  0
  1 29  1  0  0  0  0
  2  3  1  0  0  0  0
  2 18  1  0  0  0  0
  2 30  1  6  0  0  0
  3  4  2  0  0  0  0
  3 15  1  0  0  0  0
  4  5  1  0  0  0  0
  4 12  1  0  0  0  0
  5  6  2  0  0  0  0
  5 16  1  0  0  0  0
  6  7  1  0  0  0  0
  6 31  1  0  0  0  0
  7  8  2  0  0  0  0
  7 32  1  0  0  0  0
  8  9  1  0  0  0  0
  8 12  1  0  0  0  0
  9 10  1  0  0  0  0
  9 11  1  0  0  0  0
 10 33  1  0  0  0  0
 10 34  1  0  0  0  0
 10 35  1  0  0  0  0
 11 36  1  0  0  0  0
 11 37  1  0  0  0  0
 11 38  1  0  0  0  0
 12 13  2  0  0  0  0
 13 14  1  0  0  0  0
 13 39  1  0  0  0  0
 14 15  2  0  0  0  0
 14 40  1  0  0  0  0
 15 41  1  0  0  0  0
 16 17  1  0  0  0  0
 16 18  1  0  0  0  0
 16 42  1  1  0  0  0
 17 43  1  0  0  0  0
 18 19  1  0  0  0  0
 19 20  1  0  0  0  0
 19 44  1  0  0  0  0
 19 45  1  0  0  0  0
 20 21  1  0  0  0  0
 20 46  1  0  0  0  0
 20 47  1  0  0  0  0
 21 22  1  0  0  0  0
 21 48  1  0  0  0  0
 21 54  1  0  0  0  0
 22 23  1  0  0  0  0
 22 49  1  0  0  0  0
 22 50  1  0  0  0  0
 23 24  1  0  0  0  0
 23 25  2  0  0  0  0
 24 27  1  0  0  0  0
 25 26  1  0  0  0  0
 26 27  2  0  0  0  0
 27 28  1  0  0  0  0
 28 51  1  0  0  0  0
 28 52  1  0  0  0  0
 28 53  1  0  0  0  0
M  CHG  1  21   1
M  END
$$$$
