NGT
 OpenBabel04091915213D

 27 28  0  0  1  0  0  0  0  0999 V2000
   35.4448   19.1626  -15.8685 C   0  0  1  0  0  0  0  0  0  0  0  0
   35.2583   18.2228  -17.0634 C   0  0  1  0  0  0  0  0  0  0  0  0
   34.7493   16.8175  -16.6838 C   0  0  2  0  0  0  0  0  0  0  0  0
   35.3875   16.2893  -15.3913 C   0  0  1  0  0  0  0  0  0  0  0  0
   35.1721   17.3512  -14.3097 C   0  0  1  0  0  0  0  0  0  0  0  0
   35.6646   16.8844  -12.9331 C   0  0  0  0  0  0  0  0  0  0  0  0
   33.5720   19.7213  -17.4411 C   0  0  0  0  0  0  0  0  0  0  0  0
   32.4794   20.4761  -18.1303 C   0  0  0  0  0  0  0  0  0  0  0  0
   34.3042   18.8302  -18.0412 N   0  0  0  0  0  0  0  0  0  0  0  0
   33.8737   20.0478  -15.7596 S   0  0  0  0  0  0  0  0  0  0  0  0
   35.0163   15.9037  -17.7576 O   0  0  0  0  0  0  0  0  0  0  0  0
   34.7583   15.0538  -15.0334 O   0  0  0  0  0  0  0  0  0  0  0  0
   35.8744   18.5480  -14.6647 O   0  0  0  0  0  0  0  0  0  0  0  0
   35.3147   17.8701  -11.9620 O   0  0  0  0  0  0  0  0  0  0  0  0
   36.1985   19.9172  -16.1217 H   0  0  0  0  0  0  0  0  0  0  0  0
   36.2261   18.1119  -17.5755 H   0  0  0  0  0  0  0  0  0  0  0  0
   33.6596   16.8316  -16.5512 H   0  0  0  0  0  0  0  0  0  0  0  0
   36.4575   16.0972  -15.5619 H   0  0  0  0  0  0  0  0  0  0  0  0
   34.1024   17.5729  -14.2060 H   0  0  0  0  0  0  0  0  0  0  0  0
   36.7523   16.7590  -12.9284 H   0  0  0  0  0  0  0  0  0  0  0  0
   35.1890   15.9520  -12.6347 H   0  0  0  0  0  0  0  0  0  0  0  0
   32.4170   20.1687  -19.1786 H   0  0  0  0  0  0  0  0  0  0  0  0
   32.6755   21.5515  -18.0925 H   0  0  0  0  0  0  0  0  0  0  0  0
   31.5198   20.2713  -17.6503 H   0  0  0  0  0  0  0  0  0  0  0  0
   34.5289   16.2451  -18.5289 H   0  0  0  0  0  0  0  0  0  0  0  0
   35.2629   14.6413  -14.3131 H   0  0  0  0  0  0  0  0  0  0  0  0
   35.6869   17.5780  -11.1122 H   0  0  0  0  0  0  0  0  0  0  0  0
  1  2  1  0  0  0  0
  1 10  1  0  0  0  0
  1 13  1  0  0  0  0
  1 15  1  6  0  0  0
  2  3  1  0  0  0  0
  2  9  1  0  0  0  0
  2 16  1  6  0  0  0
  3  4  1  0  0  0  0
  3 11  1  0  0  0  0
  3 17  1  1  0  0  0
  4  5  1  0  0  0  0
  4 12  1  0  0  0  0
  4 18  1  6  0  0  0
  5  6  1  0  0  0  0
  5 13  1  0  0  0  0
  5 19  1  1  0  0  0
  6 14  1  0  0  0  0
  6 20  1  0  0  0  0
  6 21  1  0  0  0  0
  7  8  1  0  0  0  0
  7  9  2  0  0  0  0
  7 10  1  0  0  0  0
  8 22  1  0  0  0  0
  8 23  1  0  0  0  0
  8 24  1  0  0  0  0
 11 25  1  0  0  0  0
 12 26  1  0  0  0  0
 14 27  1  0  0  0  0
M  END
$$$$
