NHG
 OpenBabel04091916503D

 29 31  0  0  1  0  0  0  0  0999 V2000
    4.8375   65.3526   62.5344 C   0  0  0  0  0  0  0  0  0  0  0  0
    3.9969   66.3169   63.0725 C   0  0  0  0  0  0  0  0  0  0  0  0
    3.9141   67.7771   62.7261 C   0  0  2  0  0  0  0  0  0  0  0  0
    3.4395   67.9850   61.2957 C   0  0  0  0  0  0  0  0  0  0  0  0
    5.2002   68.5389   63.0516 C   0  0  0  0  0  0  0  0  0  0  0  0
    5.1090   68.7158   64.5529 C   0  0  0  0  0  0  0  0  0  0  0  0
    3.6811   69.1158   64.7216 N   0  3  0  0  0  0  0  0  0  0  0  0
    2.8956   68.2673   63.8008 C   0  0  2  0  0  0  0  0  0  0  0  0
    2.5120   67.1797   64.6739 N   0  0  0  0  0  0  0  0  0  0  0  0
    3.0959   66.0283   64.0935 C   0  0  0  0  0  0  0  0  0  0  0  0
    2.9743   64.7337   64.5717 C   0  0  0  0  0  0  0  0  0  0  0  0
    3.7969   63.7442   64.0300 C   0  0  0  0  0  0  0  0  0  0  0  0
    4.7242   64.0515   63.0270 C   0  0  0  0  0  0  0  0  0  0  0  0
    5.5368   63.0510   62.5868 O   0  0  0  0  0  0  0  0  0  0  0  0
    5.5514   65.5945   61.7556 H   0  0  0  0  0  0  0  0  0  0  0  0
    4.1728   67.6045   60.5734 H   0  0  0  0  0  0  0  0  0  0  0  0
    3.2753   69.0457   61.0758 H   0  0  0  0  0  0  0  0  0  0  0  0
    2.4937   67.4568   61.1008 H   0  0  0  0  0  0  0  0  0  0  0  0
    5.1984   69.5227   62.5702 H   0  0  0  0  0  0  0  0  0  0  0  0
    6.1148   68.0165   62.7493 H   0  0  0  0  0  0  0  0  0  0  0  0
    5.7440   69.5147   64.9500 H   0  0  0  0  0  0  0  0  0  0  0  0
    5.2759   67.7903   65.1154 H   0  0  0  0  0  0  0  0  0  0  0  0
    3.3457   68.8959   65.6655 H   0  0  0  0  0  0  0  0  0  0  0  0
    2.0453   68.8510   63.4262 H   0  0  0  0  0  0  0  0  0  0  0  0
    1.5212   67.0409   64.8657 H   0  0  0  0  0  0  0  0  0  0  0  0
    2.2849   64.4856   65.3786 H   0  0  0  0  0  0  0  0  0  0  0  0
    3.7354   62.7206   64.3942 H   0  0  0  0  0  0  0  0  0  0  0  0
    6.1286   63.3906   61.8832 H   0  0  0  0  0  0  0  0  0  0  0  0
    3.5350   70.1070   64.5278 H   0  0  0  0  0  0  0  0  0  0  0  0
  1  2  2  0  0  0  0
  1 13  1  0  0  0  0
  1 15  1  0  0  0  0
  2  3  1  0  0  0  0
  2 10  1  0  0  0  0
  3  4  1  6  0  0  0
  3  5  1  0  0  0  0
  3  8  1  0  0  0  0
  4 16  1  0  0  0  0
  4 17  1  0  0  0  0
  4 18  1  0  0  0  0
  5  6  1  0  0  0  0
  5 19  1  0  0  0  0
  5 20  1  0  0  0  0
  6  7  1  0  0  0  0
  6 21  1  0  0  0  0
  6 22  1  0  0  0  0
  7  8  1  0  0  0  0
  7 23  1  0  0  0  0
  7 29  1  0  0  0  0
  8  9  1  0  0  0  0
  8 24  1  6  0  0  0
  9 10  1  0  0  0  0
  9 25  1  0  0  0  0
 10 11  2  0  0  0  0
 11 12  1  0  0  0  0
 11 26  1  0  0  0  0
 12 13  2  0  0  0  0
 12 27  1  0  0  0  0
 13 14  1  0  0  0  0
 14 28  1  0  0  0  0
M  CHG  1   7   1
M  END
$$$$
