NKX
 OpenBabel04091913203D

 53 54  0  0  1  0  0  0  0  0999 V2000
   -3.2557    6.8122   14.2275 C   0  0  0  0  0  0  0  0  0  0  0  0
   -6.8903    5.8573   12.9076 O   0  0  0  0  0  0  0  0  0  0  0  0
   -5.2301    1.1309   18.0051 O   0  0  0  0  0  0  0  0  0  0  0  0
   -4.3116    6.4528   13.1922 C   0  0  2  0  0  0  0  0  0  0  0  0
   -5.8955    6.0241   13.9470 S   0  0  0  0  0  0  0  0  0  0  0  0
   -5.5278    4.3787   14.4875 C   0  0  0  0  0  0  0  0  0  0  0  0
   -6.5007    3.6765   15.6970 S   0  0  0  0  0  0  0  0  0  0  0  0
   -5.5464    2.2620   15.7061 C   0  0  0  0  0  0  0  0  0  0  0  0
   -5.9966    0.9367   16.7989 S   0  0  0  0  0  0  0  0  0  0  0  0
   -5.3522   -0.4057   16.0339 N   0  0  0  0  0  0  0  0  0  0  0  0
   -6.1183    6.8173   15.1388 O   0  0  0  0  0  0  0  0  0  0  0  0
   -7.4326    0.8105   16.7668 O   0  0  0  0  0  0  0  0  0  0  0  0
   -3.8347    5.3147   12.2766 C   0  0  0  0  0  0  0  0  0  0  0  0
   -3.5054    3.9690   12.9853 C   0  0  1  0  0  0  0  0  0  0  0  0
   -4.5155    3.5627   14.0337 C   0  0  0  0  0  0  0  0  0  0  0  0
   -4.5024    2.3461   14.7924 C   0  0  0  0  0  0  0  0  0  0  0  0
   -3.2451    2.9108   11.9880 N   0  0  0  0  0  0  0  0  0  0  0  0
   -4.3601    2.1215   11.4356 C   0  0  0  0  0  0  0  0  0  0  0  0
   -5.1808    2.8404   10.3809 C   0  0  0  0  0  0  0  0  0  0  0  0
   -1.0349    3.5559   11.9064 O   0  0  0  0  0  0  0  0  0  0  0  0
   -1.9666    2.9245   11.4172 C   0  0  0  0  0  0  0  0  0  0  0  0
   -1.8442    2.2286   10.2566 O   0  0  0  0  0  0  0  0  0  0  0  0
   -0.5639    2.2177    9.5479 C   0  0  0  0  0  0  0  0  0  0  0  0
   -0.6515    4.3371    6.8149 O   0  0  0  0  0  0  0  0  0  0  0  0
    0.1743    3.5791    9.3522 C   0  0  2  0  0  0  0  0  0  0  0  0
   -0.7444    4.6408    9.0418 O   0  0  0  0  0  0  0  0  0  0  0  0
   -1.3761    4.5310    7.7868 N   0  0  0  0  0  0  0  0  0  0  0  0
   -2.5922    4.7246    7.8390 O   0  0  0  0  0  0  0  0  0  0  0  0
    1.4179    3.4764    8.4253 C   0  0  0  0  0  0  0  0  0  0  0  0
    2.6133    3.8404    9.1310 O   0  0  0  0  0  0  0  0  0  0  0  0
    3.6548    3.9719    8.1816 N   0  0  0  0  0  0  0  0  0  0  0  0
    3.7295    5.0786    7.6535 O   0  0  0  0  0  0  0  0  0  0  0  0
    4.3100    2.9438    8.0150 O   0  0  0  0  0  0  0  0  0  0  0  0
   -2.3202    7.0936   13.7326 H   0  0  0  0  0  0  0  0  0  0  0  0
   -3.0415    5.9761   14.8998 H   0  0  0  0  0  0  0  0  0  0  0  0
   -3.5794    7.6536   14.8453 H   0  0  0  0  0  0  0  0  0  0  0  0
   -4.5160    7.3351   12.5739 H   0  0  0  0  0  0  0  0  0  0  0  0
   -5.8667   -0.7618   15.2332 H   0  0  0  0  0  0  0  0  0  0  0  0
   -4.8102   -1.0309   16.6247 H   0  0  0  0  0  0  0  0  0  0  0  0
   -2.9488    5.6443   11.7163 H   0  0  0  0  0  0  0  0  0  0  0  0
   -4.6044    5.1766   11.5179 H   0  0  0  0  0  0  0  0  0  0  0  0
   -2.5698    4.1308   13.5408 H   0  0  0  0  0  0  0  0  0  0  0  0
   -3.7971    1.5481   14.6632 H   0  0  0  0  0  0  0  0  0  0  0  0
   -5.0275    1.8133   12.2461 H   0  0  0  0  0  0  0  0  0  0  0  0
   -3.9611    1.1926   11.0144 H   0  0  0  0  0  0  0  0  0  0  0  0
   -5.9865    2.1939   10.0216 H   0  0  0  0  0  0  0  0  0  0  0  0
   -4.5588    3.1386    9.5337 H   0  0  0  0  0  0  0  0  0  0  0  0
   -5.6719    3.7273   10.7839 H   0  0  0  0  0  0  0  0  0  0  0  0
   -0.7984    1.7984    8.5626 H   0  0  0  0  0  0  0  0  0  0  0  0
    0.0984    1.4940   10.0417 H   0  0  0  0  0  0  0  0  0  0  0  0
    0.5710    3.8646   10.3321 H   0  0  0  0  0  0  0  0  0  0  0  0
    1.3477    4.1459    7.5707 H   0  0  0  0  0  0  0  0  0  0  0  0
    1.5370    2.4461    8.0716 H   0  0  0  0  0  0  0  0  0  0  0  0
  1  4  1  0  0  0  0
  1 34  1  0  0  0  0
  1 35  1  0  0  0  0
  1 36  1  0  0  0  0
  2  5  2  0  0  0  0
  3  9  2  0  0  0  0
  4  5  1  0  0  0  0
  4 13  1  0  0  0  0
  4 37  1  6  0  0  0
  5  6  1  0  0  0  0
  5 11  2  0  0  0  0
  6  7  1  0  0  0  0
  6 15  2  0  0  0  0
  7  8  1  0  0  0  0
  8  9  1  0  0  0  0
  8 16  2  0  0  0  0
  9 10  1  0  0  0  0
  9 12  2  0  0  0  0
 10 38  1  0  0  0  0
 10 39  1  0  0  0  0
 13 14  1  0  0  0  0
 13 40  1  0  0  0  0
 13 41  1  0  0  0  0
 14 15  1  0  0  0  0
 14 17  1  0  0  0  0
 14 42  1  1  0  0  0
 15 16  1  0  0  0  0
 16 43  1  0  0  0  0
 17 18  1  0  0  0  0
 17 21  1  0  0  0  0
 18 19  1  0  0  0  0
 18 44  1  0  0  0  0
 18 45  1  0  0  0  0
 19 46  1  0  0  0  0
 19 47  1  0  0  0  0
 19 48  1  0  0  0  0
 20 21  2  0  0  0  0
 21 22  1  0  0  0  0
 22 23  1  0  0  0  0
 23 25  1  0  0  0  0
 23 49  1  0  0  0  0
 23 50  1  0  0  0  0
 24 27  2  0  0  0  0
 25 26  1  0  0  0  0
 25 29  1  0  0  0  0
 25 51  1  1  0  0  0
 26 27  1  0  0  0  0
 27 28  2  0  0  0  0
 29 30  1  0  0  0  0
 29 52  1  0  0  0  0
 29 53  1  0  0  0  0
 30 31  1  0  0  0  0
 31 32  2  0  0  0  0
 31 33  2  0  0  0  0
M  END
$$$$
