NNH
 OpenBabel04091913313D

 25 24  0  0  1  0  0  0  0  0999 V2000
   26.0000   -9.9017   -2.9527 N   0  3  0  0  0  0  0  0  0  0  0  0
   25.5463   -9.8862   -4.3714 C   0  0  2  0  0  0  0  0  0  0  0  0
   24.0603   -9.4705   -4.6384 C   0  0  0  0  0  0  0  0  0  0  0  0
   23.3837   -9.2300   -3.5956 O   0  0  0  0  0  0  0  0  0  0  0  0
   25.8711  -11.2751   -4.9378 C   0  0  0  0  0  0  0  0  0  0  0  0
   25.0588  -12.5121   -4.5609 C   0  0  0  0  0  0  0  0  0  0  0  0
   25.3444  -13.6658   -5.4847 N   0  0  0  0  0  0  0  0  0  0  0  0
   25.3609  -14.9791   -5.1425 C   0  0  0  0  0  0  0  0  0  0  0  0
   25.1347  -15.3686   -3.8554 N   0  3  0  0  0  0  0  0  0  0  0  0
   25.6057  -15.9496   -6.0567 N   0  0  0  0  0  0  0  0  0  0  0  0
   25.1785  -16.7103   -3.4714 O   0  0  0  0  0  0  0  0  0  0  0  0
   23.7739   -9.5017   -5.8306 O   0  0  0  0  0  0  0  0  0  0  0  0
   26.9809  -10.1545   -2.8795 H   0  0  0  0  0  0  0  0  0  0  0  0
   25.8365   -8.9650   -2.5584 H   0  0  0  0  0  0  0  0  0  0  0  0
   26.2045   -9.1596   -4.8882 H   0  0  0  0  0  0  0  0  0  0  0  0
   26.9015  -11.5033   -4.6522 H   0  0  0  0  0  0  0  0  0  0  0  0
   25.7930  -11.1749   -6.0165 H   0  0  0  0  0  0  0  0  0  0  0  0
   23.9969  -12.2872   -4.6290 H   0  0  0  0  0  0  0  0  0  0  0  0
   25.3356  -12.8104   -3.5484 H   0  0  0  0  0  0  0  0  0  0  0  0
   25.5068  -13.4400   -6.4607 H   0  0  0  0  0  0  0  0  0  0  0  0
   25.6344  -16.9317   -5.7722 H   0  0  0  0  0  0  0  0  0  0  0  0
   25.7852  -15.7512   -7.0332 H   0  0  0  0  0  0  0  0  0  0  0  0
   24.4919  -17.1239   -4.0282 H   0  0  0  0  0  0  0  0  0  0  0  0
   25.3983  -10.5538   -2.4421 H   0  0  0  0  0  0  0  0  0  0  0  0
   24.9563  -14.6989   -3.1156 H   0  0  0  0  0  0  0  0  0  0  0  0
  1  2  1  0  0  0  0
  1 13  1  0  0  0  0
  1 14  1  0  0  0  0
  1 24  1  0  0  0  0
  2  3  1  0  0  0  0
  2  5  1  0  0  0  0
  2 15  1  6  0  0  0
  3  4  2  0  0  0  0
  3 12  1  0  0  0  0
  5  6  1  0  0  0  0
  5 16  1  0  0  0  0
  5 17  1  0  0  0  0
  6  7  1  0  0  0  0
  6 18  1  0  0  0  0
  6 19  1  0  0  0  0
  7  8  1  0  0  0  0
  7 20  1  0  0  0  0
  8  9  2  0  0  0  0
  8 10  1  0  0  0  0
  9 11  1  0  0  0  0
  9 25  1  0  0  0  0
 10 21  1  0  0  0  0
 10 22  1  0  0  0  0
 11 23  1  0  0  0  0
M  CHG  2   1   1   9   1
M  END
$$$$
