NNO
 OpenBabel04091914363D

 14 14  0  0  0  0  0  0  0  0999 V2000
   14.1552    9.5317   40.7376 N   0  0  0  0  0  0  0  0  0  0  0  0
   15.0026   10.5185   40.2775 C   0  0  0  0  0  0  0  0  0  0  0  0
   14.8459   11.7952   40.6716 C   0  0  0  0  0  0  0  0  0  0  0  0
   13.7573   12.1189   41.5764 C   0  0  0  0  0  0  0  0  0  0  0  0
   12.9334   11.1650   42.0367 C   0  0  0  0  0  0  0  0  0  0  0  0
   13.0942    9.7387   41.6185 C   0  0  0  0  0  0  0  0  0  0  0  0
   15.7966   12.9274   40.1990 C   0  0  0  0  0  0  0  0  0  0  0  0
   16.7402   12.6017   39.4176 O   0  0  0  0  0  0  0  0  0  0  0  0
   15.5402   14.0893   40.6488 O   0  0  0  0  0  0  0  0  0  0  0  0
   12.2942    8.9190   42.0808 O   0  0  0  0  0  0  0  0  0  0  0  0
   14.4201    8.2498   40.2628 O   0  0  0  0  0  0  0  0  0  0  0  0
   15.7961   10.2241   39.5965 H   0  0  0  0  0  0  0  0  0  0  0  0
   13.6235   13.1554   41.8652 H   0  0  0  0  0  0  0  0  0  0  0  0
   12.1169   11.3667   42.7128 H   0  0  0  0  0  0  0  0  0  0  0  0
  1 11  1  0  0  0  0
  1  6  1  0  0  0  0
  1  2  1  0  0  0  0
  2  3  2  0  0  0  0
  2 12  1  0  0  0  0
  3  7  1  0  0  0  0
  3  4  1  0  0  0  0
  4  5  2  0  0  0  0
  4 13  1  0  0  0  0
  5  6  1  0  0  0  0
  5 14  1  0  0  0  0
  6 10  2  0  0  0  0
  7  9  2  0  0  0  0
  7  8  1  0  0  0  0
M  END
$$$$
