NOJ
 OpenBabel04091914513D

 25 25  0  0  1  0  0  0  0  0999 V2000
   10.8631   43.9327   82.5767 C   0  0  0  0  0  0  0  0  0  0  0  0
   11.3263   44.9881   83.5759 C   0  0  2  0  0  0  0  0  0  0  0  0
   11.9993   46.0103   82.8396 O   0  0  0  0  0  0  0  0  0  0  0  0
   12.2804   44.4148   84.6358 C   0  0  1  0  0  0  0  0  0  0  0  0
   12.4475   45.4298   85.6374 O   0  0  0  0  0  0  0  0  0  0  0  0
   11.7517   43.1210   85.2875 C   0  0  2  0  0  0  0  0  0  0  0  0
   12.8072   42.5506   86.0847 O   0  0  0  0  0  0  0  0  0  0  0  0
   11.3678   42.0996   84.2090 C   0  0  2  0  0  0  0  0  0  0  0  0
   10.3597   42.7096   83.2769 N   0  3  0  0  0  0  0  0  0  0  0  0
   10.7270   40.8382   84.8010 C   0  0  0  0  0  0  0  0  0  0  0  0
    9.4384   41.1972   85.3062 O   0  0  0  0  0  0  0  0  0  0  0  0
   11.6699   43.6110   81.9116 H   0  0  0  0  0  0  0  0  0  0  0  0
   10.0452   44.3177   81.9515 H   0  0  0  0  0  0  0  0  0  0  0  0
   10.4606   45.4490   84.0587 H   0  0  0  0  0  0  0  0  0  0  0  0
   12.1977   46.7459   83.4488 H   0  0  0  0  0  0  0  0  0  0  0  0
   13.2772   44.2310   84.2084 H   0  0  0  0  0  0  0  0  0  0  0  0
   13.1590   46.0273   85.3535 H   0  0  0  0  0  0  0  0  0  0  0  0
   10.9216   43.3597   85.9603 H   0  0  0  0  0  0  0  0  0  0  0  0
   12.4098   42.1012   86.8600 H   0  0  0  0  0  0  0  0  0  0  0  0
   12.2392   41.8137   83.6127 H   0  0  0  0  0  0  0  0  0  0  0  0
    9.5062   42.9391   83.8244 H   0  0  0  0  0  0  0  0  0  0  0  0
   11.3304   40.4159   85.6210 H   0  0  0  0  0  0  0  0  0  0  0  0
   10.6091   40.0509   84.0419 H   0  0  0  0  0  0  0  0  0  0  0  0
    8.7504   40.8398   84.7069 H   0  0  0  0  0  0  0  0  0  0  0  0
   10.0535   42.0314   82.5626 H   0  0  0  0  0  0  0  0  0  0  0  0
  1  2  1  0  0  0  0
  1  9  1  0  0  0  0
  1 12  1  0  0  0  0
  1 13  1  0  0  0  0
  2  3  1  0  0  0  0
  2  4  1  0  0  0  0
  2 14  1  1  0  0  0
  3 15  1  0  0  0  0
  4  5  1  0  0  0  0
  4  6  1  0  0  0  0
  4 16  1  6  0  0  0
  5 17  1  0  0  0  0
  6  7  1  0  0  0  0
  6  8  1  0  0  0  0
  6 18  1  1  0  0  0
  7 19  1  0  0  0  0
  8  9  1  0  0  0  0
  8 10  1  0  0  0  0
  8 20  1  6  0  0  0
  9 21  1  0  0  0  0
  9 25  1  0  0  0  0
 10 11  1  0  0  0  0
 10 22  1  0  0  0  0
 10 23  1  0  0  0  0
 11 24  1  0  0  0  0
M  CHG  1   9   1
M  END
$$$$
