NOJ
 OpenBabel04091912423D

 25 25  0  0  1  0  0  0  0  0999 V2000
   14.7158   37.5171   44.0196 C   0  0  0  0  0  0  0  0  0  0  0  0
   13.6423   38.1836   44.8842 C   0  0  2  0  0  0  0  0  0  0  0  0
   12.9283   37.1912   45.5922 O   0  0  0  0  0  0  0  0  0  0  0  0
   12.7174   38.9941   43.9772 C   0  0  1  0  0  0  0  0  0  0  0  0
   11.7065   39.5809   44.8267 O   0  0  0  0  0  0  0  0  0  0  0  0
   13.5092   40.1098   43.2471 C   0  0  2  0  0  0  0  0  0  0  0  0
   12.6429   40.7904   42.3449 O   0  0  0  0  0  0  0  0  0  0  0  0
   14.6750   39.4903   42.4468 C   0  0  2  0  0  0  0  0  0  0  0  0
   15.5026   38.5553   43.3001 N   0  3  0  0  0  0  0  0  0  0  0  0
   15.6328   40.5756   41.9192 C   0  0  0  0  0  0  0  0  0  0  0  0
   16.1794   41.2781   43.0325 O   0  0  0  0  0  0  0  0  0  0  0  0
   14.2844   36.8352   43.2765 H   0  0  0  0  0  0  0  0  0  0  0  0
   15.4257   36.9409   44.6386 H   0  0  0  0  0  0  0  0  0  0  0  0
   14.1237   38.8498   45.6233 H   0  0  0  0  0  0  0  0  0  0  0  0
   12.3453   37.6470   46.2263 H   0  0  0  0  0  0  0  0  0  0  0  0
   12.1965   38.3587   43.2637 H   0  0  0  0  0  0  0  0  0  0  0  0
   11.0649   38.8953   45.0500 H   0  0  0  0  0  0  0  0  0  0  0  0
   13.8639   40.8268   43.9946 H   0  0  0  0  0  0  0  0  0  0  0  0
   13.0451   41.6361   42.0913 H   0  0  0  0  0  0  0  0  0  0  0  0
   14.2876   38.8964   41.5992 H   0  0  0  0  0  0  0  0  0  0  0  0
   16.0186   39.0970   44.0033 H   0  0  0  0  0  0  0  0  0  0  0  0
   15.1072   41.2877   41.2974 H   0  0  0  0  0  0  0  0  0  0  0  0
   16.4355   40.1411   41.3203 H   0  0  0  0  0  0  0  0  0  0  0  0
   16.9413   40.8044   43.4217 H   0  0  0  0  0  0  0  0  0  0  0  0
   16.2029   38.0838   42.7092 H   0  0  0  0  0  0  0  0  0  0  0  0
  1  2  1  0  0  0  0
  1  9  1  0  0  0  0
  1 12  1  0  0  0  0
  1 13  1  0  0  0  0
  2  3  1  0  0  0  0
  2  4  1  0  0  0  0
  2 14  1  1  0  0  0
  3 15  1  0  0  0  0
  4  5  1  0  0  0  0
  4  6  1  0  0  0  0
  4 16  1  6  0  0  0
  5 17  1  0  0  0  0
  6  7  1  0  0  0  0
  6  8  1  0  0  0  0
  6 18  1  1  0  0  0
  7 19  1  0  0  0  0
  8  9  1  0  0  0  0
  8 10  1  0  0  0  0
  8 20  1  6  0  0  0
  9 21  1  0  0  0  0
  9 25  1  0  0  0  0
 10 11  1  0  0  0  0
 10 22  1  0  0  0  0
 10 23  1  0  0  0  0
 11 24  1  0  0  0  0
M  CHG  1   9   1
M  END
$$$$
