NOK
 OpenBabel04091915233D

 31 31  0  0  1  0  0  0  0  0999 V2000
   31.8886   20.0632  -18.0143 C   0  0  0  0  0  0  0  0  0  0  0  0
   32.9911   19.4830  -17.1673 C   0  0  0  0  0  0  0  0  0  0  0  0
   33.1047   19.7019  -15.9681 O   0  0  0  0  0  0  0  0  0  0  0  0
   33.9071   18.7085  -17.8464 N   0  0  0  0  0  0  0  0  0  0  0  0
   35.1078   18.1597  -17.2123 C   0  0  1  0  0  0  0  0  0  0  0  0
   35.9213   19.2681  -16.5171 C   0  0  0  0  0  0  0  0  0  0  0  0
   37.1697   18.6842  -15.9796 N   0  3  0  0  0  0  0  0  0  0  0  0
   36.8863   17.7336  -14.8536 C   0  0  2  0  0  0  0  0  0  0  0  0
   38.2119   17.2333  -14.2746 C   0  0  0  0  0  0  0  0  0  0  0  0
   39.0471   16.7872  -15.3421 O   0  0  0  0  0  0  0  0  0  0  0  0
   36.0336   16.5673  -15.3826 C   0  0  1  0  0  0  0  0  0  0  0  0
   35.6079   15.7850  -14.2607 O   0  0  0  0  0  0  0  0  0  0  0  0
   34.8107   17.0045  -16.2278 C   0  0  2  0  0  0  0  0  0  0  0  0
   34.4162   15.8537  -16.9913 O   0  0  0  0  0  0  0  0  0  0  0  0
   31.9932   19.7662  -19.0581 H   0  0  0  0  0  0  0  0  0  0  0  0
   31.9181   21.1519  -17.9575 H   0  0  0  0  0  0  0  0  0  0  0  0
   30.9282   19.6911  -17.6360 H   0  0  0  0  0  0  0  0  0  0  0  0
   33.7704   18.5568  -18.8528 H   0  0  0  0  0  0  0  0  0  0  0  0
   35.7063   17.7552  -18.0389 H   0  0  0  0  0  0  0  0  0  0  0  0
   35.3923   19.7040  -15.6654 H   0  0  0  0  0  0  0  0  0  0  0  0
   36.1876   20.0610  -17.2137 H   0  0  0  0  0  0  0  0  0  0  0  0
   37.7150   18.1730  -16.6967 H   0  0  0  0  0  0  0  0  0  0  0  0
   36.3408   18.2852  -14.0798 H   0  0  0  0  0  0  0  0  0  0  0  0
   38.0446   16.4264  -13.5548 H   0  0  0  0  0  0  0  0  0  0  0  0
   38.7337   18.0528  -13.7681 H   0  0  0  0  0  0  0  0  0  0  0  0
   39.8441   16.3894  -14.9338 H   0  0  0  0  0  0  0  0  0  0  0  0
   36.6590   15.9057  -15.9969 H   0  0  0  0  0  0  0  0  0  0  0  0
   35.0007   16.2992  -13.6984 H   0  0  0  0  0  0  0  0  0  0  0  0
   33.9760   17.2546  -15.5633 H   0  0  0  0  0  0  0  0  0  0  0  0
   33.6153   16.0662  -17.4966 H   0  0  0  0  0  0  0  0  0  0  0  0
   37.8020   19.4315  -15.6527 H   0  0  0  0  0  0  0  0  0  0  0  0
  1  2  1  0  0  0  0
  1 15  1  0  0  0  0
  1 16  1  0  0  0  0
  1 17  1  0  0  0  0
  2  3  2  0  0  0  0
  2  4  1  0  0  0  0
  4  5  1  0  0  0  0
  4 18  1  0  0  0  0
  5  6  1  0  0  0  0
  5 13  1  0  0  0  0
  5 19  1  6  0  0  0
  6  7  1  0  0  0  0
  6 20  1  0  0  0  0
  6 21  1  0  0  0  0
  7  8  1  0  0  0  0
  7 22  1  0  0  0  0
  7 31  1  0  0  0  0
  8  9  1  0  0  0  0
  8 11  1  0  0  0  0
  8 23  1  1  0  0  0
  9 10  1  0  0  0  0
  9 24  1  0  0  0  0
  9 25  1  0  0  0  0
 10 26  1  0  0  0  0
 11 12  1  0  0  0  0
 11 13  1  0  0  0  0
 11 27  1  6  0  0  0
 12 28  1  0  0  0  0
 13 14  1  0  0  0  0
 13 29  1  1  0  0  0
 14 30  1  0  0  0  0
M  CHG  1   7   1
M  END
$$$$
