NON
 OpenBabel04091916313D

 23 23  0  0  1  0  0  0  0  0999 V2000
   25.3824    2.7097   28.9491 C   0  0  2  0  0  0  0  0  0  0  0  0
   25.1176    3.9531   28.0883 C   0  0  1  0  0  0  0  0  0  0  0  0
   25.3004    5.2663   28.8737 C   0  0  1  0  0  0  0  0  0  0  0  0
   24.9554    5.1357   30.3667 C   0  0  2  0  0  0  0  0  0  0  0  0
   24.1124    3.8886   30.6135 C   0  0  2  0  0  0  0  0  0  0  0  0
   23.7459    3.7969   32.0947 C   0  0  0  0  0  0  0  0  0  0  0  0
   24.8608    1.5628   28.2792 O   0  0  0  0  0  0  0  0  0  0  0  0
   25.9311    3.9006   26.9066 O   0  0  0  0  0  0  0  0  0  0  0  0
   26.6345    5.7893   28.7593 O   0  0  0  0  0  0  0  0  0  0  0  0
   24.2898    6.3137   30.8163 O   0  0  0  0  0  0  0  0  0  0  0  0
   24.8562    2.7321   30.2661 O   0  0  0  0  0  0  0  0  0  0  0  0
   26.4659    2.5530   29.0383 H   0  0  0  0  0  0  0  0  0  0  0  0
   24.0760    3.9042   27.7368 H   0  0  0  0  0  0  0  0  0  0  0  0
   24.6614    6.0344   28.4117 H   0  0  0  0  0  0  0  0  0  0  0  0
   25.8857    5.0440   30.9419 H   0  0  0  0  0  0  0  0  0  0  0  0
   23.1751    3.9245   30.0349 H   0  0  0  0  0  0  0  0  0  0  0  0
   23.1386    2.9094   32.2827 H   0  0  0  0  0  0  0  0  0  0  0  0
   23.1951    4.6770   32.4323 H   0  0  0  0  0  0  0  0  0  0  0  0
   24.6569    3.6992   32.6993 H   0  0  0  0  0  0  0  0  0  0  0  0
   25.3135    1.5362   27.4174 H   0  0  0  0  0  0  0  0  0  0  0  0
   25.7633    4.7132   26.3958 H   0  0  0  0  0  0  0  0  0  0  0  0
   27.2425    5.1463   29.1711 H   0  0  0  0  0  0  0  0  0  0  0  0
   24.9253    7.0486   30.7331 H   0  0  0  0  0  0  0  0  0  0  0  0
  1  2  1  0  0  0  0
  1  7  1  0  0  0  0
  1 11  1  0  0  0  0
  1 12  1  1  0  0  0
  2  3  1  0  0  0  0
  2  8  1  0  0  0  0
  2 13  1  6  0  0  0
  3  4  1  0  0  0  0
  3  9  1  0  0  0  0
  3 14  1  6  0  0  0
  4  5  1  0  0  0  0
  4 10  1  0  0  0  0
  4 15  1  1  0  0  0
  5  6  1  0  0  0  0
  5 11  1  0  0  0  0
  5 16  1  6  0  0  0
  6 17  1  0  0  0  0
  6 18  1  0  0  0  0
  6 19  1  0  0  0  0
  7 20  1  0  0  0  0
  8 21  1  0  0  0  0
  9 22  1  0  0  0  0
 10 23  1  0  0  0  0
M  END
$$$$
