NU9
 OpenBabel04091916453D

 60 64  0  0  1  0  0  0  0  0999 V2000
   -2.3684   -1.1665  -12.7563 F   0  0  0  0  0  0  0  0  0  0  0  0
   -3.5789   -1.5482  -12.2688 C   0  0  0  0  0  0  0  0  0  0  0  0
   -3.7598   -2.8399  -12.6540 F   0  0  0  0  0  0  0  0  0  0  0  0
   -3.4806   -1.5497  -10.9162 F   0  0  0  0  0  0  0  0  0  0  0  0
   -4.6712   -0.6702  -12.7527 C   0  0  0  0  0  0  0  0  0  0  0  0
   -5.7701   -0.9604  -13.4224 N   0  0  0  0  0  0  0  0  0  0  0  0
   -6.3731    0.2618  -13.5783 C   0  0  0  0  0  0  0  0  0  0  0  0
   -5.6654    1.2852  -13.0759 N   0  0  0  0  0  0  0  0  0  0  0  0
   -4.5389    0.6704  -12.5162 O   0  0  0  0  0  0  0  0  0  0  0  0
   -7.6186    0.4096  -14.2978 C   0  0  0  0  0  0  0  0  0  0  0  0
   -8.2934   -0.7500  -14.7692 C   0  0  0  0  0  0  0  0  0  0  0  0
   -9.4968   -0.6385  -15.4625 C   0  0  0  0  0  0  0  0  0  0  0  0
  -10.0480    0.6166  -15.7016 C   0  0  0  0  0  0  0  0  0  0  0  0
   -9.3883    1.7533  -15.2447 C   0  0  0  0  0  0  0  0  0  0  0  0
   -8.1756    1.6595  -14.5546 C   0  0  0  0  0  0  0  0  0  0  0  0
   -9.9445    3.0818  -15.5161 C   0  0  0  0  0  0  0  0  0  0  0  0
  -11.1079    3.3512  -15.2302 O   0  0  0  0  0  0  0  0  0  0  0  0
   -9.0733    3.9375  -16.1527 N   0  0  0  0  0  0  0  0  0  0  0  0
   -9.5041    5.2713  -16.5435 C   0  0  0  0  0  0  0  0  0  0  0  0
   -8.7121    5.8356  -17.7621 C   0  0  0  0  0  0  0  0  0  0  0  0
   -9.3583    7.2174  -18.0936 C   0  0  0  0  0  0  0  0  0  0  0  0
   -9.1490    7.7098  -19.5254 C   0  0  0  0  0  0  0  0  0  0  0  0
   -8.3641    6.7912  -20.2754 O   0  0  0  0  0  0  0  0  0  0  0  0
   -8.9517    5.5062  -20.3414 C   0  0  0  0  0  0  0  0  0  0  0  0
   -8.9902    4.8754  -18.9541 C   0  0  0  0  0  0  0  0  0  0  0  0
   -7.2406    6.0087  -17.2290 C   0  0  1  0  0  0  0  0  0  0  0  0
   -6.3396    4.7925  -17.1658 N   0  0  0  0  0  0  0  0  0  0  0  0
   -5.0009    5.2062  -16.7939 C   0  0  0  0  0  0  0  0  0  0  0  0
   -4.8212    6.5334  -16.8832 C   0  0  0  0  0  0  0  0  0  0  0  0
   -6.1426    7.3842  -17.6103 S   0  0  0  0  0  0  0  0  0  0  0  0
   -3.9872    4.2392  -16.3059 C   0  0  0  0  0  0  0  0  0  0  0  0
   -4.3362    2.9577  -15.8425 C   0  0  0  0  0  0  0  0  0  0  0  0
   -3.3532    2.0472  -15.4287 C   0  0  0  0  0  0  0  0  0  0  0  0
   -2.0096    2.3950  -15.4535 C   0  0  0  0  0  0  0  0  0  0  0  0
   -1.6410    3.6529  -15.9071 C   0  0  0  0  0  0  0  0  0  0  0  0
   -2.6173    4.5618  -16.3333 C   0  0  0  0  0  0  0  0  0  0  0  0
   -7.8783   -1.7418  -14.5854 H   0  0  0  0  0  0  0  0  0  0  0  0
  -10.0082   -1.5346  -15.8085 H   0  0  0  0  0  0  0  0  0  0  0  0
  -10.9871    0.7058  -16.2386 H   0  0  0  0  0  0  0  0  0  0  0  0
   -7.6892    2.5546  -14.1732 H   0  0  0  0  0  0  0  0  0  0  0  0
   -8.3570    3.4321  -16.6439 H   0  0  0  0  0  0  0  0  0  0  0  0
   -9.3583    5.9158  -15.6675 H   0  0  0  0  0  0  0  0  0  0  0  0
  -10.5814    5.2729  -16.7374 H   0  0  0  0  0  0  0  0  0  0  0  0
   -9.0199    7.9872  -17.3892 H   0  0  0  0  0  0  0  0  0  0  0  0
  -10.4438    7.1699  -17.9334 H   0  0  0  0  0  0  0  0  0  0  0  0
   -8.6211    8.6689  -19.5241 H   0  0  0  0  0  0  0  0  0  0  0  0
  -10.1145    7.8897  -20.0199 H   0  0  0  0  0  0  0  0  0  0  0  0
   -8.3448    4.8881  -21.0110 H   0  0  0  0  0  0  0  0  0  0  0  0
   -9.9552    5.5551  -20.7907 H   0  0  0  0  0  0  0  0  0  0  0  0
  -10.0069    4.4627  -18.8519 H   0  0  0  0  0  0  0  0  0  0  0  0
   -8.3398    3.9958  -18.9287 H   0  0  0  0  0  0  0  0  0  0  0  0
   -6.6870    4.2001  -16.4101 H   0  0  0  0  0  0  0  0  0  0  0  0
   -3.9374    7.0667  -16.5522 H   0  0  0  0  0  0  0  0  0  0  0  0
   -5.3630    2.6232  -15.7676 H   0  0  0  0  0  0  0  0  0  0  0  0
   -3.6359    1.0586  -15.0753 H   0  0  0  0  0  0  0  0  0  0  0  0
   -1.2527    1.6885  -15.1201 H   0  0  0  0  0  0  0  0  0  0  0  0
   -0.5883    3.9297  -15.9349 H   0  0  0  0  0  0  0  0  0  0  0  0
   -2.2639    5.5251  -16.6933 H   0  0  0  0  0  0  0  0  0  0  0  0
   -7.3864    6.2061  -16.1621 H   0  0  0  0  0  0  0  0  0  0  0  0
   -6.3071    4.2615  -18.0455 H   0  0  0  0  0  0  0  0  0  0  0  0
  1  2  1  0  0  0  0
  2  3  1  0  0  0  0
  2  4  1  0  0  0  0
  2  5  1  0  0  0  0
  5  6  2  0  0  0  0
  5  9  1  0  0  0  0
  6  7  1  0  0  0  0
  7  8  2  0  0  0  0
  7 10  1  0  0  0  0
  8  9  1  0  0  0  0
 10 11  2  0  0  0  0
 10 15  1  0  0  0  0
 11 12  1  0  0  0  0
 11 37  1  0  0  0  0
 12 13  2  0  0  0  0
 12 38  1  0  0  0  0
 13 14  1  0  0  0  0
 13 39  1  0  0  0  0
 14 15  2  0  0  0  0
 14 16  1  0  0  0  0
 15 40  1  0  0  0  0
 16 17  2  0  0  0  0
 16 18  1  0  0  0  0
 18 19  1  0  0  0  0
 18 41  1  0  0  0  0
 19 20  1  0  0  0  0
 19 42  1  0  0  0  0
 19 43  1  0  0  0  0
 20 21  1  0  0  0  0
 20 25  1  0  0  0  0
 20 26  1  0  0  0  0
 21 22  1  0  0  0  0
 21 44  1  0  0  0  0
 21 45  1  0  0  0  0
 22 23  1  0  0  0  0
 22 46  1  0  0  0  0
 22 47  1  0  0  0  0
 23 24  1  0  0  0  0
 24 25  1  0  0  0  0
 24 48  1  0  0  0  0
 24 49  1  0  0  0  0
 25 50  1  0  0  0  0
 25 51  1  0  0  0  0
 26 27  1  0  0  0  0
 26 30  1  0  0  0  0
 26 59  1  1  0  0  0
 27 28  1  0  0  0  0
 27 52  1  0  0  0  0
 27 60  1  0  0  0  0
 28 29  2  0  0  0  0
 28 31  1  0  0  0  0
 29 30  1  0  0  0  0
 29 53  1  0  0  0  0
 31 32  2  0  0  0  0
 31 36  1  0  0  0  0
 32 33  1  0  0  0  0
 32 54  1  0  0  0  0
 33 34  2  0  0  0  0
 33 55  1  0  0  0  0
 34 35  1  0  0  0  0
 34 56  1  0  0  0  0
 35 36  2  0  0  0  0
 35 57  1  0  0  0  0
 36 58  1  0  0  0  0
M  END
$$$$
