O2N
 OpenBabel04091916473D

 78 82  0  0  1  0  0  0  0  0999 V2000
  -11.1997   48.6210    5.7733 C   0  0  0  0  0  0  0  0  0  0  0  0
  -12.1854   49.3624    5.1195 C   0  0  0  0  0  0  0  0  0  0  0  0
  -10.1266   48.1156    5.0379 C   0  0  0  0  0  0  0  0  0  0  0  0
  -12.1005   49.5973    3.7435 C   0  0  0  0  0  0  0  0  0  0  0  0
  -11.4458   45.7568   -1.6851 C   0  0  0  0  0  0  0  0  0  0  0  0
   -7.5057   45.0507   -0.0490 C   0  0  0  0  0  0  0  0  0  0  0  0
   -9.0910   44.1073    1.4881 C   0  0  0  0  0  0  0  0  0  0  0  0
   -5.2247   45.7212    3.4953 C   0  0  0  0  0  0  0  0  0  0  0  0
   -6.9156   44.1381    4.2054 C   0  0  0  0  0  0  0  0  0  0  0  0
  -12.1910   45.0667   -2.6521 C   0  0  0  0  0  0  0  0  0  0  0  0
   -8.0398   44.2492   -1.0738 C   0  0  0  0  0  0  0  0  0  0  0  0
   -9.6088   43.2929    0.4720 C   0  0  0  0  0  0  0  0  0  0  0  0
   -4.3449   45.1778    4.4246 C   0  0  0  0  0  0  0  0  0  0  0  0
   -6.0175   43.5778    5.1138 C   0  0  0  0  0  0  0  0  0  0  0  0
  -10.0344   48.3419    3.6728 C   0  0  0  0  0  0  0  0  0  0  0  0
  -13.4109   45.9373   -0.2159 C   0  0  0  0  0  0  0  0  0  0  0  0
   -8.0231   44.9854    1.2546 C   0  0  0  0  0  0  0  0  0  0  0  0
   -6.5302   45.2020    3.3596 C   0  0  0  0  0  0  0  0  0  0  0  0
  -11.0311   49.0875    2.9994 C   0  0  0  0  0  0  0  0  0  0  0  0
  -12.0340   46.1938   -0.4611 C   0  0  0  0  0  0  0  0  0  0  0  0
  -13.5235   44.8663   -2.3894 C   0  0  0  0  0  0  0  0  0  0  0  0
  -14.1114   45.2965   -1.2248 C   0  0  0  0  0  0  0  0  0  0  0  0
   -9.0709   43.3406   -0.8106 C   0  0  0  0  0  0  0  0  0  0  0  0
   -4.7309   44.1148    5.2427 C   0  0  0  0  0  0  0  0  0  0  0  0
  -10.1762   50.4694   -1.8389 C   0  0  0  0  0  0  0  0  0  0  0  0
  -10.5996   49.2598   -1.4794 C   0  0  0  0  0  0  0  0  0  0  0  0
   -8.8463   47.8507    2.9367 C   0  0  0  0  0  0  0  0  0  0  0  0
  -14.1057   46.3179    1.0680 C   0  0  0  0  0  0  0  0  0  0  0  0
  -15.6082   44.2645   -2.3894 C   0  0  0  0  0  0  0  0  0  0  0  0
  -10.0768   41.3119   -1.5593 C   0  0  0  0  0  0  0  0  0  0  0  0
   -4.2947   42.9426    7.2122 C   0  0  0  0  0  0  0  0  0  0  0  0
  -10.9707   49.3688    1.5299 C   0  0  0  0  0  0  0  0  0  0  0  0
  -11.2489   47.0007    0.5600 C   0  0  0  0  0  0  0  0  0  0  0  0
  -11.8830   49.0474   -0.7341 C   0  0  0  0  0  0  0  0  0  0  0  0
   -7.4684   45.8675    2.3723 C   0  0  0  0  0  0  0  0  0  0  0  0
   -8.5541   46.5233    3.0894 N   0  0  0  0  0  0  0  0  0  0  0  0
  -11.7096   48.4447    0.6187 N   0  3  2  0  0  0  0  0  0  0  0  0
  -14.9274   45.4753    1.5387 O   0  0  0  0  0  0  0  0  0  0  0  0
   -8.2063   48.6162    2.2144 O   0  0  0  0  0  0  0  0  0  0  0  0
  -13.7530   47.4124    1.5963 O   0  0  0  0  0  0  0  0  0  0  0  0
  -14.4132   44.2231   -3.2028 O   0  0  0  0  0  0  0  0  0  0  0  0
  -15.4357   45.0054   -1.1833 O   0  0  0  0  0  0  0  0  0  0  0  0
   -9.5321   42.5991   -1.8680 O   0  0  0  0  0  0  0  0  0  0  0  0
   -3.7729   43.6547    6.0970 O   0  0  0  0  0  0  0  0  0  0  0  0
  -11.2776   48.4372    6.8456 H   0  0  0  0  0  0  0  0  0  0  0  0
  -13.0319   49.7640    5.6768 H   0  0  0  0  0  0  0  0  0  0  0  0
   -9.3413   47.5623    5.5506 H   0  0  0  0  0  0  0  0  0  0  0  0
  -12.8984   50.1594    3.2608 H   0  0  0  0  0  0  0  0  0  0  0  0
  -10.3901   45.9461   -1.8932 H   0  0  0  0  0  0  0  0  0  0  0  0
   -6.6861   45.7324   -0.2789 H   0  0  0  0  0  0  0  0  0  0  0  0
   -9.5464   44.0570    2.4734 H   0  0  0  0  0  0  0  0  0  0  0  0
   -4.9085   46.5665    2.8817 H   0  0  0  0  0  0  0  0  0  0  0  0
   -7.9063   43.7202    4.1422 H   0  0  0  0  0  0  0  0  0  0  0  0
  -11.7406   44.6971   -3.5732 H   0  0  0  0  0  0  0  0  0  0  0  0
   -7.6417   44.3410   -2.0867 H   0  0  0  0  0  0  0  0  0  0  0  0
  -10.4535   42.6559    0.7067 H   0  0  0  0  0  0  0  0  0  0  0  0
   -3.3545   45.6090    4.5238 H   0  0  0  0  0  0  0  0  0  0  0  0
   -6.3486   42.7289    5.7073 H   0  0  0  0  0  0  0  0  0  0  0  0
   -9.2553   50.6067   -2.4010 H   0  0  0  0  0  0  0  0  0  0  0  0
  -10.7536   51.3571   -1.5931 H   0  0  0  0  0  0  0  0  0  0  0  0
  -10.0041   48.3856   -1.7579 H   0  0  0  0  0  0  0  0  0  0  0  0
  -15.9125   43.2396   -2.1424 H   0  0  0  0  0  0  0  0  0  0  0  0
  -16.4168   44.7375   -2.9589 H   0  0  0  0  0  0  0  0  0  0  0  0
  -10.4137   40.8502   -2.4953 H   0  0  0  0  0  0  0  0  0  0  0  0
  -10.9519   41.3594   -0.9022 H   0  0  0  0  0  0  0  0  0  0  0  0
   -9.3096   40.6585   -1.1287 H   0  0  0  0  0  0  0  0  0  0  0  0
   -3.4681   42.6196    7.8539 H   0  0  0  0  0  0  0  0  0  0  0  0
   -4.8174   42.0382    6.8893 H   0  0  0  0  0  0  0  0  0  0  0  0
   -4.9550   43.5939    7.7938 H   0  0  0  0  0  0  0  0  0  0  0  0
   -9.9497   49.4241    1.1619 H   0  0  0  0  0  0  0  0  0  0  0  0
  -11.3831   50.3794    1.3720 H   0  0  0  0  0  0  0  0  0  0  0  0
  -10.1799   47.0015    0.3265 H   0  0  0  0  0  0  0  0  0  0  0  0
  -11.3682   46.5378    1.5494 H   0  0  0  0  0  0  0  0  0  0  0  0
  -12.5576   48.4265   -1.3244 H   0  0  0  0  0  0  0  0  0  0  0  0
  -12.3973   50.0035   -0.5924 H   0  0  0  0  0  0  0  0  0  0  0  0
   -6.9021   46.6733    1.8587 H   0  0  0  0  0  0  0  0  0  0  0  0
   -9.1126   45.9485    3.7044 H   0  0  0  0  0  0  0  0  0  0  0  0
  -12.6742   48.3336    1.0469 H   0  0  0  0  0  0  0  0  0  0  0  0
  1  2  2  0  0  0  0
  1  3  1  0  0  0  0
  1 45  1  0  0  0  0
  2  4  1  0  0  0  0
  2 46  1  0  0  0  0
  3 15  2  0  0  0  0
  3 47  1  0  0  0  0
  4 19  2  0  0  0  0
  4 48  1  0  0  0  0
  5 10  2  0  0  0  0
  5 20  1  0  0  0  0
  5 49  1  0  0  0  0
  6 11  2  0  0  0  0
  6 17  1  0  0  0  0
  6 50  1  0  0  0  0
  7 12  1  0  0  0  0
  7 17  2  0  0  0  0
  7 51  1  0  0  0  0
  8 13  2  0  0  0  0
  8 18  1  0  0  0  0
  8 52  1  0  0  0  0
  9 14  1  0  0  0  0
  9 18  2  0  0  0  0
  9 53  1  0  0  0  0
 10 21  1  0  0  0  0
 10 54  1  0  0  0  0
 11 23  1  0  0  0  0
 11 55  1  0  0  0  0
 12 23  2  0  0  0  0
 12 56  1  0  0  0  0
 13 24  1  0  0  0  0
 13 57  1  0  0  0  0
 14 24  2  0  0  0  0
 14 58  1  0  0  0  0
 15 19  1  0  0  0  0
 15 27  1  0  0  0  0
 16 20  2  0  0  0  0
 16 22  1  0  0  0  0
 16 28  1  0  0  0  0
 17 35  1  0  0  0  0
 18 35  1  0  0  0  0
 19 32  1  0  0  0  0
 20 33  1  0  0  0  0
 21 22  2  0  0  0  0
 21 41  1  0  0  0  0
 22 42  1  0  0  0  0
 23 43  1  0  0  0  0
 24 44  1  0  0  0  0
 25 26  2  0  0  0  0
 25 59  1  0  0  0  0
 25 60  1  0  0  0  0
 26 34  1  0  0  0  0
 26 61  1  0  0  0  0
 27 36  1  0  0  0  0
 27 39  2  0  0  0  0
 28 38  2  0  0  0  0
 28 40  1  0  0  0  0
 29 41  1  0  0  0  0
 29 42  1  0  0  0  0
 29 62  1  0  0  0  0
 29 63  1  0  0  0  0
 30 43  1  0  0  0  0
 30 64  1  0  0  0  0
 30 65  1  0  0  0  0
 30 66  1  0  0  0  0
 31 44  1  0  0  0  0
 31 67  1  0  0  0  0
 31 68  1  0  0  0  0
 31 69  1  0  0  0  0
 32 37  1  0  0  0  0
 32 70  1  0  0  0  0
 32 71  1  0  0  0  0
 33 37  1  0  0  0  0
 33 72  1  0  0  0  0
 33 73  1  0  0  0  0
 34 37  1  0  0  0  0
 34 74  1  0  0  0  0
 34 75  1  0  0  0  0
 35 36  1  0  0  0  0
 35 76  1  0  0  0  0
 36 77  1  0  0  0  0
 37 78  1  1  0  0  0
M  CHG  1  37   1
M  END
$$$$
