O48
 OpenBabel04091913093D

 38 37  0  0  0  0  0  0  0  0999 V2000
   -4.6759    1.9174   14.5889 C   0  0  0  0  0  0  0  0  0  0  0  0
   -5.3955   -0.5103   16.2115 N   0  0  0  0  0  0  0  0  0  0  0  0
   -7.1637    1.2302   16.3547 O   0  0  0  0  0  0  0  0  0  0  0  0
   -5.8095    0.9868   16.7847 S   0  0  0  0  0  0  0  0  0  0  0  0
   -5.4818    3.0040   13.8988 C   0  0  0  0  0  0  0  0  0  0  0  0
   -5.4394    1.0070   18.1733 O   0  0  0  0  0  0  0  0  0  0  0  0
   -5.1383    4.4197   14.3601 C   0  0  0  0  0  0  0  0  0  0  0  0
   -4.8124    1.9994   15.9955 O   0  0  0  0  0  0  0  0  0  0  0  0
   -3.8302    4.9502   13.7750 C   0  0  0  0  0  0  0  0  0  0  0  0
   -3.5527    6.3671   14.2773 C   0  0  0  0  0  0  0  0  0  0  0  0
   -2.2107    6.8937   13.7820 C   0  0  0  0  0  0  0  0  0  0  0  0
   -1.9189    8.2841   14.3462 C   0  0  0  0  0  0  0  0  0  0  0  0
   -0.4853    8.7099   14.0354 C   0  0  0  0  0  0  0  0  0  0  0  0
   -0.2768   10.2154   14.1803 C   0  0  0  0  0  0  0  0  0  0  0  0
    0.1604   10.6218   15.5730 C   0  0  0  0  0  0  0  0  0  0  0  0
   -3.6115    2.0251   14.3672 H   0  0  0  0  0  0  0  0  0  0  0  0
   -4.9847    0.9396   14.2038 H   0  0  0  0  0  0  0  0  0  0  0  0
   -5.8832   -1.3055   16.6202 H   0  0  0  0  0  0  0  0  0  0  0  0
   -4.6310   -0.6229   15.5764 H   0  0  0  0  0  0  0  0  0  0  0  0
   -6.5409    2.8296   14.1214 H   0  0  0  0  0  0  0  0  0  0  0  0
   -5.3453    2.9165   12.8160 H   0  0  0  0  0  0  0  0  0  0  0  0
   -5.0854    4.4544   15.4538 H   0  0  0  0  0  0  0  0  0  0  0  0
   -5.9530    5.0833   14.0487 H   0  0  0  0  0  0  0  0  0  0  0  0
   -3.8935    4.9603   12.6804 H   0  0  0  0  0  0  0  0  0  0  0  0
   -3.0024    4.2943   14.0638 H   0  0  0  0  0  0  0  0  0  0  0  0
   -3.5514    6.3659   15.3735 H   0  0  0  0  0  0  0  0  0  0  0  0
   -4.3513    7.0371   13.9376 H   0  0  0  0  0  0  0  0  0  0  0  0
   -2.2238    6.9459   12.6861 H   0  0  0  0  0  0  0  0  0  0  0  0
   -1.4145    6.2032   14.0808 H   0  0  0  0  0  0  0  0  0  0  0  0
   -2.0641    8.2846   15.4323 H   0  0  0  0  0  0  0  0  0  0  0  0
   -2.6268    8.9974   13.9079 H   0  0  0  0  0  0  0  0  0  0  0  0
   -0.2497    8.4340   13.0017 H   0  0  0  0  0  0  0  0  0  0  0  0
    0.2023    8.1648   14.6931 H   0  0  0  0  0  0  0  0  0  0  0  0
   -1.1938   10.7551   13.9231 H   0  0  0  0  0  0  0  0  0  0  0  0
    0.5029   10.5245   13.4757 H   0  0  0  0  0  0  0  0  0  0  0  0
    0.3119   11.7054   15.6061 H   0  0  0  0  0  0  0  0  0  0  0  0
    1.1054   10.1380   15.8400 H   0  0  0  0  0  0  0  0  0  0  0  0
   -0.5967   10.3535   16.3142 H   0  0  0  0  0  0  0  0  0  0  0  0
  1  5  1  0  0  0  0
  1  8  1  0  0  0  0
  1 16  1  0  0  0  0
  1 17  1  0  0  0  0
  2  4  1  0  0  0  0
  2 18  1  0  0  0  0
  2 19  1  0  0  0  0
  3  4  2  0  0  0  0
  4  6  2  0  0  0  0
  4  8  1  0  0  0  0
  5  7  1  0  0  0  0
  5 20  1  0  0  0  0
  5 21  1  0  0  0  0
  7  9  1  0  0  0  0
  7 22  1  0  0  0  0
  7 23  1  0  0  0  0
  9 10  1  0  0  0  0
  9 24  1  0  0  0  0
  9 25  1  0  0  0  0
 10 11  1  0  0  0  0
 10 26  1  0  0  0  0
 10 27  1  0  0  0  0
 11 12  1  0  0  0  0
 11 28  1  0  0  0  0
 11 29  1  0  0  0  0
 12 13  1  0  0  0  0
 12 30  1  0  0  0  0
 12 31  1  0  0  0  0
 13 14  1  0  0  0  0
 13 32  1  0  0  0  0
 13 33  1  0  0  0  0
 14 15  1  0  0  0  0
 14 34  1  0  0  0  0
 14 35  1  0  0  0  0
 15 36  1  0  0  0  0
 15 37  1  0  0  0  0
 15 38  1  0  0  0  0
M  END
$$$$
