O59
 OpenBabel04091913083D

 38 37  0  0  0  0  0  0  0  0999 V2000
   -4.7800    1.9319   14.6065 C   0  0  0  0  0  0  0  0  0  0  0  0
   -5.3986   -0.5061   16.1753 N   0  0  0  0  0  0  0  0  0  0  0  0
   -7.2469    1.1215   16.3713 O   0  0  0  0  0  0  0  0  0  0  0  0
   -5.8743    0.9649   16.7851 S   0  0  0  0  0  0  0  0  0  0  0  0
   -4.0805    3.1834   14.1088 C   0  0  0  0  0  0  0  0  0  0  0  0
   -0.8971   11.6905   11.9784 N   0  0  0  0  0  0  0  0  0  0  0  0
   -5.4894    0.9435   18.1639 O   0  0  0  0  0  0  0  0  0  0  0  0
   -1.6472   11.7879   13.4514 S   0  0  0  0  0  0  0  0  0  0  0  0
   -5.0033    4.4009   14.1585 C   0  0  0  0  0  0  0  0  0  0  0  0
   -4.9519    2.0387   16.0034 O   0  0  0  0  0  0  0  0  0  0  0  0
   -4.3673    5.6235   13.5004 C   0  0  0  0  0  0  0  0  0  0  0  0
   -1.9800   10.2502   13.8253 O   0  0  0  0  0  0  0  0  0  0  0  0
   -3.2241    6.2060   14.3287 C   0  0  0  0  0  0  0  0  0  0  0  0
   -0.6538   12.2942   14.3680 O   0  0  0  0  0  0  0  0  0  0  0  0
   -2.4480    7.2552   13.5390 C   0  0  0  0  0  0  0  0  0  0  0  0
   -2.8975   12.4747   13.2319 O   0  0  0  0  0  0  0  0  0  0  0  0
   -1.4857    8.0187   14.4522 C   0  0  0  0  0  0  0  0  0  0  0  0
   -0.9567    9.2718   13.7731 C   0  0  0  0  0  0  0  0  0  0  0  0
   -4.1265    1.0763   14.3971 H   0  0  0  0  0  0  0  0  0  0  0  0
   -5.7338    1.7782   14.0983 H   0  0  0  0  0  0  0  0  0  0  0  0
   -5.8006   -1.3235   16.6204 H   0  0  0  0  0  0  0  0  0  0  0  0
   -4.5998   -0.5706   15.5583 H   0  0  0  0  0  0  0  0  0  0  0  0
   -3.7363    3.0180   13.0816 H   0  0  0  0  0  0  0  0  0  0  0  0
   -3.1997    3.3624   14.7359 H   0  0  0  0  0  0  0  0  0  0  0  0
   -0.6737   12.5681   11.5245 H   0  0  0  0  0  0  0  0  0  0  0  0
   -0.8347   10.8049   11.4959 H   0  0  0  0  0  0  0  0  0  0  0  0
   -5.2730    4.6308   15.1962 H   0  0  0  0  0  0  0  0  0  0  0  0
   -5.9334    4.1677   13.6271 H   0  0  0  0  0  0  0  0  0  0  0  0
   -5.1398    6.3928   13.3767 H   0  0  0  0  0  0  0  0  0  0  0  0
   -4.0158    5.3598   12.4960 H   0  0  0  0  0  0  0  0  0  0  0  0
   -2.5270    5.4246   14.6459 H   0  0  0  0  0  0  0  0  0  0  0  0
   -3.6432    6.6547   15.2374 H   0  0  0  0  0  0  0  0  0  0  0  0
   -3.1446    7.9449   13.0493 H   0  0  0  0  0  0  0  0  0  0  0  0
   -1.8739    6.7590   12.7448 H   0  0  0  0  0  0  0  0  0  0  0  0
   -0.6520    7.3634   14.7249 H   0  0  0  0  0  0  0  0  0  0  0  0
   -2.0094    8.3072   15.3716 H   0  0  0  0  0  0  0  0  0  0  0  0
   -0.0558    9.6246   14.2847 H   0  0  0  0  0  0  0  0  0  0  0  0
   -0.7122    9.0599   12.7270 H   0  0  0  0  0  0  0  0  0  0  0  0
  1  5  1  0  0  0  0
  1 10  1  0  0  0  0
  1 19  1  0  0  0  0
  1 20  1  0  0  0  0
  2  4  1  0  0  0  0
  2 21  1  0  0  0  0
  2 22  1  0  0  0  0
  3  4  2  0  0  0  0
  4  7  2  0  0  0  0
  4 10  1  0  0  0  0
  5  9  1  0  0  0  0
  5 23  1  0  0  0  0
  5 24  1  0  0  0  0
  6  8  1  0  0  0  0
  6 25  1  0  0  0  0
  6 26  1  0  0  0  0
  8 12  1  0  0  0  0
  8 14  2  0  0  0  0
  8 16  2  0  0  0  0
  9 11  1  0  0  0  0
  9 27  1  0  0  0  0
  9 28  1  0  0  0  0
 11 13  1  0  0  0  0
 11 29  1  0  0  0  0
 11 30  1  0  0  0  0
 12 18  1  0  0  0  0
 13 15  1  0  0  0  0
 13 31  1  0  0  0  0
 13 32  1  0  0  0  0
 15 17  1  0  0  0  0
 15 33  1  0  0  0  0
 15 34  1  0  0  0  0
 17 18  1  0  0  0  0
 17 35  1  0  0  0  0
 17 36  1  0  0  0  0
 18 37  1  0  0  0  0
 18 38  1  0  0  0  0
M  END
$$$$
