O7U
 OpenBabel04091914143D

 15 15  0  0  0  0  0  0  0  0999 V2000
  -68.6180   18.1254  -14.9921 N   0  0  0  0  0  0  0  0  0  0  0  0
  -68.5602   19.4388  -15.3021 C   0  0  0  0  0  0  0  0  0  0  0  0
  -69.2498   20.2689  -14.7126 O   0  0  0  0  0  0  0  0  0  0  0  0
  -67.7328   19.8139  -16.2974 N   0  0  0  0  0  0  0  0  0  0  0  0
  -66.9037   19.0656  -18.6410 N   0  0  0  0  0  0  0  0  0  0  0  0
  -65.1730   19.5391  -16.7231 O   0  0  0  0  0  0  0  0  0  0  0  0
  -66.5146   18.9625  -17.0616 P   0  0  1  0  0  0  0  0  0  0  0  0
  -67.0056   17.4024  -16.5231 C   0  0  0  0  0  0  0  0  0  0  0  0
  -67.9220   17.1289  -15.5919 C   0  0  0  0  0  0  0  0  0  0  0  0
  -69.2948   17.8941  -14.2607 H   0  0  0  0  0  0  0  0  0  0  0  0
  -67.6710   20.8123  -16.3810 H   0  0  0  0  0  0  0  0  0  0  0  0
  -66.2046   18.7687  -19.3100 H   0  0  0  0  0  0  0  0  0  0  0  0
  -67.3948   19.8787  -18.9876 H   0  0  0  0  0  0  0  0  0  0  0  0
  -66.4914   16.5685  -16.9743 H   0  0  0  0  0  0  0  0  0  0  0  0
  -68.1415   16.1158  -15.2957 H   0  0  0  0  0  0  0  0  0  0  0  0
  1  2  1  0  0  0  0
  1  9  1  0  0  0  0
  1 10  1  0  0  0  0
  2  3  2  0  0  0  0
  2  4  1  0  0  0  0
  4  7  1  0  0  0  0
  4 11  1  0  0  0  0
  5 12  1  0  0  0  0
  5 13  1  0  0  0  0
  6  7  2  0  0  0  0
  7  5  1  6  0  0  0
  7  8  1  0  0  0  0
  8  9  2  0  0  0  0
  8 14  1  0  0  0  0
  9 15  1  0  0  0  0
M  END
$$$$
