OAG
 OpenBabel04091914173D

 34 36  0  0  0  0  0  0  0  0999 V2000
   -2.7802  -15.1625   -1.5205 C   0  0  0  0  0  0  0  0  0  0  0  0
   -2.4787  -13.7545   -1.5665 N   0  0  0  0  0  0  0  0  0  0  0  0
   -2.2511  -10.7780   -0.7031 Cl  0  0  0  0  0  0  0  0  0  0  0  0
   -7.0401  -13.4548   -3.6605 Cl  0  0  0  0  0  0  0  0  0  0  0  0
   -2.7233  -17.1065   -0.0398 C   0  0  0  0  0  0  0  0  0  0  0  0
   -3.4589  -12.8597   -1.9900 C   0  0  0  0  0  0  0  0  0  0  0  0
   -3.3388  -17.5378    3.5052 N   0  0  0  0  0  0  0  0  0  0  0  0
   -2.8529  -15.7361   -0.1465 C   0  0  0  0  0  0  0  0  0  0  0  0
   -3.5484  -11.5232   -1.5626 C   0  0  0  0  0  0  0  0  0  0  0  0
   -5.7990  -11.3632   -2.4495 C   0  0  0  0  0  0  0  0  0  0  0  0
   -3.1230  -18.8491    3.5995 C   0  0  0  0  0  0  0  0  0  0  0  0
   -3.2324  -19.4211    4.8394 N   0  0  0  0  0  0  0  0  0  0  0  0
   -4.6968  -10.7831   -1.8187 C   0  0  0  0  0  0  0  0  0  0  0  0
   -2.8191  -19.6610    2.5809 N   0  0  0  0  0  0  0  0  0  0  0  0
   -2.7151  -19.1026    1.3761 C   0  0  0  0  0  0  0  0  0  0  0  0
   -2.2580  -19.9278    0.3425 N   0  0  0  0  0  0  0  0  0  0  0  0
   -2.8860  -17.7396    1.1949 C   0  0  0  0  0  0  0  0  0  0  0  0
   -5.7020  -12.6615   -2.9242 C   0  0  0  0  0  0  0  0  0  0  0  0
   -4.5421  -13.3493   -2.7464 C   0  0  0  0  0  0  0  0  0  0  0  0
   -3.2608  -15.0587    0.9856 C   0  0  0  0  0  0  0  0  0  0  0  0
   -3.4353  -15.6578    2.1921 N   0  0  0  0  0  0  0  0  0  0  0  0
   -3.2245  -16.9757    2.3092 C   0  0  0  0  0  0  0  0  0  0  0  0
   -2.0691  -15.7017   -2.1601 H   0  0  0  0  0  0  0  0  0  0  0  0
   -3.7693  -15.4287   -1.8967 H   0  0  0  0  0  0  0  0  0  0  0  0
   -1.5345  -13.4236   -1.3913 H   0  0  0  0  0  0  0  0  0  0  0  0
   -2.5212  -17.6865   -0.9365 H   0  0  0  0  0  0  0  0  0  0  0  0
   -6.7200  -10.7926   -2.6020 H   0  0  0  0  0  0  0  0  0  0  0  0
   -3.2532  -18.7744    5.6143 H   0  0  0  0  0  0  0  0  0  0  0  0
   -2.8126  -20.3323    4.9299 H   0  0  0  0  0  0  0  0  0  0  0  0
   -4.7744   -9.7460   -1.4740 H   0  0  0  0  0  0  0  0  0  0  0  0
   -2.5955  -19.7370   -0.5911 H   0  0  0  0  0  0  0  0  0  0  0  0
   -2.3051  -20.9065    0.6072 H   0  0  0  0  0  0  0  0  0  0  0  0
   -4.4942  -14.3396   -3.2103 H   0  0  0  0  0  0  0  0  0  0  0  0
   -3.4999  -13.9978    0.9613 H   0  0  0  0  0  0  0  0  0  0  0  0
  1  2  1  0  0  0  0
  1  8  1  0  0  0  0
  1 23  1  0  0  0  0
  1 24  1  0  0  0  0
  2  6  1  0  0  0  0
  2 25  1  0  0  0  0
  3  9  1  0  0  0  0
  4 18  1  0  0  0  0
  5  8  2  0  0  0  0
  5 17  1  0  0  0  0
  5 26  1  0  0  0  0
  6  9  2  0  0  0  0
  6 19  1  0  0  0  0
  7 11  2  0  0  0  0
  7 22  1  0  0  0  0
  8 20  1  0  0  0  0
  9 13  1  0  0  0  0
 10 13  2  0  0  0  0
 10 18  1  0  0  0  0
 10 27  1  0  0  0  0
 11 12  1  0  0  0  0
 11 14  1  0  0  0  0
 12 28  1  0  0  0  0
 12 29  1  0  0  0  0
 13 30  1  0  0  0  0
 14 15  2  0  0  0  0
 15 16  1  0  0  0  0
 15 17  1  0  0  0  0
 16 31  1  0  0  0  0
 16 32  1  0  0  0  0
 17 22  2  0  0  0  0
 18 19  2  0  0  0  0
 19 33  1  0  0  0  0
 20 21  2  0  0  0  0
 20 34  1  0  0  0  0
 21 22  1  0  0  0  0
M  END
$$$$
