OAN
 OpenBabel04091914223D

 44 45  0  0  1  0  0  0  0  0999 V2000
   38.3347  -56.1826   38.8290 C   0  0  0  0  0  0  0  0  0  0  0  0
   37.3083  -56.7485   39.7677 C   0  0  0  0  0  0  0  0  0  0  0  0
   37.3682  -56.5877   40.9814 O   0  0  0  0  0  0  0  0  0  0  0  0
   36.2980  -57.4491   39.1537 N   0  0  0  0  0  0  0  0  0  0  0  0
   35.1607  -57.9656   39.9164 C   0  0  2  0  0  0  0  0  0  0  0  0
   34.1958  -56.8459   40.3306 C   0  0  1  0  0  0  0  0  0  0  0  0
   33.2245  -56.6510   39.2841 O   0  0  0  0  0  0  0  0  0  0  0  0
   33.4734  -57.1790   41.6346 C   0  0  2  0  0  0  0  0  0  0  0  0
   32.6330  -56.0828   42.0060 O   0  0  0  0  0  0  0  0  0  0  0  0
   34.5661  -57.4295   42.6698 C   0  0  1  0  0  0  0  0  0  0  0  0
   33.9624  -57.6696   44.0579 C   0  0  0  0  0  0  0  0  0  0  0  0
   34.9899  -57.8210   45.0313 O   0  0  0  0  0  0  0  0  0  0  0  0
   35.3259  -58.6089   42.3114 O   0  0  0  0  0  0  0  0  0  0  0  0
   35.6185  -58.9149   41.0268 C   0  0  0  0  0  0  0  0  0  0  0  0
   36.2184  -60.0183   40.7301 N   0  0  0  0  0  0  0  0  0  0  0  0
   36.4925  -60.7321   41.9097 O   0  0  0  0  0  0  0  0  0  0  0  0
   36.3794  -62.0788   41.7173 C   0  0  0  0  0  0  0  0  0  0  0  0
   36.4860  -62.6717   40.6501 O   0  0  0  0  0  0  0  0  0  0  0  0
   36.0289  -62.6467   42.9196 N   0  0  0  0  0  0  0  0  0  0  0  0
   35.5800  -63.9709   43.0034 C   0  0  0  0  0  0  0  0  0  0  0  0
   36.5439  -64.9586   43.1774 C   0  0  0  0  0  0  0  0  0  0  0  0
   36.1590  -66.2828   43.3549 C   0  0  0  0  0  0  0  0  0  0  0  0
   34.8094  -66.6234   43.3398 C   0  0  0  0  0  0  0  0  0  0  0  0
   33.8373  -65.6312   43.1610 C   0  0  0  0  0  0  0  0  0  0  0  0
   34.2201  -64.2949   43.0118 C   0  0  0  0  0  0  0  0  0  0  0  0
   38.0532  -56.3387   37.7844 H   0  0  0  0  0  0  0  0  0  0  0  0
   39.2982  -56.6639   39.0124 H   0  0  0  0  0  0  0  0  0  0  0  0
   38.4154  -55.1067   39.0059 H   0  0  0  0  0  0  0  0  0  0  0  0
   36.2559  -57.4853   38.1439 H   0  0  0  0  0  0  0  0  0  0  0  0
   34.6265  -58.6092   39.2017 H   0  0  0  0  0  0  0  0  0  0  0  0
   34.7125  -55.8854   40.4503 H   0  0  0  0  0  0  0  0  0  0  0  0
   33.7003  -56.2895   38.5166 H   0  0  0  0  0  0  0  0  0  0  0  0
   32.8409  -58.0658   41.4916 H   0  0  0  0  0  0  0  0  0  0  0  0
   32.0541  -56.3604   42.7352 H   0  0  0  0  0  0  0  0  0  0  0  0
   35.2517  -56.5744   42.7413 H   0  0  0  0  0  0  0  0  0  0  0  0
   33.3619  -58.5849   44.0555 H   0  0  0  0  0  0  0  0  0  0  0  0
   33.3371  -56.8287   44.3719 H   0  0  0  0  0  0  0  0  0  0  0  0
   34.5579  -57.9666   45.8893 H   0  0  0  0  0  0  0  0  0  0  0  0
   35.6845  -61.9802   43.5926 H   0  0  0  0  0  0  0  0  0  0  0  0
   37.5945  -64.6875   43.2044 H   0  0  0  0  0  0  0  0  0  0  0  0
   36.9168  -67.0464   43.5014 H   0  0  0  0  0  0  0  0  0  0  0  0
   34.5121  -67.6609   43.4620 H   0  0  0  0  0  0  0  0  0  0  0  0
   32.7864  -65.9081   43.1309 H   0  0  0  0  0  0  0  0  0  0  0  0
   33.4586  -63.5350   42.8628 H   0  0  0  0  0  0  0  0  0  0  0  0
  1  2  1  0  0  0  0
  1 26  1  0  0  0  0
  1 27  1  0  0  0  0
  1 28  1  0  0  0  0
  2  3  2  0  0  0  0
  2  4  1  0  0  0  0
  4  5  1  0  0  0  0
  4 29  1  0  0  0  0
  5  6  1  0  0  0  0
  5 14  1  0  0  0  0
  5 30  1  6  0  0  0
  6  7  1  0  0  0  0
  6  8  1  0  0  0  0
  6 31  1  1  0  0  0
  7 32  1  0  0  0  0
  8  9  1  0  0  0  0
  8 10  1  0  0  0  0
  8 33  1  6  0  0  0
  9 34  1  0  0  0  0
 10 11  1  0  0  0  0
 10 13  1  0  0  0  0
 10 35  1  1  0  0  0
 11 12  1  0  0  0  0
 11 36  1  0  0  0  0
 11 37  1  0  0  0  0
 12 38  1  0  0  0  0
 13 14  1  0  0  0  0
 14 15  2  0  0  0  0
 15 16  1  0  0  0  0
 16 17  1  0  0  0  0
 17 18  2  0  0  0  0
 17 19  1  0  0  0  0
 19 20  1  0  0  0  0
 19 39  1  0  0  0  0
 20 21  2  0  0  0  0
 20 25  1  0  0  0  0
 21 22  1  0  0  0  0
 21 40  1  0  0  0  0
 22 23  2  0  0  0  0
 22 41  1  0  0  0  0
 23 24  1  0  0  0  0
 23 42  1  0  0  0  0
 24 25  2  0  0  0  0
 24 43  1  0  0  0  0
 25 44  1  0  0  0  0
M  END
$$$$
