OAN
 OpenBabel04091915113D

 44 45  0  0  1  0  0  0  0  0999 V2000
   40.5890   -5.2827    9.5853 C   0  0  0  0  0  0  0  0  0  0  0  0
   40.5329   -4.0806   10.4928 C   0  0  0  0  0  0  0  0  0  0  0  0
   40.5982   -4.1856   11.7163 O   0  0  0  0  0  0  0  0  0  0  0  0
   40.4058   -2.8778    9.8508 N   0  0  0  0  0  0  0  0  0  0  0  0
   40.4906   -1.5928   10.5655 C   0  0  2  0  0  0  0  0  0  0  0  0
   41.9371   -1.2655   10.9738 C   0  0  1  0  0  0  0  0  0  0  0  0
   42.5762   -0.5326    9.9081 O   0  0  0  0  0  0  0  0  0  0  0  0
   41.9912   -0.4348   12.2559 C   0  0  2  0  0  0  0  0  0  0  0  0
   43.3603   -0.2437   12.6286 O   0  0  0  0  0  0  0  0  0  0  0  0
   41.2233   -1.2279   13.3164 C   0  0  1  0  0  0  0  0  0  0  0  0
   41.2641   -0.5276   14.6739 C   0  0  0  0  0  0  0  0  0  0  0  0
   40.6648   -1.3716   15.6565 O   0  0  0  0  0  0  0  0  0  0  0  0
   39.8295   -1.3727   12.9535 O   0  0  0  0  0  0  0  0  0  0  0  0
   39.4271   -1.4513   11.6715 C   0  0  0  0  0  0  0  0  0  0  0  0
   38.1673   -1.3817   11.3545 N   0  0  0  0  0  0  0  0  0  0  0  0
   37.3172   -1.3252   12.4929 O   0  0  0  0  0  0  0  0  0  0  0  0
   36.0235   -1.0068   12.1028 C   0  0  0  0  0  0  0  0  0  0  0  0
   35.7357   -0.5099   11.0137 O   0  0  0  0  0  0  0  0  0  0  0  0
   35.0993   -1.3694   13.0788 N   0  0  0  0  0  0  0  0  0  0  0  0
   33.7090   -1.3697   12.8024 C   0  0  0  0  0  0  0  0  0  0  0  0
   33.0685   -0.1789   12.4845 C   0  0  0  0  0  0  0  0  0  0  0  0
   31.6886   -0.1650   12.2527 C   0  0  0  0  0  0  0  0  0  0  0  0
   30.9515   -1.3449   12.2974 C   0  0  0  0  0  0  0  0  0  0  0  0
   31.5921   -2.5432   12.6014 C   0  0  0  0  0  0  0  0  0  0  0  0
   32.9738   -2.5639   12.8783 C   0  0  0  0  0  0  0  0  0  0  0  0
   40.6202   -4.9900    8.5325 H   0  0  0  0  0  0  0  0  0  0  0  0
   39.7079   -5.9080    9.7498 H   0  0  0  0  0  0  0  0  0  0  0  0
   41.4941   -5.8551    9.8075 H   0  0  0  0  0  0  0  0  0  0  0  0
   40.4495   -2.8580    8.8403 H   0  0  0  0  0  0  0  0  0  0  0  0
   40.1972   -0.8586    9.8008 H   0  0  0  0  0  0  0  0  0  0  0  0
   42.5353   -2.1731   11.1183 H   0  0  0  0  0  0  0  0  0  0  0  0
   42.7185   -1.1545    9.1737 H   0  0  0  0  0  0  0  0  0  0  0  0
   41.5407    0.5509   12.0786 H   0  0  0  0  0  0  0  0  0  0  0  0
   43.4061    0.4072   13.3486 H   0  0  0  0  0  0  0  0  0  0  0  0
   41.6580   -2.2315   13.4394 H   0  0  0  0  0  0  0  0  0  0  0  0
   40.6916    0.4108   14.6374 H   0  0  0  0  0  0  0  0  0  0  0  0
   42.2808   -0.3171   15.0031 H   0  0  0  0  0  0  0  0  0  0  0  0
   40.6518   -0.8618   16.5073 H   0  0  0  0  0  0  0  0  0  0  0  0
   35.4583   -2.0129   13.7728 H   0  0  0  0  0  0  0  0  0  0  0  0
   33.6224    0.7523   12.4517 H   0  0  0  0  0  0  0  0  0  0  0  0
   31.1929    0.7736   12.0244 H   0  0  0  0  0  0  0  0  0  0  0  0
   29.8863   -1.3311   12.0874 H   0  0  0  0  0  0  0  0  0  0  0  0
   31.0328   -3.4700   12.6166 H   0  0  0  0  0  0  0  0  0  0  0  0
   33.4600   -3.5113   13.0828 H   0  0  0  0  0  0  0  0  0  0  0  0
  1  2  1  0  0  0  0
  1 26  1  0  0  0  0
  1 27  1  0  0  0  0
  1 28  1  0  0  0  0
  2  3  2  0  0  0  0
  2  4  1  0  0  0  0
  4  5  1  0  0  0  0
  4 29  1  0  0  0  0
  5  6  1  0  0  0  0
  5 14  1  0  0  0  0
  5 30  1  6  0  0  0
  6  7  1  0  0  0  0
  6  8  1  0  0  0  0
  6 31  1  1  0  0  0
  7 32  1  0  0  0  0
  8  9  1  0  0  0  0
  8 10  1  0  0  0  0
  8 33  1  6  0  0  0
  9 34  1  0  0  0  0
 10 11  1  0  0  0  0
 10 13  1  0  0  0  0
 10 35  1  1  0  0  0
 11 12  1  0  0  0  0
 11 36  1  0  0  0  0
 11 37  1  0  0  0  0
 12 38  1  0  0  0  0
 13 14  1  0  0  0  0
 14 15  2  0  0  0  0
 15 16  1  0  0  0  0
 16 17  1  0  0  0  0
 17 18  2  0  0  0  0
 17 19  1  0  0  0  0
 19 20  1  0  0  0  0
 19 39  1  0  0  0  0
 20 21  2  0  0  0  0
 20 25  1  0  0  0  0
 21 22  1  0  0  0  0
 21 40  1  0  0  0  0
 22 23  2  0  0  0  0
 22 41  1  0  0  0  0
 23 24  1  0  0  0  0
 23 42  1  0  0  0  0
 24 25  2  0  0  0  0
 24 43  1  0  0  0  0
 25 44  1  0  0  0  0
M  END
$$$$
