OAN
 OpenBabel04091915223D

 46 47  0  0  1  0  0  0  0  0999 V2000
   32.4032  -20.5734   17.9342 C   0  0  0  0  0  0  0  0  0  0  0  0
   33.3442  -19.8248   17.0346 C   0  0  0  0  0  0  0  0  0  0  0  0
   33.2298  -19.8295   15.8190 O   0  0  0  0  0  0  0  0  0  0  0  0
   34.3060  -19.1179   17.7173 N   0  0  0  0  0  0  0  0  0  0  0  0
   35.2411  -18.2097   17.0708 C   0  0  2  0  0  0  0  0  0  0  0  0
   34.5897  -16.8832   16.5994 C   0  0  1  0  0  0  0  0  0  0  0  0
   34.7524  -15.8960   17.6310 O   0  0  0  0  0  0  0  0  0  0  0  0
   35.2227  -16.3655   15.2892 C   0  0  2  0  0  0  0  0  0  0  0  0
   34.6028  -15.1454   14.8817 O   0  0  0  0  0  0  0  0  0  0  0  0
   35.0296  -17.4761   14.2507 C   0  0  1  0  0  0  0  0  0  0  0  0
   35.5164  -17.0601   12.8608 C   0  0  0  0  0  0  0  0  0  0  0  0
   35.1955  -18.0721   11.9177 O   0  0  0  0  0  0  0  0  0  0  0  0
   35.6893  -18.6844   14.6205 O   0  0  0  0  0  0  0  0  0  0  0  0
   36.1533  -18.7558   15.9521 C   0  0  2  0  0  0  0  0  0  0  0  0
   36.8537  -20.0140   16.1300 N   0  3  0  0  0  0  0  0  0  0  0  0
   38.1141  -19.6019   15.4779 O   0  0  0  0  0  0  0  0  0  0  0  0
   39.0679  -20.5433   15.3771 C   0  0  0  0  0  0  0  0  0  0  0  0
   39.1397  -21.5055   16.1511 O   0  0  0  0  0  0  0  0  0  0  0  0
   39.9456  -20.1762   14.3900 N   0  0  0  0  0  0  0  0  0  0  0  0
   41.1533  -20.8407   14.0858 C   0  0  0  0  0  0  0  0  0  0  0  0
   41.4015  -22.1262   14.5606 C   0  0  0  0  0  0  0  0  0  0  0  0
   42.5987  -22.7739   14.2859 C   0  0  0  0  0  0  0  0  0  0  0  0
   43.5668  -22.1374   13.5240 C   0  0  0  0  0  0  0  0  0  0  0  0
   43.3345  -20.8509   13.0380 C   0  0  0  0  0  0  0  0  0  0  0  0
   42.1245  -20.2004   13.3074 C   0  0  0  0  0  0  0  0  0  0  0  0
   32.6153  -20.3786   18.9899 H   0  0  0  0  0  0  0  0  0  0  0  0
   32.5072  -21.6461   17.7441 H   0  0  0  0  0  0  0  0  0  0  0  0
   31.3753  -20.2557   17.7207 H   0  0  0  0  0  0  0  0  0  0  0  0
   34.2864  -19.1257   18.7288 H   0  0  0  0  0  0  0  0  0  0  0  0
   35.9269  -17.9692   17.8971 H   0  0  0  0  0  0  0  0  0  0  0  0
   33.5135  -17.0071   16.4360 H   0  0  0  0  0  0  0  0  0  0  0  0
   34.2244  -16.1879   18.3922 H   0  0  0  0  0  0  0  0  0  0  0  0
   36.2907  -16.1407   15.4510 H   0  0  0  0  0  0  0  0  0  0  0  0
   35.0733  -14.8123   14.0987 H   0  0  0  0  0  0  0  0  0  0  0  0
   33.9648  -17.7198   14.1638 H   0  0  0  0  0  0  0  0  0  0  0  0
   36.6027  -16.9039   12.8592 H   0  0  0  0  0  0  0  0  0  0  0  0
   35.0254  -16.1401   12.5326 H   0  0  0  0  0  0  0  0  0  0  0  0
   35.5286  -17.7876   11.0497 H   0  0  0  0  0  0  0  0  0  0  0  0
   36.9539  -18.0018   16.0106 H   0  0  0  0  0  0  0  0  0  0  0  0
   37.0752  -20.1769   17.1095 H   0  0  0  0  0  0  0  0  0  0  0  0
   39.7253  -19.3324   13.8722 H   0  0  0  0  0  0  0  0  0  0  0  0
   40.6616  -22.6745   15.1356 H   0  0  0  0  0  0  0  0  0  0  0  0
   42.7562  -23.7775   14.6701 H   0  0  0  0  0  0  0  0  0  0  0  0
   44.4971  -22.6524   13.3020 H   0  0  0  0  0  0  0  0  0  0  0  0
   44.1020  -20.3611   12.4443 H   0  0  0  0  0  0  0  0  0  0  0  0
   41.9771  -19.1921   12.9291 H   0  0  0  0  0  0  0  0  0  0  0  0
  1  2  1  0  0  0  0
  1 26  1  0  0  0  0
  1 27  1  0  0  0  0
  1 28  1  0  0  0  0
  2  3  2  0  0  0  0
  2  4  1  0  0  0  0
  4  5  1  0  0  0  0
  4 29  1  0  0  0  0
  5  6  1  0  0  0  0
  5 14  1  0  0  0  0
  5 30  1  1  0  0  0
  6  7  1  0  0  0  0
  6  8  1  0  0  0  0
  6 31  1  6  0  0  0
  7 32  1  0  0  0  0
  8  9  1  0  0  0  0
  8 10  1  0  0  0  0
  8 33  1  1  0  0  0
  9 34  1  0  0  0  0
 10 11  1  0  0  0  0
 10 13  1  0  0  0  0
 10 35  1  6  0  0  0
 11 12  1  0  0  0  0
 11 36  1  0  0  0  0
 11 37  1  0  0  0  0
 12 38  1  0  0  0  0
 13 14  1  0  0  0  0
 14 15  1  0  0  0  0
 14 39  1  6  0  0  0
 15 16  1  0  0  0  0
 15 40  1  0  0  0  0
 16 17  1  0  0  0  0
 17 18  2  0  0  0  0
 17 19  1  0  0  0  0
 19 20  1  0  0  0  0
 19 41  1  0  0  0  0
 20 21  2  0  0  0  0
 20 25  1  0  0  0  0
 21 22  1  0  0  0  0
 21 42  1  0  0  0  0
 22 23  2  0  0  0  0
 22 43  1  0  0  0  0
 23 24  1  0  0  0  0
 23 44  1  0  0  0  0
 24 25  2  0  0  0  0
 24 45  1  0  0  0  0
 25 46  1  0  0  0  0
M  CHG  1  15   1
M  END
$$$$
