OCA
 OpenBabel04091914073D

 25 24  0  0  0  0  0  0  0  0999 V2000
   -3.2024   -3.2300  -17.0688 C   0  0  0  0  0  0  0  0  0  0  0  0
   -2.6563   -4.5515  -17.6282 C   0  0  0  0  0  0  0  0  0  0  0  0
   -3.7932   -5.5162  -17.9260 C   0  0  0  0  0  0  0  0  0  0  0  0
   -3.9213   -6.5848  -16.8456 C   0  0  0  0  0  0  0  0  0  0  0  0
   -5.3271   -7.1715  -16.8134 C   0  0  0  0  0  0  0  0  0  0  0  0
   -5.7887   -7.6294  -18.1869 C   0  0  0  0  0  0  0  0  0  0  0  0
   -7.3046   -7.7069  -18.2654 C   0  0  0  0  0  0  0  0  0  0  0  0
   -7.7161   -9.0475  -18.8241 C   0  0  0  0  0  0  0  0  0  0  0  0
   -4.3220   -2.8507  -17.4757 O   0  0  0  0  0  0  0  0  0  0  0  0
   -2.4234   -2.6585  -16.2394 O   0  0  0  0  0  0  0  0  0  0  0  0
   -1.9593   -5.0113  -16.9120 H   0  0  0  0  0  0  0  0  0  0  0  0
   -2.1047   -4.3501  -18.5551 H   0  0  0  0  0  0  0  0  0  0  0  0
   -3.6119   -6.0047  -18.8898 H   0  0  0  0  0  0  0  0  0  0  0  0
   -4.7448   -4.9801  -18.0012 H   0  0  0  0  0  0  0  0  0  0  0  0
   -3.6987   -6.1492  -15.8637 H   0  0  0  0  0  0  0  0  0  0  0  0
   -3.1966   -7.3852  -17.0378 H   0  0  0  0  0  0  0  0  0  0  0  0
   -6.0161   -6.4087  -16.4298 H   0  0  0  0  0  0  0  0  0  0  0  0
   -5.3488   -8.0267  -16.1240 H   0  0  0  0  0  0  0  0  0  0  0  0
   -5.3402   -8.6062  -18.4057 H   0  0  0  0  0  0  0  0  0  0  0  0
   -5.4512   -6.9341  -18.9608 H   0  0  0  0  0  0  0  0  0  0  0  0
   -7.6832   -6.9080  -18.9152 H   0  0  0  0  0  0  0  0  0  0  0  0
   -7.7482   -7.5766  -17.2709 H   0  0  0  0  0  0  0  0  0  0  0  0
   -8.8064   -9.1133  -18.8831 H   0  0  0  0  0  0  0  0  0  0  0  0
   -7.3483   -9.8495  -18.1760 H   0  0  0  0  0  0  0  0  0  0  0  0
   -7.2955   -9.1845  -19.8256 H   0  0  0  0  0  0  0  0  0  0  0  0
  1  2  1  0  0  0  0
  1  9  2  0  0  0  0
  1 10  1  0  0  0  0
  2  3  1  0  0  0  0
  2 11  1  0  0  0  0
  2 12  1  0  0  0  0
  3  4  1  0  0  0  0
  3 13  1  0  0  0  0
  3 14  1  0  0  0  0
  4  5  1  0  0  0  0
  4 15  1  0  0  0  0
  4 16  1  0  0  0  0
  5  6  1  0  0  0  0
  5 17  1  0  0  0  0
  5 18  1  0  0  0  0
  6  7  1  0  0  0  0
  6 19  1  0  0  0  0
  6 20  1  0  0  0  0
  7  8  1  0  0  0  0
  7 21  1  0  0  0  0
  7 22  1  0  0  0  0
  8 23  1  0  0  0  0
  8 24  1  0  0  0  0
  8 25  1  0  0  0  0
M  END
$$$$
