OEV
 OpenBabel04091911213D

 50 50  0  0  1  0  0  0  0  0999 V2000
   31.0079   66.5078    9.8429 C   0  0  1  0  0  0  0  0  0  0  0  0
   30.6452   65.6608   10.9993 N   0  3  0  0  0  0  0  0  0  0  0  0
   32.0765   65.7496    9.0266 C   0  0  2  0  0  0  0  0  0  0  0  0
   33.1711   65.4088    9.8690 O   0  0  0  0  0  0  0  0  0  0  0  0
   32.4357   66.6564    7.8517 C   0  0  1  0  0  0  0  0  0  0  0  0
   33.5570   66.1825    7.1232 O   0  0  0  0  0  0  0  0  0  0  0  0
   31.2156   66.7576    6.9212 C   0  0  2  0  0  0  0  0  0  0  0  0
   31.4827   67.7654    5.9669 O   0  0  0  0  0  0  0  0  0  0  0  0
   29.9114   66.9950    7.6730 C   0  0  0  0  0  0  0  0  0  0  0  0
   28.7131   67.3333    6.8225 C   0  0  0  0  0  0  0  0  0  0  0  0
   27.5046   67.1048    7.5314 O   0  0  0  0  0  0  0  0  0  0  0  0
   29.8019   66.8715    9.0368 C   0  0  0  0  0  0  0  0  0  0  0  0
   29.5040   66.1441   11.7977 C   0  0  0  0  0  0  0  0  0  0  0  0
   29.7464   67.5768   12.2340 C   0  0  0  0  0  0  0  0  0  0  0  0
   28.9464   67.9265   13.4716 C   0  0  0  0  0  0  0  0  0  0  0  0
   27.4474   68.1672   13.2680 C   0  0  0  0  0  0  0  0  0  0  0  0
   26.9664   68.0155   11.8347 C   0  0  0  0  0  0  0  0  0  0  0  0
   25.5499   68.5048   11.5735 C   0  0  0  0  0  0  0  0  0  0  0  0
   24.5680   67.3444   11.5429 C   0  0  0  0  0  0  0  0  0  0  0  0
   23.8721   67.1741   10.2023 C   0  0  0  0  0  0  0  0  0  0  0  0
   31.4389   67.4247   10.2695 H   0  0  0  0  0  0  0  0  0  0  0  0
   30.4497   64.7096   10.6479 H   0  0  0  0  0  0  0  0  0  0  0  0
   31.6650   64.8064    8.6528 H   0  0  0  0  0  0  0  0  0  0  0  0
   33.6036   66.2308   10.1761 H   0  0  0  0  0  0  0  0  0  0  0  0
   32.7173   67.6338    8.2656 H   0  0  0  0  0  0  0  0  0  0  0  0
   33.7180   66.8228    6.4040 H   0  0  0  0  0  0  0  0  0  0  0  0
   31.1322   65.8106    6.3901 H   0  0  0  0  0  0  0  0  0  0  0  0
   32.2272   67.4740    5.4099 H   0  0  0  0  0  0  0  0  0  0  0  0
   28.7056   66.7127    5.9222 H   0  0  0  0  0  0  0  0  0  0  0  0
   28.7342   68.3909    6.5447 H   0  0  0  0  0  0  0  0  0  0  0  0
   27.4539   66.1556    7.7359 H   0  0  0  0  0  0  0  0  0  0  0  0
   28.8568   67.0053    9.4681 H   0  0  0  0  0  0  0  0  0  0  0  0
   29.3944   65.4740   12.6389 H   0  0  0  0  0  0  0  0  0  0  0  0
   28.6339   66.0498   11.1509 H   0  0  0  0  0  0  0  0  0  0  0  0
   29.4885   68.2506   11.4109 H   0  0  0  0  0  0  0  0  0  0  0  0
   30.8108   67.7223   12.4300 H   0  0  0  0  0  0  0  0  0  0  0  0
   29.3771   68.8368   13.9040 H   0  0  0  0  0  0  0  0  0  0  0  0
   29.0684   67.1237   14.2102 H   0  0  0  0  0  0  0  0  0  0  0  0
   27.2225   69.1832   13.6084 H   0  0  0  0  0  0  0  0  0  0  0  0
   26.9003   67.4584   13.9008 H   0  0  0  0  0  0  0  0  0  0  0  0
   27.0316   66.9604   11.5782 H   0  0  0  0  0  0  0  0  0  0  0  0
   27.6303   68.5842   11.1856 H   0  0  0  0  0  0  0  0  0  0  0  0
   25.5334   69.0295   10.6110 H   0  0  0  0  0  0  0  0  0  0  0  0
   25.2462   69.2103   12.3535 H   0  0  0  0  0  0  0  0  0  0  0  0
   23.8049   67.5118   12.3065 H   0  0  0  0  0  0  0  0  0  0  0  0
   25.0876   66.4098   11.7718 H   0  0  0  0  0  0  0  0  0  0  0  0
   23.1821   66.3226   10.2517 H   0  0  0  0  0  0  0  0  0  0  0  0
   24.6017   66.9822    9.4088 H   0  0  0  0  0  0  0  0  0  0  0  0
   23.2986   68.0703    9.9472 H   0  0  0  0  0  0  0  0  0  0  0  0
   31.4786   65.5628   11.6005 H   0  0  0  0  0  0  0  0  0  0  0  0
  1  2  1  0  0  0  0
  1  3  1  0  0  0  0
  1 12  1  0  0  0  0
  1 21  1  1  0  0  0
  2 13  1  0  0  0  0
  2 22  1  0  0  0  0
  2 50  1  0  0  0  0
  3  4  1  0  0  0  0
  3  5  1  0  0  0  0
  3 23  1  6  0  0  0
  4 24  1  0  0  0  0
  5  6  1  0  0  0  0
  5  7  1  0  0  0  0
  5 25  1  1  0  0  0
  6 26  1  0  0  0  0
  7  8  1  0  0  0  0
  7  9  1  0  0  0  0
  7 27  1  6  0  0  0
  8 28  1  0  0  0  0
  9 10  1  0  0  0  0
  9 12  2  0  0  0  0
 10 11  1  0  0  0  0
 10 29  1  0  0  0  0
 10 30  1  0  0  0  0
 11 31  1  0  0  0  0
 12 32  1  0  0  0  0
 13 14  1  0  0  0  0
 13 33  1  0  0  0  0
 13 34  1  0  0  0  0
 14 15  1  0  0  0  0
 14 35  1  0  0  0  0
 14 36  1  0  0  0  0
 15 16  1  0  0  0  0
 15 37  1  0  0  0  0
 15 38  1  0  0  0  0
 16 17  1  0  0  0  0
 16 39  1  0  0  0  0
 16 40  1  0  0  0  0
 17 18  1  0  0  0  0
 17 41  1  0  0  0  0
 17 42  1  0  0  0  0
 18 19  1  0  0  0  0
 18 43  1  0  0  0  0
 18 44  1  0  0  0  0
 19 20  1  0  0  0  0
 19 45  1  0  0  0  0
 19 46  1  0  0  0  0
 20 47  1  0  0  0  0
 20 48  1  0  0  0  0
 20 49  1  0  0  0  0
M  CHG  1   2   1
M  END
$$$$
