OLA
 OpenBabel04091914403D

 30 29  0  0  0  0  0  0  0  0999 V2000
  -26.7923    9.6685  -22.4114 C   0  0  0  0  0  0  0  0  0  0  0  0
  -27.8872    9.0334  -22.3590 O   0  0  0  0  0  0  0  0  0  0  0  0
  -26.4308   10.5530  -23.2420 O   0  0  0  0  0  0  0  0  0  0  0  0
  -25.7364    9.3483  -21.3437 C   0  0  0  0  0  0  0  0  0  0  0  0
  -26.1253    8.3795  -20.2585 C   0  0  0  0  0  0  0  0  0  0  0  0
  -25.3613    8.2056  -19.1685 C   0  0  0  0  0  0  0  0  0  0  0  0
  -25.7124    7.3462  -17.9937 C   0  0  0  0  0  0  0  0  0  0  0  0
  -25.9809    5.8790  -18.3392 C   0  0  0  0  0  0  0  0  0  0  0  0
  -25.5650    4.9016  -17.2357 C   0  0  0  0  0  0  0  0  0  0  0  0
  -25.9900    5.2431  -15.8039 C   0  0  0  0  0  0  0  0  0  0  0  0
  -27.4656    5.4287  -15.6018 C   0  0  0  0  0  0  0  0  0  0  0  0
  -27.9688    6.4071  -14.8325 C   0  0  0  0  0  0  0  0  0  0  0  0
  -29.4265    6.5872  -14.5718 C   0  0  0  0  0  0  0  0  0  0  0  0
  -25.4664   10.3012  -20.8719 H   0  0  0  0  0  0  0  0  0  0  0  0
  -24.8518    8.9632  -21.8643 H   0  0  0  0  0  0  0  0  0  0  0  0
  -27.0714    7.8524  -20.3687 H   0  0  0  0  0  0  0  0  0  0  0  0
  -24.4267    8.7586  -19.0965 H   0  0  0  0  0  0  0  0  0  0  0  0
  -26.5886    7.7761  -17.4930 H   0  0  0  0  0  0  0  0  0  0  0  0
  -24.8833    7.4235  -17.2808 H   0  0  0  0  0  0  0  0  0  0  0  0
  -25.4465    5.5935  -19.2555 H   0  0  0  0  0  0  0  0  0  0  0  0
  -27.0503    5.7520  -18.5576 H   0  0  0  0  0  0  0  0  0  0  0  0
  -24.4695    4.8265  -17.2424 H   0  0  0  0  0  0  0  0  0  0  0  0
  -25.9368    3.9032  -17.4980 H   0  0  0  0  0  0  0  0  0  0  0  0
  -25.4453    6.1320  -15.4646 H   0  0  0  0  0  0  0  0  0  0  0  0
  -25.6657    4.4224  -15.1528 H   0  0  0  0  0  0  0  0  0  0  0  0
  -28.1334    4.7183  -16.0841 H   0  0  0  0  0  0  0  0  0  0  0  0
  -27.2969    7.1111  -14.3463 H   0  0  0  0  0  0  0  0  0  0  0  0
  -29.5779    7.4363  -13.8975 H   0  0  0  0  0  0  0  0  0  0  0  0
  -29.8430    5.6993  -14.0829 H   0  0  0  0  0  0  0  0  0  0  0  0
  -29.9708    6.7866  -15.4966 H   0  0  0  0  0  0  0  0  0  0  0  0
  1  2  2  0  0  0  0
  1  3  1  0  0  0  0
  1  4  1  0  0  0  0
  4  5  1  0  0  0  0
  4 14  1  0  0  0  0
  4 15  1  0  0  0  0
  5  6  2  0  0  0  0
  5 16  1  0  0  0  0
  6  7  1  0  0  0  0
  6 17  1  0  0  0  0
  7  8  1  0  0  0  0
  7 18  1  0  0  0  0
  7 19  1  0  0  0  0
  8  9  1  0  0  0  0
  8 20  1  0  0  0  0
  8 21  1  0  0  0  0
  9 10  1  0  0  0  0
  9 22  1  0  0  0  0
  9 23  1  0  0  0  0
 10 11  1  0  0  0  0
 10 24  1  0  0  0  0
 10 25  1  0  0  0  0
 11 12  2  0  0  0  0
 11 26  1  0  0  0  0
 12 13  1  0  0  0  0
 12 27  1  0  0  0  0
 13 28  1  0  0  0  0
 13 29  1  0  0  0  0
 13 30  1  0  0  0  0
M  END
$$$$
