OM3
 OpenBabel04091916493D

 62 65  0  0  1  0  0  0  0  0999 V2000
  -10.7636   47.9634    6.0157 C   0  0  0  0  0  0  0  0  0  0  0  0
  -11.6329   48.8595    5.4043 C   0  0  0  0  0  0  0  0  0  0  0  0
   -9.7942   47.3095    5.2580 C   0  0  0  0  0  0  0  0  0  0  0  0
  -11.5354   49.1021    4.0347 C   0  0  0  0  0  0  0  0  0  0  0  0
  -11.5499   45.5442   -1.5214 C   0  0  0  0  0  0  0  0  0  0  0  0
  -12.3373   44.8942   -2.4671 C   0  0  0  0  0  0  0  0  0  0  0  0
   -9.6817   47.5535    3.8783 C   0  0  0  0  0  0  0  0  0  0  0  0
  -13.4167   45.5920    0.0831 C   0  0  0  0  0  0  0  0  0  0  0  0
  -10.5541   48.4659    3.2498 C   0  0  0  0  0  0  0  0  0  0  0  0
  -12.0675   45.8909   -0.2471 C   0  0  0  0  0  0  0  0  0  0  0  0
  -13.6404   44.6064   -2.1197 C   0  0  0  0  0  0  0  0  0  0  0  0
  -14.1684   44.9399   -0.8873 C   0  0  0  0  0  0  0  0  0  0  0  0
   -8.6084   46.8540    3.1173 C   0  0  0  0  0  0  0  0  0  0  0  0
  -14.0043   45.9729    1.4189 C   0  0  0  0  0  0  0  0  0  0  0  0
   -8.7169   41.7382   -0.2220 C   0  0  0  0  0  0  0  0  0  0  0  0
   -9.7056   42.7889    0.2570 C   0  0  0  0  0  0  0  0  0  0  0  0
   -7.8461   41.2687    0.9434 C   0  0  0  0  0  0  0  0  0  0  0  0
   -8.9473   43.9639    0.8643 C   0  0  0  0  0  0  0  0  0  0  0  0
   -7.1058   42.4440    1.5923 C   0  0  0  0  0  0  0  0  0  0  0  0
  -15.6996   43.9614   -2.0832 C   0  0  0  0  0  0  0  0  0  0  0  0
   -8.1064   43.5075    2.0583 C   0  0  0  0  0  0  0  0  0  0  0  0
  -11.7062   48.8037   -0.3766 C   0  0  0  0  0  0  0  0  0  0  0  0
  -10.5082   48.8011    1.7830 C   0  0  0  0  0  0  0  0  0  0  0  0
  -11.1604   46.6334    0.7167 C   0  0  0  0  0  0  0  0  0  0  0  0
   -7.4331   44.7000    2.7435 C   0  0  0  0  0  0  0  0  0  0  0  0
   -8.4218   45.5299    3.4144 N   0  0  0  0  0  0  0  0  0  0  0  0
  -11.4874   48.0838    0.9057 N   0  3  2  0  0  0  0  0  0  0  0  0
  -14.8524   45.2209    1.9615 O   0  0  0  0  0  0  0  0  0  0  0  0
   -7.9838   47.4485    2.2487 O   0  0  0  0  0  0  0  0  0  0  0  0
  -13.5219   47.0526    1.9153 O   0  0  0  0  0  0  0  0  0  0  0  0
  -14.5412   44.0062   -2.9417 O   0  0  0  0  0  0  0  0  0  0  0  0
  -15.4893   44.6069   -0.8185 O   0  0  0  0  0  0  0  0  0  0  0  0
  -10.8453   47.7737    7.0841 H   0  0  0  0  0  0  0  0  0  0  0  0
  -12.3959   49.3671    5.9906 H   0  0  0  0  0  0  0  0  0  0  0  0
   -9.1136   46.6267    5.7611 H   0  0  0  0  0  0  0  0  0  0  0  0
  -12.2440   49.7948    3.5806 H   0  0  0  0  0  0  0  0  0  0  0  0
  -10.5180   45.7795   -1.7792 H   0  0  0  0  0  0  0  0  0  0  0  0
  -11.9518   44.6330   -3.4452 H   0  0  0  0  0  0  0  0  0  0  0  0
   -8.0824   42.1651   -1.0087 H   0  0  0  0  0  0  0  0  0  0  0  0
   -9.2560   40.8927   -0.6619 H   0  0  0  0  0  0  0  0  0  0  0  0
  -10.3730   42.3601    1.0154 H   0  0  0  0  0  0  0  0  0  0  0  0
  -10.3363   43.1241   -0.5701 H   0  0  0  0  0  0  0  0  0  0  0  0
   -7.1331   40.5151    0.5990 H   0  0  0  0  0  0  0  0  0  0  0  0
   -8.4873   40.7902    1.6955 H   0  0  0  0  0  0  0  0  0  0  0  0
   -9.6659   44.6987    1.2007 H   0  0  0  0  0  0  0  0  0  0  0  0
   -8.3160   44.4363    0.1005 H   0  0  0  0  0  0  0  0  0  0  0  0
   -6.4037   42.8778    0.8693 H   0  0  0  0  0  0  0  0  0  0  0  0
   -6.5154   42.0818    2.4413 H   0  0  0  0  0  0  0  0  0  0  0  0
  -15.9650   42.9119   -1.9092 H   0  0  0  0  0  0  0  0  0  0  0  0
  -16.5341   44.4538   -2.5960 H   0  0  0  0  0  0  0  0  0  0  0  0
   -8.7808   43.0397    2.7897 H   0  0  0  0  0  0  0  0  0  0  0  0
  -11.9379   49.8485   -0.1586 H   0  0  0  0  0  0  0  0  0  0  0  0
  -12.5472   48.3604   -0.9129 H   0  0  0  0  0  0  0  0  0  0  0  0
  -10.7858   48.7358   -0.9676 H   0  0  0  0  0  0  0  0  0  0  0  0
   -9.5258   48.6977    1.3213 H   0  0  0  0  0  0  0  0  0  0  0  0
  -10.7333   49.8726    1.6918 H   0  0  0  0  0  0  0  0  0  0  0  0
  -10.1279   46.6061    0.3493 H   0  0  0  0  0  0  0  0  0  0  0  0
  -11.1821   46.1473    1.6983 H   0  0  0  0  0  0  0  0  0  0  0  0
   -6.8600   45.2958    2.0242 H   0  0  0  0  0  0  0  0  0  0  0  0
   -6.7437   44.3543    3.5205 H   0  0  0  0  0  0  0  0  0  0  0  0
   -9.0502   45.0731    4.0700 H   0  0  0  0  0  0  0  0  0  0  0  0
  -12.4092   47.9953    1.4224 H   0  0  0  0  0  0  0  0  0  0  0  0
  1  2  2  0  0  0  0
  1  3  1  0  0  0  0
  1 33  1  0  0  0  0
  2  4  1  0  0  0  0
  2 34  1  0  0  0  0
  3  7  2  0  0  0  0
  3 35  1  0  0  0  0
  4  9  2  0  0  0  0
  4 36  1  0  0  0  0
  5  6  2  0  0  0  0
  5 10  1  0  0  0  0
  5 37  1  0  0  0  0
  6 11  1  0  0  0  0
  6 38  1  0  0  0  0
  7  9  1  0  0  0  0
  7 13  1  0  0  0  0
  8 10  2  0  0  0  0
  8 12  1  0  0  0  0
  8 14  1  0  0  0  0
  9 23  1  0  0  0  0
 10 24  1  0  0  0  0
 11 12  2  0  0  0  0
 11 31  1  0  0  0  0
 12 32  1  0  0  0  0
 13 26  1  0  0  0  0
 13 29  2  0  0  0  0
 14 28  2  0  0  0  0
 14 30  1  0  0  0  0
 15 16  1  0  0  0  0
 15 17  1  0  0  0  0
 15 39  1  0  0  0  0
 15 40  1  0  0  0  0
 16 18  1  0  0  0  0
 16 41  1  0  0  0  0
 16 42  1  0  0  0  0
 17 19  1  0  0  0  0
 17 43  1  0  0  0  0
 17 44  1  0  0  0  0
 18 21  1  0  0  0  0
 18 45  1  0  0  0  0
 18 46  1  0  0  0  0
 19 21  1  0  0  0  0
 19 47  1  0  0  0  0
 19 48  1  0  0  0  0
 20 31  1  0  0  0  0
 20 32  1  0  0  0  0
 20 49  1  0  0  0  0
 20 50  1  0  0  0  0
 21 25  1  0  0  0  0
 21 51  1  0  0  0  0
 22 27  1  0  0  0  0
 22 52  1  0  0  0  0
 22 53  1  0  0  0  0
 22 54  1  0  0  0  0
 23 27  1  0  0  0  0
 23 55  1  0  0  0  0
 23 56  1  0  0  0  0
 24 27  1  0  0  0  0
 24 57  1  0  0  0  0
 24 58  1  0  0  0  0
 25 26  1  0  0  0  0
 25 59  1  0  0  0  0
 25 60  1  0  0  0  0
 26 61  1  0  0  0  0
 27 62  1  1  0  0  0
M  CHG  1  27   1
M  END
$$$$
