OPE
 OpenBabel04091913293D

 15 14  0  0  0  0  0  0  0  0999 V2000
   17.6768   14.2284   56.2917 C   0  0  0  0  0  0  0  0  0  0  0  0
   17.9903   13.6124   54.9320 C   0  0  0  0  0  0  0  0  0  0  0  0
   15.4694   17.2149   56.7873 O   0  0  0  0  0  0  0  0  0  0  0  0
   18.0294   17.2690   57.1904 O   0  0  0  0  0  0  0  0  0  0  0  0
   16.5610   15.5986   58.4796 O   0  0  0  0  0  0  0  0  0  0  0  0
   16.9358   15.3998   56.0379 O   0  0  0  0  0  0  0  0  0  0  0  0
   18.8108   14.5815   54.1494 N   0  3  0  0  0  0  0  0  0  0  0  0
   16.7272   16.4990   57.2686 P   0  0  0  0  0  0  0  0  0  0  0  0
   18.6166   14.4390   56.8132 H   0  0  0  0  0  0  0  0  0  0  0  0
   17.0877   13.5006   56.8602 H   0  0  0  0  0  0  0  0  0  0  0  0
   17.0853   13.4293   54.3402 H   0  0  0  0  0  0  0  0  0  0  0  0
   18.5775   12.6877   54.9988 H   0  0  0  0  0  0  0  0  0  0  0  0
   19.0387   14.2568   53.2075 H   0  0  0  0  0  0  0  0  0  0  0  0
   18.2748   15.4740   54.1087 H   0  0  0  0  0  0  0  0  0  0  0  0
   19.6584   14.8271   54.6742 H   0  0  0  0  0  0  0  0  0  0  0  0
  1  2  1  0  0  0  0
  1  6  1  0  0  0  0
  1  9  1  0  0  0  0
  1 10  1  0  0  0  0
  2  7  1  0  0  0  0
  2 11  1  0  0  0  0
  2 12  1  0  0  0  0
  3  8  2  0  0  0  0
  4  8  1  0  0  0  0
  5  8  1  0  0  0  0
  6  8  1  0  0  0  0
  7 13  1  0  0  0  0
  7 14  1  0  0  0  0
  7 15  1  0  0  0  0
M  CHG  1   7   1
M  END
$$$$
