OY0
 OpenBabel04091914213D

 45 45  0  0  1  0  0  0  0  0999 V2000
   -0.7457    9.2181   14.9068 C   0  0  0  0  0  0  0  0  0  0  0  0
   -0.9310    6.3730   10.5714 C   0  0  0  0  0  0  0  0  0  0  0  0
   -2.4745    8.1285    9.7678 C   0  0  0  0  0  0  0  0  0  0  0  0
   -3.3529    5.8641   10.2645 C   0  0  0  0  0  0  0  0  0  0  0  0
   -5.2697   -0.3131   16.1007 N   0  0  0  0  0  0  0  0  0  0  0  0
   -4.7548    6.7394   13.0131 O   0  0  0  0  0  0  0  0  0  0  0  0
   -7.2830    1.1330   16.5466 O   0  0  0  0  0  0  0  0  0  0  0  0
   -5.3024    1.1677   18.1175 O   0  0  0  0  0  0  0  0  0  0  0  0
   -3.0479    3.2522   14.8397 C   0  0  0  0  0  0  0  0  0  0  0  0
   -5.1269    4.4159   14.5462 C   0  0  0  0  0  0  0  0  0  0  0  0
   -3.7051    2.2675   15.5910 C   0  0  0  0  0  0  0  0  0  0  0  0
   -5.7981    3.4176   15.2798 C   0  0  0  0  0  0  0  0  0  0  0  0
   -1.6618    8.1270   14.4040 C   0  0  0  0  0  0  0  0  0  0  0  0
   -1.3793    7.7787   12.9557 C   0  0  0  0  0  0  0  0  0  0  0  0
   -3.0060    5.3057   13.5740 N   0  0  0  0  0  0  0  0  0  0  0  0
   -3.5521    6.4491   12.9831 C   0  0  0  0  0  0  0  0  0  0  0  0
   -3.7445    4.3457   14.3161 C   0  0  0  0  0  0  0  0  0  0  0  0
   -5.0796    2.3534   15.8085 C   0  0  0  0  0  0  0  0  0  0  0  0
   -2.6412    7.3886   12.1860 C   0  0  2  0  0  0  0  0  0  0  0  0
   -2.3515    6.9270   10.7254 C   0  0  0  0  0  0  0  0  0  0  0  0
   -5.8647    1.0947   16.8118 S   0  0  0  0  0  0  0  0  0  0  0  0
   -0.9664    9.4081   15.9595 H   0  0  0  0  0  0  0  0  0  0  0  0
   -0.9099   10.1426   14.3436 H   0  0  0  0  0  0  0  0  0  0  0  0
    0.3039    8.9280   14.8099 H   0  0  0  0  0  0  0  0  0  0  0  0
   -0.7387    6.0456    9.5476 H   0  0  0  0  0  0  0  0  0  0  0  0
   -0.7780    5.5246   11.2461 H   0  0  0  0  0  0  0  0  0  0  0  0
   -0.1825    7.1443   10.7972 H   0  0  0  0  0  0  0  0  0  0  0  0
   -3.4805    8.5593    9.8025 H   0  0  0  0  0  0  0  0  0  0  0  0
   -2.2805    7.8177    8.7343 H   0  0  0  0  0  0  0  0  0  0  0  0
   -1.7556    8.9142   10.0238 H   0  0  0  0  0  0  0  0  0  0  0  0
   -3.2977    4.9768   10.9017 H   0  0  0  0  0  0  0  0  0  0  0  0
   -3.1397    5.5408    9.2440 H   0  0  0  0  0  0  0  0  0  0  0  0
   -4.3743    6.2567   10.2965 H   0  0  0  0  0  0  0  0  0  0  0  0
   -5.6863   -0.6442   15.2382 H   0  0  0  0  0  0  0  0  0  0  0  0
   -4.7969   -0.9636   16.7264 H   0  0  0  0  0  0  0  0  0  0  0  0
   -1.9770    3.1441   14.6876 H   0  0  0  0  0  0  0  0  0  0  0  0
   -5.7259    5.2445   14.1904 H   0  0  0  0  0  0  0  0  0  0  0  0
   -3.1451    1.4393   16.0176 H   0  0  0  0  0  0  0  0  0  0  0  0
   -6.8760    3.5130   15.4324 H   0  0  0  0  0  0  0  0  0  0  0  0
   -2.6994    8.4465   14.5368 H   0  0  0  0  0  0  0  0  0  0  0  0
   -1.5041    7.2258   15.0087 H   0  0  0  0  0  0  0  0  0  0  0  0
   -0.6742    6.9436   12.9640 H   0  0  0  0  0  0  0  0  0  0  0  0
   -0.8952    8.6182   12.4328 H   0  0  0  0  0  0  0  0  0  0  0  0
   -2.0008    5.1667   13.5014 H   0  0  0  0  0  0  0  0  0  0  0  0
   -3.2355    8.3120   12.1103 H   0  0  0  0  0  0  0  0  0  0  0  0
  1 13  1  0  0  0  0
  1 22  1  0  0  0  0
  1 23  1  0  0  0  0
  1 24  1  0  0  0  0
  2 20  1  0  0  0  0
  2 25  1  0  0  0  0
  2 26  1  0  0  0  0
  2 27  1  0  0  0  0
  3 20  1  0  0  0  0
  3 28  1  0  0  0  0
  3 29  1  0  0  0  0
  3 30  1  0  0  0  0
  4 20  1  0  0  0  0
  4 31  1  0  0  0  0
  4 32  1  0  0  0  0
  4 33  1  0  0  0  0
  5 21  1  0  0  0  0
  5 34  1  0  0  0  0
  5 35  1  0  0  0  0
  6 16  2  0  0  0  0
  7 21  2  0  0  0  0
  8 21  2  0  0  0  0
  9 11  2  0  0  0  0
  9 17  1  0  0  0  0
  9 36  1  0  0  0  0
 10 12  1  0  0  0  0
 10 17  2  0  0  0  0
 10 37  1  0  0  0  0
 11 18  1  0  0  0  0
 11 38  1  0  0  0  0
 12 18  2  0  0  0  0
 12 39  1  0  0  0  0
 13 14  1  0  0  0  0
 13 40  1  0  0  0  0
 13 41  1  0  0  0  0
 14 19  1  0  0  0  0
 14 42  1  0  0  0  0
 14 43  1  0  0  0  0
 15 16  1  0  0  0  0
 15 17  1  0  0  0  0
 15 44  1  0  0  0  0
 16 19  1  0  0  0  0
 18 21  1  0  0  0  0
 19 20  1  0  0  0  0
 19 45  1  6  0  0  0
M  END
$$$$
