OYQ
 OpenBabel04091914213D

 39 39  0  0  1  0  0  0  0  0999 V2000
   -0.2922   10.2622   14.9200 C   0  0  0  0  0  0  0  0  0  0  0  0
    0.3555    8.0956   13.1564 C   0  0  0  0  0  0  0  0  0  0  0  0
   -5.3577   -0.3815   16.0497 N   0  0  0  0  0  0  0  0  0  0  0  0
   -4.7744    6.7665   13.0124 O   0  0  0  0  0  0  0  0  0  0  0  0
   -5.3046    1.1736   18.0608 O   0  0  0  0  0  0  0  0  0  0  0  0
   -7.2996    1.1270   16.4909 O   0  0  0  0  0  0  0  0  0  0  0  0
   -5.1775    4.3881   14.5205 C   0  0  0  0  0  0  0  0  0  0  0  0
   -3.0864    3.2255   14.7654 C   0  0  0  0  0  0  0  0  0  0  0  0
   -5.8336    3.3777   15.2361 C   0  0  0  0  0  0  0  0  0  0  0  0
   -3.7224    2.2218   15.4990 C   0  0  0  0  0  0  0  0  0  0  0  0
   -0.9537    8.9181   15.1430 C   0  0  0  0  0  0  0  0  0  0  0  0
   -2.6176    7.2815   12.1915 C   0  0  0  0  0  0  0  0  0  0  0  0
   -2.0863    8.4425   12.9993 C   0  0  0  0  0  0  0  0  0  0  0  0
   -3.0657    5.2838   13.5541 N   0  0  0  0  0  0  0  0  0  0  0  0
   -3.5862    6.4196   12.9593 C   0  0  0  0  0  0  0  0  0  0  0  0
   -3.8024    4.3216   14.2771 C   0  0  0  0  0  0  0  0  0  0  0  0
   -5.0982    2.2989   15.7263 C   0  0  0  0  0  0  0  0  0  0  0  0
   -0.9556    8.0118   13.9199 C   0  0  1  0  0  0  0  0  0  0  0  0
   -5.8860    1.0429   16.7145 S   0  0  0  0  0  0  0  0  0  0  0  0
   -0.3421   10.8419   15.8415 H   0  0  0  0  0  0  0  0  0  0  0  0
   -0.7881   10.8185   14.1171 H   0  0  0  0  0  0  0  0  0  0  0  0
    0.7657   10.1389   14.6639 H   0  0  0  0  0  0  0  0  0  0  0  0
    1.1863    7.8099   13.8053 H   0  0  0  0  0  0  0  0  0  0  0  0
    0.5203    9.1204   12.7989 H   0  0  0  0  0  0  0  0  0  0  0  0
    0.3323    7.4522   12.2753 H   0  0  0  0  0  0  0  0  0  0  0  0
   -4.3870   -0.6864   16.1384 H   0  0  0  0  0  0  0  0  0  0  0  0
   -6.0355   -1.0281   15.6491 H   0  0  0  0  0  0  0  0  0  0  0  0
   -5.7788    5.2208   14.1652 H   0  0  0  0  0  0  0  0  0  0  0  0
   -2.0211    3.1421   14.5779 H   0  0  0  0  0  0  0  0  0  0  0  0
   -6.9043    3.4507   15.4200 H   0  0  0  0  0  0  0  0  0  0  0  0
   -3.1349    1.4017   15.8985 H   0  0  0  0  0  0  0  0  0  0  0  0
   -1.9895    9.0938   15.4556 H   0  0  0  0  0  0  0  0  0  0  0  0
   -0.4366    8.3968   15.9508 H   0  0  0  0  0  0  0  0  0  0  0  0
   -1.8024    6.6725   11.8006 H   0  0  0  0  0  0  0  0  0  0  0  0
   -3.1701    7.7103   11.3473 H   0  0  0  0  0  0  0  0  0  0  0  0
   -2.8952    8.9034   13.5758 H   0  0  0  0  0  0  0  0  0  0  0  0
   -1.7000    9.2042   12.3054 H   0  0  0  0  0  0  0  0  0  0  0  0
   -2.0723    5.1135   13.4557 H   0  0  0  0  0  0  0  0  0  0  0  0
   -1.1088    6.9810   14.2604 H   0  0  0  0  0  0  0  0  0  0  0  0
  1 11  1  0  0  0  0
  1 20  1  0  0  0  0
  1 21  1  0  0  0  0
  1 22  1  0  0  0  0
  2 18  1  0  0  0  0
  2 23  1  0  0  0  0
  2 24  1  0  0  0  0
  2 25  1  0  0  0  0
  3 19  1  0  0  0  0
  3 26  1  0  0  0  0
  3 27  1  0  0  0  0
  4 15  2  0  0  0  0
  5 19  2  0  0  0  0
  6 19  2  0  0  0  0
  7  9  2  0  0  0  0
  7 16  1  0  0  0  0
  7 28  1  0  0  0  0
  8 10  1  0  0  0  0
  8 16  2  0  0  0  0
  8 29  1  0  0  0  0
  9 17  1  0  0  0  0
  9 30  1  0  0  0  0
 10 17  2  0  0  0  0
 10 31  1  0  0  0  0
 11 18  1  0  0  0  0
 11 32  1  0  0  0  0
 11 33  1  0  0  0  0
 12 13  1  0  0  0  0
 12 15  1  0  0  0  0
 12 34  1  0  0  0  0
 12 35  1  0  0  0  0
 13 18  1  0  0  0  0
 13 36  1  0  0  0  0
 13 37  1  0  0  0  0
 14 15  1  0  0  0  0
 14 16  1  0  0  0  0
 14 38  1  0  0  0  0
 17 19  1  0  0  0  0
 18 39  1  1  0  0  0
M  END
$$$$
