OZS
 OpenBabel04091914233D

 49 51  0  0  1  0  0  0  0  0999 V2000
  -19.9791   30.8785   13.2023 C   0  0  1  0  0  0  0  0  0  0  0  0
  -18.5967   31.4774   13.4278 C   0  0  2  0  0  0  0  0  0  0  0  0
  -17.7431   30.2095   13.4363 C   0  0  1  0  0  0  0  0  0  0  0  0
  -18.3066   29.3465   12.4328 O   0  0  0  0  0  0  0  0  0  0  0  0
  -19.6711   29.7598   12.1933 C   0  0  2  0  0  0  0  0  0  0  0  0
  -19.7912   30.2282   10.7713 C   0  0  0  0  0  0  0  0  0  0  0  0
  -16.3265   30.3618   13.1799 N   0  3  0  0  0  0  0  0  0  0  0  0
  -20.4889   30.3695   14.4478 O   0  0  0  0  0  0  0  0  0  0  0  0
  -18.4959   32.2448   14.6197 O   0  0  0  0  0  0  0  0  0  0  0  0
  -20.6125   29.6394    9.8865 C   0  0  0  0  0  0  0  0  0  0  0  0
  -15.7267   31.2695   12.3574 C   0  0  0  0  0  0  0  0  0  0  0  0
  -15.3359   29.5758   13.7127 C   0  0  0  0  0  0  0  0  0  0  0  0
  -14.1529   30.0210   13.1448 C   0  0  0  0  0  0  0  0  0  0  0  0
  -14.4241   31.1073   12.3248 N   0  0  0  0  0  0  0  0  0  0  0  0
  -12.7696   29.4723   13.3337 C   0  0  0  0  0  0  0  0  0  0  0  0
  -20.8145   30.1321    8.4902 C   0  0  0  0  0  0  0  0  0  0  0  0
  -21.8017   29.3136    7.8538 N   0  0  0  0  0  0  0  0  0  0  0  0
  -22.5684   29.7793    6.8182 C   0  0  0  0  0  0  0  0  0  0  0  0
  -23.6024   28.8371    6.2623 C   0  0  0  0  0  0  0  0  0  0  0  0
  -23.6299   27.4286    6.5098 C   0  0  0  0  0  0  0  0  0  0  0  0
  -24.7240   26.7578    5.9046 C   0  0  0  0  0  0  0  0  0  0  0  0
  -25.7029   27.3632    5.1295 C   0  0  0  0  0  0  0  0  0  0  0  0
  -25.6370   28.7201    4.9222 C   0  0  0  0  0  0  0  0  0  0  0  0
  -24.5954   29.4680    5.4786 C   0  0  0  0  0  0  0  0  0  0  0  0
  -26.6582   29.3838    4.1212 N   0  0  0  0  0  0  0  0  0  0  0  0
  -22.7776   26.7715    7.2120 O   0  0  0  0  0  0  0  0  0  0  0  0
  -24.8148   25.3989    6.1148 O   0  0  0  0  0  0  0  0  0  0  0  0
  -22.4653   30.9277    6.3861 O   0  0  0  0  0  0  0  0  0  0  0  0
  -12.0030   29.5518   12.2156 F   0  0  0  0  0  0  0  0  0  0  0  0
  -12.0968   30.1164   14.3247 F   0  0  0  0  0  0  0  0  0  0  0  0
  -12.7972   28.1557   13.6885 F   0  0  0  0  0  0  0  0  0  0  0  0
  -27.4915   28.6786    3.5201 O   0  0  0  0  0  0  0  0  0  0  0  0
  -26.6494   30.6261    4.0774 O   0  0  0  0  0  0  0  0  0  0  0  0
  -20.7068   31.6099   12.8352 H   0  0  0  0  0  0  0  0  0  0  0  0
  -18.3475   32.1215   12.5791 H   0  0  0  0  0  0  0  0  0  0  0  0
  -17.8268   29.7020   14.4075 H   0  0  0  0  0  0  0  0  0  0  0  0
  -20.3056   28.8837   12.3661 H   0  0  0  0  0  0  0  0  0  0  0  0
  -19.2256   31.1046   10.4607 H   0  0  0  0  0  0  0  0  0  0  0  0
  -20.0142   29.5536   14.6848 H   0  0  0  0  0  0  0  0  0  0  0  0
  -18.9765   31.7670   15.3223 H   0  0  0  0  0  0  0  0  0  0  0  0
  -21.1933   28.7698   10.1895 H   0  0  0  0  0  0  0  0  0  0  0  0
  -16.2702   32.0224   11.8030 H   0  0  0  0  0  0  0  0  0  0  0  0
  -15.5348   28.7641   14.4000 H   0  0  0  0  0  0  0  0  0  0  0  0
  -19.8879   30.0823    7.9113 H   0  0  0  0  0  0  0  0  0  0  0  0
  -21.1709   31.1686    8.5076 H   0  0  0  0  0  0  0  0  0  0  0  0
  -21.8422   28.2897    7.9702 H   0  0  0  0  0  0  0  0  0  0  0  0
  -26.4965   26.7417    4.7058 H   0  0  0  0  0  0  0  0  0  0  0  0
  -24.5461   30.5452    5.3292 H   0  0  0  0  0  0  0  0  0  0  0  0
  -24.0174   25.2734    6.6849 H   0  0  0  0  0  0  0  0  0  0  0  0
  1  2  1  0  0  0  0
  1  5  1  0  0  0  0
  1  8  1  0  0  0  0
  1 34  1  6  0  0  0
  2  3  1  0  0  0  0
  2  9  1  0  0  0  0
  2 35  1  6  0  0  0
  3  4  1  0  0  0  0
  3  7  1  0  0  0  0
  3 36  1  1  0  0  0
  4  5  1  0  0  0  0
  5  6  1  0  0  0  0
  5 37  1  1  0  0  0
  6 10  2  0  0  0  0
  6 38  1  0  0  0  0
  7 11  2  0  0  0  0
  7 12  1  0  0  0  0
  8 39  1  0  0  0  0
  9 40  1  0  0  0  0
 10 16  1  0  0  0  0
 10 41  1  0  0  0  0
 11 14  1  0  0  0  0
 11 42  1  0  0  0  0
 12 13  2  0  0  0  0
 12 43  1  0  0  0  0
 13 14  1  0  0  0  0
 13 15  1  0  0  0  0
 15 29  1  0  0  0  0
 15 30  1  0  0  0  0
 15 31  1  0  0  0  0
 16 17  1  0  0  0  0
 16 44  1  0  0  0  0
 16 45  1  0  0  0  0
 17 18  1  0  0  0  0
 17 46  1  0  0  0  0
 18 19  1  0  0  0  0
 18 28  2  0  0  0  0
 19 20  2  0  0  0  0
 19 24  1  0  0  0  0
 20 21  1  0  0  0  0
 20 26  1  0  0  0  0
 21 22  2  0  0  0  0
 21 27  1  0  0  0  0
 22 23  1  0  0  0  0
 22 47  1  0  0  0  0
 23 24  2  0  0  0  0
 23 25  1  0  0  0  0
 24 48  1  0  0  0  0
 25 32  2  0  0  0  0
 25 33  2  0  0  0  0
 27 49  1  0  0  0  0
M  CHG  1   7   1
M  END
$$$$
