OZZ
 OpenBabel04091914233D

 49 51  0  0  1  0  0  0  0  0999 V2000
   36.7942   -2.2180  -13.2977 C   0  0  1  0  0  0  0  0  0  0  0  0
   36.7148   -0.7027  -13.5223 C   0  0  2  0  0  0  0  0  0  0  0  0
   35.1885   -0.5140  -13.5026 C   0  0  1  0  0  0  0  0  0  0  0  0
   34.7576   -1.3133  -12.4005 O   0  0  0  0  0  0  0  0  0  0  0  0
   35.7081   -2.3877  -12.2183 C   0  0  2  0  0  0  0  0  0  0  0  0
   36.3011   -2.2877  -10.8496 C   0  0  0  0  0  0  0  0  0  0  0  0
   34.7112    0.8628  -13.3557 N   0  3  0  0  0  0  0  0  0  0  0  0
   36.4411   -2.9247  -14.4988 O   0  0  0  0  0  0  0  0  0  0  0  0
   37.3304   -0.2076  -14.7020 O   0  0  0  0  0  0  0  0  0  0  0  0
   35.9429   -3.1003   -9.8468 C   0  0  0  0  0  0  0  0  0  0  0  0
   36.5670   -3.0162   -8.5013 C   0  0  0  0  0  0  0  0  0  0  0  0
   36.3478   -4.2647   -7.8576 N   0  0  0  0  0  0  0  0  0  0  0  0
   37.1435   -4.6994   -6.8371 C   0  0  0  0  0  0  0  0  0  0  0  0
   36.8862   -6.0879   -6.2886 C   0  0  1  0  0  0  0  0  0  0  0  0
   35.6687   -6.8142   -6.5160 C   0  0  2  0  0  0  0  0  0  0  0  0
   35.6435   -8.1138   -5.9232 C   0  0  1  0  0  0  0  0  0  0  0  0
   36.6634   -8.6782   -5.1572 C   0  0  0  0  0  0  0  0  0  0  0  0
   37.8123   -7.9142   -4.9774 C   0  0  1  0  0  0  0  0  0  0  0  0
   37.9338   -6.6355   -5.5328 C   0  0  0  0  0  0  0  0  0  0  0  0
   38.9382   -8.4389   -4.1838 N   0  0  0  0  0  0  0  0  0  0  0  0
   34.6886   -6.3749   -7.1852 O   0  0  0  0  0  0  0  0  0  0  0  0
   34.4929   -8.8643   -6.1106 O   0  0  0  0  0  0  0  0  0  0  0  0
   38.0767   -4.0266   -6.4216 O   0  0  0  0  0  0  0  0  0  0  0  0
   38.7007   -9.4871   -3.5454 O   0  0  0  0  0  0  0  0  0  0  0  0
   39.9960   -7.8442   -4.1859 O   0  0  0  0  0  0  0  0  0  0  0  0
   35.2533    1.7004  -12.4111 C   0  0  0  0  0  0  0  0  0  0  0  0
   34.8498    2.9432  -12.1594 C   0  0  0  0  0  0  0  0  0  0  0  0
   33.7448    3.4936  -12.9722 C   0  0  0  0  0  0  0  0  0  0  0  0
   33.5973    1.3310  -14.0529 C   0  0  0  0  0  0  0  0  0  0  0  0
   33.0973    2.5684  -13.9314 C   0  0  0  0  0  0  0  0  0  0  0  0
   33.3943    4.6656  -12.8617 O   0  0  0  0  0  0  0  0  0  0  0  0
   37.7893   -2.5777  -12.9823 H   0  0  0  0  0  0  0  0  0  0  0  0
   37.1921   -0.2234  -12.6601 H   0  0  0  0  0  0  0  0  0  0  0  0
   34.7692   -0.9029  -14.4467 H   0  0  0  0  0  0  0  0  0  0  0  0
   35.1491   -3.3241  -12.3237 H   0  0  0  0  0  0  0  0  0  0  0  0
   37.0817   -1.5527  -10.6715 H   0  0  0  0  0  0  0  0  0  0  0  0
   35.5992   -2.5744  -14.8302 H   0  0  0  0  0  0  0  0  0  0  0  0
   36.9296   -0.6417  -15.4723 H   0  0  0  0  0  0  0  0  0  0  0  0
   35.1714   -3.8425  -10.0222 H   0  0  0  0  0  0  0  0  0  0  0  0
   36.1051   -2.2196   -7.9129 H   0  0  0  0  0  0  0  0  0  0  0  0
   37.6450   -2.8402   -8.5776 H   0  0  0  0  0  0  0  0  0  0  0  0
   35.5403   -4.8588   -8.0735 H   0  0  0  0  0  0  0  0  0  0  0  0
   36.5491   -9.6585   -4.7036 H   0  0  0  0  0  0  0  0  0  0  0  0
   38.8274   -6.0302   -5.3925 H   0  0  0  0  0  0  0  0  0  0  0  0
   33.9323   -8.2748   -6.6718 H   0  0  0  0  0  0  0  0  0  0  0  0
   36.1002    1.3158  -11.8306 H   0  0  0  0  0  0  0  0  0  0  0  0
   35.2905    3.5745  -11.4073 H   0  0  0  0  0  0  0  0  0  0  0  0
   33.1117    0.6481  -14.7513 H   0  0  0  0  0  0  0  0  0  0  0  0
   32.2536    2.9032  -14.5131 H   0  0  0  0  0  0  0  0  0  0  0  0
  1  2  1  0  0  0  0
  1  5  1  0  0  0  0
  1  8  1  0  0  0  0
  1 32  1  1  0  0  0
  2  3  1  0  0  0  0
  2  9  1  0  0  0  0
  2 33  1  1  0  0  0
  3  4  1  0  0  0  0
  3  7  1  0  0  0  0
  3 34  1  6  0  0  0
  4  5  1  0  0  0  0
  5  6  1  0  0  0  0
  5 35  1  6  0  0  0
  6 10  2  0  0  0  0
  6 36  1  0  0  0  0
  7 26  1  0  0  0  0
  7 29  1  0  0  0  0
  8 37  1  0  0  0  0
  9 38  1  0  0  0  0
 10 11  1  0  0  0  0
 10 39  1  0  0  0  0
 11 12  1  0  0  0  0
 11 40  1  0  0  0  0
 11 41  1  0  0  0  0
 12 13  1  0  0  0  0
 12 42  1  0  0  0  0
 13 23  2  0  0  0  0
 14 13  1  6  0  0  0
 14 15  1  0  0  0  0
 14 19  1  0  0  0  0
 15 16  1  0  0  0  0
 15 21  1  6  0  0  0
 16 17  1  0  0  0  0
 16 22  1  1  0  0  0
 17 18  1  0  0  0  0
 17 43  1  0  0  0  0
 18 19  1  0  0  0  0
 18 20  1  1  0  0  0
 19 44  1  0  0  0  0
 20 24  2  0  0  0  0
 20 25  2  0  0  0  0
 22 45  1  0  0  0  0
 26 27  1  0  0  0  0
 26 46  1  0  0  0  0
 27 28  1  0  0  0  0
 27 47  1  0  0  0  0
 28 30  1  0  0  0  0
 28 31  2  0  0  0  0
 29 30  1  0  0  0  0
 29 48  1  0  0  0  0
 30 49  1  0  0  0  0
M  CHG  1   7   1
M  END
$$$$
