P04
 OpenBabel04091911013D

 48 52  0  0  0  0  0  0  0  0999 V2000
   19.7817    9.7858   20.3020 N   0  0  0  0  0  0  0  0  0  0  0  0
   20.0524   10.0955   19.0289 C   0  0  0  0  0  0  0  0  0  0  0  0
   21.0593    9.2735   18.4526 C   0  0  0  0  0  0  0  0  0  0  0  0
   21.4057    8.4039   19.4731 C   0  0  0  0  0  0  0  0  0  0  0  0
   20.6152    8.7441   20.5260 N   0  3  0  0  0  0  0  0  0  0  0  0
   22.2956    7.3871   19.6229 N   0  0  0  0  0  0  0  0  0  0  0  0
   22.3680    6.7650   20.7643 C   0  0  0  0  0  0  0  0  0  0  0  0
   21.5725    7.0911   21.8451 N   0  0  0  0  0  0  0  0  0  0  0  0
   20.7074    8.0585   21.7354 C   0  0  0  0  0  0  0  0  0  0  0  0
   19.8575    8.4485   22.7480 N   0  0  0  0  0  0  0  0  0  0  0  0
   20.0633    7.9112   24.0785 C   0  0  0  0  0  0  0  0  0  0  0  0
   21.0989    8.4856   25.0044 C   0  0  0  0  0  0  0  0  0  0  0  0
   19.6367    8.7013   25.2755 C   0  0  0  0  0  0  0  0  0  0  0  0
   23.2210    5.7221   21.0379 N   0  0  0  0  0  0  0  0  0  0  0  0
   24.0402    4.9676   20.1855 C   0  0  0  0  0  0  0  0  0  0  0  0
   24.1986    5.2665   18.8301 C   0  0  0  0  0  0  0  0  0  0  0  0
   25.0016    4.5265   17.9687 C   0  0  0  0  0  0  0  0  0  0  0  0
   25.6475    3.4092   18.4785 C   0  0  0  0  0  0  0  0  0  0  0  0
   25.5401    3.0911   19.8320 C   0  0  0  0  0  0  0  0  0  0  0  0
   24.7452    3.8720   20.6785 C   0  0  0  0  0  0  0  0  0  0  0  0
   25.1482    4.8171   16.6016 N   0  0  0  0  0  0  0  0  0  0  0  0
   25.0276    5.9757   15.8912 C   0  0  0  0  0  0  0  0  0  0  0  0
   25.1332    5.9123   14.6617 O   0  0  0  0  0  0  0  0  0  0  0  0
   24.8174    7.3191   16.5562 C   0  0  0  0  0  0  0  0  0  0  0  0
   23.3452    7.7038   16.4771 C   0  0  0  0  0  0  0  0  0  0  0  0
   23.0863    9.1387   16.9273 C   0  0  0  0  0  0  0  0  0  0  0  0
   21.5795    9.3800   17.0550 C   0  0  0  0  0  0  0  0  0  0  0  0
   19.5153   10.9110   18.5582 H   0  0  0  0  0  0  0  0  0  0  0  0
   19.3681    9.3277   22.5846 H   0  0  0  0  0  0  0  0  0  0  0  0
   19.9342    6.8329   24.1134 H   0  0  0  0  0  0  0  0  0  0  0  0
   21.6975    9.3125   24.6406 H   0  0  0  0  0  0  0  0  0  0  0  0
   21.6406    7.7959   25.6413 H   0  0  0  0  0  0  0  0  0  0  0  0
   19.1771    8.1539   26.0890 H   0  0  0  0  0  0  0  0  0  0  0  0
   19.2182    9.6849   25.1011 H   0  0  0  0  0  0  0  0  0  0  0  0
   23.1283    5.3804   21.9839 H   0  0  0  0  0  0  0  0  0  0  0  0
   23.6243    6.0735   18.4371 H   0  0  0  0  0  0  0  0  0  0  0  0
   26.2799    2.7923   17.8370 H   0  0  0  0  0  0  0  0  0  0  0  0
   26.0796    2.2354   20.2312 H   0  0  0  0  0  0  0  0  0  0  0  0
   24.6753    3.5965   21.7308 H   0  0  0  0  0  0  0  0  0  0  0  0
   25.4349    4.0508   16.0043 H   0  0  0  0  0  0  0  0  0  0  0  0
   25.4238    8.0498   16.0063 H   0  0  0  0  0  0  0  0  0  0  0  0
   25.2120    7.3351   17.5762 H   0  0  0  0  0  0  0  0  0  0  0  0
   22.7253    7.0201   17.0588 H   0  0  0  0  0  0  0  0  0  0  0  0
   22.9839    7.5752   15.4506 H   0  0  0  0  0  0  0  0  0  0  0  0
   23.5003    9.8129   16.1677 H   0  0  0  0  0  0  0  0  0  0  0  0
   23.6062    9.3646   17.8667 H   0  0  0  0  0  0  0  0  0  0  0  0
   21.3611   10.3870   16.6776 H   0  0  0  0  0  0  0  0  0  0  0  0
   21.0187    8.6892   16.4109 H   0  0  0  0  0  0  0  0  0  0  0  0
  1  2  1  0  0  0  0
  1  5  1  0  0  0  0
  2  3  2  0  0  0  0
  2 28  1  0  0  0  0
  3  4  1  0  0  0  0
  3 27  1  0  0  0  0
  4  5  2  0  0  0  0
  4  6  1  0  0  0  0
  5  9  1  0  0  0  0
  6  7  2  0  0  0  0
  7  8  1  0  0  0  0
  7 14  1  0  0  0  0
  8  9  2  0  0  0  0
  9 10  1  0  0  0  0
 10 11  1  0  0  0  0
 10 29  1  0  0  0  0
 11 12  1  0  0  0  0
 11 13  1  0  0  0  0
 11 30  1  0  0  0  0
 12 13  1  0  0  0  0
 12 31  1  0  0  0  0
 12 32  1  0  0  0  0
 13 33  1  0  0  0  0
 13 34  1  0  0  0  0
 14 15  1  0  0  0  0
 14 35  1  0  0  0  0
 15 16  2  0  0  0  0
 15 20  1  0  0  0  0
 16 17  1  0  0  0  0
 16 36  1  0  0  0  0
 17 18  2  0  0  0  0
 17 21  1  0  0  0  0
 18 19  1  0  0  0  0
 18 37  1  0  0  0  0
 19 20  2  0  0  0  0
 19 38  1  0  0  0  0
 20 39  1  0  0  0  0
 21 22  1  0  0  0  0
 21 40  1  0  0  0  0
 22 23  2  0  0  0  0
 22 24  1  0  0  0  0
 24 25  1  0  0  0  0
 24 41  1  0  0  0  0
 24 42  1  0  0  0  0
 25 26  1  0  0  0  0
 25 43  1  0  0  0  0
 25 44  1  0  0  0  0
 26 27  1  0  0  0  0
 26 45  1  0  0  0  0
 26 46  1  0  0  0  0
 27 47  1  0  0  0  0
 27 48  1  0  0  0  0
M  CHG  1   5   1
M  END
$$$$
