P05
 OpenBabel04091915243D

 51 53  0  0  1  0  0  0  0  0999 V2000
   16.4173  -15.5369   23.1783 N   0  3  0  0  0  0  0  0  0  0  0  0
   17.7468  -14.8623   23.1418 C   0  0  1  0  0  0  0  0  0  0  0  0
   17.5536  -13.4718   22.5585 C   0  0  0  0  0  0  0  0  0  0  0  0
   16.6198  -12.7842   22.9461 O   0  0  0  0  0  0  0  0  0  0  0  0
   18.2342  -14.7806   24.5749 C   0  0  0  0  0  0  0  0  0  0  0  0
   19.6281  -14.2511   24.6506 C   0  0  0  0  0  0  0  0  0  0  0  0
   19.8645  -13.0434   25.3076 C   0  0  0  0  0  0  0  0  0  0  0  0
   20.6942  -14.9392   24.0657 C   0  0  0  0  0  0  0  0  0  0  0  0
   21.1535  -12.5216   25.3692 C   0  0  0  0  0  0  0  0  0  0  0  0
   21.9832  -14.4190   24.1354 C   0  0  0  0  0  0  0  0  0  0  0  0
   22.2143  -13.2084   24.7852 C   0  0  0  0  0  0  0  0  0  0  0  0
   18.3947  -13.0881   21.5606 N   0  0  0  0  0  0  0  0  0  0  0  0
   18.2006  -11.7700   20.9808 C   0  0  2  0  0  0  0  0  0  0  0  0
   16.7896  -11.6871   20.3644 C   0  0  0  0  0  0  0  0  0  0  0  0
   16.3199  -12.6148   19.7402 O   0  0  0  0  0  0  0  0  0  0  0  0
   19.2189  -11.6670   19.8663 C   0  0  0  0  0  0  0  0  0  0  0  0
   20.2507  -12.7372   20.1807 C   0  0  0  0  0  0  0  0  0  0  0  0
   19.5138  -13.8041   20.9557 C   0  0  0  0  0  0  0  0  0  0  0  0
   14.8238  -10.2227   20.1014 C   0  0  0  0  0  0  0  0  0  0  0  0
   13.7705  -10.5312   21.1245 C   0  0  0  0  0  0  0  0  0  0  0  0
   13.1928   -9.5261   21.9095 C   0  0  0  0  0  0  0  0  0  0  0  0
   12.2182   -9.8819   22.8196 C   0  0  0  0  0  0  0  0  0  0  0  0
   12.3686  -12.1126   22.2120 C   0  0  0  0  0  0  0  0  0  0  0  0
   13.3510  -11.8497   21.2906 C   0  0  0  0  0  0  0  0  0  0  0  0
   16.1610  -10.4999   20.5768 N   0  0  0  0  0  0  0  0  0  0  0  0
   11.7918  -11.1638   22.9879 N   0  0  0  0  0  0  0  0  0  0  0  0
   16.4991  -16.4735   23.5836 H   0  0  0  0  0  0  0  0  0  0  0  0
   15.7736  -14.9634   23.7455 H   0  0  0  0  0  0  0  0  0  0  0  0
   18.3958  -15.4798   22.5209 H   0  0  0  0  0  0  0  0  0  0  0  0
   18.2095  -15.7781   25.0323 H   0  0  0  0  0  0  0  0  0  0  0  0
   17.5628  -14.1321   25.1528 H   0  0  0  0  0  0  0  0  0  0  0  0
   19.0456  -12.5046   25.7761 H   0  0  0  0  0  0  0  0  0  0  0  0
   20.5293  -15.8723   23.5312 H   0  0  0  0  0  0  0  0  0  0  0  0
   21.3298  -11.5786   25.8800 H   0  0  0  0  0  0  0  0  0  0  0  0
   22.8132  -14.9614   23.6910 H   0  0  0  0  0  0  0  0  0  0  0  0
   23.2215  -12.8016   24.8401 H   0  0  0  0  0  0  0  0  0  0  0  0
   18.3431  -10.9937   21.7416 H   0  0  0  0  0  0  0  0  0  0  0  0
   19.6707  -10.6717   19.8465 H   0  0  0  0  0  0  0  0  0  0  0  0
   18.7589  -11.8571   18.8879 H   0  0  0  0  0  0  0  0  0  0  0  0
   21.0452  -12.3041   20.7958 H   0  0  0  0  0  0  0  0  0  0  0  0
   20.6795  -13.1390   19.2630 H   0  0  0  0  0  0  0  0  0  0  0  0
   19.1360  -14.6014   20.3057 H   0  0  0  0  0  0  0  0  0  0  0  0
   20.1490  -14.2614   21.7124 H   0  0  0  0  0  0  0  0  0  0  0  0
   14.7858   -9.1611   19.8417 H   0  0  0  0  0  0  0  0  0  0  0  0
   14.6327  -10.8098   19.1974 H   0  0  0  0  0  0  0  0  0  0  0  0
   13.4922   -8.4872   21.8071 H   0  0  0  0  0  0  0  0  0  0  0  0
   11.7564   -9.1278   23.4588 H   0  0  0  0  0  0  0  0  0  0  0  0
   12.0186  -13.1319   22.3621 H   0  0  0  0  0  0  0  0  0  0  0  0
   13.7894  -12.6455   20.6957 H   0  0  0  0  0  0  0  0  0  0  0  0
   16.6230   -9.7997   21.1404 H   0  0  0  0  0  0  0  0  0  0  0  0
   16.0258  -15.5905   22.2281 H   0  0  0  0  0  0  0  0  0  0  0  0
  1  2  1  0  0  0  0
  1 27  1  0  0  0  0
  1 28  1  0  0  0  0
  1 51  1  0  0  0  0
  2  3  1  0  0  0  0
  2  5  1  0  0  0  0
  2 29  1  6  0  0  0
  3  4  2  0  0  0  0
  3 12  1  0  0  0  0
  5  6  1  0  0  0  0
  5 30  1  0  0  0  0
  5 31  1  0  0  0  0
  6  7  2  0  0  0  0
  6  8  1  0  0  0  0
  7  9  1  0  0  0  0
  7 32  1  0  0  0  0
  8 10  2  0  0  0  0
  8 33  1  0  0  0  0
  9 11  2  0  0  0  0
  9 34  1  0  0  0  0
 10 11  1  0  0  0  0
 10 35  1  0  0  0  0
 11 36  1  0  0  0  0
 12 13  1  0  0  0  0
 12 18  1  0  0  0  0
 13 14  1  0  0  0  0
 13 16  1  0  0  0  0
 13 37  1  1  0  0  0
 14 15  2  0  0  0  0
 14 25  1  0  0  0  0
 16 17  1  0  0  0  0
 16 38  1  0  0  0  0
 16 39  1  0  0  0  0
 17 18  1  0  0  0  0
 17 40  1  0  0  0  0
 17 41  1  0  0  0  0
 18 42  1  0  0  0  0
 18 43  1  0  0  0  0
 19 20  1  0  0  0  0
 19 25  1  0  0  0  0
 19 44  1  0  0  0  0
 19 45  1  0  0  0  0
 20 21  2  0  0  0  0
 20 24  1  0  0  0  0
 21 22  1  0  0  0  0
 21 46  1  0  0  0  0
 22 26  2  0  0  0  0
 22 47  1  0  0  0  0
 23 24  2  0  0  0  0
 23 26  1  0  0  0  0
 23 48  1  0  0  0  0
 24 49  1  0  0  0  0
 25 50  1  0  0  0  0
M  CHG  1   1   1
M  END
$$$$
