P58
 OpenBabel04091914253D

 23 23  0  0  0  0  0  0  0  0999 V2000
   -6.0246    3.8748   15.0993 C   0  0  0  0  0  0  0  0  0  0  0  0
   -7.2583    1.7183   16.9809 S   0  0  0  0  0  0  0  0  0  0  0  0
   -4.9472    0.0632   16.1437 S   0  0  0  0  0  0  0  0  0  0  0  0
   -4.8608    1.1738   10.5074 C   0  0  0  0  0  0  0  0  0  0  0  0
   -4.7351    2.5341   10.7792 C   0  0  0  0  0  0  0  0  0  0  0  0
   -4.6971    0.2429   11.5249 C   0  0  0  0  0  0  0  0  0  0  0  0
   -4.4574    2.9748   12.0608 C   0  0  0  0  0  0  0  0  0  0  0  0
   -4.4041    0.6906   12.8146 C   0  0  0  0  0  0  0  0  0  0  0  0
   -4.0306    2.4915   14.5384 C   0  0  0  0  0  0  0  0  0  0  0  0
   -5.8230    1.6032   16.1090 C   0  0  0  0  0  0  0  0  0  0  0  0
   -4.2894    2.0535   13.1163 C   0  0  0  0  0  0  0  0  0  0  0  0
   -5.2742    2.6322   15.3177 N   0  0  0  0  0  0  0  0  0  0  0  0
   -5.5503    4.5082   14.3434 H   0  0  0  0  0  0  0  0  0  0  0  0
   -6.0778    4.4374   16.0366 H   0  0  0  0  0  0  0  0  0  0  0  0
   -7.0388    3.6401   14.7607 H   0  0  0  0  0  0  0  0  0  0  0  0
   -5.0480   -0.2546   17.4351 H   0  0  0  0  0  0  0  0  0  0  0  0
   -5.0955    0.8303    9.5049 H   0  0  0  0  0  0  0  0  0  0  0  0
   -4.8614    3.2547    9.9749 H   0  0  0  0  0  0  0  0  0  0  0  0
   -4.7982   -0.8150   11.3347 H   0  0  0  0  0  0  0  0  0  0  0  0
   -4.3829    4.0426   12.2593 H   0  0  0  0  0  0  0  0  0  0  0  0
   -4.2742   -0.0602   13.5853 H   0  0  0  0  0  0  0  0  0  0  0  0
   -3.4756    3.4360   14.5718 H   0  0  0  0  0  0  0  0  0  0  0  0
   -3.3604    1.7680   15.0121 H   0  0  0  0  0  0  0  0  0  0  0  0
  1 12  1  0  0  0  0
  1 13  1  0  0  0  0
  1 14  1  0  0  0  0
  1 15  1  0  0  0  0
  2 10  2  0  0  0  0
  3 10  1  0  0  0  0
  3 16  1  0  0  0  0
  4  5  2  0  0  0  0
  4  6  1  0  0  0  0
  4 17  1  0  0  0  0
  5  7  1  0  0  0  0
  5 18  1  0  0  0  0
  6  8  2  0  0  0  0
  6 19  1  0  0  0  0
  7 11  2  0  0  0  0
  7 20  1  0  0  0  0
  8 11  1  0  0  0  0
  8 21  1  0  0  0  0
  9 11  1  0  0  0  0
  9 12  1  0  0  0  0
  9 22  1  0  0  0  0
  9 23  1  0  0  0  0
 10 12  1  0  0  0  0
M  END
$$$$
