P5C
 OpenBabel04091912323D

 50 52  0  0  1  0  0  0  0  0999 V2000
    3.5573    2.6737   13.5147 C   0  0  0  0  0  0  0  0  0  0  0  0
    5.2812    1.7790   14.7227 C   0  0  0  0  0  0  0  0  0  0  0  0
    2.7917    1.6299   13.8403 N   0  0  0  0  0  0  0  0  0  0  0  0
    4.5776    0.6469   15.0625 C   0  0  0  0  0  0  0  0  0  0  0  0
    3.2971    0.5973   14.5699 C   0  0  0  0  0  0  0  0  0  0  0  0
    5.1482   -0.4270   15.9061 C   0  0  0  0  0  0  0  0  0  0  0  0
    1.1692   -0.7745   14.5006 C   0  0  0  0  0  0  0  0  0  0  0  0
    0.4949   -0.0361   13.5271 C   0  0  0  0  0  0  0  0  0  0  0  0
   -1.5048   -1.3029   13.8788 C   0  0  0  0  0  0  0  0  0  0  0  0
   -0.8551   -2.0494   14.8680 C   0  0  0  0  0  0  0  0  0  0  0  0
   -0.8305   -0.2892   13.2085 C   0  0  0  0  0  0  0  0  0  0  0  0
    0.4751   -1.7750   15.1806 C   0  0  0  0  0  0  0  0  0  0  0  0
   -1.5754   -3.1541   15.5820 C   0  0  0  0  0  0  0  0  0  0  0  0
    4.4852   -1.4328   16.2203 O   0  0  0  0  0  0  0  0  0  0  0  0
    6.4290   -0.2704   16.3367 N   0  0  0  0  0  0  0  0  0  0  0  0
    2.4851   -0.5021   14.8709 N   0  0  0  0  0  0  0  0  0  0  0  0
    4.8065    2.7945   13.9570 N   0  0  0  0  0  0  0  0  0  0  0  0
    3.0246    3.7178   12.7860 N   0  0  0  0  0  0  0  0  0  0  0  0
    1.6327    3.7108   12.3434 C   0  0  1  0  0  0  0  0  0  0  0  0
    0.7240    4.3565   13.4160 C   0  0  1  0  0  0  0  0  0  0  0  0
    1.1761    5.7526   13.7093 N   0  3  0  0  0  0  0  0  0  0  0  0
   -0.7267    4.4374   12.9618 C   0  0  0  0  0  0  0  0  0  0  0  0
   -0.8869    5.1032   11.5967 C   0  0  0  0  0  0  0  0  0  0  0  0
    0.0369    4.5154   10.5353 C   0  0  0  0  0  0  0  0  0  0  0  0
    1.4927    4.4313   10.9939 C   0  0  0  0  0  0  0  0  0  0  0  0
    6.2981    1.9281   15.0559 H   0  0  0  0  0  0  0  0  0  0  0  0
    1.0111    0.7314   12.9721 H   0  0  0  0  0  0  0  0  0  0  0  0
   -2.5360   -1.5120   13.6237 H   0  0  0  0  0  0  0  0  0  0  0  0
   -1.3205    0.2910   12.4328 H   0  0  0  0  0  0  0  0  0  0  0  0
    0.9805   -2.3459   15.9555 H   0  0  0  0  0  0  0  0  0  0  0  0
   -2.5959   -3.2375   15.2148 H   0  0  0  0  0  0  0  0  0  0  0  0
   -1.5975   -2.9416   16.6528 H   0  0  0  0  0  0  0  0  0  0  0  0
   -1.0570   -4.1002   15.4061 H   0  0  0  0  0  0  0  0  0  0  0  0
    6.8343   -0.9965   16.9035 H   0  0  0  0  0  0  0  0  0  0  0  0
    6.9959    0.5211   16.1038 H   0  0  0  0  0  0  0  0  0  0  0  0
    2.9411   -1.2332   15.4349 H   0  0  0  0  0  0  0  0  0  0  0  0
    3.6913    4.3977   12.4414 H   0  0  0  0  0  0  0  0  0  0  0  0
    1.2682    2.6897   12.1947 H   0  0  0  0  0  0  0  0  0  0  0  0
    0.8026    3.8129   14.3623 H   0  0  0  0  0  0  0  0  0  0  0  0
    0.5822    6.1829   14.4283 H   0  0  0  0  0  0  0  0  0  0  0  0
    2.1466    5.7372   14.0489 H   0  0  0  0  0  0  0  0  0  0  0  0
   -1.3202    4.9900   13.7023 H   0  0  0  0  0  0  0  0  0  0  0  0
   -1.1250    3.4190   12.9169 H   0  0  0  0  0  0  0  0  0  0  0  0
   -0.6831    6.1766   11.6883 H   0  0  0  0  0  0  0  0  0  0  0  0
   -1.9268    4.9984   11.2680 H   0  0  0  0  0  0  0  0  0  0  0  0
   -0.0238    5.1303    9.6281 H   0  0  0  0  0  0  0  0  0  0  0  0
   -0.3142    3.5106   10.2737 H   0  0  0  0  0  0  0  0  0  0  0  0
    2.0759    3.8958   10.2363 H   0  0  0  0  0  0  0  0  0  0  0  0
    1.9054    5.4463   11.0542 H   0  0  0  0  0  0  0  0  0  0  0  0
    1.1380    6.3418   12.8707 H   0  0  0  0  0  0  0  0  0  0  0  0
  1  3  2  0  0  0  0
  1 17  1  0  0  0  0
  1 18  1  0  0  0  0
  2  4  1  0  0  0  0
  2 17  2  0  0  0  0
  2 26  1  0  0  0  0
  3  5  1  0  0  0  0
  4  5  2  0  0  0  0
  4  6  1  0  0  0  0
  5 16  1  0  0  0  0
  6 14  2  0  0  0  0
  6 15  1  0  0  0  0
  7  8  2  0  0  0  0
  7 12  1  0  0  0  0
  7 16  1  0  0  0  0
  8 11  1  0  0  0  0
  8 27  1  0  0  0  0
  9 10  1  0  0  0  0
  9 11  2  0  0  0  0
  9 28  1  0  0  0  0
 10 12  2  0  0  0  0
 10 13  1  0  0  0  0
 11 29  1  0  0  0  0
 12 30  1  0  0  0  0
 13 31  1  0  0  0  0
 13 32  1  0  0  0  0
 13 33  1  0  0  0  0
 15 34  1  0  0  0  0
 15 35  1  0  0  0  0
 16 36  1  0  0  0  0
 18 19  1  0  0  0  0
 18 37  1  0  0  0  0
 19 20  1  0  0  0  0
 19 25  1  0  0  0  0
 19 38  1  6  0  0  0
 20 21  1  0  0  0  0
 20 22  1  0  0  0  0
 20 39  1  1  0  0  0
 21 40  1  0  0  0  0
 21 41  1  0  0  0  0
 21 50  1  0  0  0  0
 22 23  1  0  0  0  0
 22 42  1  0  0  0  0
 22 43  1  0  0  0  0
 23 24  1  0  0  0  0
 23 44  1  0  0  0  0
 23 45  1  0  0  0  0
 24 25  1  0  0  0  0
 24 46  1  0  0  0  0
 24 47  1  0  0  0  0
 25 48  1  0  0  0  0
 25 49  1  0  0  0  0
M  CHG  1  21   1
M  END
$$$$
