P8D
 OpenBabel04091913243D

 27 26  0  0  1  0  0  0  0  0999 V2000
  -24.9818   32.0824  -15.4314 C   0  0  0  0  0  0  0  0  0  0  0  0
  -23.7719   30.2030  -16.4213 N   0  3  0  0  0  0  0  0  0  0  0  0
  -24.4481   30.7003  -15.1421 C   0  0  2  0  0  0  0  0  0  0  0  0
  -25.7590   29.3500  -14.7916 P   0  0  2  0  0  0  0  0  0  0  0  0
  -26.2715   29.8297  -13.1208 C   0  0  0  0  0  0  0  0  0  0  0  0
  -27.7725   30.0579  -12.9037 C   0  0  1  0  0  0  0  0  0  0  0  0
  -28.5905   28.8119  -13.3232 C   0  0  0  0  0  0  0  0  0  0  0  0
  -28.0483   30.4396  -11.4285 C   0  0  0  0  0  0  0  0  0  0  0  0
  -27.5872   31.8304  -10.9602 C   0  0  0  0  0  0  0  0  0  0  0  0
  -24.7603   28.1951  -14.8830 O   0  0  0  0  0  0  0  0  0  0  0  0
  -26.6763   29.6491  -15.9619 O   0  0  0  0  0  0  0  0  0  0  0  0
  -29.8481   28.9825  -13.3992 O   0  0  0  0  0  0  0  0  0  0  0  0
  -27.9472   27.7377  -13.5028 O   0  0  0  0  0  0  0  0  0  0  0  0
  -27.8329   32.8085  -11.7245 O   0  0  0  0  0  0  0  0  0  0  0  0
  -26.9943   31.8535   -9.8398 O   0  0  0  0  0  0  0  0  0  0  0  0
  -24.1782   32.7536  -15.6975 H   0  0  0  0  0  0  0  0  0  0  0  0
  -25.5095   32.4787  -14.5609 H   0  0  0  0  0  0  0  0  0  0  0  0
  -25.7031   32.0684  -16.2662 H   0  0  0  0  0  0  0  0  0  0  0  0
  -23.5649   29.2138  -16.1564 H   0  0  0  0  0  0  0  0  0  0  0  0
  -24.5644   30.0788  -17.0717 H   0  0  0  0  0  0  0  0  0  0  0  0
  -23.6915   30.6819  -14.3507 H   0  0  0  0  0  0  0  0  0  0  0  0
  -25.7375   30.7439  -12.8298 H   0  0  0  0  0  0  0  0  0  0  0  0
  -25.9113   29.0557  -12.4307 H   0  0  0  0  0  0  0  0  0  0  0  0
  -28.0913   30.8807  -13.5562 H   0  0  0  0  0  0  0  0  0  0  0  0
  -27.5819   29.6917  -10.7728 H   0  0  0  0  0  0  0  0  0  0  0  0
  -29.1248   30.3846  -11.2196 H   0  0  0  0  0  0  0  0  0  0  0  0
  -22.9909   30.7412  -16.7604 H   0  0  0  0  0  0  0  0  0  0  0  0
  1  3  1  0  0  0  0
  1 16  1  0  0  0  0
  1 17  1  0  0  0  0
  1 18  1  0  0  0  0
  2  3  1  0  0  0  0
  2 19  1  0  0  0  0
  2 20  1  0  0  0  0
  2 27  1  0  0  0  0
  3  4  1  0  0  0  0
  3 21  1  1  0  0  0
  4  5  1  1  0  0  0
  4 10  2  0  0  0  0
  4 11  1  0  0  0  0
  5  6  1  0  0  0  0
  5 22  1  0  0  0  0
  5 23  1  0  0  0  0
  6  7  1  0  0  0  0
  6  8  1  0  0  0  0
  6 24  1  6  0  0  0
  7 12  2  0  0  0  0
  7 13  1  0  0  0  0
  8  9  1  0  0  0  0
  8 25  1  0  0  0  0
  8 26  1  0  0  0  0
  9 14  2  0  0  0  0
  9 15  1  0  0  0  0
M  CHG  1   2   1
M  END
$$$$
