P97
 OpenBabel04091915143D

 51 53  0  0  1  0  0  0  0  0999 V2000
  -16.4387  -15.2403  -23.0828 N   0  3  0  0  0  0  0  0  0  0  0  0
  -17.7893  -14.5541  -23.0804 C   0  0  1  0  0  0  0  0  0  0  0  0
  -17.5925  -13.1314  -22.5599 C   0  0  0  0  0  0  0  0  0  0  0  0
  -16.6310  -12.4814  -22.9854 O   0  0  0  0  0  0  0  0  0  0  0  0
  -18.3180  -14.5083  -24.5229 C   0  0  0  0  0  0  0  0  0  0  0  0
  -19.7264  -13.9739  -24.6192 C   0  0  0  0  0  0  0  0  0  0  0  0
  -20.7988  -14.6557  -24.0243 C   0  0  0  0  0  0  0  0  0  0  0  0
  -19.9835  -12.7779  -25.3042 C   0  0  0  0  0  0  0  0  0  0  0  0
  -22.0886  -14.1245  -24.0683 C   0  0  0  0  0  0  0  0  0  0  0  0
  -21.2792  -12.2638  -25.3699 C   0  0  0  0  0  0  0  0  0  0  0  0
  -22.3284  -12.9314  -24.7431 C   0  0  0  0  0  0  0  0  0  0  0  0
  -18.4197  -12.6592  -21.5734 N   0  0  0  0  0  0  0  0  0  0  0  0
  -18.1848  -11.3452  -20.9713 C   0  0  2  0  0  0  0  0  0  0  0  0
  -16.8153  -11.3672  -20.2644 C   0  0  0  0  0  0  0  0  0  0  0  0
  -16.4428  -12.3329  -19.5968 O   0  0  0  0  0  0  0  0  0  0  0  0
  -19.2975  -11.1671  -19.9352 C   0  0  0  0  0  0  0  0  0  0  0  0
  -20.3299  -12.2401  -20.2587 C   0  0  0  0  0  0  0  0  0  0  0  0
  -19.5342  -13.3364  -20.9350 C   0  0  0  0  0  0  0  0  0  0  0  0
  -16.0541  -10.2352  -20.4435 N   0  0  0  0  0  0  0  0  0  0  0  0
  -14.7176  -10.1206  -19.9042 C   0  0  0  0  0  0  0  0  0  0  0  0
  -13.6964  -10.8702  -20.7151 C   0  0  0  0  0  0  0  0  0  0  0  0
  -13.3764  -12.1820  -20.3805 C   0  0  0  0  0  0  0  0  0  0  0  0
  -12.4802  -12.9515  -21.0465 N   0  0  0  0  0  0  0  0  0  0  0  0
  -11.8329  -12.3733  -22.0762 C   0  0  0  0  0  0  0  0  0  0  0  0
  -12.0750  -11.0834  -22.5032 C   0  0  0  0  0  0  0  0  0  0  0  0
  -13.0323  -10.3371  -21.8204 C   0  0  0  0  0  0  0  0  0  0  0  0
  -13.3606   -8.7381  -22.3901 Cl  0  0  0  0  0  0  0  0  0  0  0  0
  -16.4536  -16.1854  -23.4767 H   0  0  0  0  0  0  0  0  0  0  0  0
  -15.7686  -14.6542  -23.6082 H   0  0  0  0  0  0  0  0  0  0  0  0
  -18.4107  -15.1618  -22.4184 H   0  0  0  0  0  0  0  0  0  0  0  0
  -18.3036  -15.5129  -24.9646 H   0  0  0  0  0  0  0  0  0  0  0  0
  -17.6516  -13.8946  -25.1397 H   0  0  0  0  0  0  0  0  0  0  0  0
  -20.6480  -15.5946  -23.4961 H   0  0  0  0  0  0  0  0  0  0  0  0
  -19.1826  -12.2302  -25.8007 H   0  0  0  0  0  0  0  0  0  0  0  0
  -22.9113  -14.6422  -23.5789 H   0  0  0  0  0  0  0  0  0  0  0  0
  -21.4734  -11.3420  -25.9131 H   0  0  0  0  0  0  0  0  0  0  0  0
  -23.3370  -12.5264  -24.7924 H   0  0  0  0  0  0  0  0  0  0  0  0
  -18.2187  -10.5884  -21.7607 H   0  0  0  0  0  0  0  0  0  0  0  0
  -19.7380  -10.1644  -19.9851 H   0  0  0  0  0  0  0  0  0  0  0  0
  -18.9296  -11.3054  -18.9097 H   0  0  0  0  0  0  0  0  0  0  0  0
  -21.0796  -11.8342  -20.9480 H   0  0  0  0  0  0  0  0  0  0  0  0
  -20.8549  -12.6027  -19.3698 H   0  0  0  0  0  0  0  0  0  0  0  0
  -19.1343  -14.0604  -20.2180 H   0  0  0  0  0  0  0  0  0  0  0  0
  -20.1446  -13.8720  -21.6611 H   0  0  0  0  0  0  0  0  0  0  0  0
  -16.3262   -9.5553  -21.1511 H   0  0  0  0  0  0  0  0  0  0  0  0
  -14.7221  -10.4927  -18.8681 H   0  0  0  0  0  0  0  0  0  0  0  0
  -14.4709   -9.0568  -19.8435 H   0  0  0  0  0  0  0  0  0  0  0  0
  -13.8480  -12.6761  -19.5323 H   0  0  0  0  0  0  0  0  0  0  0  0
  -11.0792  -12.9912  -22.5603 H   0  0  0  0  0  0  0  0  0  0  0  0
  -11.5283  -10.6710  -23.3442 H   0  0  0  0  0  0  0  0  0  0  0  0
  -16.0561  -15.2798  -22.1254 H   0  0  0  0  0  0  0  0  0  0  0  0
  1  2  1  0  0  0  0
  1 28  1  0  0  0  0
  1 29  1  0  0  0  0
  1 51  1  0  0  0  0
  2  3  1  0  0  0  0
  2  5  1  0  0  0  0
  2 30  1  1  0  0  0
  3  4  2  0  0  0  0
  3 12  1  0  0  0  0
  5  6  1  0  0  0  0
  5 31  1  0  0  0  0
  5 32  1  0  0  0  0
  6  7  2  0  0  0  0
  6  8  1  0  0  0  0
  7  9  1  0  0  0  0
  7 33  1  0  0  0  0
  8 10  2  0  0  0  0
  8 34  1  0  0  0  0
  9 11  2  0  0  0  0
  9 35  1  0  0  0  0
 10 11  1  0  0  0  0
 10 36  1  0  0  0  0
 11 37  1  0  0  0  0
 12 13  1  0  0  0  0
 12 18  1  0  0  0  0
 13 14  1  0  0  0  0
 13 16  1  0  0  0  0
 13 38  1  6  0  0  0
 14 15  2  0  0  0  0
 14 19  1  0  0  0  0
 16 17  1  0  0  0  0
 16 39  1  0  0  0  0
 16 40  1  0  0  0  0
 17 18  1  0  0  0  0
 17 41  1  0  0  0  0
 17 42  1  0  0  0  0
 18 43  1  0  0  0  0
 18 44  1  0  0  0  0
 19 20  1  0  0  0  0
 19 45  1  0  0  0  0
 20 21  1  0  0  0  0
 20 46  1  0  0  0  0
 20 47  1  0  0  0  0
 21 22  2  0  0  0  0
 21 26  1  0  0  0  0
 22 23  1  0  0  0  0
 22 48  1  0  0  0  0
 23 24  2  0  0  0  0
 24 25  1  0  0  0  0
 24 49  1  0  0  0  0
 25 26  2  0  0  0  0
 25 50  1  0  0  0  0
 26 27  1  0  0  0  0
M  CHG  1   1   1
M  END
$$$$
