P9B
 OpenBabel04091913563D

 33 34  0  0  0  0  0  0  0  0999 V2000
   -5.1291    2.2709   15.7689 C   0  0  0  0  0  0  0  0  0  0  0  0
   -5.4054   -0.4036   16.0139 N   0  0  0  0  0  0  0  0  0  0  0  0
   -5.3037    1.0277   18.0416 O   0  0  0  0  0  0  0  0  0  0  0  0
   -5.9032    0.9911   16.7246 S   0  0  0  0  0  0  0  0  0  0  0  0
   -3.7584    2.2369   15.4783 C   0  0  0  0  0  0  0  0  0  0  0  0
   -7.3488    1.0598   16.5550 O   0  0  0  0  0  0  0  0  0  0  0  0
   -3.1617    3.3170   14.7978 C   0  0  0  0  0  0  0  0  0  0  0  0
   -3.9618    4.3817   14.3604 C   0  0  0  0  0  0  0  0  0  0  0  0
   -5.3291    4.3881   14.6470 C   0  0  0  0  0  0  0  0  0  0  0  0
   -5.9179    3.3428   15.3578 C   0  0  0  0  0  0  0  0  0  0  0  0
   -3.3783    5.4646   13.6892 N   0  0  0  0  0  0  0  0  0  0  0  0
   -4.0299    6.2616   12.7528 C   0  0  0  0  0  0  0  0  0  0  0  0
   -5.1365    6.0293   12.2880 O   0  0  0  0  0  0  0  0  0  0  0  0
   -3.2953    7.3137   12.2502 N   0  0  0  0  0  0  0  0  0  0  0  0
   -2.0798    7.7892   12.7415 C   0  0  0  0  0  0  0  0  0  0  0  0
   -1.9287    8.0921   14.0880 C   0  0  0  0  0  0  0  0  0  0  0  0
   -2.9691    7.9427   14.9380 F   0  0  0  0  0  0  0  0  0  0  0  0
   -0.7342    8.5863   14.5820 C   0  0  0  0  0  0  0  0  0  0  0  0
   -0.6597    8.8690   15.8788 F   0  0  0  0  0  0  0  0  0  0  0  0
    0.3394    8.7734   13.7193 C   0  0  0  0  0  0  0  0  0  0  0  0
    1.5042    9.2508   14.1818 F   0  0  0  0  0  0  0  0  0  0  0  0
    0.2066    8.4705   12.3729 C   0  0  0  0  0  0  0  0  0  0  0  0
    1.2486    8.6379   11.5474 F   0  0  0  0  0  0  0  0  0  0  0  0
   -1.0113    7.9968   11.8765 C   0  0  0  0  0  0  0  0  0  0  0  0
   -1.1462    7.6858   10.5803 F   0  0  0  0  0  0  0  0  0  0  0  0
   -5.7097   -1.2789   16.4340 H   0  0  0  0  0  0  0  0  0  0  0  0
   -4.7741   -0.3792   15.2216 H   0  0  0  0  0  0  0  0  0  0  0  0
   -3.1238    1.3987   15.7776 H   0  0  0  0  0  0  0  0  0  0  0  0
   -2.0917    3.2865   14.5945 H   0  0  0  0  0  0  0  0  0  0  0  0
   -5.9360    5.2429   14.3540 H   0  0  0  0  0  0  0  0  0  0  0  0
   -6.9778    3.3663   15.5994 H   0  0  0  0  0  0  0  0  0  0  0  0
   -2.3972    5.6252   13.8668 H   0  0  0  0  0  0  0  0  0  0  0  0
   -3.6871    7.7786   11.4369 H   0  0  0  0  0  0  0  0  0  0  0  0
  1  4  1  0  0  0  0
  1  5  2  0  0  0  0
  1 10  1  0  0  0  0
  2  4  1  0  0  0  0
  2 26  1  0  0  0  0
  2 27  1  0  0  0  0
  3  4  2  0  0  0  0
  4  6  2  0  0  0  0
  5  7  1  0  0  0  0
  5 28  1  0  0  0  0
  7  8  2  0  0  0  0
  7 29  1  0  0  0  0
  8  9  1  0  0  0  0
  8 11  1  0  0  0  0
  9 10  2  0  0  0  0
  9 30  1  0  0  0  0
 10 31  1  0  0  0  0
 11 12  1  0  0  0  0
 11 32  1  0  0  0  0
 12 13  2  0  0  0  0
 12 14  1  0  0  0  0
 14 15  1  0  0  0  0
 14 33  1  0  0  0  0
 15 16  2  0  0  0  0
 15 24  1  0  0  0  0
 16 17  1  0  0  0  0
 16 18  1  0  0  0  0
 18 19  1  0  0  0  0
 18 20  2  0  0  0  0
 20 21  1  0  0  0  0
 20 22  1  0  0  0  0
 22 23  1  0  0  0  0
 22 24  2  0  0  0  0
 24 25  1  0  0  0  0
M  END
$$$$
