PBD
 OpenBabel04091914293D

 43 44  0  0  0  0  0  0  0  0999 V2000
    3.4060   76.5556    1.0157 C   0  0  0  0  0  0  0  0  0  0  0  0
    3.6182   71.6909    3.2817 C   0  0  0  0  0  0  0  0  0  0  0  0
    0.8381   74.9246    9.1833 S   0  0  0  0  0  0  0  0  0  0  0  0
   -5.6296   75.3343    3.6345 C   0  0  0  0  0  0  0  0  0  0  0  0
    2.3988   76.2681    4.9928 C   0  0  0  0  0  0  0  0  0  0  0  0
    2.6958   76.3971    3.6497 C   0  0  0  0  0  0  0  0  0  0  0  0
   -4.9923   74.8705    4.7604 C   0  0  0  0  0  0  0  0  0  0  0  0
   -4.7970   77.0705    4.5955 C   0  0  0  0  0  0  0  0  0  0  0  0
    2.9685   73.9039    4.8828 C   0  0  0  0  0  0  0  0  0  0  0  0
   -2.2668   75.6244    6.0766 C   0  0  0  0  0  0  0  0  0  0  0  0
   -1.3521   75.6144    7.2746 C   0  0  0  0  0  0  0  0  0  0  0  0
   -3.6481   75.9900    6.5313 C   0  0  0  0  0  0  0  0  0  0  0  0
   -5.5299   76.7010    3.5703 N   0  0  0  0  0  0  0  0  0  0  0  0
    0.0070   75.4627    6.7449 N   0  0  0  0  0  0  0  0  0  0  0  0
    2.2746   74.9165    6.9338 N   0  0  0  0  0  0  0  0  0  0  0  0
    3.3855   75.2703    1.5873 O   0  0  0  0  0  0  0  0  0  0  0  0
    3.6469   72.9884    2.7022 O   0  0  0  0  0  0  0  0  0  0  0  0
    1.0832   75.1208    7.4716 C   0  0  0  0  0  0  0  0  0  0  0  0
    2.5293   75.0176    5.6090 C   0  0  0  0  0  0  0  0  0  0  0  0
    3.1061   75.2620    2.9184 C   0  0  0  0  0  0  0  0  0  0  0  0
    3.2367   74.0102    3.5167 C   0  0  0  0  0  0  0  0  0  0  0  0
   -4.5099   75.9817    5.3657 N   0  3  0  0  0  0  0  0  0  0  0  0
    3.6470   76.4527   -0.0323 H   0  0  0  0  0  0  0  0  0  0  0  0
    4.1708   77.1605    1.5081 H   0  0  0  0  0  0  0  0  0  0  0  0
    2.4186   77.0105    1.1110 H   0  0  0  0  0  0  0  0  0  0  0  0
    3.9569   70.9382    2.5643 H   0  0  0  0  0  0  0  0  0  0  0  0
    2.5988   71.4446    3.5809 H   0  0  0  0  0  0  0  0  0  0  0  0
    4.2833   71.6559    4.1441 H   0  0  0  0  0  0  0  0  0  0  0  0
    2.0563   74.5918    9.6128 H   0  0  0  0  0  0  0  0  0  0  0  0
   -6.1365   74.7236    2.8912 H   0  0  0  0  0  0  0  0  0  0  0  0
    2.0834   77.1306    5.5693 H   0  0  0  0  0  0  0  0  0  0  0  0
    2.6135   77.3756    3.1853 H   0  0  0  0  0  0  0  0  0  0  0  0
   -4.8771   73.8514    5.1138 H   0  0  0  0  0  0  0  0  0  0  0  0
   -4.4593   78.0806    4.8047 H   0  0  0  0  0  0  0  0  0  0  0  0
    3.0503   72.9363    5.3639 H   0  0  0  0  0  0  0  0  0  0  0  0
   -2.2663   74.6408    5.5955 H   0  0  0  0  0  0  0  0  0  0  0  0
   -1.9076   76.3416    5.3334 H   0  0  0  0  0  0  0  0  0  0  0  0
   -1.6254   74.7830    7.9442 H   0  0  0  0  0  0  0  0  0  0  0  0
   -1.4444   76.5546    7.8391 H   0  0  0  0  0  0  0  0  0  0  0  0
   -3.6693   76.9881    6.9877 H   0  0  0  0  0  0  0  0  0  0  0  0
   -4.0416   75.2725    7.2565 H   0  0  0  0  0  0  0  0  0  0  0  0
    0.1290   75.6119    5.7628 H   0  0  0  0  0  0  0  0  0  0  0  0
    3.0630   74.6528    7.5360 H   0  0  0  0  0  0  0  0  0  0  0  0
  1 16  1  0  0  0  0
  1 23  1  0  0  0  0
  1 24  1  0  0  0  0
  1 25  1  0  0  0  0
  2 17  1  0  0  0  0
  2 26  1  0  0  0  0
  2 27  1  0  0  0  0
  2 28  1  0  0  0  0
  3 18  1  0  0  0  0
  3 29  1  0  0  0  0
  4  7  2  0  0  0  0
  4 13  1  0  0  0  0
  4 30  1  0  0  0  0
  5  6  2  0  0  0  0
  5 19  1  0  0  0  0
  5 31  1  0  0  0  0
  6 20  1  0  0  0  0
  6 32  1  0  0  0  0
  7 22  1  0  0  0  0
  7 33  1  0  0  0  0
  8 13  1  0  0  0  0
  8 22  2  0  0  0  0
  8 34  1  0  0  0  0
  9 19  2  0  0  0  0
  9 21  1  0  0  0  0
  9 35  1  0  0  0  0
 10 11  1  0  0  0  0
 10 12  1  0  0  0  0
 10 36  1  0  0  0  0
 10 37  1  0  0  0  0
 11 14  1  0  0  0  0
 11 38  1  0  0  0  0
 11 39  1  0  0  0  0
 12 22  1  0  0  0  0
 12 40  1  0  0  0  0
 12 41  1  0  0  0  0
 14 18  1  0  0  0  0
 14 42  1  0  0  0  0
 15 18  2  0  0  0  0
 15 19  1  0  0  0  0
 15 43  1  0  0  0  0
 16 20  1  0  0  0  0
 17 21  1  0  0  0  0
 20 21  2  0  0  0  0
M  CHG  1  22   1
M  END
$$$$
