PBD
 OpenBabel04091914283D

 42 43  0  0  0  0  0  0  0  0999 V2000
    0.7397   51.0407   21.9129 C   0  0  0  0  0  0  0  0  0  0  0  0
    1.7273   47.0282   18.3038 C   0  0  0  0  0  0  0  0  0  0  0  0
    8.0183   49.7666   17.0151 S   0  0  0  0  0  0  0  0  0  0  0  0
    8.4831   47.0592   25.4957 C   0  0  0  0  0  0  0  0  0  0  0  0
    4.1943   51.2399   19.5268 C   0  0  0  0  0  0  0  0  0  0  0  0
    3.0244   51.2256   20.2855 C   0  0  0  0  0  0  0  0  0  0  0  0
    8.7356   46.9130   24.1500 C   0  0  0  0  0  0  0  0  0  0  0  0
    8.8383   49.0338   24.7598 C   0  0  0  0  0  0  0  0  0  0  0  0
    3.5093   49.1951   18.4298 C   0  0  0  0  0  0  0  0  0  0  0  0
    7.9824   48.7780   21.5734 C   0  0  0  0  0  0  0  0  0  0  0  0
    8.2597   49.2729   20.1671 C   0  0  0  0  0  0  0  0  0  0  0  0
    9.2746   48.5697   22.3425 C   0  0  0  0  0  0  0  0  0  0  0  0
    8.5432   48.3799   25.8659 N   0  0  0  0  0  0  0  0  0  0  0  0
    7.0106   49.6235   19.5151 N   0  0  0  0  0  0  0  0  0  0  0  0
    5.5778   50.2702   17.7995 N   0  0  0  0  0  0  0  0  0  0  0  0
    0.9338   50.0927   20.8683 O   0  0  0  0  0  0  0  0  0  0  0  0
    1.4168   48.1425   19.1349 O   0  0  0  0  0  0  0  0  0  0  0  0
    6.8402   49.9042   18.1913 C   0  0  0  0  0  0  0  0  0  0  0  0
    4.4287   50.2275   18.6020 C   0  0  0  0  0  0  0  0  0  0  0  0
    2.1005   50.1805   20.1480 C   0  0  0  0  0  0  0  0  0  0  0  0
    2.3513   49.1483   19.2147 C   0  0  0  0  0  0  0  0  0  0  0  0
    8.9861   48.1746   23.7059 N   0  3  0  0  0  0  0  0  0  0  0  0
   -0.2008   50.8011   22.4178 H   0  0  0  0  0  0  0  0  0  0  0  0
    0.6484   52.0571   21.5140 H   0  0  0  0  0  0  0  0  0  0  0  0
    1.5413   50.9796   22.6571 H   0  0  0  0  0  0  0  0  0  0  0  0
    0.8842   46.3317   18.3362 H   0  0  0  0  0  0  0  0  0  0  0  0
    2.6128   46.4979   18.6719 H   0  0  0  0  0  0  0  0  0  0  0  0
    1.8573   47.3323   17.2596 H   0  0  0  0  0  0  0  0  0  0  0  0
    8.2486   46.2886   26.2167 H   0  0  0  0  0  0  0  0  0  0  0  0
    4.8972   52.0632   19.6306 H   0  0  0  0  0  0  0  0  0  0  0  0
    2.8558   52.0545   20.9648 H   0  0  0  0  0  0  0  0  0  0  0  0
    8.7473   46.0442   23.5044 H   0  0  0  0  0  0  0  0  0  0  0  0
    8.9447   50.1055   24.6694 H   0  0  0  0  0  0  0  0  0  0  0  0
    3.7382   48.4185   17.7095 H   0  0  0  0  0  0  0  0  0  0  0  0
    7.4081   47.8431   21.5284 H   0  0  0  0  0  0  0  0  0  0  0  0
    7.3461   49.4998   22.1013 H   0  0  0  0  0  0  0  0  0  0  0  0
    8.7759   48.5002   19.5868 H   0  0  0  0  0  0  0  0  0  0  0  0
    8.8869   50.1714   20.1805 H   0  0  0  0  0  0  0  0  0  0  0  0
    9.8616   49.4935   22.3810 H   0  0  0  0  0  0  0  0  0  0  0  0
    9.8959   47.7912   21.8888 H   0  0  0  0  0  0  0  0  0  0  0  0
    6.2094   49.7565   20.1177 H   0  0  0  0  0  0  0  0  0  0  0  0
    5.4419   50.1457   16.8015 H   0  0  0  0  0  0  0  0  0  0  0  0
  1 16  1  0  0  0  0
  1 23  1  0  0  0  0
  1 24  1  0  0  0  0
  1 25  1  0  0  0  0
  2 17  1  0  0  0  0
  2 26  1  0  0  0  0
  2 27  1  0  0  0  0
  2 28  1  0  0  0  0
  3 18  2  0  0  0  0
  4  7  2  0  0  0  0
  4 13  1  0  0  0  0
  4 29  1  0  0  0  0
  5  6  2  0  0  0  0
  5 19  1  0  0  0  0
  5 30  1  0  0  0  0
  6 20  1  0  0  0  0
  6 31  1  0  0  0  0
  7 22  1  0  0  0  0
  7 32  1  0  0  0  0
  8 13  1  0  0  0  0
  8 22  2  0  0  0  0
  8 33  1  0  0  0  0
  9 19  2  0  0  0  0
  9 21  1  0  0  0  0
  9 34  1  0  0  0  0
 10 11  1  0  0  0  0
 10 12  1  0  0  0  0
 10 35  1  0  0  0  0
 10 36  1  0  0  0  0
 11 14  1  0  0  0  0
 11 37  1  0  0  0  0
 11 38  1  0  0  0  0
 12 22  1  0  0  0  0
 12 39  1  0  0  0  0
 12 40  1  0  0  0  0
 14 18  1  0  0  0  0
 14 41  1  0  0  0  0
 15 18  1  0  0  0  0
 15 19  1  0  0  0  0
 15 42  1  0  0  0  0
 16 20  1  0  0  0  0
 17 21  1  0  0  0  0
 20 21  2  0  0  0  0
M  CHG  1  22   1
M  END
$$$$
