PBZ
 OpenBabel04091912503D

 20 20  0  0  0  0  0  0  0  0999 V2000
   -2.8400   13.9301   14.0899 N   0  0  0  0  0  0  0  0  0  0  0  0
   -1.7204   12.1715   14.9581 N   0  0  0  0  0  0  0  0  0  0  0  0
   -2.1162   13.4243   15.0564 C   0  0  0  0  0  0  0  0  0  0  0  0
   -1.7780   14.2422   16.2434 C   0  0  0  0  0  0  0  0  0  0  0  0
   -1.0448   14.4026   18.5638 C   0  0  0  0  0  0  0  0  0  0  0  0
   -1.3489   13.6398   17.4352 C   0  0  0  0  0  0  0  0  0  0  0  0
   -1.8850   15.6439   16.2251 C   0  0  0  0  0  0  0  0  0  0  0  0
   -1.5763   16.4072   17.3559 C   0  0  0  0  0  0  0  0  0  0  0  0
   -1.1575   15.7891   18.5304 C   0  0  0  0  0  0  0  0  0  0  0  0
   -0.8534   16.5333   19.6474 N   0  0  0  0  0  0  0  0  0  0  0  0
   -3.1938   14.8772   14.1374 H   0  0  0  0  0  0  0  0  0  0  0  0
   -1.1474   11.7336   15.6691 H   0  0  0  0  0  0  0  0  0  0  0  0
   -1.9589   11.5985   14.1583 H   0  0  0  0  0  0  0  0  0  0  0  0
   -0.7193   13.9064   19.4766 H   0  0  0  0  0  0  0  0  0  0  0  0
   -1.2510   12.5631   17.5202 H   0  0  0  0  0  0  0  0  0  0  0  0
   -2.1971   16.1822   15.3324 H   0  0  0  0  0  0  0  0  0  0  0  0
   -1.6608   17.4921   17.3192 H   0  0  0  0  0  0  0  0  0  0  0  0
   -0.5582   16.0800   20.5029 H   0  0  0  0  0  0  0  0  0  0  0  0
   -0.9247   17.5409   19.6388 H   0  0  0  0  0  0  0  0  0  0  0  0
   -3.0951   13.3942   13.2697 H   0  0  0  0  0  0  0  0  0  0  0  0
  1  3  2  0  0  0  0
  1 11  1  0  0  0  0
  1 20  1  0  0  0  0
  2  3  1  0  0  0  0
  2 12  1  0  0  0  0
  2 13  1  0  0  0  0
  3  4  1  0  0  0  0
  4  6  2  0  0  0  0
  4  7  1  0  0  0  0
  5  6  1  0  0  0  0
  5  9  2  0  0  0  0
  5 14  1  0  0  0  0
  6 15  1  0  0  0  0
  7  8  2  0  0  0  0
  7 16  1  0  0  0  0
  8  9  1  0  0  0  0
  8 17  1  0  0  0  0
  9 10  1  0  0  0  0
 10 18  1  0  0  0  0
 10 19  1  0  0  0  0
M  END
$$$$
