PFF
 OpenBabel04091912203D

 23 23  0  0  1  0  0  0  0  0999 V2000
   25.9393   32.2984   19.1695 N   0  3  0  0  0  0  0  0  0  0  0  0
   27.2609   31.5833   19.1144 C   0  0  2  0  0  0  0  0  0  0  0  0
   27.2260   30.2533   18.3690 C   0  0  0  0  0  0  0  0  0  0  0  0
   28.3060   29.7018   18.2021 O   0  0  0  0  0  0  0  0  0  0  0  0
   26.0358   29.9508   18.0196 O   0  0  0  0  0  0  0  0  0  0  0  0
   27.7261   31.3513   20.5459 C   0  0  0  0  0  0  0  0  0  0  0  0
   28.0261   32.6799   21.1992 C   0  0  0  0  0  0  0  0  0  0  0  0
   28.6687   33.6730   20.4545 C   0  0  0  0  0  0  0  0  0  0  0  0
   27.6666   32.9358   22.5234 C   0  0  0  0  0  0  0  0  0  0  0  0
   28.9391   34.9110   21.0036 C   0  0  0  0  0  0  0  0  0  0  0  0
   27.9463   34.1799   23.0863 C   0  0  0  0  0  0  0  0  0  0  0  0
   28.5831   35.1514   22.3206 C   0  0  0  0  0  0  0  0  0  0  0  0
   28.8593   36.3476   22.8513 F   0  0  0  0  0  0  0  0  0  0  0  0
   26.0121   33.1779   19.6787 H   0  0  0  0  0  0  0  0  0  0  0  0
   25.6228   32.4274   18.2021 H   0  0  0  0  0  0  0  0  0  0  0  0
   27.9312   32.2547   18.5749 H   0  0  0  0  0  0  0  0  0  0  0  0
   28.6299   30.7374   20.5527 H   0  0  0  0  0  0  0  0  0  0  0  0
   26.9433   30.8305   21.1134 H   0  0  0  0  0  0  0  0  0  0  0  0
   28.9703   33.5008   19.4247 H   0  0  0  0  0  0  0  0  0  0  0  0
   27.1731   32.1700   23.1148 H   0  0  0  0  0  0  0  0  0  0  0  0
   29.4372   35.6715   20.4149 H   0  0  0  0  0  0  0  0  0  0  0  0
   27.6772   34.3901   24.1166 H   0  0  0  0  0  0  0  0  0  0  0  0
   25.2792   31.6518   19.6095 H   0  0  0  0  0  0  0  0  0  0  0  0
  1  2  1  0  0  0  0
  1 14  1  0  0  0  0
  1 15  1  0  0  0  0
  1 23  1  0  0  0  0
  2  3  1  0  0  0  0
  2  6  1  0  0  0  0
  2 16  1  6  0  0  0
  3  4  2  0  0  0  0
  3  5  1  0  0  0  0
  6  7  1  0  0  0  0
  6 17  1  0  0  0  0
  6 18  1  0  0  0  0
  7  8  2  0  0  0  0
  7  9  1  0  0  0  0
  8 10  1  0  0  0  0
  8 19  1  0  0  0  0
  9 11  2  0  0  0  0
  9 20  1  0  0  0  0
 10 12  2  0  0  0  0
 10 21  1  0  0  0  0
 11 12  1  0  0  0  0
 11 22  1  0  0  0  0
 12 13  1  0  0  0  0
M  CHG  1   1   1
M  END
$$$$
