PFL
 OpenBabel04091911583D

 31 31  0  0  0  0  0  0  0  0999 V2000
   33.4948    0.2041   33.7812 O   0  0  0  0  0  0  0  0  0  0  0  0
   33.8721    0.0413   35.0895 C   0  0  0  0  0  0  0  0  0  0  0  0
   32.8844   -0.0777   36.0626 C   0  0  0  0  0  0  0  0  0  0  0  0
   35.2340    0.0058   35.3623 C   0  0  0  0  0  0  0  0  0  0  0  0
   33.3100   -0.2598   37.3880 C   0  0  0  0  0  0  0  0  0  0  0  0
   31.3845   -0.0391   35.8099 C   0  0  0  0  0  0  0  0  0  0  0  0
   34.6681   -0.3094   37.6872 C   0  0  0  0  0  0  0  0  0  0  0  0
   35.6267   -0.1823   36.6979 C   0  0  0  0  0  0  0  0  0  0  0  0
   36.2928    0.1217   34.2786 C   0  0  0  0  0  0  0  0  0  0  0  0
   30.8252   -1.4504   35.6569 C   0  0  0  0  0  0  0  0  0  0  0  0
   31.0110    0.8026   34.5981 C   0  0  0  0  0  0  0  0  0  0  0  0
   36.9669   -1.2206   34.0847 C   0  0  0  0  0  0  0  0  0  0  0  0
   37.2929    1.2101   34.6004 C   0  0  0  0  0  0  0  0  0  0  0  0
   34.2520    0.2750   33.2213 H   0  0  0  0  0  0  0  0  0  0  0  0
   32.5803   -0.3577   38.1780 H   0  0  0  0  0  0  0  0  0  0  0  0
   30.8946    0.4231   36.6760 H   0  0  0  0  0  0  0  0  0  0  0  0
   34.9879   -0.4528   38.7323 H   0  0  0  0  0  0  0  0  0  0  0  0
   36.6778   -0.2323   36.9473 H   0  0  0  0  0  0  0  0  0  0  0  0
   35.8736    0.4072   33.3122 H   0  0  0  0  0  0  0  0  0  0  0  0
   29.7453   -1.4235   35.4758 H   0  0  0  0  0  0  0  0  0  0  0  0
   31.0029   -2.0331   36.5673 H   0  0  0  0  0  0  0  0  0  0  0  0
   31.3036   -1.9673   34.8179 H   0  0  0  0  0  0  0  0  0  0  0  0
   31.4119    1.8151   34.7016 H   0  0  0  0  0  0  0  0  0  0  0  0
   29.9267    0.8597   34.4748 H   0  0  0  0  0  0  0  0  0  0  0  0
   31.3971    0.3603   33.6779 H   0  0  0  0  0  0  0  0  0  0  0  0
   37.7163   -1.1608   33.2895 H   0  0  0  0  0  0  0  0  0  0  0  0
   36.2362   -1.9922   33.8184 H   0  0  0  0  0  0  0  0  0  0  0  0
   37.4649   -1.5206   35.0080 H   0  0  0  0  0  0  0  0  0  0  0  0
   36.7905    2.1758   34.7194 H   0  0  0  0  0  0  0  0  0  0  0  0
   38.0325    1.2968   33.7992 H   0  0  0  0  0  0  0  0  0  0  0  0
   37.8172    0.9747   35.5242 H   0  0  0  0  0  0  0  0  0  0  0  0
  1  2  1  0  0  0  0
  1 14  1  0  0  0  0
  2  3  2  0  0  0  0
  2  4  1  0  0  0  0
  3  5  1  0  0  0  0
  3  6  1  0  0  0  0
  4  8  2  0  0  0  0
  4  9  1  0  0  0  0
  5  7  2  0  0  0  0
  5 15  1  0  0  0  0
  6 10  1  0  0  0  0
  6 11  1  0  0  0  0
  6 16  1  0  0  0  0
  7  8  1  0  0  0  0
  7 17  1  0  0  0  0
  8 18  1  0  0  0  0
  9 12  1  0  0  0  0
  9 13  1  0  0  0  0
  9 19  1  0  0  0  0
 10 20  1  0  0  0  0
 10 21  1  0  0  0  0
 10 22  1  0  0  0  0
 11 23  1  0  0  0  0
 11 24  1  0  0  0  0
 11 25  1  0  0  0  0
 12 26  1  0  0  0  0
 12 27  1  0  0  0  0
 12 28  1  0  0  0  0
 13 29  1  0  0  0  0
 13 30  1  0  0  0  0
 13 31  1  0  0  0  0
M  END
$$$$
