PFU
 OpenBabel04091913493D

 34 35  0  0  1  0  0  0  0  0999 V2000
   26.4955  -13.1617   15.0544 P   0  0  0  0  0  0  0  0  0  0  0  0
   22.6176   -8.1619   14.9812 C   0  0  0  0  0  0  0  0  0  0  0  0
   21.4677   -8.7970   13.3142 N   0  3  0  0  0  0  0  0  0  0  0  0
   21.8959   -5.7806   14.9449 O   0  0  0  0  0  0  0  0  0  0  0  0
   21.8765   -7.0500   14.5115 C   0  0  0  0  0  0  0  0  0  0  0  0
   22.3225   -9.2426   14.2491 N   0  0  0  0  0  0  0  0  0  0  0  0
   19.9076   -5.5493   12.7709 O   0  0  0  0  0  0  0  0  0  0  0  0
   21.1353   -7.4776   13.4313 C   0  0  0  0  0  0  0  0  0  0  0  0
   19.7974   -7.3267   11.4530 N   0  0  0  0  0  0  0  0  0  0  0  0
   20.2643   -6.7198   12.5800 C   0  0  0  0  0  0  0  0  0  0  0  0
   23.6278   -8.2103   16.0999 C   0  0  1  0  0  0  0  0  0  0  0  0
   27.4577  -12.6520   13.9927 O   0  0  0  0  0  0  0  0  0  0  0  0
   23.3620   -9.3187   17.1325 C   0  0  2  0  0  0  0  0  0  0  0  0
   22.6462   -8.8532   18.2893 O   0  0  0  0  0  0  0  0  0  0  0  0
   25.1583  -13.6535   14.5230 O   0  0  0  0  0  0  0  0  0  0  0  0
   24.7664   -9.8043   17.4681 C   0  0  2  0  0  0  0  0  0  0  0  0
   25.3600   -8.9908   18.5036 O   0  0  0  0  0  0  0  0  0  0  0  0
   27.1272  -14.0415   16.1213 O   0  0  0  0  0  0  0  0  0  0  0  0
   25.5231   -9.5734   16.1557 C   0  0  2  0  0  0  0  0  0  0  0  0
   24.9600   -8.3786   15.5673 O   0  0  0  0  0  0  0  0  0  0  0  0
   25.4409  -10.7767   15.2189 C   0  0  0  0  0  0  0  0  0  0  0  0
   26.1040  -11.8217   15.8967 O   0  0  0  0  0  0  0  0  0  0  0  0
   21.1638   -9.4695   12.6196 H   0  0  0  0  0  0  0  0  0  0  0  0
   22.8212   -5.4967   15.0431 H   0  0  0  0  0  0  0  0  0  0  0  0
   20.1524   -8.2036   11.0919 H   0  0  0  0  0  0  0  0  0  0  0  0
   19.3070   -6.7208   10.8119 H   0  0  0  0  0  0  0  0  0  0  0  0
   23.6164   -7.2370   16.6074 H   0  0  0  0  0  0  0  0  0  0  0  0
   22.7811  -10.1425   16.7060 H   0  0  0  0  0  0  0  0  0  0  0  0
   21.8216   -8.4551   17.9709 H   0  0  0  0  0  0  0  0  0  0  0  0
   24.7689  -10.8382   17.8279 H   0  0  0  0  0  0  0  0  0  0  0  0
   26.2104   -9.4317   18.6886 H   0  0  0  0  0  0  0  0  0  0  0  0
   26.5783   -9.3596   16.3644 H   0  0  0  0  0  0  0  0  0  0  0  0
   25.9169  -10.5413   14.2604 H   0  0  0  0  0  0  0  0  0  0  0  0
   24.4030  -11.0573   15.0136 H   0  0  0  0  0  0  0  0  0  0  0  0
  1 12  2  0  0  0  0
  1 15  1  0  0  0  0
  1 18  1  0  0  0  0
  1 22  1  0  0  0  0
  2  5  2  0  0  0  0
  2  6  1  0  0  0  0
  2 11  1  0  0  0  0
  3  6  1  0  0  0  0
  3  8  2  0  0  0  0
  3 23  1  0  0  0  0
  4  5  1  0  0  0  0
  4 24  1  0  0  0  0
  5  8  1  0  0  0  0
  7 10  2  0  0  0  0
  8 10  1  0  0  0  0
  9 10  1  0  0  0  0
  9 25  1  0  0  0  0
  9 26  1  0  0  0  0
 11 13  1  0  0  0  0
 11 20  1  0  0  0  0
 11 27  1  1  0  0  0
 13 14  1  0  0  0  0
 13 16  1  0  0  0  0
 13 28  1  6  0  0  0
 14 29  1  0  0  0  0
 16 17  1  0  0  0  0
 16 19  1  0  0  0  0
 16 30  1  1  0  0  0
 17 31  1  0  0  0  0
 19 20  1  0  0  0  0
 19 21  1  0  0  0  0
 19 32  1  1  0  0  0
 21 22  1  0  0  0  0
 21 33  1  0  0  0  0
 21 34  1  0  0  0  0
M  CHG  1   3   1
M  END
$$$$
