PGH
 OpenBabel04091911103D

 14 13  0  0  0  0  0  0  0  0999 V2000
    2.7274    1.6760    5.1453 C   0  0  0  0  0  0  0  0  0  0  0  0
    1.9661    2.7522    5.9547 C   0  0  0  0  0  0  0  0  0  0  0  0
    3.0896    0.5696    5.9394 N   0  0  0  0  0  0  0  0  0  0  0  0
    3.7908   -0.4249    5.1974 O   0  0  0  0  0  0  0  0  0  0  0  0
    3.0204    1.7530    3.9598 O   0  0  0  0  0  0  0  0  0  0  0  0
    1.6146    3.8378    5.1484 O   0  0  0  0  0  0  0  0  0  0  0  0
    0.2982    5.9337    4.8895 O   0  0  0  0  0  0  0  0  0  0  0  0
    0.3531    4.6590    7.1289 O   0  0  0  0  0  0  0  0  0  0  0  0
    2.4529    5.8625    6.3042 O   0  0  0  0  0  0  0  0  0  0  0  0
    1.1418    5.2085    5.9196 P   0  0  0  0  0  0  0  0  0  0  0  0
    2.6092    3.0768    6.7930 H   0  0  0  0  0  0  0  0  0  0  0  0
    1.0592    2.2941    6.3673 H   0  0  0  0  0  0  0  0  0  0  0  0
    2.3590    0.2130    6.5368 H   0  0  0  0  0  0  0  0  0  0  0  0
    4.1760   -0.9856    5.9005 H   0  0  0  0  0  0  0  0  0  0  0  0
  1  2  1  0  0  0  0
  1  3  1  0  0  0  0
  1  5  2  0  0  0  0
  2  6  1  0  0  0  0
  2 11  1  0  0  0  0
  2 12  1  0  0  0  0
  3  4  1  0  0  0  0
  3 13  1  0  0  0  0
  4 14  1  0  0  0  0
  6 10  1  0  0  0  0
  7 10  2  0  0  0  0
  8 10  1  0  0  0  0
  9 10  1  0  0  0  0
M  END
$$$$
