PGH
 OpenBabel04091915433D

 14 13  0  0  0  0  0  0  0  0999 V2000
  -22.2159    7.3429   12.2554 C   0  0  0  0  0  0  0  0  0  0  0  0
  -23.7274    7.4818   12.4685 C   0  0  0  0  0  0  0  0  0  0  0  0
  -21.6809    6.2393   12.9069 N   0  0  0  0  0  0  0  0  0  0  0  0
  -20.3005    5.9735   12.7804 O   0  0  0  0  0  0  0  0  0  0  0  0
  -21.5044    8.0634   11.5651 O   0  0  0  0  0  0  0  0  0  0  0  0
  -24.0523    8.7983   12.8454 O   0  0  0  0  0  0  0  0  0  0  0  0
  -25.5625   10.4468   13.8964 O   0  0  0  0  0  0  0  0  0  0  0  0
  -26.0161    7.9170   14.0823 O   0  0  0  0  0  0  0  0  0  0  0  0
  -26.2959    9.0935   11.8335 O   0  0  0  0  0  0  0  0  0  0  0  0
  -25.6143    9.0920   13.1880 P   0  0  0  0  0  0  0  0  0  0  0  0
  -24.0494    6.7801   13.2465 H   0  0  0  0  0  0  0  0  0  0  0  0
  -24.2269    7.2049   11.5250 H   0  0  0  0  0  0  0  0  0  0  0  0
  -22.1840    5.7575   13.6371 H   0  0  0  0  0  0  0  0  0  0  0  0
  -19.9260    6.8795   12.7095 H   0  0  0  0  0  0  0  0  0  0  0  0
  1  2  1  0  0  0  0
  1  3  1  0  0  0  0
  1  5  2  0  0  0  0
  2  6  1  0  0  0  0
  2 11  1  0  0  0  0
  2 12  1  0  0  0  0
  3  4  1  0  0  0  0
  3 13  1  0  0  0  0
  4 14  1  0  0  0  0
  6 10  1  0  0  0  0
  7 10  2  0  0  0  0
  8 10  1  0  0  0  0
  9 10  1  0  0  0  0
M  END
$$$$
