PH4
 OpenBabel04091911113D

 27 26  0  0  0  0  0  0  0  0999 V2000
   -3.3795   -4.4655   -5.7085 N   0  0  0  0  0  0  0  0  0  0  0  0
   -4.0242   -5.2415   -6.7716 C   0  0  0  0  0  0  0  0  0  0  0  0
   -5.5482   -5.2985   -6.6566 C   0  0  0  0  0  0  0  0  0  0  0  0
   -6.1346   -6.1681   -7.7825 C   0  0  0  0  0  0  0  0  0  0  0  0
   -7.3559   -7.6331   -9.7337 O   0  0  0  0  0  0  0  0  0  0  0  0
   -8.0572   -6.2952   -9.5698 P   0  0  0  0  0  0  0  0  0  0  0  0
   -8.0400   -5.4108  -10.8035 O   0  0  0  0  0  0  0  0  0  0  0  0
   -9.4306   -6.4227   -8.9131 O   0  0  0  0  0  0  0  0  0  0  0  0
   -7.1830   -5.4778   -8.4429 O   0  0  0  0  0  0  0  0  0  0  0  0
   -3.7084   -4.9157   -4.4028 O   0  0  0  0  0  0  0  0  0  0  0  0
   -2.5942   -3.3166   -5.8036 C   0  0  0  0  0  0  0  0  0  0  0  0
   -2.1524   -2.7871   -4.7768 O   0  0  0  0  0  0  0  0  0  0  0  0
   -2.3068   -2.7874   -7.2435 C   0  0  0  0  0  0  0  0  0  0  0  0
   -1.3677   -1.7326   -7.2270 O   0  0  0  0  0  0  0  0  0  0  0  0
   -0.8522   -1.1309   -8.6614 P   0  0  0  0  0  0  0  0  0  0  0  0
   -2.1230   -0.8691   -9.4526 O   0  0  0  0  0  0  0  0  0  0  0  0
    0.0370   -2.2267   -9.2320 O   0  0  0  0  0  0  0  0  0  0  0  0
   -0.0970    0.1319   -8.2640 O   0  0  0  0  0  0  0  0  0  0  0  0
   -3.5987   -6.2517   -6.7244 H   0  0  0  0  0  0  0  0  0  0  0  0
   -3.7554   -4.8125   -7.7338 H   0  0  0  0  0  0  0  0  0  0  0  0
   -5.9539   -4.2806   -6.6808 H   0  0  0  0  0  0  0  0  0  0  0  0
   -5.8367   -5.7235   -5.6859 H   0  0  0  0  0  0  0  0  0  0  0  0
   -6.5189   -7.0972   -7.3472 H   0  0  0  0  0  0  0  0  0  0  0  0
   -5.3634   -6.4225   -8.5163 H   0  0  0  0  0  0  0  0  0  0  0  0
   -3.2341   -5.7628   -4.3543 H   0  0  0  0  0  0  0  0  0  0  0  0
   -3.2553   -2.4317   -7.6627 H   0  0  0  0  0  0  0  0  0  0  0  0
   -1.9263   -3.6104   -7.8584 H   0  0  0  0  0  0  0  0  0  0  0  0
  1  2  1  0  0  0  0
  1 10  1  0  0  0  0
  1 11  1  0  0  0  0
  2  3  1  0  0  0  0
  2 19  1  0  0  0  0
  2 20  1  0  0  0  0
  3  4  1  0  0  0  0
  3 21  1  0  0  0  0
  3 22  1  0  0  0  0
  4  9  1  0  0  0  0
  4 23  1  0  0  0  0
  4 24  1  0  0  0  0
  5  6  2  0  0  0  0
  6  7  1  0  0  0  0
  6  8  1  0  0  0  0
  6  9  1  0  0  0  0
 10 25  1  0  0  0  0
 11 12  2  0  0  0  0
 11 13  1  0  0  0  0
 13 14  1  0  0  0  0
 13 26  1  0  0  0  0
 13 27  1  0  0  0  0
 14 15  1  0  0  0  0
 15 16  2  0  0  0  0
 15 17  1  0  0  0  0
 15 18  1  0  0  0  0
M  END
$$$$
