PL8
 OpenBabel04091915453D

 45 46  0  0  0  0  0  0  0  0999 V2000
   22.8060  -11.6897  -28.0726 C   0  0  0  0  0  0  0  0  0  0  0  0
   17.5978   -7.4053  -29.0013 O   0  0  0  0  0  0  0  0  0  0  0  0
   22.8258   -3.8238  -28.0802 O   0  0  0  0  0  0  0  0  0  0  0  0
   14.9275   -0.4733  -29.4388 O   0  0  0  0  0  0  0  0  0  0  0  0
   20.9285   -9.6009  -28.4357 O   0  0  0  0  0  0  0  0  0  0  0  0
   25.3110   -3.3967  -27.6924 O   0  0  0  0  0  0  0  0  0  0  0  0
   23.7103   -3.6170  -25.6904 O   0  0  0  0  0  0  0  0  0  0  0  0
   19.2762   -3.9432  -30.2292 C   0  0  0  0  0  0  0  0  0  0  0  0
   20.0945   -4.8069  -29.6459 C   0  0  0  0  0  0  0  0  0  0  0  0
   24.9106   -8.6739  -28.0972 C   0  0  0  0  0  0  0  0  0  0  0  0
   15.4809   -1.2946  -30.4557 C   0  0  0  0  0  0  0  0  0  0  0  0
   16.4094   -2.3370  -29.8573 C   0  0  0  0  0  0  0  0  0  0  0  0
   16.9716   -3.2203  -30.9592 C   0  0  0  0  0  0  0  0  0  0  0  0
   21.7191   -6.7691  -28.5837 C   0  0  0  0  0  0  0  0  0  0  0  0
   24.5353   -6.1834  -28.3428 C   0  0  0  0  0  0  0  0  0  0  0  0
   20.2954   -7.1219  -28.7306 N   0  0  0  0  0  0  0  0  0  0  0  0
   17.2845   -5.3750  -29.9670 N   0  0  0  0  0  0  0  0  0  0  0  0
   24.5383   -9.9819  -28.0518 N   0  0  0  0  0  0  0  0  0  0  0  0
   24.2945   -5.5774  -27.0935 O   0  0  0  0  0  0  0  0  0  0  0  0
   23.2034  -10.2441  -28.1545 C   0  0  0  0  0  0  0  0  0  0  0  0
   17.8481   -4.2851  -30.3510 C   0  0  0  0  0  0  0  0  0  0  0  0
   24.0313   -7.6147  -28.2844 C   0  0  0  0  0  0  0  0  0  0  0  0
   22.2475   -9.2532  -28.3190 C   0  0  0  0  0  0  0  0  0  0  0  0
   19.5942   -6.1358  -29.2029 C   0  0  0  0  0  0  0  0  0  0  0  0
   22.6587   -7.9229  -28.3781 C   0  0  0  0  0  0  0  0  0  0  0  0
   18.0809   -6.3386  -29.3767 C   0  0  0  0  0  0  0  0  0  0  0  0
   24.0115   -3.9679  -27.1350 P   0  0  0  0  0  0  0  0  0  0  0  0
   21.7293  -11.8397  -28.1722 H   0  0  0  0  0  0  0  0  0  0  0  0
   23.1094  -12.1023  -27.1040 H   0  0  0  0  0  0  0  0  0  0  0  0
   23.2944  -12.2553  -28.8740 H   0  0  0  0  0  0  0  0  0  0  0  0
   15.6704   -0.1068  -28.9272 H   0  0  0  0  0  0  0  0  0  0  0  0
   20.4277   -8.7521  -28.4835 H   0  0  0  0  0  0  0  0  0  0  0  0
   19.6464   -2.9836  -30.5758 H   0  0  0  0  0  0  0  0  0  0  0  0
   21.1366   -4.5340  -29.5246 H   0  0  0  0  0  0  0  0  0  0  0  0
   25.9722   -8.4885  -27.9854 H   0  0  0  0  0  0  0  0  0  0  0  0
   16.0181   -0.6552  -31.1635 H   0  0  0  0  0  0  0  0  0  0  0  0
   14.6565   -1.7784  -30.9888 H   0  0  0  0  0  0  0  0  0  0  0  0
   15.8716   -2.9346  -29.1108 H   0  0  0  0  0  0  0  0  0  0  0  0
   17.2190   -1.8443  -29.3034 H   0  0  0  0  0  0  0  0  0  0  0  0
   17.5559   -2.6277  -31.6720 H   0  0  0  0  0  0  0  0  0  0  0  0
   16.1687   -3.7122  -31.5205 H   0  0  0  0  0  0  0  0  0  0  0  0
   21.8127   -6.0846  -27.7369 H   0  0  0  0  0  0  0  0  0  0  0  0
   22.0618   -6.3273  -29.5255 H   0  0  0  0  0  0  0  0  0  0  0  0
   25.6032   -6.1481  -28.5806 H   0  0  0  0  0  0  0  0  0  0  0  0
   24.0361   -5.6487  -29.1584 H   0  0  0  0  0  0  0  0  0  0  0  0
  1 20  1  0  0  0  0
  1 28  1  0  0  0  0
  1 29  1  0  0  0  0
  1 30  1  0  0  0  0
  2 26  2  0  0  0  0
  3 27  2  0  0  0  0
  4 11  1  0  0  0  0
  4 31  1  0  0  0  0
  5 23  1  0  0  0  0
  5 32  1  0  0  0  0
  6 27  1  0  0  0  0
  7 27  1  0  0  0  0
  8  9  2  0  0  0  0
  8 21  1  0  0  0  0
  8 33  1  0  0  0  0
  9 24  1  0  0  0  0
  9 34  1  0  0  0  0
 10 18  2  0  0  0  0
 10 22  1  0  0  0  0
 10 35  1  0  0  0  0
 11 12  1  0  0  0  0
 11 36  1  0  0  0  0
 11 37  1  0  0  0  0
 12 13  1  0  0  0  0
 12 38  1  0  0  0  0
 12 39  1  0  0  0  0
 13 21  1  0  0  0  0
 13 40  1  0  0  0  0
 13 41  1  0  0  0  0
 14 16  1  0  0  0  0
 14 25  1  0  0  0  0
 14 42  1  0  0  0  0
 14 43  1  0  0  0  0
 15 19  1  0  0  0  0
 15 22  1  0  0  0  0
 15 44  1  0  0  0  0
 15 45  1  0  0  0  0
 16 24  2  0  0  0  0
 17 21  2  0  0  0  0
 17 26  1  0  0  0  0
 18 20  1  0  0  0  0
 19 27  1  0  0  0  0
 20 23  2  0  0  0  0
 22 25  2  0  0  0  0
 23 25  1  0  0  0  0
 24 26  1  0  0  0  0
M  END
$$$$
