PLM
 OpenBabel04091914523D

 49 48  0  0  0  0  0  0  0  0999 V2000
  -30.7903   17.1119  -12.9837 C   0  0  0  0  0  0  0  0  0  0  0  0
  -30.8477   15.9233  -13.4004 O   0  0  0  0  0  0  0  0  0  0  0  0
  -29.7960   17.8575  -12.7899 O   0  0  0  0  0  0  0  0  0  0  0  0
  -32.1442   17.7414  -12.6630 C   0  0  0  0  0  0  0  0  0  0  0  0
  -32.5329   17.3676  -11.2349 C   0  0  0  0  0  0  0  0  0  0  0  0
  -32.9911   18.5879  -10.4263 C   0  0  0  0  0  0  0  0  0  0  0  0
  -32.1902   18.7375   -9.1364 C   0  0  0  0  0  0  0  0  0  0  0  0
  -32.5396   17.6633   -8.1068 C   0  0  0  0  0  0  0  0  0  0  0  0
  -33.8636   17.9582   -7.4052 C   0  0  0  0  0  0  0  0  0  0  0  0
  -34.9443   16.8775   -7.5542 C   0  0  0  0  0  0  0  0  0  0  0  0
  -35.9096   16.9538   -8.7534 C   0  0  0  0  0  0  0  0  0  0  0  0
  -36.5759   18.3073   -9.0435 C   0  0  0  0  0  0  0  0  0  0  0  0
  -38.1085   18.3710   -8.9568 C   0  0  0  0  0  0  0  0  0  0  0  0
  -38.8237   17.8024   -7.7323 C   0  0  0  0  0  0  0  0  0  0  0  0
  -38.2034   18.0036   -6.3441 C   0  0  0  0  0  0  0  0  0  0  0  0
  -37.6116   19.3787   -6.0310 C   0  0  0  0  0  0  0  0  0  0  0  0
  -36.3050   19.3236   -5.2254 C   0  0  0  0  0  0  0  0  0  0  0  0
  -36.2995   18.4062   -4.0117 C   0  0  0  0  0  0  0  0  0  0  0  0
  -32.9004   17.3793  -13.3671 H   0  0  0  0  0  0  0  0  0  0  0  0
  -32.0625   18.8235  -12.8050 H   0  0  0  0  0  0  0  0  0  0  0  0
  -31.7081   16.8523  -10.7261 H   0  0  0  0  0  0  0  0  0  0  0  0
  -33.3551   16.6404  -11.2699 H   0  0  0  0  0  0  0  0  0  0  0  0
  -34.0531   18.4900  -10.1960 H   0  0  0  0  0  0  0  0  0  0  0  0
  -32.9027   19.5148  -11.0006 H   0  0  0  0  0  0  0  0  0  0  0  0
  -32.3642   19.7338   -8.7118 H   0  0  0  0  0  0  0  0  0  0  0  0
  -31.1189   18.6866   -9.3671 H   0  0  0  0  0  0  0  0  0  0  0  0
  -31.7466   17.6676   -7.3478 H   0  0  0  0  0  0  0  0  0  0  0  0
  -32.5357   16.6627   -8.5486 H   0  0  0  0  0  0  0  0  0  0  0  0
  -34.2382   18.9515   -7.6748 H   0  0  0  0  0  0  0  0  0  0  0  0
  -33.6241   18.0196   -6.3339 H   0  0  0  0  0  0  0  0  0  0  0  0
  -35.5389   16.8912   -6.6397 H   0  0  0  0  0  0  0  0  0  0  0  0
  -34.4716   15.8876   -7.5537 H   0  0  0  0  0  0  0  0  0  0  0  0
  -36.6772   16.1834   -8.6186 H   0  0  0  0  0  0  0  0  0  0  0  0
  -35.3511   16.6503   -9.6443 H   0  0  0  0  0  0  0  0  0  0  0  0
  -36.3309   18.5802  -10.0805 H   0  0  0  0  0  0  0  0  0  0  0  0
  -36.1472   19.1094   -8.4420 H   0  0  0  0  0  0  0  0  0  0  0  0
  -38.5245   17.8740   -9.8429 H   0  0  0  0  0  0  0  0  0  0  0  0
  -38.4045   19.4241   -9.0609 H   0  0  0  0  0  0  0  0  0  0  0  0
  -38.9278   16.7155   -7.8792 H   0  0  0  0  0  0  0  0  0  0  0  0
  -39.8464   18.1835   -7.7221 H   0  0  0  0  0  0  0  0  0  0  0  0
  -37.4671   17.2190   -6.2130 H   0  0  0  0  0  0  0  0  0  0  0  0
  -38.9797   17.7874   -5.5984 H   0  0  0  0  0  0  0  0  0  0  0  0
  -38.3453   19.9654   -5.4716 H   0  0  0  0  0  0  0  0  0  0  0  0
  -37.4110   19.9533   -6.9395 H   0  0  0  0  0  0  0  0  0  0  0  0
  -36.0357   20.3379   -4.9103 H   0  0  0  0  0  0  0  0  0  0  0  0
  -35.5041   19.0162   -5.8877 H   0  0  0  0  0  0  0  0  0  0  0  0
  -35.2985   18.3902   -3.5660 H   0  0  0  0  0  0  0  0  0  0  0  0
  -36.5435   17.3711   -4.2692 H   0  0  0  0  0  0  0  0  0  0  0  0
  -37.0072   18.7510   -3.2583 H   0  0  0  0  0  0  0  0  0  0  0  0
  1  2  2  0  0  0  0
  1  3  1  0  0  0  0
  1  4  1  0  0  0  0
  4  5  1  0  0  0  0
  4 19  1  0  0  0  0
  4 20  1  0  0  0  0
  5  6  1  0  0  0  0
  5 21  1  0  0  0  0
  5 22  1  0  0  0  0
  6  7  1  0  0  0  0
  6 23  1  0  0  0  0
  6 24  1  0  0  0  0
  7  8  1  0  0  0  0
  7 25  1  0  0  0  0
  7 26  1  0  0  0  0
  8  9  1  0  0  0  0
  8 27  1  0  0  0  0
  8 28  1  0  0  0  0
  9 10  1  0  0  0  0
  9 29  1  0  0  0  0
  9 30  1  0  0  0  0
 10 11  1  0  0  0  0
 10 31  1  0  0  0  0
 10 32  1  0  0  0  0
 11 12  1  0  0  0  0
 11 33  1  0  0  0  0
 11 34  1  0  0  0  0
 12 13  1  0  0  0  0
 12 35  1  0  0  0  0
 12 36  1  0  0  0  0
 13 14  1  0  0  0  0
 13 37  1  0  0  0  0
 13 38  1  0  0  0  0
 14 15  1  0  0  0  0
 14 39  1  0  0  0  0
 14 40  1  0  0  0  0
 15 16  1  0  0  0  0
 15 41  1  0  0  0  0
 15 42  1  0  0  0  0
 16 17  1  0  0  0  0
 16 43  1  0  0  0  0
 16 44  1  0  0  0  0
 17 18  1  0  0  0  0
 17 45  1  0  0  0  0
 17 46  1  0  0  0  0
 18 47  1  0  0  0  0
 18 48  1  0  0  0  0
 18 49  1  0  0  0  0
M  END
$$$$
