PLM
 OpenBabel04091916063D

 49 48  0  0  0  0  0  0  0  0999 V2000
    0.3280   -0.4460   11.3523 C   0  0  0  0  0  0  0  0  0  0  0  0
   -0.4349   -1.3218   10.8440 O   0  0  0  0  0  0  0  0  0  0  0  0
    0.1293    0.3182   12.3337 O   0  0  0  0  0  0  0  0  0  0  0  0
    1.7197   -0.2986   10.6895 C   0  0  0  0  0  0  0  0  0  0  0  0
    1.7107   -0.4087    9.1694 C   0  0  0  0  0  0  0  0  0  0  0  0
    3.0793   -0.7962    8.5910 C   0  0  0  0  0  0  0  0  0  0  0  0
    3.7276    0.3171    7.7569 C   0  0  0  0  0  0  0  0  0  0  0  0
    4.1544   -0.1545    6.3611 C   0  0  0  0  0  0  0  0  0  0  0  0
    5.4852    0.4675    5.9311 C   0  0  0  0  0  0  0  0  0  0  0  0
    5.8942    0.0005    4.5312 C   0  0  0  0  0  0  0  0  0  0  0  0
    7.2902    0.5038    4.1558 C   0  0  0  0  0  0  0  0  0  0  0  0
    7.7019    0.0564    2.7540 C   0  0  0  0  0  0  0  0  0  0  0  0
    8.9732    0.7563    2.2760 C   0  0  0  0  0  0  0  0  0  0  0  0
    9.1890    0.5321    0.7766 C   0  0  0  0  0  0  0  0  0  0  0  0
   10.6545    0.2384    0.4534 C   0  0  0  0  0  0  0  0  0  0  0  0
   11.1513    1.0213   -0.7597 C   0  0  0  0  0  0  0  0  0  0  0  0
   12.3066    0.3020   -1.4514 C   0  0  0  0  0  0  0  0  0  0  0  0
   12.8393    1.1093   -2.6224 C   0  0  0  0  0  0  0  0  0  0  0  0
    2.3369   -1.1073   11.1135 H   0  0  0  0  0  0  0  0  0  0  0  0
    2.1726    0.6420   10.9875 H   0  0  0  0  0  0  0  0  0  0  0  0
    1.3688    0.5475    8.7615 H   0  0  0  0  0  0  0  0  0  0  0  0
    0.9826   -1.1585    8.8393 H   0  0  0  0  0  0  0  0  0  0  0  0
    2.9476   -1.7015    7.9849 H   0  0  0  0  0  0  0  0  0  0  0  0
    3.7736   -1.0729    9.3944 H   0  0  0  0  0  0  0  0  0  0  0  0
    4.5977    0.6937    8.3077 H   0  0  0  0  0  0  0  0  0  0  0  0
    3.0461    1.1662    7.6370 H   0  0  0  0  0  0  0  0  0  0  0  0
    3.3720    0.1196    5.6417 H   0  0  0  0  0  0  0  0  0  0  0  0
    4.2513   -1.2451    6.3304 H   0  0  0  0  0  0  0  0  0  0  0  0
    6.2616    0.1826    6.6517 H   0  0  0  0  0  0  0  0  0  0  0  0
    5.4068    1.5611    5.9495 H   0  0  0  0  0  0  0  0  0  0  0  0
    5.1622    0.3698    3.8027 H   0  0  0  0  0  0  0  0  0  0  0  0
    5.8768   -1.0949    4.4880 H   0  0  0  0  0  0  0  0  0  0  0  0
    8.0210    0.1291    4.8820 H   0  0  0  0  0  0  0  0  0  0  0  0
    7.2990    1.5983    4.2059 H   0  0  0  0  0  0  0  0  0  0  0  0
    6.8900    0.2582    2.0475 H   0  0  0  0  0  0  0  0  0  0  0  0
    7.8807   -1.0267    2.7538 H   0  0  0  0  0  0  0  0  0  0  0  0
    9.8238    0.3841    2.8581 H   0  0  0  0  0  0  0  0  0  0  0  0
    8.9096    1.8358    2.4596 H   0  0  0  0  0  0  0  0  0  0  0  0
    8.8317    1.4146    0.2306 H   0  0  0  0  0  0  0  0  0  0  0  0
    8.5811   -0.3120    0.4243 H   0  0  0  0  0  0  0  0  0  0  0  0
   10.7564   -0.8399    0.2799 H   0  0  0  0  0  0  0  0  0  0  0  0
   11.2976    0.4833    1.3060 H   0  0  0  0  0  0  0  0  0  0  0  0
   11.4801    2.0138   -0.4255 H   0  0  0  0  0  0  0  0  0  0  0  0
   10.3392    1.1715   -1.4793 H   0  0  0  0  0  0  0  0  0  0  0  0
   11.9617   -0.6722   -1.8183 H   0  0  0  0  0  0  0  0  0  0  0  0
   13.1174    0.1175   -0.7380 H   0  0  0  0  0  0  0  0  0  0  0  0
   13.6579    0.5731   -3.1122 H   0  0  0  0  0  0  0  0  0  0  0  0
   13.2193    2.0785   -2.2853 H   0  0  0  0  0  0  0  0  0  0  0  0
   12.0546    1.2850   -3.3651 H   0  0  0  0  0  0  0  0  0  0  0  0
  1  2  2  0  0  0  0
  1  3  1  0  0  0  0
  1  4  1  0  0  0  0
  4  5  1  0  0  0  0
  4 19  1  0  0  0  0
  4 20  1  0  0  0  0
  5  6  1  0  0  0  0
  5 21  1  0  0  0  0
  5 22  1  0  0  0  0
  6  7  1  0  0  0  0
  6 23  1  0  0  0  0
  6 24  1  0  0  0  0
  7  8  1  0  0  0  0
  7 25  1  0  0  0  0
  7 26  1  0  0  0  0
  8  9  1  0  0  0  0
  8 27  1  0  0  0  0
  8 28  1  0  0  0  0
  9 10  1  0  0  0  0
  9 29  1  0  0  0  0
  9 30  1  0  0  0  0
 10 11  1  0  0  0  0
 10 31  1  0  0  0  0
 10 32  1  0  0  0  0
 11 12  1  0  0  0  0
 11 33  1  0  0  0  0
 11 34  1  0  0  0  0
 12 13  1  0  0  0  0
 12 35  1  0  0  0  0
 12 36  1  0  0  0  0
 13 14  1  0  0  0  0
 13 37  1  0  0  0  0
 13 38  1  0  0  0  0
 14 15  1  0  0  0  0
 14 39  1  0  0  0  0
 14 40  1  0  0  0  0
 15 16  1  0  0  0  0
 15 41  1  0  0  0  0
 15 42  1  0  0  0  0
 16 17  1  0  0  0  0
 16 43  1  0  0  0  0
 16 44  1  0  0  0  0
 17 18  1  0  0  0  0
 17 45  1  0  0  0  0
 17 46  1  0  0  0  0
 18 47  1  0  0  0  0
 18 48  1  0  0  0  0
 18 49  1  0  0  0  0
M  END
$$$$
