PLM
 OpenBabel04091915573D

 49 48  0  0  0  0  0  0  0  0999 V2000
   -0.8063    1.7453   20.8353 C   0  0  0  0  0  0  0  0  0  0  0  0
    0.2842    1.6632   21.4982 O   0  0  0  0  0  0  0  0  0  0  0  0
   -1.7567    0.9332   20.7529 O   0  0  0  0  0  0  0  0  0  0  0  0
   -0.9619    3.0285   20.0227 C   0  0  0  0  0  0  0  0  0  0  0  0
   -1.3350    4.1608   20.9708 C   0  0  0  0  0  0  0  0  0  0  0  0
   -2.0415    5.2906   20.2330 C   0  0  0  0  0  0  0  0  0  0  0  0
   -3.3483    5.6958   20.9088 C   0  0  0  0  0  0  0  0  0  0  0  0
   -4.1002    6.7200   20.0636 C   0  0  0  0  0  0  0  0  0  0  0  0
   -3.1981    7.8832   19.6612 C   0  0  0  0  0  0  0  0  0  0  0  0
   -4.0073    9.1155   19.3117 C   0  0  0  0  0  0  0  0  0  0  0  0
   -3.1537   10.3682   19.4264 C   0  0  0  0  0  0  0  0  0  0  0  0
   -3.7973   11.4995   18.6496 C   0  0  0  0  0  0  0  0  0  0  0  0
   -3.1467   12.8215   18.9959 C   0  0  0  0  0  0  0  0  0  0  0  0
   -3.9329   13.9481   18.3504 C   0  0  0  0  0  0  0  0  0  0  0  0
   -3.1422   15.2398   18.4606 C   0  0  0  0  0  0  0  0  0  0  0  0
   -4.0236   16.4464   18.1592 C   0  0  0  0  0  0  0  0  0  0  0  0
   -3.6895   17.0633   16.8086 C   0  0  0  0  0  0  0  0  0  0  0  0
   -4.5004   18.3210   16.5645 C   0  0  0  0  0  0  0  0  0  0  0  0
   -1.7497    2.8864   19.2725 H   0  0  0  0  0  0  0  0  0  0  0  0
   -0.0349    3.2722   19.4880 H   0  0  0  0  0  0  0  0  0  0  0  0
   -0.4236    4.5580   21.4361 H   0  0  0  0  0  0  0  0  0  0  0  0
   -1.9786    3.7805   21.7708 H   0  0  0  0  0  0  0  0  0  0  0  0
   -2.2631    4.9975   19.2002 H   0  0  0  0  0  0  0  0  0  0  0  0
   -1.3704    6.1555   20.1931 H   0  0  0  0  0  0  0  0  0  0  0  0
   -3.1395    6.1231   21.8965 H   0  0  0  0  0  0  0  0  0  0  0  0
   -3.9850    4.8159   21.0559 H   0  0  0  0  0  0  0  0  0  0  0  0
   -4.9591    7.0878   20.6380 H   0  0  0  0  0  0  0  0  0  0  0  0
   -4.4871    6.2312   19.1615 H   0  0  0  0  0  0  0  0  0  0  0  0
   -2.5942    7.5943   18.7934 H   0  0  0  0  0  0  0  0  0  0  0  0
   -2.5144    8.1184   20.4858 H   0  0  0  0  0  0  0  0  0  0  0  0
   -4.8610    9.2094   19.9906 H   0  0  0  0  0  0  0  0  0  0  0  0
   -4.3954    9.0156   18.2913 H   0  0  0  0  0  0  0  0  0  0  0  0
   -2.1463   10.1850   19.0357 H   0  0  0  0  0  0  0  0  0  0  0  0
   -3.0601   10.6485   20.4823 H   0  0  0  0  0  0  0  0  0  0  0  0
   -4.8677   11.5483   18.8762 H   0  0  0  0  0  0  0  0  0  0  0  0
   -3.6850   11.3141   17.5740 H   0  0  0  0  0  0  0  0  0  0  0  0
   -2.1101   12.8323   18.6429 H   0  0  0  0  0  0  0  0  0  0  0  0
   -3.1387   12.9619   20.0843 H   0  0  0  0  0  0  0  0  0  0  0  0
   -4.9023   14.0424   18.8527 H   0  0  0  0  0  0  0  0  0  0  0  0
   -4.1182   13.7192   17.2936 H   0  0  0  0  0  0  0  0  0  0  0  0
   -2.2897   15.1946   17.7761 H   0  0  0  0  0  0  0  0  0  0  0  0
   -2.7531   15.3287   19.4830 H   0  0  0  0  0  0  0  0  0  0  0  0
   -3.8625   17.1948   18.9441 H   0  0  0  0  0  0  0  0  0  0  0  0
   -5.0789   16.1559   18.1717 H   0  0  0  0  0  0  0  0  0  0  0  0
   -3.9076   16.3401   16.0159 H   0  0  0  0  0  0  0  0  0  0  0  0
   -2.6261   17.3175   16.7730 H   0  0  0  0  0  0  0  0  0  0  0  0
   -4.2417   18.7423   15.5863 H   0  0  0  0  0  0  0  0  0  0  0  0
   -4.2881   19.0720   17.3314 H   0  0  0  0  0  0  0  0  0  0  0  0
   -5.5711   18.0988   16.5753 H   0  0  0  0  0  0  0  0  0  0  0  0
  1  2  2  0  0  0  0
  1  3  1  0  0  0  0
  1  4  1  0  0  0  0
  4  5  1  0  0  0  0
  4 19  1  0  0  0  0
  4 20  1  0  0  0  0
  5  6  1  0  0  0  0
  5 21  1  0  0  0  0
  5 22  1  0  0  0  0
  6  7  1  0  0  0  0
  6 23  1  0  0  0  0
  6 24  1  0  0  0  0
  7  8  1  0  0  0  0
  7 25  1  0  0  0  0
  7 26  1  0  0  0  0
  8  9  1  0  0  0  0
  8 27  1  0  0  0  0
  8 28  1  0  0  0  0
  9 10  1  0  0  0  0
  9 29  1  0  0  0  0
  9 30  1  0  0  0  0
 10 11  1  0  0  0  0
 10 31  1  0  0  0  0
 10 32  1  0  0  0  0
 11 12  1  0  0  0  0
 11 33  1  0  0  0  0
 11 34  1  0  0  0  0
 12 13  1  0  0  0  0
 12 35  1  0  0  0  0
 12 36  1  0  0  0  0
 13 14  1  0  0  0  0
 13 37  1  0  0  0  0
 13 38  1  0  0  0  0
 14 15  1  0  0  0  0
 14 39  1  0  0  0  0
 14 40  1  0  0  0  0
 15 16  1  0  0  0  0
 15 41  1  0  0  0  0
 15 42  1  0  0  0  0
 16 17  1  0  0  0  0
 16 43  1  0  0  0  0
 16 44  1  0  0  0  0
 17 18  1  0  0  0  0
 17 45  1  0  0  0  0
 17 46  1  0  0  0  0
 18 47  1  0  0  0  0
 18 48  1  0  0  0  0
 18 49  1  0  0  0  0
M  END
$$$$
