POY
 OpenBabel04091910543D

 44 45  0  0  0  0  0  0  0  0999 V2000
   18.6433  -11.0631   19.4959 N   0  3  0  0  0  0  0  0  0  0  0  0
   17.7367  -10.2162   20.1611 C   0  0  0  0  0  0  0  0  0  0  0  0
   18.2694   -9.6267   21.3337 C   0  0  0  0  0  0  0  0  0  0  0  0
   19.5126   -9.8792   21.8225 C   0  0  0  0  0  0  0  0  0  0  0  0
   20.3582  -10.7515   21.1978 N   0  3  0  0  0  0  0  0  0  0  0  0
   19.9537  -11.3683   19.9996 C   0  0  0  0  0  0  0  0  0  0  0  0
   17.7328   -8.7322   22.2228 N   0  3  0  0  0  0  0  0  0  0  0  0
   18.6531   -8.5463   23.2210 C   0  0  0  0  0  0  0  0  0  0  0  0
   19.7568   -9.2306   22.9839 N   0  0  0  0  0  0  0  0  0  0  0  0
   18.1661  -11.7101   18.2739 C   0  0  0  0  0  0  0  0  0  0  0  0
   17.4307  -13.0412   18.5529 C   0  0  0  0  0  0  0  0  0  0  0  0
   17.4270  -14.0148   17.3601 C   0  0  0  0  0  0  0  0  0  0  0  0
   16.8140  -13.2974   16.1611 C   0  0  0  0  0  0  0  0  0  0  0  0
   16.5847  -14.1230   14.9318 C   0  0  0  0  0  0  0  0  0  0  0  0
   16.8410  -15.5917   15.0054 C   0  0  0  0  0  0  0  0  0  0  0  0
   16.1481  -13.6120   13.8981 O   0  0  0  0  0  0  0  0  0  0  0  0
   16.5832  -10.0410   19.7686 O   0  0  0  0  0  0  0  0  0  0  0  0
   20.6767  -12.1533   19.4066 O   0  0  0  0  0  0  0  0  0  0  0  0
   21.6483  -11.0078   21.8243 C   0  0  0  0  0  0  0  0  0  0  0  0
   16.4127   -8.1435   22.0958 C   0  0  0  0  0  0  0  0  0  0  0  0
   15.3889   -8.9401   22.8896 C   0  0  0  0  0  0  0  0  0  0  0  0
   13.9740   -8.3921   22.8376 C   0  0  0  0  0  0  0  0  0  0  0  0
   18.4969   -7.9299   24.0975 H   0  0  0  0  0  0  0  0  0  0  0  0
   19.0205  -11.8932   17.6023 H   0  0  0  0  0  0  0  0  0  0  0  0
   17.4873  -11.0376   17.7326 H   0  0  0  0  0  0  0  0  0  0  0  0
   16.3820  -12.8197   18.7964 H   0  0  0  0  0  0  0  0  0  0  0  0
   17.8671  -13.5306   19.4248 H   0  0  0  0  0  0  0  0  0  0  0  0
   16.8532  -14.9225   17.6089 H   0  0  0  0  0  0  0  0  0  0  0  0
   18.4413  -14.3711   17.1328 H   0  0  0  0  0  0  0  0  0  0  0  0
   17.4603  -12.4640   15.8741 H   0  0  0  0  0  0  0  0  0  0  0  0
   15.8340  -12.9072   16.4535 H   0  0  0  0  0  0  0  0  0  0  0  0
   16.6727  -16.0261   14.0193 H   0  0  0  0  0  0  0  0  0  0  0  0
   16.1328  -16.0130   15.7237 H   0  0  0  0  0  0  0  0  0  0  0  0
   17.8720  -15.7699   15.3131 H   0  0  0  0  0  0  0  0  0  0  0  0
   21.7631  -10.4244   22.7547 H   0  0  0  0  0  0  0  0  0  0  0  0
   22.4609  -10.7185   21.1547 H   0  0  0  0  0  0  0  0  0  0  0  0
   21.7415  -12.0653   22.0938 H   0  0  0  0  0  0  0  0  0  0  0  0
   16.1594   -8.1383   21.0308 H   0  0  0  0  0  0  0  0  0  0  0  0
   16.4915   -7.1068   22.4218 H   0  0  0  0  0  0  0  0  0  0  0  0
   15.7120   -8.9645   23.9350 H   0  0  0  0  0  0  0  0  0  0  0  0
   15.3710   -9.9726   22.5204 H   0  0  0  0  0  0  0  0  0  0  0  0
   13.3221   -9.0228   23.4534 H   0  0  0  0  0  0  0  0  0  0  0  0
   13.5740   -8.3948   21.8189 H   0  0  0  0  0  0  0  0  0  0  0  0
   13.9233   -7.3737   23.2336 H   0  0  0  0  0  0  0  0  0  0  0  0
  1  2  1  0  0  0  0
  1  6  1  0  0  0  0
  1 10  1  0  0  0  0
  2  3  1  0  0  0  0
  2 17  2  0  0  0  0
  3  4  2  0  0  0  0
  3  7  1  0  0  0  0
  4  5  1  0  0  0  0
  4  9  1  0  0  0  0
  5  6  1  0  0  0  0
  5 19  1  0  0  0  0
  6 18  2  0  0  0  0
  7  8  2  0  0  0  0
  7 20  1  0  0  0  0
  8  9  1  0  0  0  0
  8 23  1  0  0  0  0
 10 11  1  0  0  0  0
 10 24  1  0  0  0  0
 10 25  1  0  0  0  0
 11 12  1  0  0  0  0
 11 26  1  0  0  0  0
 11 27  1  0  0  0  0
 12 13  1  0  0  0  0
 12 28  1  0  0  0  0
 12 29  1  0  0  0  0
 13 14  1  0  0  0  0
 13 30  1  0  0  0  0
 13 31  1  0  0  0  0
 14 15  1  0  0  0  0
 14 16  2  0  0  0  0
 15 32  1  0  0  0  0
 15 33  1  0  0  0  0
 15 34  1  0  0  0  0
 19 35  1  0  0  0  0
 19 36  1  0  0  0  0
 19 37  1  0  0  0  0
 20 21  1  0  0  0  0
 20 38  1  0  0  0  0
 20 39  1  0  0  0  0
 21 22  1  0  0  0  0
 21 40  1  0  0  0  0
 21 41  1  0  0  0  0
 22 42  1  0  0  0  0
 22 43  1  0  0  0  0
 22 44  1  0  0  0  0
M  CHG  3   1   1   5   1   7   1
M  END
$$$$
