PP0
 OpenBabel04091913153D

 61 63  0  0  1  0  0  0  0  0999 V2000
  -27.3389    0.2018    6.2019 C   0  0  0  0  0  0  0  0  0  0  0  0
  -24.6251   -3.5476    5.1037 C   0  0  0  0  0  0  0  0  0  0  0  0
  -20.5615    0.5121    5.4267 C   0  0  0  0  0  0  0  0  0  0  0  0
  -21.4295   -4.2935    6.9307 C   0  0  0  0  0  0  0  0  0  0  0  0
  -23.5266    1.0292    4.8965 O   0  0  0  0  0  0  0  0  0  0  0  0
  -18.6817   -2.4198    7.4978 O   0  0  0  0  0  0  0  0  0  0  0  0
  -12.5995   -6.0604    2.3634 C   0  0  0  0  0  0  0  0  0  0  0  0
  -13.6011   -6.8838    2.8710 C   0  0  0  0  0  0  0  0  0  0  0  0
  -12.9139   -4.7843    1.8969 C   0  0  0  0  0  0  0  0  0  0  0  0
  -14.9171   -6.4353    2.9051 C   0  0  0  0  0  0  0  0  0  0  0  0
  -14.2327   -4.3349    1.9196 C   0  0  0  0  0  0  0  0  0  0  0  0
  -26.0997    0.4024    5.3356 C   0  0  0  0  0  0  0  0  0  0  0  0
  -24.0871   -3.0022    6.4156 C   0  0  0  0  0  0  0  0  0  0  0  0
  -18.3927   -3.0966    2.9882 C   0  0  0  0  0  0  0  0  0  0  0  0
  -16.5222   -3.6460    4.6339 C   0  0  0  0  0  0  0  0  0  0  0  0
  -18.7968   -1.9452    3.8964 C   0  0  0  0  0  0  0  0  0  0  0  0
  -16.8907   -2.4081    5.4347 C   0  0  0  0  0  0  0  0  0  0  0  0
  -16.6735   -4.7312    2.4289 C   0  0  0  0  0  0  0  0  0  0  0  0
  -25.0219   -0.4787    5.7524 O   0  0  0  0  0  0  0  0  0  0  0  0
  -23.7502   -0.0511    5.4590 C   0  0  0  0  0  0  0  0  0  0  0  0
  -19.1486   -2.1628    6.3881 C   0  0  0  0  0  0  0  0  0  0  0  0
  -15.2444   -5.1644    2.4170 C   0  0  0  0  0  0  0  0  0  0  0  0
  -21.2731   -0.7534    5.7967 C   0  0  1  0  0  0  0  0  0  0  0  0
  -21.5784   -2.8851    6.4711 C   0  0  2  0  0  0  0  0  0  0  0  0
  -20.5924   -1.9475    6.2075 C   0  0  2  0  0  0  0  0  0  0  0  0
  -22.6669   -0.9873    5.8313 C   0  0  2  0  0  0  0  0  0  0  0  0
  -16.9206   -3.4566    3.1702 N   0  3  1  0  0  0  0  0  0  0  0  0
  -18.3200   -2.1172    5.2666 N   0  0  0  0  0  0  0  0  0  0  0  0
  -22.8184   -2.3040    6.2521 N   0  3  1  0  0  0  0  0  0  0  0  0
  -28.1548    0.8653    5.8874 H   0  0  0  0  0  0  0  0  0  0  0  0
  -27.1141    0.4162    7.2509 H   0  0  0  0  0  0  0  0  0  0  0  0
  -27.7026   -0.8291    6.1489 H   0  0  0  0  0  0  0  0  0  0  0  0
  -25.5839   -4.0491    5.2683 H   0  0  0  0  0  0  0  0  0  0  0  0
  -23.9295   -4.2698    4.6653 H   0  0  0  0  0  0  0  0  0  0  0  0
  -24.7824   -2.7495    4.3710 H   0  0  0  0  0  0  0  0  0  0  0  0
  -19.4708    0.3998    5.5053 H   0  0  0  0  0  0  0  0  0  0  0  0
  -20.8448    1.3340    6.0857 H   0  0  0  0  0  0  0  0  0  0  0  0
  -20.7787    0.7762    4.3897 H   0  0  0  0  0  0  0  0  0  0  0  0
  -20.3747   -4.5495    7.0519 H   0  0  0  0  0  0  0  0  0  0  0  0
  -21.8622   -4.9789    6.1943 H   0  0  0  0  0  0  0  0  0  0  0  0
  -21.9276   -4.4433    7.8935 H   0  0  0  0  0  0  0  0  0  0  0  0
  -11.5713   -6.4161    2.3280 H   0  0  0  0  0  0  0  0  0  0  0  0
  -13.3577   -7.8812    3.2307 H   0  0  0  0  0  0  0  0  0  0  0  0
  -12.1251   -4.1473    1.5015 H   0  0  0  0  0  0  0  0  0  0  0  0
  -15.6882   -7.0908    3.3082 H   0  0  0  0  0  0  0  0  0  0  0  0
  -14.4563   -3.3419    1.5367 H   0  0  0  0  0  0  0  0  0  0  0  0
  -25.7976    1.4494    5.3978 H   0  0  0  0  0  0  0  0  0  0  0  0
  -26.3652    0.1717    4.2917 H   0  0  0  0  0  0  0  0  0  0  0  0
  -23.9557   -3.8127    7.1357 H   0  0  0  0  0  0  0  0  0  0  0  0
  -24.7963   -2.3206    6.8841 H   0  0  0  0  0  0  0  0  0  0  0  0
  -18.5237   -2.8324    1.9367 H   0  0  0  0  0  0  0  0  0  0  0  0
  -18.9778   -3.9933    3.2278 H   0  0  0  0  0  0  0  0  0  0  0  0
  -17.0751   -4.5165    5.0013 H   0  0  0  0  0  0  0  0  0  0  0  0
  -15.4451   -3.8256    4.6724 H   0  0  0  0  0  0  0  0  0  0  0  0
  -19.8799   -1.8858    3.8599 H   0  0  0  0  0  0  0  0  0  0  0  0
  -18.3805   -1.0057    3.5228 H   0  0  0  0  0  0  0  0  0  0  0  0
  -16.3097   -1.5419    5.0965 H   0  0  0  0  0  0  0  0  0  0  0  0
  -16.6267   -2.5969    6.4789 H   0  0  0  0  0  0  0  0  0  0  0  0
  -17.3041   -5.4804    2.9229 H   0  0  0  0  0  0  0  0  0  0  0  0
  -17.0406   -4.5852    1.4087 H   0  0  0  0  0  0  0  0  0  0  0  0
  -16.3283   -2.7159    2.7697 H   0  0  0  0  0  0  0  0  0  0  0  0
  1 12  1  0  0  0  0
  1 30  1  0  0  0  0
  1 31  1  0  0  0  0
  1 32  1  0  0  0  0
  2 13  1  0  0  0  0
  2 33  1  0  0  0  0
  2 34  1  0  0  0  0
  2 35  1  0  0  0  0
  3 36  1  0  0  0  0
  3 37  1  0  0  0  0
  3 38  1  0  0  0  0
  4 39  1  0  0  0  0
  4 40  1  0  0  0  0
  4 41  1  0  0  0  0
  5 20  2  0  0  0  0
  6 21  2  0  0  0  0
  7  8  2  0  0  0  0
  7  9  1  0  0  0  0
  7 42  1  0  0  0  0
  8 10  1  0  0  0  0
  8 43  1  0  0  0  0
  9 11  2  0  0  0  0
  9 44  1  0  0  0  0
 10 22  2  0  0  0  0
 10 45  1  0  0  0  0
 11 22  1  0  0  0  0
 11 46  1  0  0  0  0
 12 19  1  0  0  0  0
 12 47  1  0  0  0  0
 12 48  1  0  0  0  0
 13 49  1  0  0  0  0
 13 50  1  0  0  0  0
 14 16  1  0  0  0  0
 14 27  1  0  0  0  0
 14 51  1  0  0  0  0
 14 52  1  0  0  0  0
 15 17  1  0  0  0  0
 15 27  1  0  0  0  0
 15 53  1  0  0  0  0
 15 54  1  0  0  0  0
 16 28  1  0  0  0  0
 16 55  1  0  0  0  0
 16 56  1  0  0  0  0
 17 28  1  0  0  0  0
 17 57  1  0  0  0  0
 17 58  1  0  0  0  0
 18 22  1  0  0  0  0
 18 27  1  0  0  0  0
 18 59  1  0  0  0  0
 18 60  1  0  0  0  0
 19 20  1  0  0  0  0
 21 28  1  0  0  0  0
 23  3  1  1  0  0  0
 23 25  1  0  0  0  0
 23 26  1  0  0  0  0
 24  4  1  1  0  0  0
 24 25  1  0  0  0  0
 24 29  1  0  0  0  0
 25 21  1  1  0  0  0
 26 20  1  6  0  0  0
 26 29  1  0  0  0  0
 27 61  1  6  0  0  0
 29 13  1  6  0  0  0
M  CHG  2  27   1  29   1
M  END
$$$$
