PRP
 OpenBabel04091911073D

 30 30  0  0  1  0  0  0  0  0999 V2000
   26.6066  -14.9011   44.9294 C   0  0  1  0  0  0  0  0  0  0  0  0
   26.5434  -16.2325   44.2005 C   0  0  1  0  0  0  0  0  0  0  0  0
   27.1090  -15.8388   42.8534 C   0  0  1  0  0  0  0  0  0  0  0  0
   28.3104  -15.0607   43.3355 C   0  0  1  0  0  0  0  0  0  0  0  0
   28.9276  -14.1476   42.3218 C   0  0  0  0  0  0  0  0  0  0  0  0
   26.6986  -15.1973   46.2912 O   0  0  0  0  0  0  0  0  0  0  0  0
   27.4936  -17.1785   44.7910 O   0  0  0  0  0  0  0  0  0  0  0  0
   27.4049  -17.0018   42.0754 O   0  0  0  0  0  0  0  0  0  0  0  0
   27.8024  -14.3048   44.4381 O   0  0  0  0  0  0  0  0  0  0  0  0
   30.1660  -13.7274   42.8632 O   0  0  0  0  0  0  0  0  0  0  0  0
   30.8495  -12.3750   42.2919 P   0  0  0  0  0  0  0  0  0  0  0  0
   29.8196  -11.2787   42.3778 O   0  0  0  0  0  0  0  0  0  0  0  0
   32.1074  -12.2406   43.1497 O   0  0  0  0  0  0  0  0  0  0  0  0
   31.1738  -12.7424   40.8510 O   0  0  0  0  0  0  0  0  0  0  0  0
   25.8015  -14.2632   47.2594 P   0  0  1  0  0  0  0  0  0  0  0  0
   24.9461  -13.3417   46.4104 O   0  0  0  0  0  0  0  0  0  0  0  0
   24.9943  -15.2880   48.0697 O   0  0  0  0  0  0  0  0  0  0  0  0
   26.9272  -13.5901   48.1787 O   0  0  0  0  0  0  0  0  0  0  0  0
   27.7366  -12.1960   47.9356 P   0  0  0  0  0  0  0  0  0  0  0  0
   26.6618  -11.0981   47.9597 O   0  0  0  0  0  0  0  0  0  0  0  0
   28.5014  -12.3618   46.6926 O   0  0  0  0  0  0  0  0  0  0  0  0
   28.6577  -12.0622   49.1618 O   0  0  0  0  0  0  0  0  0  0  0  0
   25.7418  -14.2974   44.6219 H   0  0  0  0  0  0  0  0  0  0  0  0
   25.5581  -16.7011   44.1595 H   0  0  0  0  0  0  0  0  0  0  0  0
   26.4265  -15.1834   42.3006 H   0  0  0  0  0  0  0  0  0  0  0  0
   29.1060  -15.7187   43.7275 H   0  0  0  0  0  0  0  0  0  0  0  0
   28.2604  -13.3084   42.1109 H   0  0  0  0  0  0  0  0  0  0  0  0
   29.1356  -14.7092   41.4025 H   0  0  0  0  0  0  0  0  0  0  0  0
   28.1379  -16.5560   45.2314 H   0  0  0  0  0  0  0  0  0  0  0  0
   27.8892  -17.5673   42.7099 H   0  0  0  0  0  0  0  0  0  0  0  0
  1  2  1  0  0  0  0
  1  6  1  0  0  0  0
  1  9  1  0  0  0  0
  1 23  1  6  0  0  0
  2  3  1  0  0  0  0
  2  7  1  0  0  0  0
  2 24  1  6  0  0  0
  3  4  1  0  0  0  0
  3  8  1  0  0  0  0
  3 25  1  6  0  0  0
  4  5  1  0  0  0  0
  4  9  1  0  0  0  0
  4 26  1  1  0  0  0
  5 10  1  0  0  0  0
  5 27  1  0  0  0  0
  5 28  1  0  0  0  0
  7 29  1  0  0  0  0
  8 30  1  0  0  0  0
 10 11  1  0  0  0  0
 11 12  2  0  0  0  0
 11 13  1  0  0  0  0
 11 14  1  0  0  0  0
 15  6  1  6  0  0  0
 15 16  2  0  0  0  0
 15 17  1  0  0  0  0
 15 18  1  0  0  0  0
 18 19  1  0  0  0  0
 19 20  2  0  0  0  0
 19 21  1  0  0  0  0
 19 22  1  0  0  0  0
M  END
$$$$
