PUT
 OpenBabel04091915473D

 20 19  0  0  0  0  0  0  0  0999 V2000
   15.7088   18.6141   26.4986 N   0  3  0  0  0  0  0  0  0  0  0  0
   17.0194   18.0060   26.7393 C   0  0  0  0  0  0  0  0  0  0  0  0
   16.8331   16.5315   27.0661 C   0  0  0  0  0  0  0  0  0  0  0  0
   18.1275   15.7633   26.8282 C   0  0  0  0  0  0  0  0  0  0  0  0
   17.9382   14.2913   27.1588 C   0  0  0  0  0  0  0  0  0  0  0  0
   19.0372   13.5288   26.5669 N   0  3  0  0  0  0  0  0  0  0  0  0
   15.7960   19.6221   26.2709 H   0  0  0  0  0  0  0  0  0  0  0  0
   15.2155   18.1802   25.7050 H   0  0  0  0  0  0  0  0  0  0  0  0
   17.4836   18.5439   27.5729 H   0  0  0  0  0  0  0  0  0  0  0  0
   17.6090   18.1444   25.8269 H   0  0  0  0  0  0  0  0  0  0  0  0
   16.0397   16.1013   26.4438 H   0  0  0  0  0  0  0  0  0  0  0  0
   16.5302   16.4250   28.1139 H   0  0  0  0  0  0  0  0  0  0  0  0
   18.9269   16.1763   27.4536 H   0  0  0  0  0  0  0  0  0  0  0  0
   18.4299   15.8753   25.7798 H   0  0  0  0  0  0  0  0  0  0  0  0
   17.0075   13.9013   26.7324 H   0  0  0  0  0  0  0  0  0  0  0  0
   17.9609   14.1206   28.2406 H   0  0  0  0  0  0  0  0  0  0  0  0
   18.9469   12.5168   26.7682 H   0  0  0  0  0  0  0  0  0  0  0  0
   19.0683   13.6186   25.5406 H   0  0  0  0  0  0  0  0  0  0  0  0
   15.0915   18.5543   27.3222 H   0  0  0  0  0  0  0  0  0  0  0  0
   19.9566   13.8176   26.9345 H   0  0  0  0  0  0  0  0  0  0  0  0
  1  2  1  0  0  0  0
  1  7  1  0  0  0  0
  1  8  1  0  0  0  0
  1 19  1  0  0  0  0
  2  3  1  0  0  0  0
  2  9  1  0  0  0  0
  2 10  1  0  0  0  0
  3  4  1  0  0  0  0
  3 11  1  0  0  0  0
  3 12  1  0  0  0  0
  4  5  1  0  0  0  0
  4 13  1  0  0  0  0
  4 14  1  0  0  0  0
  5  6  1  0  0  0  0
  5 15  1  0  0  0  0
  5 16  1  0  0  0  0
  6 17  1  0  0  0  0
  6 18  1  0  0  0  0
  6 20  1  0  0  0  0
M  CHG  2   1   1   6   1
M  END
$$$$
