PY9
 OpenBabel04091911433D

 41 43  0  0  1  0  0  0  0  0999 V2000
   17.0635   -3.7163   51.0803 N   0  0  0  0  0  0  0  0  0  0  0  0
   15.2220    0.8771   49.6952 C   0  0  0  0  0  0  0  0  0  0  0  0
   16.5660    0.6700   49.3724 C   0  0  0  0  0  0  0  0  0  0  0  0
   17.0816   -0.6310   49.4148 C   0  0  0  0  0  0  0  0  0  0  0  0
   16.8269   -3.1145   49.8304 C   0  0  0  0  0  0  0  0  0  0  0  0
   16.9168   -3.1501   52.4375 C   0  0  1  0  0  0  0  0  0  0  0  0
   17.8655   -5.3884   52.5846 C   0  0  0  0  0  0  0  0  0  0  0  0
   14.5093   -4.0615   52.5823 C   0  0  0  0  0  0  0  0  0  0  0  0
   12.8164   -3.0935   54.0234 C   0  0  0  0  0  0  0  0  0  0  0  0
   15.0816   -2.1619   53.9859 C   0  0  0  0  0  0  0  0  0  0  0  0
   13.1934   -4.0401   53.0761 C   0  0  0  0  0  0  0  0  0  0  0  0
   14.9187   -1.4939   50.0746 C   0  0  0  0  0  0  0  0  0  0  0  0
   13.7550   -2.1609   54.4744 C   0  0  0  0  0  0  0  0  0  0  0  0
   14.3962   -0.1900   50.0375 C   0  0  0  0  0  0  0  0  0  0  0  0
   16.2761   -1.7172   49.7920 C   0  0  0  0  0  0  0  0  0  0  0  0
   15.4786   -3.1228   53.0046 C   0  0  0  0  0  0  0  0  0  0  0  0
   17.8533   -4.0354   53.2864 C   0  0  0  0  0  0  0  0  0  0  0  0
   17.6694   -5.0496   51.1146 C   0  0  0  0  0  0  0  0  0  0  0  0
   16.0173   -1.1138   54.5377 C   0  0  0  0  0  0  0  0  0  0  0  0
   17.0225   -3.6874   48.7710 O   0  0  0  0  0  0  0  0  0  0  0  0
   14.6843    2.1325   49.6849 O   0  0  0  0  0  0  0  0  0  0  0  0
   18.4040   -0.8142   49.1119 O   0  0  0  0  0  0  0  0  0  0  0  0
   17.1990    1.5070   49.1032 H   0  0  0  0  0  0  0  0  0  0  0  0
   17.3033   -2.1260   52.4269 H   0  0  0  0  0  0  0  0  0  0  0  0
   17.0422   -6.0121   52.9500 H   0  0  0  0  0  0  0  0  0  0  0  0
   18.7977   -5.9406   52.7560 H   0  0  0  0  0  0  0  0  0  0  0  0
   14.7595   -4.8169   51.8391 H   0  0  0  0  0  0  0  0  0  0  0  0
   11.8004   -3.0720   54.4082 H   0  0  0  0  0  0  0  0  0  0  0  0
   12.4575   -4.7622   52.7239 H   0  0  0  0  0  0  0  0  0  0  0  0
   14.2590   -2.3206   50.3297 H   0  0  0  0  0  0  0  0  0  0  0  0
   13.4384   -1.4251   55.2181 H   0  0  0  0  0  0  0  0  0  0  0  0
   13.3507   -0.0094   50.2797 H   0  0  0  0  0  0  0  0  0  0  0  0
   17.5386   -4.1291   54.3288 H   0  0  0  0  0  0  0  0  0  0  0  0
   18.8767   -3.6289   53.2796 H   0  0  0  0  0  0  0  0  0  0  0  0
   18.6300   -5.0628   50.5812 H   0  0  0  0  0  0  0  0  0  0  0  0
   17.0007   -5.7714   50.6315 H   0  0  0  0  0  0  0  0  0  0  0  0
   15.5133   -0.4694   55.2717 H   0  0  0  0  0  0  0  0  0  0  0  0
   16.3842   -0.4608   53.7409 H   0  0  0  0  0  0  0  0  0  0  0  0
   16.8654   -1.5791   55.0481 H   0  0  0  0  0  0  0  0  0  0  0  0
   15.3663    2.7746   49.4274 H   0  0  0  0  0  0  0  0  0  0  0  0
   18.8064    0.0374   48.8720 H   0  0  0  0  0  0  0  0  0  0  0  0
  1  5  1  0  0  0  0
  1  6  1  0  0  0  0
  1 18  1  0  0  0  0
  2  3  2  0  0  0  0
  2 14  1  0  0  0  0
  2 21  1  0  0  0  0
  3  4  1  0  0  0  0
  3 23  1  0  0  0  0
  4 15  2  0  0  0  0
  4 22  1  0  0  0  0
  5 15  1  0  0  0  0
  5 20  2  0  0  0  0
  6 16  1  0  0  0  0
  6 17  1  0  0  0  0
  6 24  1  6  0  0  0
  7 17  1  0  0  0  0
  7 18  1  0  0  0  0
  7 25  1  0  0  0  0
  7 26  1  0  0  0  0
  8 11  2  0  0  0  0
  8 16  1  0  0  0  0
  8 27  1  0  0  0  0
  9 11  1  0  0  0  0
  9 13  2  0  0  0  0
  9 28  1  0  0  0  0
 10 13  1  0  0  0  0
 10 16  2  0  0  0  0
 10 19  1  0  0  0  0
 11 29  1  0  0  0  0
 12 14  2  0  0  0  0
 12 15  1  0  0  0  0
 12 30  1  0  0  0  0
 13 31  1  0  0  0  0
 14 32  1  0  0  0  0
 17 33  1  0  0  0  0
 17 34  1  0  0  0  0
 18 35  1  0  0  0  0
 18 36  1  0  0  0  0
 19 37  1  0  0  0  0
 19 38  1  0  0  0  0
 19 39  1  0  0  0  0
 21 40  1  0  0  0  0
 22 41  1  0  0  0  0
M  END
$$$$
