Q6W
 OpenBabel04091914473D

 70 75  0  0  0  0  0  0  0  0999 V2000
   -5.6352   -7.0950  -15.1996 C   0  0  0  0  0  0  0  0  0  0  0  0
   -6.4083   -8.5947  -16.8988 N   0  0  0  0  0  0  0  0  0  0  0  0
   -4.8258   -6.2682  -13.2157 O   0  0  0  0  0  0  0  0  0  0  0  0
   -6.6533   -7.7615  -15.8542 C   0  0  0  0  0  0  0  0  0  0  0  0
   -8.0693   -7.7110  -15.5319 C   0  0  0  0  0  0  0  0  0  0  0  0
   -8.7478   -6.7847  -14.8476 C   0  0  0  0  0  0  0  0  0  0  0  0
   -8.2496   -5.5974  -14.1495 C   0  0  0  0  0  0  0  0  0  0  0  0
   -6.9373   -5.4005  -13.7162 C   0  0  0  0  0  0  0  0  0  0  0  0
   -5.7850   -6.2809  -13.9911 C   0  0  0  0  0  0  0  0  0  0  0  0
   -4.3238   -7.2390  -15.6836 C   0  0  0  0  0  0  0  0  0  0  0  0
   -4.0537   -8.0599  -16.7728 C   0  0  0  0  0  0  0  0  0  0  0  0
   -5.1320   -8.7333  -17.3220 C   0  0  0  0  0  0  0  0  0  0  0  0
   -9.2197   -4.6391  -13.7812 C   0  0  0  0  0  0  0  0  0  0  0  0
   -8.8958   -3.5150  -13.0196 C   0  0  0  0  0  0  0  0  0  0  0  0
   -7.5882   -3.3256  -12.5827 C   0  0  0  0  0  0  0  0  0  0  0  0
   -6.6305   -4.2821  -12.9254 C   0  0  0  0  0  0  0  0  0  0  0  0
   -2.7106   -8.1790  -17.2919 C   0  0  0  0  0  0  0  0  0  0  0  0
   -7.1679   -2.1121  -11.7935 C   0  0  0  0  0  0  0  0  0  0  0  0
   -6.5535   -1.0521  -12.7056 C   0  0  0  0  0  0  0  0  0  0  0  0
   -5.1058   -1.3182  -13.0765 C   0  0  0  0  0  0  0  0  0  0  0  0
   -4.6608   -0.5017  -14.0919 N   0  0  0  0  0  0  0  0  0  0  0  0
   -4.3787   -2.1012  -12.4838 O   0  0  0  0  0  0  0  0  0  0  0  0
   -2.3647   -8.8356  -18.4556 C   0  0  0  0  0  0  0  0  0  0  0  0
   -1.0253   -8.6647  -18.5909 N   0  3  0  0  0  0  0  0  0  0  0  0
   -0.4610   -7.9431  -17.6115 N   0  0  0  0  0  0  0  0  0  0  0  0
   -1.4896   -7.6446  -16.8169 C   0  0  0  0  0  0  0  0  0  0  0  0
   -0.1919   -9.1058  -19.6971 C   0  0  0  0  0  0  0  0  0  0  0  0
    0.9219  -10.0289  -19.1834 C   0  0  0  0  0  0  0  0  0  0  0  0
    1.9145  -10.3645  -20.2750 C   0  0  0  0  0  0  0  0  0  0  0  0
    2.4187   -9.0940  -20.8714 N   0  3  0  0  0  0  0  0  0  0  0  0
    1.3454   -8.2761  -21.5070 C   0  0  0  0  0  0  0  0  0  0  0  0
    0.3561   -7.8779  -20.4379 C   0  0  0  0  0  0  0  0  0  0  0  0
   -3.2553   -0.4290  -14.4448 C   0  0  0  0  0  0  0  0  0  0  0  0
   -2.4764    0.5813  -13.6283 C   0  0  0  0  0  0  0  0  0  0  0  0
   -1.6438    1.4092  -14.3098 N   0  0  0  0  0  0  0  0  0  0  0  0
   -0.9117    2.2890  -13.5885 C   0  0  0  0  0  0  0  0  0  0  0  0
   -0.9716    2.3985  -12.2087 C   0  0  0  0  0  0  0  0  0  0  0  0
   -1.8254    1.5489  -11.5244 C   0  0  0  0  0  0  0  0  0  0  0  0
   -2.5781    0.6233  -12.2371 C   0  0  0  0  0  0  0  0  0  0  0  0
   -8.6393   -8.5266  -15.9739 H   0  0  0  0  0  0  0  0  0  0  0  0
   -9.8277   -6.9270  -14.8000 H   0  0  0  0  0  0  0  0  0  0  0  0
   -3.5229   -6.6948  -15.1857 H   0  0  0  0  0  0  0  0  0  0  0  0
   -5.0201   -9.4304  -18.1462 H   0  0  0  0  0  0  0  0  0  0  0  0
  -10.2606   -4.7712  -14.0758 H   0  0  0  0  0  0  0  0  0  0  0  0
   -9.6762   -2.8003  -12.7587 H   0  0  0  0  0  0  0  0  0  0  0  0
   -5.6090   -4.1507  -12.5657 H   0  0  0  0  0  0  0  0  0  0  0  0
   -6.4740   -2.4116  -10.9972 H   0  0  0  0  0  0  0  0  0  0  0  0
   -8.0438   -1.6887  -11.2858 H   0  0  0  0  0  0  0  0  0  0  0  0
   -6.5566   -0.0905  -12.1797 H   0  0  0  0  0  0  0  0  0  0  0  0
   -7.1430   -0.9408  -13.6226 H   0  0  0  0  0  0  0  0  0  0  0  0
   -5.2670    0.2225  -14.4477 H   0  0  0  0  0  0  0  0  0  0  0  0
   -2.9494   -9.3769  -19.1856 H   0  0  0  0  0  0  0  0  0  0  0  0
   -1.3073   -7.0418  -15.9345 H   0  0  0  0  0  0  0  0  0  0  0  0
   -0.8367   -9.6759  -20.3804 H   0  0  0  0  0  0  0  0  0  0  0  0
    0.4888  -10.9498  -18.7732 H   0  0  0  0  0  0  0  0  0  0  0  0
    1.4620   -9.5511  -18.3552 H   0  0  0  0  0  0  0  0  0  0  0  0
    1.4615  -10.9505  -21.0814 H   0  0  0  0  0  0  0  0  0  0  0  0
    2.7814  -10.9010  -19.8790 H   0  0  0  0  0  0  0  0  0  0  0  0
    2.8863   -8.5347  -20.1402 H   0  0  0  0  0  0  0  0  0  0  0  0
    0.8869   -8.8832  -22.2941 H   0  0  0  0  0  0  0  0  0  0  0  0
    1.8262   -7.4026  -21.9550 H   0  0  0  0  0  0  0  0  0  0  0  0
    0.8592   -7.2016  -19.7334 H   0  0  0  0  0  0  0  0  0  0  0  0
   -0.4673   -7.3026  -20.8786 H   0  0  0  0  0  0  0  0  0  0  0  0
   -3.2241   -0.1446  -15.5020 H   0  0  0  0  0  0  0  0  0  0  0  0
   -2.7902   -1.4153  -14.3429 H   0  0  0  0  0  0  0  0  0  0  0  0
   -0.2454    2.9219  -14.1670 H   0  0  0  0  0  0  0  0  0  0  0  0
   -0.3615    3.1242  -11.6814 H   0  0  0  0  0  0  0  0  0  0  0  0
   -1.9053    1.5976  -10.4412 H   0  0  0  0  0  0  0  0  0  0  0  0
   -3.2280   -0.0533  -11.6952 H   0  0  0  0  0  0  0  0  0  0  0  0
    3.1520   -9.3017  -21.5633 H   0  0  0  0  0  0  0  0  0  0  0  0
  1  4  2  0  0  0  0
  1  9  1  0  0  0  0
  1 10  1  0  0  0  0
  2  4  1  0  0  0  0
  2 12  2  0  0  0  0
  3  9  2  0  0  0  0
  4  5  1  0  0  0  0
  5  6  2  0  0  0  0
  5 40  1  0  0  0  0
  6  7  1  0  0  0  0
  6 41  1  0  0  0  0
  7  8  2  0  0  0  0
  7 13  1  0  0  0  0
  8  9  1  0  0  0  0
  8 16  1  0  0  0  0
 10 11  2  0  0  0  0
 10 42  1  0  0  0  0
 11 12  1  0  0  0  0
 11 17  1  0  0  0  0
 12 43  1  0  0  0  0
 13 14  2  0  0  0  0
 13 44  1  0  0  0  0
 14 15  1  0  0  0  0
 14 45  1  0  0  0  0
 15 16  2  0  0  0  0
 15 18  1  0  0  0  0
 16 46  1  0  0  0  0
 17 23  1  0  0  0  0
 17 26  2  0  0  0  0
 18 19  1  0  0  0  0
 18 47  1  0  0  0  0
 18 48  1  0  0  0  0
 19 20  1  0  0  0  0
 19 49  1  0  0  0  0
 19 50  1  0  0  0  0
 20 21  1  0  0  0  0
 20 22  2  0  0  0  0
 21 33  1  0  0  0  0
 21 51  1  0  0  0  0
 23 24  2  0  0  0  0
 23 52  1  0  0  0  0
 24 25  1  0  0  0  0
 24 27  1  0  0  0  0
 25 26  1  0  0  0  0
 26 53  1  0  0  0  0
 27 28  1  0  0  0  0
 27 32  1  0  0  0  0
 27 54  1  0  0  0  0
 28 29  1  0  0  0  0
 28 55  1  0  0  0  0
 28 56  1  0  0  0  0
 29 30  1  0  0  0  0
 29 57  1  0  0  0  0
 29 58  1  0  0  0  0
 30 31  1  0  0  0  0
 30 59  1  0  0  0  0
 30 70  1  0  0  0  0
 31 32  1  0  0  0  0
 31 60  1  0  0  0  0
 31 61  1  0  0  0  0
 32 62  1  0  0  0  0
 32 63  1  0  0  0  0
 33 34  1  0  0  0  0
 33 64  1  0  0  0  0
 33 65  1  0  0  0  0
 34 35  2  0  0  0  0
 34 39  1  0  0  0  0
 35 36  1  0  0  0  0
 36 37  2  0  0  0  0
 36 66  1  0  0  0  0
 37 38  1  0  0  0  0
 37 67  1  0  0  0  0
 38 39  2  0  0  0  0
 38 68  1  0  0  0  0
 39 69  1  0  0  0  0
M  CHG  2  24   1  30   1
M  END
$$$$
