QEG
 OpenBabel04091915473D

 71 73  0  0  1  0  0  0  0  0999 V2000
    9.7890   26.2278    4.4490 O   0  0  0  0  0  0  0  0  0  0  0  0
    2.5215   22.2764    8.5156 S   0  0  0  0  0  0  0  0  0  0  0  0
    8.5438   26.2910    4.3885 C   0  0  0  0  0  0  0  0  0  0  0  0
    7.7718   25.1899    3.7531 C   0  0  0  0  0  0  0  0  0  0  0  0
    7.6882   23.8887    4.5244 C   0  0  0  0  0  0  0  0  0  0  0  0
    5.1401   24.2006    4.5067 C   0  0  0  0  0  0  0  0  0  0  0  0
    4.8763   22.6992    6.7481 C   0  0  0  0  0  0  0  0  0  0  0  0
    3.6903   23.2258    6.2019 C   0  0  0  0  0  0  0  0  0  0  0  0
    3.8603   23.9968    5.0563 C   0  0  0  0  0  0  0  0  0  0  0  0
    2.3918   22.9103    6.8948 C   0  0  0  0  0  0  0  0  0  0  0  0
    1.0421   22.9786    6.5920 C   0  0  0  0  0  0  0  0  0  0  0  0
    0.1949   22.4818    7.6637 C   0  0  0  0  0  0  0  0  0  0  0  0
   -1.2321   22.4244    7.7424 C   0  0  0  0  0  0  0  0  0  0  0  0
   -1.8477   21.2589    8.1769 C   0  0  0  0  0  0  0  0  0  0  0  0
   -3.2245   21.1971    8.2812 C   0  0  0  0  0  0  0  0  0  0  0  0
   -3.9878   22.3168    7.9784 C   0  0  0  0  0  0  0  0  0  0  0  0
   -3.3643   23.4870    7.5722 C   0  0  0  0  0  0  0  0  0  0  0  0
   -1.9851   23.5463    7.4541 C   0  0  0  0  0  0  0  0  0  0  0  0
    6.3040   23.6687    5.0858 C   0  0  0  0  0  0  0  0  0  0  0  0
    6.1501   22.9005    6.2199 C   0  0  0  0  0  0  0  0  0  0  0  0
    0.8784   22.0581    8.7766 C   0  0  0  0  0  0  0  0  0  0  0  0
    7.8561   27.3552    4.8258 N   0  0  0  0  0  0  0  0  0  0  0  0
    8.4358   28.5786    5.4044 C   0  0  2  0  0  0  0  0  0  0  0  0
    7.7573   28.7937    6.7656 C   0  0  0  0  0  0  0  0  0  0  0  0
    6.6460   28.3106    7.0541 O   0  0  0  0  0  0  0  0  0  0  0  0
    8.2389   29.7331    4.3996 C   0  0  0  0  0  0  0  0  0  0  0  0
    9.5035   30.5573    4.1236 C   0  0  0  0  0  0  0  0  0  0  0  0
    9.5509   31.4620    2.8989 C   0  0  0  0  0  0  0  0  0  0  0  0
    8.8494   31.3454    1.8847 O   0  0  0  0  0  0  0  0  0  0  0  0
   10.4907   32.4304    2.9193 N   0  0  0  0  0  0  0  0  0  0  0  0
    8.4278   29.5692    7.6497 N   0  0  0  0  0  0  0  0  0  0  0  0
    7.8718   29.7584    8.9823 C   0  0  2  0  0  0  0  0  0  0  0  0
    6.5950   30.5657    8.8963 C   0  0  0  0  0  0  0  0  0  0  0  0
    6.4454   31.5483    8.1486 O   0  0  0  0  0  0  0  0  0  0  0  0
    8.8553   30.4750    9.8915 C   0  0  0  0  0  0  0  0  0  0  0  0
    8.9560   29.8743   11.2788 C   0  0  0  0  0  0  0  0  0  0  0  0
    9.8570   30.4633   12.3861 C   0  0  0  0  0  0  0  0  0  0  0  0
    9.7798   29.7726   13.4691 O   0  0  0  0  0  0  0  0  0  0  0  0
   10.5210   31.4852   12.1368 O   0  0  0  0  0  0  0  0  0  0  0  0
    5.6033   30.1950    9.7139 N   0  0  0  0  0  0  0  0  0  0  0  0
    8.2201   24.9882    2.7822 H   0  0  0  0  0  0  0  0  0  0  0  0
    6.7920   25.6030    3.5813 H   0  0  0  0  0  0  0  0  0  0  0  0
    8.4158   23.8791    5.3445 H   0  0  0  0  0  0  0  0  0  0  0  0
    7.9183   23.0544    3.8451 H   0  0  0  0  0  0  0  0  0  0  0  0
    5.2061   24.8087    3.6093 H   0  0  0  0  0  0  0  0  0  0  0  0
    4.8200   22.0874    7.6421 H   0  0  0  0  0  0  0  0  0  0  0  0
    3.0149   24.4539    4.5621 H   0  0  0  0  0  0  0  0  0  0  0  0
    0.6230   23.3379    5.6636 H   0  0  0  0  0  0  0  0  0  0  0  0
   -1.2490   20.3993    8.4552 H   0  0  0  0  0  0  0  0  0  0  0  0
   -3.7022   20.2741    8.5902 H   0  0  0  0  0  0  0  0  0  0  0  0
   -5.0604   22.2724    8.0708 H   0  0  0  0  0  0  0  0  0  0  0  0
   -3.9612   24.3561    7.3380 H   0  0  0  0  0  0  0  0  0  0  0  0
   -1.4997   24.4682    7.1608 H   0  0  0  0  0  0  0  0  0  0  0  0
    7.0121   22.4635    6.7156 H   0  0  0  0  0  0  0  0  0  0  0  0
    0.4674   21.6593    9.7089 H   0  0  0  0  0  0  0  0  0  0  0  0
    6.8463   27.3306    4.7472 H   0  0  0  0  0  0  0  0  0  0  0  0
    9.5010   28.4178    5.6075 H   0  0  0  0  0  0  0  0  0  0  0  0
    7.4588   30.4007    4.7788 H   0  0  0  0  0  0  0  0  0  0  0  0
    7.8946   29.2968    3.4554 H   0  0  0  0  0  0  0  0  0  0  0  0
   10.3476   29.8677    4.0135 H   0  0  0  0  0  0  0  0  0  0  0  0
    9.6730   31.2044    4.9903 H   0  0  0  0  0  0  0  0  0  0  0  0
   10.5687   33.0619    2.1235 H   0  0  0  0  0  0  0  0  0  0  0  0
   11.1051   32.5408    3.7165 H   0  0  0  0  0  0  0  0  0  0  0  0
    9.3348   29.9429    7.4096 H   0  0  0  0  0  0  0  0  0  0  0  0
    7.6068   28.7694    9.3757 H   0  0  0  0  0  0  0  0  0  0  0  0
    8.5390   31.5111    9.9881 H   0  0  0  0  0  0  0  0  0  0  0  0
    9.8352   30.4151    9.4267 H   0  0  0  0  0  0  0  0  0  0  0  0
    9.2953   28.8376   11.1595 H   0  0  0  0  0  0  0  0  0  0  0  0
    7.9484   29.8739   11.7115 H   0  0  0  0  0  0  0  0  0  0  0  0
    4.7321   30.7043    9.6974 H   0  0  0  0  0  0  0  0  0  0  0  0
    5.7291   29.3803   10.3116 H   0  0  0  0  0  0  0  0  0  0  0  0
  1  3  2  0  0  0  0
  2 10  1  0  0  0  0
  2 21  1  0  0  0  0
  3  4  1  0  0  0  0
  3 22  1  0  0  0  0
  4  5  1  0  0  0  0
  4 41  1  0  0  0  0
  4 42  1  0  0  0  0
  5 19  1  0  0  0  0
  5 43  1  0  0  0  0
  5 44  1  0  0  0  0
  6  9  2  0  0  0  0
  6 19  1  0  0  0  0
  6 45  1  0  0  0  0
  7  8  2  0  0  0  0
  7 20  1  0  0  0  0
  7 46  1  0  0  0  0
  8  9  1  0  0  0  0
  8 10  1  0  0  0  0
  9 47  1  0  0  0  0
 10 11  2  0  0  0  0
 11 12  1  0  0  0  0
 11 48  1  0  0  0  0
 12 13  1  0  0  0  0
 12 21  2  0  0  0  0
 13 14  2  0  0  0  0
 13 18  1  0  0  0  0
 14 15  1  0  0  0  0
 14 49  1  0  0  0  0
 15 16  2  0  0  0  0
 15 50  1  0  0  0  0
 16 17  1  0  0  0  0
 16 51  1  0  0  0  0
 17 18  2  0  0  0  0
 17 52  1  0  0  0  0
 18 53  1  0  0  0  0
 19 20  2  0  0  0  0
 20 54  1  0  0  0  0
 21 55  1  0  0  0  0
 22 23  1  0  0  0  0
 22 56  1  0  0  0  0
 23 24  1  0  0  0  0
 23 26  1  0  0  0  0
 23 57  1  1  0  0  0
 24 25  2  0  0  0  0
 24 31  1  0  0  0  0
 26 27  1  0  0  0  0
 26 58  1  0  0  0  0
 26 59  1  0  0  0  0
 27 28  1  0  0  0  0
 27 60  1  0  0  0  0
 27 61  1  0  0  0  0
 28 29  2  0  0  0  0
 28 30  1  0  0  0  0
 30 62  1  0  0  0  0
 30 63  1  0  0  0  0
 31 32  1  0  0  0  0
 31 64  1  0  0  0  0
 32 33  1  0  0  0  0
 32 35  1  0  0  0  0
 32 65  1  1  0  0  0
 33 34  2  0  0  0  0
 33 40  1  0  0  0  0
 35 36  1  0  0  0  0
 35 66  1  0  0  0  0
 35 67  1  0  0  0  0
 36 37  1  0  0  0  0
 36 68  1  0  0  0  0
 36 69  1  0  0  0  0
 37 38  2  0  0  0  0
 37 39  1  0  0  0  0
 40 70  1  0  0  0  0
 40 71  1  0  0  0  0
M  END
$$$$
