QUE
 OpenBabel04091911123D

 30 32  0  0  0  0  0  0  0  0999 V2000
   11.9232   18.6344  -12.2248 C   0  0  0  0  0  0  0  0  0  0  0  0
   12.1872   17.5978  -11.3321 C   0  0  0  0  0  0  0  0  0  0  0  0
   13.4313   16.9180  -11.5524 C   0  0  0  0  0  0  0  0  0  0  0  0
   14.3218   17.2495  -12.5861 C   0  0  0  0  0  0  0  0  0  0  0  0
   13.9895   18.2975  -13.4399 C   0  0  0  0  0  0  0  0  0  0  0  0
   12.7960   18.9862  -13.2500 C   0  0  0  0  0  0  0  0  0  0  0  0
   13.8218   15.8115  -10.6488 C   0  0  0  0  0  0  0  0  0  0  0  0
   15.1329   15.0899  -10.8727 C   0  0  0  0  0  0  0  0  0  0  0  0
   15.8266   15.5454  -11.9376 C   0  0  0  0  0  0  0  0  0  0  0  0
   17.1212   14.8895  -12.1527 C   0  0  0  0  0  0  0  0  0  0  0  0
   17.1586   13.5231  -12.4886 C   0  0  0  0  0  0  0  0  0  0  0  0
   18.3774   12.8601  -12.5565 C   0  0  0  0  0  0  0  0  0  0  0  0
   19.5472   13.5649  -12.2838 C   0  0  0  0  0  0  0  0  0  0  0  0
   19.5086   14.9131  -11.9250 C   0  0  0  0  0  0  0  0  0  0  0  0
   18.2992   15.5781  -11.8450 C   0  0  0  0  0  0  0  0  0  0  0  0
   15.5174   16.5896  -12.7836 O   0  3  0  0  0  0  0  0  0  0  0  0
   13.1221   15.4488   -9.7358 O   0  0  0  0  0  0  0  0  0  0  0  0
   20.6606   15.6051  -11.6689 O   0  0  0  0  0  0  0  0  0  0  0  0
   20.7703   12.9542  -12.3773 O   0  0  0  0  0  0  0  0  0  0  0  0
   15.4114   14.1646  -10.0423 O   0  0  0  0  0  0  0  0  0  0  0  0
   12.4656   20.0272  -14.0763 O   0  0  0  0  0  0  0  0  0  0  0  0
   11.3209   17.3575  -10.4218 O   0  0  0  0  0  0  0  0  0  0  0  0
   10.9824   19.1614  -12.0733 H   0  0  0  0  0  0  0  0  0  0  0  0
   14.6584   18.5982  -14.2340 H   0  0  0  0  0  0  0  0  0  0  0  0
   16.2173   12.9875  -12.6306 H   0  0  0  0  0  0  0  0  0  0  0  0
   18.3818   11.8112  -12.8146 H   0  0  0  0  0  0  0  0  0  0  0  0
   18.2406   16.6116  -11.5227 H   0  0  0  0  0  0  0  0  0  0  0  0
   21.3767   14.9561  -11.7856 H   0  0  0  0  0  0  0  0  0  0  0  0
   20.5949   12.0309  -12.6259 H   0  0  0  0  0  0  0  0  0  0  0  0
   11.6010   20.3566  -13.7706 H   0  0  0  0  0  0  0  0  0  0  0  0
  1  2  2  0  0  0  0
  1  6  1  0  0  0  0
  1 23  1  0  0  0  0
  2  3  1  0  0  0  0
  2 22  1  0  0  0  0
  3  4  2  0  0  0  0
  3  7  1  0  0  0  0
  4  5  1  0  0  0  0
  4 16  1  0  0  0  0
  5  6  2  0  0  0  0
  5 24  1  0  0  0  0
  6 21  1  0  0  0  0
  7  8  1  0  0  0  0
  7 17  2  0  0  0  0
  8  9  2  0  0  0  0
  8 20  1  0  0  0  0
  9 10  1  0  0  0  0
  9 16  1  0  0  0  0
 10 11  2  0  0  0  0
 10 15  1  0  0  0  0
 11 12  1  0  0  0  0
 11 25  1  0  0  0  0
 12 13  2  0  0  0  0
 12 26  1  0  0  0  0
 13 14  1  0  0  0  0
 13 19  1  0  0  0  0
 14 15  2  0  0  0  0
 14 18  1  0  0  0  0
 15 27  1  0  0  0  0
 18 28  1  0  0  0  0
 19 29  1  0  0  0  0
 21 30  1  0  0  0  0
M  CHG  1  16   1
M  END
$$$$
