R21
 OpenBabel04091914033D

 41 42  0  0  0  0  0  0  0  0999 V2000
   16.0739   14.0020   10.5530 Cl  0  0  0  0  0  0  0  0  0  0  0  0
   13.9416    2.7658   16.6695 O   0  0  0  0  0  0  0  0  0  0  0  0
   17.6338   16.2138   11.7726 O   0  0  0  0  0  0  0  0  0  0  0  0
   18.2169   14.9852   11.8953 C   0  0  0  0  0  0  0  0  0  0  0  0
   19.4403   14.8677   12.5479 C   0  0  0  0  0  0  0  0  0  0  0  0
   20.0589   13.6200   12.6386 C   0  0  0  0  0  0  0  0  0  0  0  0
   19.9510   10.6683   14.5076 O   0  0  0  0  0  0  0  0  0  0  0  0
   15.6467    6.2314   14.7032 C   0  0  0  0  0  0  0  0  0  0  0  0
   15.1668    5.1765   15.4892 C   0  0  0  0  0  0  0  0  0  0  0  0
   16.0180    4.1443   15.8781 C   0  0  0  0  0  0  0  0  0  0  0  0
   15.3697    2.8229   16.8859 S   0  0  0  0  0  0  0  0  0  0  0  0
   16.0135    1.4378   16.1837 N   0  0  0  0  0  0  0  0  0  0  0  0
   17.5992   13.8637   11.3448 C   0  0  0  0  0  0  0  0  0  0  0  0
   18.2126   12.6143   11.4433 C   0  0  0  0  0  0  0  0  0  0  0  0
   19.4585   12.4879   12.0737 C   0  0  0  0  0  0  0  0  0  0  0  0
   20.1456   11.1492   12.1488 C   0  0  0  0  0  0  0  0  0  0  0  0
   19.6906   10.3391   13.3382 C   0  0  0  0  0  0  0  0  0  0  0  0
   18.9433    9.2353   13.0365 N   0  0  0  0  0  0  0  0  0  0  0  0
   18.3991    8.3361   14.0392 C   0  0  0  0  0  0  0  0  0  0  0  0
   17.4736    7.3327   13.3683 C   0  0  0  0  0  0  0  0  0  0  0  0
   16.9820    6.2494   14.2866 C   0  0  0  0  0  0  0  0  0  0  0  0
   17.8394    5.2248   14.7005 C   0  0  0  0  0  0  0  0  0  0  0  0
   17.3613    4.1697   15.4899 C   0  0  0  0  0  0  0  0  0  0  0  0
   15.9260    2.9530   18.2086 O   0  0  0  0  0  0  0  0  0  0  0  0
   17.4834   16.5580   12.6704 H   0  0  0  0  0  0  0  0  0  0  0  0
   19.9287   15.7417   12.9688 H   0  0  0  0  0  0  0  0  0  0  0  0
   21.0186   13.5281   13.1459 H   0  0  0  0  0  0  0  0  0  0  0  0
   14.9692    7.0289   14.4060 H   0  0  0  0  0  0  0  0  0  0  0  0
   14.1211    5.1713   15.7965 H   0  0  0  0  0  0  0  0  0  0  0  0
   17.0124    1.2696   16.2036 H   0  0  0  0  0  0  0  0  0  0  0  0
   15.3738    0.7223   15.8564 H   0  0  0  0  0  0  0  0  0  0  0  0
   17.7306   11.7410   11.0164 H   0  0  0  0  0  0  0  0  0  0  0  0
   21.2297   11.2871   12.2242 H   0  0  0  0  0  0  0  0  0  0  0  0
   19.9583   10.5923   11.2261 H   0  0  0  0  0  0  0  0  0  0  0  0
   18.7721    9.0386   12.0609 H   0  0  0  0  0  0  0  0  0  0  0  0
   17.8553    8.9147   14.7971 H   0  0  0  0  0  0  0  0  0  0  0  0
   19.2303    7.8227   14.5415 H   0  0  0  0  0  0  0  0  0  0  0  0
   18.0036    6.8660   12.5280 H   0  0  0  0  0  0  0  0  0  0  0  0
   16.6212    7.8751   12.9417 H   0  0  0  0  0  0  0  0  0  0  0  0
   18.8865    5.2391   14.3938 H   0  0  0  0  0  0  0  0  0  0  0  0
   18.0434    3.3838   15.7923 H   0  0  0  0  0  0  0  0  0  0  0  0
  1 13  1  0  0  0  0
  2 11  2  0  0  0  0
  3  4  1  0  0  0  0
  3 25  1  0  0  0  0
  4  5  2  0  0  0  0
  4 13  1  0  0  0  0
  5  6  1  0  0  0  0
  5 26  1  0  0  0  0
  6 15  2  0  0  0  0
  6 27  1  0  0  0  0
  7 17  2  0  0  0  0
  8  9  2  0  0  0  0
  8 21  1  0  0  0  0
  8 28  1  0  0  0  0
  9 10  1  0  0  0  0
  9 29  1  0  0  0  0
 10 11  1  0  0  0  0
 10 23  2  0  0  0  0
 11 12  1  0  0  0  0
 11 24  2  0  0  0  0
 12 30  1  0  0  0  0
 12 31  1  0  0  0  0
 13 14  2  0  0  0  0
 14 15  1  0  0  0  0
 14 32  1  0  0  0  0
 15 16  1  0  0  0  0
 16 17  1  0  0  0  0
 16 33  1  0  0  0  0
 16 34  1  0  0  0  0
 17 18  1  0  0  0  0
 18 19  1  0  0  0  0
 18 35  1  0  0  0  0
 19 20  1  0  0  0  0
 19 36  1  0  0  0  0
 19 37  1  0  0  0  0
 20 21  1  0  0  0  0
 20 38  1  0  0  0  0
 20 39  1  0  0  0  0
 21 22  2  0  0  0  0
 22 23  1  0  0  0  0
 22 40  1  0  0  0  0
 23 41  1  0  0  0  0
M  END
$$$$
