R2P
 OpenBabel04091911013D

 19 19  0  0  1  0  0  0  0  0999 V2000
  -32.2158   -6.5319   43.2372 N   0  0  0  0  0  0  0  0  0  0  0  0
  -31.3067   -4.2015   44.6609 N   0  3  0  0  0  0  0  0  0  0  0  0
  -31.2199   -3.8470   43.1843 C   0  0  1  0  0  0  0  0  0  0  0  0
  -30.5139   -2.4689   43.0365 C   0  0  0  0  0  0  0  0  0  0  0  0
  -29.7021   -7.3547   40.8886 O   0  0  0  0  0  0  0  0  0  0  0  0
  -30.6659   -7.4299   41.6144 C   0  0  0  0  0  0  0  0  0  0  0  0
  -31.4523   -8.5151   41.8793 N   0  3  0  0  0  0  0  0  0  0  0  0
  -32.6436   -8.1485   42.9999 S   0  0  0  0  0  0  0  0  0  0  0  0
  -31.2055   -6.2715   42.4557 C   0  0  0  0  0  0  0  0  0  0  0  0
  -30.5259   -4.9363   42.3751 C   0  0  0  0  0  0  0  0  0  0  0  0
  -30.5021   -1.8606   44.1536 O   0  0  0  0  0  0  0  0  0  0  0  0
  -30.0295   -2.1882   41.9200 O   0  0  0  0  0  0  0  0  0  0  0  0
  -31.8215   -5.0617   44.8685 H   0  0  0  0  0  0  0  0  0  0  0  0
  -30.3665   -4.1616   45.0726 H   0  0  0  0  0  0  0  0  0  0  0  0
  -32.2609   -3.7310   42.8636 H   0  0  0  0  0  0  0  0  0  0  0  0
  -31.2957   -9.4234   41.4649 H   0  0  0  0  0  0  0  0  0  0  0  0
  -29.4788   -5.0541   42.6765 H   0  0  0  0  0  0  0  0  0  0  0  0
  -30.5244   -4.6524   41.3150 H   0  0  0  0  0  0  0  0  0  0  0  0
  -31.7510   -3.3692   45.0840 H   0  0  0  0  0  0  0  0  0  0  0  0
  1  8  1  0  0  0  0
  1  9  2  0  0  0  0
  2  3  1  0  0  0  0
  2 13  1  0  0  0  0
  2 14  1  0  0  0  0
  2 19  1  0  0  0  0
  3  4  1  0  0  0  0
  3 10  1  0  0  0  0
  3 15  1  6  0  0  0
  4 11  2  0  0  0  0
  4 12  1  0  0  0  0
  5  6  2  0  0  0  0
  6  7  1  0  0  0  0
  6  9  1  0  0  0  0
  7  8  1  0  0  0  0
  7 16  1  0  0  0  0
  9 10  1  0  0  0  0
 10 17  1  0  0  0  0
 10 18  1  0  0  0  0
M  CHG  2   2   1   7   1
M  END
$$$$
