RCO
 OpenBabel04091910533D

 14 14  0  0  0  0  0  0  0  0999 V2000
   54.5403   28.4581   21.8530 C   0  0  0  0  0  0  0  0  0  0  0  0
   54.4678   29.5787   21.0317 C   0  0  0  0  0  0  0  0  0  0  0  0
   55.5966   29.9659   20.3148 C   0  0  0  0  0  0  0  0  0  0  0  0
   56.7842   29.2459   20.4107 C   0  0  0  0  0  0  0  0  0  0  0  0
   56.8464   28.1219   21.2376 C   0  0  0  0  0  0  0  0  0  0  0  0
   55.7201   27.7271   21.9616 C   0  0  0  0  0  0  0  0  0  0  0  0
   53.4584   28.0418   22.5741 O   0  0  0  0  0  0  0  0  0  0  0  0
   55.5812   31.0598   19.4966 O   0  0  0  0  0  0  0  0  0  0  0  0
   53.5475   30.1476   20.9501 H   0  0  0  0  0  0  0  0  0  0  0  0
   57.6574   29.5583   19.8463 H   0  0  0  0  0  0  0  0  0  0  0  0
   57.7722   27.5575   21.3143 H   0  0  0  0  0  0  0  0  0  0  0  0
   55.7663   26.8518   22.6067 H   0  0  0  0  0  0  0  0  0  0  0  0
   52.7132   28.6387   22.3964 H   0  0  0  0  0  0  0  0  0  0  0  0
   54.6993   31.4676   19.5230 H   0  0  0  0  0  0  0  0  0  0  0  0
  1  2  2  0  0  0  0
  1  6  1  0  0  0  0
  1  7  1  0  0  0  0
  2  3  1  0  0  0  0
  2  9  1  0  0  0  0
  3  4  2  0  0  0  0
  3  8  1  0  0  0  0
  4  5  1  0  0  0  0
  4 10  1  0  0  0  0
  5  6  2  0  0  0  0
  5 11  1  0  0  0  0
  6 12  1  0  0  0  0
  7 13  1  0  0  0  0
  8 14  1  0  0  0  0
M  END
$$$$
