RFZ
 OpenBabel04091912513D

 32 34  0  0  1  0  0  0  0  0999 V2000
   18.0304   -2.9818    6.7543 C   0  0  0  0  0  0  0  0  0  0  0  0
   18.9474   -4.0421    6.7477 C   0  0  0  0  0  0  0  0  0  0  0  0
   19.4543   -4.4455    5.5083 C   0  0  0  0  0  0  0  0  0  0  0  0
   20.6022   -5.7448    5.5272 Cl  0  0  0  0  0  0  0  0  0  0  0  0
   19.0459   -3.8216    4.3265 C   0  0  0  0  0  0  0  0  0  0  0  0
   19.6430   -4.3132    2.7802 Cl  0  0  0  0  0  0  0  0  0  0  0  0
   18.1235   -2.7617    4.3562 C   0  0  0  0  0  0  0  0  0  0  0  0
   17.6169   -2.3383    5.5962 C   0  0  0  0  0  0  0  0  0  0  0  0
   16.7277   -1.3352    5.8865 N   0  0  0  0  0  0  0  0  0  0  0  0
   16.5810   -1.3635    7.1965 C   0  0  0  0  0  0  0  0  0  0  0  0
   17.3624   -2.3305    7.7629 N   0  3  0  0  0  0  0  0  0  0  0  0
   17.4928   -2.6419    9.1765 C   0  0  2  0  0  0  0  0  0  0  0  0
   16.4151   -2.0752    9.9323 O   0  0  0  0  0  0  0  0  0  0  0  0
   16.8978   -1.8758   11.2891 C   0  0  2  0  0  0  0  0  0  0  0  0
   16.5630   -0.4511   11.7369 C   0  0  0  0  0  0  0  0  0  0  0  0
   15.1504   -0.2783   11.7900 O   0  0  0  0  0  0  0  0  0  0  0  0
   18.4091   -2.1347   11.2744 C   0  0  1  0  0  0  0  0  0  0  0  0
   18.6906   -3.4654   11.7401 O   0  0  0  0  0  0  0  0  0  0  0  0
   18.7642   -2.0703    9.8001 C   0  0  1  0  0  0  0  0  0  0  0  0
   19.9521   -2.8169    9.5404 O   0  0  0  0  0  0  0  0  0  0  0  0
   19.2640   -4.5318    7.6606 H   0  0  0  0  0  0  0  0  0  0  0  0
   17.7992   -2.2687    3.4481 H   0  0  0  0  0  0  0  0  0  0  0  0
   15.9318   -0.7138    7.7701 H   0  0  0  0  0  0  0  0  0  0  0  0
   17.4383   -3.7347    9.2682 H   0  0  0  0  0  0  0  0  0  0  0  0
   16.3703   -2.5990   11.9218 H   0  0  0  0  0  0  0  0  0  0  0  0
   16.9702    0.2859   11.0376 H   0  0  0  0  0  0  0  0  0  0  0  0
   16.9612   -0.2620   12.7389 H   0  0  0  0  0  0  0  0  0  0  0  0
   14.9739    0.6461   12.0335 H   0  0  0  0  0  0  0  0  0  0  0  0
   18.9872   -1.4423   11.8941 H   0  0  0  0  0  0  0  0  0  0  0  0
   19.6636   -3.5337   11.7989 H   0  0  0  0  0  0  0  0  0  0  0  0
   18.9231   -1.0303    9.4898 H   0  0  0  0  0  0  0  0  0  0  0  0
   19.7476   -3.7541    9.7194 H   0  0  0  0  0  0  0  0  0  0  0  0
  1  2  2  0  0  0  0
  1  8  1  0  0  0  0
  1 11  1  0  0  0  0
  2  3  1  0  0  0  0
  2 21  1  0  0  0  0
  3  4  1  0  0  0  0
  3  5  2  0  0  0  0
  5  6  1  0  0  0  0
  5  7  1  0  0  0  0
  7  8  2  0  0  0  0
  7 22  1  0  0  0  0
  8  9  1  0  0  0  0
  9 10  1  0  0  0  0
 10 11  2  0  0  0  0
 10 23  1  0  0  0  0
 11 12  1  0  0  0  0
 12 13  1  0  0  0  0
 12 19  1  0  0  0  0
 12 24  1  1  0  0  0
 13 14  1  0  0  0  0
 14 15  1  0  0  0  0
 14 17  1  0  0  0  0
 14 25  1  1  0  0  0
 15 16  1  0  0  0  0
 15 26  1  0  0  0  0
 15 27  1  0  0  0  0
 16 28  1  0  0  0  0
 17 18  1  0  0  0  0
 17 19  1  0  0  0  0
 17 29  1  1  0  0  0
 18 30  1  0  0  0  0
 19 20  1  0  0  0  0
 19 31  1  6  0  0  0
 20 32  1  0  0  0  0
M  CHG  1  11   1
M  END
$$$$
