RIT
 OpenBabel04091914433D

 98101  0  0  1  0  0  0  0  0999 V2000
    2.8047    8.6182   16.1232 C   0  0  0  0  0  0  0  0  0  0  0  0
    3.1520    8.1491   14.8684 C   0  0  0  0  0  0  0  0  0  0  0  0
    4.7548    7.5436   14.9178 S   0  0  0  0  0  0  0  0  0  0  0  0
    4.8314    7.9241   16.5888 C   0  0  0  0  0  0  0  0  0  0  0  0
    3.7638    8.4897   17.1058 N   0  0  0  0  0  0  0  0  0  0  0  0
    2.3221    8.2076   13.6286 C   0  0  0  0  0  0  0  0  0  0  0  0
    2.6217    7.1017   12.7685 O   0  0  0  0  0  0  0  0  0  0  0  0
    1.6773    6.9606   11.8123 C   0  0  0  0  0  0  0  0  0  0  0  0
    0.5944    7.5437   11.8056 O   0  0  0  0  0  0  0  0  0  0  0  0
    2.0874    6.1198   10.8212 N   0  0  0  0  0  0  0  0  0  0  0  0
    1.3939    6.0756    9.5318 C   0  0  2  0  0  0  0  0  0  0  0  0
    1.3366    4.6189    9.0124 C   0  0  2  0  0  0  0  0  0  0  0  0
    0.5000    3.6758    9.9045 C   0  0  0  0  0  0  0  0  0  0  0  0
   -0.9569    4.1322   10.0498 C   0  0  2  0  0  0  0  0  0  0  0  0
    2.0449    7.0129    8.4847 C   0  0  0  0  0  0  0  0  0  0  0  0
    1.9600    8.4817    8.8375 C   0  0  0  0  0  0  0  0  0  0  0  0
    0.7839    9.2088    8.6052 C   0  0  0  0  0  0  0  0  0  0  0  0
    0.6832   10.5524    8.9689 C   0  0  0  0  0  0  0  0  0  0  0  0
    1.7589   11.1926    9.5715 C   0  0  0  0  0  0  0  0  0  0  0  0
    2.9396   10.4836    9.8010 C   0  0  0  0  0  0  0  0  0  0  0  0
    3.0423    9.1383    9.4353 C   0  0  0  0  0  0  0  0  0  0  0  0
    2.6678    4.0973    8.9022 O   0  0  0  0  0  0  0  0  0  0  0  0
   -1.7997    3.2368   10.9846 C   0  0  0  0  0  0  0  0  0  0  0  0
   -2.1599    1.8661   10.4635 C   0  0  0  0  0  0  0  0  0  0  0  0
   -3.2573    1.6816    9.6087 C   0  0  0  0  0  0  0  0  0  0  0  0
   -3.6075    0.4060    9.1673 C   0  0  0  0  0  0  0  0  0  0  0  0
   -2.8694   -0.7020    9.5767 C   0  0  0  0  0  0  0  0  0  0  0  0
   -1.7796   -0.5312   10.4297 C   0  0  0  0  0  0  0  0  0  0  0  0
   -1.4275    0.7456   10.8694 C   0  0  0  0  0  0  0  0  0  0  0  0
   -1.5384    4.2930    8.7283 N   0  0  0  0  0  0  0  0  0  0  0  0
   -4.1979    4.3143    7.0499 N   0  0  0  0  0  0  0  0  0  0  0  0
   -3.0474    5.2051    7.0465 C   0  0  2  0  0  0  0  0  0  0  0  0
   -2.5356    5.2013    8.4894 C   0  0  0  0  0  0  0  0  0  0  0  0
   -3.0196    5.9076    9.3755 O   0  0  0  0  0  0  0  0  0  0  0  0
   -3.4130    6.6404    6.6314 C   0  0  0  0  0  0  0  0  0  0  0  0
   -2.1555    7.5126    6.6309 C   0  0  0  0  0  0  0  0  0  0  0  0
   -4.0549    6.6721    5.2489 C   0  0  0  0  0  0  0  0  0  0  0  0
   -4.4165    3.4028    6.0583 C   0  0  0  0  0  0  0  0  0  0  0  0
   -5.5670    2.6451    6.1486 N   0  0  0  0  0  0  0  0  0  0  0  0
   -5.8690    1.7431    5.0261 C   0  0  0  0  0  0  0  0  0  0  0  0
   -3.6109    3.2786    5.1370 O   0  0  0  0  0  0  0  0  0  0  0  0
   -6.0986    0.3394    5.4947 C   0  0  0  0  0  0  0  0  0  0  0  0
   -5.0961   -0.5508    5.8194 C   0  0  0  0  0  0  0  0  0  0  0  0
   -5.7556   -2.0499    6.2656 S   0  0  0  0  0  0  0  0  0  0  0  0
   -7.3510   -1.4230    6.0338 C   0  0  0  0  0  0  0  0  0  0  0  0
   -7.3925   -0.1690    5.6198 N   0  0  0  0  0  0  0  0  0  0  0  0
   -8.5719   -2.2805    6.3082 C   0  0  0  0  0  0  0  0  0  0  0  0
   -9.0651   -2.9643    5.0318 C   0  0  0  0  0  0  0  0  0  0  0  0
   -8.3180   -3.3137    7.4119 C   0  0  0  0  0  0  0  0  0  0  0  0
   -6.6105    2.7881    7.1587 C   0  0  0  0  0  0  0  0  0  0  0  0
    1.8537    9.0767   16.3736 H   0  0  0  0  0  0  0  0  0  0  0  0
    5.7135    7.7127   17.1789 H   0  0  0  0  0  0  0  0  0  0  0  0
    2.5398    9.1390   13.0922 H   0  0  0  0  0  0  0  0  0  0  0  0
    1.2660    8.1989   13.9279 H   0  0  0  0  0  0  0  0  0  0  0  0
    3.0074    5.7067   10.8951 H   0  0  0  0  0  0  0  0  0  0  0  0
    0.3740    6.4423    9.6781 H   0  0  0  0  0  0  0  0  0  0  0  0
    0.9177    4.6226    7.9983 H   0  0  0  0  0  0  0  0  0  0  0  0
    0.9674    3.5824   10.8922 H   0  0  0  0  0  0  0  0  0  0  0  0
    0.5290    2.6724    9.4624 H   0  0  0  0  0  0  0  0  0  0  0  0
   -0.9629    5.1156   10.5342 H   0  0  0  0  0  0  0  0  0  0  0  0
    1.5424    6.8736    7.5147 H   0  0  0  0  0  0  0  0  0  0  0  0
    3.0933    6.7399    8.3192 H   0  0  0  0  0  0  0  0  0  0  0  0
   -0.0762    8.7278    8.1575 H   0  0  0  0  0  0  0  0  0  0  0  0
   -0.2433   11.0892    8.7908 H   0  0  0  0  0  0  0  0  0  0  0  0
    1.6836   12.2391    9.8638 H   0  0  0  0  0  0  0  0  0  0  0  0
    3.7819   10.9772   10.2778 H   0  0  0  0  0  0  0  0  0  0  0  0
    3.9657    8.5998    9.6364 H   0  0  0  0  0  0  0  0  0  0  0  0
    2.6048    3.2257    8.4728 H   0  0  0  0  0  0  0  0  0  0  0  0
   -2.7319    3.7577   11.2446 H   0  0  0  0  0  0  0  0  0  0  0  0
   -1.2637    3.1265   11.9372 H   0  0  0  0  0  0  0  0  0  0  0  0
   -3.8598    2.5302    9.2968 H   0  0  0  0  0  0  0  0  0  0  0  0
   -4.4679    0.2739    8.5168 H   0  0  0  0  0  0  0  0  0  0  0  0
   -3.1509   -1.6987    9.2483 H   0  0  0  0  0  0  0  0  0  0  0  0
   -1.2148   -1.3943   10.7680 H   0  0  0  0  0  0  0  0  0  0  0  0
   -0.5868    0.8584   11.5501 H   0  0  0  0  0  0  0  0  0  0  0  0
   -1.3268    3.6028    8.0089 H   0  0  0  0  0  0  0  0  0  0  0  0
   -4.8605    4.4725    7.7894 H   0  0  0  0  0  0  0  0  0  0  0  0
   -2.2698    4.8102    6.3786 H   0  0  0  0  0  0  0  0  0  0  0  0
   -4.1255    7.0654    7.3516 H   0  0  0  0  0  0  0  0  0  0  0  0
   -2.3909    8.5490    6.3704 H   0  0  0  0  0  0  0  0  0  0  0  0
   -1.4120    7.1368    5.9195 H   0  0  0  0  0  0  0  0  0  0  0  0
   -1.6952    7.5182    7.6207 H   0  0  0  0  0  0  0  0  0  0  0  0
   -4.9773    6.0845    5.2293 H   0  0  0  0  0  0  0  0  0  0  0  0
   -3.3718    6.2660    4.4958 H   0  0  0  0  0  0  0  0  0  0  0  0
   -4.3123    7.6968    4.9650 H   0  0  0  0  0  0  0  0  0  0  0  0
   -5.0442    1.7202    4.3038 H   0  0  0  0  0  0  0  0  0  0  0  0
   -6.7461    2.1274    4.4950 H   0  0  0  0  0  0  0  0  0  0  0  0
   -4.0299   -0.3813    5.8148 H   0  0  0  0  0  0  0  0  0  0  0  0
   -9.3768   -1.6205    6.6606 H   0  0  0  0  0  0  0  0  0  0  0  0
   -9.9312   -3.6030    5.2396 H   0  0  0  0  0  0  0  0  0  0  0  0
   -8.2863   -3.5886    4.5804 H   0  0  0  0  0  0  0  0  0  0  0  0
   -9.3725   -2.2232    4.2853 H   0  0  0  0  0  0  0  0  0  0  0  0
   -7.9587   -2.8184    8.3223 H   0  0  0  0  0  0  0  0  0  0  0  0
   -7.5614   -4.0483    7.1092 H   0  0  0  0  0  0  0  0  0  0  0  0
   -9.2242   -3.8691    7.6616 H   0  0  0  0  0  0  0  0  0  0  0  0
   -6.3504    3.4805    7.9563 H   0  0  0  0  0  0  0  0  0  0  0  0
   -6.7990    1.8197    7.6287 H   0  0  0  0  0  0  0  0  0  0  0  0
   -7.5195    3.1561    6.6752 H   0  0  0  0  0  0  0  0  0  0  0  0
  1  2  2  0  0  0  0
  1  5  1  0  0  0  0
  1 51  1  0  0  0  0
  2  3  1  0  0  0  0
  2  6  1  0  0  0  0
  3  4  1  0  0  0  0
  4  5  2  0  0  0  0
  4 52  1  0  0  0  0
  6  7  1  0  0  0  0
  6 53  1  0  0  0  0
  6 54  1  0  0  0  0
  7  8  1  0  0  0  0
  8  9  2  0  0  0  0
  8 10  1  0  0  0  0
 10 11  1  0  0  0  0
 10 55  1  0  0  0  0
 11 12  1  0  0  0  0
 11 15  1  0  0  0  0
 11 56  1  1  0  0  0
 12 13  1  0  0  0  0
 12 22  1  0  0  0  0
 12 57  1  6  0  0  0
 13 14  1  0  0  0  0
 13 58  1  0  0  0  0
 13 59  1  0  0  0  0
 14 23  1  0  0  0  0
 14 30  1  0  0  0  0
 14 60  1  1  0  0  0
 15 16  1  0  0  0  0
 15 61  1  0  0  0  0
 15 62  1  0  0  0  0
 16 17  2  0  0  0  0
 16 21  1  0  0  0  0
 17 18  1  0  0  0  0
 17 63  1  0  0  0  0
 18 19  2  0  0  0  0
 18 64  1  0  0  0  0
 19 20  1  0  0  0  0
 19 65  1  0  0  0  0
 20 21  2  0  0  0  0
 20 66  1  0  0  0  0
 21 67  1  0  0  0  0
 22 68  1  0  0  0  0
 23 24  1  0  0  0  0
 23 69  1  0  0  0  0
 23 70  1  0  0  0  0
 24 25  2  0  0  0  0
 24 29  1  0  0  0  0
 25 26  1  0  0  0  0
 25 71  1  0  0  0  0
 26 27  2  0  0  0  0
 26 72  1  0  0  0  0
 27 28  1  0  0  0  0
 27 73  1  0  0  0  0
 28 29  2  0  0  0  0
 28 74  1  0  0  0  0
 29 75  1  0  0  0  0
 30 33  1  0  0  0  0
 30 76  1  0  0  0  0
 31 32  1  0  0  0  0
 31 38  1  0  0  0  0
 31 77  1  0  0  0  0
 32 33  1  0  0  0  0
 32 35  1  0  0  0  0
 32 78  1  6  0  0  0
 33 34  2  0  0  0  0
 35 36  1  0  0  0  0
 35 37  1  0  0  0  0
 35 79  1  0  0  0  0
 36 80  1  0  0  0  0
 36 81  1  0  0  0  0
 36 82  1  0  0  0  0
 37 83  1  0  0  0  0
 37 84  1  0  0  0  0
 37 85  1  0  0  0  0
 38 39  1  0  0  0  0
 38 41  2  0  0  0  0
 39 40  1  0  0  0  0
 39 50  1  0  0  0  0
 40 42  1  0  0  0  0
 40 86  1  0  0  0  0
 40 87  1  0  0  0  0
 42 43  2  0  0  0  0
 42 46  1  0  0  0  0
 43 44  1  0  0  0  0
 43 88  1  0  0  0  0
 44 45  1  0  0  0  0
 45 46  2  0  0  0  0
 45 47  1  0  0  0  0
 47 48  1  0  0  0  0
 47 49  1  0  0  0  0
 47 89  1  0  0  0  0
 48 90  1  0  0  0  0
 48 91  1  0  0  0  0
 48 92  1  0  0  0  0
 49 93  1  0  0  0  0
 49 94  1  0  0  0  0
 49 95  1  0  0  0  0
 50 96  1  0  0  0  0
 50 97  1  0  0  0  0
 50 98  1  0  0  0  0
M  END
$$$$
