ROC
 OpenBabel04091911453D

100104  0  0  1  0  0  0  0  0999 V2000
    6.1815   -6.3227   18.0888 C   0  0  0  0  0  0  0  0  0  0  0  0
    6.3980   -5.7763   19.1641 O   0  0  0  0  0  0  0  0  0  0  0  0
    5.2611   -8.1225   16.7526 N   0  0  0  0  0  0  0  0  0  0  0  0
    5.4395   -7.6190   18.0041 C   0  0  0  0  0  0  0  0  0  0  0  0
    4.9772   -8.2169   19.1651 C   0  0  0  0  0  0  0  0  0  0  0  0
    4.2678   -9.4062   19.0391 C   0  0  0  0  0  0  0  0  0  0  0  0
    3.3205  -11.1458   17.5947 C   0  0  0  0  0  0  0  0  0  0  0  0
    3.1149  -11.6685   16.3207 C   0  0  0  0  0  0  0  0  0  0  0  0
    3.6268  -11.0010   15.2074 C   0  0  0  0  0  0  0  0  0  0  0  0
    4.3463   -9.8165   15.3898 C   0  0  0  0  0  0  0  0  0  0  0  0
    4.0466   -9.9528   17.7679 C   0  0  0  0  0  0  0  0  0  0  0  0
    4.5708   -9.2696   16.6441 C   0  0  0  0  0  0  0  0  0  0  0  0
    6.5833   -5.8030   16.8770 N   0  0  0  0  0  0  0  0  0  0  0  0
    7.3533   -4.5732   16.7815 C   0  0  2  0  0  0  0  0  0  0  0  0
    6.6153   -3.5948   15.8615 C   0  0  0  0  0  0  0  0  0  0  0  0
    6.7287   -3.5913   14.6372 O   0  0  0  0  0  0  0  0  0  0  0  0
    8.7459   -4.8162   16.2201 C   0  0  0  0  0  0  0  0  0  0  0  0
    9.6038   -5.4911   17.2524 C   0  0  0  0  0  0  0  0  0  0  0  0
    9.9770   -4.9351   18.2781 O   0  0  0  0  0  0  0  0  0  0  0  0
    9.9542   -6.7740   16.9590 N   0  0  0  0  0  0  0  0  0  0  0  0
    5.5210   -0.3584   16.1384 C   0  0  1  0  0  0  0  0  0  0  0  0
    5.2067    0.0144   17.4847 O   0  0  0  0  0  0  0  0  0  0  0  0
    4.9288   -1.7577   15.8386 C   0  0  1  0  0  0  0  0  0  0  0  0
    5.7728   -2.7333   16.5261 N   0  0  0  0  0  0  0  0  0  0  0  0
    3.4576   -1.9202   16.2739 C   0  0  0  0  0  0  0  0  0  0  0  0
    2.9594   -3.3442   16.1547 C   0  0  0  0  0  0  0  0  0  0  0  0
    2.5924   -3.8801   14.9144 C   0  0  0  0  0  0  0  0  0  0  0  0
    2.9128   -4.1664   17.2921 C   0  0  0  0  0  0  0  0  0  0  0  0
    2.1829   -5.2123   14.8174 C   0  0  0  0  0  0  0  0  0  0  0  0
    2.5041   -5.4957   17.1911 C   0  0  0  0  0  0  0  0  0  0  0  0
    2.1412   -6.0195   15.9533 C   0  0  0  0  0  0  0  0  0  0  0  0
    5.8732    0.7977   13.9055 N   0  3  1  0  0  0  0  0  0  0  0  0
    5.0455    0.7490   15.1862 C   0  0  0  0  0  0  0  0  0  0  0  0
    5.0785    1.3932   12.7384 C   0  0  2  0  0  0  0  0  0  0  0  0
    3.7801    0.6193   12.4580 C   0  0  0  0  0  0  0  0  0  0  0  0
    3.7580   -0.6071   12.5113 O   0  0  0  0  0  0  0  0  0  0  0  0
    5.9330    1.3786   11.4732 C   0  0  0  0  0  0  0  0  0  0  0  0
    7.2479    2.1385   11.6810 C   0  0  2  0  0  0  0  0  0  0  0  0
    8.1078    2.1399   10.4122 C   0  0  0  0  0  0  0  0  0  0  0  0
    8.7829    0.7961   10.1475 C   0  0  0  0  0  0  0  0  0  0  0  0
    9.5672    0.3063   11.3599 C   0  0  0  0  0  0  0  0  0  0  0  0
    8.6715    0.2220   12.5913 C   0  0  0  0  0  0  0  0  0  0  0  0
    8.0318    1.5868   12.8845 C   0  0  2  0  0  0  0  0  0  0  0  0
    7.1644    1.5480   14.1351 C   0  0  0  0  0  0  0  0  0  0  0  0
    2.7054    1.4360   12.2258 N   0  0  0  0  0  0  0  0  0  0  0  0
    1.3413    1.0189   11.8660 C   0  0  0  0  0  0  0  0  0  0  0  0
    0.5067    2.3066   11.7675 C   0  0  0  0  0  0  0  0  0  0  0  0
    1.3247    0.3261   10.4956 C   0  0  0  0  0  0  0  0  0  0  0  0
    0.7268    0.1084   12.9355 C   0  0  0  0  0  0  0  0  0  0  0  0
    5.1590   -7.7722   20.1366 H   0  0  0  0  0  0  0  0  0  0  0  0
    3.8888   -9.8970   19.9314 H   0  0  0  0  0  0  0  0  0  0  0  0
    2.9143  -11.6740   18.4533 H   0  0  0  0  0  0  0  0  0  0  0  0
    2.5533  -12.5922   16.1912 H   0  0  0  0  0  0  0  0  0  0  0  0
    3.4694  -11.3965   14.2127 H   0  0  0  0  0  0  0  0  0  0  0  0
    4.7394   -9.3067   14.5130 H   0  0  0  0  0  0  0  0  0  0  0  0
    6.2706   -6.2955   16.0411 H   0  0  0  0  0  0  0  0  0  0  0  0
    7.4314   -4.1132   17.7741 H   0  0  0  0  0  0  0  0  0  0  0  0
    9.2326   -3.8633   15.9749 H   0  0  0  0  0  0  0  0  0  0  0  0
    8.7090   -5.4022   15.2964 H   0  0  0  0  0  0  0  0  0  0  0  0
   10.4989   -7.2858   17.6411 H   0  0  0  0  0  0  0  0  0  0  0  0
    9.6119   -7.2697   16.1474 H   0  0  0  0  0  0  0  0  0  0  0  0
    6.6146   -0.4333   16.0896 H   0  0  0  0  0  0  0  0  0  0  0  0
    5.7024    0.8142   17.7346 H   0  0  0  0  0  0  0  0  0  0  0  0
    5.0020   -1.9467   14.7549 H   0  0  0  0  0  0  0  0  0  0  0  0
    5.6945   -2.8038   17.5355 H   0  0  0  0  0  0  0  0  0  0  0  0
    2.8091   -1.2635   15.6815 H   0  0  0  0  0  0  0  0  0  0  0  0
    3.3370   -1.6023   17.3170 H   0  0  0  0  0  0  0  0  0  0  0  0
    2.6336   -3.2735   14.0126 H   0  0  0  0  0  0  0  0  0  0  0  0
    3.2105   -3.7833   18.2661 H   0  0  0  0  0  0  0  0  0  0  0  0
    1.9019   -5.6264   13.8522 H   0  0  0  0  0  0  0  0  0  0  0  0
    2.4766   -6.1254   18.0767 H   0  0  0  0  0  0  0  0  0  0  0  0
    1.8325   -7.0589   15.8745 H   0  0  0  0  0  0  0  0  0  0  0  0
    5.1555    1.7335   15.6598 H   0  0  0  0  0  0  0  0  0  0  0  0
    3.9870    0.6405   14.9428 H   0  0  0  0  0  0  0  0  0  0  0  0
    4.8409    2.4216   13.0354 H   0  0  0  0  0  0  0  0  0  0  0  0
    5.3700    1.8407   10.6516 H   0  0  0  0  0  0  0  0  0  0  0  0
    6.1189    0.3440   11.1605 H   0  0  0  0  0  0  0  0  0  0  0  0
    6.9821    3.1836   11.8977 H   0  0  0  0  0  0  0  0  0  0  0  0
    8.8825    2.9102   10.5179 H   0  0  0  0  0  0  0  0  0  0  0  0
    7.5015    2.4258    9.5447 H   0  0  0  0  0  0  0  0  0  0  0  0
    9.4555    0.8896    9.2875 H   0  0  0  0  0  0  0  0  0  0  0  0
    8.0282    0.0479    9.8790 H   0  0  0  0  0  0  0  0  0  0  0  0
   10.4017    0.9906   11.5614 H   0  0  0  0  0  0  0  0  0  0  0  0
   10.0021   -0.6762   11.1513 H   0  0  0  0  0  0  0  0  0  0  0  0
    9.2668   -0.1036   13.4529 H   0  0  0  0  0  0  0  0  0  0  0  0
    7.9081   -0.5475   12.4305 H   0  0  0  0  0  0  0  0  0  0  0  0
    8.8541    2.2867   13.0922 H   0  0  0  0  0  0  0  0  0  0  0  0
    7.6951    1.0714   14.9642 H   0  0  0  0  0  0  0  0  0  0  0  0
    6.8917    2.5671   14.4359 H   0  0  0  0  0  0  0  0  0  0  0  0
    2.8476    2.4428   12.2384 H   0  0  0  0  0  0  0  0  0  0  0  0
   -0.5323    2.0994   11.4969 H   0  0  0  0  0  0  0  0  0  0  0  0
    0.9277    2.9844   11.0133 H   0  0  0  0  0  0  0  0  0  0  0  0
    0.5148    2.8489   12.7208 H   0  0  0  0  0  0  0  0  0  0  0  0
    0.3042    0.0342   10.2196 H   0  0  0  0  0  0  0  0  0  0  0  0
    1.9452   -0.5751   10.4802 H   0  0  0  0  0  0  0  0  0  0  0  0
    1.6996    0.9957    9.7118 H   0  0  0  0  0  0  0  0  0  0  0  0
   -0.2952   -0.1792   12.6612 H   0  0  0  0  0  0  0  0  0  0  0  0
    0.6831    0.6153   13.9052 H   0  0  0  0  0  0  0  0  0  0  0  0
    1.2987   -0.8145   13.0735 H   0  0  0  0  0  0  0  0  0  0  0  0
    6.0682   -0.1795   13.6225 H   0  0  0  0  0  0  0  0  0  0  0  0
  1  2  2  0  0  0  0
  1  4  1  0  0  0  0
  1 13  1  0  0  0  0
  3  4  2  0  0  0  0
  3 12  1  0  0  0  0
  4  5  1  0  0  0  0
  5  6  2  0  0  0  0
  5 50  1  0  0  0  0
  6 11  1  0  0  0  0
  6 51  1  0  0  0  0
  7  8  2  0  0  0  0
  7 11  1  0  0  0  0
  7 52  1  0  0  0  0
  8  9  1  0  0  0  0
  8 53  1  0  0  0  0
  9 10  2  0  0  0  0
  9 54  1  0  0  0  0
 10 12  1  0  0  0  0
 10 55  1  0  0  0  0
 11 12  2  0  0  0  0
 13 14  1  0  0  0  0
 13 56  1  0  0  0  0
 14 15  1  0  0  0  0
 14 17  1  0  0  0  0
 14 57  1  1  0  0  0
 15 16  2  0  0  0  0
 15 24  1  0  0  0  0
 17 18  1  0  0  0  0
 17 58  1  0  0  0  0
 17 59  1  0  0  0  0
 18 19  2  0  0  0  0
 18 20  1  0  0  0  0
 20 60  1  0  0  0  0
 20 61  1  0  0  0  0
 21 22  1  0  0  0  0
 21 23  1  0  0  0  0
 21 33  1  0  0  0  0
 21 62  1  6  0  0  0
 22 63  1  0  0  0  0
 23 24  1  0  0  0  0
 23 25  1  0  0  0  0
 23 64  1  6  0  0  0
 24 65  1  0  0  0  0
 25 26  1  0  0  0  0
 25 66  1  0  0  0  0
 25 67  1  0  0  0  0
 26 27  2  0  0  0  0
 26 28  1  0  0  0  0
 27 29  1  0  0  0  0
 27 68  1  0  0  0  0
 28 30  2  0  0  0  0
 28 69  1  0  0  0  0
 29 31  2  0  0  0  0
 29 70  1  0  0  0  0
 30 31  1  0  0  0  0
 30 71  1  0  0  0  0
 31 72  1  0  0  0  0
 32 33  1  0  0  0  0
 32 34  1  0  0  0  0
 32 44  1  0  0  0  0
 32100  1  6  0  0  0
 33 73  1  0  0  0  0
 33 74  1  0  0  0  0
 34 35  1  0  0  0  0
 34 37  1  0  0  0  0
 34 75  1  1  0  0  0
 35 36  2  0  0  0  0
 35 45  1  0  0  0  0
 37 38  1  0  0  0  0
 37 76  1  0  0  0  0
 37 77  1  0  0  0  0
 38 39  1  0  0  0  0
 38 43  1  0  0  0  0
 38 78  1  1  0  0  0
 39 40  1  0  0  0  0
 39 79  1  0  0  0  0
 39 80  1  0  0  0  0
 40 41  1  0  0  0  0
 40 81  1  0  0  0  0
 40 82  1  0  0  0  0
 41 42  1  0  0  0  0
 41 83  1  0  0  0  0
 41 84  1  0  0  0  0
 42 43  1  0  0  0  0
 42 85  1  0  0  0  0
 42 86  1  0  0  0  0
 43 44  1  0  0  0  0
 43 87  1  1  0  0  0
 44 88  1  0  0  0  0
 44 89  1  0  0  0  0
 45 46  1  0  0  0  0
 45 90  1  0  0  0  0
 46 47  1  0  0  0  0
 46 48  1  0  0  0  0
 46 49  1  0  0  0  0
 47 91  1  0  0  0  0
 47 92  1  0  0  0  0
 47 93  1  0  0  0  0
 48 94  1  0  0  0  0
 48 95  1  0  0  0  0
 48 96  1  0  0  0  0
 49 97  1  0  0  0  0
 49 98  1  0  0  0  0
 49 99  1  0  0  0  0
M  CHG  1  32   1
M  END
$$$$
