ROC
 OpenBabel04091911193D

100104  0  0  1  0  0  0  0  0999 V2000
   20.9185   27.6272   18.7707 O   0  0  0  0  0  0  0  0  0  0  0  0
   21.4336   26.5288   18.5956 C   0  0  0  0  0  0  0  0  0  0  0  0
   23.2837   24.9937   18.9568 N   0  0  0  0  0  0  0  0  0  0  0  0
   22.6043   26.0823   19.4133 C   0  0  0  0  0  0  0  0  0  0  0  0
   22.8909   26.7420   20.5963 C   0  0  0  0  0  0  0  0  0  0  0  0
   23.9283   26.2487   21.3805 C   0  0  0  0  0  0  0  0  0  0  0  0
   24.6677   25.1422   20.9356 C   0  0  0  0  0  0  0  0  0  0  0  0
   25.7392   24.6267   21.6840 C   0  0  0  0  0  0  0  0  0  0  0  0
   26.4777   23.5344   21.2044 C   0  0  0  0  0  0  0  0  0  0  0  0
   26.1334   22.9634   19.9889 C   0  0  0  0  0  0  0  0  0  0  0  0
   25.0549   23.4696   19.2566 C   0  0  0  0  0  0  0  0  0  0  0  0
   24.3099   24.5501   19.6991 C   0  0  0  0  0  0  0  0  0  0  0  0
   20.9655   25.6015   17.6866 N   0  0  0  0  0  0  0  0  0  0  0  0
   19.7619   25.8332   16.8994 C   0  0  2  0  0  0  0  0  0  0  0  0
   18.7813   24.6818   17.1383 C   0  0  0  0  0  0  0  0  0  0  0  0
   18.8267   23.6146   16.5285 O   0  0  0  0  0  0  0  0  0  0  0  0
   20.0428   25.9276   15.4075 C   0  0  0  0  0  0  0  0  0  0  0  0
   20.7860   27.2020   15.1362 C   0  0  0  0  0  0  0  0  0  0  0  0
   20.2612   28.3063   15.2112 O   0  0  0  0  0  0  0  0  0  0  0  0
   22.0996   27.0450   14.8153 N   0  0  0  0  0  0  0  0  0  0  0  0
   15.4720   24.5124   18.1392 C   0  0  1  0  0  0  0  0  0  0  0  0
   15.1203   25.6029   18.9950 O   0  0  0  0  0  0  0  0  0  0  0  0
   16.8582   23.9436   18.5327 C   0  0  1  0  0  0  0  0  0  0  0  0
   17.8588   24.9262   18.1299 N   0  0  0  0  0  0  0  0  0  0  0  0
   16.9598   23.5916   20.0309 C   0  0  0  0  0  0  0  0  0  0  0  0
   18.3724   23.3691   20.5035 C   0  0  0  0  0  0  0  0  0  0  0  0
   19.0308   22.1491   20.2902 C   0  0  0  0  0  0  0  0  0  0  0  0
   19.0641   24.4191   21.1245 C   0  0  0  0  0  0  0  0  0  0  0  0
   20.3589   21.9932   20.6960 C   0  0  0  0  0  0  0  0  0  0  0  0
   20.3815   24.2559   21.5340 C   0  0  0  0  0  0  0  0  0  0  0  0
   21.0334   23.0450   21.3139 C   0  0  0  0  0  0  0  0  0  0  0  0
   14.2784   22.6792   16.8938 N   0  3  1  0  0  0  0  0  0  0  0  0
   14.3571   23.4619   18.1895 C   0  0  0  0  0  0  0  0  0  0  0  0
   13.6316   21.3153   17.0941 C   0  0  2  0  0  0  0  0  0  0  0  0
   14.4130   20.5127   18.1274 C   0  0  0  0  0  0  0  0  0  0  0  0
   15.6356   20.5695   18.1645 O   0  0  0  0  0  0  0  0  0  0  0  0
   13.6580   20.5255   15.7908 C   0  0  0  0  0  0  0  0  0  0  0  0
   13.0208   21.3013   14.6335 C   0  0  2  0  0  0  0  0  0  0  0  0
   13.1296   20.5242   13.3156 C   0  0  0  0  0  0  0  0  0  0  0  0
   14.5683   20.4603   12.8036 C   0  0  0  0  0  0  0  0  0  0  0  0
   15.1275   21.8687   12.6286 C   0  0  0  0  0  0  0  0  0  0  0  0
   15.0892   22.6299   13.9484 C   0  0  0  0  0  0  0  0  0  0  0  0
   13.6504   22.7006   14.4920 C   0  0  2  0  0  0  0  0  0  0  0  0
   13.5852   23.4553   15.8108 C   0  0  0  0  0  0  0  0  0  0  0  0
   13.6079   19.8346   19.0049 N   0  0  0  0  0  0  0  0  0  0  0  0
   14.0906   18.9386   20.0577 C   0  0  0  0  0  0  0  0  0  0  0  0
   14.8926   17.7854   19.4404 C   0  0  0  0  0  0  0  0  0  0  0  0
   12.8372   18.3868   20.7550 C   0  0  0  0  0  0  0  0  0  0  0  0
   14.9542   19.6977   21.0755 C   0  0  0  0  0  0  0  0  0  0  0  0
   22.3009   27.5939   20.9225 H   0  0  0  0  0  0  0  0  0  0  0  0
   24.1554   26.7266   22.3286 H   0  0  0  0  0  0  0  0  0  0  0  0
   26.0181   25.0663   22.6354 H   0  0  0  0  0  0  0  0  0  0  0  0
   27.3120   23.1490   21.7774 H   0  0  0  0  0  0  0  0  0  0  0  0
   26.7063   22.1234   19.6000 H   0  0  0  0  0  0  0  0  0  0  0  0
   24.7992   23.0097   18.3038 H   0  0  0  0  0  0  0  0  0  0  0  0
   21.4133   24.6865   17.6989 H   0  0  0  0  0  0  0  0  0  0  0  0
   19.2819   26.7607   17.2353 H   0  0  0  0  0  0  0  0  0  0  0  0
   19.1034   25.9695   14.8399 H   0  0  0  0  0  0  0  0  0  0  0  0
   20.5969   25.0579   15.0378 H   0  0  0  0  0  0  0  0  0  0  0  0
   22.6643   27.8813   14.7401 H   0  0  0  0  0  0  0  0  0  0  0  0
   22.5701   26.1511   14.8490 H   0  0  0  0  0  0  0  0  0  0  0  0
   15.5535   24.9321   17.1302 H   0  0  0  0  0  0  0  0  0  0  0  0
   14.3065   26.0269   18.6676 H   0  0  0  0  0  0  0  0  0  0  0  0
   17.0405   23.0277   17.9564 H   0  0  0  0  0  0  0  0  0  0  0  0
   17.8999   25.8096   18.6335 H   0  0  0  0  0  0  0  0  0  0  0  0
   16.3717   22.6915   20.2460 H   0  0  0  0  0  0  0  0  0  0  0  0
   16.5137   24.3856   20.6435 H   0  0  0  0  0  0  0  0  0  0  0  0
   18.5265   21.3221   19.7987 H   0  0  0  0  0  0  0  0  0  0  0  0
   18.5771   25.3820   21.2796 H   0  0  0  0  0  0  0  0  0  0  0  0
   20.8714   21.0507   20.5280 H   0  0  0  0  0  0  0  0  0  0  0  0
   20.9027   25.0745   22.0199 H   0  0  0  0  0  0  0  0  0  0  0  0
   22.0690   22.9211   21.6232 H   0  0  0  0  0  0  0  0  0  0  0  0
   13.3738   23.9212   18.3400 H   0  0  0  0  0  0  0  0  0  0  0  0
   14.5090   22.7767   19.0259 H   0  0  0  0  0  0  0  0  0  0  0  0
   12.6048   21.5031   17.4310 H   0  0  0  0  0  0  0  0  0  0  0  0
   13.1385   19.5682   15.9279 H   0  0  0  0  0  0  0  0  0  0  0  0
   14.6970   20.2614   15.5612 H   0  0  0  0  0  0  0  0  0  0  0  0
   11.9536   21.4230   14.8673 H   0  0  0  0  0  0  0  0  0  0  0  0
   12.5107   21.0263   12.5609 H   0  0  0  0  0  0  0  0  0  0  0  0
   12.7239   19.5134   13.4335 H   0  0  0  0  0  0  0  0  0  0  0  0
   14.6038   19.9187   11.8540 H   0  0  0  0  0  0  0  0  0  0  0  0
   15.1987   19.8978   13.5036 H   0  0  0  0  0  0  0  0  0  0  0  0
   14.5323   22.4081   11.8825 H   0  0  0  0  0  0  0  0  0  0  0  0
   16.1556   21.8224   12.2554 H   0  0  0  0  0  0  0  0  0  0  0  0
   15.4874   23.6412   13.8113 H   0  0  0  0  0  0  0  0  0  0  0  0
   15.7603   22.1280   14.6559 H   0  0  0  0  0  0  0  0  0  0  0  0
   13.0509   23.2697   13.7681 H   0  0  0  0  0  0  0  0  0  0  0  0
   14.0584   24.4362   15.7242 H   0  0  0  0  0  0  0  0  0  0  0  0
   12.5471   23.5969   16.1360 H   0  0  0  0  0  0  0  0  0  0  0  0
   12.6022   19.9388   18.9425 H   0  0  0  0  0  0  0  0  0  0  0  0
   15.2194   17.0759   20.2059 H   0  0  0  0  0  0  0  0  0  0  0  0
   15.7891   18.1470   18.9245 H   0  0  0  0  0  0  0  0  0  0  0  0
   14.2940   17.2422   18.7002 H   0  0  0  0  0  0  0  0  0  0  0  0
   13.0859   17.6763   21.5482 H   0  0  0  0  0  0  0  0  0  0  0  0
   12.1831   17.8819   20.0328 H   0  0  0  0  0  0  0  0  0  0  0  0
   12.2472   19.2014   21.1942 H   0  0  0  0  0  0  0  0  0  0  0  0
   15.2985   19.0306   21.8731 H   0  0  0  0  0  0  0  0  0  0  0  0
   14.3956   20.5206   21.5361 H   0  0  0  0  0  0  0  0  0  0  0  0
   15.8449   20.1341   20.6119 H   0  0  0  0  0  0  0  0  0  0  0  0
   15.2541   22.4596   16.6231 H   0  0  0  0  0  0  0  0  0  0  0  0
  1  2  2  0  0  0  0
  2  4  1  0  0  0  0
  2 13  1  0  0  0  0
  3  4  2  0  0  0  0
  3 12  1  0  0  0  0
  4  5  1  0  0  0  0
  5  6  2  0  0  0  0
  5 50  1  0  0  0  0
  6  7  1  0  0  0  0
  6 51  1  0  0  0  0
  7  8  2  0  0  0  0
  7 12  1  0  0  0  0
  8  9  1  0  0  0  0
  8 52  1  0  0  0  0
  9 10  2  0  0  0  0
  9 53  1  0  0  0  0
 10 11  1  0  0  0  0
 10 54  1  0  0  0  0
 11 12  2  0  0  0  0
 11 55  1  0  0  0  0
 13 14  1  0  0  0  0
 13 56  1  0  0  0  0
 14 15  1  0  0  0  0
 14 17  1  0  0  0  0
 14 57  1  1  0  0  0
 15 16  2  0  0  0  0
 15 24  1  0  0  0  0
 17 18  1  0  0  0  0
 17 58  1  0  0  0  0
 17 59  1  0  0  0  0
 18 19  2  0  0  0  0
 18 20  1  0  0  0  0
 20 60  1  0  0  0  0
 20 61  1  0  0  0  0
 21 22  1  0  0  0  0
 21 23  1  0  0  0  0
 21 33  1  0  0  0  0
 21 62  1  6  0  0  0
 22 63  1  0  0  0  0
 23 24  1  0  0  0  0
 23 25  1  0  0  0  0
 23 64  1  6  0  0  0
 24 65  1  0  0  0  0
 25 26  1  0  0  0  0
 25 66  1  0  0  0  0
 25 67  1  0  0  0  0
 26 27  2  0  0  0  0
 26 28  1  0  0  0  0
 27 29  1  0  0  0  0
 27 68  1  0  0  0  0
 28 30  2  0  0  0  0
 28 69  1  0  0  0  0
 29 31  2  0  0  0  0
 29 70  1  0  0  0  0
 30 31  1  0  0  0  0
 30 71  1  0  0  0  0
 31 72  1  0  0  0  0
 32 33  1  0  0  0  0
 32 34  1  0  0  0  0
 32 44  1  0  0  0  0
 32100  1  6  0  0  0
 33 73  1  0  0  0  0
 33 74  1  0  0  0  0
 34 35  1  0  0  0  0
 34 37  1  0  0  0  0
 34 75  1  1  0  0  0
 35 36  2  0  0  0  0
 35 45  1  0  0  0  0
 37 38  1  0  0  0  0
 37 76  1  0  0  0  0
 37 77  1  0  0  0  0
 38 39  1  0  0  0  0
 38 43  1  0  0  0  0
 38 78  1  1  0  0  0
 39 40  1  0  0  0  0
 39 79  1  0  0  0  0
 39 80  1  0  0  0  0
 40 41  1  0  0  0  0
 40 81  1  0  0  0  0
 40 82  1  0  0  0  0
 41 42  1  0  0  0  0
 41 83  1  0  0  0  0
 41 84  1  0  0  0  0
 42 43  1  0  0  0  0
 42 85  1  0  0  0  0
 42 86  1  0  0  0  0
 43 44  1  0  0  0  0
 43 87  1  6  0  0  0
 44 88  1  0  0  0  0
 44 89  1  0  0  0  0
 45 46  1  0  0  0  0
 45 90  1  0  0  0  0
 46 47  1  0  0  0  0
 46 48  1  0  0  0  0
 46 49  1  0  0  0  0
 47 91  1  0  0  0  0
 47 92  1  0  0  0  0
 47 93  1  0  0  0  0
 48 94  1  0  0  0  0
 48 95  1  0  0  0  0
 48 96  1  0  0  0  0
 49 97  1  0  0  0  0
 49 98  1  0  0  0  0
 49 99  1  0  0  0  0
M  CHG  1  32   1
M  END
$$$$
