ROC
 OpenBabel04091914453D

100104  0  0  1  0  0  0  0  0999 V2000
   -3.8637    2.9430    6.5045 C   0  0  0  0  0  0  0  0  0  0  0  0
   -3.4230    3.4087    5.4635 O   0  0  0  0  0  0  0  0  0  0  0  0
   -5.6925    1.5989    5.6636 N   0  0  0  0  0  0  0  0  0  0  0  0
   -4.6430    1.6809    6.5274 C   0  0  0  0  0  0  0  0  0  0  0  0
   -4.2969    0.6915    7.4316 C   0  0  0  0  0  0  0  0  0  0  0  0
   -5.0591   -0.4624    7.4539 C   0  0  0  0  0  0  0  0  0  0  0  0
   -6.9278   -1.7493    6.5687 C   0  0  0  0  0  0  0  0  0  0  0  0
   -8.0017   -1.8781    5.6932 C   0  0  0  0  0  0  0  0  0  0  0  0
   -8.3001   -0.8401    4.8243 C   0  0  0  0  0  0  0  0  0  0  0  0
   -7.5240    0.3234    4.8377 C   0  0  0  0  0  0  0  0  0  0  0  0
   -6.1423   -0.5903    6.5720 C   0  0  0  0  0  0  0  0  0  0  0  0
   -6.4264    0.4718    5.6906 C   0  0  0  0  0  0  0  0  0  0  0  0
   -3.6724    3.5448    7.7355 N   0  0  0  0  0  0  0  0  0  0  0  0
   -3.1721    4.9149    7.8107 C   0  0  2  0  0  0  0  0  0  0  0  0
   -2.3240    5.0107    9.0752 C   0  0  0  0  0  0  0  0  0  0  0  0
   -2.5035    5.8373    9.9669 O   0  0  0  0  0  0  0  0  0  0  0  0
   -4.2799    5.9563    7.8207 C   0  0  0  0  0  0  0  0  0  0  0  0
   -4.7749    6.1969    6.4222 C   0  0  0  0  0  0  0  0  0  0  0  0
   -4.0746    6.6650    5.5367 O   0  0  0  0  0  0  0  0  0  0  0  0
   -6.0902    5.8686    6.2570 N   0  0  0  0  0  0  0  0  0  0  0  0
    0.9142    4.8794   10.0311 C   0  0  1  0  0  0  0  0  0  0  0  0
    1.7994    4.7763   11.1502 O   0  0  0  0  0  0  0  0  0  0  0  0
   -0.3655    4.0474   10.2428 C   0  0  1  0  0  0  0  0  0  0  0  0
   -1.2473    4.1449    9.0821 N   0  0  0  0  0  0  0  0  0  0  0  0
   -0.0903    2.5831   10.6182 C   0  0  0  0  0  0  0  0  0  0  0  0
   -1.3573    1.7823   10.8106 C   0  0  0  0  0  0  0  0  0  0  0  0
   -2.4556    2.3131   11.5073 C   0  0  0  0  0  0  0  0  0  0  0  0
   -1.4417    0.4795   10.3096 C   0  0  0  0  0  0  0  0  0  0  0  0
   -3.6274    1.5764   11.6599 C   0  0  0  0  0  0  0  0  0  0  0  0
   -2.6111   -0.2628   10.4787 C   0  0  0  0  0  0  0  0  0  0  0  0
   -3.7052    0.2888   11.1440 C   0  0  0  0  0  0  0  0  0  0  0  0
    1.6113    7.2565    9.4223 N   0  3  2  0  0  0  0  0  0  0  0  0
    0.4838    6.3488    9.8781 C   0  0  0  0  0  0  0  0  0  0  0  0
    2.7166    7.4169   10.4575 C   0  0  2  0  0  0  0  0  0  0  0  0
    2.2596    7.8027   11.8729 C   0  0  0  0  0  0  0  0  0  0  0  0
    1.1237    8.1767   12.1195 O   0  0  0  0  0  0  0  0  0  0  0  0
    3.7694    8.3975    9.9311 C   0  0  0  0  0  0  0  0  0  0  0  0
    3.2151    9.7300    9.4207 C   0  0  2  0  0  0  0  0  0  0  0  0
    2.8152   10.6583   10.5753 C   0  0  0  0  0  0  0  0  0  0  0  0
    2.2357   11.9722   10.0848 C   0  0  0  0  0  0  0  0  0  0  0  0
    1.0688   11.7437    9.1341 C   0  0  0  0  0  0  0  0  0  0  0  0
    1.4292   10.8101    7.9802 C   0  0  0  0  0  0  0  0  0  0  0  0
    2.0727    9.4925    8.4276 C   0  0  2  0  0  0  0  0  0  0  0  0
    1.0034    8.5656    8.9914 C   0  0  0  0  0  0  0  0  0  0  0  0
    3.2728    7.7396   12.8020 N   0  0  0  0  0  0  0  0  0  0  0  0
    3.1333    8.1570   14.1932 C   0  0  0  0  0  0  0  0  0  0  0  0
    4.4795    7.9048   14.8807 C   0  0  0  0  0  0  0  0  0  0  0  0
    2.0511    7.3357   14.8965 C   0  0  0  0  0  0  0  0  0  0  0  0
    2.8037    9.6509   14.2919 C   0  0  0  0  0  0  0  0  0  0  0  0
   -3.4486    0.8092    8.0928 H   0  0  0  0  0  0  0  0  0  0  0  0
   -4.8095   -1.2645    8.1440 H   0  0  0  0  0  0  0  0  0  0  0  0
   -6.6991   -2.5733    7.2399 H   0  0  0  0  0  0  0  0  0  0  0  0
   -8.5945   -2.7861    5.6840 H   0  0  0  0  0  0  0  0  0  0  0  0
   -9.1328   -0.9190    4.1321 H   0  0  0  0  0  0  0  0  0  0  0  0
   -7.7463    1.1269    4.1527 H   0  0  0  0  0  0  0  0  0  0  0  0
   -4.0744    3.1241    8.5688 H   0  0  0  0  0  0  0  0  0  0  0  0
   -2.4940    5.0868    6.9651 H   0  0  0  0  0  0  0  0  0  0  0  0
   -3.9179    6.9249    8.1842 H   0  0  0  0  0  0  0  0  0  0  0  0
   -5.0999    5.6523    8.4791 H   0  0  0  0  0  0  0  0  0  0  0  0
   -6.5091    5.9212    5.3385 H   0  0  0  0  0  0  0  0  0  0  0  0
   -6.6317    5.4432    6.9961 H   0  0  0  0  0  0  0  0  0  0  0  0
    1.4591    4.5528    9.1382 H   0  0  0  0  0  0  0  0  0  0  0  0
    2.0296    3.8411   11.2987 H   0  0  0  0  0  0  0  0  0  0  0  0
   -0.8784    4.5039   11.0978 H   0  0  0  0  0  0  0  0  0  0  0  0
   -1.1110    3.5477    8.2649 H   0  0  0  0  0  0  0  0  0  0  0  0
    0.4713    2.5352   11.5585 H   0  0  0  0  0  0  0  0  0  0  0  0
    0.5373    2.1223    9.8443 H   0  0  0  0  0  0  0  0  0  0  0  0
   -2.4249    3.3127   11.9359 H   0  0  0  0  0  0  0  0  0  0  0  0
   -0.6030    0.0323    9.7806 H   0  0  0  0  0  0  0  0  0  0  0  0
   -4.4710    2.0082   12.1927 H   0  0  0  0  0  0  0  0  0  0  0  0
   -2.6746   -1.2716   10.0785 H   0  0  0  0  0  0  0  0  0  0  0  0
   -4.6174   -0.2890   11.2697 H   0  0  0  0  0  0  0  0  0  0  0  0
    0.0695    6.7271   10.8141 H   0  0  0  0  0  0  0  0  0  0  0  0
   -0.2714    6.4535    9.1004 H   0  0  0  0  0  0  0  0  0  0  0  0
    3.2057    6.4414   10.5262 H   0  0  0  0  0  0  0  0  0  0  0  0
    4.3046    7.9060    9.1101 H   0  0  0  0  0  0  0  0  0  0  0  0
    4.5177    8.6043   10.7039 H   0  0  0  0  0  0  0  0  0  0  0  0
    4.0299   10.2297    8.8791 H   0  0  0  0  0  0  0  0  0  0  0  0
    3.6862   10.8570   11.2097 H   0  0  0  0  0  0  0  0  0  0  0  0
    2.0606   10.1970   11.2116 H   0  0  0  0  0  0  0  0  0  0  0  0
    3.0190   12.5537    9.5876 H   0  0  0  0  0  0  0  0  0  0  0  0
    1.8948   12.5556   10.9484 H   0  0  0  0  0  0  0  0  0  0  0  0
    0.7418   12.7070    8.7296 H   0  0  0  0  0  0  0  0  0  0  0  0
    0.2202   11.3315    9.6938 H   0  0  0  0  0  0  0  0  0  0  0  0
    2.1229   11.3277    7.3083 H   0  0  0  0  0  0  0  0  0  0  0  0
    0.5241   10.5970    7.3984 H   0  0  0  0  0  0  0  0  0  0  0  0
    2.4972    9.0091    7.5352 H   0  0  0  0  0  0  0  0  0  0  0  0
    0.4724    8.9930    9.8449 H   0  0  0  0  0  0  0  0  0  0  0  0
    0.2756    8.3296    8.2052 H   0  0  0  0  0  0  0  0  0  0  0  0
    4.1828    7.3998   12.5161 H   0  0  0  0  0  0  0  0  0  0  0  0
    4.4435    8.1893   15.9356 H   0  0  0  0  0  0  0  0  0  0  0  0
    5.2778    8.4790   14.3948 H   0  0  0  0  0  0  0  0  0  0  0  0
    4.7557    6.8457   14.8158 H   0  0  0  0  0  0  0  0  0  0  0  0
    1.9480    7.6439   15.9410 H   0  0  0  0  0  0  0  0  0  0  0  0
    2.2950    6.2683   14.8690 H   0  0  0  0  0  0  0  0  0  0  0  0
    1.0736    7.4610   14.4219 H   0  0  0  0  0  0  0  0  0  0  0  0
    2.6951    9.9535   15.3385 H   0  0  0  0  0  0  0  0  0  0  0  0
    1.8679    9.8966   13.7810 H   0  0  0  0  0  0  0  0  0  0  0  0
    3.5950   10.2607   13.8418 H   0  0  0  0  0  0  0  0  0  0  0  0
    2.0337    6.8220    8.5956 H   0  0  0  0  0  0  0  0  0  0  0  0
  1  2  2  0  0  0  0
  1  4  1  0  0  0  0
  1 13  1  0  0  0  0
  3  4  2  0  0  0  0
  3 12  1  0  0  0  0
  4  5  1  0  0  0  0
  5  6  2  0  0  0  0
  5 50  1  0  0  0  0
  6 11  1  0  0  0  0
  6 51  1  0  0  0  0
  7  8  2  0  0  0  0
  7 11  1  0  0  0  0
  7 52  1  0  0  0  0
  8  9  1  0  0  0  0
  8 53  1  0  0  0  0
  9 10  2  0  0  0  0
  9 54  1  0  0  0  0
 10 12  1  0  0  0  0
 10 55  1  0  0  0  0
 11 12  2  0  0  0  0
 13 14  1  0  0  0  0
 13 56  1  0  0  0  0
 14 15  1  0  0  0  0
 14 17  1  0  0  0  0
 14 57  1  6  0  0  0
 15 16  2  0  0  0  0
 15 24  1  0  0  0  0
 17 18  1  0  0  0  0
 17 58  1  0  0  0  0
 17 59  1  0  0  0  0
 18 19  2  0  0  0  0
 18 20  1  0  0  0  0
 20 60  1  0  0  0  0
 20 61  1  0  0  0  0
 21 22  1  0  0  0  0
 21 23  1  0  0  0  0
 21 33  1  0  0  0  0
 21 62  1  6  0  0  0
 22 63  1  0  0  0  0
 23 24  1  0  0  0  0
 23 25  1  0  0  0  0
 23 64  1  1  0  0  0
 24 65  1  0  0  0  0
 25 26  1  0  0  0  0
 25 66  1  0  0  0  0
 25 67  1  0  0  0  0
 26 27  2  0  0  0  0
 26 28  1  0  0  0  0
 27 29  1  0  0  0  0
 27 68  1  0  0  0  0
 28 30  2  0  0  0  0
 28 69  1  0  0  0  0
 29 31  2  0  0  0  0
 29 70  1  0  0  0  0
 30 31  1  0  0  0  0
 30 71  1  0  0  0  0
 31 72  1  0  0  0  0
 32 33  1  0  0  0  0
 32 34  1  0  0  0  0
 32 44  1  0  0  0  0
 32100  1  6  0  0  0
 33 73  1  0  0  0  0
 33 74  1  0  0  0  0
 34 35  1  0  0  0  0
 34 37  1  0  0  0  0
 34 75  1  1  0  0  0
 35 36  2  0  0  0  0
 35 45  1  0  0  0  0
 37 38  1  0  0  0  0
 37 76  1  0  0  0  0
 37 77  1  0  0  0  0
 38 39  1  0  0  0  0
 38 43  1  0  0  0  0
 38 78  1  6  0  0  0
 39 40  1  0  0  0  0
 39 79  1  0  0  0  0
 39 80  1  0  0  0  0
 40 41  1  0  0  0  0
 40 81  1  0  0  0  0
 40 82  1  0  0  0  0
 41 42  1  0  0  0  0
 41 83  1  0  0  0  0
 41 84  1  0  0  0  0
 42 43  1  0  0  0  0
 42 85  1  0  0  0  0
 42 86  1  0  0  0  0
 43 44  1  0  0  0  0
 43 87  1  6  0  0  0
 44 88  1  0  0  0  0
 44 89  1  0  0  0  0
 45 46  1  0  0  0  0
 45 90  1  0  0  0  0
 46 47  1  0  0  0  0
 46 48  1  0  0  0  0
 46 49  1  0  0  0  0
 47 91  1  0  0  0  0
 47 92  1  0  0  0  0
 47 93  1  0  0  0  0
 48 94  1  0  0  0  0
 48 95  1  0  0  0  0
 48 96  1  0  0  0  0
 49 97  1  0  0  0  0
 49 98  1  0  0  0  0
 49 99  1  0  0  0  0
M  CHG  1  32   1
M  END
$$$$
