ROC
 OpenBabel04091911193D

100104  0  0  1  0  0  0  0  0999 V2000
   20.8901   27.5701   18.8682 O   0  0  0  0  0  0  0  0  0  0  0  0
   21.3762   26.4556   18.7648 C   0  0  0  0  0  0  0  0  0  0  0  0
   22.9856   24.7409   19.3216 N   0  0  0  0  0  0  0  0  0  0  0  0
   22.4940   25.9809   19.6239 C   0  0  0  0  0  0  0  0  0  0  0  0
   22.9146   26.7614   20.6759 C   0  0  0  0  0  0  0  0  0  0  0  0
   23.9149   26.2396   21.4981 C   0  0  0  0  0  0  0  0  0  0  0  0
   24.4735   24.9881   21.2037 C   0  0  0  0  0  0  0  0  0  0  0  0
   25.5189   24.4402   21.9614 C   0  0  0  0  0  0  0  0  0  0  0  0
   26.0667   23.1980   21.6247 C   0  0  0  0  0  0  0  0  0  0  0  0
   25.5736   22.4946   20.5350 C   0  0  0  0  0  0  0  0  0  0  0  0
   24.5063   23.0185   19.8061 C   0  0  0  0  0  0  0  0  0  0  0  0
   23.9682   24.2632   20.1019 C   0  0  0  0  0  0  0  0  0  0  0  0
   20.9265   25.4986   17.8614 N   0  0  0  0  0  0  0  0  0  0  0  0
   19.8005   25.7479   16.9813 C   0  0  2  0  0  0  0  0  0  0  0  0
   18.8189   24.5824   17.1207 C   0  0  0  0  0  0  0  0  0  0  0  0
   18.8934   23.5319   16.5028 O   0  0  0  0  0  0  0  0  0  0  0  0
   20.1827   25.8770   15.5270 C   0  0  0  0  0  0  0  0  0  0  0  0
   21.0837   27.0689   15.3924 C   0  0  0  0  0  0  0  0  0  0  0  0
   20.6726   28.2209   15.3795 O   0  0  0  0  0  0  0  0  0  0  0  0
   22.4083   26.7455   15.3315 N   0  0  0  0  0  0  0  0  0  0  0  0
   15.4891   24.4001   18.0282 C   0  0  1  0  0  0  0  0  0  0  0  0
   15.1352   25.4750   18.9027 O   0  0  0  0  0  0  0  0  0  0  0  0
   16.8593   23.8252   18.4176 C   0  0  1  0  0  0  0  0  0  0  0  0
   17.8446   24.8211   18.0640 N   0  0  0  0  0  0  0  0  0  0  0  0
   16.9360   23.4416   19.9043 C   0  0  0  0  0  0  0  0  0  0  0  0
   18.3331   23.2307   20.4092 C   0  0  0  0  0  0  0  0  0  0  0  0
   18.9992   22.0176   20.2035 C   0  0  0  0  0  0  0  0  0  0  0  0
   18.9806   24.2689   21.0869 C   0  0  0  0  0  0  0  0  0  0  0  0
   20.2926   21.8481   20.6906 C   0  0  0  0  0  0  0  0  0  0  0  0
   20.2671   24.0920   21.5843 C   0  0  0  0  0  0  0  0  0  0  0  0
   20.9254   22.8837   21.3777 C   0  0  0  0  0  0  0  0  0  0  0  0
   14.4071   22.5595   16.7491 N   0  3  1  0  0  0  0  0  0  0  0  0
   14.4045   23.3308   18.0483 C   0  0  0  0  0  0  0  0  0  0  0  0
   13.8111   21.1760   16.9196 C   0  0  2  0  0  0  0  0  0  0  0  0
   14.5549   20.3799   17.9846 C   0  0  0  0  0  0  0  0  0  0  0  0
   15.7839   20.3845   18.0139 O   0  0  0  0  0  0  0  0  0  0  0  0
   13.9391   20.4244   15.6079 C   0  0  0  0  0  0  0  0  0  0  0  0
   13.2328   21.1583   14.4646 C   0  0  2  0  0  0  0  0  0  0  0  0
   13.4078   20.3891   13.1470 C   0  0  0  0  0  0  0  0  0  0  0  0
   14.8492   20.4666   12.6369 C   0  0  0  0  0  0  0  0  0  0  0  0
   15.2439   21.9231   12.4299 C   0  0  0  0  0  0  0  0  0  0  0  0
   15.1903   22.6523   13.7656 C   0  0  0  0  0  0  0  0  0  0  0  0
   13.7658   22.5999   14.3407 C   0  0  2  0  0  0  0  0  0  0  0  0
   13.6852   23.3183   15.6759 C   0  0  0  0  0  0  0  0  0  0  0  0
   13.7201   19.7822   18.8936 N   0  0  0  0  0  0  0  0  0  0  0  0
   14.1875   18.8832   19.9500 C   0  0  0  0  0  0  0  0  0  0  0  0
   14.9374   17.7065   19.3101 C   0  0  0  0  0  0  0  0  0  0  0  0
   12.9589   18.3483   20.6891 C   0  0  0  0  0  0  0  0  0  0  0  0
   15.0594   19.6483   20.9492 C   0  0  0  0  0  0  0  0  0  0  0  0
   22.4689   27.7323   20.8595 H   0  0  0  0  0  0  0  0  0  0  0  0
   24.2395   26.8273   22.3515 H   0  0  0  0  0  0  0  0  0  0  0  0
   25.9377   24.9841   22.8059 H   0  0  0  0  0  0  0  0  0  0  0  0
   26.8726   22.7826   22.2237 H   0  0  0  0  0  0  0  0  0  0  0  0
   26.0246   21.5473   20.2440 H   0  0  0  0  0  0  0  0  0  0  0  0
   24.0906   22.4300   18.9871 H   0  0  0  0  0  0  0  0  0  0  0  0
   21.3674   24.5800   17.9044 H   0  0  0  0  0  0  0  0  0  0  0  0
   19.2926   26.6594   17.3074 H   0  0  0  0  0  0  0  0  0  0  0  0
   19.2941   26.0449   14.9083 H   0  0  0  0  0  0  0  0  0  0  0  0
   20.6742   24.9771   15.1359 H   0  0  0  0  0  0  0  0  0  0  0  0
   23.0948   27.4854   15.3163 H   0  0  0  0  0  0  0  0  0  0  0  0
   22.7295   25.7911   15.4341 H   0  0  0  0  0  0  0  0  0  0  0  0
   15.5716   24.8303   17.0242 H   0  0  0  0  0  0  0  0  0  0  0  0
   14.2844   25.8621   18.6334 H   0  0  0  0  0  0  0  0  0  0  0  0
   17.0630   22.9264   17.8235 H   0  0  0  0  0  0  0  0  0  0  0  0
   17.8354   25.7168   18.5524 H   0  0  0  0  0  0  0  0  0  0  0  0
   16.3657   22.5252   20.0774 H   0  0  0  0  0  0  0  0  0  0  0  0
   16.4576   24.2101   20.5215 H   0  0  0  0  0  0  0  0  0  0  0  0
   18.5205   21.2031   19.6636 H   0  0  0  0  0  0  0  0  0  0  0  0
   18.4883   25.2291   21.2281 H   0  0  0  0  0  0  0  0  0  0  0  0
   20.8089   20.9022   20.5421 H   0  0  0  0  0  0  0  0  0  0  0  0
   20.7525   24.8994   22.1246 H   0  0  0  0  0  0  0  0  0  0  0  0
   21.9395   22.7514   21.7432 H   0  0  0  0  0  0  0  0  0  0  0  0
   13.4092   23.7707   18.1543 H   0  0  0  0  0  0  0  0  0  0  0  0
   14.5423   22.6463   18.8870 H   0  0  0  0  0  0  0  0  0  0  0  0
   12.7666   21.3299   17.2065 H   0  0  0  0  0  0  0  0  0  0  0  0
   13.5340   19.4122   15.7228 H   0  0  0  0  0  0  0  0  0  0  0  0
   15.0039   20.3007   15.3804 H   0  0  0  0  0  0  0  0  0  0  0  0
   12.1614   21.2052   14.7122 H   0  0  0  0  0  0  0  0  0  0  0  0
   12.7370   20.8160   12.3896 H   0  0  0  0  0  0  0  0  0  0  0  0
   13.1113   19.3422   13.2768 H   0  0  0  0  0  0  0  0  0  0  0  0
   14.9638   19.9052   11.7078 H   0  0  0  0  0  0  0  0  0  0  0  0
   15.5355   20.0102   13.3613 H   0  0  0  0  0  0  0  0  0  0  0  0
   14.5512   22.3940   11.7211 H   0  0  0  0  0  0  0  0  0  0  0  0
   16.2481   21.9913   12.0019 H   0  0  0  0  0  0  0  0  0  0  0  0
   15.5067   23.6927   13.6415 H   0  0  0  0  0  0  0  0  0  0  0  0
   15.9087   22.1868   14.4518 H   0  0  0  0  0  0  0  0  0  0  0  0
   13.1148   23.1457   13.6435 H   0  0  0  0  0  0  0  0  0  0  0  0
   14.1217   24.3154   15.6110 H   0  0  0  0  0  0  0  0  0  0  0  0
   12.6443   23.4007   16.0076 H   0  0  0  0  0  0  0  0  0  0  0  0
   12.7172   19.9137   18.8226 H   0  0  0  0  0  0  0  0  0  0  0  0
   15.3037   17.0037   20.0654 H   0  0  0  0  0  0  0  0  0  0  0  0
   15.7979   18.0364   18.7205 H   0  0  0  0  0  0  0  0  0  0  0  0
   14.2765   17.1605   18.6256 H   0  0  0  0  0  0  0  0  0  0  0  0
   13.2474   17.6719   21.4999 H   0  0  0  0  0  0  0  0  0  0  0  0
   12.2982   17.8055   20.0050 H   0  0  0  0  0  0  0  0  0  0  0  0
   12.3774   19.1718   21.1206 H   0  0  0  0  0  0  0  0  0  0  0  0
   15.4103   18.9931   21.7524 H   0  0  0  0  0  0  0  0  0  0  0  0
   14.4874   20.4658   21.4064 H   0  0  0  0  0  0  0  0  0  0  0  0
   15.9369   20.0953   20.4755 H   0  0  0  0  0  0  0  0  0  0  0  0
   15.3989   22.3901   16.4829 H   0  0  0  0  0  0  0  0  0  0  0  0
  1  2  2  0  0  0  0
  2  4  1  0  0  0  0
  2 13  1  0  0  0  0
  3  4  2  0  0  0  0
  3 12  1  0  0  0  0
  4  5  1  0  0  0  0
  5  6  2  0  0  0  0
  5 50  1  0  0  0  0
  6  7  1  0  0  0  0
  6 51  1  0  0  0  0
  7  8  2  0  0  0  0
  7 12  1  0  0  0  0
  8  9  1  0  0  0  0
  8 52  1  0  0  0  0
  9 10  2  0  0  0  0
  9 53  1  0  0  0  0
 10 11  1  0  0  0  0
 10 54  1  0  0  0  0
 11 12  2  0  0  0  0
 11 55  1  0  0  0  0
 13 14  1  0  0  0  0
 13 56  1  0  0  0  0
 14 15  1  0  0  0  0
 14 17  1  0  0  0  0
 14 57  1  1  0  0  0
 15 16  2  0  0  0  0
 15 24  1  0  0  0  0
 17 18  1  0  0  0  0
 17 58  1  0  0  0  0
 17 59  1  0  0  0  0
 18 19  2  0  0  0  0
 18 20  1  0  0  0  0
 20 60  1  0  0  0  0
 20 61  1  0  0  0  0
 21 22  1  0  0  0  0
 21 23  1  0  0  0  0
 21 33  1  0  0  0  0
 21 62  1  6  0  0  0
 22 63  1  0  0  0  0
 23 24  1  0  0  0  0
 23 25  1  0  0  0  0
 23 64  1  6  0  0  0
 24 65  1  0  0  0  0
 25 26  1  0  0  0  0
 25 66  1  0  0  0  0
 25 67  1  0  0  0  0
 26 27  2  0  0  0  0
 26 28  1  0  0  0  0
 27 29  1  0  0  0  0
 27 68  1  0  0  0  0
 28 30  2  0  0  0  0
 28 69  1  0  0  0  0
 29 31  2  0  0  0  0
 29 70  1  0  0  0  0
 30 31  1  0  0  0  0
 30 71  1  0  0  0  0
 31 72  1  0  0  0  0
 32 33  1  0  0  0  0
 32 34  1  0  0  0  0
 32 44  1  0  0  0  0
 32100  1  6  0  0  0
 33 73  1  0  0  0  0
 33 74  1  0  0  0  0
 34 35  1  0  0  0  0
 34 37  1  0  0  0  0
 34 75  1  1  0  0  0
 35 36  2  0  0  0  0
 35 45  1  0  0  0  0
 37 38  1  0  0  0  0
 37 76  1  0  0  0  0
 37 77  1  0  0  0  0
 38 39  1  0  0  0  0
 38 43  1  0  0  0  0
 38 78  1  1  0  0  0
 39 40  1  0  0  0  0
 39 79  1  0  0  0  0
 39 80  1  0  0  0  0
 40 41  1  0  0  0  0
 40 81  1  0  0  0  0
 40 82  1  0  0  0  0
 41 42  1  0  0  0  0
 41 83  1  0  0  0  0
 41 84  1  0  0  0  0
 42 43  1  0  0  0  0
 42 85  1  0  0  0  0
 42 86  1  0  0  0  0
 43 44  1  0  0  0  0
 43 87  1  6  0  0  0
 44 88  1  0  0  0  0
 44 89  1  0  0  0  0
 45 46  1  0  0  0  0
 45 90  1  0  0  0  0
 46 47  1  0  0  0  0
 46 48  1  0  0  0  0
 46 49  1  0  0  0  0
 47 91  1  0  0  0  0
 47 92  1  0  0  0  0
 47 93  1  0  0  0  0
 48 94  1  0  0  0  0
 48 95  1  0  0  0  0
 48 96  1  0  0  0  0
 49 97  1  0  0  0  0
 49 98  1  0  0  0  0
 49 99  1  0  0  0  0
M  CHG  1  32   1
M  END
$$$$
