RUP
 OpenBabel04091913353D

 74 78  0  0  1  0  0  0  0  0999 V2000
   19.2839   33.4982   17.0181 C   0  0  0  0  0  0  0  0  0  0  0  0
   19.4137   33.0226   18.4942 C   0  0  1  0  0  0  0  0  0  0  0  0
   20.2092   31.6723   18.5576 C   0  0  2  0  0  0  0  0  0  0  0  0
   20.2843   31.1635   19.9624 N   0  0  0  0  0  0  0  0  0  0  0  0
   20.9287   30.0084   20.3063 C   0  0  0  0  0  0  0  0  0  0  0  0
   21.4708   29.2914   19.4700 O   0  0  0  0  0  0  0  0  0  0  0  0
   20.9684   29.6757   21.6307 N   0  0  0  0  0  0  0  0  0  0  0  0
   21.8147   28.5369   22.1146 C   0  0  1  0  0  0  0  0  0  0  0  0
   23.2730   28.9603   21.8014 C   0  0  0  0  0  0  0  0  0  0  0  0
   23.5957   30.1460   22.0895 O   0  0  0  0  0  0  0  0  0  0  0  0
   24.2737   28.2367   21.2735 N   0  0  0  0  0  0  0  0  0  0  0  0
   24.3598   26.8368   20.8591 C   0  0  0  0  0  0  0  0  0  0  0  0
   25.3862   26.0072   21.6680 C   0  0  0  0  0  0  0  0  0  0  0  0
   25.6321   26.4574   23.1061 C   0  0  0  0  0  0  0  0  0  0  0  0
   26.4205   27.5820   23.4447 C   0  0  0  0  0  0  0  0  0  0  0  0
   26.5794   27.9725   24.7893 C   0  0  0  0  0  0  0  0  0  0  0  0
   25.9638   27.2371   25.8168 C   0  0  0  0  0  0  0  0  0  0  0  0
   25.1918   26.1132   25.4878 C   0  0  0  0  0  0  0  0  0  0  0  0
   25.0321   25.7320   24.1462 C   0  0  0  0  0  0  0  0  0  0  0  0
   21.6571   28.3701   23.6582 C   0  0  0  0  0  0  0  0  0  0  0  0
   20.2694   28.0090   24.2199 C   0  0  0  0  0  0  0  0  0  0  0  0
   19.4482   26.9958   23.6895 C   0  0  0  0  0  0  0  0  0  0  0  0
   18.1947   26.7163   24.2585 C   0  0  0  0  0  0  0  0  0  0  0  0
   17.7371   27.4372   25.3881 C   0  0  0  0  0  0  0  0  0  0  0  0
   18.5356   28.4440   25.9626 C   0  0  0  0  0  0  0  0  0  0  0  0
   18.1137   29.2219   27.1537 C   0  0  0  0  0  0  0  0  0  0  0  0
   18.9638   29.9947   27.7800 N   0  0  0  0  0  0  0  0  0  0  0  0
   16.8655   29.1629   27.6230 N   0  0  0  0  0  0  0  0  0  0  0  0
   19.7975   28.6989   25.3608 C   0  0  0  0  0  0  0  0  0  0  0  0
   21.6162   31.9028   17.9139 C   0  0  2  0  0  0  0  0  0  0  0  0
   22.3743   32.9865   18.7229 C   0  0  0  0  0  0  0  0  0  0  0  0
   21.5925   34.3245   18.6854 C   0  0  2  0  0  0  0  0  0  0  0  0
   20.1779   34.1187   19.2872 C   0  0  0  0  0  0  0  0  0  0  0  0
   21.4504   34.7878   17.2142 C   0  0  0  0  0  0  0  0  0  0  0  0
   20.6846   33.7192   16.3955 C   0  0  1  0  0  0  0  0  0  0  0  0
   21.4702   32.3877   16.4429 C   0  0  0  0  0  0  0  0  0  0  0  0
   18.7053   34.4345   16.9712 H   0  0  0  0  0  0  0  0  0  0  0  0
   18.7232   32.7589   16.4262 H   0  0  0  0  0  0  0  0  0  0  0  0
   18.4084   32.8827   18.9241 H   0  0  0  0  0  0  0  0  0  0  0  0
   19.6637   30.8998   17.9881 H   0  0  0  0  0  0  0  0  0  0  0  0
   19.8826   31.7251   20.6927 H   0  0  0  0  0  0  0  0  0  0  0  0
   20.5161   30.2700   22.3015 H   0  0  0  0  0  0  0  0  0  0  0  0
   21.5308   27.6153   21.5929 H   0  0  0  0  0  0  0  0  0  0  0  0
   25.1282   28.7682   21.1434 H   0  0  0  0  0  0  0  0  0  0  0  0
   24.6598   26.8327   19.7961 H   0  0  0  0  0  0  0  0  0  0  0  0
   23.3689   26.3936   20.9339 H   0  0  0  0  0  0  0  0  0  0  0  0
   26.3405   25.9713   21.1206 H   0  0  0  0  0  0  0  0  0  0  0  0
   25.0185   24.9678   21.6734 H   0  0  0  0  0  0  0  0  0  0  0  0
   26.9076   28.1760   22.6728 H   0  0  0  0  0  0  0  0  0  0  0  0
   27.1818   28.8459   25.0475 H   0  0  0  0  0  0  0  0  0  0  0  0
   26.0866   27.5285   26.8575 H   0  0  0  0  0  0  0  0  0  0  0  0
   24.7151   25.5298   26.2728 H   0  0  0  0  0  0  0  0  0  0  0  0
   24.4305   24.8576   23.9058 H   0  0  0  0  0  0  0  0  0  0  0  0
   21.9661   29.3218   24.1252 H   0  0  0  0  0  0  0  0  0  0  0  0
   22.3791   27.6159   24.0054 H   0  0  0  0  0  0  0  0  0  0  0  0
   19.7684   26.4209   22.8211 H   0  0  0  0  0  0  0  0  0  0  0  0
   17.5496   25.9347   23.8327 H   0  0  0  0  0  0  0  0  0  0  0  0
   16.7632   27.1925   25.8073 H   0  0  0  0  0  0  0  0  0  0  0  0
   18.7266   30.5351   28.5982 H   0  0  0  0  0  0  0  0  0  0  0  0
   16.1882   28.5847   27.1526 H   0  0  0  0  0  0  0  0  0  0  0  0
   16.5695   29.6798   28.4300 H   0  0  0  0  0  0  0  0  0  0  0  0
   20.4435   29.4734   25.7662 H   0  0  0  0  0  0  0  0  0  0  0  0
   22.1936   30.9684   17.9177 H   0  0  0  0  0  0  0  0  0  0  0  0
   23.3871   33.1254   18.3144 H   0  0  0  0  0  0  0  0  0  0  0  0
   22.5083   32.6548   19.7631 H   0  0  0  0  0  0  0  0  0  0  0  0
   22.1366   35.0884   19.2641 H   0  0  0  0  0  0  0  0  0  0  0  0
   20.2563   33.8397   20.3481 H   0  0  0  0  0  0  0  0  0  0  0  0
   19.6155   35.0650   19.2651 H   0  0  0  0  0  0  0  0  0  0  0  0
   22.4445   34.9621   16.7738 H   0  0  0  0  0  0  0  0  0  0  0  0
   20.9195   35.7513   17.1694 H   0  0  0  0  0  0  0  0  0  0  0  0
   20.5804   34.0564   15.3511 H   0  0  0  0  0  0  0  0  0  0  0  0
   20.9573   31.6257   15.8360 H   0  0  0  0  0  0  0  0  0  0  0  0
   22.4642   32.5247   15.9852 H   0  0  0  0  0  0  0  0  0  0  0  0
   19.9284   30.0655   27.4649 H   0  0  0  0  0  0  0  0  0  0  0  0
  1  2  1  0  0  0  0
  1 35  1  0  0  0  0
  1 37  1  0  0  0  0
  1 38  1  0  0  0  0
  2  3  1  0  0  0  0
  2 33  1  0  0  0  0
  2 39  1  1  0  0  0
  3  4  1  0  0  0  0
  3 30  1  0  0  0  0
  3 40  1  6  0  0  0
  4  5  1  0  0  0  0
  4 41  1  0  0  0  0
  5  6  2  0  0  0  0
  5  7  1  0  0  0  0
  7  8  1  0  0  0  0
  7 42  1  0  0  0  0
  8  9  1  0  0  0  0
  8 20  1  0  0  0  0
  8 43  1  6  0  0  0
  9 10  2  0  0  0  0
  9 11  1  0  0  0  0
 11 12  1  0  0  0  0
 11 44  1  0  0  0  0
 12 13  1  0  0  0  0
 12 45  1  0  0  0  0
 12 46  1  0  0  0  0
 13 14  1  0  0  0  0
 13 47  1  0  0  0  0
 13 48  1  0  0  0  0
 14 15  2  0  0  0  0
 14 19  1  0  0  0  0
 15 16  1  0  0  0  0
 15 49  1  0  0  0  0
 16 17  2  0  0  0  0
 16 50  1  0  0  0  0
 17 18  1  0  0  0  0
 17 51  1  0  0  0  0
 18 19  2  0  0  0  0
 18 52  1  0  0  0  0
 19 53  1  0  0  0  0
 20 21  1  0  0  0  0
 20 54  1  0  0  0  0
 20 55  1  0  0  0  0
 21 22  2  0  0  0  0
 21 29  1  0  0  0  0
 22 23  1  0  0  0  0
 22 56  1  0  0  0  0
 23 24  2  0  0  0  0
 23 57  1  0  0  0  0
 24 25  1  0  0  0  0
 24 58  1  0  0  0  0
 25 26  1  0  0  0  0
 25 29  2  0  0  0  0
 26 27  2  0  0  0  0
 26 28  1  0  0  0  0
 27 59  1  0  0  0  0
 27 74  1  0  0  0  0
 28 60  1  0  0  0  0
 28 61  1  0  0  0  0
 29 62  1  0  0  0  0
 30 31  1  0  0  0  0
 30 36  1  0  0  0  0
 30 63  1  1  0  0  0
 31 32  1  0  0  0  0
 31 64  1  0  0  0  0
 31 65  1  0  0  0  0
 32 33  1  0  0  0  0
 32 34  1  0  0  0  0
 32 66  1  1  0  0  0
 33 67  1  0  0  0  0
 33 68  1  0  0  0  0
 34 35  1  0  0  0  0
 34 69  1  0  0  0  0
 34 70  1  0  0  0  0
 35 36  1  0  0  0  0
 35 71  1  6  0  0  0
 36 72  1  0  0  0  0
 36 73  1  0  0  0  0
M  END
$$$$
