RVC
 OpenBabel04091915063D

 27 28  0  0  1  0  0  0  0  0999 V2000
   -3.4508   -7.1691   30.0978 O   0  0  0  0  0  0  0  0  0  0  0  0
   -0.7087   -5.7025   23.6552 O   0  0  0  0  0  0  0  0  0  0  0  0
   -1.2721   -7.0985   30.8027 O   0  0  0  0  0  0  0  0  0  0  0  0
    1.5097   -6.0743   23.7876 O   0  0  0  0  0  0  0  0  0  0  0  0
   -1.9474   -5.1245   25.8712 O   0  0  0  0  0  0  0  0  0  0  0  0
   -2.4421   -4.1881   30.6380 C   0  0  0  0  0  0  0  0  0  0  0  0
    1.4094   -6.0622   28.0186 C   0  0  0  0  0  0  0  0  0  0  0  0
    0.3340   -5.6238   28.6808 C   0  0  0  0  0  0  0  0  0  0  0  0
    1.4083   -6.1108   26.5729 C   0  0  0  0  0  0  0  0  0  0  0  0
   -2.4873   -1.8363   31.2945 C   0  0  0  0  0  0  0  0  0  0  0  0
   -3.6839   -2.0903   30.9067 C   0  0  0  0  0  0  0  0  0  0  0  0
   -2.1335   -4.9765   28.4395 O   0  0  0  0  0  0  0  0  0  0  0  0
   -2.3169   -6.6401   30.2575 C   0  0  0  0  0  0  0  0  0  0  0  0
    0.3670   -5.8792   24.2809 C   0  0  0  0  0  0  0  0  0  0  0  0
   -2.2277   -5.1849   29.7783 C   0  0  0  0  0  0  0  0  0  0  0  0
   -0.8955   -5.3579   26.4808 C   0  0  0  0  0  0  0  0  0  0  0  0
   -0.8045   -4.9803   27.9428 C   0  0  2  0  0  0  0  0  0  0  0  0
    0.3246   -5.8314   25.8104 C   0  0  0  0  0  0  0  0  0  0  0  0
   -2.6222   -2.8073   30.2649 C   0  0  2  0  0  0  0  0  0  0  0  0
   -2.5389   -4.4693   31.6833 H   0  0  0  0  0  0  0  0  0  0  0  0
    2.3063   -6.3420   28.5547 H   0  0  0  0  0  0  0  0  0  0  0  0
    0.3329   -5.5676   29.7616 H   0  0  0  0  0  0  0  0  0  0  0  0
    2.3461   -6.3751   26.0855 H   0  0  0  0  0  0  0  0  0  0  0  0
   -1.7778   -1.3818   31.9476 H   0  0  0  0  0  0  0  0  0  0  0  0
   -4.7458   -1.9880   30.9723 H   0  0  0  0  0  0  0  0  0  0  0  0
   -0.5060   -3.9325   27.8921 H   0  0  0  0  0  0  0  0  0  0  0  0
   -2.3998   -2.5071   29.2350 H   0  0  0  0  0  0  0  0  0  0  0  0
  1 13  2  0  0  0  0
  2 14  2  0  0  0  0
  3 13  1  0  0  0  0
  4 14  1  0  0  0  0
  5 16  2  0  0  0  0
  6 15  2  0  0  0  0
  6 19  1  0  0  0  0
  6 20  1  0  0  0  0
  7  8  2  0  0  0  0
  7  9  1  0  0  0  0
  7 21  1  0  0  0  0
  8 17  1  0  0  0  0
  8 22  1  0  0  0  0
  9 18  2  0  0  0  0
  9 23  1  0  0  0  0
 10 11  2  0  0  0  0
 10 19  1  0  0  0  0
 10 24  1  0  0  0  0
 11 19  1  0  0  0  0
 11 25  1  0  0  0  0
 12 15  1  0  0  0  0
 12 17  1  0  0  0  0
 13 15  1  0  0  0  0
 14 18  1  0  0  0  0
 16 17  1  0  0  0  0
 16 18  1  0  0  0  0
 17 26  1  6  0  0  0
 19 27  1  6  0  0  0
M  END
$$$$
