RYJ
 OpenBabel04091915063D

 27 27  0  0  0  0  0  0  0  0999 V2000
   15.3309    0.2243   16.9245 S   0  0  0  0  0  0  0  0  0  0  0  0
   18.6162    5.1888   13.6311 N   0  0  0  0  0  0  0  0  0  0  0  0
   16.4891    6.0040   13.6974 O   0  0  0  0  0  0  0  0  0  0  0  0
   16.8365    3.9249   14.7417 C   0  0  0  0  0  0  0  0  0  0  0  0
   17.2343    1.8073   15.8479 C   0  0  0  0  0  0  0  0  0  0  0  0
   17.7173    2.9126   15.1539 C   0  0  0  0  0  0  0  0  0  0  0  0
   15.8693    1.6924   16.0938 C   0  0  0  0  0  0  0  0  0  0  0  0
   15.4715    3.8117   15.0252 C   0  0  0  0  0  0  0  0  0  0  0  0
   14.9830    2.6932   15.6974 C   0  0  0  0  0  0  0  0  0  0  0  0
   17.2886    5.1183   13.9953 C   0  0  0  0  0  0  0  0  0  0  0  0
   20.7045    6.9920   14.5739 F   0  0  0  0  0  0  0  0  0  0  0  0
   18.7246    7.8932   14.7444 F   0  0  0  0  0  0  0  0  0  0  0  0
   20.0787    8.5216   13.1492 F   0  0  0  0  0  0  0  0  0  0  0  0
   19.1158    6.3707   12.9350 C   0  0  0  0  0  0  0  0  0  0  0  0
   15.6864    0.3738   18.3247 O   0  0  0  0  0  0  0  0  0  0  0  0
   19.6479    7.4584   13.8636 C   0  0  0  0  0  0  0  0  0  0  0  0
   15.7621   -0.9083   16.1386 O   0  0  0  0  0  0  0  0  0  0  0  0
   13.6857    0.2895   16.8384 N   0  0  0  0  0  0  0  0  0  0  0  0
   19.3045    4.5586   14.0177 H   0  0  0  0  0  0  0  0  0  0  0  0
   17.9285    1.0462   16.1973 H   0  0  0  0  0  0  0  0  0  0  0  0
   18.7807    2.9488   14.9517 H   0  0  0  0  0  0  0  0  0  0  0  0
   14.7817    4.5940   14.7209 H   0  0  0  0  0  0  0  0  0  0  0  0
   13.9185    2.6754   15.8973 H   0  0  0  0  0  0  0  0  0  0  0  0
   18.3155    6.7765   12.3120 H   0  0  0  0  0  0  0  0  0  0  0  0
   19.9110    6.0208   12.2727 H   0  0  0  0  0  0  0  0  0  0  0  0
   13.1731   -0.5053   17.2064 H   0  0  0  0  0  0  0  0  0  0  0  0
   13.2138    0.9406   16.2255 H   0  0  0  0  0  0  0  0  0  0  0  0
  1  7  1  0  0  0  0
  1 15  2  0  0  0  0
  1 17  2  0  0  0  0
  1 18  1  0  0  0  0
  2 10  1  0  0  0  0
  2 14  1  0  0  0  0
  2 19  1  0  0  0  0
  3 10  2  0  0  0  0
  4  6  2  0  0  0  0
  4  8  1  0  0  0  0
  4 10  1  0  0  0  0
  5  6  1  0  0  0  0
  5  7  2  0  0  0  0
  5 20  1  0  0  0  0
  6 21  1  0  0  0  0
  7  9  1  0  0  0  0
  8  9  2  0  0  0  0
  8 22  1  0  0  0  0
  9 23  1  0  0  0  0
 11 16  1  0  0  0  0
 12 16  1  0  0  0  0
 13 16  1  0  0  0  0
 14 16  1  0  0  0  0
 14 24  1  0  0  0  0
 14 25  1  0  0  0  0
 18 26  1  0  0  0  0
 18 27  1  0  0  0  0
M  END
$$$$
