RYX
 OpenBabel04091915073D

 30 30  0  0  0  0  0  0  0  0999 V2000
   15.3122   -0.0262   17.0016 S   0  0  0  0  0  0  0  0  0  0  0  0
   18.6315    4.7699   13.5682 N   0  0  0  0  0  0  0  0  0  0  0  0
   16.5787    5.7162   13.7811 O   0  0  0  0  0  0  0  0  0  0  0  0
   16.8577    3.5994   14.7714 C   0  0  0  0  0  0  0  0  0  0  0  0
   17.2869    1.4432   15.8378 C   0  0  0  0  0  0  0  0  0  0  0  0
   17.7290    2.5555   15.1216 C   0  0  0  0  0  0  0  0  0  0  0  0
   15.9195    1.3612   16.1062 C   0  0  0  0  0  0  0  0  0  0  0  0
   15.5038    3.5144   15.0843 C   0  0  0  0  0  0  0  0  0  0  0  0
   15.0382    2.3657   15.7018 C   0  0  0  0  0  0  0  0  0  0  0  0
   17.3398    4.7899   14.0239 C   0  0  0  0  0  0  0  0  0  0  0  0
   21.3636    5.9846   13.5307 F   0  0  0  0  0  0  0  0  0  0  0  0
   20.2712    8.4854   12.5462 F   0  0  0  0  0  0  0  0  0  0  0  0
   19.9594    6.2634   15.1858 F   0  0  0  0  0  0  0  0  0  0  0  0
   20.9302    8.7018   14.6270 F   0  0  0  0  0  0  0  0  0  0  0  0
   18.8250    8.3405   14.2085 F   0  0  0  0  0  0  0  0  0  0  0  0
   19.1494    5.9666   12.9461 C   0  0  0  0  0  0  0  0  0  0  0  0
   13.8222   -0.0360   16.8058 O   0  0  0  0  0  0  0  0  0  0  0  0
   20.1897    6.5633   13.8701 C   0  0  0  0  0  0  0  0  0  0  0  0
   15.9118   -0.0338   18.3138 O   0  0  0  0  0  0  0  0  0  0  0  0
   20.0919    8.0431   13.7998 C   0  0  0  0  0  0  0  0  0  0  0  0
   15.8898   -1.3244   16.1816 N   0  0  0  0  0  0  0  0  0  0  0  0
   19.3106    4.0790   13.8509 H   0  0  0  0  0  0  0  0  0  0  0  0
   17.9938    0.6892   16.1645 H   0  0  0  0  0  0  0  0  0  0  0  0
   18.7657    2.5834   14.8474 H   0  0  0  0  0  0  0  0  0  0  0  0
   14.8081    4.3182   14.8355 H   0  0  0  0  0  0  0  0  0  0  0  0
   13.9710    2.2501   15.8847 H   0  0  0  0  0  0  0  0  0  0  0  0
   18.3497    6.6628   12.6686 H   0  0  0  0  0  0  0  0  0  0  0  0
   19.6193    5.6607   12.0002 H   0  0  0  0  0  0  0  0  0  0  0  0
   15.7143   -2.2577   16.5630 H   0  0  0  0  0  0  0  0  0  0  0  0
   16.5591   -1.2015   15.4202 H   0  0  0  0  0  0  0  0  0  0  0  0
  1  7  1  0  0  0  0
  1 17  2  0  0  0  0
  1 19  2  0  0  0  0
  1 21  1  0  0  0  0
  2 10  1  0  0  0  0
  2 16  1  0  0  0  0
  2 22  1  0  0  0  0
  3 10  2  0  0  0  0
  4  6  2  0  0  0  0
  4  8  1  0  0  0  0
  4 10  1  0  0  0  0
  5  6  1  0  0  0  0
  5  7  2  0  0  0  0
  5 23  1  0  0  0  0
  6 24  1  0  0  0  0
  7  9  1  0  0  0  0
  8  9  2  0  0  0  0
  8 25  1  0  0  0  0
  9 26  1  0  0  0  0
 11 18  1  0  0  0  0
 12 20  1  0  0  0  0
 13 18  1  0  0  0  0
 14 20  1  0  0  0  0
 15 20  1  0  0  0  0
 16 18  1  0  0  0  0
 16 27  1  0  0  0  0
 16 28  1  0  0  0  0
 18 20  1  0  0  0  0
 21 29  1  0  0  0  0
 21 30  1  0  0  0  0
M  END
$$$$
