RYY
 OpenBabel04091915073D

 30 30  0  0  0  0  0  0  0  0999 V2000
   18.5163    5.7339   13.5064 N   0  0  0  0  0  0  0  0  0  0  0  0
   15.0664    0.9545   16.9243 S   0  0  0  0  0  0  0  0  0  0  0  0
   16.7566    4.5412   14.7077 C   0  0  0  0  0  0  0  0  0  0  0  0
   15.3774    4.4374   14.9506 C   0  0  0  0  0  0  0  0  0  0  0  0
   14.8638    3.3298   15.6124 C   0  0  0  0  0  0  0  0  0  0  0  0
   15.7281    2.3278   16.0474 C   0  0  0  0  0  0  0  0  0  0  0  0
   17.1074    2.4141   15.8232 C   0  0  0  0  0  0  0  0  0  0  0  0
   17.6184    3.5194   15.1417 C   0  0  0  0  0  0  0  0  0  0  0  0
   17.2146    5.7273   13.9464 C   0  0  0  0  0  0  0  0  0  0  0  0
   16.4281    6.6394   13.7105 O   0  0  0  0  0  0  0  0  0  0  0  0
   19.0145    6.8241   12.6968 C   0  0  0  0  0  0  0  0  0  0  0  0
   19.5838    8.2504   14.6460 C   0  0  0  0  0  0  0  0  0  0  0  0
   13.6436    0.9109   16.7208 O   0  0  0  0  0  0  0  0  0  0  0  0
   20.1307    7.5491   13.4172 C   0  0  0  0  0  0  0  0  0  0  0  0
   15.6527    0.9422   18.2469 O   0  0  0  0  0  0  0  0  0  0  0  0
   15.6907   -0.3635   16.1145 N   0  0  0  0  0  0  0  0  0  0  0  0
   19.1786    5.0361   13.8074 H   0  0  0  0  0  0  0  0  0  0  0  0
   14.7045    5.2244   14.6132 H   0  0  0  0  0  0  0  0  0  0  0  0
   13.7925    3.2621   15.7986 H   0  0  0  0  0  0  0  0  0  0  0  0
   17.7847    1.6437   16.1864 H   0  0  0  0  0  0  0  0  0  0  0  0
   18.6885    3.5587   14.9794 H   0  0  0  0  0  0  0  0  0  0  0  0
   18.2109    7.5285   12.4585 H   0  0  0  0  0  0  0  0  0  0  0  0
   19.3847    6.3962   11.7622 H   0  0  0  0  0  0  0  0  0  0  0  0
   20.3869    8.7738   15.1657 H   0  0  0  0  0  0  0  0  0  0  0  0
   19.1350    7.5310   15.3391 H   0  0  0  0  0  0  0  0  0  0  0  0
   18.8113    8.9722   14.3593 H   0  0  0  0  0  0  0  0  0  0  0  0
   20.5755    8.2851   12.7404 H   0  0  0  0  0  0  0  0  0  0  0  0
   20.9081    6.8352   13.7122 H   0  0  0  0  0  0  0  0  0  0  0  0
   15.4110   -1.2854   16.4440 H   0  0  0  0  0  0  0  0  0  0  0  0
   16.2925   -0.2494   15.3063 H   0  0  0  0  0  0  0  0  0  0  0  0
  1  9  1  0  0  0  0
  1 11  1  0  0  0  0
  1 17  1  0  0  0  0
  2  6  1  0  0  0  0
  2 13  2  0  0  0  0
  2 15  2  0  0  0  0
  2 16  1  0  0  0  0
  3  4  2  0  0  0  0
  3  8  1  0  0  0  0
  3  9  1  0  0  0  0
  4  5  1  0  0  0  0
  4 18  1  0  0  0  0
  5  6  2  0  0  0  0
  5 19  1  0  0  0  0
  6  7  1  0  0  0  0
  7  8  2  0  0  0  0
  7 20  1  0  0  0  0
  8 21  1  0  0  0  0
  9 10  2  0  0  0  0
 11 14  1  0  0  0  0
 11 22  1  0  0  0  0
 11 23  1  0  0  0  0
 12 14  1  0  0  0  0
 12 24  1  0  0  0  0
 12 25  1  0  0  0  0
 12 26  1  0  0  0  0
 14 27  1  0  0  0  0
 14 28  1  0  0  0  0
 16 29  1  0  0  0  0
 16 30  1  0  0  0  0
M  END
$$$$
