RYZ
 OpenBabel04091915073D

 33 33  0  0  0  0  0  0  0  0999 V2000
   15.0448    0.9921   16.8952 S   0  0  0  0  0  0  0  0  0  0  0  0
   18.5389    5.7994   13.4867 N   0  0  0  0  0  0  0  0  0  0  0  0
   16.4247    6.6506   13.5136 O   0  0  0  0  0  0  0  0  0  0  0  0
   16.7197    4.5743   14.5989 C   0  0  0  0  0  0  0  0  0  0  0  0
   17.0552    2.4843   15.7897 C   0  0  0  0  0  0  0  0  0  0  0  0
   17.5732    3.5740   15.0857 C   0  0  0  0  0  0  0  0  0  0  0  0
   15.6776    2.3901   16.0103 C   0  0  0  0  0  0  0  0  0  0  0  0
   15.3406    4.4769   14.8329 C   0  0  0  0  0  0  0  0  0  0  0  0
   14.8141    3.3807   15.5400 C   0  0  0  0  0  0  0  0  0  0  0  0
   17.2036    5.7589   13.8316 C   0  0  0  0  0  0  0  0  0  0  0  0
   20.4128    7.6289   14.6368 F   0  0  0  0  0  0  0  0  0  0  0  0
   19.1469    9.6209   11.9847 F   0  0  0  0  0  0  0  0  0  0  0  0
   21.0822   11.3522   13.1637 F   0  0  0  0  0  0  0  0  0  0  0  0
   18.4236    8.4984   14.5277 F   0  0  0  0  0  0  0  0  0  0  0  0
   21.1433    8.8193   12.2934 F   0  0  0  0  0  0  0  0  0  0  0  0
   21.0664   10.0997   14.9418 F   0  0  0  0  0  0  0  0  0  0  0  0
   19.2318   11.0659   14.2689 F   0  0  0  0  0  0  0  0  0  0  0  0
   19.0767    6.9728   12.8153 C   0  0  0  0  0  0  0  0  0  0  0  0
   13.6155    0.9436   16.7103 O   0  0  0  0  0  0  0  0  0  0  0  0
   19.4730    8.1058   13.7689 C   0  0  0  0  0  0  0  0  0  0  0  0
   15.6530    0.9860   18.2096 O   0  0  0  0  0  0  0  0  0  0  0  0
   20.0291    9.2517   12.9598 C   0  0  0  0  0  0  0  0  0  0  0  0
   15.6634   -0.2975   16.0528 N   0  0  0  0  0  0  0  0  0  0  0  0
   20.3506   10.4320   13.8447 C   0  0  0  0  0  0  0  0  0  0  0  0
   19.1947    5.1170   13.8267 H   0  0  0  0  0  0  0  0  0  0  0  0
   17.7277    1.7275   16.1822 H   0  0  0  0  0  0  0  0  0  0  0  0
   18.6486    3.6145   14.9521 H   0  0  0  0  0  0  0  0  0  0  0  0
   14.6643    5.2499   14.4746 H   0  0  0  0  0  0  0  0  0  0  0  0
   13.7444    3.3321   15.7234 H   0  0  0  0  0  0  0  0  0  0  0  0
   18.3291    7.3305   12.1009 H   0  0  0  0  0  0  0  0  0  0  0  0
   19.9498    6.6216   12.2541 H   0  0  0  0  0  0  0  0  0  0  0  0
   15.5076   -1.2128   16.4592 H   0  0  0  0  0  0  0  0  0  0  0  0
   16.2696   -0.1683   15.2542 H   0  0  0  0  0  0  0  0  0  0  0  0
  1  7  1  0  0  0  0
  1 19  2  0  0  0  0
  1 21  2  0  0  0  0
  1 23  1  0  0  0  0
  2 10  1  0  0  0  0
  2 18  1  0  0  0  0
  2 25  1  0  0  0  0
  3 10  2  0  0  0  0
  4  6  2  0  0  0  0
  4  8  1  0  0  0  0
  4 10  1  0  0  0  0
  5  6  1  0  0  0  0
  5  7  2  0  0  0  0
  5 26  1  0  0  0  0
  6 27  1  0  0  0  0
  7  9  1  0  0  0  0
  8  9  2  0  0  0  0
  8 28  1  0  0  0  0
  9 29  1  0  0  0  0
 11 20  1  0  0  0  0
 12 22  1  0  0  0  0
 13 24  1  0  0  0  0
 14 20  1  0  0  0  0
 15 22  1  0  0  0  0
 16 24  1  0  0  0  0
 17 24  1  0  0  0  0
 18 20  1  0  0  0  0
 18 30  1  0  0  0  0
 18 31  1  0  0  0  0
 20 22  1  0  0  0  0
 22 24  1  0  0  0  0
 23 32  1  0  0  0  0
 23 33  1  0  0  0  0
M  END
$$$$
