RZ1
 OpenBabel04091915083D

 36 36  0  0  0  0  0  0  0  0999 V2000
   14.9992    0.9895   16.9288 S   0  0  0  0  0  0  0  0  0  0  0  0
   18.4437    5.7628   13.4837 N   0  0  0  0  0  0  0  0  0  0  0  0
   16.3618    6.6171   13.5315 O   0  0  0  0  0  0  0  0  0  0  0  0
   16.6259    4.5552   14.6145 C   0  0  0  0  0  0  0  0  0  0  0  0
   17.0290    2.4489   15.7751 C   0  0  0  0  0  0  0  0  0  0  0  0
   17.4982    3.5499   15.0628 C   0  0  0  0  0  0  0  0  0  0  0  0
   15.6532    2.3572   16.0173 C   0  0  0  0  0  0  0  0  0  0  0  0
   15.2527    4.4587   14.8823 C   0  0  0  0  0  0  0  0  0  0  0  0
   14.7633    3.3543   15.5869 C   0  0  0  0  0  0  0  0  0  0  0  0
   17.1047    5.7473   13.8462 C   0  0  0  0  0  0  0  0  0  0  0  0
   20.4777    7.4636   14.4497 F   0  0  0  0  0  0  0  0  0  0  0  0
   18.8358    9.6854   12.2785 F   0  0  0  0  0  0  0  0  0  0  0  0
   20.6530    9.8489   15.3457 F   0  0  0  0  0  0  0  0  0  0  0  0
   22.4361   10.1159   13.6816 F   0  0  0  0  0  0  0  0  0  0  0  0
   18.4905    8.3357   14.6076 F   0  0  0  0  0  0  0  0  0  0  0  0
   20.8468    8.8974   12.1357 F   0  0  0  0  0  0  0  0  0  0  0  0
   19.1538   11.0410   14.2739 F   0  0  0  0  0  0  0  0  0  0  0  0
   21.6493   12.0293   14.4374 F   0  0  0  0  0  0  0  0  0  0  0  0
   21.1580   11.4084   12.3793 F   0  0  0  0  0  0  0  0  0  0  0  0
   18.9741    6.9099   12.7460 C   0  0  0  0  0  0  0  0  0  0  0  0
   13.5827    0.9697   16.7418 O   0  0  0  0  0  0  0  0  0  0  0  0
   19.4515    7.9769   13.7213 C   0  0  0  0  0  0  0  0  0  0  0  0
   15.6018    1.0388   18.2580 O   0  0  0  0  0  0  0  0  0  0  0  0
   19.8798    9.2118   13.0359 C   0  0  0  0  0  0  0  0  0  0  0  0
   15.6449   -0.3477   16.1662 N   0  0  0  0  0  0  0  0  0  0  0  0
   20.2325   10.2369   14.1133 C   0  0  0  0  0  0  0  0  0  0  0  0
   21.3835   10.9784   13.6301 C   0  0  0  0  0  0  0  0  0  0  0  0
   19.0829    5.0753   13.8210 H   0  0  0  0  0  0  0  0  0  0  0  0
   17.7298    1.6951   16.1399 H   0  0  0  0  0  0  0  0  0  0  0  0
   18.5591    3.6203   14.8544 H   0  0  0  0  0  0  0  0  0  0  0  0
   14.5630    5.2313   14.5429 H   0  0  0  0  0  0  0  0  0  0  0  0
   13.6963    3.2955   15.7992 H   0  0  0  0  0  0  0  0  0  0  0  0
   18.1914    7.2943   12.0831 H   0  0  0  0  0  0  0  0  0  0  0  0
   19.7974    6.5251   12.1212 H   0  0  0  0  0  0  0  0  0  0  0  0
   15.4202   -1.2705   16.5382 H   0  0  0  0  0  0  0  0  0  0  0  0
   16.2746   -0.2478   15.3817 H   0  0  0  0  0  0  0  0  0  0  0  0
  1  7  1  0  0  0  0
  1 21  2  0  0  0  0
  1 23  2  0  0  0  0
  1 25  1  0  0  0  0
  2 10  1  0  0  0  0
  2 20  1  0  0  0  0
  2 28  1  0  0  0  0
  3 10  2  0  0  0  0
  4  6  2  0  0  0  0
  4  8  1  0  0  0  0
  4 10  1  0  0  0  0
  5  6  1  0  0  0  0
  5  7  2  0  0  0  0
  5 29  1  0  0  0  0
  6 30  1  0  0  0  0
  7  9  1  0  0  0  0
  8  9  2  0  0  0  0
  8 31  1  0  0  0  0
  9 32  1  0  0  0  0
 11 22  1  0  0  0  0
 12 24  1  0  0  0  0
 13 26  1  0  0  0  0
 14 27  1  0  0  0  0
 15 22  1  0  0  0  0
 16 24  1  0  0  0  0
 17 26  1  0  0  0  0
 18 27  1  0  0  0  0
 19 27  1  0  0  0  0
 20 22  1  0  0  0  0
 20 33  1  0  0  0  0
 20 34  1  0  0  0  0
 22 24  1  0  0  0  0
 24 26  1  0  0  0  0
 25 35  1  0  0  0  0
 25 36  1  0  0  0  0
 26 27  1  0  0  0  0
M  END
$$$$
