RZ5
 OpenBabel04091915083D

 36 36  0  0  0  0  0  0  0  0999 V2000
   15.0066    1.0001   16.9430 S   0  0  0  0  0  0  0  0  0  0  0  0
   18.5590    5.7422   13.5572 N   0  0  0  0  0  0  0  0  0  0  0  0
   16.4741    6.6727   13.5888 O   0  0  0  0  0  0  0  0  0  0  0  0
   16.6780    4.5658   14.6337 C   0  0  0  0  0  0  0  0  0  0  0  0
   17.0190    2.4564   15.7923 C   0  0  0  0  0  0  0  0  0  0  0  0
   17.5224    3.5540   15.0934 C   0  0  0  0  0  0  0  0  0  0  0  0
   15.6503    2.3595   16.0280 C   0  0  0  0  0  0  0  0  0  0  0  0
   15.3012    4.4393   14.8718 C   0  0  0  0  0  0  0  0  0  0  0  0
   14.7806    3.3540   15.5869 C   0  0  0  0  0  0  0  0  0  0  0  0
   17.2074    5.7661   13.8875 C   0  0  0  0  0  0  0  0  0  0  0  0
   19.2314    6.8511   12.8904 C   0  0  0  0  0  0  0  0  0  0  0  0
   13.5818    0.9824   16.7481 O   0  0  0  0  0  0  0  0  0  0  0  0
   19.6387    7.8499   13.9546 C   0  0  0  0  0  0  0  0  0  0  0  0
   15.6145    1.0320   18.2495 O   0  0  0  0  0  0  0  0  0  0  0  0
   19.9983    9.1973   13.3778 C   0  0  0  0  0  0  0  0  0  0  0  0
   15.6237   -0.3514   16.1825 N   0  0  0  0  0  0  0  0  0  0  0  0
   19.9992   10.2383   14.4876 C   0  0  0  0  0  0  0  0  0  0  0  0
   19.3422   11.4861   13.9428 C   0  0  0  0  0  0  0  0  0  0  0  0
   19.1308    4.9805   13.8697 H   0  0  0  0  0  0  0  0  0  0  0  0
   17.7023    1.6945   16.1558 H   0  0  0  0  0  0  0  0  0  0  0  0
   18.5843    3.5972   14.9024 H   0  0  0  0  0  0  0  0  0  0  0  0
   14.6138    5.1832   14.4744 H   0  0  0  0  0  0  0  0  0  0  0  0
   13.7105    3.3094   15.7942 H   0  0  0  0  0  0  0  0  0  0  0  0
   18.5592    7.3061   12.1498 H   0  0  0  0  0  0  0  0  0  0  0  0
   20.1160    6.4729   12.3539 H   0  0  0  0  0  0  0  0  0  0  0  0
   20.4959    7.4648   14.5183 H   0  0  0  0  0  0  0  0  0  0  0  0
   18.8018    7.9780   14.6546 H   0  0  0  0  0  0  0  0  0  0  0  0
   19.2622    9.4714   12.6125 H   0  0  0  0  0  0  0  0  0  0  0  0
   20.9862    9.1515   12.9109 H   0  0  0  0  0  0  0  0  0  0  0  0
   15.3816   -1.2538   16.5849 H   0  0  0  0  0  0  0  0  0  0  0  0
   16.2684   -0.2724   15.4088 H   0  0  0  0  0  0  0  0  0  0  0  0
   21.0258   10.4553   14.8040 H   0  0  0  0  0  0  0  0  0  0  0  0
   19.4407    9.8801   15.3632 H   0  0  0  0  0  0  0  0  0  0  0  0
   19.3154   12.2654   14.7029 H   0  0  0  0  0  0  0  0  0  0  0  0
   18.3155   11.2557   13.6295 H   0  0  0  0  0  0  0  0  0  0  0  0
   19.9006   11.8442   13.0713 H   0  0  0  0  0  0  0  0  0  0  0  0
  1  7  1  0  0  0  0
  1 12  2  0  0  0  0
  1 14  2  0  0  0  0
  1 16  1  0  0  0  0
  2 10  1  0  0  0  0
  2 11  1  0  0  0  0
  2 19  1  0  0  0  0
  3 10  2  0  0  0  0
  4  6  2  0  0  0  0
  4  8  1  0  0  0  0
  4 10  1  0  0  0  0
  5  6  1  0  0  0  0
  5  7  2  0  0  0  0
  5 20  1  0  0  0  0
  6 21  1  0  0  0  0
  7  9  1  0  0  0  0
  8  9  2  0  0  0  0
  8 22  1  0  0  0  0
  9 23  1  0  0  0  0
 11 13  1  0  0  0  0
 11 24  1  0  0  0  0
 11 25  1  0  0  0  0
 13 15  1  0  0  0  0
 13 26  1  0  0  0  0
 13 27  1  0  0  0  0
 15 17  1  0  0  0  0
 15 28  1  0  0  0  0
 15 29  1  0  0  0  0
 16 30  1  0  0  0  0
 16 31  1  0  0  0  0
 17 18  1  0  0  0  0
 17 32  1  0  0  0  0
 17 33  1  0  0  0  0
 18 34  1  0  0  0  0
 18 35  1  0  0  0  0
 18 36  1  0  0  0  0
M  END
$$$$
