S1A
 OpenBabel04091913173D

 81 83  0  0  1  0  0  0  0  0999 V2000
  -44.2655   25.2281  -16.0571 C   0  0  0  0  0  0  0  0  0  0  0  0
  -43.0468   25.4467  -17.0245 C   0  0  2  0  0  0  0  0  0  0  0  0
  -43.0126   24.3713  -18.1681 C   0  0  1  0  0  0  0  0  0  0  0  0
  -41.7758   24.5865  -19.1573 C   0  0  1  0  0  0  0  0  0  0  0  0
  -41.9420   23.7726  -20.4760 C   0  0  2  0  0  0  0  0  0  0  0  0
  -43.3666   23.8601  -21.0746 C   0  0  1  0  0  0  0  0  0  0  0  0
  -44.4339   23.5641  -19.9793 C   0  0  2  0  0  0  0  0  0  0  0  0
  -45.9176   23.6896  -20.4999 C   0  0  2  0  0  0  0  0  0  0  0  0
  -46.9402   23.3645  -19.3870 C   0  0  0  0  0  0  0  0  0  0  0  0
  -47.2845   22.1154  -18.9929 C   0  0  0  0  0  0  0  0  0  0  0  0
  -48.2767   21.7989  -17.8699 C   0  0  2  0  0  0  0  0  0  0  0  0
  -47.9065   20.5097  -17.0610 C   0  0  2  0  0  0  0  0  0  0  0  0
  -46.5324   20.6342  -16.3853 C   0  0  0  0  0  0  0  0  0  0  0  0
  -46.4170   21.7591  -15.3630 C   0  0  0  0  0  0  0  0  0  0  0  0
  -45.0992   21.6363  -14.6112 C   0  0  0  0  0  0  0  0  0  0  0  0
  -44.9068   22.7078  -13.5476 C   0  0  0  0  0  0  0  0  0  0  0  0
  -44.9624   24.1822  -14.0024 C   0  0  1  0  0  0  0  0  0  0  0  0
  -41.7467   25.4827  -16.2085 C   0  0  0  0  0  0  0  0  0  0  0  0
  -40.2099   26.3806  -19.4506 C   0  0  0  0  0  0  0  0  0  0  0  0
  -43.5579   25.2306  -21.7418 C   0  0  0  0  0  0  0  0  0  0  0  0
  -46.1680   22.7749  -21.7132 C   0  0  0  0  0  0  0  0  0  0  0  0
  -50.5855   22.3675  -17.7105 C   0  0  0  0  0  0  0  0  0  0  0  0
  -47.9667   18.1183  -17.2738 C   0  0  0  0  0  0  0  0  0  0  0  0
  -44.6777   25.0091  -12.7329 C   0  0  0  0  0  0  0  0  0  0  0  0
  -43.3564   25.1054  -12.2370 C   0  0  0  0  0  0  0  0  0  0  0  0
  -43.0729   25.8017  -11.0533 C   0  0  0  0  0  0  0  0  0  0  0  0
  -44.1165   26.4034  -10.3414 C   0  0  0  0  0  0  0  0  0  0  0  0
  -45.4379   26.3078  -10.8103 C   0  0  0  0  0  0  0  0  0  0  0  0
  -45.7236   25.6094  -11.9980 C   0  0  0  0  0  0  0  0  0  0  0  0
  -45.3587   25.7029  -16.1972 O   0  0  0  0  0  0  0  0  0  0  0  0
  -42.9064   23.0730  -17.5696 O   0  0  0  0  0  0  0  0  0  0  0  0
  -41.5806   25.9885  -19.4667 O   0  0  0  0  0  0  0  0  0  0  0  0
  -41.6364   22.3831  -20.2528 O   0  0  0  0  0  0  0  0  0  0  0  0
  -44.2609   24.4704  -18.8714 O   0  0  0  0  0  0  0  0  0  0  0  0
  -49.5987   21.6382  -18.4356 O   0  0  0  0  0  0  0  0  0  0  0  0
  -47.9069   19.3627  -17.9544 O   0  0  0  0  0  0  0  0  0  0  0  0
  -43.9290   24.4121  -14.9868 O   0  0  0  0  0  0  0  0  0  0  0  0
  -43.1702   26.4449  -17.4788 H   0  0  0  0  0  0  0  0  0  0  0  0
  -40.8667   24.2270  -18.6469 H   0  0  0  0  0  0  0  0  0  0  0  0
  -41.2245   24.1313  -21.2335 H   0  0  0  0  0  0  0  0  0  0  0  0
  -43.4669   23.0977  -21.8632 H   0  0  0  0  0  0  0  0  0  0  0  0
  -44.3098   22.5311  -19.6215 H   0  0  0  0  0  0  0  0  0  0  0  0
  -46.0684   24.7274  -20.8453 H   0  0  0  0  0  0  0  0  0  0  0  0
  -47.4226   24.2118  -18.8895 H   0  0  0  0  0  0  0  0  0  0  0  0
  -46.7930   21.2585  -19.4682 H   0  0  0  0  0  0  0  0  0  0  0  0
  -48.3052   22.6484  -17.1725 H   0  0  0  0  0  0  0  0  0  0  0  0
  -48.6749   20.3334  -16.2929 H   0  0  0  0  0  0  0  0  0  0  0  0
  -45.7689   20.7888  -17.1565 H   0  0  0  0  0  0  0  0  0  0  0  0
  -46.2967   19.6943  -15.8758 H   0  0  0  0  0  0  0  0  0  0  0  0
  -47.2467   21.7052  -14.6512 H   0  0  0  0  0  0  0  0  0  0  0  0
  -46.4402   22.7242  -15.8737 H   0  0  0  0  0  0  0  0  0  0  0  0
  -44.2725   21.6835  -15.3248 H   0  0  0  0  0  0  0  0  0  0  0  0
  -45.0739   20.6521  -14.1164 H   0  0  0  0  0  0  0  0  0  0  0  0
  -43.9200   22.5276  -13.1013 H   0  0  0  0  0  0  0  0  0  0  0  0
  -45.6682   22.5493  -12.7723 H   0  0  0  0  0  0  0  0  0  0  0  0
  -45.9609   24.4019  -14.4088 H   0  0  0  0  0  0  0  0  0  0  0  0
  -41.7960   26.2461  -15.4213 H   0  0  0  0  0  0  0  0  0  0  0  0
  -40.8891   25.7112  -16.8390 H   0  0  0  0  0  0  0  0  0  0  0  0
  -41.5632   24.5142  -15.7314 H   0  0  0  0  0  0  0  0  0  0  0  0
  -40.1239   27.4469  -19.6891 H   0  0  0  0  0  0  0  0  0  0  0  0
  -39.6387   25.8044  -20.1818 H   0  0  0  0  0  0  0  0  0  0  0  0
  -39.7825   26.2201  -18.4575 H   0  0  0  0  0  0  0  0  0  0  0  0
  -42.7907   25.3992  -22.5106 H   0  0  0  0  0  0  0  0  0  0  0  0
  -43.4888   26.0351  -21.0052 H   0  0  0  0  0  0  0  0  0  0  0  0
  -44.5340   25.3034  -22.2342 H   0  0  0  0  0  0  0  0  0  0  0  0
  -47.1935   22.9000  -22.0853 H   0  0  0  0  0  0  0  0  0  0  0  0
  -46.0284   21.7252  -21.4330 H   0  0  0  0  0  0  0  0  0  0  0  0
  -45.4847   22.9931  -22.5421 H   0  0  0  0  0  0  0  0  0  0  0  0
  -51.5701   22.2195  -18.1700 H   0  0  0  0  0  0  0  0  0  0  0  0
  -50.3478   23.4362  -17.7331 H   0  0  0  0  0  0  0  0  0  0  0  0
  -50.6284   22.0251  -16.6712 H   0  0  0  0  0  0  0  0  0  0  0  0
  -47.9599   17.2940  -17.9966 H   0  0  0  0  0  0  0  0  0  0  0  0
  -48.8836   18.0567  -16.6809 H   0  0  0  0  0  0  0  0  0  0  0  0
  -47.1026   17.9997  -16.6190 H   0  0  0  0  0  0  0  0  0  0  0  0
  -42.5359   24.6333  -12.7820 H   0  0  0  0  0  0  0  0  0  0  0  0
  -42.0446   25.8733  -10.6934 H   0  0  0  0  0  0  0  0  0  0  0  0
  -43.8955   26.9472   -9.4216 H   0  0  0  0  0  0  0  0  0  0  0  0
  -46.2467   26.7820  -10.2453 H   0  0  0  0  0  0  0  0  0  0  0  0
  -46.7555   25.5424  -12.3522 H   0  0  0  0  0  0  0  0  0  0  0  0
  -42.0570   22.9965  -17.1076 H   0  0  0  0  0  0  0  0  0  0  0  0
  -40.7403   22.3132  -19.8829 H   0  0  0  0  0  0  0  0  0  0  0  0
  1  2  1  0  0  0  0
  1 30  2  0  0  0  0
  1 37  1  0  0  0  0
  2  3  1  0  0  0  0
  2 18  1  0  0  0  0
  2 38  1  6  0  0  0
  3  4  1  0  0  0  0
  3 31  1  1  0  0  0
  3 34  1  0  0  0  0
  4  5  1  0  0  0  0
  4 32  1  0  0  0  0
  4 39  1  1  0  0  0
  5  6  1  0  0  0  0
  5 33  1  0  0  0  0
  5 40  1  6  0  0  0
  6  7  1  0  0  0  0
  6 20  1  0  0  0  0
  6 41  1  6  0  0  0
  7  8  1  0  0  0  0
  7 34  1  0  0  0  0
  7 42  1  1  0  0  0
  8  9  1  0  0  0  0
  8 21  1  0  0  0  0
  8 43  1  6  0  0  0
  9 10  2  0  0  0  0
  9 44  1  0  0  0  0
 10 11  1  0  0  0  0
 10 45  1  0  0  0  0
 11 12  1  0  0  0  0
 11 35  1  0  0  0  0
 11 46  1  1  0  0  0
 12 13  1  0  0  0  0
 12 36  1  0  0  0  0
 12 47  1  1  0  0  0
 13 14  1  0  0  0  0
 13 48  1  0  0  0  0
 13 49  1  0  0  0  0
 14 15  1  0  0  0  0
 14 50  1  0  0  0  0
 14 51  1  0  0  0  0
 15 16  1  0  0  0  0
 15 52  1  0  0  0  0
 15 53  1  0  0  0  0
 16 17  1  0  0  0  0
 16 54  1  0  0  0  0
 16 55  1  0  0  0  0
 17 24  1  0  0  0  0
 17 37  1  0  0  0  0
 17 56  1  6  0  0  0
 18 57  1  0  0  0  0
 18 58  1  0  0  0  0
 18 59  1  0  0  0  0
 19 32  1  0  0  0  0
 19 60  1  0  0  0  0
 19 61  1  0  0  0  0
 19 62  1  0  0  0  0
 20 63  1  0  0  0  0
 20 64  1  0  0  0  0
 20 65  1  0  0  0  0
 21 66  1  0  0  0  0
 21 67  1  0  0  0  0
 21 68  1  0  0  0  0
 22 35  1  0  0  0  0
 22 69  1  0  0  0  0
 22 70  1  0  0  0  0
 22 71  1  0  0  0  0
 23 36  1  0  0  0  0
 23 72  1  0  0  0  0
 23 73  1  0  0  0  0
 23 74  1  0  0  0  0
 24 25  2  0  0  0  0
 24 29  1  0  0  0  0
 25 26  1  0  0  0  0
 25 75  1  0  0  0  0
 26 27  2  0  0  0  0
 26 76  1  0  0  0  0
 27 28  1  0  0  0  0
 27 77  1  0  0  0  0
 28 29  2  0  0  0  0
 28 78  1  0  0  0  0
 29 79  1  0  0  0  0
 31 80  1  0  0  0  0
 33 81  1  0  0  0  0
M  END
$$$$
