S2P
 OpenBabel04091911013D

 19 19  0  0  1  0  0  0  0  0999 V2000
  -11.7145   27.1569   40.2582 C   0  0  0  0  0  0  0  0  0  0  0  0
  -11.5525   25.9466   41.1670 C   0  0  0  0  0  0  0  0  0  0  0  0
  -11.2779   24.8240   40.5748 N   0  0  0  0  0  0  0  0  0  0  0  0
  -11.6690   26.1592   42.6909 C   0  0  0  0  0  0  0  0  0  0  0  0
  -10.3218   26.4189   43.3852 C   0  0  1  0  0  0  0  0  0  0  0  0
  -11.9262   28.2618   40.7142 O   0  0  0  0  0  0  0  0  0  0  0  0
  -11.2614   27.4803   45.3413 O   0  0  0  0  0  0  0  0  0  0  0  0
  -10.4495   26.6087   44.9443 C   0  0  0  0  0  0  0  0  0  0  0  0
   -9.6735   25.8270   45.5469 O   0  0  0  0  0  0  0  0  0  0  0  0
  -11.5430   26.7685   38.9558 N   0  3  0  0  0  0  0  0  0  0  0  0
   -9.3193   25.2836   43.1175 N   0  3  0  0  0  0  0  0  0  0  0  0
  -11.2344   25.1117   38.8844 S   0  0  0  0  0  0  0  0  0  0  0  0
  -12.1634   25.2847   43.1382 H   0  0  0  0  0  0  0  0  0  0  0  0
  -12.3300   27.0193   42.8784 H   0  0  0  0  0  0  0  0  0  0  0  0
   -9.8776   27.3143   42.9361 H   0  0  0  0  0  0  0  0  0  0  0  0
  -11.6135   27.3893   38.1781 H   0  0  0  0  0  0  0  0  0  0  0  0
   -8.4521   25.4917   43.6540 H   0  0  0  0  0  0  0  0  0  0  0  0
   -9.6625   24.4145   43.5641 H   0  0  0  0  0  0  0  0  0  0  0  0
   -9.1119   25.1316   42.1366 H   0  0  0  0  0  0  0  0  0  0  0  0
  1  2  1  0  0  0  0
  1  6  2  0  0  0  0
  1 10  1  0  0  0  0
  2  3  2  0  0  0  0
  2  4  1  0  0  0  0
  3 12  1  0  0  0  0
  4  5  1  0  0  0  0
  4 13  1  0  0  0  0
  4 14  1  0  0  0  0
  5  8  1  0  0  0  0
  5 11  1  0  0  0  0
  5 15  1  6  0  0  0
  7  8  2  0  0  0  0
  8  9  1  0  0  0  0
 10 12  1  0  0  0  0
 10 16  1  0  0  0  0
 11 17  1  0  0  0  0
 11 18  1  0  0  0  0
 11 19  1  0  0  0  0
M  CHG  2  10   1  11   1
M  END
$$$$
