S45
 OpenBabel04091912523D

 33 35  0  0  1  0  0  0  0  0999 V2000
   -5.4158    4.9217   29.1542 Cl  0  0  0  0  0  0  0  0  0  0  0  0
   -4.6179    6.3263   29.7299 C   0  0  0  0  0  0  0  0  0  0  0  0
   -5.3396    7.3100   30.3995 C   0  0  0  0  0  0  0  0  0  0  0  0
   -4.6923    8.4637   30.8516 C   0  0  0  0  0  0  0  0  0  0  0  0
   -3.3129    8.6406   30.6484 C   0  0  0  0  0  0  0  0  0  0  0  0
   -2.5938    7.6377   29.9840 C   0  0  0  0  0  0  0  0  0  0  0  0
   -3.2477    6.4848   29.5186 C   0  0  0  0  0  0  0  0  0  0  0  0
   -2.6713    9.8780   31.0817 C   0  0  0  0  0  0  0  0  0  0  0  0
   -3.2384   11.1066   30.7990 N   0  0  0  0  0  0  0  0  0  0  0  0
   -2.3974   11.9532   31.3392 C   0  0  0  0  0  0  0  0  0  0  0  0
   -1.3454   11.3362   31.9600 O   0  0  0  0  0  0  0  0  0  0  0  0
   -1.5132    9.9658   31.7509 N   0  0  0  0  0  0  0  0  0  0  0  0
   -2.4586   13.4505   31.3530 C   0  0  2  0  0  0  0  0  0  0  0  0
   -3.5560   13.9515   30.3870 C   0  0  0  0  0  0  0  0  0  0  0  0
   -3.0606   14.0231   28.9440 C   0  0  0  0  0  0  0  0  0  0  0  0
   -1.8302   14.9058   28.7657 C   0  0  0  0  0  0  0  0  0  0  0  0
   -1.2211   15.2443   30.0884 N   0  3  0  0  0  0  0  0  0  0  0  0
   -1.0921   14.0825   31.0356 C   0  0  0  0  0  0  0  0  0  0  0  0
   -6.4068    7.1861   30.5689 H   0  0  0  0  0  0  0  0  0  0  0  0
   -5.2710    9.2258   31.3664 H   0  0  0  0  0  0  0  0  0  0  0  0
   -1.5252    7.7468   29.8021 H   0  0  0  0  0  0  0  0  0  0  0  0
   -2.6844    5.7190   28.9894 H   0  0  0  0  0  0  0  0  0  0  0  0
   -2.7527   13.7435   32.3680 H   0  0  0  0  0  0  0  0  0  0  0  0
   -3.8800   14.9542   30.7008 H   0  0  0  0  0  0  0  0  0  0  0  0
   -4.4518   13.3200   30.4385 H   0  0  0  0  0  0  0  0  0  0  0  0
   -3.8645   14.3895   28.2960 H   0  0  0  0  0  0  0  0  0  0  0  0
   -2.8264   13.0129   28.5850 H   0  0  0  0  0  0  0  0  0  0  0  0
   -2.0877   15.8576   28.2929 H   0  0  0  0  0  0  0  0  0  0  0  0
   -1.0613   14.4101   28.1657 H   0  0  0  0  0  0  0  0  0  0  0  0
   -0.2896   15.6538   29.9221 H   0  0  0  0  0  0  0  0  0  0  0  0
   -0.3735   13.3916   30.5821 H   0  0  0  0  0  0  0  0  0  0  0  0
   -0.6428   14.4960   31.9461 H   0  0  0  0  0  0  0  0  0  0  0  0
   -1.7665   16.0005   30.5279 H   0  0  0  0  0  0  0  0  0  0  0  0
  1  2  1  0  0  0  0
  2  3  2  0  0  0  0
  2  7  1  0  0  0  0
  3  4  1  0  0  0  0
  3 19  1  0  0  0  0
  4  5  2  0  0  0  0
  4 20  1  0  0  0  0
  5  6  1  0  0  0  0
  5  8  1  0  0  0  0
  6  7  2  0  0  0  0
  6 21  1  0  0  0  0
  7 22  1  0  0  0  0
  8  9  1  0  0  0  0
  8 12  2  0  0  0  0
  9 10  2  0  0  0  0
 10 11  1  0  0  0  0
 10 13  1  0  0  0  0
 11 12  1  0  0  0  0
 13 14  1  0  0  0  0
 13 18  1  0  0  0  0
 13 23  1  1  0  0  0
 14 15  1  0  0  0  0
 14 24  1  0  0  0  0
 14 25  1  0  0  0  0
 15 16  1  0  0  0  0
 15 26  1  0  0  0  0
 15 27  1  0  0  0  0
 16 17  1  0  0  0  0
 16 28  1  0  0  0  0
 16 29  1  0  0  0  0
 17 18  1  0  0  0  0
 17 30  1  0  0  0  0
 17 33  1  0  0  0  0
 18 31  1  0  0  0  0
 18 32  1  0  0  0  0
M  CHG  1  17   1
M  END
$$$$
