S6I
 OpenBabel04091913563D

 36 37  0  0  0  0  0  0  0  0999 V2000
   -5.0732    2.2150   15.8065 C   0  0  0  0  0  0  0  0  0  0  0  0
   -5.4586   -0.4448   16.0981 N   0  0  0  0  0  0  0  0  0  0  0  0
   -7.3195    1.1171   16.5986 O   0  0  0  0  0  0  0  0  0  0  0  0
   -5.8934    1.0011   16.8022 S   0  0  0  0  0  0  0  0  0  0  0  0
   -5.7753    3.3194   15.3252 C   0  0  0  0  0  0  0  0  0  0  0  0
   -5.2970    1.0370   18.1161 O   0  0  0  0  0  0  0  0  0  0  0  0
   -5.0981    4.3003   14.5884 C   0  0  0  0  0  0  0  0  0  0  0  0
   -3.7360    4.1639   14.3167 C   0  0  0  0  0  0  0  0  0  0  0  0
   -3.0527    3.0306   14.7895 C   0  0  0  0  0  0  0  0  0  0  0  0
   -3.7055    2.0629   15.5467 C   0  0  0  0  0  0  0  0  0  0  0  0
   -2.9605    5.1040   13.6269 N   0  0  0  0  0  0  0  0  0  0  0  0
   -3.2708    6.4142   13.3638 C   0  0  0  0  0  0  0  0  0  0  0  0
   -4.3426    6.9689   13.5741 O   0  0  0  0  0  0  0  0  0  0  0  0
   -2.1568    7.0917   12.9112 N   0  0  0  0  0  0  0  0  0  0  0  0
   -2.1170    8.5398   12.8846 C   0  0  0  0  0  0  0  0  0  0  0  0
   -2.1524    9.1290   14.2969 C   0  0  0  0  0  0  0  0  0  0  0  0
   -0.7059    9.1321   14.7722 C   0  0  0  0  0  0  0  0  0  0  0  0
    0.1641    9.0747   13.5203 C   0  0  0  0  0  0  0  0  0  0  0  0
   -0.7856    9.0316   12.3248 C   0  0  0  0  0  0  0  0  0  0  0  0
   -5.7133   -1.2826   16.6122 H   0  0  0  0  0  0  0  0  0  0  0  0
   -4.7857   -0.4784   15.3412 H   0  0  0  0  0  0  0  0  0  0  0  0
   -6.8378    3.4404   15.5361 H   0  0  0  0  0  0  0  0  0  0  0  0
   -5.6627    5.1661   14.2377 H   0  0  0  0  0  0  0  0  0  0  0  0
   -1.9823    2.9224   14.6137 H   0  0  0  0  0  0  0  0  0  0  0  0
   -3.1477    1.2288   15.9470 H   0  0  0  0  0  0  0  0  0  0  0  0
   -1.9981    4.8487   13.4735 H   0  0  0  0  0  0  0  0  0  0  0  0
   -1.2939    6.5888   12.7724 H   0  0  0  0  0  0  0  0  0  0  0  0
   -2.9652    8.8878   12.2857 H   0  0  0  0  0  0  0  0  0  0  0  0
   -2.7861    8.5681   14.9911 H   0  0  0  0  0  0  0  0  0  0  0  0
   -2.5316   10.1567   14.2635 H   0  0  0  0  0  0  0  0  0  0  0  0
   -0.5076    8.2599   15.4060 H   0  0  0  0  0  0  0  0  0  0  0  0
   -0.4946   10.0233   15.3724 H   0  0  0  0  0  0  0  0  0  0  0  0
    0.7925    8.1769   13.5466 H   0  0  0  0  0  0  0  0  0  0  0  0
    0.8346    9.9381   13.4588 H   0  0  0  0  0  0  0  0  0  0  0  0
   -0.8971   10.0395   11.9100 H   0  0  0  0  0  0  0  0  0  0  0  0
   -0.3923    8.3861   11.5307 H   0  0  0  0  0  0  0  0  0  0  0  0
  1  4  1  0  0  0  0
  1  5  2  0  0  0  0
  1 10  1  0  0  0  0
  2  4  1  0  0  0  0
  2 20  1  0  0  0  0
  2 21  1  0  0  0  0
  3  4  2  0  0  0  0
  4  6  2  0  0  0  0
  5  7  1  0  0  0  0
  5 22  1  0  0  0  0
  7  8  2  0  0  0  0
  7 23  1  0  0  0  0
  8  9  1  0  0  0  0
  8 11  1  0  0  0  0
  9 10  2  0  0  0  0
  9 24  1  0  0  0  0
 10 25  1  0  0  0  0
 11 12  1  0  0  0  0
 11 26  1  0  0  0  0
 12 13  2  0  0  0  0
 12 14  1  0  0  0  0
 14 15  1  0  0  0  0
 14 27  1  0  0  0  0
 15 16  1  0  0  0  0
 15 19  1  0  0  0  0
 15 28  1  0  0  0  0
 16 17  1  0  0  0  0
 16 29  1  0  0  0  0
 16 30  1  0  0  0  0
 17 18  1  0  0  0  0
 17 31  1  0  0  0  0
 17 32  1  0  0  0  0
 18 19  1  0  0  0  0
 18 33  1  0  0  0  0
 18 34  1  0  0  0  0
 19 35  1  0  0  0  0
 19 36  1  0  0  0  0
M  END
$$$$
