SAH
 OpenBabel04091914243D

 46 48  0  0  1  0  0  0  0  0999 V2000
   10.3121    8.8287    2.8771 N   0  3  0  0  0  0  0  0  0  0  0  0
   11.4860    9.6586    2.3878 C   0  0  1  0  0  0  0  0  0  0  0  0
   10.8959   10.8201    1.5855 C   0  0  0  0  0  0  0  0  0  0  0  0
   11.9230   11.4470    0.6479 C   0  0  0  0  0  0  0  0  0  0  0  0
   11.3159   12.8960   -0.3086 S   0  0  0  0  0  0  0  0  0  0  0  0
   12.3904   10.1062    3.5725 C   0  0  0  0  0  0  0  0  0  0  0  0
   13.6067   10.2365    3.3007 O   0  0  0  0  0  0  0  0  0  0  0  0
   11.7481   10.1186    4.6646 O   0  0  0  0  0  0  0  0  0  0  0  0
    9.7920   12.3029   -1.1327 C   0  0  0  0  0  0  0  0  0  0  0  0
    9.8940   10.9914   -1.9157 C   0  0  1  0  0  0  0  0  0  0  0  0
    8.5600   10.6207   -2.3548 O   0  0  0  0  0  0  0  0  0  0  0  0
   10.8011   11.0380   -3.1565 C   0  0  1  0  0  0  0  0  0  0  0  0
   11.8219   10.0365   -3.0856 O   0  0  0  0  0  0  0  0  0  0  0  0
    9.8390   10.8259   -4.3282 C   0  0  1  0  0  0  0  0  0  0  0  0
   10.4004   10.1516   -5.4455 O   0  0  0  0  0  0  0  0  0  0  0  0
    8.6540   10.0920   -3.6938 C   0  0  2  0  0  0  0  0  0  0  0  0
    7.3817   10.2555   -4.3726 N   0  3  0  0  0  0  0  0  0  0  0  0
    6.8206   11.4494   -4.7730 C   0  0  0  0  0  0  0  0  0  0  0  0
    5.6841   11.2710   -5.4228 N   0  0  0  0  0  0  0  0  0  0  0  0
    5.4833    9.9167   -5.4211 C   0  0  0  0  0  0  0  0  0  0  0  0
    4.4446    9.1211   -5.9437 C   0  0  0  0  0  0  0  0  0  0  0  0
    3.3694    9.6802   -6.6132 N   0  0  0  0  0  0  0  0  0  0  0  0
    4.5081    7.7827   -5.7793 N   0  0  0  0  0  0  0  0  0  0  0  0
    5.5769    7.2747   -5.1136 C   0  0  0  0  0  0  0  0  0  0  0  0
    6.6354    7.9284   -4.5788 N   0  0  0  0  0  0  0  0  0  0  0  0
    6.5141    9.2549   -4.7671 C   0  0  0  0  0  0  0  0  0  0  0  0
   10.6975    8.1068    3.5027 H   0  0  0  0  0  0  0  0  0  0  0  0
    9.7660    9.4260    3.5158 H   0  0  0  0  0  0  0  0  0  0  0  0
   12.0594    8.9743    1.7539 H   0  0  0  0  0  0  0  0  0  0  0  0
   10.4940   11.5811    2.2656 H   0  0  0  0  0  0  0  0  0  0  0  0
   10.0561   10.4385    0.9937 H   0  0  0  0  0  0  0  0  0  0  0  0
   12.3185   10.6992   -0.0509 H   0  0  0  0  0  0  0  0  0  0  0  0
   12.7699   11.8173    1.2327 H   0  0  0  0  0  0  0  0  0  0  0  0
    9.4743   13.1006   -1.8165 H   0  0  0  0  0  0  0  0  0  0  0  0
    8.9913   12.2431   -0.3863 H   0  0  0  0  0  0  0  0  0  0  0  0
   10.2178   10.1916   -1.2431 H   0  0  0  0  0  0  0  0  0  0  0  0
   11.3246   11.9953   -3.2518 H   0  0  0  0  0  0  0  0  0  0  0  0
   11.4472    9.1541   -2.9467 H   0  0  0  0  0  0  0  0  0  0  0  0
    9.5281   11.8185   -4.6744 H   0  0  0  0  0  0  0  0  0  0  0  0
   10.7294    9.2781   -5.1719 H   0  0  0  0  0  0  0  0  0  0  0  0
    8.8594    9.0169   -3.6188 H   0  0  0  0  0  0  0  0  0  0  0  0
    7.2874   12.4064   -4.6079 H   0  0  0  0  0  0  0  0  0  0  0  0
    2.6528    9.0887   -6.9999 H   0  0  0  0  0  0  0  0  0  0  0  0
    3.3687   10.6793   -6.7440 H   0  0  0  0  0  0  0  0  0  0  0  0
    5.5779    6.1917   -5.0047 H   0  0  0  0  0  0  0  0  0  0  0  0
    9.7549    8.4231    2.1277 H   0  0  0  0  0  0  0  0  0  0  0  0
  1  2  1  0  0  0  0
  1 27  1  0  0  0  0
  1 28  1  0  0  0  0
  1 46  1  0  0  0  0
  2  3  1  0  0  0  0
  2  6  1  0  0  0  0
  2 29  1  6  0  0  0
  3  4  1  0  0  0  0
  3 30  1  0  0  0  0
  3 31  1  0  0  0  0
  4  5  1  0  0  0  0
  4 32  1  0  0  0  0
  4 33  1  0  0  0  0
  5  9  1  0  0  0  0
  6  7  2  0  0  0  0
  6  8  1  0  0  0  0
  9 10  1  0  0  0  0
  9 34  1  0  0  0  0
  9 35  1  0  0  0  0
 10 11  1  0  0  0  0
 10 12  1  0  0  0  0
 10 36  1  1  0  0  0
 11 16  1  0  0  0  0
 12 13  1  0  0  0  0
 12 14  1  0  0  0  0
 12 37  1  6  0  0  0
 13 38  1  0  0  0  0
 14 15  1  0  0  0  0
 14 16  1  0  0  0  0
 14 39  1  6  0  0  0
 15 40  1  0  0  0  0
 16 17  1  0  0  0  0
 16 41  1  1  0  0  0
 17 18  2  0  0  0  0
 17 26  1  0  0  0  0
 18 19  1  0  0  0  0
 18 42  1  0  0  0  0
 19 20  1  0  0  0  0
 20 21  2  0  0  0  0
 20 26  1  0  0  0  0
 21 22  1  0  0  0  0
 21 23  1  0  0  0  0
 22 43  1  0  0  0  0
 22 44  1  0  0  0  0
 23 24  2  0  0  0  0
 24 25  1  0  0  0  0
 24 45  1  0  0  0  0
 25 26  2  0  0  0  0
M  CHG  2   1   1  17   1
M  END
$$$$
