SAH
 OpenBabel04091914523D

 46 48  0  0  1  0  0  0  0  0999 V2000
   41.8526   51.3294    1.4718 N   0  3  0  0  0  0  0  0  0  0  0  0
   41.6112   52.7512    1.9444 C   0  0  1  0  0  0  0  0  0  0  0  0
   42.2775   52.9612    3.3119 C   0  0  0  0  0  0  0  0  0  0  0  0
   43.8031   52.8560    3.2982 C   0  0  0  0  0  0  0  0  0  0  0  0
   44.4969   53.2746    4.9363 S   0  0  0  0  0  0  0  0  0  0  0  0
   42.1129   53.7885    0.9027 C   0  0  0  0  0  0  0  0  0  0  0  0
   41.4744   54.8618    0.8412 O   0  0  0  0  0  0  0  0  0  0  0  0
   43.0448   53.2969    0.1952 O   0  0  0  0  0  0  0  0  0  0  0  0
   45.1690   51.6586    5.4490 C   0  0  0  0  0  0  0  0  0  0  0  0
   44.1502   50.8528    6.2493 C   0  0  1  0  0  0  0  0  0  0  0  0
   44.5932   49.4730    6.3331 O   0  0  0  0  0  0  0  0  0  0  0  0
   43.9403   51.3503    7.6928 C   0  0  1  0  0  0  0  0  0  0  0  0
   42.5511   51.6259    7.9162 O   0  0  0  0  0  0  0  0  0  0  0  0
   44.3886   50.1806    8.5660 C   0  0  1  0  0  0  0  0  0  0  0  0
   43.6234   50.0397    9.7565 O   0  0  0  0  0  0  0  0  0  0  0  0
   44.1763   48.9966    7.6227 C   0  0  2  0  0  0  0  0  0  0  0  0
   44.8783   47.7873    7.9917 N   0  3  0  0  0  0  0  0  0  0  0  0
   46.1743   47.6764    8.4236 C   0  0  0  0  0  0  0  0  0  0  0  0
   46.4807   46.4421    8.7612 N   0  0  0  0  0  0  0  0  0  0  0  0
   45.3260   45.7105    8.5457 C   0  0  0  0  0  0  0  0  0  0  0  0
   45.0224   44.3332    8.7256 C   0  0  0  0  0  0  0  0  0  0  0  0
   45.9036   43.3817    9.1702 N   0  0  0  0  0  0  0  0  0  0  0  0
   43.7570   43.9391    8.4146 N   0  0  0  0  0  0  0  0  0  0  0  0
   42.8683   44.8571    7.9777 C   0  0  0  0  0  0  0  0  0  0  0  0
   43.0505   46.1818    7.7864 N   0  0  0  0  0  0  0  0  0  0  0  0
   44.3114   46.5383    8.0886 C   0  0  0  0  0  0  0  0  0  0  0  0
   41.4290   51.2529    0.5374 H   0  0  0  0  0  0  0  0  0  0  0  0
   42.8592   51.2394    1.2659 H   0  0  0  0  0  0  0  0  0  0  0  0
   40.5247   52.8339    2.0533 H   0  0  0  0  0  0  0  0  0  0  0  0
   41.8681   52.2311    4.0222 H   0  0  0  0  0  0  0  0  0  0  0  0
   41.9903   53.9554    3.6774 H   0  0  0  0  0  0  0  0  0  0  0  0
   44.2314   53.5714    2.5926 H   0  0  0  0  0  0  0  0  0  0  0  0
   44.1175   51.8526    2.9967 H   0  0  0  0  0  0  0  0  0  0  0  0
   46.0577   51.8434    6.0613 H   0  0  0  0  0  0  0  0  0  0  0  0
   45.5131   51.0927    4.5768 H   0  0  0  0  0  0  0  0  0  0  0  0
   43.1927   50.8393    5.7121 H   0  0  0  0  0  0  0  0  0  0  0  0
   44.5000   52.2652    7.9162 H   0  0  0  0  0  0  0  0  0  0  0  0
   42.0302   50.8205    7.7768 H   0  0  0  0  0  0  0  0  0  0  0  0
   45.4425   50.3087    8.8338 H   0  0  0  0  0  0  0  0  0  0  0  0
   42.6900   49.9085    9.5091 H   0  0  0  0  0  0  0  0  0  0  0  0
   43.1082   48.7592    7.5650 H   0  0  0  0  0  0  0  0  0  0  0  0
   46.8522   48.5230    8.4832 H   0  0  0  0  0  0  0  0  0  0  0  0
   45.5818   42.4215    9.2604 H   0  0  0  0  0  0  0  0  0  0  0  0
   46.8500   43.6598    9.4150 H   0  0  0  0  0  0  0  0  0  0  0  0
   41.8753   44.4787    7.7440 H   0  0  0  0  0  0  0  0  0  0  0  0
   41.5040   50.6034    2.0966 H   0  0  0  0  0  0  0  0  0  0  0  0
  1  2  1  0  0  0  0
  1 27  1  0  0  0  0
  1 28  1  0  0  0  0
  1 46  1  0  0  0  0
  2  3  1  0  0  0  0
  2  6  1  0  0  0  0
  2 29  1  1  0  0  0
  3  4  1  0  0  0  0
  3 30  1  0  0  0  0
  3 31  1  0  0  0  0
  4  5  1  0  0  0  0
  4 32  1  0  0  0  0
  4 33  1  0  0  0  0
  5  9  1  0  0  0  0
  6  7  2  0  0  0  0
  6  8  1  0  0  0  0
  9 10  1  0  0  0  0
  9 34  1  0  0  0  0
  9 35  1  0  0  0  0
 10 11  1  0  0  0  0
 10 12  1  0  0  0  0
 10 36  1  6  0  0  0
 11 16  1  0  0  0  0
 12 13  1  0  0  0  0
 12 14  1  0  0  0  0
 12 37  1  1  0  0  0
 13 38  1  0  0  0  0
 14 15  1  0  0  0  0
 14 16  1  0  0  0  0
 14 39  1  1  0  0  0
 15 40  1  0  0  0  0
 16 17  1  0  0  0  0
 16 41  1  6  0  0  0
 17 18  2  0  0  0  0
 17 26  1  0  0  0  0
 18 19  1  0  0  0  0
 18 42  1  0  0  0  0
 19 20  1  0  0  0  0
 20 21  2  0  0  0  0
 20 26  1  0  0  0  0
 21 22  1  0  0  0  0
 21 23  1  0  0  0  0
 22 43  1  0  0  0  0
 22 44  1  0  0  0  0
 23 24  2  0  0  0  0
 24 25  1  0  0  0  0
 24 45  1  0  0  0  0
 25 26  2  0  0  0  0
M  CHG  2   1   1  17   1
M  END
$$$$
