SAH
 OpenBabel04091915523D

 46 48  0  0  1  0  0  0  0  0999 V2000
  -10.4961  -11.2937   15.7060 N   0  3  0  0  0  0  0  0  0  0  0  0
  -11.0393  -10.3650   14.6377 C   0  0  1  0  0  0  0  0  0  0  0  0
  -12.3402   -9.7126   15.1000 C   0  0  0  0  0  0  0  0  0  0  0  0
  -13.4022  -10.7223   15.5210 C   0  0  0  0  0  0  0  0  0  0  0  0
  -14.9991   -9.8734   15.7178 S   0  0  0  0  0  0  0  0  0  0  0  0
  -10.0262   -9.2230   14.3368 C   0  0  0  0  0  0  0  0  0  0  0  0
   -9.1640   -9.1447   15.2718 O   0  0  0  0  0  0  0  0  0  0  0  0
  -10.1426   -8.6477   13.2403 O   0  0  0  0  0  0  0  0  0  0  0  0
  -15.9370  -11.2066   16.5168 C   0  0  0  0  0  0  0  0  0  0  0  0
  -16.2328  -12.3788   15.5827 C   0  0  1  0  0  0  0  0  0  0  0  0
  -16.6078  -13.4984   16.4097 O   0  0  0  0  0  0  0  0  0  0  0  0
  -17.3708  -12.1330   14.5808 C   0  0  1  0  0  0  0  0  0  0  0  0
  -16.9271  -12.3832   13.2442 O   0  0  0  0  0  0  0  0  0  0  0  0
  -18.4679  -13.1042   15.0203 C   0  0  1  0  0  0  0  0  0  0  0  0
  -19.2384  -13.6270   13.9502 O   0  0  0  0  0  0  0  0  0  0  0  0
  -17.6714  -14.1906   15.7427 C   0  0  2  0  0  0  0  0  0  0  0  0
  -18.3934  -14.9509   16.7366 N   0  3  0  0  0  0  0  0  0  0  0  0
  -19.2767  -14.4685   17.6659 C   0  0  0  0  0  0  0  0  0  0  0  0
  -19.6977  -15.4124   18.4813 N   0  0  0  0  0  0  0  0  0  0  0  0
  -19.0423  -16.5500   18.0721 C   0  0  0  0  0  0  0  0  0  0  0  0
  -19.0399  -17.8673   18.5606 C   0  0  0  0  0  0  0  0  0  0  0  0
  -19.7610  -18.2554   19.6675 N   0  0  0  0  0  0  0  0  0  0  0  0
  -18.2790  -18.7903   17.9288 N   0  0  0  0  0  0  0  0  0  0  0  0
  -17.5435  -18.3929   16.8664 C   0  0  0  0  0  0  0  0  0  0  0  0
  -17.4472  -17.1628   16.3229 N   0  0  0  0  0  0  0  0  0  0  0  0
  -18.2319  -16.2897   16.9782 C   0  0  0  0  0  0  0  0  0  0  0  0
   -9.5695  -11.5936   15.3730 H   0  0  0  0  0  0  0  0  0  0  0  0
  -10.2432  -10.6896   16.5056 H   0  0  0  0  0  0  0  0  0  0  0  0
  -11.1899  -10.9838   13.7489 H   0  0  0  0  0  0  0  0  0  0  0  0
  -12.7220   -9.1067   14.2692 H   0  0  0  0  0  0  0  0  0  0  0  0
  -12.1472   -9.0182   15.9310 H   0  0  0  0  0  0  0  0  0  0  0  0
  -13.1274  -11.1798   16.4776 H   0  0  0  0  0  0  0  0  0  0  0  0
  -13.4893  -11.5116   14.7697 H   0  0  0  0  0  0  0  0  0  0  0  0
  -16.8695  -10.7866   16.9097 H   0  0  0  0  0  0  0  0  0  0  0  0
  -15.3720  -11.5482   17.3916 H   0  0  0  0  0  0  0  0  0  0  0  0
  -15.3261  -12.6974   15.0582 H   0  0  0  0  0  0  0  0  0  0  0  0
  -17.7341  -11.0998   14.5920 H   0  0  0  0  0  0  0  0  0  0  0  0
  -16.7431  -13.3320   13.1310 H   0  0  0  0  0  0  0  0  0  0  0  0
  -19.1354  -12.5774   15.7091 H   0  0  0  0  0  0  0  0  0  0  0  0
  -19.6667  -12.8786   13.4942 H   0  0  0  0  0  0  0  0  0  0  0  0
  -17.2344  -14.8922   15.0215 H   0  0  0  0  0  0  0  0  0  0  0  0
  -19.5758  -13.4291   17.7190 H   0  0  0  0  0  0  0  0  0  0  0  0
  -19.7710  -19.2352   19.9054 H   0  0  0  0  0  0  0  0  0  0  0  0
  -20.4016  -17.5959   20.0845 H   0  0  0  0  0  0  0  0  0  0  0  0
  -16.9495  -19.1707   16.3922 H   0  0  0  0  0  0  0  0  0  0  0  0
  -11.0709  -12.0934   15.9617 H   0  0  0  0  0  0  0  0  0  0  0  0
  1  2  1  0  0  0  0
  1 27  1  0  0  0  0
  1 28  1  0  0  0  0
  1 46  1  0  0  0  0
  2  3  1  0  0  0  0
  2  6  1  0  0  0  0
  2 29  1  6  0  0  0
  3  4  1  0  0  0  0
  3 30  1  0  0  0  0
  3 31  1  0  0  0  0
  4  5  1  0  0  0  0
  4 32  1  0  0  0  0
  4 33  1  0  0  0  0
  5  9  1  0  0  0  0
  6  7  2  0  0  0  0
  6  8  1  0  0  0  0
  9 10  1  0  0  0  0
  9 34  1  0  0  0  0
  9 35  1  0  0  0  0
 10 11  1  0  0  0  0
 10 12  1  0  0  0  0
 10 36  1  6  0  0  0
 11 16  1  0  0  0  0
 12 13  1  0  0  0  0
 12 14  1  0  0  0  0
 12 37  1  1  0  0  0
 13 38  1  0  0  0  0
 14 15  1  0  0  0  0
 14 16  1  0  0  0  0
 14 39  1  1  0  0  0
 15 40  1  0  0  0  0
 16 17  1  0  0  0  0
 16 41  1  6  0  0  0
 17 18  2  0  0  0  0
 17 26  1  0  0  0  0
 18 19  1  0  0  0  0
 18 42  1  0  0  0  0
 19 20  1  0  0  0  0
 20 21  2  0  0  0  0
 20 26  1  0  0  0  0
 21 22  1  0  0  0  0
 21 23  1  0  0  0  0
 22 43  1  0  0  0  0
 22 44  1  0  0  0  0
 23 24  2  0  0  0  0
 24 25  1  0  0  0  0
 24 45  1  0  0  0  0
 25 26  2  0  0  0  0
M  CHG  2   1   1  17   1
M  END
$$$$
