SAL
 OpenBabel04091915493D

 15 15  0  0  0  0  0  0  0  0999 V2000
   71.1131   80.8548   28.4318 C   0  0  0  0  0  0  0  0  0  0  0  0
   71.8874   81.8151   28.7624 O   0  0  0  0  0  0  0  0  0  0  0  0
   70.8420   79.8346   29.1375 O   0  0  0  0  0  0  0  0  0  0  0  0
   70.4815   80.9632   27.0670 C   0  0  0  0  0  0  0  0  0  0  0  0
   70.7643   82.0382   26.2105 C   0  0  0  0  0  0  0  0  0  0  0  0
   70.1921   82.1242   24.9427 C   0  0  0  0  0  0  0  0  0  0  0  0
   69.3208   81.1259   24.5072 C   0  0  0  0  0  0  0  0  0  0  0  0
   69.0187   80.0519   25.3432 C   0  0  0  0  0  0  0  0  0  0  0  0
   69.5931   79.9734   26.6129 C   0  0  0  0  0  0  0  0  0  0  0  0
   71.6194   83.0466   26.5784 O   0  0  0  0  0  0  0  0  0  0  0  0
   70.4331   82.9660   24.3021 H   0  0  0  0  0  0  0  0  0  0  0  0
   68.8806   81.1860   23.5171 H   0  0  0  0  0  0  0  0  0  0  0  0
   68.3416   79.2703   25.0103 H   0  0  0  0  0  0  0  0  0  0  0  0
   69.3583   79.1338   27.2647 H   0  0  0  0  0  0  0  0  0  0  0  0
   71.9185   82.8066   27.4995 H   0  0  0  0  0  0  0  0  0  0  0  0
  1  2  2  0  0  0  0
  1  3  1  0  0  0  0
  1  4  1  0  0  0  0
  4  5  2  0  0  0  0
  4  9  1  0  0  0  0
  5  6  1  0  0  0  0
  5 10  1  0  0  0  0
  6  7  2  0  0  0  0
  6 11  1  0  0  0  0
  7  8  1  0  0  0  0
  7 12  1  0  0  0  0
  8  9  2  0  0  0  0
  8 13  1  0  0  0  0
  9 14  1  0  0  0  0
 10 15  1  0  0  0  0
M  END
$$$$
