SDF
 OpenBabel04091913113D

 19 19  0  0  1  0  0  0  0  0999 V2000
    3.5438    2.5411   68.5121 C   0  0  0  0  0  0  0  0  0  0  0  0
    2.6038    4.6031   70.4304 P   0  0  0  0  0  0  0  0  0  0  0  0
    0.7713    3.0315   68.5548 S   0  0  0  0  0  0  0  0  0  0  0  0
    4.9652    4.2345   66.8492 Cl  0  0  0  0  0  0  0  0  0  0  0  0
    4.6499    2.7415   67.6695 C   0  0  0  0  0  0  0  0  0  0  0  0
    6.4800   -0.8150   67.6377 Cl  0  0  0  0  0  0  0  0  0  0  0  0
    5.5470    1.7003   67.4018 C   0  0  0  0  0  0  0  0  0  0  0  0
    5.3720    0.4548   67.9943 C   0  0  0  0  0  0  0  0  0  0  0  0
    4.3057    0.2321   68.8588 C   0  0  0  0  0  0  0  0  0  0  0  0
    3.4035    1.2710   69.1187 C   0  0  0  0  0  0  0  0  0  0  0  0
    2.5155    3.6422   68.7625 C   0  0  2  0  0  0  0  0  0  0  0  0
    4.0472    5.1251   70.4588 O   0  0  0  0  0  0  0  0  0  0  0  0
    1.5544    5.6947   70.2611 O   0  0  0  0  0  0  0  0  0  0  0  0
    2.2976    3.5436   71.4843 O   0  0  0  0  0  0  0  0  0  0  0  0
    0.9955    2.3934   67.4093 H   0  0  0  0  0  0  0  0  0  0  0  0
    6.3756    1.8697   66.7208 H   0  0  0  0  0  0  0  0  0  0  0  0
    4.1531   -0.7337   69.3272 H   0  0  0  0  0  0  0  0  0  0  0  0
    2.5775    1.1049   69.8115 H   0  0  0  0  0  0  0  0  0  0  0  0
    2.6245    4.4329   68.0176 H   0  0  0  0  0  0  0  0  0  0  0  0
  1  5  2  0  0  0  0
  1 10  1  0  0  0  0
  1 11  1  0  0  0  0
  2 11  1  0  0  0  0
  2 12  2  0  0  0  0
  2 13  1  0  0  0  0
  2 14  1  0  0  0  0
  3 11  1  0  0  0  0
  3 15  1  0  0  0  0
  4  5  1  0  0  0  0
  5  7  1  0  0  0  0
  6  8  1  0  0  0  0
  7  8  2  0  0  0  0
  7 16  1  0  0  0  0
  8  9  1  0  0  0  0
  9 10  2  0  0  0  0
  9 17  1  0  0  0  0
 10 18  1  0  0  0  0
 11 19  1  6  0  0  0
M  END
$$$$
