SDS
 OpenBabel04091915533D

 42 41  0  0  0  0  0  0  0  0999 V2000
   34.4679    0.8421   29.2878 S   0  0  0  0  0  0  0  0  0  0  0  0
   35.4113    0.1867   28.3902 O   0  0  0  0  0  0  0  0  0  0  0  0
   34.7084    0.0786   30.7130 O   0  0  0  0  0  0  0  0  0  0  0  0
   34.7705    2.2331   29.5767 O   0  0  0  0  0  0  0  0  0  0  0  0
   33.0541    0.5603   29.0268 O   0  0  0  0  0  0  0  0  0  0  0  0
   35.9289    0.3486   31.3574 C   0  0  0  0  0  0  0  0  0  0  0  0
   28.9176   -0.2363   34.4117 C   0  0  0  0  0  0  0  0  0  0  0  0
   30.2947    0.3318   34.6327 C   0  0  0  0  0  0  0  0  0  0  0  0
   31.0364   -0.5182   35.6417 C   0  0  0  0  0  0  0  0  0  0  0  0
   32.4686   -0.0449   35.7111 C   0  0  0  0  0  0  0  0  0  0  0  0
   33.1044   -0.5567   36.9866 C   0  0  0  0  0  0  0  0  0  0  0  0
   34.3125    0.2942   37.3261 C   0  0  0  0  0  0  0  0  0  0  0  0
   35.5743   -0.4177   36.8888 C   0  0  0  0  0  0  0  0  0  0  0  0
   36.2911    0.4166   35.8535 C   0  0  0  0  0  0  0  0  0  0  0  0
   37.0133   -0.4945   34.8839 C   0  0  0  0  0  0  0  0  0  0  0  0
   37.0706    0.1726   33.5285 C   0  0  0  0  0  0  0  0  0  0  0  0
   35.7590   -0.0586   32.7976 C   0  0  0  0  0  0  0  0  0  0  0  0
   36.1710    1.4152   31.3208 H   0  0  0  0  0  0  0  0  0  0  0  0
   36.7328   -0.2240   30.8819 H   0  0  0  0  0  0  0  0  0  0  0  0
   28.3811    0.3751   33.6847 H   0  0  0  0  0  0  0  0  0  0  0  0
   28.3583   -0.2515   35.3522 H   0  0  0  0  0  0  0  0  0  0  0  0
   28.9923   -1.2600   34.0320 H   0  0  0  0  0  0  0  0  0  0  0  0
   30.2180    1.3606   35.0068 H   0  0  0  0  0  0  0  0  0  0  0  0
   30.8479    0.3550   33.6878 H   0  0  0  0  0  0  0  0  0  0  0  0
   31.0129   -1.5764   35.3591 H   0  0  0  0  0  0  0  0  0  0  0  0
   30.5525   -0.4204   36.6220 H   0  0  0  0  0  0  0  0  0  0  0  0
   32.4872    1.0514   35.6886 H   0  0  0  0  0  0  0  0  0  0  0  0
   33.0239   -0.4028   34.8344 H   0  0  0  0  0  0  0  0  0  0  0  0
   33.3597   -1.6154   36.8563 H   0  0  0  0  0  0  0  0  0  0  0  0
   32.3951   -0.4982   37.8166 H   0  0  0  0  0  0  0  0  0  0  0  0
   34.3475    0.4672   38.4072 H   0  0  0  0  0  0  0  0  0  0  0  0
   34.2270    1.2799   36.8559 H   0  0  0  0  0  0  0  0  0  0  0  0
   35.3363   -1.4037   36.4732 H   0  0  0  0  0  0  0  0  0  0  0  0
   36.2283   -0.5845   37.7476 H   0  0  0  0  0  0  0  0  0  0  0  0
   37.0080    1.0836   36.3441 H   0  0  0  0  0  0  0  0  0  0  0  0
   35.5795    1.0538   35.3156 H   0  0  0  0  0  0  0  0  0  0  0  0
   36.4954   -1.4562   34.7825 H   0  0  0  0  0  0  0  0  0  0  0  0
   38.0210   -0.6941   35.2453 H   0  0  0  0  0  0  0  0  0  0  0  0
   37.8991   -0.2632   32.9632 H   0  0  0  0  0  0  0  0  0  0  0  0
   37.2488    1.2474   33.6292 H   0  0  0  0  0  0  0  0  0  0  0  0
   35.4441   -1.1060   32.8561 H   0  0  0  0  0  0  0  0  0  0  0  0
   34.9379    0.5228   33.2494 H   0  0  0  0  0  0  0  0  0  0  0  0
  1  2  2  0  0  0  0
  1  3  1  0  0  0  0
  1  4  2  0  0  0  0
  1  5  1  0  0  0  0
  3  6  1  0  0  0  0
  6 17  1  0  0  0  0
  6 18  1  0  0  0  0
  6 19  1  0  0  0  0
  7  8  1  0  0  0  0
  7 20  1  0  0  0  0
  7 21  1  0  0  0  0
  7 22  1  0  0  0  0
  8  9  1  0  0  0  0
  8 23  1  0  0  0  0
  8 24  1  0  0  0  0
  9 10  1  0  0  0  0
  9 25  1  0  0  0  0
  9 26  1  0  0  0  0
 10 11  1  0  0  0  0
 10 27  1  0  0  0  0
 10 28  1  0  0  0  0
 11 12  1  0  0  0  0
 11 29  1  0  0  0  0
 11 30  1  0  0  0  0
 12 13  1  0  0  0  0
 12 31  1  0  0  0  0
 12 32  1  0  0  0  0
 13 14  1  0  0  0  0
 13 33  1  0  0  0  0
 13 34  1  0  0  0  0
 14 15  1  0  0  0  0
 14 35  1  0  0  0  0
 14 36  1  0  0  0  0
 15 16  1  0  0  0  0
 15 37  1  0  0  0  0
 15 38  1  0  0  0  0
 16 17  1  0  0  0  0
 16 39  1  0  0  0  0
 16 40  1  0  0  0  0
 17 41  1  0  0  0  0
 17 42  1  0  0  0  0
M  END
$$$$
